0:0
     RDKit          3D

 56 59  0  0  0  0  0  0  0  0999 V2000
   51.6599   28.9295   47.9571 H   0  0  0  0  0  0  0  0  0  0  0  0
   51.2230   29.9210   48.1470 C   0  0  0  0  0  0  0  0  0  0  0  0
   50.6364   30.4228   47.3634 H   0  0  0  0  0  0  0  0  0  0  0  0
   51.4040   30.5130   49.3240 C   0  0  0  0  0  0  0  0  0  0  0  0
   50.8940   31.7290   49.6190 N   0  0  0  0  0  0  0  0  0  0  0  0
   51.3120   31.9350   50.8800 C   0  0  0  0  0  0  0  0  0  0  0  0
   51.0250   33.0830   51.6090 O   0  0  0  0  0  0  0  0  0  0  0  0
   52.0460   30.8580   51.3170 C   0  0  0  0  0  0  0  0  0  0  0  0
   52.6370   30.7420   52.5160 C   0  0  0  0  0  0  0  0  0  0  0  0
   52.0190   30.8987   53.4124 H   0  0  0  0  0  0  0  0  0  0  0  0
   54.0700   30.4160   52.7090 C   0  0  0  0  0  0  0  0  0  0  0  0
   55.0280   31.1320   51.9820 C   0  0  0  0  0  0  0  0  0  0  0  0
   54.7068   31.9108   51.2747 H   0  0  0  0  0  0  0  0  0  0  0  0
   56.3890   30.8650   52.1480 C   0  0  0  0  0  0  0  0  0  0  0  0
   57.1313   31.4280   51.5632 H   0  0  0  0  0  0  0  0  0  0  0  0
   56.8170   29.8810   53.0580 C   0  0  0  0  0  0  0  0  0  0  0  0
   58.1750   29.5740   53.2450 O   0  0  0  0  0  0  0  0  0  0  0  0
   59.0800   29.1570   52.2210 C   0  0  0  0  0  0  0  0  0  0  0  0
   60.0520   28.9143   52.6752 H   0  0  0  0  0  0  0  0  0  0  0  0
   58.6616   28.2725   51.7185 H   0  0  0  0  0  0  0  0  0  0  0  0
   59.2700   30.2480   51.2010 C   0  0  0  0  0  0  0  0  0  0  0  0
   59.6570   31.5380   51.5990 C   0  0  0  0  0  0  0  0  0  0  0  0
   59.8166   31.7582   52.6649 H   0  0  0  0  0  0  0  0  0  0  0  0
   59.8400   32.5430   50.6450 C   0  0  0  0  0  0  0  0  0  0  0  0
   60.1315   33.5543   50.9648 H   0  0  0  0  0  0  0  0  0  0  0  0
   59.6540   32.2690   49.2830 C   0  0  0  0  0  0  0  0  0  0  0  0
   59.9020   33.5340   48.0780 S   0  0  0  0  0  0  0  0  0  0  0  0
   61.2940   34.0870   48.2240 O   0  0  0  0  0  0  0  0  0  0  0  0
   58.9340   34.6520   48.3450 O   0  0  0  0  0  0  0  0  0  0  0  0
   59.6770   32.9570   46.4390 N   0  0  0  0  0  0  0  0  0  0  0  0
   59.9300   34.0020   45.4240 C   0  0  0  0  0  0  0  0  0  0  0  0
   60.5147   34.8090   45.8897 H   0  0  0  0  0  0  0  0  0  0  0  0
   60.4733   33.5291   44.5926 H   0  0  0  0  0  0  0  0  0  0  0  0
   58.6380   34.6030   44.8470 C   0  0  0  0  0  0  0  0  0  0  0  0
   58.8220   35.6483   44.5580 H   0  0  0  0  0  0  0  0  0  0  0  0
   58.3328   34.0161   43.9681 H   0  0  0  0  0  0  0  0  0  0  0  0
   57.6070   34.5610   45.8050 O   0  0  0  0  0  0  0  0  0  0  0  0
   57.2050   33.2220   46.0170 C   0  0  0  0  0  0  0  0  0  0  0  0
   56.5464   33.1902   46.8975 H   0  0  0  0  0  0  0  0  0  0  0  0
   56.6915   32.8871   45.1037 H   0  0  0  0  0  0  0  0  0  0  0  0
   58.3920   32.2580   46.2560 C   0  0  0  0  0  0  0  0  0  0  0  0
   58.1847   31.6645   47.1587 H   0  0  0  0  0  0  0  0  0  0  0  0
   58.4869   31.6263   45.3605 H   0  0  0  0  0  0  0  0  0  0  0  0
   59.2730   30.9810   48.8850 C   0  0  0  0  0  0  0  0  0  0  0  0
   59.1180   30.7607   47.8185 H   0  0  0  0  0  0  0  0  0  0  0  0
   59.0890   29.9750   49.8370 C   0  0  0  0  0  0  0  0  0  0  0  0
   58.8006   28.9634   49.5152 H   0  0  0  0  0  0  0  0  0  0  0  0
   55.8670   29.1800   53.8160 C   0  0  0  0  0  0  0  0  0  0  0  0
   56.3250   28.2160   54.7280 O   0  0  0  0  0  0  0  0  0  0  0  0
   55.7000   27.9220   55.9730 C   0  0  0  0  0  0  0  0  0  0  0  0
   56.3597   28.2323   56.7967 H   0  0  0  0  0  0  0  0  0  0  0  0
   54.7464   28.4660   56.0421 H   0  0  0  0  0  0  0  0  0  0  0  0
   55.5110   26.8406   56.0421 H   0  0  0  0  0  0  0  0  0  0  0  0
   54.4970   29.4560   53.6450 C   0  0  0  0  0  0  0  0  0  0  0  0
   53.7531   28.9158   54.2491 H   0  0  0  0  0  0  0  0  0  0  0  0
   52.1150   29.9490   50.3260 N   0  0  0  0  0  0  0  0  0  0  0  0
  1  2  1  0
  2  3  1  0
  2  4  2  0
  4  5  1  0
  5  6  2  0
  6  7  1  0
  6  8  1  0
  8  9  2  0
  9 10  1  0
  9 11  1  0
 11 12  2  0
 12 13  1  0
 12 14  1  0
 14 15  1  0
 14 16  2  0
 16 17  1  0
 17 18  1  0
 18 19  1  0
 18 20  1  0
 18 21  1  0
 21 22  2  0
 22 23  1  0
 22 24  1  0
 24 25  1  0
 24 26  2  0
 26 27  1  0
 27 28  2  0
 27 29  2  0
 27 30  1  0
 30 31  1  0
 31 32  1  0
 31 33  1  0
 31 34  1  0
 34 35  1  0
 34 36  1  0
 34 37  1  0
 37 38  1  0
 38 39  1  0
 38 40  1  0
 38 41  1  0
 41 42  1  0
 41 43  1  0
 26 44  1  0
 44 45  1  0
 44 46  2  0
 46 47  1  0
 16 48  1  0
 48 49  1  0
 49 50  1  0
 50 51  1  0
 50 52  1  0
 50 53  1  0
 48 54  2  0
 54 55  1  0
  8 56  1  0
 56  4  1  0
 54 11  1  0
 46 21  1  0
 41 30  1  0
M  CHG  2   7  -1  56  -1
M  END
>  <UniqueID>  (1) 
1

>  <SMILES>  (1) 
C=c1nc([O-])/c(=C/c2ccc(OCc3ccc(S(=O)(=O)N4CCOCC4)cc3)c(OC)c2)[n-]1

>  <Energy>  (1) 
101.7570622291261

>  <Genealogy>  (1) 
C=c1nc([O-])c(=Cc2ccc(OCc3ccc(S(=O)(=O)N4CCOCC4)cc3)c(OC)c2)[n-]1 (protonated)
C=c1nc([O-])/c(=C/c2ccc(OCc3ccc(S(=O)(=O)N4CCOCC4)cc3)c(OC)c2)[n-]1 (cis-trans isomerization)
C=c1nc([O-])/c(=C/c2ccc(OCc3ccc(S(=O)(=O)N4CCOCC4)cc3)c(OC)c2)[n-]1 (3D coordinates assigned)
C=c1nc([O-])/c(=C/c2ccc(OCc3ccc(S(=O)(=O)N4CCOCC4)cc3)c(OC)c2)[n-]1 (nonaromatic ring conformer: 101.7570622291261 kcal/mol)

>  <smiles>  (1) 
C=c1nc(O)c(=Cc2ccc(OCc3ccc(S(=O)(=O)N4CCOCC4)cc3)c(OC)c2)[nH]1

>  <score_type>  (1) 
oracle

>  <origin>  (1) 
adg

>  <m_score__min__energy>  (1) 
-15.27

>  <m_primary>  (1) 
energy

$$$$
1:0
     RDKit          3D

 35 38  0  0  0  0  0  0  0  0999 V2000
   54.0730   23.6660   46.9890 O   0  0  0  0  0  0  0  0  0  0  0  0
   54.5220   23.8720   45.8430 N   0  0  0  0  0  0  0  0  0  0  0  0
   53.8070   23.4200   44.7570 O   0  0  0  0  0  0  0  0  0  0  0  0
   55.8060   24.4930   45.6600 C   0  0  0  0  0  0  0  0  0  0  0  0
   56.9540   23.7160   45.3930 C   0  0  0  0  0  0  0  0  0  0  0  0
   56.8980   21.9570   45.3390 Cl  0  0  0  0  0  0  0  0  0  0  0  0
   58.1920   24.3370   45.2160 C   0  0  0  0  0  0  0  0  0  0  0  0
   58.3080   25.7220   45.3040 C   0  0  0  0  0  0  0  0  0  0  0  0
   57.1860   26.5200   45.5740 C   0  0  0  0  0  0  0  0  0  0  0  0
   57.3480   27.9940   45.6640 C   0  0  0  0  0  0  0  0  0  0  0  0
   56.4540   28.8890   45.2010 N   0  0  0  0  0  0  0  0  0  0  0  0
   56.9420   30.0890   45.4620 N   0  0  0  0  0  0  0  0  0  0  0  0
   58.1230   29.9010   46.0780 C   0  0  0  0  0  0  0  0  0  0  0  0
   58.9980   31.0000   46.5410 C   0  0  0  0  0  0  0  0  0  0  0  0
   58.4650   32.2790   46.7810 C   0  0  0  0  0  0  0  0  0  0  0  0
   59.2850   33.3220   47.2190 C   0  0  0  0  0  0  0  0  0  0  0  0
   60.6540   33.1030   47.4270 C   0  0  0  0  0  0  0  0  0  0  0  0
   61.4870   34.1440   47.8670 C   0  0  0  0  0  0  0  0  0  0  0  0
   62.8500   33.9130   48.0710 C   0  0  0  0  0  0  0  0  0  0  0  0
   63.3910   32.6460   47.8370 C   0  0  0  0  0  0  0  0  0  0  0  0
   62.5730   31.6010   47.3980 C   0  0  0  0  0  0  0  0  0  0  0  0
   61.2020   31.8190   47.1900 C   0  0  0  0  0  0  0  0  0  0  0  0
   60.3700   30.7780   46.7490 C   0  0  0  0  0  0  0  0  0  0  0  0
   58.4180   28.5930   46.2260 N   0  0  0  0  0  0  0  0  0  0  0  0
   55.9280   25.8960   45.7490 C   0  0  0  0  0  0  0  0  0  0  0  0
   54.7930   26.6640   45.9920 O   0  0  0  0  0  0  0  0  0  0  0  0
   59.0830   23.7273   45.0053 H   0  0  0  0  0  0  0  0  0  0  0  0
   59.2903   26.1957   45.1602 H   0  0  0  0  0  0  0  0  0  0  0  0
   57.3917   32.4601   46.6223 H   0  0  0  0  0  0  0  0  0  0  0  0
   58.8551   34.3180   47.4012 H   0  0  0  0  0  0  0  0  0  0  0  0
   61.0659   35.1433   48.0515 H   0  0  0  0  0  0  0  0  0  0  0  0
   63.4990   34.7310   48.4168 H   0  0  0  0  0  0  0  0  0  0  0  0
   64.4647   32.4703   47.9989 H   0  0  0  0  0  0  0  0  0  0  0  0
   63.0045   30.6058   47.2152 H   0  0  0  0  0  0  0  0  0  0  0  0
   60.7953   29.7804   46.5647 H   0  0  0  0  0  0  0  0  0  0  0  0
  1  2  2  0
  2  3  1  0
  2  4  1  0
  4  5  2  0
  5  6  1  0
  5  7  1  0
  7  8  2  0
  8  9  1  0
  9 10  1  0
 10 11  2  0
 11 12  1  0
 12 13  1  0
 13 14  1  0
 14 15  2  0
 15 16  1  0
 16 17  2  0
 17 18  1  0
 18 19  2  0
 19 20  1  0
 20 21  2  0
 21 22  1  0
 22 23  2  0
 13 24  2  0
  9 25  2  0
 25 26  1  0
 25  4  1  0
 24 10  1  0
 23 14  1  0
 22 17  1  0
  7 27  1  0
  8 28  1  0
 15 29  1  0
 16 30  1  0
 18 31  1  0
 19 32  1  0
 20 33  1  0
 21 34  1  0
 23 35  1  0
M  CHG  4   2   1   3  -1  12  -1  26  -1
M  END
>  <UniqueID>  (2) 
2

>  <SMILES>  (2) 
O=[N+]([O-])c1c(Cl)ccc(-c2n[n-]c(-c3ccc4ccccc4c3)n2)c1[O-]

>  <Energy>  (2) 
84.14250745640885

>  <Genealogy>  (2) 
O=[N+]([O-])c1c(Cl)ccc(-c2n[n-]c(-c3ccc4ccccc4c3)n2)c1[O-] (protonated)
O=[N+]([O-])c1c(Cl)ccc(-c2n[n-]c(-c3ccc4ccccc4c3)n2)c1[O-] (3D coordinates assigned)
O=[N+]([O-])c1c(Cl)ccc(-c2n[n-]c(-c3ccc4ccccc4c3)n2)c1[O-] (optimized conformer: 84.14250745640885 kcal/mol)

>  <smiles>  (2) 
O=[N+]([O-])c1c(Cl)ccc(-c2n[nH]c(-c3ccc4ccccc4c3)n2)c1O

>  <score_type>  (2) 
oracle

>  <origin>  (2) 
adg

>  <m_score__min__energy>  (2) 
-14.470000000000001

>  <m_primary>  (2) 
energy

$$$$
2:0
     RDKit          3D

 42 44  0  0  0  0  0  0  0  0999 V2000
   58.7627   26.6178   47.4997 H   0  0  0  0  0  0  0  0  0  0  0  0
   58.7980   27.6840   47.7680 C   0  0  0  0  0  0  0  0  0  0  0  0
   59.1930   27.9919   48.7474 H   0  0  0  0  0  0  0  0  0  0  0  0
   58.3560   28.6160   46.8940 C   0  0  0  0  0  0  0  0  0  0  0  0
   58.4040   29.9930   47.2460 C   0  0  0  0  0  0  0  0  0  0  0  0
   59.0950   30.5860   48.8070 S   0  0  0  0  0  0  0  0  0  0  0  0
   60.7360   29.8180   48.5700 C   0  0  0  0  0  0  0  0  0  0  0  0
   60.6302   28.7233   48.5906 H   0  0  0  0  0  0  0  0  0  0  0  0
   61.1440   30.1403   47.6006 H   0  0  0  0  0  0  0  0  0  0  0  0
   61.6770   30.2450   49.6610 C   0  0  0  0  0  0  0  0  0  0  0  0
   61.8100   29.5160   50.6790 O   0  0  0  0  0  0  0  0  0  0  0  0
   62.3770   31.4930   49.6090 N   0  0  0  0  0  0  0  0  0  0  0  0
   62.4370   32.3820   48.4840 C   0  0  0  0  0  0  0  0  0  0  0  0
   63.6590   32.7290   47.8910 C   0  0  0  0  0  0  0  0  0  0  0  0
   64.5952   32.2910   48.2674 H   0  0  0  0  0  0  0  0  0  0  0  0
   63.6910   33.6290   46.8240 C   0  0  0  0  0  0  0  0  0  0  0  0
   64.6514   33.8898   46.3554 H   0  0  0  0  0  0  0  0  0  0  0  0
   62.5080   34.1990   46.3500 C   0  0  0  0  0  0  0  0  0  0  0  0
   62.5414   34.9037   45.5061 H   0  0  0  0  0  0  0  0  0  0  0  0
   61.2710   33.8780   46.9450 C   0  0  0  0  0  0  0  0  0  0  0  0
   59.9980   34.4790   46.4570 C   0  0  0  0  0  0  0  0  0  0  0  0
   59.7110   35.6680   46.7600 O   0  0  0  0  0  0  0  0  0  0  0  0
   59.0320   33.7070   45.6070 C   0  0  0  0  0  0  0  0  0  0  0  0
   58.3370   33.1516   46.2540 H   0  0  0  0  0  0  0  0  0  0  0  0
   58.4647   34.4034   44.9720 H   0  0  0  0  0  0  0  0  0  0  0  0
   59.5861   33.0001   44.9720 H   0  0  0  0  0  0  0  0  0  0  0  0
   61.2540   32.9730   48.0230 C   0  0  0  0  0  0  0  0  0  0  0  0
   60.2988   32.7267   48.5098 H   0  0  0  0  0  0  0  0  0  0  0  0
   57.9260   30.9310   46.3920 N   0  0  0  0  0  0  0  0  0  0  0  0
   57.3900   30.5930   45.2000 C   0  0  0  0  0  0  0  0  0  0  0  0
   56.9480   31.4870   44.4330 O   0  0  0  0  0  0  0  0  0  0  0  0
   57.3340   29.2940   44.8270 N   0  0  0  0  0  0  0  0  0  0  0  0
   57.7970   28.2860   45.6160 C   0  0  0  0  0  0  0  0  0  0  0  0
   57.7500   27.0240   45.1240 C   0  0  0  0  0  0  0  0  0  0  0  0
   58.2259   26.8309   44.1513 H   0  0  0  0  0  0  0  0  0  0  0  0
   57.0980   25.8910   45.8150 C   0  0  0  0  0  0  0  0  0  0  0  0
   57.7770   24.8250   46.2720 N   0  0  0  0  0  0  0  0  0  0  0  0
   56.8300   24.0830   46.8840 C   0  0  0  0  0  0  0  0  0  0  0  0
   57.0810   22.9800   47.4360 O   0  0  0  0  0  0  0  0  0  0  0  0
   55.5910   24.6200   46.8670 N   0  0  0  0  0  0  0  0  0  0  0  0
   55.7770   25.7700   46.1980 C   0  0  0  0  0  0  0  0  0  0  0  0
   54.7710   26.7060   45.9920 O   0  0  0  0  0  0  0  0  0  0  0  0
  1  2  1  0
  2  3  1  0
  2  4  2  0
  4  5  1  0
  5  6  1  0
  6  7  1  0
  7  8  1  0
  7  9  1  0
  7 10  1  0
 10 11  2  0
 10 12  1  0
 12 13  1  0
 13 14  2  0
 14 15  1  0
 14 16  1  0
 16 17  1  0
 16 18  2  0
 18 19  1  0
 18 20  1  0
 20 21  1  0
 21 22  2  0
 21 23  1  0
 23 24  1  0
 23 25  1  0
 23 26  1  0
 20 27  2  0
 27 28  1  0
  5 29  2  0
 29 30  1  0
 30 31  2  0
 30 32  1  0
 32 33  1  0
 33 34  2  0
 34 35  1  0
 34 36  1  0
 36 37  1  0
 37 38  1  0
 38 39  2  0
 38 40  1  0
 40 41  1  0
 41 42  1  0
 33  4  1  0
 41 36  2  0
 27 13  1  0
M  CHG  5  12  -1  32  -1  37  -1  40  -1  42  -1
M  END
>  <UniqueID>  (3) 
3

>  <SMILES>  (3) 
C=c1c(SCC(=O)[N-]c2cccc(C(C)=O)c2)nc(=O)[n-]/c1=C\c1[n-]c(=O)[n-]c1[O-]

>  <Energy>  (3) 
92.49190960133903

>  <Genealogy>  (3) 
C=c1c(SCC(=O)[N-]c2cccc(C(C)=O)c2)nc(=O)[n-]c1=Cc1[n-]c(=O)[n-]c1[O-] (protonated)
C=c1c(SCC(=O)[N-]c2cccc(C(C)=O)c2)nc(=O)[n-]/c1=C\c1[n-]c(=O)[n-]c1[O-] (cis-trans isomerization)
C=c1c(SCC(=O)[N-]c2cccc(C(C)=O)c2)nc(=O)[n-]/c1=C\c1[n-]c(=O)[n-]c1[O-] (3D coordinates assigned)
C=c1c(SCC(=O)[N-]c2cccc(C(C)=O)c2)nc(=O)[n-]/c1=C\c1[n-]c(=O)[n-]c1[O-] (optimized conformer: 92.49190960133903 kcal/mol)

>  <smiles>  (3) 
C=c1c(SCC(=O)Nc2cccc(C(C)=O)c2)nc(=O)[nH]c1=Cc1[nH]c(=O)[nH]c1O

>  <score_type>  (3) 
oracle

>  <origin>  (3) 
adg

>  <m_score__min__energy>  (3) 
-19.77

>  <m_primary>  (3) 
energy

$$$$
3:0
     RDKit          3D

 48 51  0  0  0  0  0  0  0  0999 V2000
   50.0851   23.1346   44.3728 H   0  0  0  0  0  0  0  0  0  0  0  0
   50.7580   22.8740   45.2030 C   0  0  0  0  0  0  0  0  0  0  0  0
   52.0700   22.6190   44.9580 N   0  0  0  0  0  0  0  0  0  0  0  0
   52.9450   22.2900   45.9480 C   0  0  0  0  0  0  0  0  0  0  0  0
   54.1910   22.0740   45.6280 N   0  0  0  0  0  0  0  0  0  0  0  0
   55.0600   22.9480   44.8910 C   0  0  0  0  0  0  0  0  0  0  0  0
   55.6560   22.5000   43.8750 O   0  0  0  0  0  0  0  0  0  0  0  0
   55.3390   24.3180   45.3530 C   0  0  0  0  0  0  0  0  0  0  0  0
   54.3890   25.2370   45.6150 N   0  0  0  0  0  0  0  0  0  0  0  0
   54.9860   26.3470   46.0180 N   0  0  0  0  0  0  0  0  0  0  0  0
   56.3210   26.1450   46.0200 C   0  0  0  0  0  0  0  0  0  0  0  0
   57.3080   27.1780   46.4160 C   0  0  0  0  0  0  0  0  0  0  0  0
   58.1600   26.9910   47.5210 C   0  0  0  0  0  0  0  0  0  0  0  0
   58.0939   26.0646   48.1104 H   0  0  0  0  0  0  0  0  0  0  0  0
   59.0890   27.9730   47.8750 C   0  0  0  0  0  0  0  0  0  0  0  0
   59.7544   27.8118   48.7359 H   0  0  0  0  0  0  0  0  0  0  0  0
   59.1770   29.1600   47.1400 C   0  0  0  0  0  0  0  0  0  0  0  0
   60.3770   30.3780   47.5630 S   0  0  0  0  0  0  0  0  0  0  0  0
   61.1610   30.7570   46.3380 O   0  0  0  0  0  0  0  0  0  0  0  0
   61.3270   29.8150   48.5850 O   0  0  0  0  0  0  0  0  0  0  0  0
   59.5420   31.8230   48.2110 C   0  0  2  0  0  0  0  0  0  0  0  0
   60.3025   32.4889   48.6448 H   0  0  0  0  0  0  0  0  0  0  0  0
   58.5850   31.4530   49.3080 C   0  0  0  0  0  0  0  0  0  0  0  0
   57.7940   32.3170   49.7710 O   0  0  0  0  0  0  0  0  0  0  0  0
   58.5430   30.1550   49.8040 O   0  0  0  0  0  0  0  0  0  0  0  0
   58.8390   32.5660   47.1100 C   0  0  0  0  0  0  0  0  0  0  0  0
   57.7540   32.1240   46.5150 O   0  0  0  0  0  0  0  0  0  0  0  0
   57.3720   33.0090   45.6250 C   0  0  0  0  0  0  0  0  0  0  0  0
   56.4932   32.9100   44.9709 H   0  0  0  0  0  0  0  0  0  0  0  0
   58.2380   34.0820   45.6330 C   0  0  0  0  0  0  0  0  0  0  0  0
   58.1820   34.9814   45.0022 H   0  0  0  0  0  0  0  0  0  0  0  0
   59.1880   33.8000   46.5910 C   0  0  0  0  0  0  0  0  0  0  0  0
   60.0447   34.4255   46.8821 H   0  0  0  0  0  0  0  0  0  0  0  0
   58.3380   29.3520   46.0350 C   0  0  0  0  0  0  0  0  0  0  0  0
   58.4101   30.2787   45.4468 H   0  0  0  0  0  0  0  0  0  0  0  0
   57.4100   28.3710   45.6770 C   0  0  0  0  0  0  0  0  0  0  0  0
   56.7532   28.5327   44.8096 H   0  0  0  0  0  0  0  0  0  0  0  0
   56.5870   24.8520   45.6030 C   0  0  0  0  0  0  0  0  0  0  0  0
   57.5666   24.3632   45.4957 H   0  0  0  0  0  0  0  0  0  0  0  0
   52.4810   22.2330   47.2800 C   0  0  0  0  0  0  0  0  0  0  0  0
   53.1788   22.0028   48.0986 H   0  0  0  0  0  0  0  0  0  0  0  0
   51.1270   22.4710   47.5550 C   0  0  0  0  0  0  0  0  0  0  0  0
   50.6270   22.4480   48.9680 C   0  0  0  0  0  0  0  0  0  0  0  0
   51.4812   22.4873   49.6599 H   0  0  0  0  0  0  0  0  0  0  0  0
   49.9752   23.3171   49.1405 H   0  0  0  0  0  0  0  0  0  0  0  0
   50.0577   21.5227   49.1405 H   0  0  0  0  0  0  0  0  0  0  0  0
   50.2630   22.8060   46.5050 C   0  0  0  0  0  0  0  0  0  0  0  0
   49.2017   23.0140   46.7058 H   0  0  0  0  0  0  0  0  0  0  0  0
  1  2  1  0
  2  3  1  0
  3  4  1  0
  4  5  2  0
  5  6  1  0
  6  7  2  0
  6  8  1  0
  8  9  2  0
  9 10  1  0
 10 11  1  0
 11 12  1  0
 12 13  2  0
 13 14  1  0
 13 15  1  0
 15 16  1  0
 15 17  2  0
 17 18  1  0
 18 19  2  0
 18 20  2  0
 18 21  1  0
 21 22  1  1
 21 23  1  0
 23 24  2  0
 23 25  1  0
 21 26  1  0
 26 27  1  0
 27 28  1  0
 28 29  1  0
 28 30  2  0
 30 31  1  0
 30 32  1  0
 32 33  1  0
 17 34  1  0
 34 35  1  0
 34 36  2  0
 36 37  1  0
 11 38  2  0
 38 39  1  0
  4 40  1  0
 40 41  1  0
 40 42  2  0
 42 43  1  0
 43 44  1  0
 43 45  1  0
 43 46  1  0
 42 47  1  0
 47 48  1  0
 47  2  2  0
 38  8  1  0
 36 12  1  0
 32 26  2  0
M  CHG  3   3  -1  10  -1  25  -1
M  END
>  <UniqueID>  (4) 
4

>  <SMILES>  (4) 
Cc1cc[n-]/c(=N/C(=O)c2cc(-c3ccc(S(=O)(=O)[C@H](C(=O)[O-])c4ccco4)cc3)[n-]n2)c1

>  <Energy>  (4) 
113.56829798222228

>  <Genealogy>  (4) 
Cc1cc[n-]c(=NC(=O)c2cc(-c3ccc(S(=O)(=O)C(C(=O)[O-])c4ccco4)cc3)[n-]n2)c1 (protonated)
Cc1cc[n-]c(=NC(=O)c2cc(-c3ccc(S(=O)(=O)[C@H](C(=O)[O-])c4ccco4)cc3)[n-]n2)c1 (chirality)
Cc1cc[n-]/c(=N/C(=O)c2cc(-c3ccc(S(=O)(=O)[C@H](C(=O)[O-])c4ccco4)cc3)[n-]n2)c1 (cis-trans isomerization)
Cc1cc[n-]/c(=N/C(=O)c2cc(-c3ccc(S(=O)(=O)[C@H](C(=O)[O-])c4ccco4)cc3)[n-]n2)c1 (3D coordinates assigned)
Cc1cc[n-]/c(=N/C(=O)c2cc(-c3ccc(S(=O)(=O)[C@H](C(=O)[O-])c4ccco4)cc3)[n-]n2)c1 (optimized conformer: 113.56829798222228 kcal/mol)

>  <smiles>  (4) 
Cc1cc[nH]c(=NC(=O)c2cc(-c3ccc(S(=O)(=O)C(C(=O)O)c4ccco4)cc3)[nH]n2)c1

>  <score_type>  (4) 
oracle

>  <origin>  (4) 
adg

>  <m_score__min__energy>  (4) 
-14

>  <m_primary>  (4) 
energy

$$$$
4:0
     RDKit          3D

 48 50  0  0  0  0  0  0  0  0999 V2000
   56.2750   25.0590   47.1740 O   0  0  0  0  0  0  0  0  0  0  0  0
   57.1980   24.2110   47.0400 C   0  0  0  0  0  0  0  0  0  0  0  0
   58.4860   24.5960   46.3870 C   0  0  0  0  0  0  0  0  0  0  0  0
   58.9940   25.8020   47.0250 N   0  0  0  0  0  0  0  0  0  0  0  0
   59.4090   26.9710   46.3180 C   0  0  0  0  0  0  0  0  0  0  0  0
   60.6260   27.1540   46.0420 O   0  0  0  0  0  0  0  0  0  0  0  0
   58.3940   27.9330   45.8710 C   0  0  0  0  0  0  0  0  0  0  0  0
   57.0310   27.7000   45.8070 C   0  0  0  0  0  0  0  0  0  0  0  0
   56.5000   28.8050   45.1820 C   0  0  0  0  0  0  0  0  0  0  0  0
   55.1560   28.9690   44.8680 O   0  0  0  0  0  0  0  0  0  0  0  0
   57.4640   29.6950   44.8710 N   0  0  0  0  0  0  0  0  0  0  0  0
   57.3110   30.8860   44.0340 C   0  0  0  0  0  0  0  0  0  0  0  0
   56.6730   32.0380   44.8250 C   0  0  0  0  0  0  0  0  0  0  0  0
   57.7130   32.9540   45.4210 C   0  0  0  0  0  0  0  0  0  0  0  0
   58.3440   33.9250   44.6230 C   0  0  0  0  0  0  0  0  0  0  0  0
   59.2590   34.8170   45.1900 C   0  0  0  0  0  0  0  0  0  0  0  0
   59.5540   34.7450   46.5530 C   0  0  0  0  0  0  0  0  0  0  0  0
   58.9280   33.7860   47.3540 C   0  0  0  0  0  0  0  0  0  0  0  0
   58.0060   32.8960   46.7940 C   0  0  0  0  0  0  0  0  0  0  0  0
   58.6310   29.1680   45.2920 C   0  0  0  0  0  0  0  0  0  0  0  0
   57.0380   22.8790   47.5330 N   0  0  0  0  0  0  0  0  0  0  0  0
   56.1720   21.8790   46.9290 C   0  0  0  0  0  0  0  0  0  0  0  0
   56.2810   21.9920   45.4350 C   0  0  0  0  0  0  0  0  0  0  0  0
   57.2610   21.2630   44.7390 C   0  0  0  0  0  0  0  0  0  0  0  0
   57.4230   21.4370   43.3600 C   0  0  0  0  0  0  0  0  0  0  0  0
   56.6170   22.3470   42.6710 C   0  0  0  0  0  0  0  0  0  0  0  0
   55.6480   23.0830   43.3590 C   0  0  0  0  0  0  0  0  0  0  0  0
   55.4830   22.9120   44.7370 C   0  0  0  0  0  0  0  0  0  0  0  0
   59.2164   23.7815   46.5016 H   0  0  0  0  0  0  0  0  0  0  0  0
   58.3206   24.7816   45.3155 H   0  0  0  0  0  0  0  0  0  0  0  0
   56.4875   26.8183   46.1773 H   0  0  0  0  0  0  0  0  0  0  0  0
   58.3012   31.2021   43.6741 H   0  0  0  0  0  0  0  0  0  0  0  0
   56.6542   30.6368   43.1875 H   0  0  0  0  0  0  0  0  0  0  0  0
   56.0309   32.6212   44.1486 H   0  0  0  0  0  0  0  0  0  0  0  0
   56.0886   31.6033   45.6493 H   0  0  0  0  0  0  0  0  0  0  0  0
   58.1167   33.9829   43.5483 H   0  0  0  0  0  0  0  0  0  0  0  0
   59.7472   35.5765   44.5617 H   0  0  0  0  0  0  0  0  0  0  0  0
   60.2792   35.4432   46.9963 H   0  0  0  0  0  0  0  0  0  0  0  0
   59.1611   33.7311   48.4276 H   0  0  0  0  0  0  0  0  0  0  0  0
   57.5089   32.1487   47.4300 H   0  0  0  0  0  0  0  0  0  0  0  0
   59.6173   29.6446   45.1913 H   0  0  0  0  0  0  0  0  0  0  0  0
   56.4862   20.8745   47.2488 H   0  0  0  0  0  0  0  0  0  0  0  0
   55.1309   22.0431   47.2439 H   0  0  0  0  0  0  0  0  0  0  0  0
   57.9031   20.5529   45.2806 H   0  0  0  0  0  0  0  0  0  0  0  0
   58.1849   20.8573   42.8183 H   0  0  0  0  0  0  0  0  0  0  0  0
   56.7450   22.4842   41.5871 H   0  0  0  0  0  0  0  0  0  0  0  0
   55.0137   23.7984   42.8151 H   0  0  0  0  0  0  0  0  0  0  0  0
   54.7255   23.5003   45.2757 H   0  0  0  0  0  0  0  0  0  0  0  0
  1  2  2  0
  2  3  1  0
  3  4  1  0
  4  5  1  0
  5  6  2  0
  5  7  1  0
  7  8  1  0
  8  9  2  0
  9 10  1  0
  9 11  1  0
 11 12  1  0
 12 13  1  0
 13 14  1  0
 14 15  2  0
 15 16  1  0
 16 17  2  0
 17 18  1  0
 18 19  2  0
 11 20  1  0
  2 21  1  0
 21 22  1  0
 22 23  1  0
 23 24  2  0
 24 25  1  0
 25 26  2  0
 26 27  1  0
 27 28  2  0
 20  7  2  0
 28 23  1  0
 19 14  1  0
  3 29  1  0
  3 30  1  0
  8 31  1  0
 12 32  1  0
 12 33  1  0
 13 34  1  0
 13 35  1  0
 15 36  1  0
 16 37  1  0
 17 38  1  0
 18 39  1  0
 19 40  1  0
 20 41  1  0
 22 42  1  0
 22 43  1  0
 24 44  1  0
 25 45  1  0
 26 46  1  0
 27 47  1  0
 28 48  1  0
M  CHG  3   4  -1  10  -1  21  -1
M  END
>  <UniqueID>  (5) 
5

>  <SMILES>  (5) 
O=C(C[N-]C(=O)c1cc([O-])n(CCc2ccccc2)c1)[N-]Cc1ccccc1

>  <Energy>  (5) 
66.05309006542109

>  <Genealogy>  (5) 
O=C(C[N-]C(=O)c1cc([O-])n(CCc2ccccc2)c1)[N-]Cc1ccccc1 (protonated)
O=C(C[N-]C(=O)c1cc([O-])n(CCc2ccccc2)c1)[N-]Cc1ccccc1 (3D coordinates assigned)
O=C(C[N-]C(=O)c1cc([O-])n(CCc2ccccc2)c1)[N-]Cc1ccccc1 (optimized conformer: 66.05309006542109 kcal/mol)

>  <smiles>  (5) 
O=C(CNC(=O)c1cc(O)n(CCc2ccccc2)c1)NCc1ccccc1

>  <score_type>  (5) 
oracle

>  <origin>  (5) 
adg

>  <m_score__min__energy>  (5) 
-14.539999999999999

>  <m_primary>  (5) 
energy

$$$$
5:0
     RDKit          3D

 55 57  0  0  0  0  0  0  0  0999 V2000
   57.5050   20.4220   45.9290 C   0  0  0  0  0  0  0  0  0  0  0  0
   57.1340   21.4000   44.8630 C   0  0  0  0  0  0  0  0  0  0  0  0
   56.2600   21.1350   43.8720 N   0  0  0  0  0  0  0  0  0  0  0  0
   56.1590   22.2150   43.1510 O   0  0  0  0  0  0  0  0  0  0  0  0
   56.9180   23.1760   43.6270 C   0  0  0  0  0  0  0  0  0  0  0  0
   57.0350   24.5350   43.0200 C   0  0  0  0  0  0  0  0  0  0  0  0
   57.5630   22.7100   44.7550 C   0  0  0  0  0  0  0  0  0  0  0  0
   58.5830   23.4240   45.5940 C   0  0  0  0  0  0  0  0  0  0  0  0
   57.9090   24.4640   46.4910 C   0  0  0  0  0  0  0  0  0  0  0  0
   57.3990   25.5370   45.7060 O   0  0  0  0  0  0  0  0  0  0  0  0
   56.1360   26.1080   45.9030 C   0  0  0  0  0  0  0  0  0  0  0  0
   55.1750   25.4070   46.3190 O   0  0  0  0  0  0  0  0  0  0  0  0
   55.9200   27.4960   45.6300 N   0  0  0  0  0  0  0  0  0  0  0  0
   56.9660   28.4810   45.3280 C   0  0  2  0  0  0  0  0  0  0  0  0
   57.7300   28.9150   46.5950 C   0  0  0  0  0  0  0  0  0  0  0  0
   58.9090   28.0160   46.8720 C   0  0  0  0  0  0  0  0  0  0  0  0
   59.6590   27.4780   45.8120 C   0  0  0  0  0  0  0  0  0  0  0  0
   60.7670   26.6660   46.0730 C   0  0  0  0  0  0  0  0  0  0  0  0
   61.1370   26.3890   47.3920 C   0  0  0  0  0  0  0  0  0  0  0  0
   60.4000   26.9250   48.4510 C   0  0  0  0  0  0  0  0  0  0  0  0
   59.2920   27.7370   48.1950 C   0  0  0  0  0  0  0  0  0  0  0  0
   56.4090   29.6750   44.5900 C   0  0  0  0  0  0  0  0  0  0  0  0
   55.1710   29.9200   44.6100 O   0  0  0  0  0  0  0  0  0  0  0  0
   57.3150   30.5700   43.9270 N   0  0  0  0  0  0  0  0  0  0  0  0
   58.4250   31.0710   44.3920 C   0  0  0  0  0  0  0  0  0  0  0  0
   58.5280   31.8640   45.6360 C   0  0  0  0  0  0  0  0  0  0  0  0
   59.1570   31.4300   46.7510 N   0  0  0  0  0  0  0  0  0  0  0  0
   58.9200   32.3920   47.6660 C   0  0  0  0  0  0  0  0  0  0  0  0
   58.1410   33.3800   47.1070 C   0  0  0  0  0  0  0  0  0  0  0  0
   57.8930   33.0380   45.8310 N   0  0  0  0  0  0  0  0  0  0  0  0
   57.0510   33.7690   44.8870 C   0  0  0  0  0  0  0  0  0  0  0  0
   57.3335   20.8740   46.9171 H   0  0  0  0  0  0  0  0  0  0  0  0
   56.8876   19.5173   45.8275 H   0  0  0  0  0  0  0  0  0  0  0  0
   58.5671   20.1544   45.8275 H   0  0  0  0  0  0  0  0  0  0  0  0
   57.0999   25.2888   43.8184 H   0  0  0  0  0  0  0  0  0  0  0  0
   57.9405   24.5817   42.3972 H   0  0  0  0  0  0  0  0  0  0  0  0
   56.1508   24.7358   42.3972 H   0  0  0  0  0  0  0  0  0  0  0  0
   59.1107   22.6917   46.2228 H   0  0  0  0  0  0  0  0  0  0  0  0
   59.2938   23.9363   44.9289 H   0  0  0  0  0  0  0  0  0  0  0  0
   57.0813   23.9894   47.0384 H   0  0  0  0  0  0  0  0  0  0  0  0
   58.6511   24.8602   47.1998 H   0  0  0  0  0  0  0  0  0  0  0  0
   57.6890   27.9858   44.6631 H   0  0  0  0  0  0  0  0  0  0  0  0
   58.0916   29.9448   46.4578 H   0  0  0  0  0  0  0  0  0  0  0  0
   57.0409   28.8493   47.4499 H   0  0  0  0  0  0  0  0  0  0  0  0
   59.3731   27.6967   44.7726 H   0  0  0  0  0  0  0  0  0  0  0  0
   61.3480   26.2448   45.2394 H   0  0  0  0  0  0  0  0  0  0  0  0
   62.0082   25.7492   47.5962 H   0  0  0  0  0  0  0  0  0  0  0  0
   60.6927   26.7073   49.4888 H   0  0  0  0  0  0  0  0  0  0  0  0
   58.7173   28.1595   49.0324 H   0  0  0  0  0  0  0  0  0  0  0  0
   59.3475   30.8918   43.8203 H   0  0  0  0  0  0  0  0  0  0  0  0
   59.2923   32.3879   48.7011 H   0  0  0  0  0  0  0  0  0  0  0  0
   57.7847   34.2884   47.6147 H   0  0  0  0  0  0  0  0  0  0  0  0
   56.3337   34.3918   45.4416 H   0  0  0  0  0  0  0  0  0  0  0  0
   57.6815   34.4110   44.2543 H   0  0  0  0  0  0  0  0  0  0  0  0
   56.5039   33.0546   44.2543 H   0  0  0  0  0  0  0  0  0  0  0  0
  1  2  1  0
  2  3  2  0
  3  4  1  0
  4  5  1  0
  5  6  1  0
  5  7  2  0
  7  8  1  0
  8  9  1  0
  9 10  1  0
 10 11  1  0
 11 12  2  0
 11 13  1  0
 13 14  1  0
 14 15  1  0
 15 16  1  0
 16 17  2  0
 17 18  1  0
 18 19  2  0
 19 20  1  0
 20 21  2  0
 14 22  1  0
 22 23  2  0
 22 24  1  0
 24 25  2  3
 25 26  1  0
 26 27  2  0
 27 28  1  0
 28 29  2  0
 29 30  1  0
 30 31  1  0
  7  2  1  0
 21 16  1  0
 30 26  1  0
  1 32  1  0
  1 33  1  0
  1 34  1  0
  6 35  1  0
  6 36  1  0
  6 37  1  0
  8 38  1  0
  8 39  1  0
  9 40  1  0
  9 41  1  0
 14 42  1  6
 15 43  1  0
 15 44  1  0
 17 45  1  0
 18 46  1  0
 19 47  1  0
 20 48  1  0
 21 49  1  0
 25 50  1  0
 28 51  1  0
 29 52  1  0
 31 53  1  0
 31 54  1  0
 31 55  1  0
M  CHG  1  13  -1
M  END
>  <UniqueID>  (6) 
6

>  <SMILES>  (6) 
Cc1noc(C)c1CCOC(=O)[N-][C@H](Cc1ccccc1)C(=O)N=Cc1nccn1C

>  <Energy>  (6) 
113.27062674313596

>  <Genealogy>  (6) 
Cc1noc(C)c1CCOC(=O)[N-]C(Cc1ccccc1)C(=O)N=Cc1nccn1C (protonated)
Cc1noc(C)c1CCOC(=O)[N-][C@H](Cc1ccccc1)C(=O)N=Cc1nccn1C (chirality)
Cc1noc(C)c1CCOC(=O)[N-][C@H](Cc1ccccc1)C(=O)N=Cc1nccn1C (3D coordinates assigned)
Cc1noc(C)c1CCOC(=O)[N-][C@H](Cc1ccccc1)C(=O)N=Cc1nccn1C (optimized conformer: 113.27062674313596 kcal/mol)

>  <smiles>  (6) 
Cc1noc(C)c1CCOC(=O)NC(Cc1ccccc1)C(=O)N=Cc1nccn1C

>  <score_type>  (6) 
oracle

>  <origin>  (6) 
adg

>  <m_score__min__energy>  (6) 
-11.039999999999999

>  <m_primary>  (6) 
energy

$$$$
6:0
     RDKit          3D

 54 57  0  0  0  0  0  0  0  0999 V2000
   62.5330   27.9110   51.4650 O   0  0  0  0  0  0  0  0  0  0  0  0
   61.9960   29.0450   51.3310 C   0  0  0  0  0  0  0  0  0  0  0  0
   62.3390   30.1420   52.3030 C   0  0  0  0  0  0  0  0  0  0  0  0
   61.1540   30.9100   52.7070 N   0  0  0  0  0  0  0  0  0  0  0  0
   60.8350   32.2230   51.6110 S   0  0  0  0  0  0  0  0  0  0  0  0
   60.5060   33.4560   52.4040 O   0  0  0  0  0  0  0  0  0  0  0  0
   59.6600   31.8900   50.7330 O   0  0  0  0  0  0  0  0  0  0  0  0
   62.2640   32.5480   50.6220 C   0  0  0  0  0  0  0  0  0  0  0  0
   63.3940   33.1690   51.1850 C   0  0  0  0  0  0  0  0  0  0  0  0
   64.5290   33.4350   50.4020 C   0  0  0  0  0  0  0  0  0  0  0  0
   64.5590   33.0930   49.0450 C   0  0  0  0  0  0  0  0  0  0  0  0
   63.4440   32.4820   48.4740 C   0  0  0  0  0  0  0  0  0  0  0  0
   63.3940   32.1220   47.1660 N   0  0  0  0  0  0  0  0  0  0  0  0
   61.8720   31.4780   47.0990 S   0  0  0  0  0  0  0  0  0  0  0  0
   61.2460   31.6180   48.6220 N   0  0  0  0  0  0  0  0  0  0  0  0
   62.2880   32.2090   49.2620 C   0  0  0  0  0  0  0  0  0  0  0  0
   61.0820   29.3030   50.2510 N   0  0  0  0  0  0  0  0  0  0  0  0
   60.6760   28.3210   49.2860 C   0  0  0  0  0  0  0  0  0  0  0  0
   60.9970   27.1110   49.4520 O   0  0  0  0  0  0  0  0  0  0  0  0
   59.8490   28.6960   48.1100 C   0  0  0  0  0  0  0  0  0  0  0  0
   58.9520   29.7820   48.1630 C   0  0  0  0  0  0  0  0  0  0  0  0
   58.1650   30.1050   47.0530 C   0  0  0  0  0  0  0  0  0  0  0  0
   58.2740   29.3600   45.8700 C   0  0  0  0  0  0  0  0  0  0  0  0
   57.2720   29.7390   44.4710 S   0  0  0  0  0  0  0  0  0  0  0  0
   57.4880   28.7150   43.3880 O   0  0  0  0  0  0  0  0  0  0  0  0
   55.8260   29.7140   44.8870 O   0  0  0  0  0  0  0  0  0  0  0  0
   57.7090   31.3220   43.8960 N   0  0  0  0  0  0  0  0  0  0  0  0
   57.0440   32.3690   44.6740 C   0  0  0  0  0  0  0  0  0  0  0  0
   58.0350   33.1310   45.5130 C   0  0  0  0  0  0  0  0  0  0  0  0
   57.9190   33.1340   46.9120 C   0  0  0  0  0  0  0  0  0  0  0  0
   58.8240   33.8600   47.6930 C   0  0  0  0  0  0  0  0  0  0  0  0
   59.8500   34.5860   47.0820 C   0  0  0  0  0  0  0  0  0  0  0  0
   59.9740   34.5860   45.6900 C   0  0  0  0  0  0  0  0  0  0  0  0
   59.0710   33.8610   44.9060 C   0  0  0  0  0  0  0  0  0  0  0  0
   59.1760   28.2900   45.8040 C   0  0  0  0  0  0  0  0  0  0  0  0
   59.9620   27.9630   46.9120 C   0  0  0  0  0  0  0  0  0  0  0  0
   62.7938   29.6935   53.1986 H   0  0  0  0  0  0  0  0  0  0  0  0
   63.0368   30.8312   51.8049 H   0  0  0  0  0  0  0  0  0  0  0  0
   60.3140   30.2870   52.7250 H   0  0  0  0  0  0  0  0  0  0  0  0
   63.3884   33.4489   52.2488 H   0  0  0  0  0  0  0  0  0  0  0  0
   65.4047   33.9177   50.8604 H   0  0  0  0  0  0  0  0  0  0  0  0
   65.4512   33.3038   48.4370 H   0  0  0  0  0  0  0  0  0  0  0  0
   60.6490   30.2520   50.2140 H   0  0  0  0  0  0  0  0  0  0  0  0
   58.8705   30.3792   49.0832 H   0  0  0  0  0  0  0  0  0  0  0  0
   57.4583   30.9461   47.1081 H   0  0  0  0  0  0  0  0  0  0  0  0
   56.5447   33.0664   43.9853 H   0  0  0  0  0  0  0  0  0  0  0  0
   56.3102   31.8954   45.3428 H   0  0  0  0  0  0  0  0  0  0  0  0
   57.1130   32.5630   47.3960 H   0  0  0  0  0  0  0  0  0  0  0  0
   58.7282   33.8596   48.7888 H   0  0  0  0  0  0  0  0  0  0  0  0
   60.5604   35.1578   47.6971 H   0  0  0  0  0  0  0  0  0  0  0  0
   60.7828   35.1569   45.2105 H   0  0  0  0  0  0  0  0  0  0  0  0
   59.1720   33.8622   43.8106 H   0  0  0  0  0  0  0  0  0  0  0  0
   59.2657   27.7053   44.8766 H   0  0  0  0  0  0  0  0  0  0  0  0
   60.6743   27.1271   46.8485 H   0  0  0  0  0  0  0  0  0  0  0  0
  1  2  2  0
  2  3  1  0
  3  4  1  0
  4  5  1  0
  5  6  2  0
  5  7  2  0
  5  8  1  0
  8  9  2  0
  9 10  1  0
 10 11  2  0
 11 12  1  0
 12 13  2  0
 13 14  1  0
 14 15  1  0
 15 16  2  0
  2 17  1  0
 17 18  1  0
 18 19  2  0
 18 20  1  0
 20 21  2  0
 21 22  1  0
 22 23  2  0
 23 24  1  0
 24 25  2  0
 24 26  2  0
 24 27  1  0
 27 28  1  0
 28 29  1  0
 29 30  2  0
 30 31  1  0
 31 32  2  0
 32 33  1  0
 33 34  2  0
 23 35  1  0
 35 36  2  0
 16  8  1  0
 36 20  1  0
 16 12  1  0
 34 29  1  0
  3 37  1  0
  3 38  1  0
  4 39  1  0
  9 40  1  0
 10 41  1  0
 11 42  1  0
 17 43  1  0
 21 44  1  0
 22 45  1  0
 28 46  1  0
 28 47  1  0
 30 48  1  0
 31 49  1  0
 32 50  1  0
 33 51  1  0
 34 52  1  0
 35 53  1  0
 36 54  1  0
M  CHG  1  27  -1
M  END
>  <UniqueID>  (7) 
7

>  <SMILES>  (7) 
O=C(CNS(=O)(=O)c1cccc2nsnc12)NC(=O)c1ccc(S(=O)(=O)[N-]Cc2ccccc2)cc1

>  <Energy>  (7) 
97.55682244105449

>  <Genealogy>  (7) 
O=C(CNS(=O)(=O)c1cccc2nsnc12)NC(=O)c1ccc(S(=O)(=O)[N-]Cc2ccccc2)cc1 (protonated)
O=C(CNS(=O)(=O)c1cccc2nsnc12)NC(=O)c1ccc(S(=O)(=O)[N-]Cc2ccccc2)cc1 (3D coordinates assigned)
O=C(CNS(=O)(=O)c1cccc2nsnc12)NC(=O)c1ccc(S(=O)(=O)[N-]Cc2ccccc2)cc1 (optimized conformer: 97.55682244105449 kcal/mol)

>  <smiles>  (7) 
O=C(CNS(=O)(=O)c1cccc2nsnc12)NC(=O)c1ccc(S(=O)(=O)NCc2ccccc2)cc1

>  <score_type>  (7) 
oracle

>  <origin>  (7) 
adg

>  <m_score__min__energy>  (7) 
-11.06

>  <m_primary>  (7) 
energy

$$$$
7:0
     RDKit          3D

 84 88  0  0  0  0  0  0  0  0999 V2000
   57.4040   29.0600   43.5350 C   0  0  0  0  0  0  0  0  0  0  0  0
   57.9040   30.0840   44.2540 C   0  0  0  0  0  0  0  0  0  0  0  0
   57.1580   31.3970   44.1740 C   0  0  0  0  0  0  0  0  0  0  0  0
   59.0990   29.9940   45.2250 C   0  0  2  0  0  0  0  0  0  0  0  0
   60.1380   28.9660   44.7190 C   0  0  0  0  0  0  0  0  0  0  0  0
   60.2520   27.8620   45.7780 C   0  0  0  0  0  0  0  0  0  0  0  0
   59.0340   28.0360   46.7050 C   0  0  1  0  0  0  0  0  0  0  0  0
   57.8000   27.3600   46.1020 C   0  0  0  0  0  0  0  0  0  0  0  0
   56.6950   27.9750   46.0910 O   0  0  0  0  0  0  0  0  0  0  0  0
   57.8640   26.0370   45.5620 N   0  0  0  0  0  0  0  0  0  0  0  0
   56.7080   25.3500   45.0070 C   0  0  0  0  0  0  0  0  0  0  0  0
   55.5800   25.4260   45.9750 C   0  0  0  0  0  0  0  0  0  0  0  0
   54.6940   26.3120   45.8450 O   0  0  0  0  0  0  0  0  0  0  0  0
   55.5240   24.5460   47.0510 O   0  0  0  0  0  0  0  0  0  0  0  0
   59.2460   27.4020   48.1040 C   0  0  0  0  0  0  0  0  0  0  0  0
   60.1790   28.1820   49.0240 C   0  0  0  0  0  0  0  0  0  0  0  0
   59.8050   29.6900   49.1990 C   0  0  2  0  0  0  0  0  0  0  0  0
   58.3440   29.7630   49.7700 C   0  0  0  0  0  0  0  0  0  0  0  0
   59.7310   30.3680   47.7720 C   0  0  1  0  0  0  0  0  0  0  0  0
   61.1430   30.8090   47.3440 C   0  0  0  0  0  0  0  0  0  0  0  0
   61.6750   31.9180   48.2700 C   0  0  0  0  0  0  0  0  0  0  0  0
   61.1150   31.9190   49.7400 C   0  0  2  0  0  0  0  0  0  0  0  0
   61.9970   32.8340   50.7200 C   0  0  2  0  0  0  0  0  0  0  0  0
   61.0480   33.4710   51.7910 C   0  0  0  0  0  0  0  0  0  0  0  0
   62.6230   34.0480   49.9480 C   0  0  0  0  0  0  0  0  0  0  0  0
   63.3900   35.0280   50.8480 C   0  0  0  0  0  0  0  0  0  0  0  0
   64.1340   34.3220   51.9480 C   0  0  0  0  0  0  0  0  0  0  0  0
   64.4600   34.9640   52.9320 O   0  0  0  0  0  0  0  0  0  0  0  0
   64.4580   32.8360   51.8390 C   0  0  0  0  0  0  0  0  0  0  0  0
   65.6190   32.6970   50.8210 C   0  0  0  0  0  0  0  0  0  0  0  0
   64.9990   32.3160   53.2040 C   0  0  0  0  0  0  0  0  0  0  0  0
   63.1460   32.0100   51.4410 C   0  0  2  0  0  0  0  0  0  0  0  0
   63.4830   30.6610   50.7370 C   0  0  0  0  0  0  0  0  0  0  0  0
   62.3020   29.7670   50.2670 C   0  0  0  0  0  0  0  0  0  0  0  0
   60.8780   30.4290   50.2120 C   0  0  2  0  0  0  0  0  0  0  0  0
   60.3190   30.3100   51.6680 C   0  0  0  0  0  0  0  0  0  0  0  0
   58.8420   29.5760   46.7090 C   0  0  1  0  0  0  0  0  0  0  0  0
   57.9031   28.0799   43.5530 H   0  0  0  0  0  0  0  0  0  0  0  0
   56.4967   29.2041   42.9300 H   0  0  0  0  0  0  0  0  0  0  0  0
   56.9500   31.7631   45.1902 H   0  0  0  0  0  0  0  0  0  0  0  0
   57.7716   32.1352   43.6368 H   0  0  0  0  0  0  0  0  0  0  0  0
   56.2098   31.2478   43.6368 H   0  0  0  0  0  0  0  0  0  0  0  0
   59.4210   31.0458   45.2337 H   0  0  0  0  0  0  0  0  0  0  0  0
   59.8051   28.5357   43.7630 H   0  0  0  0  0  0  0  0  0  0  0  0
   61.1130   29.4493   44.5583 H   0  0  0  0  0  0  0  0  0  0  0  0
   60.2309   26.8710   45.3010 H   0  0  0  0  0  0  0  0  0  0  0  0
   61.1970   27.9349   46.3362 H   0  0  0  0  0  0  0  0  0  0  0  0
   56.4141   25.8297   44.0617 H   0  0  0  0  0  0  0  0  0  0  0  0
   56.9610   24.2964   44.8175 H   0  0  0  0  0  0  0  0  0  0  0  0
   58.2656   27.3242   48.5967 H   0  0  0  0  0  0  0  0  0  0  0  0
   59.7239   26.4261   47.9329 H   0  0  0  0  0  0  0  0  0  0  0  0
   60.1607   27.7061   50.0156 H   0  0  0  0  0  0  0  0  0  0  0  0
   61.1733   28.1587   48.5541 H   0  0  0  0  0  0  0  0  0  0  0  0
   58.3795   29.7612   50.8694 H   0  0  0  0  0  0  0  0  0  0  0  0
   57.8594   30.6865   49.4203 H   0  0  0  0  0  0  0  0  0  0  0  0
   57.7697   28.8924   49.4203 H   0  0  0  0  0  0  0  0  0  0  0  0
   59.1409   31.2944   47.8325 H   0  0  0  0  0  0  0  0  0  0  0  0
   61.8207   29.9438   47.3916 H   0  0  0  0  0  0  0  0  0  0  0  0
   61.0933   31.2012   46.3175 H   0  0  0  0  0  0  0  0  0  0  0  0
   62.7685   31.8127   48.3269 H   0  0  0  0  0  0  0  0  0  0  0  0
   61.3355   32.8643   47.8235 H   0  0  0  0  0  0  0  0  0  0  0  0
   60.1291   32.4057   49.7730 H   0  0  0  0  0  0  0  0  0  0  0  0
   61.4146   33.2249   52.7985 H   0  0  0  0  0  0  0  0  0  0  0  0
   61.0320   34.5634   51.6633 H   0  0  0  0  0  0  0  0  0  0  0  0
   60.0309   33.0720   51.6633 H   0  0  0  0  0  0  0  0  0  0  0  0
   63.3183   33.6560   49.1911 H   0  0  0  0  0  0  0  0  0  0  0  0
   61.7878   34.6090   49.5034 H   0  0  0  0  0  0  0  0  0  0  0  0
   64.1117   35.5846   50.2321 H   0  0  0  0  0  0  0  0  0  0  0  0
   62.6579   35.7040   51.3139 H   0  0  0  0  0  0  0  0  0  0  0  0
   66.5697   32.5832   51.3624 H   0  0  0  0  0  0  0  0  0  0  0  0
   65.4487   31.8128   50.1891 H   0  0  0  0  0  0  0  0  0  0  0  0
   65.6623   33.5964   50.1891 H   0  0  0  0  0  0  0  0  0  0  0  0
   64.4711   32.8234   54.0249 H   0  0  0  0  0  0  0  0  0  0  0  0
   64.8316   31.2312   53.2755 H   0  0  0  0  0  0  0  0  0  0  0  0
   66.0764   32.5262   53.2755 H   0  0  0  0  0  0  0  0  0  0  0  0
   62.6867   31.7602   52.4088 H   0  0  0  0  0  0  0  0  0  0  0  0
   64.0873   30.8978   49.8489 H   0  0  0  0  0  0  0  0  0  0  0  0
   63.9862   30.0651   51.5127 H   0  0  0  0  0  0  0  0  0  0  0  0
   62.5401   29.4096   49.2543 H   0  0  0  0  0  0  0  0  0  0  0  0
   62.2198   28.9806   51.0317 H   0  0  0  0  0  0  0  0  0  0  0  0
   61.1322   30.4831   52.3883 H   0  0  0  0  0  0  0  0  0  0  0  0
   59.5288   31.0601   51.8198 H   0  0  0  0  0  0  0  0  0  0  0  0
   59.9029   29.3031   51.8198 H   0  0  0  0  0  0  0  0  0  0  0  0
   57.8327   29.8491   47.0506 H   0  0  0  0  0  0  0  0  0  0  0  0
  1  2  2  0
  2  3  1  0
  2  4  1  0
  4  5  1  0
  5  6  1  0
  6  7  1  0
  7  8  1  6
  8  9  2  0
  8 10  1  0
 10 11  1  0
 11 12  1  0
 12 13  2  0
 12 14  1  0
  7 15  1  0
 15 16  1  0
 16 17  1  0
 17 18  1  1
 17 19  1  0
 19 20  1  0
 20 21  1  0
 21 22  1  0
 22 23  1  0
 23 24  1  1
 23 25  1  0
 25 26  1  0
 26 27  1  0
 27 28  2  0
 27 29  1  0
 29 30  1  0
 29 31  1  0
 29 32  1  0
 32 33  1  0
 33 34  1  0
 34 35  1  0
 35 36  1  1
 19 37  1  0
 37  4  1  0
 37  7  1  0
 35 17  1  0
 35 22  1  0
 32 23  1  0
  1 38  1  0
  1 39  1  0
  3 40  1  0
  3 41  1  0
  3 42  1  0
  4 43  1  1
  5 44  1  0
  5 45  1  0
  6 46  1  0
  6 47  1  0
 11 48  1  0
 11 49  1  0
 15 50  1  0
 15 51  1  0
 16 52  1  0
 16 53  1  0
 18 54  1  0
 18 55  1  0
 18 56  1  0
 19 57  1  1
 20 58  1  0
 20 59  1  0
 21 60  1  0
 21 61  1  0
 22 62  1  6
 24 63  1  0
 24 64  1  0
 24 65  1  0
 25 66  1  0
 25 67  1  0
 26 68  1  0
 26 69  1  0
 30 70  1  0
 30 71  1  0
 30 72  1  0
 31 73  1  0
 31 74  1  0
 31 75  1  0
 32 76  1  1
 33 77  1  0
 33 78  1  0
 34 79  1  0
 34 80  1  0
 36 81  1  0
 36 82  1  0
 36 83  1  0
 37 84  1  1
M  CHG  2  10  -1  14  -1
M  END
>  <UniqueID>  (8) 
8

>  <SMILES>  (8) 
C=C(C)[C@@H]1CC[C@@]2(C(=O)[N-]CC(=O)[O-])CCC3(C)C(CCC4C5(C)CCC(=O)C(C)(C)C5CCC43C)C12

>  <Energy>  (8) 
171.17332254878033

>  <Genealogy>  (8) 
C=C(C)C1CCC2(C(=O)[N-]CC(=O)[O-])CCC3(C)C(CCC4C5(C)CCC(=O)C(C)(C)C5CCC43C)C12 (protonated)
C=C(C)[C@@H]1CC[C@@]2(C(=O)[N-]CC(=O)[O-])CCC3(C)C(CCC4C5(C)CCC(=O)C(C)(C)C5CCC43C)C12 (chirality)
C=C(C)[C@@H]1CC[C@@]2(C(=O)[N-]CC(=O)[O-])CCC3(C)C(CCC4C5(C)CCC(=O)C(C)(C)C5CCC43C)C12 (3D coordinates assigned)
C=C(C)[C@@H]1CC[C@@]2(C(=O)[N-]CC(=O)[O-])CCC3(C)C(CCC4C5(C)CCC(=O)C(C)(C)C5CCC43C)C12 (nonaromatic ring conformer: 171.17332254878033 kcal/mol)

>  <smiles>  (8) 
C=C(C)C1CCC2(C(=O)NCC(=O)O)CCC3(C)C(CCC4C5(C)CCC(=O)C(C)(C)C5CCC43C)C12

>  <score_type>  (8) 
oracle

>  <origin>  (8) 
adg

>  <m_score__min__energy>  (8) 
-13.699999999999999

>  <m_primary>  (8) 
energy

$$$$
8:0
     RDKit          3D

 52 54  0  0  0  0  0  0  0  0999 V2000
   55.9840   25.5170   45.9870 C   0  0  0  0  0  0  0  0  0  0  0  0
   55.6690   26.9050   45.9490 O   0  0  0  0  0  0  0  0  0  0  0  0
   56.5820   27.9200   45.6190 C   0  0  0  0  0  0  0  0  0  0  0  0
   57.9340   27.8730   46.0130 C   0  0  0  0  0  0  0  0  0  0  0  0
   58.8270   28.9040   45.6600 C   0  0  0  0  0  0  0  0  0  0  0  0
   60.2510   28.8280   46.0930 C   0  0  0  0  0  0  0  0  0  0  0  0
   60.8050   27.6990   46.1950 O   0  0  0  0  0  0  0  0  0  0  0  0
   61.0850   30.0490   46.3770 C   0  0  0  0  0  0  0  0  0  0  0  0
   60.8590   30.5260   47.7840 C   0  0  0  0  0  0  0  0  0  0  0  0
   61.6170   30.1070   48.6990 O   0  0  0  0  0  0  0  0  0  0  0  0
   59.7240   31.4220   48.1100 C   0  0  0  0  0  0  0  0  0  0  0  0
   59.0600   31.9360   47.1690 O   0  0  0  0  0  0  0  0  0  0  0  0
   59.3260   31.7110   49.5080 C   0  0  0  0  0  0  0  0  0  0  0  0
   59.2210   33.0420   49.9450 C   0  0  0  0  0  0  0  0  0  0  0  0
   58.8500   33.3270   51.2600 C   0  0  0  0  0  0  0  0  0  0  0  0
   58.5800   32.2890   52.1550 C   0  0  0  0  0  0  0  0  0  0  0  0
   58.6820   30.9510   51.7410 C   0  0  0  0  0  0  0  0  0  0  0  0
   58.3900   29.8530   52.6940 C   0  0  0  0  0  0  0  0  0  0  0  0
   59.1990   28.8930   52.7970 O   0  0  0  0  0  0  0  0  0  0  0  0
   57.1850   29.8230   53.4730 N   0  0  0  0  0  0  0  0  0  0  0  0
   55.8550   30.0270   52.9740 C   0  0  0  0  0  0  0  0  0  0  0  0
   54.8250   29.1940   53.4250 C   0  0  0  0  0  0  0  0  0  0  0  0
   53.5220   29.3600   52.9460 C   0  0  0  0  0  0  0  0  0  0  0  0
   53.2330   30.3710   52.0220 C   0  0  0  0  0  0  0  0  0  0  0  0
   51.5880   30.5720   51.4300 S   0  0  0  0  0  0  0  0  0  0  0  0
   51.1970   32.2540   51.3720 N   0  0  0  0  0  0  0  0  0  0  0  0
   50.6350   29.8620   52.3500 O   0  0  0  0  0  0  0  0  0  0  0  0
   51.4590   29.9880   50.0520 O   0  0  0  0  0  0  0  0  0  0  0  0
   54.2550   31.2300   51.5940 C   0  0  0  0  0  0  0  0  0  0  0  0
   55.5580   31.0640   52.0710 C   0  0  0  0  0  0  0  0  0  0  0  0
   59.0840   30.6710   50.4230 C   0  0  0  0  0  0  0  0  0  0  0  0
   58.3390   29.9910   44.9070 C   0  0  0  0  0  0  0  0  0  0  0  0
   56.9970   30.0420   44.5250 C   0  0  0  0  0  0  0  0  0  0  0  0
   56.1240   29.0130   44.8750 C   0  0  0  0  0  0  0  0  0  0  0  0
   54.7910   29.0790   44.4820 O   0  0  0  0  0  0  0  0  0  0  0  0
   56.0590   25.1865   47.0335 H   0  0  0  0  0  0  0  0  0  0  0  0
   55.1923   24.9473   45.4784 H   0  0  0  0  0  0  0  0  0  0  0  0
   56.9441   25.3448   45.4784 H   0  0  0  0  0  0  0  0  0  0  0  0
   58.2973   27.0196   46.6044 H   0  0  0  0  0  0  0  0  0  0  0  0
   62.1483   29.7995   46.2459 H   0  0  0  0  0  0  0  0  0  0  0  0
   60.7939   30.8483   45.6796 H   0  0  0  0  0  0  0  0  0  0  0  0
   59.4325   33.8649   49.2463 H   0  0  0  0  0  0  0  0  0  0  0  0
   58.7700   34.3724   51.5927 H   0  0  0  0  0  0  0  0  0  0  0  0
   58.2860   32.5209   53.1893 H   0  0  0  0  0  0  0  0  0  0  0  0
   55.0415   28.4047   54.1600 H   0  0  0  0  0  0  0  0  0  0  0  0
   52.7205   28.6932   53.2968 H   0  0  0  0  0  0  0  0  0  0  0  0
   50.2890   32.3380   50.8620 H   0  0  0  0  0  0  0  0  0  0  0  0
   54.0306   32.0368   50.8808 H   0  0  0  0  0  0  0  0  0  0  0  0
   56.3542   31.7466   51.7392 H   0  0  0  0  0  0  0  0  0  0  0  0
   59.2107   29.6260   50.1039 H   0  0  0  0  0  0  0  0  0  0  0  0
   59.0203   30.8049   44.6182 H   0  0  0  0  0  0  0  0  0  0  0  0
   56.6263   30.8995   43.9442 H   0  0  0  0  0  0  0  0  0  0  0  0
  1  2  1  0
  2  3  1  0
  3  4  2  0
  4  5  1  0
  5  6  1  0
  6  7  2  0
  6  8  1  0
  8  9  1  0
  9 10  2  0
  9 11  1  0
 11 12  2  0
 11 13  1  0
 13 14  2  0
 14 15  1  0
 15 16  2  0
 16 17  1  0
 17 18  1  0
 18 19  2  0
 18 20  1  0
 20 21  1  0
 21 22  2  0
 22 23  1  0
 23 24  2  0
 24 25  1  0
 25 26  1  0
 25 27  2  0
 25 28  2  0
 24 29  1  0
 29 30  2  0
 17 31  2  0
  5 32  2  0
 32 33  1  0
 33 34  2  0
 34 35  1  0
 34  3  1  0
 31 13  1  0
 30 21  1  0
  1 36  1  0
  1 37  1  0
  1 38  1  0
  4 39  1  0
  8 40  1  0
  8 41  1  0
 14 42  1  0
 15 43  1  0
 16 44  1  0
 22 45  1  0
 23 46  1  0
 26 47  1  0
 29 48  1  0
 30 49  1  0
 31 50  1  0
 32 51  1  0
 33 52  1  0
M  CHG  3  20  -1  26  -1  35  -1
M  END
>  <UniqueID>  (9) 
9

>  <SMILES>  (9) 
COc1cc(C(=O)CC(=O)C(=O)c2cccc(C(=O)[N-]c3ccc(S([NH-])(=O)=O)cc3)c2)ccc1[O-]

>  <Energy>  (9) 
62.19186024440239

>  <Genealogy>  (9) 
COc1cc(C(=O)CC(=O)C(=O)c2cccc(C(=O)[N-]c3ccc(S([NH-])(=O)=O)cc3)c2)ccc1[O-] (protonated)
COc1cc(C(=O)CC(=O)C(=O)c2cccc(C(=O)[N-]c3ccc(S([NH-])(=O)=O)cc3)c2)ccc1[O-] (3D coordinates assigned)
COc1cc(C(=O)CC(=O)C(=O)c2cccc(C(=O)[N-]c3ccc(S([NH-])(=O)=O)cc3)c2)ccc1[O-] (optimized conformer: 62.19186024440239 kcal/mol)

>  <smiles>  (9) 
COc1cc(C(=O)CC(=O)C(=O)c2cccc(C(=O)Nc3ccc(S(N)(=O)=O)cc3)c2)ccc1O

>  <score_type>  (9) 
oracle

>  <origin>  (9) 
adg

>  <m_score__min__energy>  (9) 
-17.850000000000001

>  <m_primary>  (9) 
energy

$$$$
9:0
     RDKit          3D

 56 59  0  0  0  0  0  0  0  0999 V2000
   54.7640   26.3180   46.0150 O   0  0  0  0  0  0  0  0  0  0  0  0
   55.8910   25.7540   46.0170 C   0  0  0  0  0  0  0  0  0  0  0  0
   55.9450   24.3280   46.1640 N   0  0  0  0  0  0  0  0  0  0  0  0
   56.7880   23.4300   45.4300 C   0  0  0  0  0  0  0  0  0  0  0  0
   56.3250   22.7380   44.2970 C   0  0  0  0  0  0  0  0  0  0  0  0
   57.1780   21.8790   43.5990 C   0  0  0  0  0  0  0  0  0  0  0  0
   58.5020   21.7200   44.0130 C   0  0  0  0  0  0  0  0  0  0  0  0
   58.9800   22.4250   45.1260 C   0  0  0  0  0  0  0  0  0  0  0  0
   60.3000   22.2800   45.5430 O   0  0  0  0  0  0  0  0  0  0  0  0
   58.1240   23.2800   45.8260 C   0  0  0  0  0  0  0  0  0  0  0  0
   57.1110   26.5700   45.8160 C   0  0  0  0  0  0  0  0  0  0  0  0
   57.9420   26.8750   46.9050 C   0  0  0  0  0  0  0  0  0  0  0  0
   59.1060   27.6270   46.7180 C   0  0  0  0  0  0  0  0  0  0  0  0
   59.4530   28.0910   45.4410 C   0  0  0  0  0  0  0  0  0  0  0  0
   60.7200   28.8810   45.2430 C   0  0  0  0  0  0  0  0  0  0  0  0
   60.7160   30.0790   46.0850 N   0  0  0  0  0  0  0  0  0  0  0  0
   59.7000   31.1020   46.0340 C   0  0  0  0  0  0  0  0  0  0  0  0
   58.3650   30.8940   45.0880 S   0  0  0  0  0  0  0  0  0  0  0  0
   59.8570   32.3310   46.8610 C   0  0  0  0  0  0  0  0  0  0  0  0
   58.8760   33.3370   46.9130 C   0  0  0  0  0  0  0  0  0  0  0  0
   59.0860   34.4610   47.7110 C   0  0  0  0  0  0  0  0  0  0  0  0
   60.2590   34.5840   48.4530 C   0  0  0  0  0  0  0  0  0  0  0  0
   61.2330   33.5710   48.3890 C   0  0  0  0  0  0  0  0  0  0  0  0
   62.4700   33.6520   49.1430 N   0  0  0  0  0  0  0  0  0  0  0  0
   63.7620   33.4060   48.4830 C   0  0  0  0  0  0  0  0  0  0  0  0
   64.7160   32.6000   49.3890 C   0  0  0  0  0  0  0  0  0  0  0  0
   64.5260   32.8260   50.8360 N   0  0  0  0  0  0  0  0  0  0  0  0
   63.8830   34.1110   51.1290 C   0  0  0  0  0  0  0  0  0  0  0  0
   62.4750   34.1460   50.5290 C   0  0  0  0  0  0  0  0  0  0  0  0
   60.9930   32.4880   47.5960 N   0  0  0  0  0  0  0  0  0  0  0  0
   58.6070   27.8150   44.3570 C   0  0  0  0  0  0  0  0  0  0  0  0
   57.4440   27.0630   44.5420 C   0  0  0  0  0  0  0  0  0  0  0  0
   55.2871   22.8734   43.9587 H   0  0  0  0  0  0  0  0  0  0  0  0
   56.8062   21.3277   42.7228 H   0  0  0  0  0  0  0  0  0  0  0  0
   59.1709   21.0403   43.4647 H   0  0  0  0  0  0  0  0  0  0  0  0
   61.0260   21.9780   44.9020 H   0  0  0  0  0  0  0  0  0  0  0  0
   58.5019   23.8395   46.6944 H   0  0  0  0  0  0  0  0  0  0  0  0
   57.6761   26.5204   47.9117 H   0  0  0  0  0  0  0  0  0  0  0  0
   59.7532   27.8559   47.5775 H   0  0  0  0  0  0  0  0  0  0  0  0
   61.5830   28.2536   45.5107 H   0  0  0  0  0  0  0  0  0  0  0  0
   60.7859   29.1881   44.1888 H   0  0  0  0  0  0  0  0  0  0  0  0
   61.5130   30.1850   46.7520 H   0  0  0  0  0  0  0  0  0  0  0  0
   57.9495   33.2380   46.3283 H   0  0  0  0  0  0  0  0  0  0  0  0
   58.3236   35.2527   47.7549 H   0  0  0  0  0  0  0  0  0  0  0  0
   60.4226   35.4689   49.0857 H   0  0  0  0  0  0  0  0  0  0  0  0
   63.5876   32.8410   47.5555 H   0  0  0  0  0  0  0  0  0  0  0  0
   64.2299   34.3780   48.2677 H   0  0  0  0  0  0  0  0  0  0  0  0
   64.5607   31.5302   49.1854 H   0  0  0  0  0  0  0  0  0  0  0  0
   65.7345   32.9407   49.1510 H   0  0  0  0  0  0  0  0  0  0  0  0
   63.9250   32.0590   51.2220 H   0  0  0  0  0  0  0  0  0  0  0  0
   63.8170   34.2442   52.2189 H   0  0  0  0  0  0  0  0  0  0  0  0
   64.4818   34.9212   50.6874 H   0  0  0  0  0  0  0  0  0  0  0  0
   61.8111   33.5137   51.1368 H   0  0  0  0  0  0  0  0  0  0  0  0
   62.1255   35.1890   50.5262 H   0  0  0  0  0  0  0  0  0  0  0  0
   58.8605   28.1927   43.3555 H   0  0  0  0  0  0  0  0  0  0  0  0
   56.7851   26.8555   43.6860 H   0  0  0  0  0  0  0  0  0  0  0  0
  1  2  2  0
  2  3  1  0
  3  4  1  0
  4  5  2  0
  5  6  1  0
  6  7  2  0
  7  8  1  0
  8  9  1  0
  8 10  2  0
  2 11  1  0
 11 12  2  0
 12 13  1  0
 13 14  2  0
 14 15  1  0
 15 16  1  0
 16 17  1  0
 17 18  2  0
 17 19  1  0
 19 20  2  0
 20 21  1  0
 21 22  2  0
 22 23  1  0
 23 24  1  0
 24 25  1  0
 25 26  1  0
 26 27  1  0
 27 28  1  0
 28 29  1  0
 23 30  2  0
 14 31  1  0
 31 32  2  0
 10  4  1  0
 32 11  1  0
 30 19  1  0
 29 24  1  0
  5 33  1  0
  6 34  1  0
  7 35  1  0
  9 36  1  0
 10 37  1  0
 12 38  1  0
 13 39  1  0
 15 40  1  0
 15 41  1  0
 16 42  1  0
 20 43  1  0
 21 44  1  0
 22 45  1  0
 25 46  1  0
 25 47  1  0
 26 48  1  0
 26 49  1  0
 27 50  1  0
 28 51  1  0
 28 52  1  0
 29 53  1  0
 29 54  1  0
 31 55  1  0
 32 56  1  0
M  CHG  1   3  -1
M  END
>  <UniqueID>  (10) 
10

>  <SMILES>  (10) 
O=C([N-]c1cccc(O)c1)c1ccc(CNC(=S)c2cccc(N3CCNCC3)n2)cc1

>  <Energy>  (10) 
73.19978661159479

>  <Genealogy>  (10) 
O=C([N-]c1cccc(O)c1)c1ccc(CNC(=S)c2cccc(N3CCNCC3)n2)cc1 (protonated)
O=C([N-]c1cccc(O)c1)c1ccc(CNC(=S)c2cccc(N3CCNCC3)n2)cc1 (3D coordinates assigned)
O=C([N-]c1cccc(O)c1)c1ccc(CNC(=S)c2cccc(N3CCNCC3)n2)cc1 (nonaromatic ring conformer: 73.19978661159479 kcal/mol)

>  <smiles>  (10) 
O=C(Nc1cccc(O)c1)c1ccc(CNC(=S)c2cccc(N3CCNCC3)n2)cc1

>  <score_type>  (10) 
oracle

>  <origin>  (10) 
adg

>  <m_score__min__energy>  (10) 
-11.210000000000001

>  <m_primary>  (10) 
energy

$$$$
10:0
     RDKit          3D

 50 52  0  0  0  0  0  0  0  0999 V2000
   59.4670   29.6120   49.8470 O   0  0  0  0  0  0  0  0  0  0  0  0
   59.5610   29.9350   48.6310 C   0  0  0  0  0  0  0  0  0  0  0  0
   58.8580   29.1280   47.5870 C   0  0  0  0  0  0  0  0  0  0  0  0
   59.7890   28.1330   46.9940 N   0  0  0  0  0  0  0  0  0  0  0  0
   59.7340   28.1530   45.5170 C   0  0  0  0  0  0  0  0  0  0  0  0
   58.7080   29.1500   45.0460 C   0  0  0  0  0  0  0  0  0  0  0  0
   59.0810   30.4670   44.7270 C   0  0  0  0  0  0  0  0  0  0  0  0
   58.1230   31.3800   44.2770 C   0  0  0  0  0  0  0  0  0  0  0  0
   56.7880   30.9880   44.1450 C   0  0  0  0  0  0  0  0  0  0  0  0
   56.4050   29.6810   44.4620 C   0  0  0  0  0  0  0  0  0  0  0  0
   55.0710   29.3030   44.3230 O   0  0  0  0  0  0  0  0  0  0  0  0
   57.3640   28.7650   44.9140 C   0  0  0  0  0  0  0  0  0  0  0  0
   59.5280   26.7690   47.5030 C   0  0  0  0  0  0  0  0  0  0  0  0
   58.4150   26.1080   46.7280 C   0  0  0  0  0  0  0  0  0  0  0  0
   57.1230   26.6620   46.7350 C   0  0  0  0  0  0  0  0  0  0  0  0
   56.0970   26.0700   45.9930 C   0  0  0  0  0  0  0  0  0  0  0  0
   54.8240   26.6260   46.0010 O   0  0  0  0  0  0  0  0  0  0  0  0
   56.3520   24.9220   45.2410 C   0  0  0  0  0  0  0  0  0  0  0  0
   57.6250   24.3460   45.2490 C   0  0  0  0  0  0  0  0  0  0  0  0
   58.6570   24.9340   45.9890 C   0  0  0  0  0  0  0  0  0  0  0  0
   59.9190   24.3500   45.9820 O   0  0  0  0  0  0  0  0  0  0  0  0
   60.4160   31.0110   48.2320 N   0  0  0  0  0  0  0  0  0  0  0  0
   60.1840   32.4040   48.5960 C   0  0  0  0  0  0  0  0  0  0  0  0
   59.4570   33.1260   47.4930 C   0  0  0  0  0  0  0  0  0  0  0  0
   58.0590   33.0300   47.3840 C   0  0  0  0  0  0  0  0  0  0  0  0
   57.3820   33.7150   46.3710 C   0  0  0  0  0  0  0  0  0  0  0  0
   58.0930   34.5000   45.4610 C   0  0  0  0  0  0  0  0  0  0  0  0
   59.4840   34.5900   45.5510 C   0  0  0  0  0  0  0  0  0  0  0  0
   60.1690   33.8980   46.5560 C   0  0  0  0  0  0  0  0  0  0  0  0
   61.5210   33.9870   46.6200 F   0  0  0  0  0  0  0  0  0  0  0  0
   58.0080   28.6018   48.0458 H   0  0  0  0  0  0  0  0  0  0  0  0
   58.4995   29.8010   46.7942 H   0  0  0  0  0  0  0  0  0  0  0  0
   60.7211   28.4334   45.1208 H   0  0  0  0  0  0  0  0  0  0  0  0
   59.4534   27.1527   45.1556 H   0  0  0  0  0  0  0  0  0  0  0  0
   60.1302   30.7803   44.8318 H   0  0  0  0  0  0  0  0  0  0  0  0
   58.4204   32.4089   44.0263 H   0  0  0  0  0  0  0  0  0  0  0  0
   56.0368   31.7093   43.7909 H   0  0  0  0  0  0  0  0  0  0  0  0
   54.7690   28.3530   44.5020 H   0  0  0  0  0  0  0  0  0  0  0  0
   57.0623   27.7379   45.1670 H   0  0  0  0  0  0  0  0  0  0  0  0
   60.4430   26.1665   47.4037 H   0  0  0  0  0  0  0  0  0  0  0  0
   59.2268   26.8399   48.5586 H   0  0  0  0  0  0  0  0  0  0  0  0
   56.9184   27.5660   47.3274 H   0  0  0  0  0  0  0  0  0  0  0  0
   55.5489   24.4697   44.6407 H   0  0  0  0  0  0  0  0  0  0  0  0
   57.8163   23.4288   44.6727 H   0  0  0  0  0  0  0  0  0  0  0  0
   59.5782   32.4418   49.5134 H   0  0  0  0  0  0  0  0  0  0  0  0
   61.1550   32.8939   48.7606 H   0  0  0  0  0  0  0  0  0  0  0  0
   57.4951   32.4130   48.0991 H   0  0  0  0  0  0  0  0  0  0  0  0
   56.2878   33.6356   46.2906 H   0  0  0  0  0  0  0  0  0  0  0  0
   57.5570   35.0482   44.6722 H   0  0  0  0  0  0  0  0  0  0  0  0
   60.0420   35.2060   44.8305 H   0  0  0  0  0  0  0  0  0  0  0  0
  1  2  2  0
  2  3  1  0
  3  4  1  0
  4  5  1  0
  5  6  1  0
  6  7  2  0
  7  8  1  0
  8  9  2  0
  9 10  1  0
 10 11  1  0
 10 12  2  0
  4 13  1  0
 13 14  1  0
 14 15  2  0
 15 16  1  0
 16 17  1  0
 16 18  2  0
 18 19  1  0
 19 20  2  0
 20 21  1  0
  2 22  1  0
 22 23  1  0
 23 24  1  0
 24 25  2  0
 25 26  1  0
 26 27  2  0
 27 28  1  0
 28 29  2  0
 29 30  1  0
 12  6  1  0
 20 14  1  0
 29 24  1  0
  3 31  1  0
  3 32  1  0
  5 33  1  0
  5 34  1  0
  7 35  1  0
  8 36  1  0
  9 37  1  0
 11 38  1  0
 12 39  1  0
 13 40  1  0
 13 41  1  0
 15 42  1  0
 18 43  1  0
 19 44  1  0
 23 45  1  0
 23 46  1  0
 25 47  1  0
 26 48  1  0
 27 49  1  0
 28 50  1  0
M  CHG  3  17  -1  21  -1  22  -1
M  END
>  <UniqueID>  (11) 
11

>  <SMILES>  (11) 
O=C(CN(Cc1cccc(O)c1)Cc1cc([O-])ccc1[O-])[N-]Cc1ccccc1F

>  <Energy>  (11) 
48.362443258414295

>  <Genealogy>  (11) 
O=C(CN(Cc1cccc(O)c1)Cc1cc([O-])ccc1[O-])[N-]Cc1ccccc1F (protonated)
O=C(CN(Cc1cccc(O)c1)Cc1cc([O-])ccc1[O-])[N-]Cc1ccccc1F (3D coordinates assigned)
O=C(CN(Cc1cccc(O)c1)Cc1cc([O-])ccc1[O-])[N-]Cc1ccccc1F (optimized conformer: 48.362443258414295 kcal/mol)

>  <smiles>  (11) 
O=C(CN(Cc1cccc(O)c1)Cc1cc(O)ccc1O)NCc1ccccc1F

>  <score_type>  (11) 
oracle

>  <origin>  (11) 
adg

>  <m_score__min__energy>  (11) 
-15.359999999999999

>  <m_primary>  (11) 
energy

$$$$
11:0
     RDKit          3D

 50 53  0  0  0  0  0  0  0  0999 V2000
   59.1213   23.7826   45.5486 H   0  0  0  0  0  0  0  0  0  0  0  0
   58.2080   24.3880   45.6450 C   0  0  0  0  0  0  0  0  0  0  0  0
   58.2930   25.6850   46.0430 N   0  0  0  0  0  0  0  0  0  0  0  0
   57.1870   26.4700   46.1830 C   0  0  0  0  0  0  0  0  0  0  0  0
   57.2840   27.7110   46.5650 N   0  0  0  0  0  0  0  0  0  0  0  0
   57.2760   28.8820   45.7330 C   0  0  0  0  0  0  0  0  0  0  0  0
   56.2070   29.3150   45.2240 O   0  0  0  0  0  0  0  0  0  0  0  0
   58.5580   29.6170   45.4910 C   0  0  0  0  0  0  0  0  0  0  0  0
   59.0179   29.8684   46.4581 H   0  0  0  0  0  0  0  0  0  0  0  0
   59.2292   28.9724   44.9045 H   0  0  0  0  0  0  0  0  0  0  0  0
   58.3070   30.8920   44.7140 C   0  0  0  0  0  0  0  0  0  0  0  0
   57.7530   30.7940   43.4300 C   0  0  0  0  0  0  0  0  0  0  0  0
   57.5174   29.8079   43.0033 H   0  0  0  0  0  0  0  0  0  0  0  0
   57.5020   31.9540   42.6960 C   0  0  0  0  0  0  0  0  0  0  0  0
   57.0160   31.8710   41.5360 O   0  0  0  0  0  0  0  0  0  0  0  0
   57.7690   33.1480   43.2110 O   0  0  0  0  0  0  0  0  0  0  0  0
   58.2810   33.3050   44.4270 C   0  0  0  0  0  0  0  0  0  0  0  0
   58.5140   34.5970   44.9050 C   0  0  0  0  0  0  0  0  0  0  0  0
   58.2896   35.4650   44.2676 H   0  0  0  0  0  0  0  0  0  0  0  0
   59.0300   34.7920   46.1870 C   0  0  0  0  0  0  0  0  0  0  0  0
   59.1924   35.8140   46.5601 H   0  0  0  0  0  0  0  0  0  0  0  0
   59.3430   33.6960   47.0030 C   0  0  0  0  0  0  0  0  0  0  0  0
   59.8140   33.9300   48.3420 N   0  0  0  0  0  0  0  0  0  0  0  0
   59.1080   34.1080   49.0920 H   0  0  0  0  0  0  0  0  0  0  0  0
   61.1950   33.9590   48.7230 C   0  0  0  0  0  0  0  0  0  0  0  0
   62.0920   34.1800   47.8640 O   0  0  0  0  0  0  0  0  0  0  0  0
   61.5330   33.7660   50.0640 O   0  0  0  0  0  0  0  0  0  0  0  0
   61.8490   32.4890   50.6060 C   0  0  0  0  0  0  0  0  0  0  0  0
   62.9028   32.2513   50.3984 H   0  0  0  0  0  0  0  0  0  0  0  0
   61.6872   32.4979   51.6940 H   0  0  0  0  0  0  0  0  0  0  0  0
   60.9660   31.4540   49.9720 C   0  0  0  0  0  0  0  0  0  0  0  0
   59.6280   31.3250   50.3780 C   0  0  0  0  0  0  0  0  0  0  0  0
   59.2398   31.9529   51.1935 H   0  0  0  0  0  0  0  0  0  0  0  0
   58.7880   30.4020   49.7500 C   0  0  0  0  0  0  0  0  0  0  0  0
   57.7430   30.2985   50.0776 H   0  0  0  0  0  0  0  0  0  0  0  0
   59.2740   29.6100   48.7060 C   0  0  0  0  0  0  0  0  0  0  0  0
   58.6112   28.8838   48.2127 H   0  0  0  0  0  0  0  0  0  0  0  0
   60.6020   29.7400   48.2880 C   0  0  0  0  0  0  0  0  0  0  0  0
   60.9832   29.1164   47.4659 H   0  0  0  0  0  0  0  0  0  0  0  0
   61.4460   30.6630   48.9150 C   0  0  0  0  0  0  0  0  0  0  0  0
   62.4881   30.7696   48.5794 H   0  0  0  0  0  0  0  0  0  0  0  0
   59.1090   32.3940   46.5260 C   0  0  0  0  0  0  0  0  0  0  0  0
   59.3443   31.5305   47.1655 H   0  0  0  0  0  0  0  0  0  0  0  0
   58.5760   32.1820   45.2370 C   0  0  0  0  0  0  0  0  0  0  0  0
   55.9200   25.9330   45.9060 C   0  0  0  0  0  0  0  0  0  0  0  0
   54.7750   26.7110   46.0380 O   0  0  0  0  0  0  0  0  0  0  0  0
   55.8140   24.6030   45.4920 C   0  0  0  0  0  0  0  0  0  0  0  0
   54.8263   24.1718   45.2719 H   0  0  0  0  0  0  0  0  0  0  0  0
   56.9630   23.8220   45.3580 C   0  0  0  0  0  0  0  0  0  0  0  0
   56.8895   22.7744   45.0307 H   0  0  0  0  0  0  0  0  0  0  0  0
  1  2  1  0
  2  3  1  0
  3  4  1  0
  4  5  2  0
  5  6  1  0
  6  7  2  0
  6  8  1  0
  8  9  1  0
  8 10  1  0
  8 11  1  0
 11 12  2  0
 12 13  1  0
 12 14  1  0
 14 15  2  0
 14 16  1  0
 16 17  1  0
 17 18  2  0
 18 19  1  0
 18 20  1  0
 20 21  1  0
 20 22  2  0
 22 23  1  0
 23 24  1  0
 23 25  1  0
 25 26  2  0
 25 27  1  0
 27 28  1  0
 28 29  1  0
 28 30  1  0
 28 31  1  0
 31 32  2  0
 32 33  1  0
 32 34  1  0
 34 35  1  0
 34 36  2  0
 36 37  1  0
 36 38  1  0
 38 39  1  0
 38 40  2  0
 40 41  1  0
 22 42  1  0
 42 43  1  0
 42 44  2  0
  4 45  1  0
 45 46  1  0
 45 47  2  0
 47 48  1  0
 47 49  1  0
 49 50  1  0
 49  2  2  0
 44 11  1  0
 44 17  1  0
 40 31  1  0
M  CHG  2   3  -1  46  -1
M  END
>  <UniqueID>  (12) 
12

>  <SMILES>  (12) 
O=C(Cc1cc(=O)oc2ccc(NC(=O)OCc3ccccc3)cc12)/N=c1\[n-]cccc1[O-]

>  <Energy>  (12) 
62.61818184639974

>  <Genealogy>  (12) 
O=C(Cc1cc(=O)oc2ccc(NC(=O)OCc3ccccc3)cc12)N=c1[n-]cccc1[O-] (protonated)
O=C(Cc1cc(=O)oc2ccc(NC(=O)OCc3ccccc3)cc12)/N=c1\[n-]cccc1[O-] (cis-trans isomerization)
O=C(Cc1cc(=O)oc2ccc(NC(=O)OCc3ccccc3)cc12)/N=c1\[n-]cccc1[O-] (3D coordinates assigned)
O=C(Cc1cc(=O)oc2ccc(NC(=O)OCc3ccccc3)cc12)/N=c1\[n-]cccc1[O-] (optimized conformer: 62.61818184639974 kcal/mol)

>  <smiles>  (12) 
O=C(Cc1cc(=O)oc2ccc(NC(=O)OCc3ccccc3)cc12)N=c1[nH]cccc1O

>  <score_type>  (12) 
oracle

>  <origin>  (12) 
adg

>  <m_score__min__energy>  (12) 
-14.92

>  <m_primary>  (12) 
energy

$$$$
12:0
     RDKit          3D

 35 36  0  0  0  0  0  0  0  0999 V2000
   59.8980   28.2680   48.3100 C   0  0  0  0  0  0  0  0  0  0  0  0
   59.2410   27.8260   47.0270 C   0  0  0  0  0  0  0  0  0  0  0  0
   58.1640   26.9240   47.0870 C   0  0  0  0  0  0  0  0  0  0  0  0
   57.5290   26.4910   45.9160 C   0  0  0  0  0  0  0  0  0  0  0  0
   56.1550   25.3940   46.0030 S   0  0  0  0  0  0  0  0  0  0  0  0
   54.6870   26.3060   45.9860 N   0  0  0  0  0  0  0  0  0  0  0  0
   56.2230   24.5840   47.2670 O   0  0  0  0  0  0  0  0  0  0  0  0
   56.1800   24.4580   44.8270 O   0  0  0  0  0  0  0  0  0  0  0  0
   57.9710   26.9600   44.6760 C   0  0  0  0  0  0  0  0  0  0  0  0
   59.0410   27.8500   44.6010 C   0  0  0  0  0  0  0  0  0  0  0  0
   59.6930   28.2900   45.7660 C   0  0  0  0  0  0  0  0  0  0  0  0
   60.7700   29.3430   45.6460 C   0  0  0  0  0  0  0  0  0  0  0  0
   60.3780   30.5230   46.4060 N   0  0  0  0  0  0  0  0  0  0  0  0
   59.0250   30.9820   46.4750 C   0  0  0  0  0  0  0  0  0  0  0  0
   58.3020   30.6910   47.4670 O   0  0  0  0  0  0  0  0  0  0  0  0
   58.5110   31.9090   45.4240 C   0  0  0  0  0  0  0  0  0  0  0  0
   57.6940   31.1250   44.4450 C   0  0  0  0  0  0  0  0  0  0  0  0
   57.6020   31.3750   43.0820 C   0  0  0  0  0  0  0  0  0  0  0  0
   56.6440   30.5820   42.4400 C   0  0  0  0  0  0  0  0  0  0  0  0
   55.9700   29.7190   43.2940 C   0  0  0  0  0  0  0  0  0  0  0  0
   56.5600   29.9500   44.8510 S   0  0  0  0  0  0  0  0  0  0  0  0
   59.3255   27.8829   49.1667 H   0  0  0  0  0  0  0  0  0  0  0  0
   60.9252   27.8766   48.3497 H   0  0  0  0  0  0  0  0  0  0  0  0
   59.9226   29.3670   48.3497 H   0  0  0  0  0  0  0  0  0  0  0  0
   57.8167   26.5547   48.0632 H   0  0  0  0  0  0  0  0  0  0  0  0
   54.8010   27.0780   46.6810 H   0  0  0  0  0  0  0  0  0  0  0  0
   57.4720   26.6251   43.7547 H   0  0  0  0  0  0  0  0  0  0  0  0
   59.3791   28.2122   43.6189 H   0  0  0  0  0  0  0  0  0  0  0  0
   61.7162   28.9476   46.0438 H   0  0  0  0  0  0  0  0  0  0  0  0
   60.9036   29.6140   44.5883 H   0  0  0  0  0  0  0  0  0  0  0  0
   57.8855   32.6849   45.8895 H   0  0  0  0  0  0  0  0  0  0  0  0
   59.3538   32.3899   44.9060 H   0  0  0  0  0  0  0  0  0  0  0  0
   58.2195   32.1207   42.5599 H   0  0  0  0  0  0  0  0  0  0  0  0
   56.4437   30.6372   41.3598 H   0  0  0  0  0  0  0  0  0  0  0  0
   55.1847   29.0064   43.0017 H   0  0  0  0  0  0  0  0  0  0  0  0
  1  2  1  0
  2  3  2  0
  3  4  1  0
  4  5  1  0
  5  6  1  0
  5  7  2  0
  5  8  2  0
  4  9  2  0
  9 10  1  0
 10 11  2  0
 11 12  1  0
 12 13  1  0
 13 14  1  0
 14 15  2  0
 14 16  1  0
 16 17  1  0
 17 18  2  0
 18 19  1  0
 19 20  2  0
 20 21  1  0
 11  2  1  0
 21 17  1  0
  1 22  1  0
  1 23  1  0
  1 24  1  0
  3 25  1  0
  6 26  1  0
  9 27  1  0
 10 28  1  0
 12 29  1  0
 12 30  1  0
 16 31  1  0
 16 32  1  0
 18 33  1  0
 19 34  1  0
 20 35  1  0
M  CHG  2   6  -1  13  -1
M  END
>  <UniqueID>  (13) 
13

>  <SMILES>  (13) 
Cc1cc(S([NH-])(=O)=O)ccc1C[N-]C(=O)Cc1cccs1

>  <Energy>  (13) 
53.8622400420971

>  <Genealogy>  (13) 
Cc1cc(S([NH-])(=O)=O)ccc1C[N-]C(=O)Cc1cccs1 (protonated)
Cc1cc(S([NH-])(=O)=O)ccc1C[N-]C(=O)Cc1cccs1 (3D coordinates assigned)
Cc1cc(S([NH-])(=O)=O)ccc1C[N-]C(=O)Cc1cccs1 (optimized conformer: 53.8622400420971 kcal/mol)

>  <smiles>  (13) 
Cc1cc(S(N)(=O)=O)ccc1CNC(=O)Cc1cccs1

>  <score_type>  (13) 
oracle

>  <origin>  (13) 
adg

>  <m_score__min__energy>  (13) 
-11.32

>  <m_primary>  (13) 
energy

$$$$
13:0
     RDKit          3D

 49 52  0  0  0  0  0  0  0  0999 V2000
   60.1870   30.1150   45.9550 N   0  0  0  0  0  0  0  0  0  0  0  0
   59.6240   29.1650   45.0550 C   0  0  0  0  0  0  0  0  0  0  0  0
   60.3290   28.7330   44.1050 O   0  0  0  0  0  0  0  0  0  0  0  0
   58.2330   28.6820   45.2340 C   0  0  0  0  0  0  0  0  0  0  0  0
   57.0500   29.4010   45.0070 C   0  0  0  0  0  0  0  0  0  0  0  0
   56.9400   30.8130   44.4970 C   0  0  0  0  0  0  0  0  0  0  0  0
   58.1250   31.6080   44.8800 N   0  0  0  0  0  0  0  0  0  0  0  0
   58.1180   31.9340   46.3300 C   0  0  0  0  0  0  0  0  0  0  0  0
   57.6080   33.3580   46.6050 C   0  0  0  0  0  0  0  0  0  0  0  0
   58.4190   34.3810   45.9030 N   0  0  0  0  0  0  0  0  0  0  0  0
   59.2630   35.2220   46.7830 C   0  0  0  0  0  0  0  0  0  0  0  0
   60.4510   34.4930   47.3870 C   0  0  0  0  0  0  0  0  0  0  0  0
   61.5500   34.1490   46.5770 C   0  0  0  0  0  0  0  0  0  0  0  0
   62.6450   33.4710   47.1150 C   0  0  0  0  0  0  0  0  0  0  0  0
   62.6710   33.1490   48.4730 C   0  0  0  0  0  0  0  0  0  0  0  0
   61.6080   33.5210   49.2980 C   0  0  0  0  0  0  0  0  0  0  0  0
   60.5060   34.2010   48.7660 C   0  0  0  0  0  0  0  0  0  0  0  0
   59.5230   34.6060   49.6080 F   0  0  0  0  0  0  0  0  0  0  0  0
   59.1120   33.8900   44.6920 C   0  0  0  0  0  0  0  0  0  0  0  0
   58.2870   32.7980   44.0050 C   0  0  0  0  0  0  0  0  0  0  0  0
   55.9660   28.6290   45.2460 N   0  0  0  0  0  0  0  0  0  0  0  0
   56.4370   27.4320   45.6300 C   0  0  0  0  0  0  0  0  0  0  0  0
   55.6870   26.3090   45.9820 C   0  0  0  0  0  0  0  0  0  0  0  0
   54.2980   26.3390   45.9650 O   0  0  0  0  0  0  0  0  0  0  0  0
   56.3760   25.1440   46.3580 C   0  0  0  0  0  0  0  0  0  0  0  0
   57.7860   25.1260   46.3760 C   0  0  0  0  0  0  0  0  0  0  0  0
   58.5200   26.2690   46.0140 C   0  0  0  0  0  0  0  0  0  0  0  0
   57.8120   27.4190   45.6390 C   0  0  0  0  0  0  0  0  0  0  0  0
   60.0660   31.1400   45.7990 H   0  0  0  0  0  0  0  0  0  0  0  0
   56.8587   30.7940   43.4002 H   0  0  0  0  0  0  0  0  0  0  0  0
   56.0476   31.2777   44.9415 H   0  0  0  0  0  0  0  0  0  0  0  0
   57.4653   31.2177   46.8505 H   0  0  0  0  0  0  0  0  0  0  0  0
   59.1541   31.8712   46.6942 H   0  0  0  0  0  0  0  0  0  0  0  0
   56.5654   33.4346   46.2628 H   0  0  0  0  0  0  0  0  0  0  0  0
   57.6854   33.5448   47.6863 H   0  0  0  0  0  0  0  0  0  0  0  0
   59.6419   36.0685   46.1915 H   0  0  0  0  0  0  0  0  0  0  0  0
   58.6267   35.5398   47.6221 H   0  0  0  0  0  0  0  0  0  0  0  0
   61.5456   34.4171   45.5102 H   0  0  0  0  0  0  0  0  0  0  0  0
   63.4889   33.1900   46.4678 H   0  0  0  0  0  0  0  0  0  0  0  0
   63.5284   32.6025   48.8928 H   0  0  0  0  0  0  0  0  0  0  0  0
   61.6364   33.2788   50.3706 H   0  0  0  0  0  0  0  0  0  0  0  0
   59.2565   34.7274   43.9935 H   0  0  0  0  0  0  0  0  0  0  0  0
   60.0843   33.4680   44.9861 H   0  0  0  0  0  0  0  0  0  0  0  0
   57.2928   33.2008   43.7613 H   0  0  0  0  0  0  0  0  0  0  0  0
   58.8170   32.4867   43.0928 H   0  0  0  0  0  0  0  0  0  0  0  0
   54.9630   28.9050   45.1400 H   0  0  0  0  0  0  0  0  0  0  0  0
   55.8132   24.2418   46.6396 H   0  0  0  0  0  0  0  0  0  0  0  0
   58.3159   24.2099   46.6758 H   0  0  0  0  0  0  0  0  0  0  0  0
   59.6199   26.2610   46.0248 H   0  0  0  0  0  0  0  0  0  0  0  0
  1  2  1  0
  2  3  2  0
  2  4  1  0
  4  5  2  0
  5  6  1  0
  6  7  1  0
  7  8  1  0
  8  9  1  0
  9 10  1  0
 10 11  1  0
 11 12  1  0
 12 13  2  0
 13 14  1  0
 14 15  2  0
 15 16  1  0
 16 17  2  0
 17 18  1  0
 10 19  1  0
 19 20  1  0
  5 21  1  0
 21 22  1  0
 22 23  2  0
 23 24  1  0
 23 25  1  0
 25 26  2  0
 26 27  1  0
 27 28  2  0
 28  4  1  0
 20  7  1  0
 28 22  1  0
 17 12  1  0
  1 29  1  0
  6 30  1  0
  6 31  1  0
  8 32  1  0
  8 33  1  0
  9 34  1  0
  9 35  1  0
 11 36  1  0
 11 37  1  0
 13 38  1  0
 14 39  1  0
 15 40  1  0
 16 41  1  0
 19 42  1  0
 19 43  1  0
 20 44  1  0
 20 45  1  0
 21 46  1  0
 25 47  1  0
 26 48  1  0
 27 49  1  0
M  CHG  2   1  -1  24  -1
M  END
>  <UniqueID>  (14) 
14

>  <SMILES>  (14) 
[NH-]C(=O)c1c(CN2CCN(Cc3ccccc3F)CC2)[nH]c2c([O-])cccc12

>  <Energy>  (14) 
103.28455133483043

>  <Genealogy>  (14) 
[NH-]C(=O)c1c(CN2CCN(Cc3ccccc3F)CC2)[nH]c2c([O-])cccc12 (protonated)
[NH-]C(=O)c1c(CN2CCN(Cc3ccccc3F)CC2)[nH]c2c([O-])cccc12 (3D coordinates assigned)
[NH-]C(=O)c1c(CN2CCN(Cc3ccccc3F)CC2)[nH]c2c([O-])cccc12 (nonaromatic ring conformer: 103.28455133483043 kcal/mol)

>  <smiles>  (14) 
NC(=O)c1c(CN2CCN(Cc3ccccc3F)CC2)[nH]c2c(O)cccc12

>  <score_type>  (14) 
oracle

>  <origin>  (14) 
adg

>  <m_score__min__energy>  (14) 
-13.41

>  <m_primary>  (14) 
energy

$$$$
14:0
     RDKit          3D

 41 43  0  0  0  0  0  0  0  0999 V2000
   55.7170   29.7160   46.0590 H   0  0  0  0  0  0  0  0  0  0  0  0
   55.6040   30.0290   45.1030 O   0  0  0  0  0  0  0  0  0  0  0  0
   56.5060   30.9140   44.5570 N   0  0  0  0  0  0  0  0  0  0  0  0
   57.7620   30.9160   44.8840 C   0  0  0  0  0  0  0  0  0  0  0  0
   58.4172   30.1384   44.4643 H   0  0  0  0  0  0  0  0  0  0  0  0
   58.3500   31.9220   45.7990 C   0  0  0  0  0  0  0  0  0  0  0  0
   57.6360   33.1070   46.0540 C   0  0  0  0  0  0  0  0  0  0  0  0
   56.6382   33.2468   45.6125 H   0  0  0  0  0  0  0  0  0  0  0  0
   58.1800   34.1070   46.8610 C   0  0  0  0  0  0  0  0  0  0  0  0
   57.6061   35.0236   47.0619 H   0  0  0  0  0  0  0  0  0  0  0  0
   59.4480   33.9460   47.4120 C   0  0  0  0  0  0  0  0  0  0  0  0
   59.8760   34.7373   48.0450 H   0  0  0  0  0  0  0  0  0  0  0  0
   60.1770   32.7830   47.1630 C   0  0  0  0  0  0  0  0  0  0  0  0
   61.1827   32.6694   47.5938 H   0  0  0  0  0  0  0  0  0  0  0  0
   59.6410   31.7530   46.3670 C   0  0  0  0  0  0  0  0  0  0  0  0
   60.4630   30.4940   46.1730 C   0  0  0  0  0  0  0  0  0  0  0  0
   61.3852   30.5687   46.7680 H   0  0  0  0  0  0  0  0  0  0  0  0
   60.7073   30.3901   45.1055 H   0  0  0  0  0  0  0  0  0  0  0  0
   59.7020   29.3080   46.6050 N   0  0  0  0  0  0  0  0  0  0  0  0
   59.2040   29.1200   47.8500 C   0  0  0  0  0  0  0  0  0  0  0  0
   59.3600   30.0780   48.9930 C   0  0  0  0  0  0  0  0  0  0  0  0
   59.2711   29.5320   49.9438 H   0  0  0  0  0  0  0  0  0  0  0  0
   60.3481   30.5580   48.9368 H   0  0  0  0  0  0  0  0  0  0  0  0
   58.5752   30.8467   48.9368 H   0  0  0  0  0  0  0  0  0  0  0  0
   58.5880   27.8920   47.9480 C   0  0  0  0  0  0  0  0  0  0  0  0
   58.0788   27.4834   48.8333 H   0  0  0  0  0  0  0  0  0  0  0  0
   58.7320   27.2710   46.7210 C   0  0  0  0  0  0  0  0  0  0  0  0
   58.3170   26.0080   46.4980 C   0  0  0  0  0  0  0  0  0  0  0  0
   59.0946   25.2435   46.3532 H   0  0  0  0  0  0  0  0  0  0  0  0
   56.9180   25.5610   46.4310 C   0  0  0  0  0  0  0  0  0  0  0  0
   56.5370   24.2900   46.6440 N   0  0  0  0  0  0  0  0  0  0  0  0
   55.2120   24.3140   46.3840 C   0  0  0  0  0  0  0  0  0  0  0  0
   54.4820   23.2930   46.4910 O   0  0  0  0  0  0  0  0  0  0  0  0
   54.7310   25.5130   45.9910 N   0  0  0  0  0  0  0  0  0  0  0  0
   55.8260   26.2920   46.0090 C   0  0  0  0  0  0  0  0  0  0  0  0
   55.8170   27.6300   45.6230 O   0  0  0  0  0  0  0  0  0  0  0  0
   55.1490   27.9840   44.9500 H   0  0  0  0  0  0  0  0  0  0  0  0
   59.3960   28.1890   45.8880 C   0  0  0  0  0  0  0  0  0  0  0  0
   59.6190   28.0560   44.5690 C   0  0  0  0  0  0  0  0  0  0  0  0
   60.1529   28.8451   44.0191 H   0  0  0  0  0  0  0  0  0  0  0  0
   59.2676   27.1581   44.0396 H   0  0  0  0  0  0  0  0  0  0  0  0
  1  2  1  0
  2  3  1  0
  3  4  2  3
  4  5  1  0
  4  6  1  0
  6  7  2  0
  7  8  1  0
  7  9  1  0
  9 10  1  0
  9 11  2  0
 11 12  1  0
 11 13  1  0
 13 14  1  0
 13 15  2  0
 15 16  1  0
 16 17  1  0
 16 18  1  0
 16 19  1  0
 19 20  1  0
 20 21  1  0
 21 22  1  0
 21 23  1  0
 21 24  1  0
 20 25  2  0
 25 26  1  0
 25 27  1  0
 27 28  2  0
 28 29  1  0
 28 30  1  0
 30 31  1  0
 31 32  1  0
 32 33  2  0
 32 34  1  0
 34 35  1  0
 35 36  1  0
 36 37  1  0
 27 38  1  0
 38 39  2  0
 39 40  1  0
 39 41  1  0
 15  6  1  0
 38 19  1  0
 35 30  2  0
M  CHG  2  31  -1  34  -1
M  END
>  <UniqueID>  (15) 
15

>  <SMILES>  (15) 
C=c1/c(=C\c2[n-]c(=O)[n-]c2O)cc(C)n1Cc1ccccc1C=NO

>  <Energy>  (15) 
118.50465204715127

>  <Genealogy>  (15) 
C=c1c(=Cc2[n-]c(=O)[n-]c2O)cc(C)n1Cc1ccccc1C=NO (protonated)
C=c1/c(=C\c2[n-]c(=O)[n-]c2O)cc(C)n1Cc1ccccc1C=NO (cis-trans isomerization)
C=c1/c(=C\c2[n-]c(=O)[n-]c2O)cc(C)n1Cc1ccccc1C=NO (3D coordinates assigned)
C=c1/c(=C\c2[n-]c(=O)[n-]c2O)cc(C)n1Cc1ccccc1C=NO (optimized conformer: 118.50465204715127 kcal/mol)

>  <smiles>  (15) 
C=c1c(=Cc2[nH]c(=O)[nH]c2O)cc(C)n1Cc1ccccc1C=NO

>  <score_type>  (15) 
oracle

>  <origin>  (15) 
adg

>  <m_score__min__energy>  (15) 
-13.4

>  <m_primary>  (15) 
energy

$$$$
15:0
     RDKit          3D

 59 62  0  0  0  0  0  0  0  0999 V2000
   58.5830   33.0170   50.4380 H   0  0  0  0  0  0  0  0  0  0  0  0
   58.3250   32.0380   50.4100 O   0  0  0  0  0  0  0  0  0  0  0  0
   59.1310   31.0900   49.7780 C   0  0  0  0  0  0  0  0  0  0  0  0
   58.7640   29.7380   49.7690 C   0  0  0  0  0  0  0  0  0  0  0  0
   57.8363   29.4162   50.2648 H   0  0  0  0  0  0  0  0  0  0  0  0
   59.5770   28.7990   49.1300 C   0  0  0  0  0  0  0  0  0  0  0  0
   59.2952   27.7358   49.1197 H   0  0  0  0  0  0  0  0  0  0  0  0
   60.7500   29.2230   48.5050 C   0  0  0  0  0  0  0  0  0  0  0  0
   61.3951   28.4942   47.9925 H   0  0  0  0  0  0  0  0  0  0  0  0
   61.0950   30.5380   48.5300 N   0  0  0  0  0  0  0  0  0  0  0  0
   60.3200   31.4810   49.1410 C   0  0  0  0  0  0  0  0  0  0  0  0
   60.6870   32.7320   49.1830 N   0  0  0  0  0  0  0  0  0  0  0  0
   59.9120   33.8660   48.7610 C   0  0  0  0  0  0  0  0  0  0  0  0
   59.6340   34.7590   49.6040 O   0  0  0  0  0  0  0  0  0  0  0  0
   59.4090   34.0100   47.3820 C   0  0  0  0  0  0  0  0  0  0  0  0
   59.7790   35.1290   46.6200 C   0  0  0  0  0  0  0  0  0  0  0  0
   60.4505   35.8873   47.0491 H   0  0  0  0  0  0  0  0  0  0  0  0
   59.2970   35.2820   45.3190 C   0  0  0  0  0  0  0  0  0  0  0  0
   59.6096   36.1472   44.7159 H   0  0  0  0  0  0  0  0  0  0  0  0
   58.4190   34.3390   44.7820 C   0  0  0  0  0  0  0  0  0  0  0  0
   58.0401   34.4665   43.7572 H   0  0  0  0  0  0  0  0  0  0  0  0
   58.0160   33.2280   45.5420 C   0  0  0  0  0  0  0  0  0  0  0  0
   56.9780   32.2760   44.9970 C   0  0  0  0  0  0  0  0  0  0  0  0
   56.8390   32.4813   43.9253 H   0  0  0  0  0  0  0  0  0  0  0  0
   56.0483   32.4352   45.5629 H   0  0  0  0  0  0  0  0  0  0  0  0
   57.3680   30.8580   45.1620 N   0  0  0  0  0  0  0  0  0  0  0  0
   56.6580   30.0420   44.1480 C   0  0  0  0  0  0  0  0  0  0  0  0
   56.6554   30.5936   43.1963 H   0  0  0  0  0  0  0  0  0  0  0  0
   55.6414   29.8640   44.5287 H   0  0  0  0  0  0  0  0  0  0  0  0
   57.3050   28.6570   43.9100 C   0  0  0  0  0  0  0  0  0  0  0  0
   57.8823   28.6964   42.9745 H   0  0  0  0  0  0  0  0  0  0  0  0
   56.4910   27.9187   43.8609 H   0  0  0  0  0  0  0  0  0  0  0  0
   58.2070   28.2450   45.0010 N   0  0  0  0  0  0  0  0  0  0  0  0
   57.5870   27.4560   46.0910 C   0  0  0  0  0  0  0  0  0  0  0  0
   56.7203   28.0153   46.4732 H   0  0  0  0  0  0  0  0  0  0  0  0
   58.3632   27.3040   46.8555 H   0  0  0  0  0  0  0  0  0  0  0  0
   57.1160   26.0800   45.6640 C   0  0  0  0  0  0  0  0  0  0  0  0
   58.0580   25.0870   45.3450 C   0  0  0  0  0  0  0  0  0  0  0  0
   59.1322   25.3097   45.4253 H   0  0  0  0  0  0  0  0  0  0  0  0
   57.6440   23.8200   44.9270 C   0  0  0  0  0  0  0  0  0  0  0  0
   58.3938   23.0611   44.6590 H   0  0  0  0  0  0  0  0  0  0  0  0
   56.2830   23.5100   44.8470 C   0  0  0  0  0  0  0  0  0  0  0  0
   55.9120   22.2310   44.4030 O   0  0  0  0  0  0  0  0  0  0  0  0
   56.6460   21.4680   43.4510 C   0  0  0  0  0  0  0  0  0  0  0  0
   57.3158   20.7718   43.9770 H   0  0  0  0  0  0  0  0  0  0  0  0
   55.9474   20.8987   42.8202 H   0  0  0  0  0  0  0  0  0  0  0  0
   57.2419   22.1440   42.8202 H   0  0  0  0  0  0  0  0  0  0  0  0
   55.3350   24.4850   45.2100 C   0  0  0  0  0  0  0  0  0  0  0  0
   54.2624   24.2438   45.1730 H   0  0  0  0  0  0  0  0  0  0  0  0
   55.7460   25.7570   45.6170 C   0  0  0  0  0  0  0  0  0  0  0  0
   54.7850   26.6870   45.9920 O   0  0  0  0  0  0  0  0  0  0  0  0
   59.2140   29.2510   45.4060 C   0  0  0  0  0  0  0  0  0  0  0  0
   60.1701   29.0049   44.9209 H   0  0  0  0  0  0  0  0  0  0  0  0
   59.2895   29.2178   46.5029 H   0  0  0  0  0  0  0  0  0  0  0  0
   58.8220   30.6830   45.0160 C   0  0  0  0  0  0  0  0  0  0  0  0
   59.1092   30.8686   43.9705 H   0  0  0  0  0  0  0  0  0  0  0  0
   59.3418   31.3945   45.6745 H   0  0  0  0  0  0  0  0  0  0  0  0
   58.5310   33.0580   46.8390 C   0  0  0  0  0  0  0  0  0  0  0  0
   58.2451   32.1759   47.4308 H   0  0  0  0  0  0  0  0  0  0  0  0
  1  2  1  0
  2  3  1  0
  3  4  2  0
  4  5  1  0
  4  6  1  0
  6  7  1  0
  6  8  2  0
  8  9  1  0
  8 10  1  0
 10 11  1  0
 11 12  2  0
 12 13  1  0
 13 14  2  0
 13 15  1  0
 15 16  2  0
 16 17  1  0
 16 18  1  0
 18 19  1  0
 18 20  2  0
 20 21  1  0
 20 22  1  0
 22 23  1  0
 23 24  1  0
 23 25  1  0
 23 26  1  0
 26 27  1  0
 27 28  1  0
 27 29  1  0
 27 30  1  0
 30 31  1  0
 30 32  1  0
 30 33  1  0
 33 34  1  0
 34 35  1  0
 34 36  1  0
 34 37  1  0
 37 38  2  0
 38 39  1  0
 38 40  1  0
 40 41  1  0
 40 42  2  0
 42 43  1  0
 43 44  1  0
 44 45  1  0
 44 46  1  0
 44 47  1  0
 42 48  1  0
 48 49  1  0
 48 50  2  0
 50 51  1  0
 33 52  1  0
 52 53  1  0
 52 54  1  0
 52 55  1  0
 55 56  1  0
 55 57  1  0
 22 58  2  0
 58 59  1  0
 11  3  1  0
 58 15  1  0
 55 26  1  0
 50 37  1  0
M  CHG  2  10  -1  51  -1
M  END
>  <UniqueID>  (16) 
16

>  <SMILES>  (16) 
COc1ccc(CN2CCN(Cc3cccc(C(=O)/N=c4\[n-]cccc4O)c3)CC2)c([O-])c1

>  <Energy>  (16) 
83.5547800382468

>  <Genealogy>  (16) 
COc1ccc(CN2CCN(Cc3cccc(C(=O)N=c4[n-]cccc4O)c3)CC2)c([O-])c1 (protonated)
COc1ccc(CN2CCN(Cc3cccc(C(=O)/N=c4\[n-]cccc4O)c3)CC2)c([O-])c1 (cis-trans isomerization)
COc1ccc(CN2CCN(Cc3cccc(C(=O)/N=c4\[n-]cccc4O)c3)CC2)c([O-])c1 (3D coordinates assigned)
COc1ccc(CN2CCN(Cc3cccc(C(=O)/N=c4\[n-]cccc4O)c3)CC2)c([O-])c1 (nonaromatic ring conformer: 83.5547800382468 kcal/mol)

>  <smiles>  (16) 
COc1ccc(CN2CCN(Cc3cccc(C(=O)N=c4[nH]cccc4O)c3)CC2)c(O)c1

>  <score_type>  (16) 
oracle

>  <origin>  (16) 
adg

>  <m_score__min__energy>  (16) 
-14.359999999999999

>  <m_primary>  (16) 
energy

$$$$
16:0
     RDKit          3D

 58 61  0  0  0  0  0  0  0  0999 V2000
   50.6020   27.4390   52.3460 C   0  0  0  0  0  0  0  0  0  0  0  0
   51.8360   28.0210   52.7530 O   0  0  0  0  0  0  0  0  0  0  0  0
   52.3010   29.2720   52.3180 C   0  0  0  0  0  0  0  0  0  0  0  0
   51.3740   30.1880   51.8120 C   0  0  0  0  0  0  0  0  0  0  0  0
   51.7950   31.4340   51.3370 C   0  0  0  0  0  0  0  0  0  0  0  0
   50.8660   32.3290   50.8210 O   0  0  0  0  0  0  0  0  0  0  0  0
   53.1480   31.7790   51.3750 C   0  0  0  0  0  0  0  0  0  0  0  0
   54.0940   30.8790   51.8940 C   0  0  0  0  0  0  0  0  0  0  0  0
   55.5300   31.2270   51.9180 C   0  0  0  0  0  0  0  0  0  0  0  0
   56.5200   30.3920   51.5270 N   0  0  0  0  0  0  0  0  0  0  0  0
   57.6280   31.1170   51.7820 C   0  0  0  0  0  0  0  0  0  0  0  0
   57.3170   32.3110   52.3140 N   0  0  0  0  0  0  0  0  0  0  0  0
   58.2440   33.3500   52.6640 C   0  0  0  0  0  0  0  0  0  0  0  0
   59.4940   33.4330   52.1810 C   0  0  0  0  0  0  0  0  0  0  0  0
   59.8940   33.1610   50.7870 C   0  0  0  0  0  0  0  0  0  0  0  0
   59.7030   34.0510   49.9160 O   0  0  0  0  0  0  0  0  0  0  0  0
   60.4690   31.8970   50.4270 N   0  0  0  0  0  0  0  0  0  0  0  0
   60.0010   30.9710   49.4360 C   0  0  0  0  0  0  0  0  0  0  0  0
   60.2270   29.5860   49.5340 C   0  0  0  0  0  0  0  0  0  0  0  0
   59.7930   28.7320   48.5170 C   0  0  0  0  0  0  0  0  0  0  0  0
   59.1360   29.2480   47.3980 C   0  0  0  0  0  0  0  0  0  0  0  0
   58.8960   30.6270   47.2870 C   0  0  0  0  0  0  0  0  0  0  0  0
   58.2230   31.1890   46.0910 C   0  0  0  0  0  0  0  0  0  0  0  0
   57.5810   32.2700   46.2000 O   0  0  0  0  0  0  0  0  0  0  0  0
   58.2730   30.5260   44.8130 N   0  0  0  0  0  0  0  0  0  0  0  0
   58.2740   31.3090   43.5740 C   0  0  0  0  0  0  0  0  0  0  0  0
   56.9550   31.0950   42.8070 C   0  0  0  0  0  0  0  0  0  0  0  0
   56.3710   29.7380   42.9780 N   0  0  0  0  0  0  0  0  0  0  0  0
   55.2050   29.7550   43.8780 C   0  0  0  0  0  0  0  0  0  0  0  0
   57.3640   28.7190   43.3850 C   0  0  0  0  0  0  0  0  0  0  0  0
   58.0380   29.0790   44.7210 C   0  0  0  0  0  0  0  0  0  0  0  0
   59.3530   31.4810   48.3040 C   0  0  0  0  0  0  0  0  0  0  0  0
   56.0010   32.4020   52.3780 N   0  0  0  0  0  0  0  0  0  0  0  0
   53.6640   29.6260   52.3650 C   0  0  0  0  0  0  0  0  0  0  0  0
   50.0161   27.1627   53.2350 H   0  0  0  0  0  0  0  0  0  0  0  0
   50.0351   28.1647   51.7443 H   0  0  0  0  0  0  0  0  0  0  0  0
   50.8014   26.5400   51.7443 H   0  0  0  0  0  0  0  0  0  0  0  0
   50.3058   29.9267   51.7873 H   0  0  0  0  0  0  0  0  0  0  0  0
   53.4742   32.7592   50.9971 H   0  0  0  0  0  0  0  0  0  0  0  0
   58.6539   30.7751   51.5805 H   0  0  0  0  0  0  0  0  0  0  0  0
   57.9101   34.1245   53.3702 H   0  0  0  0  0  0  0  0  0  0  0  0
   60.2868   33.7287   52.8838 H   0  0  0  0  0  0  0  0  0  0  0  0
   60.7460   29.1749   50.4124 H   0  0  0  0  0  0  0  0  0  0  0  0
   59.9695   27.6493   48.5980 H   0  0  0  0  0  0  0  0  0  0  0  0
   58.8043   28.5696   46.5982 H   0  0  0  0  0  0  0  0  0  0  0  0
   58.3828   32.3759   43.8187 H   0  0  0  0  0  0  0  0  0  0  0  0
   59.1130   30.9805   42.9430 H   0  0  0  0  0  0  0  0  0  0  0  0
   56.2230   31.8344   43.1640 H   0  0  0  0  0  0  0  0  0  0  0  0
   57.1855   31.2106   41.7376 H   0  0  0  0  0  0  0  0  0  0  0  0
   55.5483   29.7500   44.9230 H   0  0  0  0  0  0  0  0  0  0  0  0
   54.6111   30.6619   43.6915 H   0  0  0  0  0  0  0  0  0  0  0  0
   54.5849   28.8658   43.6915 H   0  0  0  0  0  0  0  0  0  0  0  0
   56.8556   27.7495   43.4926 H   0  0  0  0  0  0  0  0  0  0  0  0
   58.1436   28.6729   42.6103 H   0  0  0  0  0  0  0  0  0  0  0  0
   57.3860   28.7661   45.5498 H   0  0  0  0  0  0  0  0  0  0  0  0
   59.0062   28.5600   44.7788 H   0  0  0  0  0  0  0  0  0  0  0  0
   59.1998   32.5662   48.2101 H   0  0  0  0  0  0  0  0  0  0  0  0
   54.3980   28.9159   52.7737 H   0  0  0  0  0  0  0  0  0  0  0  0
  1  2  1  0
  2  3  1  0
  3  4  2  0
  4  5  1  0
  5  6  1  0
  5  7  2  0
  7  8  1  0
  8  9  1  0
  9 10  1  0
 10 11  2  0
 11 12  1  0
 12 13  1  0
 13 14  2  3
 14 15  1  0
 15 16  2  0
 15 17  1  0
 17 18  1  0
 18 19  2  0
 19 20  1  0
 20 21  2  0
 21 22  1  0
 22 23  1  0
 23 24  2  0
 23 25  1  0
 25 26  1  0
 26 27  1  0
 27 28  1  0
 28 29  1  0
 28 30  1  0
 30 31  1  0
 22 32  2  0
 12 33  1  0
  8 34  2  0
 34  3  1  0
 33  9  2  0
 32 18  1  0
 31 25  1  0
  1 35  1  0
  1 36  1  0
  1 37  1  0
  4 38  1  0
  7 39  1  0
 11 40  1  0
 13 41  1  0
 14 42  1  0
 19 43  1  0
 20 44  1  0
 21 45  1  0
 26 46  1  0
 26 47  1  0
 27 48  1  0
 27 49  1  0
 29 50  1  0
 29 51  1  0
 29 52  1  0
 30 53  1  0
 30 54  1  0
 31 55  1  0
 31 56  1  0
 32 57  1  0
 34 58  1  0
M  CHG  2   6  -1  17  -1
M  END
>  <UniqueID>  (17) 
17

>  <SMILES>  (17) 
COc1cc([O-])cc(-c2ncn(C=CC(=O)[N-]c3cccc(C(=O)N4CCN(C)CC4)c3)n2)c1

>  <Energy>  (17) 
109.91830803835232

>  <Genealogy>  (17) 
COc1cc([O-])cc(-c2ncn(C=CC(=O)[N-]c3cccc(C(=O)N4CCN(C)CC4)c3)n2)c1 (protonated)
COc1cc([O-])cc(-c2ncn(C=CC(=O)[N-]c3cccc(C(=O)N4CCN(C)CC4)c3)n2)c1 (3D coordinates assigned)
COc1cc([O-])cc(-c2ncn(C=CC(=O)[N-]c3cccc(C(=O)N4CCN(C)CC4)c3)n2)c1 (nonaromatic ring conformer: 109.91830803835232 kcal/mol)

>  <smiles>  (17) 
COc1cc(O)cc(-c2ncn(C=CC(=O)Nc3cccc(C(=O)N4CCN(C)CC4)c3)n2)c1

>  <score_type>  (17) 
oracle

>  <origin>  (17) 
adg

>  <m_score__min__energy>  (17) 
-15.09

>  <m_primary>  (17) 
energy

$$$$
17:0
     RDKit          3D

 56 59  0  0  0  0  0  0  0  0999 V2000
   57.6290   28.5410   46.0220 O   0  0  0  0  0  0  0  0  0  0  0  0
   57.3680   27.9690   44.9290 C   0  0  0  0  0  0  0  0  0  0  0  0
   57.7850   26.5330   44.7500 C   0  0  0  0  0  0  0  0  0  0  0  0
   57.1690   25.6580   45.7990 C   0  0  0  0  0  0  0  0  0  0  0  0
   57.8010   24.6330   46.3980 N   0  0  0  0  0  0  0  0  0  0  0  0
   56.8680   24.1400   47.2420 C   0  0  0  0  0  0  0  0  0  0  0  0
   57.0810   23.1460   47.9840 O   0  0  0  0  0  0  0  0  0  0  0  0
   55.6860   24.7910   47.2230 N   0  0  0  0  0  0  0  0  0  0  0  0
   55.8950   25.7520   46.3060 C   0  0  0  0  0  0  0  0  0  0  0  0
   54.9410   26.6940   45.9370 O   0  0  0  0  0  0  0  0  0  0  0  0
   56.6060   28.6900   43.9480 N   0  0  0  0  0  0  0  0  0  0  0  0
   55.8750   29.9410   44.1340 C   0  0  0  0  0  0  0  0  0  0  0  0
   56.8220   31.1070   44.0640 C   0  0  0  0  0  0  0  0  0  0  0  0
   57.2860   31.5600   42.8200 C   0  0  0  0  0  0  0  0  0  0  0  0
   58.1540   32.6510   42.7460 C   0  0  0  0  0  0  0  0  0  0  0  0
   58.5370   33.3260   43.9080 C   0  0  0  0  0  0  0  0  0  0  0  0
   59.4230   34.3500   43.8150 F   0  0  0  0  0  0  0  0  0  0  0  0
   58.0360   32.9180   45.1580 C   0  0  0  0  0  0  0  0  0  0  0  0
   58.3730   33.6580   46.3940 C   0  0  0  0  0  0  0  0  0  0  0  0
   57.4710   34.3210   46.9730 O   0  0  0  0  0  0  0  0  0  0  0  0
   59.7190   33.6860   46.9080 N   0  0  0  0  0  0  0  0  0  0  0  0
   59.9350   33.9180   48.3440 C   0  0  0  0  0  0  0  0  0  0  0  0
   61.1960   33.1860   48.8270 C   0  0  0  0  0  0  0  0  0  0  0  0
   62.3110   33.3290   47.8740 N   0  0  0  0  0  0  0  0  0  0  0  0
   63.4300   32.4270   47.9610 C   0  0  0  0  0  0  0  0  0  0  0  0
   63.8620   31.8690   46.9150 O   0  0  0  0  0  0  0  0  0  0  0  0
   64.0710   32.1200   49.2570 C   0  0  0  0  0  0  0  0  0  0  0  0
   63.4790   31.1980   50.1360 C   0  0  0  0  0  0  0  0  0  0  0  0
   64.0840   30.9030   51.3620 C   0  0  0  0  0  0  0  0  0  0  0  0
   65.2900   31.5140   51.7120 C   0  0  0  0  0  0  0  0  0  0  0  0
   65.8970   32.4160   50.8350 C   0  0  0  0  0  0  0  0  0  0  0  0
   65.2920   32.7200   49.6110 C   0  0  0  0  0  0  0  0  0  0  0  0
   62.1390   34.1730   46.6880 C   0  0  0  0  0  0  0  0  0  0  0  0
   60.8500   33.7770   45.9680 C   0  0  0  0  0  0  0  0  0  0  0  0
   57.2090   31.7860   45.2310 C   0  0  0  0  0  0  0  0  0  0  0  0
   57.4618   26.1860   43.7575 H   0  0  0  0  0  0  0  0  0  0  0  0
   58.8794   26.4726   44.8430 H   0  0  0  0  0  0  0  0  0  0  0  0
   55.1870   27.4660   45.3290 H   0  0  0  0  0  0  0  0  0  0  0  0
   55.1164   30.0403   43.3437 H   0  0  0  0  0  0  0  0  0  0  0  0
   55.3881   29.9308   45.1203 H   0  0  0  0  0  0  0  0  0  0  0  0
   56.9643   31.0531   41.8983 H   0  0  0  0  0  0  0  0  0  0  0  0
   58.5379   32.9805   41.7692 H   0  0  0  0  0  0  0  0  0  0  0  0
   60.0531   34.9971   48.5220 H   0  0  0  0  0  0  0  0  0  0  0  0
   59.0672   33.5330   48.8996 H   0  0  0  0  0  0  0  0  0  0  0  0
   61.5011   33.6048   49.7973 H   0  0  0  0  0  0  0  0  0  0  0  0
   60.9572   32.1159   48.9156 H   0  0  0  0  0  0  0  0  0  0  0  0
   62.5352   30.7057   49.8588 H   0  0  0  0  0  0  0  0  0  0  0  0
   63.6094   30.1890   52.0512 H   0  0  0  0  0  0  0  0  0  0  0  0
   65.7621   31.2849   52.6787 H   0  0  0  0  0  0  0  0  0  0  0  0
   66.8525   32.8881   51.1074 H   0  0  0  0  0  0  0  0  0  0  0  0
   65.7732   33.4309   48.9232 H   0  0  0  0  0  0  0  0  0  0  0  0
   62.0799   35.2281   46.9934 H   0  0  0  0  0  0  0  0  0  0  0  0
   62.9955   34.0364   46.0115 H   0  0  0  0  0  0  0  0  0  0  0  0
   60.6201   34.5329   45.2027 H   0  0  0  0  0  0  0  0  0  0  0  0
   60.9988   32.7896   45.5067 H   0  0  0  0  0  0  0  0  0  0  0  0
   56.8609   31.4275   46.2110 H   0  0  0  0  0  0  0  0  0  0  0  0
  1  2  2  0
  2  3  1  0
  3  4  1  0
  4  5  1  0
  5  6  1  0
  6  7  2  0
  6  8  1  0
  8  9  1  0
  9 10  1  0
  2 11  1  0
 11 12  1  0
 12 13  1  0
 13 14  2  0
 14 15  1  0
 15 16  2  0
 16 17  1  0
 16 18  1  0
 18 19  1  0
 19 20  2  0
 19 21  1  0
 21 22  1  0
 22 23  1  0
 23 24  1  0
 24 25  1  0
 25 26  2  0
 25 27  1  0
 27 28  2  0
 28 29  1  0
 29 30  2  0
 30 31  1  0
 31 32  2  0
 24 33  1  0
 33 34  1  0
 18 35  2  0
  9  4  2  0
 35 13  1  0
 34 21  1  0
 32 27  1  0
  3 36  1  0
  3 37  1  0
 10 38  1  0
 12 39  1  0
 12 40  1  0
 14 41  1  0
 15 42  1  0
 22 43  1  0
 22 44  1  0
 23 45  1  0
 23 46  1  0
 28 47  1  0
 29 48  1  0
 30 49  1  0
 31 50  1  0
 32 51  1  0
 33 52  1  0
 33 53  1  0
 34 54  1  0
 34 55  1  0
 35 56  1  0
M  CHG  3   5  -1   8  -1  11  -1
M  END
>  <UniqueID>  (18) 
18

>  <SMILES>  (18) 
O=C(Cc1[n-]c(=O)[n-]c1O)[N-]Cc1ccc(F)c(C(=O)N2CCN(C(=O)c3ccccc3)CC2)c1

>  <Energy>  (18) 
96.89717289546685

>  <Genealogy>  (18) 
O=C(Cc1[n-]c(=O)[n-]c1O)[N-]Cc1ccc(F)c(C(=O)N2CCN(C(=O)c3ccccc3)CC2)c1 (protonated)
O=C(Cc1[n-]c(=O)[n-]c1O)[N-]Cc1ccc(F)c(C(=O)N2CCN(C(=O)c3ccccc3)CC2)c1 (3D coordinates assigned)
O=C(Cc1[n-]c(=O)[n-]c1O)[N-]Cc1ccc(F)c(C(=O)N2CCN(C(=O)c3ccccc3)CC2)c1 (nonaromatic ring conformer: 96.89717289546685 kcal/mol)

>  <smiles>  (18) 
O=C(Cc1[nH]c(=O)[nH]c1O)NCc1ccc(F)c(C(=O)N2CCN(C(=O)c3ccccc3)CC2)c1

>  <score_type>  (18) 
oracle

>  <origin>  (18) 
adg

>  <m_score__min__energy>  (18) 
-16.489999999999998

>  <m_primary>  (18) 
energy

$$$$
18:0
     RDKit          3D

 46 48  0  0  0  0  0  0  0  0999 V2000
   54.7880   29.3410   44.3710 N   0  0  0  0  0  0  0  0  0  0  0  0
   56.4500   29.8000   44.4620 S   0  0  0  0  0  0  0  0  0  0  0  0
   57.1700   29.2850   43.2480 O   0  0  0  0  0  0  0  0  0  0  0  0
   57.0790   29.2100   45.6930 O   0  0  0  0  0  0  0  0  0  0  0  0
   56.5830   31.5280   44.5080 N   0  0  0  0  0  0  0  0  0  0  0  0
   57.6300   32.2570   45.1620 C   0  0  0  0  0  0  0  0  0  0  0  0
   58.8210   31.6380   45.5850 C   0  0  0  0  0  0  0  0  0  0  0  0
   59.8140   32.3870   46.2250 C   0  0  0  0  0  0  0  0  0  0  0  0
   59.6300   33.7580   46.4580 C   0  0  0  0  0  0  0  0  0  0  0  0
   60.7140   34.5670   47.1230 C   0  0  0  0  0  0  0  0  0  0  0  0
   60.9400   34.1200   48.5670 C   0  0  0  0  0  0  0  0  0  0  0  0
   59.8560   33.2470   49.0030 N   0  0  0  0  0  0  0  0  0  0  0  0
   60.0280   32.2320   49.9950 C   0  0  0  0  0  0  0  0  0  0  0  0
   60.0750   32.5380   51.2170 O   0  0  0  0  0  0  0  0  0  0  0  0
   60.1420   30.8290   49.5830 C   0  0  0  0  0  0  0  0  0  0  0  0
   59.4740   30.2300   48.5350 C   0  0  0  0  0  0  0  0  0  0  0  0
   59.9300   28.9240   48.5620 C   0  0  0  0  0  0  0  0  0  0  0  0
   59.5520   27.8170   47.6540 C   0  0  0  0  0  0  0  0  0  0  0  0
   60.5250   27.0760   46.9620 C   0  0  0  0  0  0  0  0  0  0  0  0
   60.1450   26.0430   46.1040 C   0  0  0  0  0  0  0  0  0  0  0  0
   58.7950   25.7300   45.9310 C   0  0  0  0  0  0  0  0  0  0  0  0
   57.8040   26.4460   46.6250 C   0  0  0  0  0  0  0  0  0  0  0  0
   56.3640   26.1230   46.4570 C   0  0  0  0  0  0  0  0  0  0  0  0
   55.5090   26.9210   45.6320 N   0  0  0  0  0  0  0  0  0  0  0  0
   55.8800   25.1120   47.0330 O   0  0  0  0  0  0  0  0  0  0  0  0
   58.1940   27.4970   47.4750 C   0  0  0  0  0  0  0  0  0  0  0  0
   60.7880   28.8040   49.5510 O   0  0  0  0  0  0  0  0  0  0  0  0
   60.9400   29.9290   50.1880 N   0  0  0  0  0  0  0  0  0  0  0  0
   58.4500   34.3770   46.0200 C   0  0  0  0  0  0  0  0  0  0  0  0
   57.4570   33.6300   45.3790 C   0  0  0  0  0  0  0  0  0  0  0  0
   54.4000   29.4020   45.3390 H   0  0  0  0  0  0  0  0  0  0  0  0
   58.9714   30.5622   45.4119 H   0  0  0  0  0  0  0  0  0  0  0  0
   60.7450   31.8979   46.5476 H   0  0  0  0  0  0  0  0  0  0  0  0
   61.6503   34.4419   46.5593 H   0  0  0  0  0  0  0  0  0  0  0  0
   60.4011   35.6215   47.1329 H   0  0  0  0  0  0  0  0  0  0  0  0
   61.8933   33.5752   48.6331 H   0  0  0  0  0  0  0  0  0  0  0  0
   60.9670   35.0078   49.2160 H   0  0  0  0  0  0  0  0  0  0  0  0
   58.7501   30.6834   47.8419 H   0  0  0  0  0  0  0  0  0  0  0  0
   61.5910   27.3112   47.0972 H   0  0  0  0  0  0  0  0  0  0  0  0
   60.9129   25.4723   45.5611 H   0  0  0  0  0  0  0  0  0  0  0  0
   58.5053   24.9183   45.2475 H   0  0  0  0  0  0  0  0  0  0  0  0
   55.8830   27.6650   45.0040 H   0  0  0  0  0  0  0  0  0  0  0  0
   54.4870   26.7090   45.5850 H   0  0  0  0  0  0  0  0  0  0  0  0
   57.4258   28.0770   48.0074 H   0  0  0  0  0  0  0  0  0  0  0  0
   58.3051   35.4554   46.1816 H   0  0  0  0  0  0  0  0  0  0  0  0
   56.5335   34.1240   45.0428 H   0  0  0  0  0  0  0  0  0  0  0  0
  1  2  1  0
  2  3  2  0
  2  4  2  0
  2  5  1  0
  5  6  1  0
  6  7  2  0
  7  8  1  0
  8  9  2  0
  9 10  1  0
 10 11  1  0
 11 12  1  0
 12 13  1  0
 13 14  2  0
 13 15  1  0
 15 16  1  0
 16 17  2  0
 17 18  1  0
 18 19  2  0
 19 20  1  0
 20 21  2  0
 21 22  1  0
 22 23  1  0
 23 24  1  0
 23 25  2  0
 22 26  2  0
 17 27  1  0
 27 28  1  0
  9 29  1  0
 29 30  2  0
 30  6  1  0
 28 15  2  0
 26 18  1  0
  1 31  1  0
  7 32  1  0
  8 33  1  0
 10 34  1  0
 10 35  1  0
 11 36  1  0
 11 37  1  0
 16 38  1  0
 19 39  1  0
 20 40  1  0
 21 41  1  0
 24 42  1  0
 24 43  1  0
 26 44  1  0
 29 45  1  0
 30 46  1  0
M  CHG  3   1  -1   5  -1  12  -1
M  END
>  <UniqueID>  (19) 
19

>  <SMILES>  (19) 
[NH-]S(=O)(=O)[N-]c1ccc(CC[N-]C(=O)c2cc(-c3cccc(C(N)=O)c3)on2)cc1

>  <Energy>  (19) 
75.9787151366978

>  <Genealogy>  (19) 
[NH-]S(=O)(=O)[N-]c1ccc(CC[N-]C(=O)c2cc(-c3cccc(C(N)=O)c3)on2)cc1 (protonated)
[NH-]S(=O)(=O)[N-]c1ccc(CC[N-]C(=O)c2cc(-c3cccc(C(N)=O)c3)on2)cc1 (3D coordinates assigned)
[NH-]S(=O)(=O)[N-]c1ccc(CC[N-]C(=O)c2cc(-c3cccc(C(N)=O)c3)on2)cc1 (optimized conformer: 75.9787151366978 kcal/mol)

>  <smiles>  (19) 
NC(=O)c1cccc(-c2cc(C(=O)NCCc3ccc(NS(N)(=O)=O)cc3)no2)c1

>  <score_type>  (19) 
oracle

>  <origin>  (19) 
adg

>  <m_score__min__energy>  (19) 
-13.800000000000001

>  <m_primary>  (19) 
energy

$$$$
19:0
     RDKit          3D

 42 44  0  0  0  0  0  0  0  0999 V2000
   59.0115   26.4285   47.3488 H   0  0  0  0  0  0  0  0  0  0  0  0
   58.9960   27.5270   47.4040 C   0  0  0  0  0  0  0  0  0  0  0  0
   59.6560   28.4650   48.6340 S   0  0  0  0  0  0  0  0  0  0  0  0
   59.1990   29.9120   47.9150 C   0  0  0  0  0  0  0  0  0  0  0  0
   59.4450   31.0770   48.4330 N   0  0  0  0  0  0  0  0  0  0  0  0
   60.5310   31.9630   48.1130 C   0  0  0  0  0  0  0  0  0  0  0  0
   61.6970   31.7030   47.4040 C   0  0  0  0  0  0  0  0  0  0  0  0
   61.9751   30.7461   46.9381 H   0  0  0  0  0  0  0  0  0  0  0  0
   62.4260   32.8380   47.3910 N   0  0  0  0  0  0  0  0  0  0  0  0
   63.7170   33.0250   46.7400 C   0  0  0  0  0  0  0  0  0  0  0  0
   64.5000   33.1384   47.5042 H   0  0  0  0  0  0  0  0  0  0  0  0
   63.9413   32.1500   46.1123 H   0  0  0  0  0  0  0  0  0  0  0  0
   63.6838   33.9277   46.1123 H   0  0  0  0  0  0  0  0  0  0  0  0
   61.7810   33.7910   48.0460 N   0  0  0  0  0  0  0  0  0  0  0  0
   62.1300   34.7670   48.1810 H   0  0  0  0  0  0  0  0  0  0  0  0
   60.6160   33.2880   48.4950 C   0  0  0  0  0  0  0  0  0  0  0  0
   59.6340   34.0400   49.3340 C   0  0  0  0  0  0  0  0  0  0  0  0
   59.8553   33.8705   50.3981 H   0  0  0  0  0  0  0  0  0  0  0  0
   59.7080   35.1146   49.1107 H   0  0  0  0  0  0  0  0  0  0  0  0
   58.6159   33.6884   49.1107 H   0  0  0  0  0  0  0  0  0  0  0  0
   58.5470   29.7120   46.7500 N   0  0  0  0  0  0  0  0  0  0  0  0
   58.4260   28.3870   46.4670 C   0  0  0  0  0  0  0  0  0  0  0  0
   57.7910   27.9110   45.1980 C   0  0  0  0  0  0  0  0  0  0  0  0
   58.1523   26.8981   44.9668 H   0  0  0  0  0  0  0  0  0  0  0  0
   58.0578   28.5961   44.3798 H   0  0  0  0  0  0  0  0  0  0  0  0
   56.3060   27.8840   45.3530 C   0  0  0  0  0  0  0  0  0  0  0  0
   55.7560   26.9180   45.9480 O   0  0  0  0  0  0  0  0  0  0  0  0
   55.5240   28.9850   44.8780 N   0  0  0  0  0  0  0  0  0  0  0  0
   55.8250   29.7160   43.6530 C   0  0  0  0  0  0  0  0  0  0  0  0
   54.8853   30.0528   43.1910 H   0  0  0  0  0  0  0  0  0  0  0  0
   56.3665   29.0518   42.9634 H   0  0  0  0  0  0  0  0  0  0  0  0
   56.6800   30.9050   43.9560 C   0  0  0  0  0  0  0  0  0  0  0  0
   56.6790   31.5380   45.1060 O   0  0  0  0  0  0  0  0  0  0  0  0
   57.5290   32.5350   45.0250 C   0  0  0  0  0  0  0  0  0  0  0  0
   57.8140   33.4850   46.1380 C   0  0  0  0  0  0  0  0  0  0  0  0
   57.6616   32.9770   47.1017 H   0  0  0  0  0  0  0  0  0  0  0  0
   58.8556   33.8314   46.0668 H   0  0  0  0  0  0  0  0  0  0  0  0
   57.1351   34.3475   46.0668 H   0  0  0  0  0  0  0  0  0  0  0  0
   58.1110   32.5660   43.7740 C   0  0  0  0  0  0  0  0  0  0  0  0
   58.8589   33.2845   43.4073 H   0  0  0  0  0  0  0  0  0  0  0  0
   57.5610   31.5100   43.0790 C   0  0  0  0  0  0  0  0  0  0  0  0
   57.7779   31.2111   42.0428 H   0  0  0  0  0  0  0  0  0  0  0  0
  1  2  1  0
  2  3  1  0
  3  4  1  0
  4  5  2  0
  5  6  1  0
  6  7  2  0
  7  8  1  0
  7  9  1  0
  9 10  1  0
 10 11  1  0
 10 12  1  0
 10 13  1  0
  9 14  1  0
 14 15  1  0
 14 16  2  0
 16 17  1  0
 17 18  1  0
 17 19  1  0
 17 20  1  0
  4 21  1  0
 21 22  1  0
 22 23  1  0
 23 24  1  0
 23 25  1  0
 23 26  1  0
 26 27  2  0
 26 28  1  0
 28 29  1  0
 29 30  1  0
 29 31  1  0
 29 32  1  0
 32 33  1  0
 33 34  1  0
 34 35  1  0
 35 36  1  0
 35 37  1  0
 35 38  1  0
 34 39  2  0
 39 40  1  0
 39 41  1  0
 41 42  1  0
 22  2  2  0
 41 32  2  0
 16  6  1  0
M  CHG  3  14   1  21  -1  28  -1
M  END
>  <UniqueID>  (20) 
20

>  <SMILES>  (20) 
Cc1ccc(C[N-]C(=O)Cc2cs/c(=N/c3cn(C)[nH+]c3C)[n-]2)o1

>  <Energy>  (20) 
125.07778617903617

>  <Genealogy>  (20) 
Cc1ccc(C[N-]C(=O)Cc2csc(=Nc3cn(C)[nH+]c3C)[n-]2)o1 (protonated)
Cc1ccc(C[N-]C(=O)Cc2cs/c(=N/c3cn(C)[nH+]c3C)[n-]2)o1 (cis-trans isomerization)
Cc1ccc(C[N-]C(=O)Cc2cs/c(=N/c3cn(C)[nH+]c3C)[n-]2)o1 (3D coordinates assigned)
Cc1ccc(C[N-]C(=O)Cc2cs/c(=N/c3cn(C)[nH+]c3C)[n-]2)o1 (optimized conformer: 125.07778617903617 kcal/mol)

>  <smiles>  (20) 
Cc1ccc(CNC(=O)Cc2csc(=Nc3cn(C)nc3C)[nH]2)o1

>  <score_type>  (20) 
oracle

>  <origin>  (20) 
adg

>  <m_score__min__energy>  (20) 
-10.109999999999999

>  <m_primary>  (20) 
energy

$$$$
20:0
     RDKit          3D

 59 62  0  0  0  0  0  0  0  0999 V2000
   60.8620   29.6860   46.4970 C   0  0  0  0  0  0  0  0  0  0  0  0
   60.0600   29.0320   47.3420 C   0  0  0  0  0  0  0  0  0  0  0  0
   58.7660   29.6260   47.8330 C   0  0  0  0  0  0  0  0  0  0  0  0
   58.8170   31.1100   47.8140 N   0  0  0  0  0  0  0  0  0  0  0  0
   59.3350   31.7610   48.9110 C   0  0  0  0  0  0  0  0  0  0  0  0
   59.7630   31.0970   49.8960 O   0  0  0  0  0  0  0  0  0  0  0  0
   59.3840   33.1620   48.9680 C   0  0  0  0  0  0  0  0  0  0  0  0
   59.9550   33.8530   50.1540 C   0  0  0  0  0  0  0  0  0  0  0  0
   59.2230   34.5920   50.8660 O   0  0  0  0  0  0  0  0  0  0  0  0
   61.3590   33.7660   50.4440 N   0  0  0  0  0  0  0  0  0  0  0  0
   61.7400   33.6380   51.8520 C   0  0  0  0  0  0  0  0  0  0  0  0
   62.3100   33.4670   49.4010 C   0  0  0  0  0  0  0  0  0  0  0  0
   63.2480   32.4280   49.5510 C   0  0  0  0  0  0  0  0  0  0  0  0
   64.1450   32.1300   48.5210 C   0  0  0  0  0  0  0  0  0  0  0  0
   64.1160   32.8620   47.3320 C   0  0  0  0  0  0  0  0  0  0  0  0
   63.1850   33.8900   47.1680 C   0  0  0  0  0  0  0  0  0  0  0  0
   62.2840   34.1890   48.1940 C   0  0  0  0  0  0  0  0  0  0  0  0
   58.8950   33.9160   47.8930 C   0  0  0  0  0  0  0  0  0  0  0  0
   58.9380   35.3130   48.0000 O   0  0  0  0  0  0  0  0  0  0  0  0
   58.4000   33.2570   46.7430 C   0  0  0  0  0  0  0  0  0  0  0  0
   57.9600   33.9730   45.6090 C   0  0  0  0  0  0  0  0  0  0  0  0
   57.5070   33.3110   44.4720 C   0  0  0  0  0  0  0  0  0  0  0  0
   57.4740   31.9160   44.4250 C   0  0  0  0  0  0  0  0  0  0  0  0
   57.0120   31.2190   43.2000 C   0  0  0  0  0  0  0  0  0  0  0  0
   57.3120   31.6730   42.0630 O   0  0  0  0  0  0  0  0  0  0  0  0
   56.2260   30.0240   43.3040 N   0  0  0  0  0  0  0  0  0  0  0  0
   55.9410   29.3450   44.5640 C   0  0  0  0  0  0  0  0  0  0  0  0
   56.9750   28.2840   44.8430 C   0  0  0  0  0  0  0  0  0  0  0  0
   58.2860   28.4480   44.3600 C   0  0  0  0  0  0  0  0  0  0  0  0
   59.2600   27.4770   44.6140 C   0  0  0  0  0  0  0  0  0  0  0  0
   58.9320   26.3330   45.3480 C   0  0  0  0  0  0  0  0  0  0  0  0
   57.6310   26.1580   45.8280 C   0  0  0  0  0  0  0  0  0  0  0  0
   56.6530   27.1290   45.5820 C   0  0  0  0  0  0  0  0  0  0  0  0
   55.3990   26.9370   46.0660 F   0  0  0  0  0  0  0  0  0  0  0  0
   57.9000   31.1880   45.5460 C   0  0  0  0  0  0  0  0  0  0  0  0
   58.3740   31.8320   46.7190 C   0  0  0  0  0  0  0  0  0  0  0  0
   61.8002   29.2219   46.1587 H   0  0  0  0  0  0  0  0  0  0  0  0
   60.5841   30.6885   46.1396 H   0  0  0  0  0  0  0  0  0  0  0  0
   60.3534   28.0303   47.6893 H   0  0  0  0  0  0  0  0  0  0  0  0
   57.9457   29.2865   47.1835 H   0  0  0  0  0  0  0  0  0  0  0  0
   58.6012   29.2956   48.8692 H   0  0  0  0  0  0  0  0  0  0  0  0
   60.8901   33.9235   52.4893 H   0  0  0  0  0  0  0  0  0  0  0  0
   62.0221   32.5958   52.0622 H   0  0  0  0  0  0  0  0  0  0  0  0
   62.5941   34.2985   52.0622 H   0  0  0  0  0  0  0  0  0  0  0  0
   63.2753   31.8469   50.4846 H   0  0  0  0  0  0  0  0  0  0  0  0
   64.8753   31.3171   48.6473 H   0  0  0  0  0  0  0  0  0  0  0  0
   64.8262   32.6290   46.5250 H   0  0  0  0  0  0  0  0  0  0  0  0
   63.1607   34.4649   46.2305 H   0  0  0  0  0  0  0  0  0  0  0  0
   61.5487   34.9954   48.0564 H   0  0  0  0  0  0  0  0  0  0  0  0
   58.9770   35.8330   48.8650 H   0  0  0  0  0  0  0  0  0  0  0  0
   57.9755   35.0728   45.6243 H   0  0  0  0  0  0  0  0  0  0  0  0
   57.1713   33.8929   43.6010 H   0  0  0  0  0  0  0  0  0  0  0  0
   55.9496   30.0814   45.3811 H   0  0  0  0  0  0  0  0  0  0  0  0
   54.9533   28.8662   44.4923 H   0  0  0  0  0  0  0  0  0  0  0  0
   58.5466   29.3451   43.7792 H   0  0  0  0  0  0  0  0  0  0  0  0
   60.2841   27.6133   44.2363 H   0  0  0  0  0  0  0  0  0  0  0  0
   59.6987   25.5699   45.5479 H   0  0  0  0  0  0  0  0  0  0  0  0
   57.3748   25.2545   46.4008 H   0  0  0  0  0  0  0  0  0  0  0  0
   57.8658   30.0890   45.5153 H   0  0  0  0  0  0  0  0  0  0  0  0
  1  2  2  0
  2  3  1  0
  3  4  1  0
  4  5  1  0
  5  6  2  0
  5  7  1  0
  7  8  1  0
  8  9  2  0
  8 10  1  0
 10 11  1  0
 10 12  1  0
 12 13  2  0
 13 14  1  0
 14 15  2  0
 15 16  1  0
 16 17  2  0
  7 18  2  0
 18 19  1  0
 18 20  1  0
 20 21  2  0
 21 22  1  0
 22 23  2  0
 23 24  1  0
 24 25  2  0
 24 26  1  0
 26 27  1  0
 27 28  1  0
 28 29  2  0
 29 30  1  0
 30 31  2  0
 31 32  1  0
 32 33  2  0
 33 34  1  0
 23 35  1  0
 35 36  2  0
 36  4  1  0
 17 12  1  0
 36 20  1  0
 33 28  1  0
  1 37  1  0
  1 38  1  0
  2 39  1  0
  3 40  1  0
  3 41  1  0
 11 42  1  0
 11 43  1  0
 11 44  1  0
 13 45  1  0
 14 46  1  0
 15 47  1  0
 16 48  1  0
 17 49  1  0
 19 50  1  0
 21 51  1  0
 22 52  1  0
 27 53  1  0
 27 54  1  0
 29 55  1  0
 30 56  1  0
 31 57  1  0
 32 58  1  0
 35 59  1  0
M  CHG  1  26  -1
M  END
>  <UniqueID>  (21) 
21

>  <SMILES>  (21) 
C=CCn1c(=O)c(C(=O)N(C)c2ccccc2)c(O)c2ccc(C(=O)[N-]Cc3ccccc3F)cc21

>  <Energy>  (21) 
92.9008697249161

>  <Genealogy>  (21) 
C=CCn1c(=O)c(C(=O)N(C)c2ccccc2)c(O)c2ccc(C(=O)[N-]Cc3ccccc3F)cc21 (protonated)
C=CCn1c(=O)c(C(=O)N(C)c2ccccc2)c(O)c2ccc(C(=O)[N-]Cc3ccccc3F)cc21 (3D coordinates assigned)
C=CCn1c(=O)c(C(=O)N(C)c2ccccc2)c(O)c2ccc(C(=O)[N-]Cc3ccccc3F)cc21 (optimized conformer: 92.9008697249161 kcal/mol)

>  <smiles>  (21) 
C=CCn1c(=O)c(C(=O)N(C)c2ccccc2)c(O)c2ccc(C(=O)NCc3ccccc3F)cc21

>  <score_type>  (21) 
oracle

>  <origin>  (21) 
adg

>  <m_score__min__energy>  (21) 
-11.56

>  <m_primary>  (21) 
energy

$$$$
21:0
     RDKit          3D

 61 64  0  0  0  0  0  0  0  0999 V2000
   64.0940   32.2950   49.3500 C   0  0  0  0  0  0  0  0  0  0  0  0
   63.5350   32.7630   48.1270 O   0  0  0  0  0  0  0  0  0  0  0  0
   62.2320   32.4820   47.6920 C   0  0  0  0  0  0  0  0  0  0  0  0
   61.4100   33.4530   47.0950 C   0  0  0  0  0  0  0  0  0  0  0  0
   60.1250   33.1210   46.6670 C   0  0  0  0  0  0  0  0  0  0  0  0
   59.6280   31.8150   46.8400 C   0  0  0  0  0  0  0  0  0  0  0  0
   58.3410   31.4520   46.4150 O   0  0  0  0  0  0  0  0  0  0  0  0
   57.4570   32.3040   45.6960 C   0  0  0  0  0  0  0  0  0  0  0  0
   60.4360   30.8440   47.4630 C   0  0  0  0  0  0  0  0  0  0  0  0
   59.9400   29.5010   47.6200 N   0  0  0  0  0  0  0  0  0  0  0  0
   59.7020   28.5920   46.5280 C   0  0  0  0  0  0  0  0  0  0  0  0
   60.0470   28.8990   45.3580 O   0  0  0  0  0  0  0  0  0  0  0  0
   59.1560   27.2000   46.7790 C   0  0  2  0  0  0  0  0  0  0  0  0
   59.9930   26.0910   46.1730 C   0  0  0  0  0  0  0  0  0  0  0  0
   61.4900   26.1820   46.0910 C   0  0  0  0  0  0  0  0  0  0  0  0
   59.4470   24.9400   45.9210 N   0  0  0  0  0  0  0  0  0  0  0  0
   58.0470   24.6510   46.0680 C   0  0  0  0  0  0  0  0  0  0  0  0
   57.6510   23.1980   45.9670 C   0  0  0  0  0  0  0  0  0  0  0  0
   57.1690   22.9020   44.6190 N   0  0  0  0  0  0  0  0  0  0  0  0
   57.5270   21.8920   43.8100 C   0  0  0  0  0  0  0  0  0  0  0  0
   56.8130   21.9130   42.6690 N   0  0  0  0  0  0  0  0  0  0  0  0
   55.9810   22.9420   42.7480 N   0  0  0  0  0  0  0  0  0  0  0  0
   56.1980   23.5350   43.9370 C   0  0  0  0  0  0  0  0  0  0  0  0
   57.1690   25.6570   46.3050 C   0  0  0  0  0  0  0  0  0  0  0  0
   55.7090   25.4420   46.4070 C   0  0  0  0  0  0  0  0  0  0  0  0
   54.9210   26.3090   45.9440 O   0  0  0  0  0  0  0  0  0  0  0  0
   55.1960   24.2240   46.9520 N   0  0  0  0  0  0  0  0  0  0  0  0
   54.2430   23.4500   46.2760 C   0  0  0  0  0  0  0  0  0  0  0  0
   53.4570   22.8090   45.7180 N   0  0  0  0  0  0  0  0  0  0  0  0
   57.6580   27.0930   46.3700 C   0  0  2  0  0  0  0  0  0  0  0  0
   57.3080   27.8490   45.0890 C   0  0  0  0  0  0  0  0  0  0  0  0
   56.6020   29.0640   45.1890 C   0  0  0  0  0  0  0  0  0  0  0  0
   56.2890   29.8040   44.0460 C   0  0  0  0  0  0  0  0  0  0  0  0
   56.6730   29.3440   42.7870 C   0  0  0  0  0  0  0  0  0  0  0  0
   57.3790   28.1470   42.6680 C   0  0  0  0  0  0  0  0  0  0  0  0
   57.7070   27.4040   43.8060 C   0  0  0  0  0  0  0  0  0  0  0  0
   58.4220   26.2680   43.6420 F   0  0  0  0  0  0  0  0  0  0  0  0
   61.7430   31.1830   47.8610 C   0  0  0  0  0  0  0  0  0  0  0  0
   63.5549   32.7463   50.1960 H   0  0  0  0  0  0  0  0  0  0  0  0
   64.0029   31.1999   49.3994 H   0  0  0  0  0  0  0  0  0  0  0  0
   65.1560   32.5772   49.3994 H   0  0  0  0  0  0  0  0  0  0  0  0
   61.7820   34.4799   46.9647 H   0  0  0  0  0  0  0  0  0  0  0  0
   59.4943   33.8858   46.1902 H   0  0  0  0  0  0  0  0  0  0  0  0
   56.8518   32.8873   46.4056 H   0  0  0  0  0  0  0  0  0  0  0  0
   58.0411   32.9884   45.0632 H   0  0  0  0  0  0  0  0  0  0  0  0
   56.7946   31.6950   45.0632 H   0  0  0  0  0  0  0  0  0  0  0  0
   59.8310   29.1330   48.5900 H   0  0  0  0  0  0  0  0  0  0  0  0
   59.2218   27.0454   47.8661 H   0  0  0  0  0  0  0  0  0  0  0  0
   61.9120   26.2076   47.1065 H   0  0  0  0  0  0  0  0  0  0  0  0
   61.8817   25.3060   45.5532 H   0  0  0  0  0  0  0  0  0  0  0  0
   61.7727   27.0990   45.5532 H   0  0  0  0  0  0  0  0  0  0  0  0
   58.5242   22.5666   46.1881 H   0  0  0  0  0  0  0  0  0  0  0  0
   56.8480   22.9922   46.6901 H   0  0  0  0  0  0  0  0  0  0  0  0
   58.3005   21.1469   44.0478 H   0  0  0  0  0  0  0  0  0  0  0  0
   55.6540   24.4188   44.3018 H   0  0  0  0  0  0  0  0  0  0  0  0
   57.1163   27.5964   47.1843 H   0  0  0  0  0  0  0  0  0  0  0  0
   56.2938   29.4342   46.1779 H   0  0  0  0  0  0  0  0  0  0  0  0
   55.7384   30.7517   44.1396 H   0  0  0  0  0  0  0  0  0  0  0  0
   56.4193   29.9249   41.8880 H   0  0  0  0  0  0  0  0  0  0  0  0
   57.6794   27.7856   41.6734 H   0  0  0  0  0  0  0  0  0  0  0  0
   62.3889   30.4149   48.3114 H   0  0  0  0  0  0  0  0  0  0  0  0
  1  2  1  0
  2  3  1  0
  3  4  2  0
  4  5  1  0
  5  6  2  0
  6  7  1  0
  7  8  1  0
  6  9  1  0
  9 10  1  0
 10 11  1  0
 11 12  2  0
 11 13  1  0
 13 14  1  0
 14 15  1  0
 14 16  2  0
 16 17  1  0
 17 18  1  0
 18 19  1  0
 19 20  1  0
 20 21  2  0
 21 22  1  0
 22 23  2  0
 17 24  2  0
 24 25  1  0
 25 26  2  0
 25 27  1  0
 27 28  1  0
 28 29  3  0
 24 30  1  0
 30 31  1  0
 31 32  2  0
 32 33  1  0
 33 34  2  0
 34 35  1  0
 35 36  2  0
 36 37  1  0
  9 38  2  0
 38  3  1  0
 30 13  1  0
 36 31  1  0
 23 19  1  0
  1 39  1  0
  1 40  1  0
  1 41  1  0
  4 42  1  0
  5 43  1  0
  8 44  1  0
  8 45  1  0
  8 46  1  0
 10 47  1  0
 13 48  1  1
 15 49  1  0
 15 50  1  0
 15 51  1  0
 18 52  1  0
 18 53  1  0
 20 54  1  0
 23 55  1  0
 30 56  1  1
 32 57  1  0
 33 58  1  0
 34 59  1  0
 35 60  1  0
 38 61  1  0
M  CHG  1  27  -1
M  END
>  <UniqueID>  (22) 
22

>  <SMILES>  (22) 
COc1ccc(OC)c(NC(=O)[C@@H]2C(C)=NC(Cn3cnnc3)=C(C(=O)[N-]C#N)[C@@H]2c2ccccc2F)c1

>  <Energy>  (22) 
109.56219755133381

>  <Genealogy>  (22) 
COc1ccc(OC)c(NC(=O)C2C(C)=NC(Cn3cnnc3)=C(C(=O)[N-]C#N)C2c2ccccc2F)c1 (protonated)
COc1ccc(OC)c(NC(=O)[C@@H]2C(C)=NC(Cn3cnnc3)=C(C(=O)[N-]C#N)[C@@H]2c2ccccc2F)c1 (chirality)
COc1ccc(OC)c(NC(=O)[C@@H]2C(C)=NC(Cn3cnnc3)=C(C(=O)[N-]C#N)[C@@H]2c2ccccc2F)c1 (3D coordinates assigned)
COc1ccc(OC)c(NC(=O)[C@@H]2C(C)=NC(Cn3cnnc3)=C(C(=O)[N-]C#N)[C@@H]2c2ccccc2F)c1 (nonaromatic ring conformer: 109.56219755133381 kcal/mol)

>  <smiles>  (22) 
COc1ccc(OC)c(NC(=O)C2C(C)=NC(Cn3cnnc3)=C(C(=O)NC#N)C2c2ccccc2F)c1

>  <score_type>  (22) 
oracle

>  <origin>  (22) 
adg

>  <m_score__min__energy>  (22) 
-10.640000000000001

>  <m_primary>  (22) 
energy

$$$$
22:0
     RDKit          3D

 66 70  0  0  0  0  0  0  0  0999 V2000
   52.5630   27.9970   51.9820 H   0  0  0  0  0  0  0  0  0  0  0  0
   52.4420   29.0130   52.1870 N   0  0  0  0  0  0  0  0  0  0  0  0
   53.2360   29.9270   51.7200 C   0  0  0  0  0  0  0  0  0  0  0  0
   54.6280   30.0580   52.2200 C   0  0  0  0  0  0  0  0  0  0  0  0
   55.2530   28.9760   52.8640 C   0  0  0  0  0  0  0  0  0  0  0  0
   54.7120   28.0261   52.9867 H   0  0  0  0  0  0  0  0  0  0  0  0
   56.5570   29.1000   53.3490 C   0  0  0  0  0  0  0  0  0  0  0  0
   57.0369   28.2482   53.8530 H   0  0  0  0  0  0  0  0  0  0  0  0
   57.2540   30.3000   53.1970 C   0  0  0  0  0  0  0  0  0  0  0  0
   58.2800   30.3906   53.5832 H   0  0  0  0  0  0  0  0  0  0  0  0
   56.6510   31.3900   52.5540 C   0  0  0  0  0  0  0  0  0  0  0  0
   57.4060   32.6800   52.3800 C   0  0  0  0  0  0  0  0  0  0  0  0
   56.8511   33.3335   51.6908 H   0  0  0  0  0  0  0  0  0  0  0  0
   57.5114   33.1644   53.3619 H   0  0  0  0  0  0  0  0  0  0  0  0
   58.7480   32.4250   51.8300 N   0  0  0  0  0  0  0  0  0  0  0  0
   58.8450   31.9730   50.4750 C   0  0  0  0  0  0  0  0  0  0  0  0
   58.4590   30.8120   50.1810 O   0  0  0  0  0  0  0  0  0  0  0  0
   59.4130   32.8700   49.4120 C   0  0  2  0  0  0  0  0  0  0  0  0
   58.9101   33.8450   49.4928 H   0  0  0  0  0  0  0  0  0  0  0  0
   59.1840   32.2950   48.0830 N   0  0  0  0  0  0  0  0  0  0  0  0
   60.3460   31.0650   47.6760 S   0  0  0  0  0  0  0  0  0  0  0  0
   61.4810   31.6500   46.8830 O   0  0  0  0  0  0  0  0  0  0  0  0
   60.9070   30.4850   48.9430 O   0  0  0  0  0  0  0  0  0  0  0  0
   59.5660   29.7700   46.7720 C   0  0  0  0  0  0  0  0  0  0  0  0
   58.2020   29.8320   46.4610 C   0  0  0  0  0  0  0  0  0  0  0  0
   57.6074   30.7036   46.7722 H   0  0  0  0  0  0  0  0  0  0  0  0
   57.5940   28.7890   45.7560 C   0  0  0  0  0  0  0  0  0  0  0  0
   56.5201   28.8387   45.5229 H   0  0  0  0  0  0  0  0  0  0  0  0
   58.3480   27.6780   45.3440 C   0  0  0  0  0  0  0  0  0  0  0  0
   57.6950   26.5440   44.6000 C   0  0  0  0  0  0  0  0  0  0  0  0
   56.8970   26.9443   43.9574 H   0  0  0  0  0  0  0  0  0  0  0  0
   58.4544   26.0352   43.9881 H   0  0  0  0  0  0  0  0  0  0  0  0
   57.1050   25.5560   45.5630 C   0  0  0  0  0  0  0  0  0  0  0  0
   55.8880   25.6440   46.2090 C   0  0  0  0  0  0  0  0  0  0  0  0
   54.9610   26.6640   46.0260 O   0  0  0  0  0  0  0  0  0  0  0  0
   55.6980   24.6150   47.0590 N   0  0  0  0  0  0  0  0  0  0  0  0
   56.8210   23.8760   46.9460 C   0  0  0  0  0  0  0  0  0  0  0  0
   57.0390   22.7040   47.6610 O   0  0  0  0  0  0  0  0  0  0  0  0
   56.3030   22.0170   47.7550 H   0  0  0  0  0  0  0  0  0  0  0  0
   57.7150   24.4170   46.0440 C   0  0  0  0  0  0  0  0  0  0  0  0
   58.7041   24.0230   45.7677 H   0  0  0  0  0  0  0  0  0  0  0  0
   59.7190   27.6290   45.6430 C   0  0  0  0  0  0  0  0  0  0  0  0
   60.3211   26.7691   45.3144 H   0  0  0  0  0  0  0  0  0  0  0  0
   60.3210   28.6680   46.3560 C   0  0  0  0  0  0  0  0  0  0  0  0
   61.3944   28.6197   46.5918 H   0  0  0  0  0  0  0  0  0  0  0  0
   60.9240   33.0460   49.6060 C   0  0  0  0  0  0  0  0  0  0  0  0
   61.3848   32.0545   49.7270 H   0  0  0  0  0  0  0  0  0  0  0  0
   61.3230   33.5638   48.7213 H   0  0  0  0  0  0  0  0  0  0  0  0
   61.2480   33.8980   50.8420 C   0  0  0  0  0  0  0  0  0  0  0  0
   62.2802   34.2649   50.7426 H   0  0  0  0  0  0  0  0  0  0  0  0
   60.4989   34.7032   50.8656 H   0  0  0  0  0  0  0  0  0  0  0  0
   61.1320   33.1700   52.1720 C   0  0  0  0  0  0  0  0  0  0  0  0
   62.2580   33.2210   53.0170 C   0  0  0  0  0  0  0  0  0  0  0  0
   63.1749   33.7179   52.6673 H   0  0  0  0  0  0  0  0  0  0  0  0
   62.2290   32.6520   54.2890 C   0  0  0  0  0  0  0  0  0  0  0  0
   63.1263   32.6827   54.9246 H   0  0  0  0  0  0  0  0  0  0  0  0
   61.0690   32.0460   54.7560 C   0  0  0  0  0  0  0  0  0  0  0  0
   61.0462   31.6042   55.7631 H   0  0  0  0  0  0  0  0  0  0  0  0
   59.9330   31.9980   53.9470 C   0  0  0  0  0  0  0  0  0  0  0  0
   59.0141   31.5333   54.3339 H   0  0  0  0  0  0  0  0  0  0  0  0
   59.9410   32.5340   52.6430 C   0  0  0  0  0  0  0  0  0  0  0  0
   55.3370   31.2630   52.0700 C   0  0  0  0  0  0  0  0  0  0  0  0
   54.8579   32.1165   51.5680 H   0  0  0  0  0  0  0  0  0  0  0  0
   52.7450   30.8170   50.7140 N   0  0  0  0  0  0  0  0  0  0  0  0
   51.7560   30.7480   50.3870 H   0  0  0  0  0  0  0  0  0  0  0  0
   53.3750   31.5050   50.2460 H   0  0  0  0  0  0  0  0  0  0  0  0
  1  2  1  0
  2  3  2  0
  3  4  1  0
  4  5  2  0
  5  6  1  0
  5  7  1  0
  7  8  1  0
  7  9  2  0
  9 10  1  0
  9 11  1  0
 11 12  1  0
 12 13  1  0
 12 14  1  0
 12 15  1  0
 15 16  1  0
 16 17  2  0
 16 18  1  0
 18 19  1  6
 18 20  1  0
 20 21  1  0
 21 22  2  0
 21 23  2  0
 21 24  1  0
 24 25  2  0
 25 26  1  0
 25 27  1  0
 27 28  1  0
 27 29  2  0
 29 30  1  0
 30 31  1  0
 30 32  1  0
 30 33  1  0
 33 34  2  0
 34 35  1  0
 34 36  1  0
 36 37  1  0
 37 38  1  0
 38 39  1  0
 37 40  2  0
 40 41  1  0
 29 42  1  0
 42 43  1  0
 42 44  2  0
 44 45  1  0
 18 46  1  0
 46 47  1  0
 46 48  1  0
 46 49  1  0
 49 50  1  0
 49 51  1  0
 49 52  1  0
 52 53  2  0
 53 54  1  0
 53 55  1  0
 55 56  1  0
 55 57  2  0
 57 58  1  0
 57 59  1  0
 59 60  1  0
 59 61  2  0
 11 62  2  0
 62 63  1  0
  3 64  1  0
 64 65  1  0
 64 66  1  0
 62  4  1  0
 61 15  1  0
 44 24  1  0
 61 52  1  0
 40 33  1  0
M  CHG  3  20  -1  35  -1  36  -1
M  END
>  <UniqueID>  (23) 
23

>  <SMILES>  (23) 
[H]/N=C(/N)c1cccc(CN2C(=O)[C@H]([N-]S(=O)(=O)c3ccc(Cc4cc(O)[n-]c4[O-])cc3)CCc3ccccc32)c1

>  <Energy>  (23) 
109.77702065751144

>  <Genealogy>  (23) 
N=C(N)c1cccc(CN2C(=O)C([N-]S(=O)(=O)c3ccc(Cc4cc(O)[n-]c4[O-])cc3)CCc3ccccc32)c1 (protonated)
N=C(N)c1cccc(CN2C(=O)[C@H]([N-]S(=O)(=O)c3ccc(Cc4cc(O)[n-]c4[O-])cc3)CCc3ccccc32)c1 (chirality)
[H]/N=C(/N)c1cccc(CN2C(=O)[C@H]([N-]S(=O)(=O)c3ccc(Cc4cc(O)[n-]c4[O-])cc3)CCc3ccccc32)c1 (cis-trans isomerization)
[H]/N=C(/N)c1cccc(CN2C(=O)[C@H]([N-]S(=O)(=O)c3ccc(Cc4cc(O)[n-]c4[O-])cc3)CCc3ccccc32)c1 (3D coordinates assigned)
[H]/N=C(/N)c1cccc(CN2C(=O)[C@H]([N-]S(=O)(=O)c3ccc(Cc4cc(O)[n-]c4[O-])cc3)CCc3ccccc32)c1 (nonaromatic ring conformer: 109.77702065751144 kcal/mol)

>  <smiles>  (23) 
N=C(N)c1cccc(CN2C(=O)C(NS(=O)(=O)c3ccc(Cc4cc(O)[nH]c4O)cc3)CCc3ccccc32)c1

>  <score_type>  (23) 
oracle

>  <origin>  (23) 
adg

>  <m_score__min__energy>  (23) 
-17.73

>  <m_primary>  (23) 
energy

$$$$
23:0
     RDKit          3D

 57 61  0  0  0  0  0  0  0  0999 V2000
   54.8180   26.3220   46.7590 H   0  0  0  0  0  0  0  0  0  0  0  0
   55.4060   25.7920   46.1290 O   0  0  0  0  0  0  0  0  0  0  0  0
   56.2000   24.7450   46.5890 C   0  0  0  0  0  0  0  0  0  0  0  0
   55.7980   23.8620   47.5190 N   0  0  0  0  0  0  0  0  0  0  0  0
   56.8770   23.0630   47.6590 C   0  0  0  0  0  0  0  0  0  0  0  0
   56.9020   22.0920   48.4590 O   0  0  0  0  0  0  0  0  0  0  0  0
   57.9300   23.3880   46.8780 N   0  0  0  0  0  0  0  0  0  0  0  0
   57.4820   24.4500   46.1800 C   0  0  0  0  0  0  0  0  0  0  0  0
   58.3150   25.2590   45.2730 C   0  0  0  0  0  0  0  0  0  0  0  0
   58.8977   24.7223   44.5099 H   0  0  0  0  0  0  0  0  0  0  0  0
   58.4220   26.6020   45.3010 C   0  0  0  0  0  0  0  0  0  0  0  0
   57.3920   27.4390   44.9190 C   0  0  0  0  0  0  0  0  0  0  0  0
   56.4303   27.1334   44.4811 H   0  0  0  0  0  0  0  0  0  0  0  0
   57.7960   28.7320   45.1900 C   0  0  0  0  0  0  0  0  0  0  0  0
   56.9720   29.9410   44.9520 C   0  0  0  0  0  0  0  0  0  0  0  0
   55.7210   29.8390   44.8660 O   0  0  0  0  0  0  0  0  0  0  0  0
   57.5640   31.2450   44.8930 N   0  0  0  0  0  0  0  0  0  0  0  0
   58.4700   31.6260   43.8100 C   0  0  0  0  0  0  0  0  0  0  0  0
   59.5097   31.5367   44.1578 H   0  0  0  0  0  0  0  0  0  0  0  0
   58.3026   30.9596   42.9510 H   0  0  0  0  0  0  0  0  0  0  0  0
   58.2020   33.0760   43.3790 C   0  0  0  0  0  0  0  0  0  0  0  0
   59.0081   33.3970   42.7028 H   0  0  0  0  0  0  0  0  0  0  0  0
   57.2210   33.0992   42.8819 H   0  0  0  0  0  0  0  0  0  0  0  0
   58.1450   34.0090   44.5230 N   0  0  0  0  0  0  0  0  0  0  0  0
   59.4750   34.2230   45.1200 C   0  0  0  0  0  0  0  0  0  0  0  0
   60.0426   33.5563   44.4541 H   0  0  0  0  0  0  0  0  0  0  0  0
   59.6700   35.6310   45.6670 C   0  0  0  0  0  0  0  0  0  0  0  0
   60.6596   36.1087   45.6161 H   0  0  0  0  0  0  0  0  0  0  0  0
   59.1906   36.6059   45.4945 H   0  0  0  0  0  0  0  0  0  0  0  0
   59.4340   34.4700   46.6210 C   0  0  0  0  0  0  0  0  0  0  0  0
   60.2529   34.1085   47.2603 H   0  0  0  0  0  0  0  0  0  0  0  0
   58.7130   34.2581   47.4243 H   0  0  0  0  0  0  0  0  0  0  0  0
   57.1540   33.5790   45.5310 C   0  0  0  0  0  0  0  0  0  0  0  0
   57.2010   34.2670   46.3880 H   0  0  0  0  0  0  0  0  0  0  0  0
   56.1630   33.5950   45.0539 H   0  0  0  0  0  0  0  0  0  0  0  0
   57.4080   32.1500   46.0320 C   0  0  0  0  0  0  0  0  0  0  0  0
   58.3249   32.1337   46.6394 H   0  0  0  0  0  0  0  0  0  0  0  0
   56.5532   31.8219   46.6417 H   0  0  0  0  0  0  0  0  0  0  0  0
   59.0640   28.7340   45.6810 N   0  0  0  0  0  0  0  0  0  0  0  0
   59.8550   29.9360   46.0110 C   0  0  0  0  0  0  0  0  0  0  0  0
   60.9245   29.7009   45.9068 H   0  0  0  0  0  0  0  0  0  0  0  0
   59.5649   30.7426   45.3216 H   0  0  0  0  0  0  0  0  0  0  0  0
   59.5880   30.3980   47.4250 C   0  0  0  0  0  0  0  0  0  0  0  0
   60.1040   31.6230   47.8810 C   0  0  0  0  0  0  0  0  0  0  0  0
   60.6825   32.2603   47.1960 H   0  0  0  0  0  0  0  0  0  0  0  0
   59.8880   32.0380   49.1980 C   0  0  0  0  0  0  0  0  0  0  0  0
   60.2795   33.0073   49.5403 H   0  0  0  0  0  0  0  0  0  0  0  0
   59.1740   31.2210   50.0810 C   0  0  0  0  0  0  0  0  0  0  0  0
   58.9130   31.7360   51.7380 Cl  0  0  0  0  0  0  0  0  0  0  0  0
   58.6740   29.9900   49.6430 C   0  0  0  0  0  0  0  0  0  0  0  0
   58.1162   29.3453   50.3381 H   0  0  0  0  0  0  0  0  0  0  0  0
   58.8820   29.5780   48.3240 C   0  0  0  0  0  0  0  0  0  0  0  0
   58.4913   28.6066   47.9866 H   0  0  0  0  0  0  0  0  0  0  0  0
   59.4720   27.4340   45.7190 C   0  0  0  0  0  0  0  0  0  0  0  0
   60.7340   27.0490   45.9660 C   0  0  0  0  0  0  0  0  0  0  0  0
   61.4810   27.7883   46.2906 H   0  0  0  0  0  0  0  0  0  0  0  0
   61.0211   25.9942   45.8438 H   0  0  0  0  0  0  0  0  0  0  0  0
  1  2  1  0
  2  3  1  0
  3  4  1  0
  4  5  1  0
  5  6  2  0
  5  7  1  0
  7  8  1  0
  8  9  1  0
  9 10  1  0
  9 11  2  0
 11 12  1  0
 12 13  1  0
 12 14  2  0
 14 15  1  0
 15 16  2  0
 15 17  1  0
 17 18  1  0
 18 19  1  0
 18 20  1  0
 18 21  1  0
 21 22  1  0
 21 23  1  0
 21 24  1  0
 24 25  1  0
 25 26  1  0
 25 27  1  0
 27 28  1  0
 27 29  1  0
 27 30  1  0
 30 31  1  0
 30 32  1  0
 24 33  1  0
 33 34  1  0
 33 35  1  0
 33 36  1  0
 36 37  1  0
 36 38  1  0
 14 39  1  0
 39 40  1  0
 40 41  1  0
 40 42  1  0
 40 43  1  0
 43 44  2  0
 44 45  1  0
 44 46  1  0
 46 47  1  0
 46 48  2  0
 48 49  1  0
 48 50  1  0
 50 51  1  0
 50 52  2  0
 52 53  1  0
 39 54  1  0
 54 55  2  0
 55 56  1  0
 55 57  1  0
  8  3  2  0
 54 11  1  0
 36 17  1  0
 52 43  1  0
 30 25  1  0
M  CHG  2   4  -1   7  -1
M  END
>  <UniqueID>  (24) 
24

>  <SMILES>  (24) 
C=c1/c(=C\c2[n-]c(=O)[n-]c2O)cc(C(=O)N2CCN(C3CC3)CC2)n1Cc1ccc(Cl)cc1

>  <Energy>  (24) 
405.7495871257093

>  <Genealogy>  (24) 
C=c1c(=Cc2[n-]c(=O)[n-]c2O)cc(C(=O)N2CCN(C3CC3)CC2)n1Cc1ccc(Cl)cc1 (protonated)
C=c1/c(=C\c2[n-]c(=O)[n-]c2O)cc(C(=O)N2CCN(C3CC3)CC2)n1Cc1ccc(Cl)cc1 (cis-trans isomerization)
C=c1/c(=C\c2[n-]c(=O)[n-]c2O)cc(C(=O)N2CCN(C3CC3)CC2)n1Cc1ccc(Cl)cc1 (3D coordinates assigned)
C=c1/c(=C\c2[n-]c(=O)[n-]c2O)cc(C(=O)N2CCN(C3CC3)CC2)n1Cc1ccc(Cl)cc1 (nonaromatic ring conformer: 405.7495871257093 kcal/mol)

>  <smiles>  (24) 
C=c1c(=Cc2[nH]c(=O)[nH]c2O)cc(C(=O)N2CCN(C3CC3)CC2)n1Cc1ccc(Cl)cc1

>  <score_type>  (24) 
oracle

>  <origin>  (24) 
adg

>  <m_score__min__energy>  (24) 
-13.52

>  <m_primary>  (24) 
energy

$$$$
24:0
     RDKit          3D

 39 42  0  0  1  0  0  0  0  0999 V2000
   58.4100   28.4800   44.1220 C   0  0  0  0  0  0  0  0  0  0  0  0
   58.4470   29.3680   45.0890 C   0  0  0  0  0  0  0  0  0  0  0  0
   58.7090   28.9990   46.4740 C   0  0  0  0  0  0  0  0  0  0  0  0
   58.9400   27.6030   46.8150 C   0  0  0  0  0  0  0  0  0  0  0  0
   59.1320   26.4940   47.1010 N   0  0  0  0  0  0  0  0  0  0  0  0
   58.7460   29.9110   47.4620 C   0  0  0  0  0  0  0  0  0  0  0  0
   58.9990   29.5130   48.7620 O   0  0  0  0  0  0  0  0  0  0  0  0
   58.5260   31.3010   47.1940 N   0  0  0  0  0  0  0  0  0  0  0  0
   58.5180   32.4480   48.0350 C   0  0  0  0  0  0  0  0  0  0  0  0
   58.2130   33.6110   47.1380 C   0  0  1  0  0  0  0  0  0  0  0  0
   59.2580   34.6810   47.1060 C   0  0  0  0  0  0  0  0  0  0  0  0
   60.6160   34.2290   47.3520 C   0  0  0  0  0  0  0  0  0  0  0  0
   61.0680   34.2150   48.6770 C   0  0  0  0  0  0  0  0  0  0  0  0
   62.3480   33.8140   49.0020 C   0  0  0  0  0  0  0  0  0  0  0  0
   63.2470   33.4060   48.0350 C   0  0  0  0  0  0  0  0  0  0  0  0
   62.8080   33.4190   46.7290 C   0  0  0  0  0  0  0  0  0  0  0  0
   61.5280   33.8200   46.4090 C   0  0  0  0  0  0  0  0  0  0  0  0
   58.0920   32.9960   45.7970 C   0  0  0  0  0  0  0  0  0  0  0  0
   57.8270   33.5150   44.5150 C   0  0  0  0  0  0  0  0  0  0  0  0
   57.7700   32.6400   43.4210 C   0  0  0  0  0  0  0  0  0  0  0  0
   57.9630   31.2820   43.5560 C   0  0  0  0  0  0  0  0  0  0  0  0
   58.2230   30.7810   44.8130 C   0  0  0  0  0  0  0  0  0  0  0  0
   58.2740   31.6480   45.8530 C   0  0  0  0  0  0  0  0  0  0  0  0
   58.2089   28.7999   43.0889 H   0  0  0  0  0  0  0  0  0  0  0  0
   58.5801   27.4164   44.3452 H   0  0  0  0  0  0  0  0  0  0  0  0
   59.1690   28.5540   49.0310 H   0  0  0  0  0  0  0  0  0  0  0  0
   57.7440   32.3490   48.8103 H   0  0  0  0  0  0  0  0  0  0  0  0
   59.4802   32.5773   48.5522 H   0  0  0  0  0  0  0  0  0  0  0  0
   57.3141   34.1322   47.4990 H   0  0  0  0  0  0  0  0  0  0  0  0
   59.2314   35.1526   46.1126 H   0  0  0  0  0  0  0  0  0  0  0  0
   59.0131   35.3704   47.9275 H   0  0  0  0  0  0  0  0  0  0  0  0
   60.3855   34.5317   49.4795 H   0  0  0  0  0  0  0  0  0  0  0  0
   62.6603   33.8193   50.0567 H   0  0  0  0  0  0  0  0  0  0  0  0
   64.2664   33.0855   48.2960 H   0  0  0  0  0  0  0  0  0  0  0  0
   63.4913   33.1036   45.9267 H   0  0  0  0  0  0  0  0  0  0  0  0
   61.2235   33.8121   45.3520 H   0  0  0  0  0  0  0  0  0  0  0  0
   57.6666   34.5940   44.3736 H   0  0  0  0  0  0  0  0  0  0  0  0
   57.5644   33.0510   42.4216 H   0  0  0  0  0  0  0  0  0  0  0  0
   57.9108   30.6152   42.6827 H   0  0  0  0  0  0  0  0  0  0  0  0
  1  2  2  0
  2  3  1  0
  3  4  1  0
  4  5  3  0
  3  6  2  0
  6  7  1  0
  6  8  1  0
  8  9  1  0
  9 10  1  0
 10 11  1  0
 11 12  1  0
 12 13  2  0
 13 14  1  0
 14 15  2  0
 15 16  1  0
 16 17  2  0
 10 18  1  0
 18 19  1  0
 19 20  2  0
 20 21  1  0
 21 22  2  0
 22 23  1  0
 22  2  1  0
 23  8  1  0
 17 12  1  0
 23 18  2  0
  1 24  1  0
  1 25  1  0
  7 26  1  0
  9 27  1  0
  9 28  1  0
 10 29  1  1
 11 30  1  0
 11 31  1  0
 13 32  1  0
 14 33  1  0
 15 34  1  0
 16 35  1  0
 17 36  1  0
 19 37  1  0
 20 38  1  0
 21 39  1  0
M  END
>  <smiles>  (25) 
C=C1C(C#N)=C(O)N2CC(Cc3ccccc3)c3cccc1c32

>  <score_type>  (25) 
oracle

>  <origin>  (25) 
adg

>  <m_score__min__energy>  (25) 
-8.6899999999999995

>  <m_primary>  (25) 
energy

$$$$
25:0
     RDKit          3D

 61 64  0  0  0  0  0  0  0  0999 V2000
   55.5670   29.0670   45.0230 O   0  0  0  0  0  0  0  0  0  0  0  0
   56.6590   28.7440   45.5620 C   0  0  0  0  0  0  0  0  0  0  0  0
   57.8300   29.6760   45.4770 C   0  0  0  0  0  0  0  0  0  0  0  0
   58.8670   29.1900   44.4530 C   0  0  0  0  0  0  0  0  0  0  0  0
   60.2680   29.0920   45.0150 C   0  0  0  0  0  0  0  0  0  0  0  0
   61.2180   28.7590   44.2520 O   0  0  0  0  0  0  0  0  0  0  0  0
   60.5460   29.3140   46.4580 C   0  0  0  0  0  0  0  0  0  0  0  0
   60.0750   28.3940   47.4130 C   0  0  0  0  0  0  0  0  0  0  0  0
   60.2980   28.6050   48.7760 C   0  0  0  0  0  0  0  0  0  0  0  0
   60.9870   29.7500   49.2130 C   0  0  0  0  0  0  0  0  0  0  0  0
   61.1790   30.0450   50.5720 O   0  0  0  0  0  0  0  0  0  0  0  0
   60.1480   30.1400   51.5560 C   0  0  0  0  0  0  0  0  0  0  0  0
   59.8410   31.5800   51.9230 C   0  0  0  0  0  0  0  0  0  0  0  0
   60.2570   32.0560   53.1790 C   0  0  0  0  0  0  0  0  0  0  0  0
   59.9790   33.3680   53.5710 C   0  0  0  0  0  0  0  0  0  0  0  0
   59.2900   34.2230   52.7130 C   0  0  0  0  0  0  0  0  0  0  0  0
   58.8870   33.7760   51.4550 C   0  0  0  0  0  0  0  0  0  0  0  0
   59.1620   32.4610   51.0430 C   0  0  0  0  0  0  0  0  0  0  0  0
   58.7250   32.0370   49.6960 C   0  0  0  0  0  0  0  0  0  0  0  0
   58.1650   30.9150   49.5710 O   0  0  0  0  0  0  0  0  0  0  0  0
   58.9020   32.9110   48.5060 C   0  0  0  0  0  0  0  0  0  0  0  0
   59.9910   33.8000   48.4400 C   0  0  0  0  0  0  0  0  0  0  0  0
   60.1990   34.5870   47.3020 C   0  0  0  0  0  0  0  0  0  0  0  0
   59.3280   34.4910   46.2160 C   0  0  0  0  0  0  0  0  0  0  0  0
   58.2430   33.6120   46.2660 C   0  0  0  0  0  0  0  0  0  0  0  0
   58.0270   32.8290   47.4030 C   0  0  0  0  0  0  0  0  0  0  0  0
   61.4810   30.6510   48.2660 C   0  0  0  0  0  0  0  0  0  0  0  0
   61.2550   30.4450   46.9020 C   0  0  0  0  0  0  0  0  0  0  0  0
   56.8220   27.4610   46.1820 N   0  0  0  0  0  0  0  0  0  0  0  0
   56.6480   26.1800   45.5600 C   0  0  0  0  0  0  0  0  0  0  0  0
   55.5330   25.4110   45.9090 C   0  0  0  0  0  0  0  0  0  0  0  0
   55.3180   24.1620   45.3180 C   0  0  0  0  0  0  0  0  0  0  0  0
   56.2110   23.6670   44.3530 C   0  0  0  0  0  0  0  0  0  0  0  0
   55.9850   22.3420   43.7330 C   0  0  0  0  0  0  0  0  0  0  0  0
   55.8800   21.3090   44.4480 O   0  0  0  0  0  0  0  0  0  0  0  0
   55.8770   22.2200   42.3540 O   0  0  0  0  0  0  0  0  0  0  0  0
   57.3170   24.4530   43.9830 C   0  0  0  0  0  0  0  0  0  0  0  0
   57.5300   25.7010   44.5750 C   0  0  0  0  0  0  0  0  0  0  0  0
   57.4723   30.6721   45.1774 H   0  0  0  0  0  0  0  0  0  0  0  0
   58.3129   29.7124   46.4647 H   0  0  0  0  0  0  0  0  0  0  0  0
   58.5643   28.1945   44.0962 H   0  0  0  0  0  0  0  0  0  0  0  0
   58.8943   29.9326   43.6419 H   0  0  0  0  0  0  0  0  0  0  0  0
   59.5258   27.4998   47.0831 H   0  0  0  0  0  0  0  0  0  0  0  0
   59.9329   27.8720   49.5105 H   0  0  0  0  0  0  0  0  0  0  0  0
   59.2347   29.6725   51.1593 H   0  0  0  0  0  0  0  0  0  0  0  0
   60.4972   29.6259   52.4636 H   0  0  0  0  0  0  0  0  0  0  0  0
   60.8066   31.3890   53.8595 H   0  0  0  0  0  0  0  0  0  0  0  0
   60.3046   33.7266   54.5586 H   0  0  0  0  0  0  0  0  0  0  0  0
   59.0636   35.2522   53.0285 H   0  0  0  0  0  0  0  0  0  0  0  0
   58.3496   34.4582   50.7799 H   0  0  0  0  0  0  0  0  0  0  0  0
   60.6846   33.8768   49.2903 H   0  0  0  0  0  0  0  0  0  0  0  0
   61.0504   35.2824   47.2633 H   0  0  0  0  0  0  0  0  0  0  0  0
   59.4956   35.1074   45.3205 H   0  0  0  0  0  0  0  0  0  0  0  0
   57.5577   33.5363   45.4089 H   0  0  0  0  0  0  0  0  0  0  0  0
   57.1677   32.1432   47.4380 H   0  0  0  0  0  0  0  0  0  0  0  0
   62.0529   31.5304   48.5969 H   0  0  0  0  0  0  0  0  0  0  0  0
   61.6346   31.1731   46.1700 H   0  0  0  0  0  0  0  0  0  0  0  0
   54.8194   25.7918   46.6545 H   0  0  0  0  0  0  0  0  0  0  0  0
   54.4433   23.5627   45.6108 H   0  0  0  0  0  0  0  0  0  0  0  0
   58.0197   24.0827   43.2220 H   0  0  0  0  0  0  0  0  0  0  0  0
   58.3921   26.3118   44.2688 H   0  0  0  0  0  0  0  0  0  0  0  0
  1  2  2  0
  2  3  1  0
  3  4  1  0
  4  5  1  0
  5  6  2  0
  5  7  1  0
  7  8  2  0
  8  9  1  0
  9 10  2  0
 10 11  1  0
 11 12  1  0
 12 13  1  0
 13 14  2  0
 14 15  1  0
 15 16  2  0
 16 17  1  0
 17 18  2  0
 18 19  1  0
 19 20  2  0
 19 21  1  0
 21 22  2  0
 22 23  1  0
 23 24  2  0
 24 25  1  0
 25 26  2  0
 10 27  1  0
 27 28  2  0
  2 29  1  0
 29 30  1  0
 30 31  2  0
 31 32  1  0
 32 33  2  0
 33 34  1  0
 34 35  2  0
 34 36  1  0
 33 37  1  0
 37 38  2  0
 28  7  1  0
 38 30  1  0
 18 13  1  0
 26 21  1  0
  3 39  1  0
  3 40  1  0
  4 41  1  0
  4 42  1  0
  8 43  1  0
  9 44  1  0
 12 45  1  0
 12 46  1  0
 14 47  1  0
 15 48  1  0
 16 49  1  0
 17 50  1  0
 22 51  1  0
 23 52  1  0
 24 53  1  0
 25 54  1  0
 26 55  1  0
 27 56  1  0
 28 57  1  0
 31 58  1  0
 32 59  1  0
 37 60  1  0
 38 61  1  0
M  CHG  2  29  -1  36  -1
M  END
>  <UniqueID>  (26) 
25

>  <SMILES>  (26) 
O=C(CCC(=O)c1ccc(OCc2ccccc2C(=O)c2ccccc2)cc1)[N-]c1ccc(C(=O)[O-])cc1

>  <Energy>  (26) 
75.38969432038911

>  <Genealogy>  (26) 
O=C(CCC(=O)c1ccc(OCc2ccccc2C(=O)c2ccccc2)cc1)[N-]c1ccc(C(=O)[O-])cc1 (protonated)
O=C(CCC(=O)c1ccc(OCc2ccccc2C(=O)c2ccccc2)cc1)[N-]c1ccc(C(=O)[O-])cc1 (3D coordinates assigned)
O=C(CCC(=O)c1ccc(OCc2ccccc2C(=O)c2ccccc2)cc1)[N-]c1ccc(C(=O)[O-])cc1 (optimized conformer: 75.38969432038911 kcal/mol)

>  <smiles>  (26) 
O=C(CCC(=O)c1ccc(OCc2ccccc2C(=O)c2ccccc2)cc1)Nc1ccc(C(=O)O)cc1

>  <score_type>  (26) 
oracle

>  <origin>  (26) 
adg

>  <m_score__min__energy>  (26) 
-14.279999999999999

>  <m_primary>  (26) 
energy

$$$$
26:0
     RDKit          3D

 43 45  0  0  0  0  0  0  0  0999 V2000
   60.8940   27.8460   46.8870 H   0  0  0  0  0  0  0  0  0  0  0  0
   60.4980   28.6860   46.4820 O   0  0  0  0  0  0  0  0  0  0  0  0
   59.1800   28.7310   46.0300 C   0  0  0  0  0  0  0  0  0  0  0  0
   58.6680   29.9210   45.4900 C   0  0  0  0  0  0  0  0  0  0  0  0
   59.3235   30.7980   45.3843 H   0  0  0  0  0  0  0  0  0  0  0  0
   57.3250   30.0020   45.0830 C   0  0  0  0  0  0  0  0  0  0  0  0
   56.7660   31.2140   44.5570 N   0  0  0  0  0  0  0  0  0  0  0  0
   57.4520   32.2020   43.7750 C   0  0  0  0  0  0  0  0  0  0  0  0
   57.8740   31.9230   42.6200 O   0  0  0  0  0  0  0  0  0  0  0  0
   57.6310   33.5730   44.2850 C   0  0  0  0  0  0  0  0  0  0  0  0
   56.8137   34.2978   44.1562 H   0  0  0  0  0  0  0  0  0  0  0  0
   58.7540   33.9680   44.9000 C   0  0  0  0  0  0  0  0  0  0  0  0
   59.5440   34.4426   44.2995 H   0  0  0  0  0  0  0  0  0  0  0  0
   58.9770   33.7930   46.3530 C   0  0  0  0  0  0  0  0  0  0  0  0
   58.6640   32.5520   46.9310 C   0  0  0  0  0  0  0  0  0  0  0  0
   58.2625   31.7436   46.3023 H   0  0  0  0  0  0  0  0  0  0  0  0
   58.8580   32.3350   48.2970 C   0  0  0  0  0  0  0  0  0  0  0  0
   58.5985   31.3626   48.7410 H   0  0  0  0  0  0  0  0  0  0  0  0
   59.3810   33.3510   49.1000 C   0  0  0  0  0  0  0  0  0  0  0  0
   59.5244   33.1817   50.1774 H   0  0  0  0  0  0  0  0  0  0  0  0
   59.7220   34.5820   48.5350 C   0  0  0  0  0  0  0  0  0  0  0  0
   60.1385   35.3788   49.1687 H   0  0  0  0  0  0  0  0  0  0  0  0
   59.5360   34.8060   47.1660 C   0  0  0  0  0  0  0  0  0  0  0  0
   59.9400   36.0220   46.6250 O   0  0  0  0  0  0  0  0  0  0  0  0
   56.4870   28.8930   45.2650 C   0  0  0  0  0  0  0  0  0  0  0  0
   55.1440   28.9670   44.9130 O   0  0  0  0  0  0  0  0  0  0  0  0
   56.9960   27.7040   45.7950 C   0  0  0  0  0  0  0  0  0  0  0  0
   56.3282   26.8417   45.9382 H   0  0  0  0  0  0  0  0  0  0  0  0
   58.3460   27.6000   46.1450 C   0  0  0  0  0  0  0  0  0  0  0  0
   58.8190   26.3610   46.6910 N   0  0  0  0  0  0  0  0  0  0  0  0
   58.0070   25.2190   46.9920 C   0  0  0  0  0  0  0  0  0  0  0  0
   57.8990   24.8320   48.1880 O   0  0  0  0  0  0  0  0  0  0  0  0
   57.3390   24.4520   45.9070 C   0  0  0  0  0  0  0  0  0  0  0  0
   58.0900   23.5310   45.1480 C   0  0  0  0  0  0  0  0  0  0  0  0
   59.1586   23.3890   45.3671 H   0  0  0  0  0  0  0  0  0  0  0  0
   57.4920   22.7970   44.1210 C   0  0  0  0  0  0  0  0  0  0  0  0
   58.0913   22.0832   43.5367 H   0  0  0  0  0  0  0  0  0  0  0  0
   56.1380   22.9660   43.8340 C   0  0  0  0  0  0  0  0  0  0  0  0
   55.5460   22.2340   42.8120 O   0  0  0  0  0  0  0  0  0  0  0  0
   55.3770   23.8710   44.5760 C   0  0  0  0  0  0  0  0  0  0  0  0
   54.3091   24.0029   44.3477 H   0  0  0  0  0  0  0  0  0  0  0  0
   55.9640   24.6120   45.6090 C   0  0  0  0  0  0  0  0  0  0  0  0
   55.1630   25.4900   46.3310 O   0  0  0  0  0  0  0  0  0  0  0  0
  1  2  1  0
  2  3  1  0
  3  4  2  0
  4  5  1  0
  4  6  1  0
  6  7  1  0
  7  8  1  0
  8  9  2  0
  8 10  1  0
 10 11  1  0
 10 12  2  0
 12 13  1  0
 12 14  1  0
 14 15  2  0
 15 16  1  0
 15 17  1  0
 17 18  1  0
 17 19  2  0
 19 20  1  0
 19 21  1  0
 21 22  1  0
 21 23  2  0
 23 24  1  0
  6 25  2  0
 25 26  1  0
 25 27  1  0
 27 28  1  0
 27 29  2  0
 29 30  1  0
 30 31  1  0
 31 32  2  0
 31 33  1  0
 33 34  2  0
 34 35  1  0
 34 36  1  0
 36 37  1  0
 36 38  2  0
 38 39  1  0
 38 40  1  0
 40 41  1  0
 40 42  2  0
 42 43  1  0
 29  3  1  0
 42 33  1  0
 23 14  1  0
M  CHG  6   7  -1  24  -1  26  -1  30  -1  39  -1  43  -1
M  END
>  <UniqueID>  (27) 
26

>  <SMILES>  (27) 
O=C(/C=C/c1ccccc1[O-])[N-]c1cc(O)c([N-]C(=O)c2ccc([O-])cc2[O-])cc1[O-]

>  <Energy>  (27) 
61.927919159756385

>  <Genealogy>  (27) 
O=C(C=Cc1ccccc1[O-])[N-]c1cc(O)c([N-]C(=O)c2ccc([O-])cc2[O-])cc1[O-] (protonated)
O=C(/C=C/c1ccccc1[O-])[N-]c1cc(O)c([N-]C(=O)c2ccc([O-])cc2[O-])cc1[O-] (cis-trans isomerization)
O=C(/C=C/c1ccccc1[O-])[N-]c1cc(O)c([N-]C(=O)c2ccc([O-])cc2[O-])cc1[O-] (3D coordinates assigned)
O=C(/C=C/c1ccccc1[O-])[N-]c1cc(O)c([N-]C(=O)c2ccc([O-])cc2[O-])cc1[O-] (optimized conformer: 61.927919159756385 kcal/mol)

>  <smiles>  (27) 
O=C(C=Cc1ccccc1O)Nc1cc(O)c(NC(=O)c2ccc(O)cc2O)cc1O

>  <score_type>  (27) 
oracle

>  <origin>  (27) 
adg

>  <m_score__min__energy>  (27) 
-19.690000000000001

>  <m_primary>  (27) 
energy

$$$$
27:0
     RDKit          3D

 50 52  0  0  0  0  0  0  0  0999 V2000
   60.6700   29.9560   47.8770 C   0  0  0  0  0  0  0  0  0  0  0  0
   59.8490   29.0030   48.3280 C   0  0  0  0  0  0  0  0  0  0  0  0
   60.3440   27.6120   48.6070 C   0  0  0  0  0  0  0  0  0  0  0  0
   59.5610   26.6330   47.8620 N   0  0  0  0  0  0  0  0  0  0  0  0
   59.0870   26.8490   46.5280 C   0  0  0  0  0  0  0  0  0  0  0  0
   59.9010   27.1240   45.6050 O   0  0  0  0  0  0  0  0  0  0  0  0
   57.6560   26.6970   46.2130 C   0  0  0  0  0  0  0  0  0  0  0  0
   56.8730   25.6040   46.5200 C   0  0  0  0  0  0  0  0  0  0  0  0
   55.5930   25.8710   46.2010 N   0  0  0  0  0  0  0  0  0  0  0  0
   55.5280   27.0920   45.6910 N   0  0  0  0  0  0  0  0  0  0  0  0
   56.7680   27.6190   45.6790 C   0  0  0  0  0  0  0  0  0  0  0  0
   57.0670   28.9470   45.1090 C   0  0  0  0  0  0  0  0  0  0  0  0
   56.6220   29.2940   43.8230 C   0  0  0  0  0  0  0  0  0  0  0  0
   56.8790   30.5670   43.3080 C   0  0  0  0  0  0  0  0  0  0  0  0
   57.5670   31.5080   44.0770 C   0  0  0  0  0  0  0  0  0  0  0  0
   57.9980   31.1840   45.3710 C   0  0  0  0  0  0  0  0  0  0  0  0
   58.7140   32.2130   46.2070 C   0  0  0  0  0  0  0  0  0  0  0  0
   58.7130   33.5250   45.5420 N   0  0  0  0  0  0  0  0  0  0  0  0
   59.2420   34.6050   46.3950 C   0  0  0  0  0  0  0  0  0  0  0  0
   60.5120   34.2070   47.1090 C   0  0  0  0  0  0  0  0  0  0  0  0
   60.5720   34.2260   48.5110 C   0  0  0  0  0  0  0  0  0  0  0  0
   61.7520   33.8720   49.1720 C   0  0  0  0  0  0  0  0  0  0  0  0
   62.8800   33.4910   48.4380 C   0  0  0  0  0  0  0  0  0  0  0  0
   64.3960   33.0420   49.2870 S   0  0  0  0  0  0  0  0  0  0  0  0
   63.6550   31.5920   50.1000 C   0  0  0  0  0  0  0  0  0  0  0  0
   62.8280   33.4690   47.0400 C   0  0  0  0  0  0  0  0  0  0  0  0
   61.6490   33.8210   46.3780 C   0  0  0  0  0  0  0  0  0  0  0  0
   57.7410   29.9020   45.8850 C   0  0  0  0  0  0  0  0  0  0  0  0
   60.2836   30.9669   47.6802 H   0  0  0  0  0  0  0  0  0  0  0  0
   61.7322   29.7296   47.7025 H   0  0  0  0  0  0  0  0  0  0  0  0
   58.7889   29.2418   48.4985 H   0  0  0  0  0  0  0  0  0  0  0  0
   61.3994   27.5361   48.3064 H   0  0  0  0  0  0  0  0  0  0  0  0
   60.2408   27.4064   49.6827 H   0  0  0  0  0  0  0  0  0  0  0  0
   57.2372   24.6624   46.9567 H   0  0  0  0  0  0  0  0  0  0  0  0
   56.0686   28.5602   43.2185 H   0  0  0  0  0  0  0  0  0  0  0  0
   56.5389   30.8285   42.2951 H   0  0  0  0  0  0  0  0  0  0  0  0
   57.7716   32.5075   43.6657 H   0  0  0  0  0  0  0  0  0  0  0  0
   58.2077   32.3021   47.1795 H   0  0  0  0  0  0  0  0  0  0  0  0
   59.7566   31.8900   46.3438 H   0  0  0  0  0  0  0  0  0  0  0  0
   59.2930   33.4570   44.6730 H   0  0  0  0  0  0  0  0  0  0  0  0
   59.4513   35.4820   45.7649 H   0  0  0  0  0  0  0  0  0  0  0  0
   58.4840   34.8290   47.1600 H   0  0  0  0  0  0  0  0  0  0  0  0
   59.6862   34.5209   49.0927 H   0  0  0  0  0  0  0  0  0  0  0  0
   61.7934   33.8931   50.2710 H   0  0  0  0  0  0  0  0  0  0  0  0
   63.7165   31.7124   51.1917 H   0  0  0  0  0  0  0  0  0  0  0  0
   62.6005   31.5023   49.7999 H   0  0  0  0  0  0  0  0  0  0  0  0
   64.2001   30.6849   49.7999 H   0  0  0  0  0  0  0  0  0  0  0  0
   63.7161   33.1743   46.4616 H   0  0  0  0  0  0  0  0  0  0  0  0
   61.6103   33.7959   45.2790 H   0  0  0  0  0  0  0  0  0  0  0  0
   58.0704   29.6453   46.9026 H   0  0  0  0  0  0  0  0  0  0  0  0
  1  2  2  0
  2  3  1  0
  3  4  1  0
  4  5  1  0
  5  6  2  0
  5  7  1  0
  7  8  1  0
  8  9  2  0
  9 10  1  0
 10 11  1  0
 11 12  1  0
 12 13  2  0
 13 14  1  0
 14 15  2  0
 15 16  1  0
 16 17  1  0
 17 18  1  0
 18 19  1  0
 19 20  1  0
 20 21  2  0
 21 22  1  0
 22 23  2  0
 23 24  1  0
 24 25  1  0
 23 26  1  0
 26 27  2  0
 16 28  2  0
 11  7  2  0
 28 12  1  0
 27 20  1  0
  1 29  1  0
  1 30  1  0
  2 31  1  0
  3 32  1  0
  3 33  1  0
  8 34  1  0
 13 35  1  0
 14 36  1  0
 15 37  1  0
 17 38  1  0
 17 39  1  0
 18 40  1  0
 19 41  1  0
 19 42  1  0
 21 43  1  0
 22 44  1  0
 25 45  1  0
 25 46  1  0
 25 47  1  0
 26 48  1  0
 27 49  1  0
 28 50  1  0
M  CHG  2   4  -1  10  -1
M  END
>  <UniqueID>  (28) 
27

>  <SMILES>  (28) 
C=CC[N-]C(=O)c1cn[n-]c1-c1cccc(CNCc2ccc(SC)cc2)c1

>  <Energy>  (28) 
76.55805250009911

>  <Genealogy>  (28) 
C=CC[N-]C(=O)c1cn[n-]c1-c1cccc(CNCc2ccc(SC)cc2)c1 (protonated)
C=CC[N-]C(=O)c1cn[n-]c1-c1cccc(CNCc2ccc(SC)cc2)c1 (3D coordinates assigned)
C=CC[N-]C(=O)c1cn[n-]c1-c1cccc(CNCc2ccc(SC)cc2)c1 (optimized conformer: 76.55805250009911 kcal/mol)

>  <smiles>  (28) 
C=CCNC(=O)c1cn[nH]c1-c1cccc(CNCc2ccc(SC)cc2)c1

>  <score_type>  (28) 
oracle

>  <origin>  (28) 
adg

>  <m_score__min__energy>  (28) 
-13.19

>  <m_primary>  (28) 
energy

$$$$
28:0
     RDKit          3D

 73 78  0  0  0  0  0  0  0  0999 V2000
   55.2810   29.3030   44.8180 N   0  0  0  0  0  0  0  0  0  0  0  0
   56.5510   29.8830   44.5360 C   0  0  0  0  0  0  0  0  0  0  0  0
   56.9170   30.0110   43.3380 O   0  0  0  0  0  0  0  0  0  0  0  0
   57.4180   30.3220   45.6450 C   0  0  0  0  0  0  0  0  0  0  0  0
   57.6810   31.6260   45.9160 N   0  0  0  0  0  0  0  0  0  0  0  0
   58.4960   31.7030   46.9610 N   0  0  0  0  0  0  0  0  0  0  0  0
   59.0560   32.9430   47.4950 C   0  0  0  0  0  0  0  0  0  0  0  0
   59.0110   32.9210   48.9990 C   0  0  0  0  0  0  0  0  0  0  0  0
   58.0980   32.0830   49.6640 C   0  0  0  0  0  0  0  0  0  0  0  0
   58.0790   32.0280   51.0610 C   0  0  0  0  0  0  0  0  0  0  0  0
   58.9740   32.8010   51.8060 C   0  0  0  0  0  0  0  0  0  0  0  0
   58.9520   32.7460   53.1600 F   0  0  0  0  0  0  0  0  0  0  0  0
   59.8930   33.6280   51.1530 C   0  0  0  0  0  0  0  0  0  0  0  0
   59.9180   33.6860   49.7560 C   0  0  0  0  0  0  0  0  0  0  0  0
   60.8250   34.4870   49.1410 F   0  0  0  0  0  0  0  0  0  0  0  0
   58.7710   30.4510   47.3590 C   0  0  0  0  0  0  0  0  0  0  0  0
   59.5930   30.0800   48.3690 N   0  0  0  0  0  0  0  0  0  0  0  0
   59.7620   28.7460   48.6130 C   0  0  0  0  0  0  0  0  0  0  0  0
   60.6840   28.3020   49.7180 C   0  0  2  0  0  0  0  0  0  0  0  0
   60.7580   26.7630   49.7860 C   0  0  0  0  0  0  0  0  0  0  0  0
   61.1770   26.2620   51.1780 C   0  0  0  0  0  0  0  0  0  0  0  0
   61.9890   27.3230   51.9290 C   0  0  0  0  0  0  0  0  0  0  0  0
   61.1890   28.5510   52.1940 N   0  0  0  0  0  0  0  0  0  0  0  0
   62.0180   29.7270   52.6010 C   0  0  0  0  0  0  0  0  0  0  0  0
   63.4660   29.2770   52.9690 C   0  0  0  0  0  0  0  0  0  0  0  0
   64.5060   29.6930   51.9220 C   0  0  0  0  0  0  0  0  0  0  0  0
   64.5550   31.1660   51.7490 N   0  0  0  0  0  0  0  0  0  0  0  0
   65.2910   31.5350   50.5200 C   0  0  0  0  0  0  0  0  0  0  0  0
   64.3600   32.1070   49.4820 C   0  0  0  0  0  0  0  0  0  0  0  0
   64.4750   33.4540   49.1020 C   0  0  0  0  0  0  0  0  0  0  0  0
   63.6320   33.9820   48.1190 C   0  0  0  0  0  0  0  0  0  0  0  0
   62.6730   33.1690   47.5050 C   0  0  0  0  0  0  0  0  0  0  0  0
   61.6170   33.8330   46.2710 Cl  0  0  0  0  0  0  0  0  0  0  0  0
   62.5580   31.8250   47.8750 C   0  0  0  0  0  0  0  0  0  0  0  0
   63.4000   31.2930   48.8570 C   0  0  0  0  0  0  0  0  0  0  0  0
   63.2200   31.8190   51.8010 C   0  0  0  0  0  0  0  0  0  0  0  0
   62.0670   30.8460   51.5230 C   0  0  0  0  0  0  0  0  0  0  0  0
   60.2540   28.8930   51.0770 C   0  0  0  0  0  0  0  0  0  0  0  0
   59.1130   27.8170   47.8390 N   0  0  0  0  0  0  0  0  0  0  0  0
   58.2890   28.1850   46.8160 C   0  0  0  0  0  0  0  0  0  0  0  0
   57.7150   27.3060   46.1230 O   0  0  0  0  0  0  0  0  0  0  0  0
   58.1180   29.5480   46.5710 C   0  0  0  0  0  0  0  0  0  0  0  0
   55.1460   28.6840   45.6480 H   0  0  0  0  0  0  0  0  0  0  0  0
   57.3180   32.4520   45.3880 H   0  0  0  0  0  0  0  0  0  0  0  0
   60.0998   33.0442   47.1630 H   0  0  0  0  0  0  0  0  0  0  0  0
   58.4642   33.7945   47.1280 H   0  0  0  0  0  0  0  0  0  0  0  0
   57.3956   31.4680   49.0823 H   0  0  0  0  0  0  0  0  0  0  0  0
   57.3582   31.3750   51.5748 H   0  0  0  0  0  0  0  0  0  0  0  0
   60.5984   34.2347   51.7398 H   0  0  0  0  0  0  0  0  0  0  0  0
   61.6900   28.6840   49.4899 H   0  0  0  0  0  0  0  0  0  0  0  0
   59.7676   26.3498   49.5442 H   0  0  0  0  0  0  0  0  0  0  0  0
   61.5183   26.4295   49.0644 H   0  0  0  0  0  0  0  0  0  0  0  0
   60.2745   26.0229   51.7597 H   0  0  0  0  0  0  0  0  0  0  0  0
   61.8056   25.3682   51.0513 H   0  0  0  0  0  0  0  0  0  0  0  0
   62.3224   26.9019   52.8890 H   0  0  0  0  0  0  0  0  0  0  0  0
   62.8463   27.6042   51.2998 H   0  0  0  0  0  0  0  0  0  0  0  0
   61.5267   30.1576   53.4860 H   0  0  0  0  0  0  0  0  0  0  0  0
   63.7393   29.7293   53.9337 H   0  0  0  0  0  0  0  0  0  0  0  0
   63.4674   28.1780   53.0162 H   0  0  0  0  0  0  0  0  0  0  0  0
   65.4965   29.3391   52.2439 H   0  0  0  0  0  0  0  0  0  0  0  0
   64.2198   29.2449   50.9590 H   0  0  0  0  0  0  0  0  0  0  0  0
   66.0550   32.2858   50.7703 H   0  0  0  0  0  0  0  0  0  0  0  0
   65.7600   30.6293   50.1080 H   0  0  0  0  0  0  0  0  0  0  0  0
   65.2304   34.0957   49.5790 H   0  0  0  0  0  0  0  0  0  0  0  0
   63.7231   35.0389   47.8279 H   0  0  0  0  0  0  0  0  0  0  0  0
   61.8041   31.1854   47.3929 H   0  0  0  0  0  0  0  0  0  0  0  0
   63.3105   30.2341   49.1410 H   0  0  0  0  0  0  0  0  0  0  0  0
   63.0800   32.2518   52.8025 H   0  0  0  0  0  0  0  0  0  0  0  0
   63.1986   32.5885   51.0152 H   0  0  0  0  0  0  0  0  0  0  0  0
   61.1167   31.3999   51.5345 H   0  0  0  0  0  0  0  0  0  0  0  0
   62.2269   30.3813   50.5389 H   0  0  0  0  0  0  0  0  0  0  0  0
   59.2555   28.5046   51.3263 H   0  0  0  0  0  0  0  0  0  0  0  0
   60.2588   29.9880   50.9721 H   0  0  0  0  0  0  0  0  0  0  0  0
  1  2  1  0
  2  3  2  0
  2  4  1  0
  4  5  2  0
  5  6  1  0
  6  7  1  0
  7  8  1  0
  8  9  2  0
  9 10  1  0
 10 11  2  0
 11 12  1  0
 11 13  1  0
 13 14  2  0
 14 15  1  0
  6 16  1  0
 16 17  1  0
 17 18  1  0
 18 19  1  0
 19 20  1  0
 20 21  1  0
 21 22  1  0
 22 23  1  0
 23 24  1  0
 24 25  1  0
 25 26  1  0
 26 27  1  0
 27 28  1  0
 28 29  1  0
 29 30  2  0
 30 31  1  0
 31 32  2  0
 32 33  1  0
 32 34  1  0
 34 35  2  0
 27 36  1  0
 36 37  1  0
 23 38  1  0
 18 39  2  0
 39 40  1  0
 40 41  2  0
 40 42  1  0
 42  4  1  0
 14  8  1  0
 42 16  2  0
 38 19  1  0
 37 24  1  0
 35 29  1  0
  1 43  1  0
  5 44  1  0
  7 45  1  0
  7 46  1  0
  9 47  1  0
 10 48  1  0
 13 49  1  0
 19 50  1  6
 20 51  1  0
 20 52  1  0
 21 53  1  0
 21 54  1  0
 22 55  1  0
 22 56  1  0
 24 57  1  0
 25 58  1  0
 25 59  1  0
 26 60  1  0
 26 61  1  0
 28 62  1  0
 28 63  1  0
 30 64  1  0
 31 65  1  0
 34 66  1  0
 35 67  1  0
 36 68  1  0
 36 69  1  0
 37 70  1  0
 37 71  1  0
 38 72  1  0
 38 73  1  0
M  CHG  3   1  -1   5   1  17  -1
M  END
>  <UniqueID>  (29) 
28

>  <SMILES>  (29) 
[NH-]C(=O)c1[nH+]n(Cc2ccc(F)cc2F)c2[n-]c([C@@H]3CCCN(C4CCN(Cc5ccc(Cl)cc5)CC4)C3)nc(=O)c12

>  <Energy>  (29) 
143.82960441523372

>  <Genealogy>  (29) 
[NH-]C(=O)c1[nH+]n(Cc2ccc(F)cc2F)c2[n-]c(C3CCCN(C4CCN(Cc5ccc(Cl)cc5)CC4)C3)nc(=O)c12 (protonated)
[NH-]C(=O)c1[nH+]n(Cc2ccc(F)cc2F)c2[n-]c([C@@H]3CCCN(C4CCN(Cc5ccc(Cl)cc5)CC4)C3)nc(=O)c12 (chirality)
[NH-]C(=O)c1[nH+]n(Cc2ccc(F)cc2F)c2[n-]c([C@@H]3CCCN(C4CCN(Cc5ccc(Cl)cc5)CC4)C3)nc(=O)c12 (3D coordinates assigned)
[NH-]C(=O)c1[nH+]n(Cc2ccc(F)cc2F)c2[n-]c([C@@H]3CCCN(C4CCN(Cc5ccc(Cl)cc5)CC4)C3)nc(=O)c12 (nonaromatic ring conformer: 143.82960441523372 kcal/mol)

>  <smiles>  (29) 
NC(=O)c1nn(Cc2ccc(F)cc2F)c2[nH]c(C3CCCN(C4CCN(Cc5ccc(Cl)cc5)CC4)C3)nc(=O)c12

>  <score_type>  (29) 
oracle

>  <origin>  (29) 
adg

>  <m_score__min__energy>  (29) 
-13.880000000000001

>  <m_primary>  (29) 
energy

$$$$
29:0
     RDKit          3D

 41 44  0  0  0  0  0  0  0  0999 V2000
   57.9063   26.2769   42.7296 H   0  0  0  0  0  0  0  0  0  0  0  0
   57.4100   25.5860   43.4270 C   0  0  0  0  0  0  0  0  0  0  0  0
   56.7646   24.7836   43.0402 H   0  0  0  0  0  0  0  0  0  0  0  0
   57.5920   25.7220   44.7500 C   0  0  0  0  0  0  0  0  0  0  0  0
   57.0260   24.9190   45.7470 C   0  0  0  0  0  0  0  0  0  0  0  0
   56.2240   23.8490   45.5780 C   0  0  0  0  0  0  0  0  0  0  0  0
   56.6933   22.8557   45.5233 H   0  0  0  0  0  0  0  0  0  0  0  0
   54.7570   23.9280   45.4620 C   0  0  0  0  0  0  0  0  0  0  0  0
   53.9920   22.8910   45.0790 N   0  0  0  0  0  0  0  0  0  0  0  0
   52.7500   23.4190   45.0260 C   0  0  0  0  0  0  0  0  0  0  0  0
   51.7370   22.7410   44.7130 O   0  0  0  0  0  0  0  0  0  0  0  0
   52.6800   24.7340   45.3260 N   0  0  0  0  0  0  0  0  0  0  0  0
   53.9600   25.0450   45.5870 C   0  0  0  0  0  0  0  0  0  0  0  0
   54.3910   26.3310   45.8850 O   0  0  0  0  0  0  0  0  0  0  0  0
   57.5060   25.4030   46.9560 C   0  0  0  0  0  0  0  0  0  0  0  0
   57.2761   25.0116   47.9580 H   0  0  0  0  0  0  0  0  0  0  0  0
   58.3280   26.4710   46.6570 C   0  0  0  0  0  0  0  0  0  0  0  0
   59.0780   27.2730   47.6770 C   0  0  0  0  0  0  0  0  0  0  0  0
   58.7794   26.9537   48.6864 H   0  0  0  0  0  0  0  0  0  0  0  0
   60.1585   27.1135   47.5466 H   0  0  0  0  0  0  0  0  0  0  0  0
   58.8466   28.3404   47.5466 H   0  0  0  0  0  0  0  0  0  0  0  0
   58.3710   26.6790   45.3200 N   0  0  0  0  0  0  0  0  0  0  0  0
   59.1880   27.6920   44.6360 C   0  0  0  0  0  0  0  0  0  0  0  0
   60.2195   27.6447   45.0151 H   0  0  0  0  0  0  0  0  0  0  0  0
   59.1787   27.4932   43.5542 H   0  0  0  0  0  0  0  0  0  0  0  0
   58.6300   29.0540   44.8890 C   0  0  0  0  0  0  0  0  0  0  0  0
   59.3780   30.1350   45.1770 N   0  0  0  0  0  0  0  0  0  0  0  0
   58.4280   31.0790   45.3490 C   0  0  0  0  0  0  0  0  0  0  0  0
   58.7220   32.4870   45.6940 C   0  0  0  0  0  0  0  0  0  0  0  0
   58.5630   33.5040   44.7350 C   0  0  0  0  0  0  0  0  0  0  0  0
   58.2180   33.2511   43.7216 H   0  0  0  0  0  0  0  0  0  0  0  0
   58.8410   34.8340   45.0630 C   0  0  0  0  0  0  0  0  0  0  0  0
   58.7129   35.6236   44.3079 H   0  0  0  0  0  0  0  0  0  0  0  0
   59.2810   35.1630   46.3470 C   0  0  0  0  0  0  0  0  0  0  0  0
   59.5000   36.2104   46.6020 H   0  0  0  0  0  0  0  0  0  0  0  0
   59.4430   34.1610   47.3080 C   0  0  0  0  0  0  0  0  0  0  0  0
   59.9960   34.5750   48.9210 Cl  0  0  0  0  0  0  0  0  0  0  0  0
   59.1660   32.8280   46.9850 C   0  0  0  0  0  0  0  0  0  0  0  0
   59.2960   32.0426   47.7442 H   0  0  0  0  0  0  0  0  0  0  0  0
   57.1830   30.5910   45.1800 N   0  0  0  0  0  0  0  0  0  0  0  0
   57.3500   29.3350   44.8990 O   0  0  0  0  0  0  0  0  0  0  0  0
  1  2  1  0
  2  3  1  0
  2  4  2  0
  4  5  1  0
  5  6  2  0
  6  7  1  0
  6  8  1  0
  8  9  1  0
  9 10  1  0
 10 11  2  0
 10 12  1  0
 12 13  1  0
 13 14  1  0
  5 15  1  0
 15 16  1  0
 15 17  2  0
 17 18  1  0
 18 19  1  0
 18 20  1  0
 18 21  1  0
 17 22  1  0
 22 23  1  0
 23 24  1  0
 23 25  1  0
 23 26  1  0
 26 27  2  0
 27 28  1  0
 28 29  1  0
 29 30  2  0
 30 31  1  0
 30 32  1  0
 32 33  1  0
 32 34  2  0
 34 35  1  0
 34 36  1  0
 36 37  1  0
 36 38  2  0
 38 39  1  0
 28 40  2  0
 40 41  1  0
 22  4  1  0
 41 26  1  0
 13  8  2  0
 38 29  1  0
M  CHG  3   9  -1  12  -1  14  -1
M  END
>  <UniqueID>  (30) 
29

>  <SMILES>  (30) 
C=c1/c(=C/c2[n-]c(=O)[n-]c2[O-])cc(C)n1Cc1nc(-c2cccc(Cl)c2)no1

>  <Energy>  (30) 
141.7278252545496

>  <Genealogy>  (30) 
C=c1c(=Cc2[n-]c(=O)[n-]c2[O-])cc(C)n1Cc1nc(-c2cccc(Cl)c2)no1 (protonated)
C=c1/c(=C/c2[n-]c(=O)[n-]c2[O-])cc(C)n1Cc1nc(-c2cccc(Cl)c2)no1 (cis-trans isomerization)
C=c1/c(=C/c2[n-]c(=O)[n-]c2[O-])cc(C)n1Cc1nc(-c2cccc(Cl)c2)no1 (3D coordinates assigned)
C=c1/c(=C/c2[n-]c(=O)[n-]c2[O-])cc(C)n1Cc1nc(-c2cccc(Cl)c2)no1 (optimized conformer: 141.7278252545496 kcal/mol)

>  <smiles>  (30) 
C=c1c(=Cc2[nH]c(=O)[nH]c2O)cc(C)n1Cc1nc(-c2cccc(Cl)c2)no1

>  <score_type>  (30) 
oracle

>  <origin>  (30) 
adg

>  <m_score__min__energy>  (30) 
-17.690000000000001

>  <m_primary>  (30) 
energy

$$$$
30:0
     RDKit          3D

 55 58  0  0  0  0  0  0  0  0999 V2000
   59.3000   27.4450   48.5940 O   0  0  0  0  0  0  0  0  0  0  0  0
   59.4340   28.0910   47.5140 C   0  0  0  0  0  0  0  0  0  0  0  0
   59.6660   29.5100   47.5680 N   0  0  0  0  0  0  0  0  0  0  0  0
   59.3850   30.3170   48.7290 C   0  0  0  0  0  0  0  0  0  0  0  0
   58.9750   29.7130   49.9310 C   0  0  0  0  0  0  0  0  0  0  0  0
   58.6460   30.4980   51.0400 C   0  0  0  0  0  0  0  0  0  0  0  0
   58.6960   31.8900   50.9520 C   0  0  0  0  0  0  0  0  0  0  0  0
   59.0880   32.5050   49.7610 C   0  0  0  0  0  0  0  0  0  0  0  0
   59.4410   31.7280   48.6480 C   0  0  0  0  0  0  0  0  0  0  0  0
   59.9580   32.4000   47.4420 C   0  0  0  0  0  0  0  0  0  0  0  0
   61.0570   32.0190   46.9550 O   0  0  0  0  0  0  0  0  0  0  0  0
   59.2290   33.4810   46.8260 N   0  0  0  0  0  0  0  0  0  0  0  0
   59.8920   34.4830   45.9840 C   0  0  0  0  0  0  0  0  0  0  0  0
   59.1080   34.6310   44.6740 C   0  0  0  0  0  0  0  0  0  0  0  0
   57.7450   34.9200   44.9370 O   0  0  0  0  0  0  0  0  0  0  0  0
   57.1370   33.8300   45.6090 C   0  0  0  0  0  0  0  0  0  0  0  0
   57.7750   33.6130   46.9890 C   0  0  0  0  0  0  0  0  0  0  0  0
   59.3530   27.3740   46.2030 C   0  0  0  0  0  0  0  0  0  0  0  0
   59.5650   28.0580   45.0530 C   0  0  0  0  0  0  0  0  0  0  0  0
   58.6310   29.0380   44.4590 C   0  0  0  0  0  0  0  0  0  0  0  0
   57.5100   28.5740   43.7530 C   0  0  0  0  0  0  0  0  0  0  0  0
   56.6300   29.4780   43.1480 C   0  0  0  0  0  0  0  0  0  0  0  0
   56.8730   30.8530   43.2290 C   0  0  0  0  0  0  0  0  0  0  0  0
   58.0040   31.3230   43.9030 C   0  0  0  0  0  0  0  0  0  0  0  0
   58.8840   30.4210   44.5090 C   0  0  0  0  0  0  0  0  0  0  0  0
   59.1180   25.8700   46.2110 C   0  0  0  0  0  0  0  0  0  0  0  0
   57.7250   25.5260   45.9140 N   0  0  0  0  0  0  0  0  0  0  0  0
   57.2460   24.4810   45.2160 C   0  0  0  0  0  0  0  0  0  0  0  0
   55.8720   24.5260   45.2700 C   0  0  0  0  0  0  0  0  0  0  0  0
   55.4850   25.5890   46.0030 N   0  0  0  0  0  0  0  0  0  0  0  0
   56.6390   26.1720   46.3840 C   0  0  0  0  0  0  0  0  0  0  0  0
   60.1500   29.9710   46.7680 H   0  0  0  0  0  0  0  0  0  0  0  0
   58.9128   28.6169   49.9989 H   0  0  0  0  0  0  0  0  0  0  0  0
   58.3472   30.0178   51.9835 H   0  0  0  0  0  0  0  0  0  0  0  0
   58.4258   32.5046   51.8234 H   0  0  0  0  0  0  0  0  0  0  0  0
   59.1200   33.6026   49.6956 H   0  0  0  0  0  0  0  0  0  0  0  0
   59.9170   35.4487   46.5101 H   0  0  0  0  0  0  0  0  0  0  0  0
   60.9220   34.1637   45.7670 H   0  0  0  0  0  0  0  0  0  0  0  0
   59.5435   35.4501   44.0828 H   0  0  0  0  0  0  0  0  0  0  0  0
   59.1683   33.6848   44.1163 H   0  0  0  0  0  0  0  0  0  0  0  0
   56.0645   34.0385   45.7367 H   0  0  0  0  0  0  0  0  0  0  0  0
   57.2824   32.9206   45.0074 H   0  0  0  0  0  0  0  0  0  0  0  0
   57.5528   34.4730   47.6378 H   0  0  0  0  0  0  0  0  0  0  0  0
   57.3673   32.7005   47.4486 H   0  0  0  0  0  0  0  0  0  0  0  0
   60.5076   27.8691   44.5184 H   0  0  0  0  0  0  0  0  0  0  0  0
   57.3222   27.4930   43.6749 H   0  0  0  0  0  0  0  0  0  0  0  0
   55.7463   29.1070   42.6082 H   0  0  0  0  0  0  0  0  0  0  0  0
   56.1749   31.5639   42.7628 H   0  0  0  0  0  0  0  0  0  0  0  0
   58.2019   32.4037   43.9567 H   0  0  0  0  0  0  0  0  0  0  0  0
   59.7791   30.7949   45.0277 H   0  0  0  0  0  0  0  0  0  0  0  0
   59.7667   25.4060   45.4535 H   0  0  0  0  0  0  0  0  0  0  0  0
   59.3503   25.4972   47.2195 H   0  0  0  0  0  0  0  0  0  0  0  0
   57.8476   23.7228   44.6933 H   0  0  0  0  0  0  0  0  0  0  0  0
   55.1938   23.8056   44.7892 H   0  0  0  0  0  0  0  0  0  0  0  0
   56.6892   27.0754   47.0096 H   0  0  0  0  0  0  0  0  0  0  0  0
  1  2  2  0
  2  3  1  0
  3  4  1  0
  4  5  2  0
  5  6  1  0
  6  7  2  0
  7  8  1  0
  8  9  2  0
  9 10  1  0
 10 11  2  0
 10 12  1  0
 12 13  1  0
 13 14  1  0
 14 15  1  0
 15 16  1  0
 16 17  1  0
  2 18  1  0
 18 19  2  3
 19 20  1  0
 20 21  2  0
 21 22  1  0
 22 23  2  0
 23 24  1  0
 24 25  2  0
 18 26  1  0
 26 27  1  0
 27 28  1  0
 28 29  2  0
 29 30  1  0
 30 31  2  0
  9  4  1  0
 17 12  1  0
 25 20  1  0
 31 27  1  0
  3 32  1  0
  5 33  1  0
  6 34  1  0
  7 35  1  0
  8 36  1  0
 13 37  1  0
 13 38  1  0
 14 39  1  0
 14 40  1  0
 16 41  1  0
 16 42  1  0
 17 43  1  0
 17 44  1  0
 19 45  1  0
 21 46  1  0
 22 47  1  0
 23 48  1  0
 24 49  1  0
 25 50  1  0
 26 51  1  0
 26 52  1  0
 28 53  1  0
 29 54  1  0
 31 55  1  0
M  END
>  <UniqueID>  (31) 
30

>  <SMILES>  (31) 
O=C(Nc1ccccc1C(=O)N1CCOCC1)C(=Cc1ccccc1)Cn1ccnc1

>  <Energy>  (31) 
108.01918105024961

>  <Genealogy>  (31) 
O=C(Nc1ccccc1C(=O)N1CCOCC1)C(=Cc1ccccc1)Cn1ccnc1 (3D coordinates assigned)
O=C(Nc1ccccc1C(=O)N1CCOCC1)C(=Cc1ccccc1)Cn1ccnc1 (nonaromatic ring conformer: 108.01918105024961 kcal/mol)

>  <smiles>  (31) 
O=C(Nc1ccccc1C(=O)N1CCOCC1)C(=Cc1ccccc1)Cn1ccnc1

>  <score_type>  (31) 
oracle

>  <origin>  (31) 
adg

>  <m_score__min__energy>  (31) 
-8.5600000000000005

>  <m_primary>  (31) 
energy

$$$$
31:0
     RDKit          3D

 40 42  0  0  0  0  0  0  0  0999 V2000
   56.7550   22.7700   44.7920 C   0  0  0  0  0  0  0  0  0  0  0  0
   57.0180   24.0370   45.5490 C   0  0  0  0  0  0  0  0  0  0  0  0
   58.0150   24.0810   46.5320 C   0  0  0  0  0  0  0  0  0  0  0  0
   58.2700   25.2800   47.1980 C   0  0  0  0  0  0  0  0  0  0  0  0
   57.5630   26.3990   46.8840 N   0  0  0  0  0  0  0  0  0  0  0  0
   56.5970   26.3960   45.9230 C   0  0  0  0  0  0  0  0  0  0  0  0
   55.9290   27.4750   45.6260 N   0  0  0  0  0  0  0  0  0  0  0  0
   56.4610   28.7590   45.2540 C   0  0  0  0  0  0  0  0  0  0  0  0
   57.7700   29.0800   45.6200 C   0  0  0  0  0  0  0  0  0  0  0  0
   58.3280   30.3150   45.2620 C   0  0  0  0  0  0  0  0  0  0  0  0
   59.5650   30.5310   45.6220 N   0  0  0  0  0  0  0  0  0  0  0  0
   60.0600   31.3120   46.7170 C   0  0  0  0  0  0  0  0  0  0  0  0
   60.3810   32.6620   46.5100 C   0  0  0  0  0  0  0  0  0  0  0  0
   60.9170   33.4250   47.5500 C   0  0  0  0  0  0  0  0  0  0  0  0
   61.1550   32.8390   48.7940 C   0  0  0  0  0  0  0  0  0  0  0  0
   60.8600   31.4890   49.0030 C   0  0  0  0  0  0  0  0  0  0  0  0
   60.3160   30.7130   47.9660 C   0  0  0  0  0  0  0  0  0  0  0  0
   59.9490   29.0060   48.2360 S   0  0  0  0  0  0  0  0  0  0  0  0
   60.2700   28.0770   46.8130 N   0  0  0  0  0  0  0  0  0  0  0  0
   58.4970   28.8630   48.5950 O   0  0  0  0  0  0  0  0  0  0  0  0
   60.7990   28.4830   49.3600 O   0  0  0  0  0  0  0  0  0  0  0  0
   57.5160   31.2460   44.5530 C   0  0  0  0  0  0  0  0  0  0  0  0
   57.9870   32.8940   44.1420 Cl  0  0  0  0  0  0  0  0  0  0  0  0
   56.2100   30.8760   44.2090 C   0  0  0  0  0  0  0  0  0  0  0  0
   55.7200   29.6610   44.5580 N   0  0  0  0  0  0  0  0  0  0  0  0
   56.3150   25.2090   45.2330 C   0  0  0  0  0  0  0  0  0  0  0  0
   56.5842   21.9474   45.5020 H   0  0  0  0  0  0  0  0  0  0  0  0
   55.8645   22.8990   44.1593 H   0  0  0  0  0  0  0  0  0  0  0  0
   57.6233   22.5339   44.1593 H   0  0  0  0  0  0  0  0  0  0  0  0
   58.5923   23.1772   46.7769 H   0  0  0  0  0  0  0  0  0  0  0  0
   59.0441   25.3207   47.9784 H   0  0  0  0  0  0  0  0  0  0  0  0
   58.3683   28.3573   46.1942 H   0  0  0  0  0  0  0  0  0  0  0  0
   60.2100   33.1212   45.5252 H   0  0  0  0  0  0  0  0  0  0  0  0
   61.1515   34.4875   47.3885 H   0  0  0  0  0  0  0  0  0  0  0  0
   61.5760   33.4414   49.6124 H   0  0  0  0  0  0  0  0  0  0  0  0
   61.0547   31.0318   49.9844 H   0  0  0  0  0  0  0  0  0  0  0  0
   59.4220   27.4950   46.6290 H   0  0  0  0  0  0  0  0  0  0  0  0
   60.3480   28.7510   46.0190 H   0  0  0  0  0  0  0  0  0  0  0  0
   55.5749   31.5786   43.6496 H   0  0  0  0  0  0  0  0  0  0  0  0
   55.5456   25.1966   44.4470 H   0  0  0  0  0  0  0  0  0  0  0  0
  1  2  1  0
  2  3  1  0
  3  4  2  0
  4  5  1  0
  5  6  1  0
  6  7  2  3
  7  8  1  0
  8  9  2  0
  9 10  1  0
 10 11  2  3
 11 12  1  0
 12 13  2  0
 13 14  1  0
 14 15  2  0
 15 16  1  0
 16 17  2  0
 17 18  1  0
 18 19  1  0
 18 20  2  0
 18 21  2  0
 10 22  1  0
 22 23  1  0
 22 24  2  0
 24 25  1  0
  6 26  1  0
 26  2  2  0
 25  8  1  0
 17 12  1  0
  1 27  1  0
  1 28  1  0
  1 29  1  0
  3 30  1  0
  4 31  1  0
  9 32  1  0
 13 33  1  0
 14 34  1  0
 15 35  1  0
 16 36  1  0
 19 37  1  0
 19 38  1  0
 24 39  1  0
 26 40  1  0
M  CHG  2   5  -1  25  -1
M  END
>  <UniqueID>  (32) 
31

>  <SMILES>  (32) 
Cc1cc[n-]c(=Nc2cc(=Nc3ccccc3S(N)(=O)=O)c(Cl)c[n-]2)c1

>  <Energy>  (32) 
61.849188199778666

>  <Genealogy>  (32) 
Cc1cc[n-]c(=Nc2cc(=Nc3ccccc3S(N)(=O)=O)c(Cl)c[n-]2)c1 (protonated)
Cc1cc[n-]c(=Nc2cc(=Nc3ccccc3S(N)(=O)=O)c(Cl)c[n-]2)c1 (3D coordinates assigned)
Cc1cc[n-]c(=Nc2cc(=Nc3ccccc3S(N)(=O)=O)c(Cl)c[n-]2)c1 (optimized conformer: 61.849188199778666 kcal/mol)

>  <smiles>  (32) 
Cc1cc[nH]c(=Nc2cc(=Nc3ccccc3S(N)(=O)=O)c(Cl)c[nH]2)c1

>  <score_type>  (32) 
oracle

>  <origin>  (32) 
adg

>  <m_score__min__energy>  (32) 
-11.359999999999999

>  <m_primary>  (32) 
energy

$$$$
32:0
     RDKit          3D

 55 57  0  0  0  0  0  0  0  0999 V2000
   59.8554   33.7103   51.2343 H   0  0  0  0  0  0  0  0  0  0  0  0
   59.7230   32.6720   50.8960 C   0  0  0  0  0  0  0  0  0  0  0  0
   59.3156   31.9169   51.5844 H   0  0  0  0  0  0  0  0  0  0  0  0
   61.8030   32.6230   47.8980 C   0  0  0  0  0  0  0  0  0  0  0  0
   59.1250   34.7920   47.6040 C   0  0  0  0  0  0  0  0  0  0  0  0
   59.2770   35.2060   46.3410 C   0  0  0  0  0  0  0  0  0  0  0  0
   58.1140   34.6677   48.0192 H   0  0  0  0  0  0  0  0  0  0  0  0
   63.0260   33.1860   47.6820 C   0  0  0  0  0  0  0  0  0  0  0  0
   59.5064   36.2669   46.1622 H   0  0  0  0  0  0  0  0  0  0  0  0
   60.5590   30.4860   48.0270 C   0  0  0  0  0  0  0  0  0  0  0  0
   60.8563   35.3537   48.8681 H   0  0  0  0  0  0  0  0  0  0  0  0
   59.1520   34.3090   45.1760 C   0  0  0  0  0  0  0  0  0  0  0  0
   59.7160   34.6420   44.0990 O   0  0  0  0  0  0  0  0  0  0  0  0
   58.4360   33.0640   45.2520 N   0  0  0  0  0  0  0  0  0  0  0  0
   58.1880   32.6590   46.1830 H   0  0  0  0  0  0  0  0  0  0  0  0
   58.0830   32.2960   44.0610 C   0  0  0  0  0  0  0  0  0  0  0  0
   57.3958   32.8871   43.4378 H   0  0  0  0  0  0  0  0  0  0  0  0
   58.9990   32.0674   43.4964 H   0  0  0  0  0  0  0  0  0  0  0  0
   57.4140   31.0080   44.4540 C   0  0  0  0  0  0  0  0  0  0  0  0
   57.9820   30.1970   45.4500 C   0  0  0  0  0  0  0  0  0  0  0  0
   58.9252   30.4976   45.9297 H   0  0  0  0  0  0  0  0  0  0  0  0
   57.3530   29.0090   45.8340 C   0  0  0  0  0  0  0  0  0  0  0  0
   57.8062   28.3737   46.6093 H   0  0  0  0  0  0  0  0  0  0  0  0
   56.1500   28.6270   45.2350 C   0  0  0  0  0  0  0  0  0  0  0  0
   55.5270   27.4450   45.6170 O   0  0  0  0  0  0  0  0  0  0  0  0
   55.5730   29.4340   44.2490 C   0  0  0  0  0  0  0  0  0  0  0  0
   54.6249   29.1339   43.7790 H   0  0  0  0  0  0  0  0  0  0  0  0
   56.2000   30.6220   43.8600 C   0  0  0  0  0  0  0  0  0  0  0  0
   55.7417   31.2562   43.0869 H   0  0  0  0  0  0  0  0  0  0  0  0
   60.7530   33.2600   48.7360 C   0  0  0  0  0  0  0  0  0  0  0  0
   60.3050   34.5000   48.4470 C   0  0  0  0  0  0  0  0  0  0  0  0
   63.3500   33.8560   46.3670 C   0  0  0  0  0  0  0  0  0  0  0  0
   63.8216   34.8311   46.5587 H   0  0  0  0  0  0  0  0  0  0  0  0
   64.0407   33.2213   45.7925 H   0  0  0  0  0  0  0  0  0  0  0  0
   62.4236   34.0033   45.7925 H   0  0  0  0  0  0  0  0  0  0  0  0
   64.1350   33.0930   48.7050 C   0  0  0  0  0  0  0  0  0  0  0  0
   63.7046   33.1291   49.7167 H   0  0  0  0  0  0  0  0  0  0  0  0
   64.6786   32.1461   48.5714 H   0  0  0  0  0  0  0  0  0  0  0  0
   64.8288   33.9361   48.5714 H   0  0  0  0  0  0  0  0  0  0  0  0
   61.4800   31.2530   47.4080 C   0  0  0  0  0  0  0  0  0  0  0  0
   62.0031   30.8595   46.5240 H   0  0  0  0  0  0  0  0  0  0  0  0
   60.0570   32.3280   49.6490 C   0  0  0  0  0  0  0  0  0  0  0  0
   60.2740   29.1140   47.5360 C   0  0  0  0  0  0  0  0  0  0  0  0
   60.6260   28.7420   46.2270 C   0  0  0  0  0  0  0  0  0  0  0  0
   61.1074   29.4738   45.5616 H   0  0  0  0  0  0  0  0  0  0  0  0
   60.3680   27.4470   45.7650 C   0  0  0  0  0  0  0  0  0  0  0  0
   60.6448   27.1654   44.7383 H   0  0  0  0  0  0  0  0  0  0  0  0
   59.7600   26.5110   46.6040 C   0  0  0  0  0  0  0  0  0  0  0  0
   59.5150   25.2550   46.1560 F   0  0  0  0  0  0  0  0  0  0  0  0
   59.4070   26.8680   47.9080 C   0  0  0  0  0  0  0  0  0  0  0  0
   58.9287   26.1303   48.5690 H   0  0  0  0  0  0  0  0  0  0  0  0
   59.6610   28.1620   48.3740 C   0  0  0  0  0  0  0  0  0  0  0  0
   59.3804   28.4380   49.4012 H   0  0  0  0  0  0  0  0  0  0  0  0
   59.8850   30.9740   49.2060 N   0  0  0  0  0  0  0  0  0  0  0  0
   59.2430   30.3410   49.7350 H   0  0  0  0  0  0  0  0  0  0  0  0
  1  2  1  0
  2  3  1  0
  2  4  2  0
  4  5  1  0
  5  6  2  0
  6  7  1  0
  6  8  1  0
  8  9  1  0
  8 10  2  3
 10 11  1  0
 10 12  1  0
 12 13  2  0
 12 14  1  0
 14 15  1  0
 14 16  1  0
 16 17  1  0
 16 18  1  0
 16 19  1  0
 19 20  2  0
 20 21  1  0
 20 22  1  0
 22 23  1  0
 22 24  2  0
 24 25  1  0
 24 26  1  0
 26 27  1  0
 26 28  2  0
 28 29  1  0
  5 30  1  0
 30 31  2  3
 31 32  1  0
 32 33  1  0
 32 34  1  0
 32 35  1  0
 31 36  1  0
 36 37  1  0
 36 38  1  0
 36 39  1  0
 30 40  1  0
 40 41  1  0
 40 42  2  0
 42 43  1  0
 43 44  2  0
 44 45  1  0
 44 46  1  0
 46 47  1  0
 46 48  2  0
 48 49  1  0
 48 50  1  0
 50 51  1  0
 50 52  2  0
 52 53  1  0
 42 54  1  0
 54 55  1  0
 54  4  1  0
 28 19  1  0
 52 43  1  0
M  CHG  1  25  -1
M  END
>  <UniqueID>  (33) 
32

>  <SMILES>  (33) 
C=C1NC(c2ccc(F)cc2)=CC(=C(C)C)/C1=C/C=CC(=O)NCc1ccc([O-])cc1

>  <Energy>  (33) 
74.53348285049306

>  <Genealogy>  (33) 
C=C1NC(c2ccc(F)cc2)=CC(=C(C)C)C1=CC=CC(=O)NCc1ccc([O-])cc1 (protonated)
C=C1NC(c2ccc(F)cc2)=CC(=C(C)C)/C1=C/C=CC(=O)NCc1ccc([O-])cc1 (cis-trans isomerization)
C=C1NC(c2ccc(F)cc2)=CC(=C(C)C)/C1=C/C=CC(=O)NCc1ccc([O-])cc1 (3D coordinates assigned)
C=C1NC(c2ccc(F)cc2)=CC(=C(C)C)/C1=C/C=CC(=O)NCc1ccc([O-])cc1 (nonaromatic ring conformer: 74.53348285049306 kcal/mol)

>  <smiles>  (33) 
C=C1NC(c2ccc(F)cc2)=CC(=C(C)C)C1=CC=CC(=O)NCc1ccc(O)cc1

>  <score_type>  (33) 
oracle

>  <origin>  (33) 
adg

>  <m_score__min__energy>  (33) 
-13.220000000000001

>  <m_primary>  (33) 
energy

$$$$
33:0
     RDKit          3D

 56 59  0  0  0  0  0  0  0  0999 V2000
   59.9340   27.8640   46.6620 C   0  0  0  0  0  0  0  0  0  0  0  0
   59.0070   28.6320   46.0690 C   0  0  0  0  0  0  0  0  0  0  0  0
   58.0140   28.2210   45.1650 C   0  0  0  0  0  0  0  0  0  0  0  0
   57.6030   26.9910   44.7970 C   0  0  0  0  0  0  0  0  0  0  0  0
   57.1150   25.9410   45.7050 C   0  0  0  0  0  0  0  0  0  0  0  0
   57.8900   24.9990   46.2740 N   0  0  0  0  0  0  0  0  0  0  0  0
   57.0440   24.3680   47.1180 C   0  0  0  0  0  0  0  0  0  0  0  0
   57.3990   23.3930   47.8310 O   0  0  0  0  0  0  0  0  0  0  0  0
   55.7890   24.8670   47.1400 N   0  0  0  0  0  0  0  0  0  0  0  0
   55.8580   25.8710   46.2520 C   0  0  0  0  0  0  0  0  0  0  0  0
   54.7950   26.7150   45.9550 O   0  0  0  0  0  0  0  0  0  0  0  0
   57.4360   29.3800   44.6720 C   0  0  0  0  0  0  0  0  0  0  0  0
   58.0370   30.4360   45.3240 C   0  0  0  0  0  0  0  0  0  0  0  0
   57.7030   31.8800   45.1060 C   0  0  0  0  0  0  0  0  0  0  0  0
   58.9820   29.9850   46.1770 N   0  0  0  0  0  0  0  0  0  0  0  0
   59.8440   30.8140   46.9750 C   0  0  0  0  0  0  0  0  0  0  0  0
   59.3060   31.6110   47.9940 C   0  0  0  0  0  0  0  0  0  0  0  0
   60.1380   32.4270   48.7630 C   0  0  0  0  0  0  0  0  0  0  0  0
   61.5220   32.4530   48.5290 C   0  0  0  0  0  0  0  0  0  0  0  0
   62.4070   33.3220   49.3350 C   0  0  0  0  0  0  0  0  0  0  0  0
   62.5190   34.5400   49.0260 O   0  0  0  0  0  0  0  0  0  0  0  0
   63.1550   32.8010   50.4510 N   0  0  0  0  0  0  0  0  0  0  0  0
   63.4570   33.6580   51.6010 C   0  0  0  0  0  0  0  0  0  0  0  0
   64.9670   33.9300   51.6930 C   0  0  0  0  0  0  0  0  0  0  0  0
   65.8580   32.7130   51.2660 C   0  0  0  0  0  0  0  0  0  0  0  0
   67.0300   32.5590   52.2580 C   0  0  0  0  0  0  0  0  0  0  0  0
   66.4500   32.9630   49.8590 C   0  0  0  0  0  0  0  0  0  0  0  0
   65.0370   31.3940   51.2650 C   0  0  0  0  0  0  0  0  0  0  0  0
   63.7990   31.4820   50.3560 C   0  0  0  0  0  0  0  0  0  0  0  0
   62.0560   31.6710   47.4900 C   0  0  0  0  0  0  0  0  0  0  0  0
   61.2210   30.8550   46.7210 C   0  0  0  0  0  0  0  0  0  0  0  0
   60.6597   28.3142   47.3553 H   0  0  0  0  0  0  0  0  0  0  0  0
   59.9682   26.7842   46.4548 H   0  0  0  0  0  0  0  0  0  0  0  0
   57.6353   26.7513   43.7239 H   0  0  0  0  0  0  0  0  0  0  0  0
   56.6484   29.4451   43.9069 H   0  0  0  0  0  0  0  0  0  0  0  0
   57.5872   32.3805   46.0787 H   0  0  0  0  0  0  0  0  0  0  0  0
   58.5133   32.3623   44.5396 H   0  0  0  0  0  0  0  0  0  0  0  0
   56.7632   31.9575   44.5396 H   0  0  0  0  0  0  0  0  0  0  0  0
   58.2236   31.5938   48.1890 H   0  0  0  0  0  0  0  0  0  0  0  0
   59.7063   33.0536   49.5574 H   0  0  0  0  0  0  0  0  0  0  0  0
   62.9239   34.6137   51.4892 H   0  0  0  0  0  0  0  0  0  0  0  0
   63.1329   33.1459   52.5190 H   0  0  0  0  0  0  0  0  0  0  0  0
   65.2063   34.7811   51.0385 H   0  0  0  0  0  0  0  0  0  0  0  0
   65.1911   34.1348   52.7503 H   0  0  0  0  0  0  0  0  0  0  0  0
   66.6475   32.6093   53.2881 H   0  0  0  0  0  0  0  0  0  0  0  0
   67.5220   31.5885   52.0965 H   0  0  0  0  0  0  0  0  0  0  0  0
   67.7560   33.3695   52.0965 H   0  0  0  0  0  0  0  0  0  0  0  0
   67.4594   33.3893   49.9563 H   0  0  0  0  0  0  0  0  0  0  0  0
   66.5052   32.0114   49.3100 H   0  0  0  0  0  0  0  0  0  0  0  0
   65.8064   33.6662   49.3100 H   0  0  0  0  0  0  0  0  0  0  0  0
   65.6807   30.5761   50.9090 H   0  0  0  0  0  0  0  0  0  0  0  0
   64.6897   31.2111   52.2926 H   0  0  0  0  0  0  0  0  0  0  0  0
   64.1070   31.3085   49.3143 H   0  0  0  0  0  0  0  0  0  0  0  0
   63.0759   30.7198   50.6819 H   0  0  0  0  0  0  0  0  0  0  0  0
   63.1356   31.7013   47.2812 H   0  0  0  0  0  0  0  0  0  0  0  0
   61.6472   30.2424   45.9129 H   0  0  0  0  0  0  0  0  0  0  0  0
  1  2  2  0
  2  3  1  0
  3  4  2  3
  4  5  1  0
  5  6  1  0
  6  7  1  0
  7  8  2  0
  7  9  1  0
  9 10  1  0
 10 11  1  0
  3 12  1  0
 12 13  2  0
 13 14  1  0
 13 15  1  0
 15 16  1  0
 16 17  2  0
 17 18  1  0
 18 19  2  0
 19 20  1  0
 20 21  2  0
 20 22  1  0
 22 23  1  0
 23 24  1  0
 24 25  1  0
 25 26  1  0
 25 27  1  0
 25 28  1  0
 28 29  1  0
 19 30  1  0
 30 31  2  0
 15  2  1  0
 31 16  1  0
 10  5  2  0
 29 22  1  0
  1 32  1  0
  1 33  1  0
  4 34  1  0
 12 35  1  0
 14 36  1  0
 14 37  1  0
 14 38  1  0
 17 39  1  0
 18 40  1  0
 23 41  1  0
 23 42  1  0
 24 43  1  0
 24 44  1  0
 26 45  1  0
 26 46  1  0
 26 47  1  0
 27 48  1  0
 27 49  1  0
 27 50  1  0
 28 51  1  0
 28 52  1  0
 29 53  1  0
 29 54  1  0
 30 55  1  0
 31 56  1  0
M  CHG  3   6  -1   9  -1  11  -1
M  END
>  <UniqueID>  (34) 
33

>  <SMILES>  (34) 
C=c1c(=Cc2[n-]c(=O)[n-]c2[O-])cc(C)n1-c1ccc(C(=O)N2CCC(C)(C)CC2)cc1

>  <Energy>  (34) 
140.82285297373602

>  <Genealogy>  (34) 
C=c1c(=Cc2[n-]c(=O)[n-]c2[O-])cc(C)n1-c1ccc(C(=O)N2CCC(C)(C)CC2)cc1 (protonated)
C=c1c(=Cc2[n-]c(=O)[n-]c2[O-])cc(C)n1-c1ccc(C(=O)N2CCC(C)(C)CC2)cc1 (3D coordinates assigned)
C=c1c(=Cc2[n-]c(=O)[n-]c2[O-])cc(C)n1-c1ccc(C(=O)N2CCC(C)(C)CC2)cc1 (nonaromatic ring conformer: 140.82285297373602 kcal/mol)

>  <smiles>  (34) 
C=c1c(=Cc2[nH]c(=O)[nH]c2O)cc(C)n1-c1ccc(C(=O)N2CCC(C)(C)CC2)cc1

>  <score_type>  (34) 
oracle

>  <origin>  (34) 
adg

>  <m_score__min__energy>  (34) 
-16.050000000000001

>  <m_primary>  (34) 
energy

$$$$
34:0
     RDKit          3D

 76 80  0  0  0  0  0  0  0  0999 V2000
   57.6251   24.2252   48.7483 H   0  0  0  0  0  0  0  0  0  0  0  0
   57.0190   24.4190   47.8510 C   0  0  0  0  0  0  0  0  0  0  0  0
   57.0210   25.6560   47.2950 N   0  0  0  0  0  0  0  0  0  0  0  0
   56.2890   25.9660   46.1950 C   0  0  0  0  0  0  0  0  0  0  0  0
   56.3550   27.1870   45.7390 N   0  0  0  0  0  0  0  0  0  0  0  0
   57.3060   27.7770   44.8350 C   0  0  0  0  0  0  0  0  0  0  0  0
   58.0610   27.0500   44.1350 O   0  0  0  0  0  0  0  0  0  0  0  0
   57.4610   29.2510   44.7920 C   0  0  0  0  0  0  0  0  0  0  0  0
   57.7140   29.9760   45.9670 C   0  0  0  0  0  0  0  0  0  0  0  0
   57.7932   29.4461   46.9277 H   0  0  0  0  0  0  0  0  0  0  0  0
   57.8660   31.3620   45.9280 C   0  0  0  0  0  0  0  0  0  0  0  0
   58.0722   31.9122   46.8579 H   0  0  0  0  0  0  0  0  0  0  0  0
   57.7590   32.0640   44.7160 C   0  0  0  0  0  0  0  0  0  0  0  0
   57.9630   33.5630   44.7240 C   0  0  0  0  0  0  0  0  0  0  0  0
   58.3884   33.8750   43.7588 H   0  0  0  0  0  0  0  0  0  0  0  0
   56.9914   34.0519   44.8878 H   0  0  0  0  0  0  0  0  0  0  0  0
   58.8730   33.9530   45.7980 N   0  0  0  0  0  0  0  0  0  0  0  0
   60.1960   33.7000   45.8490 C   0  0  0  0  0  0  0  0  0  0  0  0
   60.7866   33.1676   45.0890 H   0  0  0  0  0  0  0  0  0  0  0  0
   60.6750   34.2330   47.0330 C   0  0  0  0  0  0  0  0  0  0  0  0
   61.9870   34.2200   47.5180 O   0  0  0  0  0  0  0  0  0  0  0  0
   62.6880   33.0250   47.8550 C   0  0  0  0  0  0  0  0  0  0  0  0
   63.3570   32.7515   47.0257 H   0  0  0  0  0  0  0  0  0  0  0  0
   63.2719   33.2008   48.7705 H   0  0  0  0  0  0  0  0  0  0  0  0
   61.7200   31.8990   48.1030 C   0  0  0  0  0  0  0  0  0  0  0  0
   61.5530   30.8940   47.1360 C   0  0  0  0  0  0  0  0  0  0  0  0
   62.1245   30.9364   46.1971 H   0  0  0  0  0  0  0  0  0  0  0  0
   60.6620   29.8390   47.3630 C   0  0  0  0  0  0  0  0  0  0  0  0
   60.5354   29.0534   46.6035 H   0  0  0  0  0  0  0  0  0  0  0  0
   59.9330   29.7830   48.5540 C   0  0  0  0  0  0  0  0  0  0  0  0
   59.0710   28.7580   48.7740 F   0  0  0  0  0  0  0  0  0  0  0  0
   60.0900   30.7820   49.5190 C   0  0  0  0  0  0  0  0  0  0  0  0
   59.5145   30.7368   50.4553 H   0  0  0  0  0  0  0  0  0  0  0  0
   60.9790   31.8400   49.2950 C   0  0  0  0  0  0  0  0  0  0  0  0
   61.0976   32.6271   50.0543 H   0  0  0  0  0  0  0  0  0  0  0  0
   59.5900   34.7970   47.6670 C   0  0  0  0  0  0  0  0  0  0  0  0
   59.6061   35.3142   48.6377 H   0  0  0  0  0  0  0  0  0  0  0  0
   58.5070   34.6050   46.8920 N   0  0  0  0  0  0  0  0  0  0  0  0
   57.5340   34.9190   47.1080 H   0  0  0  0  0  0  0  0  0  0  0  0
   57.5070   31.3450   43.5220 C   0  0  0  0  0  0  0  0  0  0  0  0
   57.4230   32.0350   42.1860 C   0  0  0  0  0  0  0  0  0  0  0  0
   57.2914   33.1163   42.3394 H   0  0  0  0  0  0  0  0  0  0  0  0
   58.3497   31.8549   41.6214 H   0  0  0  0  0  0  0  0  0  0  0  0
   56.5666   31.6378   41.6214 H   0  0  0  0  0  0  0  0  0  0  0  0
   57.3670   29.9460   43.5730 C   0  0  0  0  0  0  0  0  0  0  0  0
   57.1810   29.3867   42.6443 H   0  0  0  0  0  0  0  0  0  0  0  0
   55.4600   24.9760   45.6290 C   0  0  0  0  0  0  0  0  0  0  0  0
   54.8238   25.2205   44.7656 H   0  0  0  0  0  0  0  0  0  0  0  0
   55.4450   23.6770   46.1660 C   0  0  0  0  0  0  0  0  0  0  0  0
   54.4840   22.6720   45.5810 C   0  0  0  0  0  0  0  0  0  0  0  0
   53.9725   22.1371   46.3948 H   0  0  0  0  0  0  0  0  0  0  0  0
   53.7403   23.1938   44.9608 H   0  0  0  0  0  0  0  0  0  0  0  0
   55.0385   21.9523   44.9608 H   0  0  0  0  0  0  0  0  0  0  0  0
   56.2530   23.3840   47.2950 C   0  0  0  0  0  0  0  0  0  0  0  0
   56.2980   22.0130   47.9470 C   0  0  0  0  0  0  0  0  0  0  0  0
   56.2883   21.2545   47.1504 H   0  0  0  0  0  0  0  0  0  0  0  0
   57.2132   21.9895   48.5567 H   0  0  0  0  0  0  0  0  0  0  0  0
   55.1210   21.7140   48.9130 C   0  0  0  0  0  0  0  0  0  0  0  0
   55.6087   21.5420   49.8839 H   0  0  0  0  0  0  0  0  0  0  0  0
   54.3480   20.4400   48.5410 C   0  0  0  0  0  0  0  0  0  0  0  0
   53.7919   20.6126   47.6078 H   0  0  0  0  0  0  0  0  0  0  0  0
   55.0626   19.6145   48.4071 H   0  0  0  0  0  0  0  0  0  0  0  0
   53.3570   20.0680   49.6620 C   0  0  0  0  0  0  0  0  0  0  0  0
   52.5922   19.4001   49.2391 H   0  0  0  0  0  0  0  0  0  0  0  0
   53.9453   19.5901   50.4592 H   0  0  0  0  0  0  0  0  0  0  0  0
   52.6690   21.2350   50.2780 N   0  0  0  0  0  0  0  0  0  0  0  0
   53.0990   21.4810   51.6640 C   0  0  0  0  0  0  0  0  0  0  0  0
   52.3584   21.0573   52.3583 H   0  0  0  0  0  0  0  0  0  0  0  0
   54.0759   21.0052   51.8347 H   0  0  0  0  0  0  0  0  0  0  0  0
   53.1840   22.5643   51.8347 H   0  0  0  0  0  0  0  0  0  0  0  0
   52.7120   22.4600   49.4560 C   0  0  0  0  0  0  0  0  0  0  0  0
   52.1632   22.2733   48.5212 H   0  0  0  0  0  0  0  0  0  0  0  0
   52.2564   23.2675   50.0480 H   0  0  0  0  0  0  0  0  0  0  0  0
   54.1480   22.9040   49.1020 C   0  0  0  0  0  0  0  0  0  0  0  0
   54.1155   23.4820   48.1666 H   0  0  0  0  0  0  0  0  0  0  0  0
   54.5231   23.5048   49.9436 H   0  0  0  0  0  0  0  0  0  0  0  0
  1  2  1  0
  2  3  1  0
  3  4  1  0
  4  5  2  0
  5  6  1  0
  6  7  2  0
  6  8  1  0
  8  9  2  0
  9 10  1  0
  9 11  1  0
 11 12  1  0
 11 13  2  0
 13 14  1  0
 14 15  1  0
 14 16  1  0
 14 17  1  0
 17 18  1  0
 18 19  1  0
 18 20  2  0
 20 21  1  0
 21 22  1  0
 22 23  1  0
 22 24  1  0
 22 25  1  0
 25 26  2  0
 26 27  1  0
 26 28  1  0
 28 29  1  0
 28 30  2  0
 30 31  1  0
 30 32  1  0
 32 33  1  0
 32 34  2  0
 34 35  1  0
 20 36  1  0
 36 37  1  0
 36 38  2  0
 38 39  1  0
 13 40  1  0
 40 41  1  0
 41 42  1  0
 41 43  1  0
 41 44  1  0
 40 45  2  0
 45 46  1  0
  4 47  1  0
 47 48  1  0
 47 49  2  0
 49 50  1  0
 50 51  1  0
 50 52  1  0
 50 53  1  0
 49 54  1  0
 54 55  1  0
 55 56  1  0
 55 57  1  0
 55 58  1  0
 58 59  1  0
 58 60  1  0
 60 61  1  0
 60 62  1  0
 60 63  1  0
 63 64  1  0
 63 65  1  0
 63 66  1  0
 66 67  1  0
 67 68  1  0
 67 69  1  0
 67 70  1  0
 66 71  1  0
 71 72  1  0
 71 73  1  0
 71 74  1  0
 74 75  1  0
 74 76  1  0
 54  2  2  0
 74 58  1  0
 45  8  1  0
 38 17  1  0
 34 25  1  0
M  CHG  2   3  -1  38   1
M  END
>  <UniqueID>  (35) 
34

>  <SMILES>  (35) 
Cc1c/c(=N\C(=O)c2ccc(Cn3cc(OCc4ccc(F)cc4)c[nH+]3)c(C)c2)[n-]cc1CC1CCN(C)CC1

>  <Energy>  (35) 
130.03194236223607

>  <Genealogy>  (35) 
Cc1cc(=NC(=O)c2ccc(Cn3cc(OCc4ccc(F)cc4)c[nH+]3)c(C)c2)[n-]cc1CC1CCN(C)CC1 (protonated)
Cc1c/c(=N\C(=O)c2ccc(Cn3cc(OCc4ccc(F)cc4)c[nH+]3)c(C)c2)[n-]cc1CC1CCN(C)CC1 (cis-trans isomerization)
Cc1c/c(=N\C(=O)c2ccc(Cn3cc(OCc4ccc(F)cc4)c[nH+]3)c(C)c2)[n-]cc1CC1CCN(C)CC1 (3D coordinates assigned)
Cc1c/c(=N\C(=O)c2ccc(Cn3cc(OCc4ccc(F)cc4)c[nH+]3)c(C)c2)[n-]cc1CC1CCN(C)CC1 (nonaromatic ring conformer: 130.03194236223607 kcal/mol)

>  <smiles>  (35) 
Cc1cc(=NC(=O)c2ccc(Cn3cc(OCc4ccc(F)cc4)cn3)c(C)c2)[nH]cc1CC1CCN(C)CC1

>  <score_type>  (35) 
oracle

>  <origin>  (35) 
adg

>  <m_score__min__energy>  (35) 
-10.41

>  <m_primary>  (35) 
energy

$$$$
35:0
     RDKit          3D

 69 72  0  0  0  0  0  0  0  0999 V2000
   58.9260   22.9660   45.1510 C   0  0  0  0  0  0  0  0  0  0  0  0
   57.8750   23.6600   44.2850 C   0  0  0  0  0  0  0  0  0  0  0  0
   56.5090   23.6120   44.9250 C   0  0  0  0  0  0  0  0  0  0  0  0
   55.8520   24.6560   45.5720 C   0  0  0  0  0  0  0  0  0  0  0  0
   56.3360   26.0350   45.7670 C   0  0  0  0  0  0  0  0  0  0  0  0
   55.9000   26.7040   46.7410 O   0  0  0  0  0  0  0  0  0  0  0  0
   57.2590   26.6420   44.8550 N   0  0  0  0  0  0  0  0  0  0  0  0
   58.3130   27.4980   45.3170 C   0  0  0  0  0  0  0  0  0  0  0  0
   59.0890   28.2190   44.4020 C   0  0  0  0  0  0  0  0  0  0  0  0
   60.1090   29.0600   44.8600 C   0  0  0  0  0  0  0  0  0  0  0  0
   60.3610   29.1810   46.2310 C   0  0  0  0  0  0  0  0  0  0  0  0
   59.5990   28.4520   47.1600 C   0  0  0  0  0  0  0  0  0  0  0  0
   59.8840   28.5530   48.6130 C   0  0  0  0  0  0  0  0  0  0  0  0
   60.8210   27.8760   49.1080 O   0  0  0  0  0  0  0  0  0  0  0  0
   59.0650   29.3400   49.4930 N   0  0  0  0  0  0  0  0  0  0  0  0
   59.1010   30.7700   49.5830 C   0  0  0  0  0  0  0  0  0  0  0  0
   58.9580   31.4240   50.8160 C   0  0  0  0  0  0  0  0  0  0  0  0
   59.0550   32.8150   50.8860 C   0  0  0  0  0  0  0  0  0  0  0  0
   59.3000   33.5610   49.7300 C   0  0  0  0  0  0  0  0  0  0  0  0
   59.4400   32.9180   48.4920 C   0  0  0  0  0  0  0  0  0  0  0  0
   59.7780   33.8540   47.0340 S   0  0  0  0  0  0  0  0  0  0  0  0
   60.0410   35.2850   47.4140 O   0  0  0  0  0  0  0  0  0  0  0  0
   61.0220   33.3130   46.3840 O   0  0  0  0  0  0  0  0  0  0  0  0
   58.4450   33.8010   45.8990 N   0  0  0  0  0  0  0  0  0  0  0  0
   57.4770   32.7280   46.2260 C   0  0  0  0  0  0  0  0  0  0  0  0
   57.7620   31.3970   45.5050 C   0  0  0  0  0  0  0  0  0  0  0  0
   58.0300   31.5550   43.9930 C   0  0  0  0  0  0  0  0  0  0  0  0
   58.0420   33.0190   43.5470 C   0  0  0  0  0  0  0  0  0  0  0  0
   58.9200   33.8390   44.4960 C   0  0  0  0  0  0  0  0  0  0  0  0
   59.3280   31.5220   48.4240 C   0  0  0  0  0  0  0  0  0  0  0  0
   58.6000   27.5850   46.6850 C   0  0  0  0  0  0  0  0  0  0  0  0
   54.7200   24.2010   46.1430 N   0  0  0  0  0  0  0  0  0  0  0  0
   54.6210   22.8890   45.8630 C   0  0  0  0  0  0  0  0  0  0  0  0
   53.4560   22.0530   46.2980 C   0  0  0  0  0  0  0  0  0  0  0  0
   55.7230   22.4730   45.1200 C   0  0  0  0  0  0  0  0  0  0  0  0
   56.0530   21.0930   44.6900 C   0  0  0  0  0  0  0  0  0  0  0  0
   56.5770   20.0720   45.6550 C   0  0  0  0  0  0  0  0  0  0  0  0
   55.9290   20.7690   43.4800 O   0  0  0  0  0  0  0  0  0  0  0  0
   58.6878   23.1233   46.2133 H   0  0  0  0  0  0  0  0  0  0  0  0
   58.9284   21.8881   44.9315 H   0  0  0  0  0  0  0  0  0  0  0  0
   59.9182   23.3871   44.9315 H   0  0  0  0  0  0  0  0  0  0  0  0
   58.1664   24.7112   44.1436 H   0  0  0  0  0  0  0  0  0  0  0  0
   57.8219   23.1342   43.3203 H   0  0  0  0  0  0  0  0  0  0  0  0
   57.0990   26.5350   43.8280 H   0  0  0  0  0  0  0  0  0  0  0  0
   58.8969   28.1244   43.3230 H   0  0  0  0  0  0  0  0  0  0  0  0
   60.7153   29.6284   44.1394 H   0  0  0  0  0  0  0  0  0  0  0  0
   61.1597   29.8502   46.5835 H   0  0  0  0  0  0  0  0  0  0  0  0
   58.7692   30.8400   51.7288 H   0  0  0  0  0  0  0  0  0  0  0  0
   58.9383   33.3251   51.8536 H   0  0  0  0  0  0  0  0  0  0  0  0
   59.3833   34.6561   49.7916 H   0  0  0  0  0  0  0  0  0  0  0  0
   57.5098   32.5494   47.3109 H   0  0  0  0  0  0  0  0  0  0  0  0
   56.4886   33.0722   45.8873 H   0  0  0  0  0  0  0  0  0  0  0  0
   58.6459   30.9337   45.9678 H   0  0  0  0  0  0  0  0  0  0  0  0
   56.8600   30.7760   45.6083 H   0  0  0  0  0  0  0  0  0  0  0  0
   59.0075   31.1077   43.7599 H   0  0  0  0  0  0  0  0  0  0  0  0
   57.2140   31.0498   43.4555 H   0  0  0  0  0  0  0  0  0  0  0  0
   58.4445   33.0870   42.5256 H   0  0  0  0  0  0  0  0  0  0  0  0
   57.0158   33.4146   43.5661 H   0  0  0  0  0  0  0  0  0  0  0  0
   59.9438   33.4383   44.4612 H   0  0  0  0  0  0  0  0  0  0  0  0
   58.8785   34.8862   44.1618 H   0  0  0  0  0  0  0  0  0  0  0  0
   59.4192   31.0138   47.4527 H   0  0  0  0  0  0  0  0  0  0  0  0
   58.0355   26.9660   47.3979 H   0  0  0  0  0  0  0  0  0  0  0  0
   54.0460   24.7610   46.7110 H   0  0  0  0  0  0  0  0  0  0  0  0
   53.4155   22.0240   47.3969 H   0  0  0  0  0  0  0  0  0  0  0  0
   52.5250   22.4904   45.9082 H   0  0  0  0  0  0  0  0  0  0  0  0
   53.5723   21.0310   45.9082 H   0  0  0  0  0  0  0  0  0  0  0  0
   56.4004   20.4161   46.6847 H   0  0  0  0  0  0  0  0  0  0  0  0
   56.0585   19.1153   45.4941 H   0  0  0  0  0  0  0  0  0  0  0  0
   57.6566   19.9355   45.4941 H   0  0  0  0  0  0  0  0  0  0  0  0
  1  2  1  0
  2  3  1  0
  3  4  2  0
  4  5  1  0
  5  6  2  0
  5  7  1  0
  7  8  1  0
  8  9  2  0
  9 10  1  0
 10 11  2  0
 11 12  1  0
 12 13  1  0
 13 14  2  0
 13 15  1  0
 15 16  1  0
 16 17  2  0
 17 18  1  0
 18 19  2  0
 19 20  1  0
 20 21  1  0
 21 22  2  0
 21 23  2  0
 21 24  1  0
 24 25  1  0
 25 26  1  0
 26 27  1  0
 27 28  1  0
 28 29  1  0
 20 30  2  0
 12 31  2  0
  4 32  1  0
 32 33  1  0
 33 34  1  0
 33 35  2  0
 35 36  1  0
 36 37  1  0
 36 38  2  0
 35  3  1  0
 31  8  1  0
 30 16  1  0
 29 24  1  0
  1 39  1  0
  1 40  1  0
  1 41  1  0
  2 42  1  0
  2 43  1  0
  7 44  1  0
  9 45  1  0
 10 46  1  0
 11 47  1  0
 17 48  1  0
 18 49  1  0
 19 50  1  0
 25 51  1  0
 25 52  1  0
 26 53  1  0
 26 54  1  0
 27 55  1  0
 27 56  1  0
 28 57  1  0
 28 58  1  0
 29 59  1  0
 29 60  1  0
 30 61  1  0
 31 62  1  0
 32 63  1  0
 34 64  1  0
 34 65  1  0
 34 66  1  0
 37 67  1  0
 37 68  1  0
 37 69  1  0
M  CHG  1  15  -1
M  END
>  <UniqueID>  (36) 
35

>  <SMILES>  (36) 
CCc1c(C(=O)Nc2cccc(C(=O)[N-]c3cccc(S(=O)(=O)N4CCCCC4)c3)c2)[nH]c(C)c1C(C)=O

>  <Energy>  (36) 
114.72540827125403

>  <Genealogy>  (36) 
CCc1c(C(=O)Nc2cccc(C(=O)[N-]c3cccc(S(=O)(=O)N4CCCCC4)c3)c2)[nH]c(C)c1C(C)=O (protonated)
CCc1c(C(=O)Nc2cccc(C(=O)[N-]c3cccc(S(=O)(=O)N4CCCCC4)c3)c2)[nH]c(C)c1C(C)=O (3D coordinates assigned)
CCc1c(C(=O)Nc2cccc(C(=O)[N-]c3cccc(S(=O)(=O)N4CCCCC4)c3)c2)[nH]c(C)c1C(C)=O (nonaromatic ring conformer: 114.72540827125403 kcal/mol)

>  <smiles>  (36) 
CCc1c(C(=O)Nc2cccc(C(=O)Nc3cccc(S(=O)(=O)N4CCCCC4)c3)c2)[nH]c(C)c1C(C)=O

>  <score_type>  (36) 
oracle

>  <origin>  (36) 
adg

>  <m_score__min__energy>  (36) 
-12.67

>  <m_primary>  (36) 
energy

$$$$
36:0
     RDKit          3D

 66 70  0  0  1  0  0  0  0  0999 V2000
   56.3290   29.3920   42.6250 C   0  0  0  0  0  0  0  0  0  0  0  0
   57.1040   29.2060   43.8660 C   0  0  0  0  0  0  0  0  0  0  0  0
   57.8630   28.0770   44.0940 C   0  0  0  0  0  0  0  0  0  0  0  0
   58.5690   27.9280   45.2460 N   0  0  0  0  0  0  0  0  0  0  0  0
   58.5490   28.8890   46.2130 C   0  0  0  0  0  0  0  0  0  0  0  0
   59.3000   28.7430   47.4530 C   0  0  0  0  0  0  0  0  0  0  0  0
   59.7630   27.4780   47.8300 C   0  0  0  0  0  0  0  0  0  0  0  0
   60.4740   27.3510   49.0140 C   0  0  0  0  0  0  0  0  0  0  0  0
   60.7460   28.4220   49.8380 C   0  0  0  0  0  0  0  0  0  0  0  0
   60.2880   29.6360   49.4490 N   0  0  0  0  0  0  0  0  0  0  0  0
   59.5950   29.7750   48.3020 C   0  0  0  0  0  0  0  0  0  0  0  0
   57.8140   30.0040   46.0160 N   0  0  0  0  0  0  0  0  0  0  0  0
   57.1110   30.1680   44.8830 C   0  0  0  0  0  0  0  0  0  0  0  0
   56.3980   31.2170   44.6520 N   0  0  0  0  0  0  0  0  0  0  0  0
   57.0280   32.4790   44.2780 C   0  0  0  0  0  0  0  0  0  0  0  0
   57.9130   32.8230   45.4390 C   0  0  0  0  0  0  0  0  0  0  0  0
   59.2450   32.4980   45.3100 C   0  0  0  0  0  0  0  0  0  0  0  0
   60.1050   32.7930   46.3450 C   0  0  0  0  0  0  0  0  0  0  0  0
   59.6740   33.3940   47.4890 C   0  0  0  0  0  0  0  0  0  0  0  0
   60.5600   33.7480   48.6090 C   0  0  0  0  0  0  0  0  0  0  0  0
   60.9310   34.9390   48.8140 O   0  0  0  0  0  0  0  0  0  0  0  0
   61.0210   32.7480   49.4890 N   0  0  0  0  0  0  0  0  0  0  0  0
   61.8940   33.0300   50.6050 C   0  0  0  0  0  0  0  0  0  0  0  0
   61.3220   32.8240   51.8520 C   0  0  0  0  0  0  0  0  0  0  0  0
   62.0540   33.0730   53.0130 C   0  0  0  0  0  0  0  0  0  0  0  0
   63.3460   33.5240   52.8460 C   0  0  0  0  0  0  0  0  0  0  0  0
   63.9080   33.7280   51.5890 C   0  0  0  0  0  0  0  0  0  0  0  0
   65.2720   34.2210   51.5480 C   0  0  0  0  0  0  0  0  0  0  0  0
   65.5860   35.3260   52.0580 O   0  0  0  0  0  0  0  0  0  0  0  0
   66.3070   33.4520   50.9180 N   0  0  0  0  0  0  0  0  0  0  0  0
   66.0610   32.1710   50.2910 C   0  0  0  0  0  0  0  0  0  0  0  0
   67.1200   31.2330   50.8280 C   0  0  0  0  0  0  0  0  0  0  0  0
   67.7830   31.7600   51.9300 O   0  0  0  0  0  0  0  0  0  0  0  0
   68.5120   32.9100   51.6250 C   0  0  0  0  0  0  0  0  0  0  0  0
   67.6890   33.9380   50.8870 C   0  0  0  0  0  0  0  0  0  0  0  0
   63.1810   33.4810   50.4300 C   0  0  0  0  0  0  0  0  0  0  0  0
   58.3280   33.7030   47.5780 C   0  0  0  0  0  0  0  0  0  0  0  0
   57.4210   33.4340   46.5790 C   0  0  0  0  0  0  0  0  0  0  0  0
   55.2878   29.6419   42.8769 H   0  0  0  0  0  0  0  0  0  0  0  0
   56.7702   30.2098   42.0363 H   0  0  0  0  0  0  0  0  0  0  0  0
   56.3510   28.4631   42.0363 H   0  0  0  0  0  0  0  0  0  0  0  0
   57.8975   27.2848   43.3316 H   0  0  0  0  0  0  0  0  0  0  0  0
   59.1110   27.0670   45.3490 H   0  0  0  0  0  0  0  0  0  0  0  0
   59.5666   26.5992   47.1983 H   0  0  0  0  0  0  0  0  0  0  0  0
   60.8358   26.3545   49.3076 H   0  0  0  0  0  0  0  0  0  0  0  0
   61.3117   28.2960   50.7730 H   0  0  0  0  0  0  0  0  0  0  0  0
   59.2441   30.7816   48.0308 H   0  0  0  0  0  0  0  0  0  0  0  0
   57.6220   32.3587   43.3600 H   0  0  0  0  0  0  0  0  0  0  0  0
   56.2891   33.2671   44.0708 H   0  0  0  0  0  0  0  0  0  0  0  0
   59.6160   32.0111   44.3960 H   0  0  0  0  0  0  0  0  0  0  0  0
   61.1698   32.5360   46.2448 H   0  0  0  0  0  0  0  0  0  0  0  0
   60.7670   31.7350   49.3950 H   0  0  0  0  0  0  0  0  0  0  0  0
   60.2857   32.4624   51.9256 H   0  0  0  0  0  0  0  0  0  0  0  0
   61.6217   32.9172   54.0124 H   0  0  0  0  0  0  0  0  0  0  0  0
   63.9549   33.7301   53.7386 H   0  0  0  0  0  0  0  0  0  0  0  0
   65.0575   31.8041   50.5524 H   0  0  0  0  0  0  0  0  0  0  0  0
   66.1064   32.2441   49.1944 H   0  0  0  0  0  0  0  0  0  0  0  0
   66.6392   30.2887   51.1230 H   0  0  0  0  0  0  0  0  0  0  0  0
   67.8633   31.0747   50.0327 H   0  0  0  0  0  0  0  0  0  0  0  0
   68.8755   33.3561   52.5625 H   0  0  0  0  0  0  0  0  0  0  0  0
   69.3436   32.6140   50.9686 H   0  0  0  0  0  0  0  0  0  0  0  0
   67.7612   34.9151   51.3871 H   0  0  0  0  0  0  0  0  0  0  0  0
   68.0447   34.0711   49.8546 H   0  0  0  0  0  0  0  0  0  0  0  0
   63.6110   33.6375   49.4297 H   0  0  0  0  0  0  0  0  0  0  0  0
   57.9643   34.1890   48.4953 H   0  0  0  0  0  0  0  0  0  0  0  0
   56.3566   33.6920   46.6815 H   0  0  0  0  0  0  0  0  0  0  0  0
  1  2  1  0
  2  3  2  0
  3  4  1  0
  4  5  1  0
  5  6  1  0
  6  7  2  0
  7  8  1  0
  8  9  2  0
  9 10  1  0
 10 11  2  0
  5 12  2  0
 12 13  1  0
 13 14  2  0
 14 15  1  0
 15 16  1  0
 16 17  2  0
 17 18  1  0
 18 19  2  0
 19 20  1  0
 20 21  2  0
 20 22  1  0
 22 23  1  0
 23 24  2  0
 24 25  1  0
 25 26  2  0
 26 27  1  0
 27 28  1  0
 28 29  2  0
 28 30  1  0
 30 31  1  0
 31 32  1  0
 32 33  1  0
 33 34  1  0
 34 35  1  0
 27 36  2  0
 19 37  1  0
 37 38  2  0
 13  2  1  0
 38 16  1  0
 11  6  1  0
 36 23  1  0
 35 30  1  0
  1 39  1  0
  1 40  1  0
  1 41  1  0
  3 42  1  0
  4 43  1  0
  7 44  1  0
  8 45  1  0
  9 46  1  0
 11 47  1  0
 15 48  1  0
 15 49  1  0
 17 50  1  0
 18 51  1  0
 22 52  1  0
 24 53  1  0
 25 54  1  0
 26 55  1  0
 31 56  1  0
 31 57  1  0
 32 58  1  0
 32 59  1  0
 34 60  1  0
 34 61  1  0
 35 62  1  0
 35 63  1  0
 36 64  1  0
 37 65  1  0
 38 66  1  0
M  END
>  <smiles>  (37) 
Cc1c[nH]c(-c2cccnc2)nc1=NCc1ccc(C(=O)Nc2cccc(C(=O)N3CCOCC3)c2)cc1

>  <score_type>  (37) 
oracle

>  <origin>  (37) 
adg

>  <m_score__min__energy>  (37) 
-10.31

>  <m_primary>  (37) 
energy

$$$$
37:0
     RDKit          3D

 42 44  0  0  0  0  0  0  0  0999 V2000
   57.0080   21.0110   42.9890 C   0  0  0  0  0  0  0  0  0  0  0  0
   55.9700   21.9520   43.2390 O   0  0  0  0  0  0  0  0  0  0  0  0
   56.1460   23.1630   43.9260 C   0  0  0  0  0  0  0  0  0  0  0  0
   57.3320   23.9160   43.8350 C   0  0  0  0  0  0  0  0  0  0  0  0
   57.4590   25.1190   44.5380 C   0  0  0  0  0  0  0  0  0  0  0  0
   56.3990   25.5930   45.3320 C   0  0  0  0  0  0  0  0  0  0  0  0
   56.4820   26.7850   46.0640 O   0  0  0  0  0  0  0  0  0  0  0  0
   56.9550   28.0110   45.5820 C   0  0  0  0  0  0  0  0  0  0  0  0
   56.1520   28.9320   45.2770 O   0  0  0  0  0  0  0  0  0  0  0  0
   58.3610   28.2640   45.4980 N   0  0  0  0  0  0  0  0  0  0  0  0
   59.0840   29.4520   45.9660 C   0  0  2  0  0  0  0  0  0  0  0  0
   58.9220   29.6580   47.4960 C   0  0  0  0  0  0  0  0  0  0  0  0
   59.2820   31.0910   47.9420 C   0  0  0  0  0  0  0  0  0  0  0  0
   58.5570   32.1120   47.0950 C   0  0  0  0  0  0  0  0  0  0  0  0
   58.4860   33.2740   47.4670 O   0  0  0  0  0  0  0  0  0  0  0  0
   57.8930   31.6690   45.8880 N   0  0  1  0  0  0  0  0  0  0  0  0
   57.5800   32.7120   44.9050 C   0  0  0  0  0  0  0  0  0  0  0  0
   57.5420   32.0100   43.5400 C   0  0  0  0  0  0  0  0  0  0  0  0
   58.1710   30.6330   43.7640 C   0  0  0  0  0  0  0  0  0  0  0  0
   58.7710   30.7510   45.1590 C   0  0  2  0  0  0  0  0  0  0  0  0
   55.2310   24.8310   45.4340 C   0  0  0  0  0  0  0  0  0  0  0  0
   55.1020   23.6300   44.7320 C   0  0  0  0  0  0  0  0  0  0  0  0
   57.4104   20.6462   43.9456 H   0  0  0  0  0  0  0  0  0  0  0  0
   56.6047   20.1643   42.4141 H   0  0  0  0  0  0  0  0  0  0  0  0
   57.8112   21.4952   42.4141 H   0  0  0  0  0  0  0  0  0  0  0  0
   58.1621   23.5572   43.2087 H   0  0  0  0  0  0  0  0  0  0  0  0
   58.3924   25.6970   44.4695 H   0  0  0  0  0  0  0  0  0  0  0  0
   60.1459   29.2453   45.7667 H   0  0  0  0  0  0  0  0  0  0  0  0
   57.8761   29.4557   47.7702 H   0  0  0  0  0  0  0  0  0  0  0  0
   59.6138   28.9677   48.0008 H   0  0  0  0  0  0  0  0  0  0  0  0
   58.9933   31.2248   48.9950 H   0  0  0  0  0  0  0  0  0  0  0  0
   60.3656   31.2371   47.8220 H   0  0  0  0  0  0  0  0  0  0  0  0
   57.0030   31.1950   46.1590 H   0  0  0  0  0  0  0  0  0  0  0  0
   56.6036   33.1668   45.1281 H   0  0  0  0  0  0  0  0  0  0  0  0
   58.3274   33.5189   44.9222 H   0  0  0  0  0  0  0  0  0  0  0  0
   56.5039   31.9052   43.1915 H   0  0  0  0  0  0  0  0  0  0  0  0
   58.0838   32.5837   42.7736 H   0  0  0  0  0  0  0  0  0  0  0  0
   57.4094   29.8401   43.7273 H   0  0  0  0  0  0  0  0  0  0  0  0
   58.9114   30.3653   42.9958 H   0  0  0  0  0  0  0  0  0  0  0  0
   59.8000   31.1181   45.0307 H   0  0  0  0  0  0  0  0  0  0  0  0
   54.4063   25.1803   46.0727 H   0  0  0  0  0  0  0  0  0  0  0  0
   54.1727   23.0472   44.8136 H   0  0  0  0  0  0  0  0  0  0  0  0
  1  2  1  0
  2  3  1  0
  3  4  2  0
  4  5  1  0
  5  6  2  0
  6  7  1  0
  7  8  1  0
  8  9  2  0
  8 10  1  0
 10 11  1  0
 11 12  1  0
 12 13  1  0
 13 14  1  0
 14 15  2  0
 14 16  1  0
 16 17  1  0
 17 18  1  0
 18 19  1  0
 19 20  1  0
  6 21  1  0
 21 22  2  0
 22  3  1  0
 20 11  1  0
 20 16  1  0
  1 23  1  0
  1 24  1  0
  1 25  1  0
  4 26  1  0
  5 27  1  0
 11 28  1  1
 12 29  1  0
 12 30  1  0
 13 31  1  0
 13 32  1  0
 16 33  1  1
 17 34  1  0
 17 35  1  0
 18 36  1  0
 18 37  1  0
 19 38  1  0
 19 39  1  0
 20 40  1  6
 21 41  1  0
 22 42  1  0
M  CHG  2  10  -1  16   1
M  END
>  <UniqueID>  (38) 
36

>  <SMILES>  (38) 
COc1ccc(OC(=O)[N-][C@@H]2CCC(=O)[N@H+]3CCCC23)cc1

>  <Energy>  (38) 
60.74837256704334

>  <Genealogy>  (38) 
COc1ccc(OC(=O)[N-]C2CCC(=O)[NH+]3CCCC23)cc1 (protonated)
COc1ccc(OC(=O)[N-][C@@H]2CCC(=O)[N@H+]3CCCC23)cc1 (chirality)
COc1ccc(OC(=O)[N-][C@@H]2CCC(=O)[N@H+]3CCCC23)cc1 (3D coordinates assigned)
COc1ccc(OC(=O)[N-][C@@H]2CCC(=O)[N@H+]3CCCC23)cc1 (nonaromatic ring conformer: 60.74837256704334 kcal/mol)

>  <smiles>  (38) 
COc1ccc(OC(=O)NC2CCC(=O)N3CCCC23)cc1

>  <score_type>  (38) 
oracle

>  <origin>  (38) 
adg

>  <m_score__min__energy>  (38) 
-6.8300000000000001

>  <m_primary>  (38) 
energy

$$$$
38:0
     RDKit          3D

 49 52  0  0  0  0  0  0  0  0999 V2000
   55.0560   23.0000   44.6560 C   0  0  0  0  0  0  0  0  0  0  0  0
   56.5530   23.0160   44.8440 C   0  0  0  0  0  0  0  0  0  0  0  0
   57.3740   22.1970   44.0340 C   0  0  0  0  0  0  0  0  0  0  0  0
   56.7110   21.2110   42.7320 Cl  0  0  0  0  0  0  0  0  0  0  0  0
   58.7560   22.1510   44.2540 C   0  0  0  0  0  0  0  0  0  0  0  0
   59.3340   22.9150   45.2660 C   0  0  0  0  0  0  0  0  0  0  0  0
   58.5410   23.7530   46.0490 C   0  0  0  0  0  0  0  0  0  0  0  0
   57.1630   23.8430   45.8240 C   0  0  0  0  0  0  0  0  0  0  0  0
   56.4070   24.7560   46.6300 N   0  0  0  0  0  0  0  0  0  0  0  0
   56.0280   26.0710   46.2120 C   0  0  0  0  0  0  0  0  0  0  0  0
   54.8150   26.3380   45.9930 O   0  0  0  0  0  0  0  0  0  0  0  0
   57.0470   27.1190   46.0110 C   0  0  0  0  0  0  0  0  0  0  0  0
   56.9550   28.1640   45.0940 C   0  0  0  0  0  0  0  0  0  0  0  0
   58.0520   28.9520   45.1660 N   0  0  0  0  0  0  0  0  0  0  0  0
   58.2910   30.1670   44.3850 C   0  0  0  0  0  0  0  0  0  0  0  0
   57.5180   31.3210   44.9630 C   0  0  0  0  0  0  0  0  0  0  0  0
   56.2790   31.3950   44.7390 O   0  0  0  0  0  0  0  0  0  0  0  0
   58.1640   32.3580   45.7250 N   0  0  0  0  0  0  0  0  0  0  0  0
   57.4290   33.4420   46.3540 C   0  0  0  0  0  0  0  0  0  0  0  0
   58.4610   34.2400   47.1380 C   0  0  0  0  0  0  0  0  0  0  0  0
   59.8200   33.8280   46.5760 C   0  0  0  0  0  0  0  0  0  0  0  0
   59.6010   32.4760   45.9100 C   0  0  0  0  0  0  0  0  0  0  0  0
   58.8370   28.4270   46.1280 C   0  0  0  0  0  0  0  0  0  0  0  0
   60.0710   28.9050   46.5790 C   0  0  0  0  0  0  0  0  0  0  0  0
   60.7180   28.1960   47.6050 C   0  0  0  0  0  0  0  0  0  0  0  0
   60.1290   27.0400   48.1560 C   0  0  0  0  0  0  0  0  0  0  0  0
   58.8840   26.5810   47.6900 C   0  0  0  0  0  0  0  0  0  0  0  0
   58.2580   27.3010   46.6680 C   0  0  0  0  0  0  0  0  0  0  0  0
   54.5630   22.9947   45.6393 H   0  0  0  0  0  0  0  0  0  0  0  0
   54.7472   23.8949   44.0958 H   0  0  0  0  0  0  0  0  0  0  0  0
   54.7664   22.0987   44.0958 H   0  0  0  0  0  0  0  0  0  0  0  0
   59.3890   21.5082   43.6245 H   0  0  0  0  0  0  0  0  0  0  0  0
   60.4174   22.8569   45.4474 H   0  0  0  0  0  0  0  0  0  0  0  0
   59.0027   24.3484   46.8504 H   0  0  0  0  0  0  0  0  0  0  0  0
   56.1099   28.3253   44.4086 H   0  0  0  0  0  0  0  0  0  0  0  0
   59.3649   30.4044   44.4032 H   0  0  0  0  0  0  0  0  0  0  0  0
   57.9595   29.9975   43.3499 H   0  0  0  0  0  0  0  0  0  0  0  0
   56.9530   34.0757   45.5912 H   0  0  0  0  0  0  0  0  0  0  0  0
   56.6277   33.0641   47.0060 H   0  0  0  0  0  0  0  0  0  0  0  0
   58.2991   35.3188   46.9967 H   0  0  0  0  0  0  0  0  0  0  0  0
   58.3920   34.0408   48.2176 H   0  0  0  0  0  0  0  0  0  0  0  0
   60.1694   34.5660   45.8389 H   0  0  0  0  0  0  0  0  0  0  0  0
   60.5842   33.7715   47.3652 H   0  0  0  0  0  0  0  0  0  0  0  0
   60.1172   32.4383   44.9394 H   0  0  0  0  0  0  0  0  0  0  0  0
   60.0012   31.6528   46.5201 H   0  0  0  0  0  0  0  0  0  0  0  0
   60.5218   29.8090   46.1436 H   0  0  0  0  0  0  0  0  0  0  0  0
   61.6909   28.5454   47.9809 H   0  0  0  0  0  0  0  0  0  0  0  0
   60.6473   26.4925   48.9570 H   0  0  0  0  0  0  0  0  0  0  0  0
   58.4163   25.6817   48.1172 H   0  0  0  0  0  0  0  0  0  0  0  0
  1  2  1  0
  2  3  2  0
  3  4  1  0
  3  5  1  0
  5  6  2  0
  6  7  1  0
  7  8  2  0
  8  9  1  0
  9 10  1  0
 10 11  2  0
 10 12  1  0
 12 13  2  0
 13 14  1  0
 14 15  1  0
 15 16  1  0
 16 17  2  0
 16 18  1  0
 18 19  1  0
 19 20  1  0
 20 21  1  0
 21 22  1  0
 14 23  1  0
 23 24  2  0
 24 25  1  0
 25 26  2  0
 26 27  1  0
 27 28  2  0
  8  2  1  0
 28 12  1  0
 22 18  1  0
 28 23  1  0
  1 29  1  0
  1 30  1  0
  1 31  1  0
  5 32  1  0
  6 33  1  0
  7 34  1  0
 13 35  1  0
 15 36  1  0
 15 37  1  0
 19 38  1  0
 19 39  1  0
 20 40  1  0
 20 41  1  0
 21 42  1  0
 21 43  1  0
 22 44  1  0
 22 45  1  0
 24 46  1  0
 25 47  1  0
 26 48  1  0
 27 49  1  0
M  CHG  1   9  -1
M  END
>  <UniqueID>  (39) 
37

>  <SMILES>  (39) 
Cc1c(Cl)cccc1[N-]C(=O)c1cn(CC(=O)N2CCCC2)c2ccccc12

>  <Energy>  (39) 
92.55468195203585

>  <Genealogy>  (39) 
Cc1c(Cl)cccc1[N-]C(=O)c1cn(CC(=O)N2CCCC2)c2ccccc12 (protonated)
Cc1c(Cl)cccc1[N-]C(=O)c1cn(CC(=O)N2CCCC2)c2ccccc12 (3D coordinates assigned)
Cc1c(Cl)cccc1[N-]C(=O)c1cn(CC(=O)N2CCCC2)c2ccccc12 (nonaromatic ring conformer: 92.55468195203585 kcal/mol)

>  <smiles>  (39) 
Cc1c(Cl)cccc1NC(=O)c1cn(CC(=O)N2CCCC2)c2ccccc12

>  <score_type>  (39) 
oracle

>  <origin>  (39) 
adg

>  <m_score__min__energy>  (39) 
-10.609999999999999

>  <m_primary>  (39) 
energy

$$$$
39:0
     RDKit          3D

 45 47  0  0  0  0  0  0  0  0999 V2000
   61.1970   32.8010   47.0990 C   0  0  0  0  0  0  0  0  0  0  0  0
   60.4970   34.0660   47.3850 N   0  0  0  0  0  0  0  0  0  0  0  0
   60.3500   34.9030   46.1650 C   0  0  0  0  0  0  0  0  0  0  0  0
   58.9330   34.8780   45.5590 C   0  0  0  0  0  0  0  0  0  0  0  0
   58.2980   33.5830   45.8160 N   0  0  0  0  0  0  0  0  0  0  0  0
   57.9090   32.7110   44.7380 C   0  0  0  0  0  0  0  0  0  0  0  0
   58.3690   32.9500   43.4330 C   0  0  0  0  0  0  0  0  0  0  0  0
   57.9740   32.1180   42.3830 C   0  0  0  0  0  0  0  0  0  0  0  0
   57.0990   31.0550   42.6210 C   0  0  0  0  0  0  0  0  0  0  0  0
   56.6010   30.8250   43.9120 C   0  0  0  0  0  0  0  0  0  0  0  0
   55.6590   29.7150   44.1520 C   0  0  0  0  0  0  0  0  0  0  0  0
   54.6640   29.5810   43.3910 O   0  0  0  0  0  0  0  0  0  0  0  0
   55.8190   28.8030   45.2460 N   0  0  0  0  0  0  0  0  0  0  0  0
   56.8660   27.7920   45.3390 C   0  0  0  0  0  0  0  0  0  0  0  0
   58.1900   28.4650   45.5630 C   0  0  0  0  0  0  0  0  0  0  0  0
   58.4140   29.1990   46.7400 C   0  0  0  0  0  0  0  0  0  0  0  0
   59.6550   29.8020   46.9700 C   0  0  0  0  0  0  0  0  0  0  0  0
   60.6820   29.6670   46.0330 C   0  0  0  0  0  0  0  0  0  0  0  0
   60.4730   28.9260   44.8670 C   0  0  0  0  0  0  0  0  0  0  0  0
   59.2350   28.3200   44.6320 C   0  0  0  0  0  0  0  0  0  0  0  0
   59.0560   27.5920   43.5000 F   0  0  0  0  0  0  0  0  0  0  0  0
   57.0300   31.6400   44.9700 C   0  0  0  0  0  0  0  0  0  0  0  0
   58.1860   33.1250   47.2050 C   0  0  0  0  0  0  0  0  0  0  0  0
   59.2190   33.8400   48.0950 C   0  0  0  0  0  0  0  0  0  0  0  0
   61.4686   32.3102   48.0452 H   0  0  0  0  0  0  0  0  0  0  0  0
   60.5366   32.1395   46.5192 H   0  0  0  0  0  0  0  0  0  0  0  0
   62.1083   33.0092   46.5192 H   0  0  0  0  0  0  0  0  0  0  0  0
   60.5970   35.9426   46.4261 H   0  0  0  0  0  0  0  0  0  0  0  0
   61.0294   34.4858   45.4071 H   0  0  0  0  0  0  0  0  0  0  0  0
   58.3285   35.6763   46.0143 H   0  0  0  0  0  0  0  0  0  0  0  0
   59.0034   35.0350   44.4725 H   0  0  0  0  0  0  0  0  0  0  0  0
   59.0436   33.7964   43.2367 H   0  0  0  0  0  0  0  0  0  0  0  0
   58.3526   32.3000   41.3664 H   0  0  0  0  0  0  0  0  0  0  0  0
   56.7995   30.3960   41.7928 H   0  0  0  0  0  0  0  0  0  0  0  0
   56.6505   27.1166   46.1801 H   0  0  0  0  0  0  0  0  0  0  0  0
   56.9015   27.2124   44.4048 H   0  0  0  0  0  0  0  0  0  0  0  0
   57.6099   29.2999   47.4838 H   0  0  0  0  0  0  0  0  0  0  0  0
   59.8222   30.3827   47.8891 H   0  0  0  0  0  0  0  0  0  0  0  0
   61.6564   30.1446   46.2132 H   0  0  0  0  0  0  0  0  0  0  0  0
   61.2844   28.8191   44.1321 H   0  0  0  0  0  0  0  0  0  0  0  0
   56.6747   31.4385   45.9913 H   0  0  0  0  0  0  0  0  0  0  0  0
   57.1744   33.3438   47.5776 H   0  0  0  0  0  0  0  0  0  0  0  0
   58.3773   32.0423   47.2385 H   0  0  0  0  0  0  0  0  0  0  0  0
   58.8083   34.8119   48.4059 H   0  0  0  0  0  0  0  0  0  0  0  0
   59.4215   33.1982   48.9651 H   0  0  0  0  0  0  0  0  0  0  0  0
  1  2  1  0
  2  3  1  0
  3  4  1  0
  4  5  1  0
  5  6  1  0
  6  7  2  0
  7  8  1  0
  8  9  2  0
  9 10  1  0
 10 11  1  0
 11 12  2  0
 11 13  1  0
 13 14  1  0
 14 15  1  0
 15 16  2  0
 16 17  1  0
 17 18  2  0
 18 19  1  0
 19 20  2  0
 20 21  1  0
 10 22  2  0
  5 23  1  0
 23 24  1  0
 24  2  1  0
 22  6  1  0
 20 15  1  0
  1 25  1  0
  1 26  1  0
  1 27  1  0
  3 28  1  0
  3 29  1  0
  4 30  1  0
  4 31  1  0
  7 32  1  0
  8 33  1  0
  9 34  1  0
 14 35  1  0
 14 36  1  0
 16 37  1  0
 17 38  1  0
 18 39  1  0
 19 40  1  0
 22 41  1  0
 23 42  1  0
 23 43  1  0
 24 44  1  0
 24 45  1  0
M  CHG  1  13  -1
M  END
>  <UniqueID>  (40) 
38

>  <SMILES>  (40) 
CN1CCN(c2cccc(C(=O)[N-]Cc3ccccc3F)c2)CC1

>  <Energy>  (40) 
60.62750675712881

>  <Genealogy>  (40) 
CN1CCN(c2cccc(C(=O)[N-]Cc3ccccc3F)c2)CC1 (protonated)
CN1CCN(c2cccc(C(=O)[N-]Cc3ccccc3F)c2)CC1 (3D coordinates assigned)
CN1CCN(c2cccc(C(=O)[N-]Cc3ccccc3F)c2)CC1 (nonaromatic ring conformer: 60.62750675712881 kcal/mol)

>  <smiles>  (40) 
CN1CCN(c2cccc(C(=O)NCc3ccccc3F)c2)CC1

>  <score_type>  (40) 
oracle

>  <origin>  (40) 
adg

>  <m_score__min__energy>  (40) 
-10.17

>  <m_primary>  (40) 
energy

$$$$
40:0
     RDKit          3D

 46 48  0  0  0  0  0  0  0  0999 V2000
   65.2050   33.5240   50.9620 C   0  0  0  0  0  0  0  0  0  0  0  0
   64.5310   32.5450   50.0960 N   0  0  0  0  0  0  0  0  0  0  0  0
   63.1850   32.1960   50.6180 C   0  0  0  0  0  0  0  0  0  0  0  0
   62.0620   32.9070   49.8520 C   0  0  0  0  0  0  0  0  0  0  0  0
   62.0750   32.5340   48.4220 N   0  0  0  0  0  0  0  0  0  0  0  0
   61.1790   33.7050   47.4800 S   0  0  0  0  0  0  0  0  0  0  0  0
   62.0940   34.3420   46.4700 O   0  0  0  0  0  0  0  0  0  0  0  0
   60.6660   34.7870   48.3900 O   0  0  0  0  0  0  0  0  0  0  0  0
   59.8180   32.9550   46.6420 C   0  0  0  0  0  0  0  0  0  0  0  0
   59.3170   31.7190   47.0710 C   0  0  0  0  0  0  0  0  0  0  0  0
   58.2560   31.1120   46.3930 C   0  0  0  0  0  0  0  0  0  0  0  0
   57.6880   31.7340   45.2670 C   0  0  0  0  0  0  0  0  0  0  0  0
   56.5870   31.1540   44.5500 N   0  0  0  0  0  0  0  0  0  0  0  0
   56.2700   29.7610   44.4550 C   0  0  0  0  0  0  0  0  0  0  0  0
   55.1350   29.3370   44.8050 O   0  0  0  0  0  0  0  0  0  0  0  0
   57.2420   28.8830   43.9630 O   0  0  0  0  0  0  0  0  0  0  0  0
   58.2800   28.3130   44.7160 C   0  0  0  0  0  0  0  0  0  0  0  0
   59.5890   28.7580   44.4910 C   0  0  0  0  0  0  0  0  0  0  0  0
   60.6550   28.2260   45.2240 C   0  0  0  0  0  0  0  0  0  0  0  0
   60.4170   27.2530   46.1980 C   0  0  0  0  0  0  0  0  0  0  0  0
   59.1130   26.8160   46.4460 C   0  0  0  0  0  0  0  0  0  0  0  0
   58.0450   27.3460   45.7120 C   0  0  0  0  0  0  0  0  0  0  0  0
   58.1680   32.9860   44.8620 C   0  0  0  0  0  0  0  0  0  0  0  0
   59.2290   33.5910   45.5400 C   0  0  0  0  0  0  0  0  0  0  0  0
   63.4340   32.3150   47.8710 C   0  0  0  0  0  0  0  0  0  0  0  0
   64.5200   33.0210   48.6940 C   0  0  0  0  0  0  0  0  0  0  0  0
   65.0267   33.2651   52.0161 H   0  0  0  0  0  0  0  0  0  0  0  0
   66.2860   33.5103   50.7588 H   0  0  0  0  0  0  0  0  0  0  0  0
   64.8064   34.5289   50.7588 H   0  0  0  0  0  0  0  0  0  0  0  0
   63.0415   31.1091   50.5282 H   0  0  0  0  0  0  0  0  0  0  0  0
   63.1358   32.5220   51.6674 H   0  0  0  0  0  0  0  0  0  0  0  0
   61.0933   32.6227   50.2887 H   0  0  0  0  0  0  0  0  0  0  0  0
   62.2179   33.9930   49.9314 H   0  0  0  0  0  0  0  0  0  0  0  0
   59.7613   31.2232   47.9467 H   0  0  0  0  0  0  0  0  0  0  0  0
   57.8642   30.1449   46.7413 H   0  0  0  0  0  0  0  0  0  0  0  0
   59.7800   29.5314   43.7324 H   0  0  0  0  0  0  0  0  0  0  0  0
   61.6810   28.5738   45.0335 H   0  0  0  0  0  0  0  0  0  0  0  0
   61.2564   26.8307   46.7699 H   0  0  0  0  0  0  0  0  0  0  0  0
   58.9256   26.0553   47.2182 H   0  0  0  0  0  0  0  0  0  0  0  0
   57.0187   27.0057   45.9142 H   0  0  0  0  0  0  0  0  0  0  0  0
   57.7062   33.4964   44.0040 H   0  0  0  0  0  0  0  0  0  0  0  0
   59.6039   34.5704   45.2080 H   0  0  0  0  0  0  0  0  0  0  0  0
   63.6424   31.2349   47.8639 H   0  0  0  0  0  0  0  0  0  0  0  0
   63.4559   32.7366   46.8552 H   0  0  0  0  0  0  0  0  0  0  0  0
   65.5012   32.8189   48.2398 H   0  0  0  0  0  0  0  0  0  0  0  0
   64.3056   34.0999   48.6966 H   0  0  0  0  0  0  0  0  0  0  0  0
  1  2  1  0
  2  3  1  0
  3  4  1  0
  4  5  1  0
  5  6  1  0
  6  7  2  0
  6  8  2  0
  6  9  1  0
  9 10  2  0
 10 11  1  0
 11 12  2  0
 12 13  1  0
 13 14  1  0
 14 15  2  0
 14 16  1  0
 16 17  1  0
 17 18  2  0
 18 19  1  0
 19 20  2  0
 20 21  1  0
 21 22  2  0
 12 23  1  0
 23 24  2  0
  5 25  1  0
 25 26  1  0
 26  2  1  0
 24  9  1  0
 22 17  1  0
  1 27  1  0
  1 28  1  0
  1 29  1  0
  3 30  1  0
  3 31  1  0
  4 32  1  0
  4 33  1  0
 10 34  1  0
 11 35  1  0
 18 36  1  0
 19 37  1  0
 20 38  1  0
 21 39  1  0
 22 40  1  0
 23 41  1  0
 24 42  1  0
 25 43  1  0
 25 44  1  0
 26 45  1  0
 26 46  1  0
M  CHG  1  13  -1
M  END
>  <UniqueID>  (41) 
39

>  <SMILES>  (41) 
CN1CCN(S(=O)(=O)c2ccc([N-]C(=O)Oc3ccccc3)cc2)CC1

>  <Energy>  (41) 
64.76443065652505

>  <Genealogy>  (41) 
CN1CCN(S(=O)(=O)c2ccc([N-]C(=O)Oc3ccccc3)cc2)CC1 (protonated)
CN1CCN(S(=O)(=O)c2ccc([N-]C(=O)Oc3ccccc3)cc2)CC1 (3D coordinates assigned)
CN1CCN(S(=O)(=O)c2ccc([N-]C(=O)Oc3ccccc3)cc2)CC1 (nonaromatic ring conformer: 64.76443065652505 kcal/mol)

>  <smiles>  (41) 
CN1CCN(S(=O)(=O)c2ccc(NC(=O)Oc3ccccc3)cc2)CC1

>  <score_type>  (41) 
oracle

>  <origin>  (41) 
adg

>  <m_score__min__energy>  (41) 
-9.5399999999999991

>  <m_primary>  (41) 
energy

$$$$
41:0
     RDKit          3D

 48 51  0  0  0  0  0  0  0  0999 V2000
   57.1707   31.5074   41.0357 H   0  0  0  0  0  0  0  0  0  0  0  0
   57.6300   32.3310   41.6020 C   0  0  0  0  0  0  0  0  0  0  0  0
   57.9235   33.2569   41.0857 H   0  0  0  0  0  0  0  0  0  0  0  0
   57.8310   32.2070   42.9150 C   0  0  0  0  0  0  0  0  0  0  0  0
   58.3910   33.1870   43.6590 N   0  0  0  0  0  0  0  0  0  0  0  0
   58.4620   32.7610   44.9100 N   0  0  0  0  0  0  0  0  0  0  0  0
   58.9540   33.5750   45.9880 C   0  0  0  0  0  0  0  0  0  0  0  0
   58.2690   34.5600   46.3730 O   0  0  0  0  0  0  0  0  0  0  0  0
   60.2540   33.3020   46.6410 C   0  0  0  0  0  0  0  0  0  0  0  0
   61.3650   34.1140   46.3670 C   0  0  0  0  0  0  0  0  0  0  0  0
   61.2667   34.9560   45.6660 H   0  0  0  0  0  0  0  0  0  0  0  0
   62.5960   33.8600   46.9790 C   0  0  0  0  0  0  0  0  0  0  0  0
   63.4560   34.5113   46.7640 H   0  0  0  0  0  0  0  0  0  0  0  0
   62.7450   32.7820   47.8650 C   0  0  0  0  0  0  0  0  0  0  0  0
   64.0250   32.5570   48.4830 N   0  0  0  0  0  0  0  0  0  0  0  0
   64.8680   32.4410   47.8780 H   0  0  0  0  0  0  0  0  0  0  0  0
   64.2620   32.3870   50.1950 S   0  0  0  0  0  0  0  0  0  0  0  0
   64.3210   30.9270   50.5430 O   0  0  0  0  0  0  0  0  0  0  0  0
   63.1060   33.0130   50.9210 O   0  0  0  0  0  0  0  0  0  0  0  0
   65.7440   33.2090   50.6730 C   0  0  0  0  0  0  0  0  0  0  0  0
   65.7110   34.2550   51.6080 C   0  0  0  0  0  0  0  0  0  0  0  0
   64.7522   34.5739   52.0428 H   0  0  0  0  0  0  0  0  0  0  0  0
   66.8970   34.8920   51.9870 C   0  0  0  0  0  0  0  0  0  0  0  0
   66.8701   35.7113   52.7205 H   0  0  0  0  0  0  0  0  0  0  0  0
   68.1170   34.4890   51.4350 C   0  0  0  0  0  0  0  0  0  0  0  0
   69.0489   34.9893   51.7370 H   0  0  0  0  0  0  0  0  0  0  0  0
   68.1530   33.4500   50.4990 C   0  0  0  0  0  0  0  0  0  0  0  0
   69.1125   33.1364   50.0619 H   0  0  0  0  0  0  0  0  0  0  0  0
   66.9690   32.8100   50.1190 C   0  0  0  0  0  0  0  0  0  0  0  0
   66.9986   31.9920   49.3841 H   0  0  0  0  0  0  0  0  0  0  0  0
   61.6350   31.9570   48.1240 C   0  0  0  0  0  0  0  0  0  0  0  0
   61.7364   31.1058   48.8134 H   0  0  0  0  0  0  0  0  0  0  0  0
   60.4050   32.2110   47.5120 C   0  0  0  0  0  0  0  0  0  0  0  0
   59.5483   31.5513   47.7140 H   0  0  0  0  0  0  0  0  0  0  0  0
   57.9240   31.5260   44.9870 C   0  0  0  0  0  0  0  0  0  0  0  0
   57.7300   30.9090   46.0690 O   0  0  0  0  0  0  0  0  0  0  0  0
   57.5290   31.1090   43.7240 C   0  0  0  0  0  0  0  0  0  0  0  0
   56.9370   29.9540   43.3560 C   0  0  0  0  0  0  0  0  0  0  0  0
   56.2695   29.9742   42.4819 H   0  0  0  0  0  0  0  0  0  0  0  0
   57.1260   28.6680   44.0480 C   0  0  0  0  0  0  0  0  0  0  0  0
   57.7690   27.5720   43.5050 C   0  0  0  0  0  0  0  0  0  0  0  0
   58.1496   27.4718   42.4778 H   0  0  0  0  0  0  0  0  0  0  0  0
   57.8380   26.6280   44.5100 C   0  0  0  0  0  0  0  0  0  0  0  0
   58.2702   25.6192   44.4357 H   0  0  0  0  0  0  0  0  0  0  0  0
   57.2590   27.1970   45.6260 C   0  0  0  0  0  0  0  0  0  0  0  0
   57.1575   26.7037   46.6039 H   0  0  0  0  0  0  0  0  0  0  0  0
   56.8370   28.4420   45.3440 N   0  0  0  0  0  0  0  0  0  0  0  0
   56.4180   29.1160   46.0230 H   0  0  0  0  0  0  0  0  0  0  0  0
  1  2  1  0
  2  3  1  0
  2  4  2  0
  4  5  1  0
  5  6  1  0
  6  7  1  0
  7  8  2  0
  7  9  1  0
  9 10  2  0
 10 11  1  0
 10 12  1  0
 12 13  1  0
 12 14  2  0
 14 15  1  0
 15 16  1  0
 15 17  1  0
 17 18  2  0
 17 19  2  0
 17 20  1  0
 20 21  2  0
 21 22  1  0
 21 23  1  0
 23 24  1  0
 23 25  2  0
 25 26  1  0
 25 27  1  0
 27 28  1  0
 27 29  2  0
 29 30  1  0
 14 31  1  0
 31 32  1  0
 31 33  2  0
 33 34  1  0
  6 35  1  0
 35 36  2  0
 35 37  1  0
 37 38  2  0
 38 39  1  0
 38 40  1  0
 40 41  2  0
 41 42  1  0
 41 43  1  0
 43 44  1  0
 43 45  2  0
 45 46  1  0
 45 47  1  0
 47 48  1  0
 37  4  1  0
 47 40  1  0
 33  9  1  0
 29 20  1  0
M  CHG  1   5  -1
M  END
>  <UniqueID>  (42) 
40

>  <SMILES>  (42) 
C=c1[n-]n(C(=O)c2ccc(NS(=O)(=O)c3ccccc3)cc2)c(=O)/c1=C\c1ccc[nH]1

>  <Energy>  (42) 
126.58897174614533

>  <Genealogy>  (42) 
C=c1[n-]n(C(=O)c2ccc(NS(=O)(=O)c3ccccc3)cc2)c(=O)c1=Cc1ccc[nH]1 (protonated)
C=c1[n-]n(C(=O)c2ccc(NS(=O)(=O)c3ccccc3)cc2)c(=O)/c1=C\c1ccc[nH]1 (cis-trans isomerization)
C=c1[n-]n(C(=O)c2ccc(NS(=O)(=O)c3ccccc3)cc2)c(=O)/c1=C\c1ccc[nH]1 (3D coordinates assigned)
C=c1[n-]n(C(=O)c2ccc(NS(=O)(=O)c3ccccc3)cc2)c(=O)/c1=C\c1ccc[nH]1 (optimized conformer: 126.58897174614533 kcal/mol)

>  <smiles>  (42) 
C=c1[nH]n(C(=O)c2ccc(NS(=O)(=O)c3ccccc3)cc2)c(=O)c1=Cc1ccc[nH]1

>  <score_type>  (42) 
oracle

>  <origin>  (42) 
adg

>  <m_score__min__energy>  (42) 
-11.550000000000001

>  <m_primary>  (42) 
energy

$$$$
42:0
     RDKit          3D

 38 41  0  0  0  0  0  0  0  0999 V2000
   59.9040   30.4220   45.9100 C   0  0  0  0  0  0  0  0  0  0  0  0
   58.9400   31.5790   45.7860 C   0  0  0  0  0  0  0  0  0  0  0  0
   57.7870   31.4660   44.9650 C   0  0  0  0  0  0  0  0  0  0  0  0
   57.3660   30.2180   44.3930 N   0  0  0  0  0  0  0  0  0  0  0  0
   56.3650   29.3390   44.9270 C   0  0  0  0  0  0  0  0  0  0  0  0
   55.1580   29.6910   44.8620 O   0  0  0  0  0  0  0  0  0  0  0  0
   56.6970   28.0420   45.5540 C   0  0  0  0  0  0  0  0  0  0  0  0
   57.9750   27.7760   46.0720 C   0  0  0  0  0  0  0  0  0  0  0  0
   58.2390   26.5290   46.6420 C   0  0  0  0  0  0  0  0  0  0  0  0
   57.2330   25.5650   46.7070 C   0  0  0  0  0  0  0  0  0  0  0  0
   55.9640   25.8700   46.2060 C   0  0  0  0  0  0  0  0  0  0  0  0
   55.0390   25.0190   46.2670 O   0  0  0  0  0  0  0  0  0  0  0  0
   55.7280   27.0890   45.6510 N   0  0  0  0  0  0  0  0  0  0  0  0
   57.0260   32.6040   44.6760 C   0  0  0  0  0  0  0  0  0  0  0  0
   57.3440   33.8320   45.2460 C   0  0  0  0  0  0  0  0  0  0  0  0
   58.4190   33.9380   46.1250 C   0  0  0  0  0  0  0  0  0  0  0  0
   59.2130   32.8190   46.4240 C   0  0  0  0  0  0  0  0  0  0  0  0
   60.3080   32.9930   47.4060 C   0  0  0  0  0  0  0  0  0  0  0  0
   61.5840   32.5950   47.1620 N   0  0  0  0  0  0  0  0  0  0  0  0
   62.4060   32.9400   48.1850 C   0  0  0  0  0  0  0  0  0  0  0  0
   63.7700   32.6700   48.2430 C   0  0  0  0  0  0  0  0  0  0  0  0
   64.4870   33.1020   49.3710 C   0  0  0  0  0  0  0  0  0  0  0  0
   63.8170   33.7930   50.4030 C   0  0  0  0  0  0  0  0  0  0  0  0
   62.4790   34.0440   50.3120 N   0  0  0  0  0  0  0  0  0  0  0  0
   61.7980   33.6190   49.2190 C   0  0  0  0  0  0  0  0  0  0  0  0
   60.1700   33.8220   48.8870 S   0  0  0  0  0  0  0  0  0  0  0  0
   60.0834   30.2066   46.9737 H   0  0  0  0  0  0  0  0  0  0  0  0
   59.4751   29.5336   45.4233 H   0  0  0  0  0  0  0  0  0  0  0  0
   60.8552   30.6835   45.4233 H   0  0  0  0  0  0  0  0  0  0  0  0
   58.7616   28.5438   46.0290 H   0  0  0  0  0  0  0  0  0  0  0  0
   59.2402   26.3069   47.0397 H   0  0  0  0  0  0  0  0  0  0  0  0
   57.4356   24.5773   47.1469 H   0  0  0  0  0  0  0  0  0  0  0  0
   56.1683   32.5266   43.9916 H   0  0  0  0  0  0  0  0  0  0  0  0
   56.7450   34.7217   45.0020 H   0  0  0  0  0  0  0  0  0  0  0  0
   58.6485   34.9082   46.5898 H   0  0  0  0  0  0  0  0  0  0  0  0
   64.2738   32.1320   47.4264 H   0  0  0  0  0  0  0  0  0  0  0  0
   65.5659   32.9026   49.4495 H   0  0  0  0  0  0  0  0  0  0  0  0
   64.3774   34.1316   51.2869 H   0  0  0  0  0  0  0  0  0  0  0  0
  1  2  1  0
  2  3  2  0
  3  4  1  0
  4  5  1  0
  5  6  2  0
  5  7  1  0
  7  8  2  0
  8  9  1  0
  9 10  2  0
 10 11  1  0
 11 12  2  0
 11 13  1  0
  3 14  1  0
 14 15  2  0
 15 16  1  0
 16 17  2  0
 17 18  1  0
 18 19  2  0
 19 20  1  0
 20 21  2  0
 21 22  1  0
 22 23  2  0
 23 24  1  0
 24 25  2  0
 25 26  1  0
 17  2  1  0
 26 18  1  0
 13  7  1  0
 25 20  1  0
  1 27  1  0
  1 28  1  0
  1 29  1  0
  8 30  1  0
  9 31  1  0
 10 32  1  0
 14 33  1  0
 15 34  1  0
 16 35  1  0
 21 36  1  0
 22 37  1  0
 23 38  1  0
M  CHG  2   4  -1  13  -1
M  END
>  <UniqueID>  (43) 
41

>  <SMILES>  (43) 
Cc1c([N-]C(=O)c2cccc(=O)[n-]2)cccc1-c1nc2cccnc2s1

>  <Energy>  (43) 
95.68857214019542

>  <Genealogy>  (43) 
Cc1c([N-]C(=O)c2cccc(=O)[n-]2)cccc1-c1nc2cccnc2s1 (protonated)
Cc1c([N-]C(=O)c2cccc(=O)[n-]2)cccc1-c1nc2cccnc2s1 (3D coordinates assigned)
Cc1c([N-]C(=O)c2cccc(=O)[n-]2)cccc1-c1nc2cccnc2s1 (optimized conformer: 95.68857214019542 kcal/mol)

>  <smiles>  (43) 
Cc1c(NC(=O)c2cccc(=O)[nH]2)cccc1-c1nc2cccnc2s1

>  <score_type>  (43) 
oracle

>  <origin>  (43) 
adg

>  <m_score__min__energy>  (43) 
-12.92

>  <m_primary>  (43) 
energy

$$$$
43:0
     RDKit          3D

 29 30  0  0  0  0  0  0  0  0999 V2000
   54.7770   27.1120   45.9890 H   0  0  0  0  0  0  0  0  0  0  0  0
   54.4310   26.1950   45.7330 O   0  0  0  0  0  0  0  0  0  0  0  0
   55.3090   25.1830   45.3590 C   0  0  0  0  0  0  0  0  0  0  0  0
   54.8680   24.0480   44.7490 N   0  0  0  0  0  0  0  0  0  0  0  0
   55.8880   23.2010   44.5050 C   0  0  0  0  0  0  0  0  0  0  0  0
   55.7320   22.0830   43.9480 O   0  0  0  0  0  0  0  0  0  0  0  0
   57.3660   23.8010   45.0270 S   0  0  0  0  0  0  0  0  0  0  0  0
   56.6870   25.2390   45.5890 C   0  0  0  0  0  0  0  0  0  0  0  0
   57.4490   26.3260   46.2360 C   0  0  0  0  0  0  0  0  0  0  0  0
   56.9170   26.9630   47.1830 O   0  0  0  0  0  0  0  0  0  0  0  0
   58.8640   29.0570   46.6700 C   0  0  0  0  0  0  0  0  0  0  0  0
   59.3797   29.0992   47.6407 H   0  0  0  0  0  0  0  0  0  0  0  0
   57.9230   29.9620   46.3820 C   0  0  0  0  0  0  0  0  0  0  0  0
   57.4883   30.5484   47.2049 H   0  0  0  0  0  0  0  0  0  0  0  0
   58.7950   26.7320   45.7880 C   0  0  0  0  0  0  0  0  0  0  0  0
   59.5009   25.9371   45.5053 H   0  0  0  0  0  0  0  0  0  0  0  0
   59.2190   28.0020   45.7010 C   0  0  0  0  0  0  0  0  0  0  0  0
   59.8702   28.2731   44.8569 H   0  0  0  0  0  0  0  0  0  0  0  0
   57.4400   30.2100   45.0040 C   0  0  0  0  0  0  0  0  0  0  0  0
   58.1270   31.1510   44.2190 C   0  0  0  0  0  0  0  0  0  0  0  0
   58.9969   31.6789   44.6368 H   0  0  0  0  0  0  0  0  0  0  0  0
   57.7140   31.4220   42.9110 C   0  0  0  0  0  0  0  0  0  0  0  0
   58.2661   32.1522   42.3011 H   0  0  0  0  0  0  0  0  0  0  0  0
   56.6030   30.7680   42.3780 C   0  0  0  0  0  0  0  0  0  0  0  0
   56.2855   30.9752   41.3454 H   0  0  0  0  0  0  0  0  0  0  0  0
   55.8940   29.8500   43.1560 C   0  0  0  0  0  0  0  0  0  0  0  0
   55.0158   29.3388   42.7347 H   0  0  0  0  0  0  0  0  0  0  0  0
   56.2950   29.5770   44.4690 C   0  0  0  0  0  0  0  0  0  0  0  0
   55.5320   28.7020   45.2350 O   0  0  0  0  0  0  0  0  0  0  0  0
  1  2  1  0
  2  3  1  0
  3  4  1  0
  4  5  1  0
  5  6  2  0
  5  7  1  0
  7  8  1  0
  8  9  1  0
  9 10  2  0
  9 11  1  0
 11 12  1  0
 11 13  2  0
 13 14  1  0
 13 15  1  0
 15 16  1  0
 15 17  2  3
 17 18  1  0
 17 19  1  0
 19 20  2  0
 20 21  1  0
 20 22  1  0
 22 23  1  0
 22 24  2  0
 24 25  1  0
 24 26  1  0
 26 27  1  0
 26 28  2  0
 28 29  1  0
  8  3  2  0
 28 19  1  0
M  CHG  2   4  -1  29  -1
M  END
>  <UniqueID>  (44) 
42

>  <SMILES>  (44) 
O=C(/C=C\C=Cc1ccccc1[O-])c1sc(=O)[n-]c1O

>  <Energy>  (44) 
68.78414084365002

>  <Genealogy>  (44) 
O=C(C=CC=Cc1ccccc1[O-])c1sc(=O)[n-]c1O (protonated)
O=C(/C=C\C=Cc1ccccc1[O-])c1sc(=O)[n-]c1O (cis-trans isomerization)
O=C(/C=C\C=Cc1ccccc1[O-])c1sc(=O)[n-]c1O (3D coordinates assigned)
O=C(/C=C\C=Cc1ccccc1[O-])c1sc(=O)[n-]c1O (optimized conformer: 68.78414084365002 kcal/mol)

>  <smiles>  (44) 
O=C(C=CC=Cc1ccccc1O)c1sc(=O)[nH]c1O

>  <score_type>  (44) 
oracle

>  <origin>  (44) 
adg

>  <m_score__min__energy>  (44) 
-12.83

>  <m_primary>  (44) 
energy

$$$$
44:0
     RDKit          3D

 56 59  0  0  0  0  0  0  0  0999 V2000
   57.6820   34.3330   44.9020 O   0  0  0  0  0  0  0  0  0  0  0  0
   57.9190   33.6730   45.9470 C   0  0  0  0  0  0  0  0  0  0  0  0
   57.8410   32.1730   45.9010 C   0  0  0  0  0  0  0  0  0  0  0  0
   56.8380   31.6430   44.4720 S   0  0  0  0  0  0  0  0  0  0  0  0
   57.0930   29.8910   44.7410 C   0  0  0  0  0  0  0  0  0  0  0  0
   58.2860   29.3280   44.4310 N   0  0  0  0  0  0  0  0  0  0  0  0
   58.5130   28.0050   44.6270 C   0  0  0  0  0  0  0  0  0  0  0  0
   59.6430   27.5320   44.3350 O   0  0  0  0  0  0  0  0  0  0  0  0
   57.4930   27.1810   45.1570 C   0  0  0  0  0  0  0  0  0  0  0  0
   57.6980   25.6850   45.3940 C   0  0  0  0  0  0  0  0  0  0  0  0
   59.0900   25.3770   46.0110 C   0  0  0  0  0  0  0  0  0  0  0  0
   59.6250   23.9800   45.6390 C   0  0  0  0  0  0  0  0  0  0  0  0
   58.4900   22.9590   45.5110 C   0  0  0  0  0  0  0  0  0  0  0  0
   57.4770   23.3470   44.4100 C   0  0  0  0  0  0  0  0  0  0  0  0
   57.4350   24.8600   44.1170 C   0  0  0  0  0  0  0  0  0  0  0  0
   56.2620   27.7990   45.4630 C   0  0  0  0  0  0  0  0  0  0  0  0
   55.2030   27.0680   45.9870 O   0  0  0  0  0  0  0  0  0  0  0  0
   56.0940   29.1290   45.2480 N   0  0  0  0  0  0  0  0  0  0  0  0
   58.3840   34.3670   47.1130 N   0  0  0  0  0  0  0  0  0  0  0  0
   59.6110   34.1020   47.8050 C   0  0  0  0  0  0  0  0  0  0  0  0
   60.7840   33.9080   47.0660 C   0  0  0  0  0  0  0  0  0  0  0  0
   61.9980   33.6690   47.7170 C   0  0  0  0  0  0  0  0  0  0  0  0
   62.0580   33.6360   49.1220 C   0  0  0  0  0  0  0  0  0  0  0  0
   63.3010   33.3780   49.8040 N   0  0  0  0  0  0  0  0  0  0  0  0
   63.4680   33.8050   51.1970 C   0  0  0  0  0  0  0  0  0  0  0  0
   64.9530   34.0260   51.4980 C   0  0  0  0  0  0  0  0  0  0  0  0
   65.7140   32.8890   51.1340 O   0  0  0  0  0  0  0  0  0  0  0  0
   65.6590   32.7060   49.7320 C   0  0  0  0  0  0  0  0  0  0  0  0
   64.2320   32.3730   49.2840 C   0  0  0  0  0  0  0  0  0  0  0  0
   60.8860   33.8710   49.8610 C   0  0  0  0  0  0  0  0  0  0  0  0
   59.6730   34.1080   49.2080 C   0  0  0  0  0  0  0  0  0  0  0  0
   58.8555   31.7583   45.8077 H   0  0  0  0  0  0  0  0  0  0  0  0
   57.3719   31.8076   46.8264 H   0  0  0  0  0  0  0  0  0  0  0  0
   56.9483   25.3735   46.1362 H   0  0  0  0  0  0  0  0  0  0  0  0
   59.8056   26.1319   45.6530 H   0  0  0  0  0  0  0  0  0  0  0  0
   58.9748   25.4017   47.1047 H   0  0  0  0  0  0  0  0  0  0  0  0
   60.1569   24.0453   44.6784 H   0  0  0  0  0  0  0  0  0  0  0  0
   60.3012   23.6453   46.4395 H   0  0  0  0  0  0  0  0  0  0  0  0
   58.9222   21.9779   45.2649 H   0  0  0  0  0  0  0  0  0  0  0  0
   57.9519   22.9303   46.4700 H   0  0  0  0  0  0  0  0  0  0  0  0
   57.7511   22.8207   43.4838 H   0  0  0  0  0  0  0  0  0  0  0  0
   56.4791   23.0605   44.7736 H   0  0  0  0  0  0  0  0  0  0  0  0
   58.2046   25.1018   43.3692 H   0  0  0  0  0  0  0  0  0  0  0  0
   56.4332   25.1133   43.7398 H   0  0  0  0  0  0  0  0  0  0  0  0
   60.7504   33.9438   45.9671 H   0  0  0  0  0  0  0  0  0  0  0  0
   62.9118   33.5058   47.1269 H   0  0  0  0  0  0  0  0  0  0  0  0
   62.9189   34.7442   51.3592 H   0  0  0  0  0  0  0  0  0  0  0  0
   63.0744   33.0250   51.8653 H   0  0  0  0  0  0  0  0  0  0  0  0
   65.3107   34.8967   50.9289 H   0  0  0  0  0  0  0  0  0  0  0  0
   65.0721   34.1993   52.5777 H   0  0  0  0  0  0  0  0  0  0  0  0
   65.9871   33.6304   49.2342 H   0  0  0  0  0  0  0  0  0  0  0  0
   66.3193   31.8698   49.4587 H   0  0  0  0  0  0  0  0  0  0  0  0
   64.1864   32.3670   48.1850 H   0  0  0  0  0  0  0  0  0  0  0  0
   63.9513   31.3828   49.6721 H   0  0  0  0  0  0  0  0  0  0  0  0
   60.9234   33.8684   50.9604 H   0  0  0  0  0  0  0  0  0  0  0  0
   58.7631   34.3000   49.7956 H   0  0  0  0  0  0  0  0  0  0  0  0
  1  2  2  0
  2  3  1  0
  3  4  1  0
  4  5  1  0
  5  6  2  0
  6  7  1  0
  7  8  2  0
  7  9  1  0
  9 10  1  0
 10 11  1  0
 11 12  1  0
 12 13  1  0
 13 14  1  0
 14 15  1  0
  9 16  2  0
 16 17  1  0
 16 18  1  0
  2 19  1  0
 19 20  1  0
 20 21  2  0
 21 22  1  0
 22 23  2  0
 23 24  1  0
 24 25  1  0
 25 26  1  0
 26 27  1  0
 27 28  1  0
 28 29  1  0
 23 30  1  0
 30 31  2  0
 18  5  1  0
 31 20  1  0
 15 10  1  0
 29 24  1  0
  3 32  1  0
  3 33  1  0
 10 34  1  0
 11 35  1  0
 11 36  1  0
 12 37  1  0
 12 38  1  0
 13 39  1  0
 13 40  1  0
 14 41  1  0
 14 42  1  0
 15 43  1  0
 15 44  1  0
 21 45  1  0
 22 46  1  0
 25 47  1  0
 25 48  1  0
 26 49  1  0
 26 50  1  0
 28 51  1  0
 28 52  1  0
 29 53  1  0
 29 54  1  0
 30 55  1  0
 31 56  1  0
M  CHG  3  17  -1  18  -1  19  -1
M  END
>  <UniqueID>  (45) 
43

>  <SMILES>  (45) 
O=C(CSc1nc(=O)c(C2CCCCC2)c([O-])[n-]1)[N-]c1ccc(N2CCOCC2)cc1

>  <Energy>  (45) 
72.1727913116944

>  <Genealogy>  (45) 
O=C(CSc1nc(=O)c(C2CCCCC2)c([O-])[n-]1)[N-]c1ccc(N2CCOCC2)cc1 (protonated)
O=C(CSc1nc(=O)c(C2CCCCC2)c([O-])[n-]1)[N-]c1ccc(N2CCOCC2)cc1 (3D coordinates assigned)
O=C(CSc1nc(=O)c(C2CCCCC2)c([O-])[n-]1)[N-]c1ccc(N2CCOCC2)cc1 (nonaromatic ring conformer: 72.1727913116944 kcal/mol)

>  <smiles>  (45) 
O=C(CSc1nc(=O)c(C2CCCCC2)c(O)[nH]1)Nc1ccc(N2CCOCC2)cc1

>  <score_type>  (45) 
oracle

>  <origin>  (45) 
adg

>  <m_score__min__energy>  (45) 
-15.75

>  <m_primary>  (45) 
energy

$$$$
45:0
     RDKit          3D

 50 53  0  0  0  0  0  0  0  0999 V2000
   57.7574   29.0223   43.2755 H   0  0  0  0  0  0  0  0  0  0  0  0
   57.7280   27.9970   43.6730 C   0  0  0  0  0  0  0  0  0  0  0  0
   57.6380   27.1430   42.9856 H   0  0  0  0  0  0  0  0  0  0  0  0
   57.8020   27.7880   44.9970 C   0  0  0  0  0  0  0  0  0  0  0  0
   57.7790   26.5530   45.6690 C   0  0  0  0  0  0  0  0  0  0  0  0
   57.5040   25.3100   45.2260 C   0  0  0  0  0  0  0  0  0  0  0  0
   58.3320   24.7415   44.7775 H   0  0  0  0  0  0  0  0  0  0  0  0
   56.1870   24.6460   45.2910 C   0  0  0  0  0  0  0  0  0  0  0  0
   55.0450   25.3770   45.6460 C   0  0  0  0  0  0  0  0  0  0  0  0
   55.1420   26.7210   45.9890 O   0  0  0  0  0  0  0  0  0  0  0  0
   53.8300   24.7700   45.6660 N   0  0  0  0  0  0  0  0  0  0  0  0
   53.6940   23.4610   45.3310 C   0  0  0  0  0  0  0  0  0  0  0  0
   52.5600   22.9180   45.3640 O   0  0  0  0  0  0  0  0  0  0  0  0
   54.7810   22.7400   44.9550 N   0  0  0  0  0  0  0  0  0  0  0  0
   56.0160   23.3000   44.9160 C   0  0  0  0  0  0  0  0  0  0  0  0
   56.9990   22.6080   44.5350 O   0  0  0  0  0  0  0  0  0  0  0  0
   58.0920   26.8250   46.9900 C   0  0  0  0  0  0  0  0  0  0  0  0
   58.2084   26.0899   47.8000 H   0  0  0  0  0  0  0  0  0  0  0  0
   58.2300   28.1930   47.0970 C   0  0  0  0  0  0  0  0  0  0  0  0
   58.5530   28.9190   48.3670 C   0  0  0  0  0  0  0  0  0  0  0  0
   58.2747   28.2934   49.2279 H   0  0  0  0  0  0  0  0  0  0  0  0
   59.6313   29.1332   48.4028 H   0  0  0  0  0  0  0  0  0  0  0  0
   57.9902   29.8634   48.4028 H   0  0  0  0  0  0  0  0  0  0  0  0
   58.0540   28.7780   45.8920 N   0  0  0  0  0  0  0  0  0  0  0  0
   58.1290   30.1900   45.6250 C   0  0  0  0  0  0  0  0  0  0  0  0
   57.1420   30.8140   44.8470 C   0  0  0  0  0  0  0  0  0  0  0  0
   56.3053   30.2230   44.4462 H   0  0  0  0  0  0  0  0  0  0  0  0
   57.2180   32.1810   44.5800 C   0  0  0  0  0  0  0  0  0  0  0  0
   56.4479   32.6622   43.9593 H   0  0  0  0  0  0  0  0  0  0  0  0
   58.2700   32.9410   45.0990 C   0  0  0  0  0  0  0  0  0  0  0  0
   58.3267   34.0180   44.8824 H   0  0  0  0  0  0  0  0  0  0  0  0
   59.2550   32.3350   45.8960 C   0  0  0  0  0  0  0  0  0  0  0  0
   60.3480   33.1530   46.4590 C   0  0  0  0  0  0  0  0  0  0  0  0
   61.0460   33.8570   45.6800 O   0  0  0  0  0  0  0  0  0  0  0  0
   60.6170   33.1790   47.8750 N   0  0  0  0  0  0  0  0  0  0  0  0
   59.5450   32.9750   48.8560 C   0  0  0  0  0  0  0  0  0  0  0  0
   58.5794   33.2468   48.4046 H   0  0  0  0  0  0  0  0  0  0  0  0
   59.5252   31.9181   49.1604 H   0  0  0  0  0  0  0  0  0  0  0  0
   59.7980   33.8530   50.0850 C   0  0  0  0  0  0  0  0  0  0  0  0
   59.6766   34.9096   49.8041 H   0  0  0  0  0  0  0  0  0  0  0  0
   59.0758   33.5786   50.8681 H   0  0  0  0  0  0  0  0  0  0  0  0
   61.1060   33.6540   50.5860 O   0  0  0  0  0  0  0  0  0  0  0  0
   62.0550   34.0970   49.6350 C   0  0  0  0  0  0  0  0  0  0  0  0
   61.8412   35.1437   49.3730 H   0  0  0  0  0  0  0  0  0  0  0  0
   63.0602   34.0093   50.0731 H   0  0  0  0  0  0  0  0  0  0  0  0
   61.9960   33.2400   48.3670 C   0  0  0  0  0  0  0  0  0  0  0  0
   62.6403   33.6853   47.5946 H   0  0  0  0  0  0  0  0  0  0  0  0
   62.3452   32.2229   48.5985 H   0  0  0  0  0  0  0  0  0  0  0  0
   59.1920   30.9510   46.1360 C   0  0  0  0  0  0  0  0  0  0  0  0
   60.1870   30.3290   46.8220 F   0  0  0  0  0  0  0  0  0  0  0  0
  1  2  1  0
  2  3  1  0
  2  4  2  0
  4  5  1  0
  5  6  2  0
  6  7  1  0
  6  8  1  0
  8  9  2  0
  9 10  1  0
  9 11  1  0
 11 12  1  0
 12 13  2  0
 12 14  1  0
 14 15  1  0
 15 16  2  0
  5 17  1  0
 17 18  1  0
 17 19  2  0
 19 20  1  0
 20 21  1  0
 20 22  1  0
 20 23  1  0
 19 24  1  0
 24 25  1  0
 25 26  2  0
 26 27  1  0
 26 28  1  0
 28 29  1  0
 28 30  2  0
 30 31  1  0
 30 32  1  0
 32 33  1  0
 33 34  2  0
 33 35  1  0
 35 36  1  0
 36 37  1  0
 36 38  1  0
 36 39  1  0
 39 40  1  0
 39 41  1  0
 39 42  1  0
 42 43  1  0
 43 44  1  0
 43 45  1  0
 43 46  1  0
 46 47  1  0
 46 48  1  0
 32 49  2  0
 49 50  1  0
 24  4  1  0
 49 25  1  0
 15  8  1  0
 46 35  1  0
M  CHG  3  10  -1  11  -1  14  -1
M  END
>  <UniqueID>  (46) 
44

>  <SMILES>  (46) 
C=c1/c(=C\c2c([O-])[n-]c(=O)[n-]c2=O)cc(C)n1-c1cccc(C(=O)N2CCOCC2)c1F

>  <Energy>  (46) 
109.79905431470021

>  <Genealogy>  (46) 
C=c1c(=Cc2c([O-])[n-]c(=O)[n-]c2=O)cc(C)n1-c1cccc(C(=O)N2CCOCC2)c1F (protonated)
C=c1/c(=C\c2c([O-])[n-]c(=O)[n-]c2=O)cc(C)n1-c1cccc(C(=O)N2CCOCC2)c1F (cis-trans isomerization)
C=c1/c(=C\c2c([O-])[n-]c(=O)[n-]c2=O)cc(C)n1-c1cccc(C(=O)N2CCOCC2)c1F (3D coordinates assigned)
C=c1/c(=C\c2c([O-])[n-]c(=O)[n-]c2=O)cc(C)n1-c1cccc(C(=O)N2CCOCC2)c1F (nonaromatic ring conformer: 109.79905431470021 kcal/mol)

>  <smiles>  (46) 
C=c1c(=Cc2c(O)[nH]c(=O)[nH]c2=O)cc(C)n1-c1cccc(C(=O)N2CCOCC2)c1F

>  <score_type>  (46) 
oracle

>  <origin>  (46) 
adg

>  <m_score__min__energy>  (46) 
-16.489999999999998

>  <m_primary>  (46) 
energy

$$$$
46:0
     RDKit          3D

 70 74  0  0  0  0  0  0  0  0999 V2000
   58.1120   32.2940   42.4370 C   0  0  0  0  0  0  0  0  0  0  0  0
   57.8450   31.9770   43.8330 N   0  0  0  0  0  0  0  0  0  0  0  0
   57.0670   30.9990   44.2590 N   0  0  0  0  0  0  0  0  0  0  0  0
   57.1070   30.9730   45.5840 N   0  0  0  0  0  0  0  0  0  0  0  0
   57.9120   31.9260   46.0350 N   0  0  0  0  0  0  0  0  0  0  0  0
   58.3660   32.5470   44.9310 C   0  0  0  0  0  0  0  0  0  0  0  0
   59.5610   33.8860   44.9370 S   0  0  0  0  0  0  0  0  0  0  0  0
   58.8860   34.7160   46.4220 C   0  0  0  0  0  0  0  0  0  0  0  0
   59.3490   34.0270   47.7080 C   0  0  0  0  0  0  0  0  0  0  0  0
   60.8030   34.1620   47.8740 N   0  0  0  0  0  0  0  0  0  0  0  0
   61.4180   32.9220   48.3710 C   0  0  0  0  0  0  0  0  0  0  0  0
   60.6420   31.6950   47.9510 C   0  0  0  0  0  0  0  0  0  0  0  0
   60.9670   31.0210   46.7650 C   0  0  0  0  0  0  0  0  0  0  0  0
   60.2930   29.8480   46.4110 C   0  0  0  0  0  0  0  0  0  0  0  0
   59.2900   29.3200   47.2430 C   0  0  0  0  0  0  0  0  0  0  0  0
   58.6090   28.0530   46.8770 C   0  0  0  0  0  0  0  0  0  0  0  0
   58.8380   27.0110   47.5510 O   0  0  0  0  0  0  0  0  0  0  0  0
   57.6380   28.0150   45.8150 N   0  0  0  0  0  0  0  0  0  0  0  0
   57.1400   26.7980   45.2320 C   0  0  0  0  0  0  0  0  0  0  0  0
   56.1220   26.0510   45.8470 C   0  0  0  0  0  0  0  0  0  0  0  0
   55.6570   24.8700   45.2600 C   0  0  0  0  0  0  0  0  0  0  0  0
   56.2070   24.4110   44.0510 C   0  0  0  0  0  0  0  0  0  0  0  0
   55.6990   23.1660   43.4250 C   0  0  0  0  0  0  0  0  0  0  0  0
   54.8250   23.2480   42.5200 O   0  0  0  0  0  0  0  0  0  0  0  0
   56.2000   21.8700   43.8160 N   0  0  0  0  0  0  0  0  0  0  0  0
   57.1210   21.1590   42.9160 C   0  0  0  0  0  0  0  0  0  0  0  0
   58.5740   21.2230   43.4040 C   0  0  0  0  0  0  0  0  0  0  0  0
   58.8240   22.4830   44.2420 C   0  0  0  0  0  0  0  0  0  0  0  0
   58.5250   22.2770   45.7330 C   0  0  0  0  0  0  0  0  0  0  0  0
   57.1770   21.6800   46.1100 C   0  0  0  0  0  0  0  0  0  0  0  0
   57.0270   21.2380   47.4380 C   0  0  0  0  0  0  0  0  0  0  0  0
   55.8500   20.6230   47.8630 C   0  0  0  0  0  0  0  0  0  0  0  0
   54.8030   20.4250   46.9670 C   0  0  0  0  0  0  0  0  0  0  0  0
   54.9320   20.8380   45.6420 C   0  0  0  0  0  0  0  0  0  0  0  0
   56.1110   21.4620   45.1940 C   0  0  0  0  0  0  0  0  0  0  0  0
   57.2580   25.1340   43.4640 C   0  0  0  0  0  0  0  0  0  0  0  0
   57.7200   26.3150   44.0490 C   0  0  0  0  0  0  0  0  0  0  0  0
   58.9510   30.0130   48.4200 C   0  0  0  0  0  0  0  0  0  0  0  0
   59.6260   31.1880   48.7710 C   0  0  0  0  0  0  0  0  0  0  0  0
   58.8197   33.1342   42.3807 H   0  0  0  0  0  0  0  0  0  0  0  0
   58.5459   31.4150   41.9379 H   0  0  0  0  0  0  0  0  0  0  0  0
   57.1720   32.5722   41.9379 H   0  0  0  0  0  0  0  0  0  0  0  0
   59.2276   35.7616   46.4336 H   0  0  0  0  0  0  0  0  0  0  0  0
   57.7881   34.6636   46.3780 H   0  0  0  0  0  0  0  0  0  0  0  0
   58.8427   34.4895   48.5681 H   0  0  0  0  0  0  0  0  0  0  0  0
   59.0973   32.9579   47.6473 H   0  0  0  0  0  0  0  0  0  0  0  0
   61.2310   34.4100   46.9510 H   0  0  0  0  0  0  0  0  0  0  0  0
   62.4406   32.8487   47.9724 H   0  0  0  0  0  0  0  0  0  0  0  0
   61.4202   32.9618   49.4703 H   0  0  0  0  0  0  0  0  0  0  0  0
   61.7565   31.4172   46.1095 H   0  0  0  0  0  0  0  0  0  0  0  0
   60.5498   29.3337   45.4732 H   0  0  0  0  0  0  0  0  0  0  0  0
   57.1590   28.9050   45.5550 H   0  0  0  0  0  0  0  0  0  0  0  0
   55.6877   26.3971   46.7965 H   0  0  0  0  0  0  0  0  0  0  0  0
   54.8552   24.2964   45.7480 H   0  0  0  0  0  0  0  0  0  0  0  0
   56.8138   20.1045   42.8559 H   0  0  0  0  0  0  0  0  0  0  0  0
   57.0741   21.6468   41.9312 H   0  0  0  0  0  0  0  0  0  0  0  0
   58.7852   20.3357   44.0189 H   0  0  0  0  0  0  0  0  0  0  0  0
   59.2350   21.2530   42.5253 H   0  0  0  0  0  0  0  0  0  0  0  0
   59.8792   22.7738   44.1325 H   0  0  0  0  0  0  0  0  0  0  0  0
   58.1437   23.2650   43.8737 H   0  0  0  0  0  0  0  0  0  0  0  0
   59.3028   21.6109   46.1347 H   0  0  0  0  0  0  0  0  0  0  0  0
   58.5061   23.2927   46.1548 H   0  0  0  0  0  0  0  0  0  0  0  0
   57.8516   21.3801   48.1520 H   0  0  0  0  0  0  0  0  0  0  0  0
   55.7486   20.2938   48.9077 H   0  0  0  0  0  0  0  0  0  0  0  0
   53.8739   19.9426   47.3047 H   0  0  0  0  0  0  0  0  0  0  0  0
   54.1025   20.6742   44.9384 H   0  0  0  0  0  0  0  0  0  0  0  0
   57.7211   24.7673   42.5361 H   0  0  0  0  0  0  0  0  0  0  0  0
   58.5447   26.8708   43.5789 H   0  0  0  0  0  0  0  0  0  0  0  0
   58.1500   29.6287   49.0687 H   0  0  0  0  0  0  0  0  0  0  0  0
   59.3566   31.7168   49.6972 H   0  0  0  0  0  0  0  0  0  0  0  0
  1  2  1  0
  2  3  1  0
  3  4  2  0
  4  5  1  0
  5  6  2  0
  6  7  1  0
  7  8  1  0
  8  9  1  0
  9 10  1  0
 10 11  1  0
 11 12  1  0
 12 13  2  0
 13 14  1  0
 14 15  2  0
 15 16  1  0
 16 17  2  0
 16 18  1  0
 18 19  1  0
 19 20  2  0
 20 21  1  0
 21 22  2  0
 22 23  1  0
 23 24  2  0
 23 25  1  0
 25 26  1  0
 26 27  1  0
 27 28  1  0
 28 29  1  0
 29 30  1  0
 30 31  2  0
 31 32  1  0
 32 33  2  0
 33 34  1  0
 34 35  2  0
 22 36  1  0
 36 37  2  0
 15 38  1  0
 38 39  2  0
  6  2  1  0
 39 12  1  0
 37 19  1  0
 35 25  1  0
 35 30  1  0
  1 40  1  0
  1 41  1  0
  1 42  1  0
  8 43  1  0
  8 44  1  0
  9 45  1  0
  9 46  1  0
 10 47  1  0
 11 48  1  0
 11 49  1  0
 13 50  1  0
 14 51  1  0
 18 52  1  0
 20 53  1  0
 21 54  1  0
 26 55  1  0
 26 56  1  0
 27 57  1  0
 27 58  1  0
 28 59  1  0
 28 60  1  0
 29 61  1  0
 29 62  1  0
 31 63  1  0
 32 64  1  0
 33 65  1  0
 34 66  1  0
 36 67  1  0
 37 68  1  0
 38 69  1  0
 39 70  1  0
M  END
>  <UniqueID>  (47) 
45

>  <SMILES>  (47) 
Cn1nnnc1SCCNCc1ccc(C(=O)Nc2ccc(C(=O)N3CCCCc4ccccc43)cc2)cc1

>  <Energy>  (47) 
131.21437321326158

>  <Genealogy>  (47) 
Cn1nnnc1SCCNCc1ccc(C(=O)Nc2ccc(C(=O)N3CCCCc4ccccc43)cc2)cc1 (3D coordinates assigned)
Cn1nnnc1SCCNCc1ccc(C(=O)Nc2ccc(C(=O)N3CCCCc4ccccc43)cc2)cc1 (nonaromatic ring conformer: 131.21437321326158 kcal/mol)

>  <smiles>  (47) 
Cn1nnnc1SCCNCc1ccc(C(=O)Nc2ccc(C(=O)N3CCCCc4ccccc43)cc2)cc1

>  <score_type>  (47) 
oracle

>  <origin>  (47) 
adg

>  <m_score__min__energy>  (47) 
-8.1699999999999999

>  <m_primary>  (47) 
energy

$$$$
47:0
     RDKit          3D

 43 45  0  0  0  0  0  0  0  0999 V2000
   55.1980   29.3600   45.1960 O   0  0  0  0  0  0  0  0  0  0  0  0
   56.4560   29.3480   45.1350 C   0  0  0  0  0  0  0  0  0  0  0  0
   57.1290   30.4800   44.5670 N   0  0  0  0  0  0  0  0  0  0  0  0
   57.6630   31.5940   45.2960 C   0  0  0  0  0  0  0  0  0  0  0  0
   57.0080   32.8280   45.2190 C   0  0  0  0  0  0  0  0  0  0  0  0
   57.5170   33.9410   45.8920 C   0  0  0  0  0  0  0  0  0  0  0  0
   58.6940   33.8320   46.6370 C   0  0  0  0  0  0  0  0  0  0  0  0
   59.3690   32.6060   46.7100 C   0  0  0  0  0  0  0  0  0  0  0  0
   60.8650   32.4680   47.6390 S   0  0  0  0  0  0  0  0  0  0  0  0
   61.3190   33.8400   48.0540 O   0  0  0  0  0  0  0  0  0  0  0  0
   61.9360   31.8670   46.7720 O   0  0  0  0  0  0  0  0  0  0  0  0
   60.6460   31.4770   49.0630 N   0  0  0  0  0  0  0  0  0  0  0  0
   59.7960   32.1550   50.0750 C   0  0  0  0  0  0  0  0  0  0  0  0
   58.3730   31.5840   50.1450 C   0  0  0  0  0  0  0  0  0  0  0  0
   58.3990   30.0820   50.4740 C   0  0  0  0  0  0  0  0  0  0  0  0
   59.6310   29.3660   49.8900 C   0  0  0  0  0  0  0  0  0  0  0  0
   60.1910   30.1230   48.6820 C   0  0  0  0  0  0  0  0  0  0  0  0
   58.8570   31.4920   46.0310 C   0  0  0  0  0  0  0  0  0  0  0  0
   57.1960   28.1880   45.6840 C   0  0  0  0  0  0  0  0  0  0  0  0
   58.5960   28.2520   45.7930 C   0  0  0  0  0  0  0  0  0  0  0  0
   59.3160   27.1670   46.3010 C   0  0  0  0  0  0  0  0  0  0  0  0
   58.6490   26.0050   46.6900 C   0  0  0  0  0  0  0  0  0  0  0  0
   57.2590   25.9240   46.5740 C   0  0  0  0  0  0  0  0  0  0  0  0
   56.5290   27.0070   46.0710 C   0  0  0  0  0  0  0  0  0  0  0  0
   55.1500   26.8870   45.9370 O   0  0  0  0  0  0  0  0  0  0  0  0
   56.0869   32.9221   44.6250 H   0  0  0  0  0  0  0  0  0  0  0  0
   56.9903   34.9051   45.8354 H   0  0  0  0  0  0  0  0  0  0  0  0
   59.0915   34.7100   47.1672 H   0  0  0  0  0  0  0  0  0  0  0  0
   60.2681   32.0409   51.0620 H   0  0  0  0  0  0  0  0  0  0  0  0
   59.7118   33.2110   49.7787 H   0  0  0  0  0  0  0  0  0  0  0  0
   57.8104   32.1142   50.9275 H   0  0  0  0  0  0  0  0  0  0  0  0
   57.8914   31.7206   49.1655 H   0  0  0  0  0  0  0  0  0  0  0  0
   58.4076   29.9615   51.5673 H   0  0  0  0  0  0  0  0  0  0  0  0
   57.5054   29.6276   50.0212 H   0  0  0  0  0  0  0  0  0  0  0  0
   60.4090   29.3011   50.6649 H   0  0  0  0  0  0  0  0  0  0  0  0
   59.3265   28.3615   49.5609 H   0  0  0  0  0  0  0  0  0  0  0  0
   61.0422   29.5613   48.2698 H   0  0  0  0  0  0  0  0  0  0  0  0
   59.3920   30.2223   47.9325 H   0  0  0  0  0  0  0  0  0  0  0  0
   59.3926   30.5321   46.0734 H   0  0  0  0  0  0  0  0  0  0  0  0
   59.1280   29.1613   45.4766 H   0  0  0  0  0  0  0  0  0  0  0  0
   60.4103   27.2294   46.3942 H   0  0  0  0  0  0  0  0  0  0  0  0
   59.2179   25.1519   47.0883 H   0  0  0  0  0  0  0  0  0  0  0  0
   56.7364   25.0055   46.8792 H   0  0  0  0  0  0  0  0  0  0  0  0
  1  2  2  0
  2  3  1  0
  3  4  1  0
  4  5  2  0
  5  6  1  0
  6  7  2  0
  7  8  1  0
  8  9  1  0
  9 10  2  0
  9 11  2  0
  9 12  1  0
 12 13  1  0
 13 14  1  0
 14 15  1  0
 15 16  1  0
 16 17  1  0
  8 18  2  0
  2 19  1  0
 19 20  2  0
 20 21  1  0
 21 22  2  0
 22 23  1  0
 23 24  2  0
 24 25  1  0
 18  4  1  0
 24 19  1  0
 17 12  1  0
  5 26  1  0
  6 27  1  0
  7 28  1  0
 13 29  1  0
 13 30  1  0
 14 31  1  0
 14 32  1  0
 15 33  1  0
 15 34  1  0
 16 35  1  0
 16 36  1  0
 17 37  1  0
 17 38  1  0
 18 39  1  0
 20 40  1  0
 21 41  1  0
 22 42  1  0
 23 43  1  0
M  CHG  2   3  -1  25  -1
M  END
>  <UniqueID>  (48) 
46

>  <SMILES>  (48) 
O=C([N-]c1cccc(S(=O)(=O)N2CCCCC2)c1)c1ccccc1[O-]

>  <Energy>  (48) 
53.7472490192751

>  <Genealogy>  (48) 
O=C([N-]c1cccc(S(=O)(=O)N2CCCCC2)c1)c1ccccc1[O-] (protonated)
O=C([N-]c1cccc(S(=O)(=O)N2CCCCC2)c1)c1ccccc1[O-] (3D coordinates assigned)
O=C([N-]c1cccc(S(=O)(=O)N2CCCCC2)c1)c1ccccc1[O-] (nonaromatic ring conformer: 53.7472490192751 kcal/mol)

>  <smiles>  (48) 
O=C(Nc1cccc(S(=O)(=O)N2CCCCC2)c1)c1ccccc1O

>  <score_type>  (48) 
oracle

>  <origin>  (48) 
adg

>  <m_score__min__energy>  (48) 
-14.529999999999999

>  <m_primary>  (48) 
energy

$$$$
48:0
     RDKit          3D

 61 65  0  0  0  0  0  0  0  0999 V2000
   62.3430   28.7310   51.7320 C   0  0  0  0  0  0  0  0  0  0  0  0
   61.0520   29.3340   51.7550 O   0  0  0  0  0  0  0  0  0  0  0  0
   60.3990   29.8540   50.6270 C   0  0  0  0  0  0  0  0  0  0  0  0
   60.1610   31.2250   50.4580 C   0  0  0  0  0  0  0  0  0  0  0  0
   59.5000   31.6930   49.3220 C   0  0  0  0  0  0  0  0  0  0  0  0
   59.0530   30.8030   48.3150 C   0  0  0  0  0  0  0  0  0  0  0  0
   59.3140   29.4260   48.4820 C   0  0  0  0  0  0  0  0  0  0  0  0
   59.9750   28.9640   49.6380 C   0  0  0  0  0  0  0  0  0  0  0  0
   58.9050   28.5350   47.4820 C   0  0  0  0  0  0  0  0  0  0  0  0
   59.1600   27.3040   47.6070 O   0  0  0  0  0  0  0  0  0  0  0  0
   58.2460   28.9940   46.3750 N   0  0  0  0  0  0  0  0  0  0  0  0
   57.7650   28.0500   45.3400 C   0  0  0  0  0  0  0  0  0  0  0  0
   56.2700   27.8830   45.4370 C   0  0  0  0  0  0  0  0  0  0  0  0
   55.5230   28.8390   45.1000 O   0  0  0  0  0  0  0  0  0  0  0  0
   55.6770   26.7140   46.0150 N   0  0  0  0  0  0  0  0  0  0  0  0
   55.7240   25.4000   45.4510 C   0  0  0  0  0  0  0  0  0  0  0  0
   54.5500   24.6490   45.2660 C   0  0  0  0  0  0  0  0  0  0  0  0
   54.6120   23.3720   44.7020 C   0  0  0  0  0  0  0  0  0  0  0  0
   55.8480   22.8350   44.3340 C   0  0  0  0  0  0  0  0  0  0  0  0
   57.0270   23.5560   44.5730 C   0  0  0  0  0  0  0  0  0  0  0  0
   56.9660   24.8370   45.1280 C   0  0  0  0  0  0  0  0  0  0  0  0
   58.2570   22.9740   44.2460 O   0  0  0  0  0  0  0  0  0  0  0  0
   58.3520   21.5820   43.9350 C   0  0  0  0  0  0  0  0  0  0  0  0
   57.1390   21.1390   43.1040 C   0  0  0  0  0  0  0  0  0  0  0  0
   55.9300   21.5780   43.7270 O   0  0  0  0  0  0  0  0  0  0  0  0
   58.0010   30.3360   46.2260 C   0  0  0  0  0  0  0  0  0  0  0  0
   57.4190   30.7430   45.1790 O   0  0  0  0  0  0  0  0  0  0  0  0
   58.3840   31.2420   47.1890 N   0  0  0  0  0  0  0  0  0  0  0  0
   58.0750   32.6780   46.9890 C   0  0  0  0  0  0  0  0  0  0  0  0
   59.3240   33.5160   46.9860 C   0  0  0  0  0  0  0  0  0  0  0  0
   59.2520   34.7240   47.3450 O   0  0  0  0  0  0  0  0  0  0  0  0
   60.5710   32.9740   46.5250 N   0  0  0  0  0  0  0  0  0  0  0  0
   61.7690   33.7970   46.3730 C   0  0  0  0  0  0  0  0  0  0  0  0
   62.6650   33.6140   47.5550 C   0  0  0  0  0  0  0  0  0  0  0  0
   62.3360   33.8930   48.8660 C   0  0  0  0  0  0  0  0  0  0  0  0
   63.4430   33.5400   49.6070 C   0  0  0  0  0  0  0  0  0  0  0  0
   64.3740   33.0660   48.7040 C   0  0  0  0  0  0  0  0  0  0  0  0
   63.8790   33.1200   47.4870 O   0  0  0  0  0  0  0  0  0  0  0  0
   62.6903   28.5688   52.7630 H   0  0  0  0  0  0  0  0  0  0  0  0
   62.2875   27.7656   51.2076 H   0  0  0  0  0  0  0  0  0  0  0  0
   63.0477   29.3931   51.2076 H   0  0  0  0  0  0  0  0  0  0  0  0
   60.4977   31.9367   51.2262 H   0  0  0  0  0  0  0  0  0  0  0  0
   59.3228   32.7725   49.2064 H   0  0  0  0  0  0  0  0  0  0  0  0
   60.1595   27.8868   49.7629 H   0  0  0  0  0  0  0  0  0  0  0  0
   58.0224   28.4411   44.3446 H   0  0  0  0  0  0  0  0  0  0  0  0
   58.2447   27.0727   45.4970 H   0  0  0  0  0  0  0  0  0  0  0  0
   53.5785   25.0684   45.5665 H   0  0  0  0  0  0  0  0  0  0  0  0
   53.6904   22.7914   44.5483 H   0  0  0  0  0  0  0  0  0  0  0  0
   57.8915   25.4026   45.3111 H   0  0  0  0  0  0  0  0  0  0  0  0
   59.2720   21.4004   43.3600 H   0  0  0  0  0  0  0  0  0  0  0  0
   58.3742   21.0061   44.8720 H   0  0  0  0  0  0  0  0  0  0  0  0
   57.2088   21.5760   42.0969 H   0  0  0  0  0  0  0  0  0  0  0  0
   57.1308   20.0411   43.0360 H   0  0  0  0  0  0  0  0  0  0  0  0
   57.5594   32.8017   46.0252 H   0  0  0  0  0  0  0  0  0  0  0  0
   57.4372   33.0126   47.8204 H   0  0  0  0  0  0  0  0  0  0  0  0
   60.6340   31.9630   46.2680 H   0  0  0  0  0  0  0  0  0  0  0  0
   62.3040   33.4972   45.4598 H   0  0  0  0  0  0  0  0  0  0  0  0
   61.4752   34.8546   46.3015 H   0  0  0  0  0  0  0  0  0  0  0  0
   61.3893   34.3095   49.2406 H   0  0  0  0  0  0  0  0  0  0  0  0
   63.5612   33.6197   50.6977 H   0  0  0  0  0  0  0  0  0  0  0  0
   65.3779   32.6988   48.9635 H   0  0  0  0  0  0  0  0  0  0  0  0
  1  2  1  0
  2  3  1  0
  3  4  2  0
  4  5  1  0
  5  6  2  0
  6  7  1  0
  7  8  2  0
  7  9  1  0
  9 10  2  0
  9 11  1  0
 11 12  1  0
 12 13  1  0
 13 14  2  0
 13 15  1  0
 15 16  1  0
 16 17  2  0
 17 18  1  0
 18 19  2  0
 19 20  1  0
 20 21  2  0
 20 22  1  0
 22 23  1  0
 23 24  1  0
 24 25  1  0
 11 26  1  0
 26 27  2  0
 26 28  1  0
 28 29  1  0
 29 30  1  0
 30 31  2  0
 30 32  1  0
 32 33  1  0
 33 34  1  0
 34 35  2  0
 35 36  1  0
 36 37  2  0
 37 38  1  0
  8  3  1  0
 21 16  1  0
 38 34  1  0
 28  6  1  0
 25 19  1  0
  1 39  1  0
  1 40  1  0
  1 41  1  0
  4 42  1  0
  5 43  1  0
  8 44  1  0
 12 45  1  0
 12 46  1  0
 17 47  1  0
 18 48  1  0
 21 49  1  0
 23 50  1  0
 23 51  1  0
 24 52  1  0
 24 53  1  0
 29 54  1  0
 29 55  1  0
 32 56  1  0
 33 57  1  0
 33 58  1  0
 35 59  1  0
 36 60  1  0
 37 61  1  0
M  CHG  1  15  -1
M  END
>  <UniqueID>  (49) 
47

>  <SMILES>  (49) 
COc1ccc2c(c1)c(=O)n(CC(=O)[N-]c1ccc3c(c1)OCCO3)c(=O)n2CC(=O)NCc1ccco1

>  <Energy>  (49) 
108.06289441981458

>  <Genealogy>  (49) 
COc1ccc2c(c1)c(=O)n(CC(=O)[N-]c1ccc3c(c1)OCCO3)c(=O)n2CC(=O)NCc1ccco1 (protonated)
COc1ccc2c(c1)c(=O)n(CC(=O)[N-]c1ccc3c(c1)OCCO3)c(=O)n2CC(=O)NCc1ccco1 (3D coordinates assigned)
COc1ccc2c(c1)c(=O)n(CC(=O)[N-]c1ccc3c(c1)OCCO3)c(=O)n2CC(=O)NCc1ccco1 (nonaromatic ring conformer: 108.06289441981458 kcal/mol)

>  <smiles>  (49) 
COc1ccc2c(c1)c(=O)n(CC(=O)Nc1ccc3c(c1)OCCO3)c(=O)n2CC(=O)NCc1ccco1

>  <score_type>  (49) 
oracle

>  <origin>  (49) 
adg

>  <m_score__min__energy>  (49) 
-10.44

>  <m_primary>  (49) 
energy

$$$$
49:0
     RDKit          3D

 31 32  0  0  0  0  0  0  0  0999 V2000
   60.2790   33.3520   50.9370 H   0  0  0  0  0  0  0  0  0  0  0  0
   60.3810   33.9670   50.1380 O   0  0  0  0  0  0  0  0  0  0  0  0
   59.7040   33.7410   48.9400 C   0  0  0  0  0  0  0  0  0  0  0  0
   59.9290   34.5980   47.8590 C   0  0  0  0  0  0  0  0  0  0  0  0
   60.6331   35.4367   47.9632 H   0  0  0  0  0  0  0  0  0  0  0  0
   59.2640   34.3950   46.6460 C   0  0  0  0  0  0  0  0  0  0  0  0
   59.4471   35.0764   45.8021 H   0  0  0  0  0  0  0  0  0  0  0  0
   58.3620   33.3250   46.4970 C   0  0  0  0  0  0  0  0  0  0  0  0
   57.6640   33.1060   45.2100 C   0  0  0  0  0  0  0  0  0  0  0  0
   57.7830   33.9420   44.2730 O   0  0  0  0  0  0  0  0  0  0  0  0
   56.8540   31.9400   45.0210 N   0  0  0  0  0  0  0  0  0  0  0  0
   57.0860   30.9800   43.9510 C   0  0  0  0  0  0  0  0  0  0  0  0
   58.1085   30.5824   44.0314 H   0  0  0  0  0  0  0  0  0  0  0  0
   56.9601   31.4793   42.9790 H   0  0  0  0  0  0  0  0  0  0  0  0
   56.1010   29.8520   44.0630 C   0  0  0  0  0  0  0  0  0  0  0  0
   55.3080   29.6570   43.1050 O   0  0  0  0  0  0  0  0  0  0  0  0
   56.0030   28.9870   45.2130 N   0  0  0  0  0  0  0  0  0  0  0  0
   56.7570   27.9850   45.5690 C   0  0  0  0  0  0  0  0  0  0  0  0
   58.1180   28.0740   45.5550 N   0  0  0  0  0  0  0  0  0  0  0  0
   58.9150   27.0410   45.9340 C   0  0  0  0  0  0  0  0  0  0  0  0
   60.0089   27.1543   45.9112 H   0  0  0  0  0  0  0  0  0  0  0  0
   58.3480   25.8370   46.3520 C   0  0  0  0  0  0  0  0  0  0  0  0
   58.9883   24.9966   46.6581 H   0  0  0  0  0  0  0  0  0  0  0  0
   56.9580   25.7120   46.3770 C   0  0  0  0  0  0  0  0  0  0  0  0
   56.4953   24.7693   46.7046 H   0  0  0  0  0  0  0  0  0  0  0  0
   56.1550   26.7870   45.9850 C   0  0  0  0  0  0  0  0  0  0  0  0
   54.7700   26.6610   46.0120 O   0  0  0  0  0  0  0  0  0  0  0  0
   58.1420   32.4650   47.5880 C   0  0  0  0  0  0  0  0  0  0  0  0
   57.4398   31.6244   47.4864 H   0  0  0  0  0  0  0  0  0  0  0  0
   58.8080   32.6690   48.8010 C   0  0  0  0  0  0  0  0  0  0  0  0
   58.5730   31.8050   49.8640 O   0  0  0  0  0  0  0  0  0  0  0  0
  1  2  1  0
  2  3  1  0
  3  4  2  0
  4  5  1  0
  4  6  1  0
  6  7  1  0
  6  8  2  0
  8  9  1  0
  9 10  2  0
  9 11  1  0
 11 12  1  0
 12 13  1  0
 12 14  1  0
 12 15  1  0
 15 16  2  0
 15 17  1  0
 17 18  2  0
 18 19  1  0
 19 20  1  0
 20 21  1  0
 20 22  2  0
 22 23  1  0
 22 24  1  0
 24 25  1  0
 24 26  2  0
 26 27  1  0
  8 28  1  0
 28 29  1  0
 28 30  2  0
 30 31  1  0
 30  3  1  0
 26 18  1  0
M  CHG  4  11  -1  19  -1  27  -1  31  -1
M  END
>  <UniqueID>  (50) 
48

>  <SMILES>  (50) 
O=C(C[N-]C(=O)c1ccc(O)c([O-])c1)/N=c1\[n-]cccc1[O-]

>  <Energy>  (50) 
35.02710040386972

>  <Genealogy>  (50) 
O=C(C[N-]C(=O)c1ccc(O)c([O-])c1)N=c1[n-]cccc1[O-] (protonated)
O=C(C[N-]C(=O)c1ccc(O)c([O-])c1)/N=c1\[n-]cccc1[O-] (cis-trans isomerization)
O=C(C[N-]C(=O)c1ccc(O)c([O-])c1)/N=c1\[n-]cccc1[O-] (3D coordinates assigned)
O=C(C[N-]C(=O)c1ccc(O)c([O-])c1)/N=c1\[n-]cccc1[O-] (optimized conformer: 35.02710040386972 kcal/mol)

>  <smiles>  (50) 
O=C(CNC(=O)c1ccc(O)c(O)c1)N=c1[nH]cccc1O

>  <score_type>  (50) 
oracle

>  <origin>  (50) 
adg

>  <m_score__min__energy>  (50) 
-15.1

>  <m_primary>  (50) 
energy

$$$$
50:0
     RDKit          3D

 68 72  0  0  0  0  0  0  0  0999 V2000
   54.7690   29.3670   43.8100 N   0  0  0  0  0  0  0  0  0  0  0  0
   55.8560   29.6700   44.4420 C   0  0  0  0  0  0  0  0  0  0  0  0
   56.5910   28.6900   45.0240 N   0  0  0  0  0  0  0  0  0  0  0  0
   57.7470   28.9600   45.6950 C   0  0  0  0  0  0  0  0  0  0  0  0
   58.4870   27.8760   46.3120 N   0  0  0  0  0  0  0  0  0  0  0  0
   58.1270   26.4840   45.9650 C   0  0  0  0  0  0  0  0  0  0  0  0
   59.2140   25.4470   46.3450 C   0  0  0  0  0  0  0  0  0  0  0  0
   60.3940   26.0150   46.8780 O   0  0  0  0  0  0  0  0  0  0  0  0
   60.0610   26.8740   47.9370 C   0  0  0  0  0  0  0  0  0  0  0  0
   59.4860   28.1590   47.3580 C   0  0  0  0  0  0  0  0  0  0  0  0
   58.1810   30.2970   45.7750 C   0  0  0  0  0  0  0  0  0  0  0  0
   57.4060   31.3020   45.1790 C   0  0  0  0  0  0  0  0  0  0  0  0
   57.7920   32.7240   45.2840 C   0  0  0  0  0  0  0  0  0  0  0  0
   56.9470   33.6220   45.0070 O   0  0  0  0  0  0  0  0  0  0  0  0
   59.1270   33.0900   45.6670 N   0  0  0  0  0  0  0  0  0  0  0  0
   59.5190   34.4770   45.9120 C   0  0  0  0  0  0  0  0  0  0  0  0
   60.2390   34.6440   47.2590 C   0  0  0  0  0  0  0  0  0  0  0  0
   61.3660   33.6440   47.4600 C   0  0  0  0  0  0  0  0  0  0  0  0
   62.5220   33.9030   46.6890 C   0  0  0  0  0  0  0  0  0  0  0  0
   63.6420   33.0800   46.7500 C   0  0  0  0  0  0  0  0  0  0  0  0
   63.6470   31.9810   47.5950 C   0  0  0  0  0  0  0  0  0  0  0  0
   62.5290   31.6950   48.3740 C   0  0  0  0  0  0  0  0  0  0  0  0
   61.3620   32.4980   48.3380 C   0  0  0  0  0  0  0  0  0  0  0  0
   60.2110   31.9460   49.1990 C   0  0  0  0  0  0  0  0  0  0  0  0
   59.6860   33.0240   50.1850 C   0  0  0  0  0  0  0  0  0  0  0  0
   59.1480   32.4610   51.5120 C   0  0  0  0  0  0  0  0  0  0  0  0
   58.4220   31.2000   51.2970 N   0  0  0  0  0  0  0  0  0  0  0  0
   57.2520   30.8800   52.0780 C   0  0  0  0  0  0  0  0  0  0  0  0
   56.4010   30.0740   51.6240 O   0  0  0  0  0  0  0  0  0  0  0  0
   57.0000   31.5440   53.4030 C   0  0  0  0  0  0  0  0  0  0  0  0
   58.0200   31.1770   54.4700 C   0  0  0  0  0  0  0  0  0  0  0  0
   56.6120   30.6140   54.5370 C   0  0  0  0  0  0  0  0  0  0  0  0
   59.0140   30.1400   50.4680 C   0  0  0  0  0  0  0  0  0  0  0  0
   60.3660   30.5790   49.8870 C   0  0  0  0  0  0  0  0  0  0  0  0
   56.2640   30.9620   44.5240 N   0  0  0  0  0  0  0  0  0  0  0  0
   54.7730   29.1270   42.7940 H   0  0  0  0  0  0  0  0  0  0  0  0
   57.1982   26.2233   46.4936 H   0  0  0  0  0  0  0  0  0  0  0  0
   58.0126   26.4442   44.8717 H   0  0  0  0  0  0  0  0  0  0  0  0
   58.7910   24.7626   47.0951 H   0  0  0  0  0  0  0  0  0  0  0  0
   59.5013   24.9342   45.4152 H   0  0  0  0  0  0  0  0  0  0  0  0
   59.3133   26.3920   48.5840 H   0  0  0  0  0  0  0  0  0  0  0  0
   60.9570   27.0990   48.5341 H   0  0  0  0  0  0  0  0  0  0  0  0
   59.0068   28.7325   48.1651 H   0  0  0  0  0  0  0  0  0  0  0  0
   60.3078   28.7340   46.9063 H   0  0  0  0  0  0  0  0  0  0  0  0
   59.1152   30.5496   46.2979 H   0  0  0  0  0  0  0  0  0  0  0  0
   59.8600   32.3510   45.7390 H   0  0  0  0  0  0  0  0  0  0  0  0
   60.1934   34.8027   45.1064 H   0  0  0  0  0  0  0  0  0  0  0  0
   58.6048   35.0882   45.9381 H   0  0  0  0  0  0  0  0  0  0  0  0
   60.6590   35.6595   47.3081 H   0  0  0  0  0  0  0  0  0  0  0  0
   59.4974   34.4666   48.0518 H   0  0  0  0  0  0  0  0  0  0  0  0
   62.5365   34.7785   46.0231 H   0  0  0  0  0  0  0  0  0  0  0  0
   64.5224   33.3010   46.1286 H   0  0  0  0  0  0  0  0  0  0  0  0
   64.5351   31.3343   47.6501 H   0  0  0  0  0  0  0  0  0  0  0  0
   62.5524   30.8184   49.0381 H   0  0  0  0  0  0  0  0  0  0  0  0
   59.4618   31.7048   48.4305 H   0  0  0  0  0  0  0  0  0  0  0  0
   60.5121   33.7135   50.4132 H   0  0  0  0  0  0  0  0  0  0  0  0
   58.8396   33.5201   49.6874 H   0  0  0  0  0  0  0  0  0  0  0  0
   59.9922   32.2778   52.1930 H   0  0  0  0  0  0  0  0  0  0  0  0
   58.4528   33.1945   51.9463 H   0  0  0  0  0  0  0  0  0  0  0  0
   56.5813   32.4757   52.9949 H   0  0  0  0  0  0  0  0  0  0  0  0
   58.8648   30.5182   54.2203 H   0  0  0  0  0  0  0  0  0  0  0  0
   58.6654   31.7434   55.1575 H   0  0  0  0  0  0  0  0  0  0  0  0
   56.4368   29.5466   54.3369 H   0  0  0  0  0  0  0  0  0  0  0  0
   55.8148   30.6034   55.2948 H   0  0  0  0  0  0  0  0  0  0  0  0
   59.1636   29.2425   51.0862 H   0  0  0  0  0  0  0  0  0  0  0  0
   58.3292   29.9269   49.6339 H   0  0  0  0  0  0  0  0  0  0  0  0
   61.1047   30.6588   50.6981 H   0  0  0  0  0  0  0  0  0  0  0  0
   60.7068   29.8357   49.1513 H   0  0  0  0  0  0  0  0  0  0  0  0
  1  2  2  3
  2  3  1  0
  3  4  2  0
  4  5  1  0
  5  6  1  0
  6  7  1  0
  7  8  1  0
  8  9  1  0
  9 10  1  0
  4 11  1  0
 11 12  2  0
 12 13  1  0
 13 14  2  0
 13 15  1  0
 15 16  1  0
 16 17  1  0
 17 18  1  0
 18 19  2  0
 19 20  1  0
 20 21  2  0
 21 22  1  0
 22 23  2  0
 23 24  1  0
 24 25  1  0
 25 26  1  0
 26 27  1  0
 27 28  1  0
 28 29  2  0
 28 30  1  0
 30 31  1  0
 31 32  1  0
 27 33  1  0
 33 34  1  0
 12 35  1  0
 35  2  1  0
 10  5  1  0
 23 18  1  0
 34 24  1  0
 32 30  1  0
  1 36  1  0
  6 37  1  0
  6 38  1  0
  7 39  1  0
  7 40  1  0
  9 41  1  0
  9 42  1  0
 10 43  1  0
 10 44  1  0
 11 45  1  0
 15 46  1  0
 16 47  1  0
 16 48  1  0
 17 49  1  0
 17 50  1  0
 19 51  1  0
 20 52  1  0
 21 53  1  0
 22 54  1  0
 24 55  1  0
 25 56  1  0
 25 57  1  0
 26 58  1  0
 26 59  1  0
 30 60  1  0
 31 61  1  0
 31 62  1  0
 32 63  1  0
 32 64  1  0
 33 65  1  0
 33 66  1  0
 34 67  1  0
 34 68  1  0
M  CHG  1  35  -1
M  END
>  <UniqueID>  (51) 
49

>  <SMILES>  (51) 
N=c1nc(N2CCOCC2)cc(C(=O)NCCc2ccccc2C2CCN(C(=O)C3CC3)CC2)[n-]1

>  <Energy>  (51) 
355.80976808808134

>  <Genealogy>  (51) 
N=c1nc(N2CCOCC2)cc(C(=O)NCCc2ccccc2C2CCN(C(=O)C3CC3)CC2)[n-]1 (protonated)
N=c1nc(N2CCOCC2)cc(C(=O)NCCc2ccccc2C2CCN(C(=O)C3CC3)CC2)[n-]1 (3D coordinates assigned)
N=c1nc(N2CCOCC2)cc(C(=O)NCCc2ccccc2C2CCN(C(=O)C3CC3)CC2)[n-]1 (nonaromatic ring conformer: 355.80976808808134 kcal/mol)

>  <smiles>  (51) 
N=c1nc(N2CCOCC2)cc(C(=O)NCCc2ccccc2C2CCN(C(=O)C3CC3)CC2)[nH]1

>  <score_type>  (51) 
oracle

>  <origin>  (51) 
adg

>  <m_score__min__energy>  (51) 
-11.94

>  <m_primary>  (51) 
energy

$$$$
51:0
     RDKit          3D

 57 60  0  0  0  0  0  0  0  0999 V2000
   59.1120   35.0880   46.9520 C   0  0  0  0  0  0  0  0  0  0  0  0
   58.7480   33.6420   46.6600 C   0  0  0  0  0  0  0  0  0  0  0  0
   58.0100   33.3790   45.4840 C   0  0  0  0  0  0  0  0  0  0  0  0
   57.6240   34.3930   44.5990 O   0  0  0  0  0  0  0  0  0  0  0  0
   57.6480   32.0720   45.1740 C   0  0  0  0  0  0  0  0  0  0  0  0
   56.9960   31.8490   44.1170 O   0  0  0  0  0  0  0  0  0  0  0  0
   58.0100   31.0170   46.0180 C   0  0  0  0  0  0  0  0  0  0  0  0
   57.6560   29.5980   45.6300 C   0  0  0  0  0  0  0  0  0  0  0  0
   56.3110   29.5470   45.2400 O   0  0  0  0  0  0  0  0  0  0  0  0
   58.7740   31.2950   47.1720 C   0  0  0  0  0  0  0  0  0  0  0  0
   59.2230   30.1930   47.9850 N   0  0  0  0  0  0  0  0  0  0  0  0
   60.3350   29.3500   47.5230 C   0  0  0  0  0  0  0  0  0  0  0  0
   60.5560   28.1510   48.4530 C   0  0  0  0  0  0  0  0  0  0  0  0
   60.5470   28.5710   49.8620 N   0  0  0  0  0  0  0  0  0  0  0  0
   61.3800   27.8900   50.8270 C   0  0  0  0  0  0  0  0  0  0  0  0
   62.3040   28.6090   51.6070 C   0  0  0  0  0  0  0  0  0  0  0  0
   63.1020   27.9500   52.5470 C   0  0  0  0  0  0  0  0  0  0  0  0
   62.9890   26.5690   52.7190 C   0  0  0  0  0  0  0  0  0  0  0  0
   62.0730   25.8450   51.9520 C   0  0  0  0  0  0  0  0  0  0  0  0
   61.2720   26.4980   51.0110 C   0  0  0  0  0  0  0  0  0  0  0  0
   59.5700   29.5670   50.3320 C   0  0  0  0  0  0  0  0  0  0  0  0
   58.5420   29.9070   49.2500 C   0  0  0  0  0  0  0  0  0  0  0  0
   59.1260   32.5960   47.4880 N   0  0  0  0  0  0  0  0  0  0  0  0
   59.9050   32.8600   48.7230 C   0  0  0  0  0  0  0  0  0  0  0  0
   61.3950   32.9530   48.4590 C   0  0  0  0  0  0  0  0  0  0  0  0
   62.3500   32.6310   49.4440 C   0  0  0  0  0  0  0  0  0  0  0  0
   63.7160   32.7070   49.1560 C   0  0  0  0  0  0  0  0  0  0  0  0
   64.1430   33.0890   47.8820 C   0  0  0  0  0  0  0  0  0  0  0  0
   63.2050   33.3930   46.8920 C   0  0  0  0  0  0  0  0  0  0  0  0
   61.8390   33.3200   47.1760 C   0  0  0  0  0  0  0  0  0  0  0  0
   59.1512   35.2437   48.0402 H   0  0  0  0  0  0  0  0  0  0  0  0
   60.0951   35.3143   46.5136 H   0  0  0  0  0  0  0  0  0  0  0  0
   58.3532   35.7528   46.5136 H   0  0  0  0  0  0  0  0  0  0  0  0
   57.0480   34.2420   43.7810 H   0  0  0  0  0  0  0  0  0  0  0  0
   58.2937   29.2757   44.7937 H   0  0  0  0  0  0  0  0  0  0  0  0
   57.8165   28.9299   46.4890 H   0  0  0  0  0  0  0  0  0  0  0  0
   56.2310   30.1330   44.4430 H   0  0  0  0  0  0  0  0  0  0  0  0
   60.1075   28.9809   46.5120 H   0  0  0  0  0  0  0  0  0  0  0  0
   61.2514   29.9585   47.5210 H   0  0  0  0  0  0  0  0  0  0  0  0
   59.7531   27.4168   48.2910 H   0  0  0  0  0  0  0  0  0  0  0  0
   61.5357   27.7056   48.2254 H   0  0  0  0  0  0  0  0  0  0  0  0
   62.3993   29.6971   51.4764 H   0  0  0  0  0  0  0  0  0  0  0  0
   63.8209   28.5211   53.1528 H   0  0  0  0  0  0  0  0  0  0  0  0
   63.6200   26.0521   53.4570 H   0  0  0  0  0  0  0  0  0  0  0  0
   61.9818   24.7574   52.0891 H   0  0  0  0  0  0  0  0  0  0  0  0
   60.5530   25.9213   50.4106 H   0  0  0  0  0  0  0  0  0  0  0  0
   59.0436   29.1633   51.2094 H   0  0  0  0  0  0  0  0  0  0  0  0
   60.1152   30.4875   50.5880 H   0  0  0  0  0  0  0  0  0  0  0  0
   57.8616   29.0536   49.1128 H   0  0  0  0  0  0  0  0  0  0  0  0
   57.9699   30.7936   49.5609 H   0  0  0  0  0  0  0  0  0  0  0  0
   59.5638   33.8104   49.1593 H   0  0  0  0  0  0  0  0  0  0  0  0
   59.7386   32.0175   49.4104 H   0  0  0  0  0  0  0  0  0  0  0  0
   62.0188   32.3181   50.4452 H   0  0  0  0  0  0  0  0  0  0  0  0
   64.4555   32.4656   49.9337 H   0  0  0  0  0  0  0  0  0  0  0  0
   65.2182   33.1505   47.6580 H   0  0  0  0  0  0  0  0  0  0  0  0
   63.5424   33.6901   45.8881 H   0  0  0  0  0  0  0  0  0  0  0  0
   61.1051   33.5514   46.3900 H   0  0  0  0  0  0  0  0  0  0  0  0
  1  2  1  0
  2  3  2  0
  3  4  1  0
  3  5  1  0
  5  6  2  0
  5  7  1  0
  7  8  1  0
  8  9  1  0
  7 10  2  0
 10 11  1  0
 11 12  1  0
 12 13  1  0
 13 14  1  0
 14 15  1  0
 15 16  2  0
 16 17  1  0
 17 18  2  0
 18 19  1  0
 19 20  2  0
 14 21  1  0
 21 22  1  0
 10 23  1  0
 23 24  1  0
 24 25  1  0
 25 26  2  0
 26 27  1  0
 27 28  2  0
 28 29  1  0
 29 30  2  0
 23  2  1  0
 30 25  1  0
 22 11  1  0
 20 15  1  0
  1 31  1  0
  1 32  1  0
  1 33  1  0
  4 34  1  0
  8 35  1  0
  8 36  1  0
  9 37  1  0
 12 38  1  0
 12 39  1  0
 13 40  1  0
 13 41  1  0
 16 42  1  0
 17 43  1  0
 18 44  1  0
 19 45  1  0
 20 46  1  0
 21 47  1  0
 21 48  1  0
 22 49  1  0
 22 50  1  0
 24 51  1  0
 24 52  1  0
 26 53  1  0
 27 54  1  0
 28 55  1  0
 29 56  1  0
 30 57  1  0
M  END
>  <UniqueID>  (52) 
50

>  <SMILES>  (52) 
Cc1c(O)c(=O)c(CO)c(N2CCN(c3ccccc3)CC2)n1Cc1ccccc1

>  <Energy>  (52) 
79.69147413055215

>  <Genealogy>  (52) 
Cc1c(O)c(=O)c(CO)c(N2CCN(c3ccccc3)CC2)n1Cc1ccccc1 (3D coordinates assigned)
Cc1c(O)c(=O)c(CO)c(N2CCN(c3ccccc3)CC2)n1Cc1ccccc1 (nonaromatic ring conformer: 79.69147413055215 kcal/mol)

>  <smiles>  (52) 
Cc1c(O)c(=O)c(CO)c(N2CCN(c3ccccc3)CC2)n1Cc1ccccc1

>  <score_type>  (52) 
oracle

>  <origin>  (52) 
adg

>  <m_score__min__energy>  (52) 
-6.9800000000000004

>  <m_primary>  (52) 
energy

$$$$
52:0
     RDKit          3D

 48 50  0  0  0  0  0  0  0  0999 V2000
   57.3429   21.4539   42.2991 H   0  0  0  0  0  0  0  0  0  0  0  0
   57.0450   22.1040   43.1350 C   0  0  0  0  0  0  0  0  0  0  0  0
   57.7590   22.0690   44.3370 C   0  0  0  0  0  0  0  0  0  0  0  0
   58.6164   21.3887   44.4468 H   0  0  0  0  0  0  0  0  0  0  0  0
   57.3850   22.8970   45.3990 C   0  0  0  0  0  0  0  0  0  0  0  0
   57.9481   22.8649   46.3434 H   0  0  0  0  0  0  0  0  0  0  0  0
   56.2940   23.7690   45.2650 C   0  0  0  0  0  0  0  0  0  0  0  0
   55.8750   24.6370   46.4220 C   0  0  0  0  0  0  0  0  0  0  0  0
   56.7164   24.7334   47.1239 H   0  0  0  0  0  0  0  0  0  0  0  0
   55.0130   24.1692   46.9201 H   0  0  0  0  0  0  0  0  0  0  0  0
   55.4830   25.9680   45.9570 N   0  0  0  0  0  0  0  0  0  0  0  0
   56.2580   27.0110   45.9610 C   0  0  0  0  0  0  0  0  0  0  0  0
   57.4430   26.9970   46.6260 N   0  0  0  0  0  0  0  0  0  0  0  0
   58.2420   28.0920   46.6220 C   0  0  0  0  0  0  0  0  0  0  0  0
   59.8030   28.0620   47.4960 S   0  0  0  0  0  0  0  0  0  0  0  0
   60.7470   27.3890   46.0860 C   0  0  0  0  0  0  0  0  0  0  0  0
   61.8090   27.3159   46.3632 H   0  0  0  0  0  0  0  0  0  0  0  0
   60.3512   26.3937   45.8354 H   0  0  0  0  0  0  0  0  0  0  0  0
   60.6100   28.2800   44.8900 C   0  0  0  0  0  0  0  0  0  0  0  0
   61.5910   28.9690   44.5040 O   0  0  0  0  0  0  0  0  0  0  0  0
   59.3820   28.3290   44.1650 N   0  0  0  0  0  0  0  0  0  0  0  0
   59.2900   28.9470   43.3280 H   0  0  0  0  0  0  0  0  0  0  0  0
   58.5680   27.7440   44.4570 H   0  0  0  0  0  0  0  0  0  0  0  0
   57.8610   29.2050   45.9470 N   0  0  0  0  0  0  0  0  0  0  0  0
   56.6780   29.2260   45.2760 C   0  0  0  0  0  0  0  0  0  0  0  0
   56.2970   30.2850   44.6270 N   0  0  0  0  0  0  0  0  0  0  0  0
   57.1680   31.1080   43.7870 C   0  0  0  0  0  0  0  0  0  0  0  0
   56.5677   31.5790   42.9947 H   0  0  0  0  0  0  0  0  0  0  0  0
   57.9443   30.4675   43.3431 H   0  0  0  0  0  0  0  0  0  0  0  0
   57.8320   32.1810   44.6110 C   0  0  0  0  0  0  0  0  0  0  0  0
   58.8340   31.8380   45.5310 C   0  0  0  0  0  0  0  0  0  0  0  0
   59.1530   30.7897   45.6273 H   0  0  0  0  0  0  0  0  0  0  0  0
   59.4290   32.8220   46.3260 C   0  0  0  0  0  0  0  0  0  0  0  0
   60.2090   32.5433   47.0498 H   0  0  0  0  0  0  0  0  0  0  0  0
   59.0360   34.1630   46.2050 C   0  0  0  0  0  0  0  0  0  0  0  0
   59.6420   35.2120   47.0880 C   0  0  0  0  0  0  0  0  0  0  0  0
   59.4847   34.9396   48.1421 H   0  0  0  0  0  0  0  0  0  0  0  0
   60.7207   35.2838   46.8849 H   0  0  0  0  0  0  0  0  0  0  0  0
   59.1653   36.1823   46.8849 H   0  0  0  0  0  0  0  0  0  0  0  0
   58.0170   34.5030   45.3010 C   0  0  0  0  0  0  0  0  0  0  0  0
   57.6847   35.5484   45.2192 H   0  0  0  0  0  0  0  0  0  0  0  0
   57.4230   33.5210   44.5050 C   0  0  0  0  0  0  0  0  0  0  0  0
   56.6320   33.7977   43.7924 H   0  0  0  0  0  0  0  0  0  0  0  0
   55.8810   28.1280   45.2870 N   0  0  0  0  0  0  0  0  0  0  0  0
   55.5760   23.7950   44.0560 C   0  0  0  0  0  0  0  0  0  0  0  0
   54.7151   24.4705   43.9440 H   0  0  0  0  0  0  0  0  0  0  0  0
   55.9530   22.9650   42.9960 C   0  0  0  0  0  0  0  0  0  0  0  0
   55.3895   22.9897   42.0516 H   0  0  0  0  0  0  0  0  0  0  0  0
  1  2  1  0
  2  3  2  0
  3  4  1  0
  3  5  1  0
  5  6  1  0
  5  7  2  0
  7  8  1  0
  8  9  1  0
  8 10  1  0
  8 11  1  0
 11 12  2  0
 12 13  1  0
 13 14  1  0
 14 15  1  0
 15 16  1  0
 16 17  1  0
 16 18  1  0
 16 19  1  0
 19 20  2  0
 19 21  1  0
 21 22  1  0
 21 23  1  0
 14 24  2  0
 24 25  1  0
 25 26  2  0
 26 27  1  0
 27 28  1  0
 27 29  1  0
 27 30  1  0
 30 31  2  0
 31 32  1  0
 31 33  1  0
 33 34  1  0
 33 35  2  0
 35 36  1  0
 36 37  1  0
 36 38  1  0
 36 39  1  0
 35 40  1  0
 40 41  1  0
 40 42  2  0
 42 43  1  0
 25 44  1  0
  7 45  1  0
 45 46  1  0
 45 47  2  0
 47 48  1  0
 47  2  1  0
 44 12  1  0
 42 30  1  0
M  CHG  2  13  -1  44  -1
M  END
>  <UniqueID>  (53) 
51

>  <SMILES>  (53) 
Cc1ccc(C/N=c2\nc(SCC(N)=O)[n-]/c(=N\Cc3ccccc3)[n-]2)cc1

>  <Energy>  (53) 
40.43108261769773

>  <Genealogy>  (53) 
Cc1ccc(CN=c2nc(SCC(N)=O)[n-]c(=NCc3ccccc3)[n-]2)cc1 (protonated)
Cc1ccc(C/N=c2\nc(SCC(N)=O)[n-]/c(=N\Cc3ccccc3)[n-]2)cc1 (cis-trans isomerization)
Cc1ccc(C/N=c2\nc(SCC(N)=O)[n-]/c(=N\Cc3ccccc3)[n-]2)cc1 (3D coordinates assigned)
Cc1ccc(C/N=c2\nc(SCC(N)=O)[n-]/c(=N\Cc3ccccc3)[n-]2)cc1 (optimized conformer: 40.43108261769773 kcal/mol)

>  <smiles>  (53) 
Cc1ccc(CN=c2nc(SCC(N)=O)[nH]c(=NCc3ccccc3)[nH]2)cc1

>  <score_type>  (53) 
oracle

>  <origin>  (53) 
adg

>  <m_score__min__energy>  (53) 
-11.76

>  <m_primary>  (53) 
energy

$$$$
53:0
     RDKit          3D

 60 63  0  0  0  0  0  0  0  0999 V2000
   64.2760   34.2300   51.2550 C   0  0  0  0  0  0  0  0  0  0  0  0
   63.6630   33.7620   50.0200 N   0  0  0  0  0  0  0  0  0  0  0  0
   64.3030   33.2050   48.9750 C   0  0  0  0  0  0  0  0  0  0  0  0
   63.4040   32.9380   47.9630 C   0  0  0  0  0  0  0  0  0  0  0  0
   62.1640   33.3660   48.4170 C   0  0  0  0  0  0  0  0  0  0  0  0
   60.8880   33.3200   47.6630 C   0  0  0  0  0  0  0  0  0  0  0  0
   60.8310   33.8560   46.3640 C   0  0  0  0  0  0  0  0  0  0  0  0
   59.6380   33.8350   45.6350 C   0  0  0  0  0  0  0  0  0  0  0  0
   58.4840   33.2580   46.1810 C   0  0  0  0  0  0  0  0  0  0  0  0
   57.2260   33.2440   45.4050 C   0  0  0  0  0  0  0  0  0  0  0  0
   56.6230   34.3290   45.1940 O   0  0  0  0  0  0  0  0  0  0  0  0
   56.6560   32.0310   44.8990 N   0  0  0  0  0  0  0  0  0  0  0  0
   57.2290   31.2170   43.8300 C   0  0  0  0  0  0  0  0  0  0  0  0
   57.7290   29.9130   44.3900 C   0  0  0  0  0  0  0  0  0  0  0  0
   57.4540   28.7020   43.7370 C   0  0  0  0  0  0  0  0  0  0  0  0
   57.8920   27.4880   44.2830 C   0  0  0  0  0  0  0  0  0  0  0  0
   58.6270   27.4710   45.4800 C   0  0  0  0  0  0  0  0  0  0  0  0
   59.0900   26.1870   46.0560 C   0  0  0  0  0  0  0  0  0  0  0  0
   60.1500   26.1630   46.7420 O   0  0  0  0  0  0  0  0  0  0  0  0
   58.3770   24.9610   45.8150 N   0  0  0  0  0  0  0  0  0  0  0  0
   59.1390   23.7180   45.6090 C   0  0  0  0  0  0  0  0  0  0  0  0
   58.2360   22.5670   45.1360 C   0  0  0  0  0  0  0  0  0  0  0  0
   57.1400   23.1070   44.1980 C   0  0  0  0  0  0  0  0  0  0  0  0
   56.3380   21.9920   43.5790 C   0  0  0  0  0  0  0  0  0  0  0  0
   55.6020   22.2330   42.3800 N   0  0  0  0  0  0  0  0  0  0  0  0
   56.2620   20.8680   44.1430 O   0  0  0  0  0  0  0  0  0  0  0  0
   56.2090   24.0930   44.9420 C   0  0  0  0  0  0  0  0  0  0  0  0
   56.9260   24.8910   46.0530 C   0  0  0  0  0  0  0  0  0  0  0  0
   58.8820   28.6850   46.1410 C   0  0  0  0  0  0  0  0  0  0  0  0
   58.4310   29.8950   45.6060 C   0  0  0  0  0  0  0  0  0  0  0  0
   58.5290   32.7300   47.4780 C   0  0  0  0  0  0  0  0  0  0  0  0
   59.7230   32.7430   48.2150 C   0  0  0  0  0  0  0  0  0  0  0  0
   59.7510   32.1610   49.4830 O   0  0  0  0  0  0  0  0  0  0  0  0
   62.3670   33.8840   49.6880 C   0  0  0  0  0  0  0  0  0  0  0  0
   63.7312   33.8141   52.1153 H   0  0  0  0  0  0  0  0  0  0  0  0
   65.3250   33.9009   51.2913 H   0  0  0  0  0  0  0  0  0  0  0  0
   64.2350   35.3286   51.2913 H   0  0  0  0  0  0  0  0  0  0  0  0
   65.3818   32.9941   48.9340 H   0  0  0  0  0  0  0  0  0  0  0  0
   63.6259   32.4772   46.9892 H   0  0  0  0  0  0  0  0  0  0  0  0
   61.7344   34.2964   45.9168 H   0  0  0  0  0  0  0  0  0  0  0  0
   59.6054   34.2741   44.6270 H   0  0  0  0  0  0  0  0  0  0  0  0
   56.4581   31.0163   43.0714 H   0  0  0  0  0  0  0  0  0  0  0  0
   58.0691   31.7601   43.3724 H   0  0  0  0  0  0  0  0  0  0  0  0
   56.8917   28.7055   42.7916 H   0  0  0  0  0  0  0  0  0  0  0  0
   57.6589   26.5427   43.7712 H   0  0  0  0  0  0  0  0  0  0  0  0
   59.9145   23.8973   44.8498 H   0  0  0  0  0  0  0  0  0  0  0  0
   59.5872   23.4281   46.5708 H   0  0  0  0  0  0  0  0  0  0  0  0
   58.8438   21.8255   44.5968 H   0  0  0  0  0  0  0  0  0  0  0  0
   57.7626   22.0972   46.0108 H   0  0  0  0  0  0  0  0  0  0  0  0
   57.6458   23.6493   43.3855 H   0  0  0  0  0  0  0  0  0  0  0  0
   56.0730   22.2080   41.4480 H   0  0  0  0  0  0  0  0  0  0  0  0
   55.7984   24.8047   44.2106 H   0  0  0  0  0  0  0  0  0  0  0  0
   55.4224   23.4956   45.4262 H   0  0  0  0  0  0  0  0  0  0  0  0
   56.5183   25.9123   46.0796 H   0  0  0  0  0  0  0  0  0  0  0  0
   56.7574   24.3774   47.0110 H   0  0  0  0  0  0  0  0  0  0  0  0
   59.4416   28.6828   47.0880 H   0  0  0  0  0  0  0  0  0  0  0  0
   58.6268   30.8368   46.1396 H   0  0  0  0  0  0  0  0  0  0  0  0
   57.6191   32.3009   47.9230 H   0  0  0  0  0  0  0  0  0  0  0  0
   60.5600   31.6530   49.8200 H   0  0  0  0  0  0  0  0  0  0  0  0
   61.5872   34.3263   50.3254 H   0  0  0  0  0  0  0  0  0  0  0  0
  1  2  1  0
  2  3  1  0
  3  4  2  0
  4  5  1  0
  5  6  1  0
  6  7  2  0
  7  8  1  0
  8  9  2  0
  9 10  1  0
 10 11  2  0
 10 12  1  0
 12 13  1  0
 13 14  1  0
 14 15  2  0
 15 16  1  0
 16 17  2  0
 17 18  1  0
 18 19  2  0
 18 20  1  0
 20 21  1  0
 21 22  1  0
 22 23  1  0
 23 24  1  0
 24 25  1  0
 24 26  2  0
 23 27  1  0
 27 28  1  0
 17 29  1  0
 29 30  2  0
  9 31  1  0
 31 32  2  0
 32 33  1  0
  5 34  2  0
 34  2  1  0
 32  6  1  0
 30 14  1  0
 28 20  1  0
  1 35  1  0
  1 36  1  0
  1 37  1  0
  3 38  1  0
  4 39  1  0
  7 40  1  0
  8 41  1  0
 13 42  1  0
 13 43  1  0
 15 44  1  0
 16 45  1  0
 21 46  1  0
 21 47  1  0
 22 48  1  0
 22 49  1  0
 23 50  1  0
 25 51  1  0
 27 52  1  0
 27 53  1  0
 28 54  1  0
 28 55  1  0
 29 56  1  0
 30 57  1  0
 31 58  1  0
 33 59  1  0
 34 60  1  0
M  CHG  2  12  -1  25  -1
M  END
>  <UniqueID>  (54) 
52

>  <SMILES>  (54) 
Cn1ccc(-c2ccc(C(=O)[N-]Cc3ccc(C(=O)N4CCC(C([NH-])=O)CC4)cc3)cc2O)c1

>  <Energy>  (54) 
100.87693002764642

>  <Genealogy>  (54) 
Cn1ccc(-c2ccc(C(=O)[N-]Cc3ccc(C(=O)N4CCC(C([NH-])=O)CC4)cc3)cc2O)c1 (protonated)
Cn1ccc(-c2ccc(C(=O)[N-]Cc3ccc(C(=O)N4CCC(C([NH-])=O)CC4)cc3)cc2O)c1 (3D coordinates assigned)
Cn1ccc(-c2ccc(C(=O)[N-]Cc3ccc(C(=O)N4CCC(C([NH-])=O)CC4)cc3)cc2O)c1 (nonaromatic ring conformer: 100.87693002764642 kcal/mol)

>  <smiles>  (54) 
Cn1ccc(-c2ccc(C(=O)NCc3ccc(C(=O)N4CCC(C(N)=O)CC4)cc3)cc2O)c1

>  <score_type>  (54) 
oracle

>  <origin>  (54) 
adg

>  <m_score__min__energy>  (54) 
-13.039999999999999

>  <m_primary>  (54) 
energy

$$$$
54:0
     RDKit          3D

 32 33  0  0  0  0  0  0  0  0999 V2000
   56.7199   21.5355   45.0219 H   0  0  0  0  0  0  0  0  0  0  0  0
   56.4300   22.3720   44.3690 C   0  0  0  0  0  0  0  0  0  0  0  0
   55.8970   22.1310   43.2540 O   0  0  0  0  0  0  0  0  0  0  0  0
   56.6720   23.7560   44.8140 C   0  0  0  0  0  0  0  0  0  0  0  0
   57.9800   24.2630   44.8210 C   0  0  0  0  0  0  0  0  0  0  0  0
   58.8148   23.6265   44.4924 H   0  0  0  0  0  0  0  0  0  0  0  0
   58.2290   25.5720   45.2430 C   0  0  0  0  0  0  0  0  0  0  0  0
   59.2572   25.9628   45.2319 H   0  0  0  0  0  0  0  0  0  0  0  0
   57.1790   26.3900   45.6800 C   0  0  0  0  0  0  0  0  0  0  0  0
   57.4800   27.7750   46.1040 C   0  0  0  0  0  0  0  0  0  0  0  0
   57.2962   28.0453   47.1543 H   0  0  0  0  0  0  0  0  0  0  0  0
   57.9660   28.7260   45.2810 C   0  0  0  0  0  0  0  0  0  0  0  0
   59.3880   28.8500   45.0470 C   0  0  0  0  0  0  0  0  0  0  0  0
   60.5260   28.9510   44.8610 N   0  0  0  0  0  0  0  0  0  0  0  0
   57.0530   29.6300   44.5450 C   0  0  0  0  0  0  0  0  0  0  0  0
   56.5860   29.2880   43.4240 O   0  0  0  0  0  0  0  0  0  0  0  0
   56.6580   30.8750   45.1400 N   0  0  0  0  0  0  0  0  0  0  0  0
   57.5000   32.0110   45.3890 C   0  0  0  0  0  0  0  0  0  0  0  0
   57.4990   33.1370   44.5440 C   0  0  0  0  0  0  0  0  0  0  0  0
   56.8259   33.1697   43.6746 H   0  0  0  0  0  0  0  0  0  0  0  0
   58.3520   34.2150   44.8070 C   0  0  0  0  0  0  0  0  0  0  0  0
   58.3400   35.0973   44.1502 H   0  0  0  0  0  0  0  0  0  0  0  0
   59.2180   34.1730   45.9010 C   0  0  0  0  0  0  0  0  0  0  0  0
   59.8813   35.0251   46.1106 H   0  0  0  0  0  0  0  0  0  0  0  0
   59.2420   33.0480   46.7300 C   0  0  0  0  0  0  0  0  0  0  0  0
   59.9307   33.0116   47.5870 H   0  0  0  0  0  0  0  0  0  0  0  0
   58.3910   31.9680   46.4710 C   0  0  0  0  0  0  0  0  0  0  0  0
   58.4280   30.8800   47.2820 F   0  0  0  0  0  0  0  0  0  0  0  0
   55.8600   25.8960   45.6420 C   0  0  0  0  0  0  0  0  0  0  0  0
   54.7860   26.7090   45.9960 O   0  0  0  0  0  0  0  0  0  0  0  0
   55.6140   24.5840   45.2250 C   0  0  0  0  0  0  0  0  0  0  0  0
   54.5842   24.1973   45.2187 H   0  0  0  0  0  0  0  0  0  0  0  0
  1  2  1  0
  2  3  2  0
  2  4  1  0
  4  5  2  0
  5  6  1  0
  5  7  1  0
  7  8  1  0
  7  9  2  0
  9 10  1  0
 10 11  1  0
 10 12  2  0
 12 13  1  0
 13 14  3  0
 12 15  1  0
 15 16  2  0
 15 17  1  0
 17 18  1  0
 18 19  2  0
 19 20  1  0
 19 21  1  0
 21 22  1  0
 21 23  2  0
 23 24  1  0
 23 25  1  0
 25 26  1  0
 25 27  2  0
 27 28  1  0
  9 29  1  0
 29 30  1  0
 29 31  2  0
 31 32  1  0
 31  4  1  0
 27 18  1  0
M  CHG  2  17  -1  30  -1
M  END
>  <UniqueID>  (55) 
53

>  <SMILES>  (55) 
N#C/C(=C\c1ccc(C=O)cc1[O-])C(=O)[N-]c1ccccc1F

>  <Energy>  (55) 
43.62917662292481

>  <Genealogy>  (55) 
N#CC(=Cc1ccc(C=O)cc1[O-])C(=O)[N-]c1ccccc1F (protonated)
N#C/C(=C\c1ccc(C=O)cc1[O-])C(=O)[N-]c1ccccc1F (cis-trans isomerization)
N#C/C(=C\c1ccc(C=O)cc1[O-])C(=O)[N-]c1ccccc1F (3D coordinates assigned)
N#C/C(=C\c1ccc(C=O)cc1[O-])C(=O)[N-]c1ccccc1F (optimized conformer: 43.62917662292481 kcal/mol)

>  <smiles>  (55) 
N#CC(=Cc1ccc(C=O)cc1O)C(=O)Nc1ccccc1F

>  <score_type>  (55) 
oracle

>  <origin>  (55) 
adg

>  <m_score__min__energy>  (55) 
-13.33

>  <m_primary>  (55) 
energy

$$$$
55:0
     RDKit          3D

 65 68  0  0  0  0  0  0  0  0999 V2000
   60.5280   29.7180   46.0480 C   0  0  0  0  0  0  0  0  0  0  0  0
   59.9990   29.3590   47.2300 C   0  0  0  0  0  0  0  0  0  0  0  0
   58.7860   28.6860   47.4300 C   0  0  0  0  0  0  0  0  0  0  0  0
   57.9890   28.0260   46.5660 C   0  0  0  0  0  0  0  0  0  0  0  0
   57.4350   26.6790   46.7760 C   0  0  0  0  0  0  0  0  0  0  0  0
   58.0870   25.6700   47.3880 N   0  0  0  0  0  0  0  0  0  0  0  0
   57.1510   24.6960   47.4580 C   0  0  0  0  0  0  0  0  0  0  0  0
   57.3870   23.5680   47.9650 O   0  0  0  0  0  0  0  0  0  0  0  0
   55.9430   25.0310   46.9550 N   0  0  0  0  0  0  0  0  0  0  0  0
   56.1370   26.2940   46.5410 C   0  0  0  0  0  0  0  0  0  0  0  0
   55.1450   27.0800   45.9650 O   0  0  0  0  0  0  0  0  0  0  0  0
   58.5040   28.7910   48.7810 C   0  0  0  0  0  0  0  0  0  0  0  0
   59.5630   29.4640   49.3670 C   0  0  0  0  0  0  0  0  0  0  0  0
   59.6870   29.7500   50.8520 C   0  0  1  0  0  0  0  0  0  0  0  0
   60.4670   28.6470   51.5830 C   0  0  0  0  0  0  0  0  0  0  0  0
   60.3090   31.1040   51.0520 C   0  0  0  0  0  0  0  0  0  0  0  0
   61.4240   31.2170   51.6330 O   0  0  0  0  0  0  0  0  0  0  0  0
   59.6570   32.2580   50.5150 N   0  0  0  0  0  0  0  0  0  0  0  0
   60.3420   33.2770   49.7320 C   0  0  0  0  0  0  0  0  0  0  0  0
   59.7280   33.3780   48.3610 C   0  0  0  0  0  0  0  0  0  0  0  0
   60.4820   33.8410   47.2690 C   0  0  0  0  0  0  0  0  0  0  0  0
   59.9050   33.9190   45.9970 C   0  0  0  0  0  0  0  0  0  0  0  0
   58.5650   33.5510   45.8020 C   0  0  0  0  0  0  0  0  0  0  0  0
   57.9620   33.6050   44.4230 C   0  0  0  0  0  0  0  0  0  0  0  0
   57.4280   32.2800   44.0480 N   0  0  0  0  0  0  0  0  0  0  0  0
   58.1910   31.2040   44.7170 C   0  0  0  0  0  0  0  0  0  0  0  0
   57.9680   29.8240   44.0530 C   0  0  0  0  0  0  0  0  0  0  0  0
   56.7140   29.7640   43.2730 N   0  0  0  0  0  0  0  0  0  0  0  0
   55.5240   29.7770   44.1420 C   0  0  0  0  0  0  0  0  0  0  0  0
   56.6550   30.8090   42.2230 C   0  0  0  0  0  0  0  0  0  0  0  0
   57.4370   32.0880   42.5880 C   0  0  0  0  0  0  0  0  0  0  0  0
   57.8090   33.0950   46.8950 C   0  0  0  0  0  0  0  0  0  0  0  0
   58.3870   33.0090   48.1660 C   0  0  0  0  0  0  0  0  0  0  0  0
   60.4970   29.7630   48.4290 N   0  0  0  0  0  0  0  0  0  0  0  0
   61.7540   30.4880   48.6570 C   0  0  0  0  0  0  0  0  0  0  0  0
   61.4926   30.2457   46.0147 H   0  0  0  0  0  0  0  0  0  0  0  0
   59.9964   29.4842   45.1138 H   0  0  0  0  0  0  0  0  0  0  0  0
   57.7315   28.5366   45.6263 H   0  0  0  0  0  0  0  0  0  0  0  0
   57.6074   28.4113   49.2929 H   0  0  0  0  0  0  0  0  0  0  0  0
   58.6803   29.7571   51.2952 H   0  0  0  0  0  0  0  0  0  0  0  0
   60.3682   28.7867   52.6696 H   0  0  0  0  0  0  0  0  0  0  0  0
   60.0624   27.6636   51.3014 H   0  0  0  0  0  0  0  0  0  0  0  0
   61.5290   28.7008   51.3014 H   0  0  0  0  0  0  0  0  0  0  0  0
   60.2540   34.2476   50.2421 H   0  0  0  0  0  0  0  0  0  0  0  0
   61.4020   33.0008   49.6315 H   0  0  0  0  0  0  0  0  0  0  0  0
   61.5296   34.1431   47.4151 H   0  0  0  0  0  0  0  0  0  0  0  0
   60.5051   34.2708   45.1449 H   0  0  0  0  0  0  0  0  0  0  0  0
   57.1457   34.3422   44.4119 H   0  0  0  0  0  0  0  0  0  0  0  0
   58.7402   33.8957   43.7019 H   0  0  0  0  0  0  0  0  0  0  0  0
   59.2623   31.4493   44.6713 H   0  0  0  0  0  0  0  0  0  0  0  0
   57.8374   31.1378   45.7565 H   0  0  0  0  0  0  0  0  0  0  0  0
   58.8123   29.6169   43.3790 H   0  0  0  0  0  0  0  0  0  0  0  0
   57.8967   29.0757   44.8561 H   0  0  0  0  0  0  0  0  0  0  0  0
   55.8395   29.7736   45.1958 H   0  0  0  0  0  0  0  0  0  0  0  0
   54.9319   30.6817   43.9394 H   0  0  0  0  0  0  0  0  0  0  0  0
   54.9123   28.8855   43.9394 H   0  0  0  0  0  0  0  0  0  0  0  0
   57.0765   30.3953   41.2950 H   0  0  0  0  0  0  0  0  0  0  0  0
   55.5991   31.0952   42.1081 H   0  0  0  0  0  0  0  0  0  0  0  0
   58.4758   31.9928   42.2388 H   0  0  0  0  0  0  0  0  0  0  0  0
   56.9610   32.9543   42.1053 H   0  0  0  0  0  0  0  0  0  0  0  0
   56.7580   32.8043   46.7506 H   0  0  0  0  0  0  0  0  0  0  0  0
   57.7885   32.6507   49.0165 H   0  0  0  0  0  0  0  0  0  0  0  0
   61.9283   30.5885   49.7384 H   0  0  0  0  0  0  0  0  0  0  0  0
   62.5862   29.9312   48.2017 H   0  0  0  0  0  0  0  0  0  0  0  0
   61.6888   31.4872   48.2017 H   0  0  0  0  0  0  0  0  0  0  0  0
  1  2  2  0
  2  3  1  0
  3  4  2  3
  4  5  1  0
  5  6  1  0
  6  7  1  0
  7  8  2  0
  7  9  1  0
  9 10  1  0
 10 11  1  0
  3 12  1  0
 12 13  2  0
 13 14  1  0
 14 15  1  0
 14 16  1  0
 16 17  2  0
 16 18  1  0
 18 19  1  0
 19 20  1  0
 20 21  2  0
 21 22  1  0
 22 23  2  0
 23 24  1  0
 24 25  1  0
 25 26  1  0
 26 27  1  0
 27 28  1  0
 28 29  1  0
 28 30  1  0
 30 31  1  0
 23 32  1  0
 32 33  2  0
 13 34  1  0
 34 35  1  0
 34  2  1  0
 10  5  2  0
 33 20  1  0
 31 25  1  0
  1 36  1  0
  1 37  1  0
  4 38  1  0
 12 39  1  0
 14 40  1  1
 15 41  1  0
 15 42  1  0
 15 43  1  0
 19 44  1  0
 19 45  1  0
 21 46  1  0
 22 47  1  0
 24 48  1  0
 24 49  1  0
 26 50  1  0
 26 51  1  0
 27 52  1  0
 27 53  1  0
 29 54  1  0
 29 55  1  0
 29 56  1  0
 30 57  1  0
 30 58  1  0
 31 59  1  0
 31 60  1  0
 32 61  1  0
 33 62  1  0
 35 63  1  0
 35 64  1  0
 35 65  1  0
M  CHG  4   6  -1   9  -1  11  -1  18  -1
M  END
>  <UniqueID>  (56) 
54

>  <SMILES>  (56) 
C=c1c(=Cc2[n-]c(=O)[n-]c2[O-])cc([C@@H](C)C(=O)[N-]Cc2ccc(CN3CCN(C)CC3)cc2)n1C

>  <Energy>  (56) 
143.1660549795594

>  <Genealogy>  (56) 
C=c1c(=Cc2[n-]c(=O)[n-]c2[O-])cc(C(C)C(=O)[N-]Cc2ccc(CN3CCN(C)CC3)cc2)n1C (protonated)
C=c1c(=Cc2[n-]c(=O)[n-]c2[O-])cc([C@@H](C)C(=O)[N-]Cc2ccc(CN3CCN(C)CC3)cc2)n1C (chirality)
C=c1c(=Cc2[n-]c(=O)[n-]c2[O-])cc([C@@H](C)C(=O)[N-]Cc2ccc(CN3CCN(C)CC3)cc2)n1C (3D coordinates assigned)
C=c1c(=Cc2[n-]c(=O)[n-]c2[O-])cc([C@@H](C)C(=O)[N-]Cc2ccc(CN3CCN(C)CC3)cc2)n1C (nonaromatic ring conformer: 143.1660549795594 kcal/mol)

>  <smiles>  (56) 
C=c1c(=Cc2[nH]c(=O)[nH]c2O)cc(C(C)C(=O)NCc2ccc(CN3CCN(C)CC3)cc2)n1C

>  <score_type>  (56) 
oracle

>  <origin>  (56) 
adg

>  <m_score__min__energy>  (56) 
-19.09

>  <m_primary>  (56) 
energy

$$$$
56:0
     RDKit          3D

 76 80  0  0  0  0  0  0  0  0999 V2000
   64.6120   32.0590   50.2080 C   0  0  0  0  0  0  0  0  0  0  0  0
   64.2890   32.7230   48.8720 C   0  0  0  0  0  0  0  0  0  0  0  0
   63.7200   34.0140   49.0730 O   0  0  0  0  0  0  0  0  0  0  0  0
   62.4050   34.2210   49.5090 C   0  0  0  0  0  0  0  0  0  0  0  0
   62.1850   34.5730   50.7020 O   0  0  0  0  0  0  0  0  0  0  0  0
   61.3050   34.0260   48.5980 N   0  0  0  0  0  0  0  0  0  0  0  0
   61.5420   33.8940   47.1490 C   0  0  0  0  0  0  0  0  0  0  0  0
   60.6510   32.7940   46.5600 C   0  0  0  0  0  0  0  0  0  0  0  0
   59.2720   32.9550   47.0340 N   0  0  0  0  0  0  0  0  0  0  0  0
   58.1950   33.2400   46.1260 C   0  0  0  0  0  0  0  0  0  0  0  0
   57.4320   34.2130   46.3740 O   0  0  0  0  0  0  0  0  0  0  0  0
   57.9390   32.4040   44.9260 C   0  0  0  0  0  0  0  0  0  0  0  0
   58.0630   32.9570   43.6380 C   0  0  0  0  0  0  0  0  0  0  0  0
   57.7780   32.1910   42.5060 C   0  0  0  0  0  0  0  0  0  0  0  0
   57.3690   30.8630   42.6400 C   0  0  0  0  0  0  0  0  0  0  0  0
   57.2530   30.2870   43.9090 C   0  0  0  0  0  0  0  0  0  0  0  0
   56.8330   28.9220   44.0360 N   0  0  0  0  0  0  0  0  0  0  0  0
   57.7770   27.8490   44.0570 C   0  0  0  0  0  0  0  0  0  0  0  0
   58.3680   27.5410   42.9860 O   0  0  0  0  0  0  0  0  0  0  0  0
   58.0960   27.1700   45.2960 N   0  0  0  0  0  0  0  0  0  0  0  0
   59.2600   26.2850   45.3690 C   0  0  0  0  0  0  0  0  0  0  0  0
   60.2460   26.8860   46.3610 C   0  0  0  0  0  0  0  0  0  0  0  0
   59.6570   26.8620   47.7790 C   0  0  0  0  0  0  0  0  0  0  0  0
   60.4410   27.7540   48.6680 N   0  0  0  0  0  0  0  0  0  0  0  0
   60.4980   29.1060   48.5010 C   0  0  0  0  0  0  0  0  0  0  0  0
   60.0230   29.7020   47.4950 O   0  0  0  0  0  0  0  0  0  0  0  0
   61.0790   29.7610   49.5320 N   0  0  0  0  0  0  0  0  0  0  0  0
   61.1650   31.2070   49.7290 C   0  0  0  0  0  0  0  0  0  0  0  0
   60.4520   31.6110   51.0180 C   0  0  0  0  0  0  0  0  0  0  0  0
   61.3850   28.7860   50.4070 C   0  0  0  0  0  0  0  0  0  0  0  0
   61.9620   28.9170   51.6730 C   0  0  0  0  0  0  0  0  0  0  0  0
   62.1500   27.7500   52.4310 C   0  0  0  0  0  0  0  0  0  0  0  0
   61.7610   26.4970   51.9190 C   0  0  0  0  0  0  0  0  0  0  0  0
   61.1760   26.3940   50.6460 C   0  0  0  0  0  0  0  0  0  0  0  0
   60.9900   27.5690   49.9000 C   0  0  0  0  0  0  0  0  0  0  0  0
   58.1060   27.0410   47.8270 C   0  0  0  0  0  0  0  0  0  0  0  0
   57.4550   27.6260   46.5410 C   0  0  0  0  0  0  0  0  0  0  0  0
   57.5240   31.0650   45.0490 C   0  0  0  0  0  0  0  0  0  0  0  0
   59.0590   33.0580   48.4810 C   0  0  0  0  0  0  0  0  0  0  0  0
   59.9160   34.1840   49.0520 C   0  0  0  0  0  0  0  0  0  0  0  0
   64.2925   32.7157   51.0306 H   0  0  0  0  0  0  0  0  0  0  0  0
   64.0805   31.0985   50.2781 H   0  0  0  0  0  0  0  0  0  0  0  0
   65.6958   31.8843   50.2781 H   0  0  0  0  0  0  0  0  0  0  0  0
   65.2147   32.8241   48.2864 H   0  0  0  0  0  0  0  0  0  0  0  0
   63.5619   32.0971   48.3339 H   0  0  0  0  0  0  0  0  0  0  0  0
   61.3120   34.8498   46.6555 H   0  0  0  0  0  0  0  0  0  0  0  0
   62.5960   33.6269   46.9826 H   0  0  0  0  0  0  0  0  0  0  0  0
   60.6685   32.8604   45.4621 H   0  0  0  0  0  0  0  0  0  0  0  0
   61.0301   31.8127   46.8815 H   0  0  0  0  0  0  0  0  0  0  0  0
   58.3872   34.0017   43.5220 H   0  0  0  0  0  0  0  0  0  0  0  0
   57.8761   32.6357   41.5047 H   0  0  0  0  0  0  0  0  0  0  0  0
   57.1372   30.2677   41.7445 H   0  0  0  0  0  0  0  0  0  0  0  0
   55.8110   28.6910   44.0390 H   0  0  0  0  0  0  0  0  0  0  0  0
   58.9490   25.2865   45.7101 H   0  0  0  0  0  0  0  0  0  0  0  0
   59.7273   26.1855   44.3782 H   0  0  0  0  0  0  0  0  0  0  0  0
   61.1780   26.3020   46.3453 H   0  0  0  0  0  0  0  0  0  0  0  0
   60.4497   27.9287   46.0758 H   0  0  0  0  0  0  0  0  0  0  0  0
   59.7693   25.8464   48.1863 H   0  0  0  0  0  0  0  0  0  0  0  0
   62.2228   31.5022   49.7919 H   0  0  0  0  0  0  0  0  0  0  0  0
   60.6819   31.7126   48.8799 H   0  0  0  0  0  0  0  0  0  0  0  0
   61.0423   31.2765   51.8838 H   0  0  0  0  0  0  0  0  0  0  0  0
   60.3429   32.7051   51.0492 H   0  0  0  0  0  0  0  0  0  0  0  0
   59.4573   31.1423   51.0492 H   0  0  0  0  0  0  0  0  0  0  0  0
   62.2591   29.9018   52.0629 H   0  0  0  0  0  0  0  0  0  0  0  0
   62.6039   27.8149   53.4309 H   0  0  0  0  0  0  0  0  0  0  0  0
   61.9168   25.5902   52.5218 H   0  0  0  0  0  0  0  0  0  0  0  0
   60.8711   25.4168   50.2434 H   0  0  0  0  0  0  0  0  0  0  0  0
   57.6574   26.0542   48.0141 H   0  0  0  0  0  0  0  0  0  0  0  0
   57.9132   27.7763   48.6221 H   0  0  0  0  0  0  0  0  0  0  0  0
   56.3974   27.3242   46.5184 H   0  0  0  0  0  0  0  0  0  0  0  0
   57.5775   28.7182   46.5856 H   0  0  0  0  0  0  0  0  0  0  0  0
   57.4101   30.6213   46.0491 H   0  0  0  0  0  0  0  0  0  0  0  0
   57.9981   33.2702   48.6795 H   0  0  0  0  0  0  0  0  0  0  0  0
   59.3432   32.1084   48.9579 H   0  0  0  0  0  0  0  0  0  0  0  0
   59.5258   35.1525   48.7059 H   0  0  0  0  0  0  0  0  0  0  0  0
   59.8845   34.1454   50.1509 H   0  0  0  0  0  0  0  0  0  0  0  0
  1  2  1  0
  2  3  1  0
  3  4  1  0
  4  5  2  0
  4  6  1  0
  6  7  1  0
  7  8  1  0
  8  9  1  0
  9 10  1  0
 10 11  2  0
 10 12  1  0
 12 13  2  0
 13 14  1  0
 14 15  2  0
 15 16  1  0
 16 17  1  0
 17 18  1  0
 18 19  2  0
 18 20  1  0
 20 21  1  0
 21 22  1  0
 22 23  1  0
 23 24  1  0
 24 25  1  0
 25 26  2  0
 25 27  1  0
 27 28  1  0
 28 29  1  0
 27 30  1  0
 30 31  2  0
 31 32  1  0
 32 33  2  0
 33 34  1  0
 34 35  2  0
 23 36  1  0
 36 37  1  0
 16 38  2  0
  9 39  1  0
 39 40  1  0
 40  6  1  0
 38 12  1  0
 37 20  1  0
 35 24  1  0
 35 30  1  0
  1 41  1  0
  1 42  1  0
  1 43  1  0
  2 44  1  0
  2 45  1  0
  7 46  1  0
  7 47  1  0
  8 48  1  0
  8 49  1  0
 13 50  1  0
 14 51  1  0
 15 52  1  0
 17 53  1  0
 21 54  1  0
 21 55  1  0
 22 56  1  0
 22 57  1  0
 23 58  1  0
 28 59  1  0
 28 60  1  0
 29 61  1  0
 29 62  1  0
 29 63  1  0
 31 64  1  0
 32 65  1  0
 33 66  1  0
 34 67  1  0
 36 68  1  0
 36 69  1  0
 37 70  1  0
 37 71  1  0
 38 72  1  0
 39 73  1  0
 39 74  1  0
 40 75  1  0
 40 76  1  0
M  END
>  <UniqueID>  (57) 
55

>  <SMILES>  (57) 
CCOC(=O)N1CCN(C(=O)c2cccc(NC(=O)N3CCC(n4c(=O)n(CC)c5ccccc54)CC3)c2)CC1

>  <Energy>  (57) 
130.94708056078522

>  <Genealogy>  (57) 
CCOC(=O)N1CCN(C(=O)c2cccc(NC(=O)N3CCC(n4c(=O)n(CC)c5ccccc54)CC3)c2)CC1 (3D coordinates assigned)
CCOC(=O)N1CCN(C(=O)c2cccc(NC(=O)N3CCC(n4c(=O)n(CC)c5ccccc54)CC3)c2)CC1 (nonaromatic ring conformer: 130.94708056078522 kcal/mol)

>  <smiles>  (57) 
CCOC(=O)N1CCN(C(=O)c2cccc(NC(=O)N3CCC(n4c(=O)n(CC)c5ccccc54)CC3)c2)CC1

>  <score_type>  (57) 
oracle

>  <origin>  (57) 
adg

>  <m_score__min__energy>  (57) 
-8.9900000000000002

>  <m_primary>  (57) 
energy

$$$$
57:0
     RDKit          3D

 44 46  0  0  0  0  0  0  0  0999 V2000
   58.8910   32.9980   49.2770 C   0  0  0  0  0  0  0  0  0  0  0  0
   59.0950   33.4810   47.8650 C   0  0  0  0  0  0  0  0  0  0  0  0
   57.9670   33.7300   47.0640 C   0  0  0  0  0  0  0  0  0  0  0  0
   58.1130   34.1620   45.7460 C   0  0  0  0  0  0  0  0  0  0  0  0
   59.3850   34.3490   45.2090 C   0  0  0  0  0  0  0  0  0  0  0  0
   60.5180   34.0940   45.9840 C   0  0  0  0  0  0  0  0  0  0  0  0
   60.3900   33.6580   47.3130 C   0  0  0  0  0  0  0  0  0  0  0  0
   61.8550   33.2920   48.2430 S   0  0  0  0  0  0  0  0  0  0  0  0
   62.0940   34.3880   49.2430 O   0  0  0  0  0  0  0  0  0  0  0  0
   63.0500   33.2200   47.3300 O   0  0  0  0  0  0  0  0  0  0  0  0
   61.6450   31.7790   49.0820 N   0  0  0  0  0  0  0  0  0  0  0  0
   61.7750   30.6300   48.1820 C   0  0  0  0  0  0  0  0  0  0  0  0
   60.5030   30.3620   47.4140 C   0  0  0  0  0  0  0  0  0  0  0  0
   59.3390   29.9730   48.0940 C   0  0  0  0  0  0  0  0  0  0  0  0
   58.1580   29.7270   47.3920 C   0  0  0  0  0  0  0  0  0  0  0  0
   58.1240   29.8350   45.9900 C   0  0  0  0  0  0  0  0  0  0  0  0
   56.8730   29.5760   45.2280 C   0  0  0  0  0  0  0  0  0  0  0  0
   56.3310   30.5240   44.5990 O   0  0  0  0  0  0  0  0  0  0  0  0
   56.2080   28.3030   45.2390 N   0  0  0  0  0  0  0  0  0  0  0  0
   56.6840   27.1810   45.6990 C   0  0  0  0  0  0  0  0  0  0  0  0
   58.0290   26.9720   45.7930 N   0  0  0  0  0  0  0  0  0  0  0  0
   58.5450   25.8070   46.2660 C   0  0  0  0  0  0  0  0  0  0  0  0
   57.6930   24.7750   46.6640 C   0  0  0  0  0  0  0  0  0  0  0  0
   56.3130   24.9550   46.5670 C   0  0  0  0  0  0  0  0  0  0  0  0
   55.7990   26.1600   46.0820 C   0  0  0  0  0  0  0  0  0  0  0  0
   54.4240   26.3380   45.9850 O   0  0  0  0  0  0  0  0  0  0  0  0
   59.2830   30.2600   45.3150 C   0  0  0  0  0  0  0  0  0  0  0  0
   60.4560   30.5390   46.0230 C   0  0  0  0  0  0  0  0  0  0  0  0
   59.2196   33.7760   49.9817 H   0  0  0  0  0  0  0  0  0  0  0  0
   57.8248   32.7821   49.4402 H   0  0  0  0  0  0  0  0  0  0  0  0
   59.4796   32.0832   49.4402 H   0  0  0  0  0  0  0  0  0  0  0  0
   56.9597   33.5827   47.4807 H   0  0  0  0  0  0  0  0  0  0  0  0
   57.2227   34.3554   45.1296 H   0  0  0  0  0  0  0  0  0  0  0  0
   59.4968   34.6984   44.1720 H   0  0  0  0  0  0  0  0  0  0  0  0
   61.5189   34.2357   45.5503 H   0  0  0  0  0  0  0  0  0  0  0  0
   62.5858   30.8304   47.4661 H   0  0  0  0  0  0  0  0  0  0  0  0
   61.9933   29.7431   48.7950 H   0  0  0  0  0  0  0  0  0  0  0  0
   59.3573   29.8611   49.1881 H   0  0  0  0  0  0  0  0  0  0  0  0
   57.2463   29.4463   47.9397 H   0  0  0  0  0  0  0  0  0  0  0  0
   59.6351   25.6770   46.3353 H   0  0  0  0  0  0  0  0  0  0  0  0
   58.1051   23.8308   47.0496 H   0  0  0  0  0  0  0  0  0  0  0  0
   55.6300   24.1485   46.8722 H   0  0  0  0  0  0  0  0  0  0  0  0
   59.2662   30.3737   44.2210 H   0  0  0  0  0  0  0  0  0  0  0  0
   61.3464   30.8991   45.4867 H   0  0  0  0  0  0  0  0  0  0  0  0
  1  2  1  0
  2  3  2  0
  3  4  1  0
  4  5  2  0
  5  6  1  0
  6  7  2  0
  7  8  1  0
  8  9  2  0
  8 10  2  0
  8 11  1  0
 11 12  1  0
 12 13  1  0
 13 14  2  0
 14 15  1  0
 15 16  2  0
 16 17  1  0
 17 18  2  0
 17 19  1  0
 19 20  2  3
 20 21  1  0
 21 22  1  0
 22 23  2  0
 23 24  1  0
 24 25  2  0
 25 26  1  0
 16 27  1  0
 27 28  2  0
  7  2  1  0
 28 13  1  0
 25 20  1  0
  1 29  1  0
  1 30  1  0
  1 31  1  0
  3 32  1  0
  4 33  1  0
  5 34  1  0
  6 35  1  0
 12 36  1  0
 12 37  1  0
 14 38  1  0
 15 39  1  0
 22 40  1  0
 23 41  1  0
 24 42  1  0
 27 43  1  0
 28 44  1  0
M  CHG  3  11  -1  21  -1  26  -1
M  END
>  <UniqueID>  (58) 
56

>  <SMILES>  (58) 
Cc1ccccc1S(=O)(=O)[N-]Cc1ccc(C(=O)N=c2[n-]cccc2[O-])cc1

>  <Energy>  (58) 
53.02615792777448

>  <Genealogy>  (58) 
Cc1ccccc1S(=O)(=O)[N-]Cc1ccc(C(=O)N=c2[n-]cccc2[O-])cc1 (protonated)
Cc1ccccc1S(=O)(=O)[N-]Cc1ccc(C(=O)N=c2[n-]cccc2[O-])cc1 (3D coordinates assigned)
Cc1ccccc1S(=O)(=O)[N-]Cc1ccc(C(=O)N=c2[n-]cccc2[O-])cc1 (optimized conformer: 53.02615792777448 kcal/mol)

>  <smiles>  (58) 
Cc1ccccc1S(=O)(=O)NCc1ccc(C(=O)N=c2[nH]cccc2O)cc1

>  <score_type>  (58) 
oracle

>  <origin>  (58) 
adg

>  <m_score__min__energy>  (58) 
-15.06

>  <m_primary>  (58) 
energy

$$$$
58:0
     RDKit          3D

 65 68  0  0  0  0  0  0  0  0999 V2000
   55.9480   27.9650   44.8780 H   0  0  0  0  0  0  0  0  0  0  0  0
   55.8720   28.9520   45.0980 O   0  0  0  0  0  0  0  0  0  0  0  0
   56.3920   29.9290   44.2510 C   0  0  0  0  0  0  0  0  0  0  0  0
   56.1160   29.8880   42.8760 C   0  0  0  0  0  0  0  0  0  0  0  0
   55.4795   29.0892   42.4675 H   0  0  0  0  0  0  0  0  0  0  0  0
   56.6470   30.8580   42.0260 C   0  0  0  0  0  0  0  0  0  0  0  0
   56.4298   30.8194   40.9484 H   0  0  0  0  0  0  0  0  0  0  0  0
   57.4530   31.8780   42.5360 C   0  0  0  0  0  0  0  0  0  0  0  0
   57.8593   32.6442   41.8594 H   0  0  0  0  0  0  0  0  0  0  0  0
   57.7490   31.9310   43.9150 C   0  0  0  0  0  0  0  0  0  0  0  0
   58.5680   33.0340   44.4790 C   0  0  0  0  0  0  0  0  0  0  0  0
   59.4022   33.4265   43.8790 H   0  0  0  0  0  0  0  0  0  0  0  0
   58.3390   33.5750   45.6860 C   0  0  0  0  0  0  0  0  0  0  0  0
   57.3194   33.9179   45.9160 H   0  0  0  0  0  0  0  0  0  0  0  0
   59.3860   33.7370   46.7300 C   0  0  0  0  0  0  0  0  0  0  0  0
   60.7570   33.8520   46.4300 C   0  0  0  0  0  0  0  0  0  0  0  0
   61.0864   33.8538   45.3805 H   0  0  0  0  0  0  0  0  0  0  0  0
   61.7040   33.9640   47.4530 C   0  0  0  0  0  0  0  0  0  0  0  0
   62.7725   34.0363   47.2018 H   0  0  0  0  0  0  0  0  0  0  0  0
   61.3010   33.9850   48.8010 C   0  0  0  0  0  0  0  0  0  0  0  0
   62.2740   34.1210   49.9110 C   0  0  0  0  0  0  0  0  0  0  0  0
   62.3030   35.0675   50.4707 H   0  0  0  0  0  0  0  0  0  0  0  0
   63.1210   33.1420   50.2640 C   0  0  0  0  0  0  0  0  0  0  0  0
   62.9763   32.6352   51.2295 H   0  0  0  0  0  0  0  0  0  0  0  0
   64.2420   32.7230   49.3970 C   0  0  0  0  0  0  0  0  0  0  0  0
   64.0270   32.3060   48.2300 O   0  0  0  0  0  0  0  0  0  0  0  0
   65.6350   32.6980   49.9410 C   0  0  0  0  0  0  0  0  0  0  0  0
   65.5993   32.6986   51.0404 H   0  0  0  0  0  0  0  0  0  0  0  0
   66.1490   31.7905   49.5913 H   0  0  0  0  0  0  0  0  0  0  0  0
   66.1812   33.5865   49.5913 H   0  0  0  0  0  0  0  0  0  0  0  0
   59.9330   33.9260   49.0970 C   0  0  0  0  0  0  0  0  0  0  0  0
   59.5996   33.9794   50.1439 H   0  0  0  0  0  0  0  0  0  0  0  0
   58.9880   33.8000   48.0760 C   0  0  0  0  0  0  0  0  0  0  0  0
   57.9187   33.7495   48.3290 H   0  0  0  0  0  0  0  0  0  0  0  0
   57.2090   30.9440   44.7710 C   0  0  0  0  0  0  0  0  0  0  0  0
   57.5640   30.9110   46.1570 N   0  0  0  0  0  0  0  0  0  0  0  0
   59.0750   30.2870   46.7180 S   0  0  0  0  0  0  0  0  0  0  0  0
   60.1960   30.9540   45.9730 O   0  0  0  0  0  0  0  0  0  0  0  0
   59.2240   30.5970   48.1810 O   0  0  0  0  0  0  0  0  0  0  0  0
   59.1690   28.5410   46.4690 C   0  0  0  0  0  0  0  0  0  0  0  0
   59.9690   27.7510   47.3040 C   0  0  0  0  0  0  0  0  0  0  0  0
   60.5635   28.2232   48.1000 H   0  0  0  0  0  0  0  0  0  0  0  0
   60.0150   26.3650   47.1300 C   0  0  0  0  0  0  0  0  0  0  0  0
   60.6513   25.7541   47.7872 H   0  0  0  0  0  0  0  0  0  0  0  0
   59.2550   25.7440   46.1220 C   0  0  0  0  0  0  0  0  0  0  0  0
   59.2570   24.2680   45.9780 C   0  0  0  0  0  0  0  0  0  0  0  0
   60.3490   23.6510   45.8390 O   0  0  0  0  0  0  0  0  0  0  0  0
   58.0260   23.5360   46.0590 N   0  0  0  0  0  0  0  0  0  0  0  0
   57.0740   23.3520   44.9990 C   0  0  0  0  0  0  0  0  0  0  0  0
   57.3380   22.4380   43.9600 C   0  0  0  0  0  0  0  0  0  0  0  0
   58.2625   21.8422   43.9787 H   0  0  0  0  0  0  0  0  0  0  0  0
   56.4350   22.2830   42.9070 C   0  0  0  0  0  0  0  0  0  0  0  0
   56.6489   21.5654   42.1012 H   0  0  0  0  0  0  0  0  0  0  0  0
   55.2630   23.0360   42.8750 C   0  0  0  0  0  0  0  0  0  0  0  0
   54.5488   22.9036   42.0489 H   0  0  0  0  0  0  0  0  0  0  0  0
   54.9920   23.9580   43.8880 C   0  0  0  0  0  0  0  0  0  0  0  0
   54.0665   24.5513   43.8509 H   0  0  0  0  0  0  0  0  0  0  0  0
   55.8920   24.1360   44.9570 C   0  0  0  0  0  0  0  0  0  0  0  0
   55.5560   25.1330   46.0140 C   0  0  0  0  0  0  0  0  0  0  0  0
   55.9080   24.9540   47.2130 O   0  0  0  0  0  0  0  0  0  0  0  0
   54.8490   26.2840   45.6890 O   0  0  0  0  0  0  0  0  0  0  0  0
   58.4750   26.5480   45.2720 C   0  0  0  0  0  0  0  0  0  0  0  0
   57.8905   26.0810   44.4656 H   0  0  0  0  0  0  0  0  0  0  0  0
   58.4350   27.9370   45.4420 C   0  0  0  0  0  0  0  0  0  0  0  0
   57.8252   28.5551   44.7667 H   0  0  0  0  0  0  0  0  0  0  0  0
  1  2  1  0
  2  3  1  0
  3  4  2  0
  4  5  1  0
  4  6  1  0
  6  7  1  0
  6  8  2  0
  8  9  1  0
  8 10  1  0
 10 11  1  0
 11 12  1  0
 11 13  2  0
 13 14  1  0
 13 15  1  0
 15 16  2  0
 16 17  1  0
 16 18  1  0
 18 19  1  0
 18 20  2  0
 20 21  1  0
 21 22  1  0
 21 23  2  3
 23 24  1  0
 23 25  1  0
 25 26  2  0
 25 27  1  0
 27 28  1  0
 27 29  1  0
 27 30  1  0
 20 31  1  0
 31 32  1  0
 31 33  2  0
 33 34  1  0
 10 35  2  0
 35 36  1  0
 36 37  1  0
 37 38  2  0
 37 39  2  0
 37 40  1  0
 40 41  2  0
 41 42  1  0
 41 43  1  0
 43 44  1  0
 43 45  2  0
 45 46  1  0
 46 47  2  0
 46 48  1  0
 48 49  1  0
 49 50  2  0
 50 51  1  0
 50 52  1  0
 52 53  1  0
 52 54  2  0
 54 55  1  0
 54 56  1  0
 56 57  1  0
 56 58  2  0
 58 59  1  0
 59 60  2  0
 59 61  1  0
 45 62  1  0
 62 63  1  0
 62 64  2  0
 64 65  1  0
 35  3  1  0
 64 40  1  0
 33 15  1  0
 58 49  1  0
M  CHG  3  36  -1  48  -1  61  -1
M  END
>  <UniqueID>  (59) 
57

>  <SMILES>  (59) 
CC(=O)C=Cc1ccc(/C=C/c2cccc(O)c2[N-]S(=O)(=O)c2ccc(C(=O)[N-]c3ccccc3C(=O)[O-])cc2)cc1

>  <Energy>  (59) 
93.08187588237126

>  <Genealogy>  (59) 
CC(=O)C=Cc1ccc(C=Cc2cccc(O)c2[N-]S(=O)(=O)c2ccc(C(=O)[N-]c3ccccc3C(=O)[O-])cc2)cc1 (protonated)
CC(=O)C=Cc1ccc(/C=C/c2cccc(O)c2[N-]S(=O)(=O)c2ccc(C(=O)[N-]c3ccccc3C(=O)[O-])cc2)cc1 (cis-trans isomerization)
CC(=O)C=Cc1ccc(/C=C/c2cccc(O)c2[N-]S(=O)(=O)c2ccc(C(=O)[N-]c3ccccc3C(=O)[O-])cc2)cc1 (3D coordinates assigned)
CC(=O)C=Cc1ccc(/C=C/c2cccc(O)c2[N-]S(=O)(=O)c2ccc(C(=O)[N-]c3ccccc3C(=O)[O-])cc2)cc1 (optimized conformer: 93.08187588237126 kcal/mol)

>  <smiles>  (59) 
CC(=O)C=Cc1ccc(C=Cc2cccc(O)c2NS(=O)(=O)c2ccc(C(=O)Nc3ccccc3C(=O)O)cc2)cc1

>  <score_type>  (59) 
oracle

>  <origin>  (59) 
adg

>  <m_score__min__energy>  (59) 
-16.719999999999999

>  <m_primary>  (59) 
energy

$$$$
59:0
     RDKit          3D

 52 54  0  0  0  0  0  0  0  0999 V2000
   56.3500   23.2220   43.0140 C   0  0  0  0  0  0  0  0  0  0  0  0
   57.0010   24.4770   43.5510 C   0  0  0  0  0  0  0  0  0  0  0  0
   57.0700   24.3170   45.0500 C   0  0  0  0  0  0  0  0  0  0  0  0
   56.2580   25.6920   45.8100 S   0  0  0  0  0  0  0  0  0  0  0  0
   56.5180   25.6020   47.2930 O   0  0  0  0  0  0  0  0  0  0  0  0
   54.7840   25.4680   45.6450 O   0  0  0  0  0  0  0  0  0  0  0  0
   56.7730   27.2090   45.2560 N   0  0  0  0  0  0  0  0  0  0  0  0
   57.9690   27.8650   45.6690 C   0  0  0  0  0  0  0  0  0  0  0  0
   59.0770   27.1540   46.0930 C   0  0  0  0  0  0  0  0  0  0  0  0
   60.2520   27.7570   46.4960 C   0  0  0  0  0  0  0  0  0  0  0  0
   60.3140   29.1340   46.4710 C   0  0  0  0  0  0  0  0  0  0  0  0
   59.2470   29.8950   46.0580 C   0  0  0  0  0  0  0  0  0  0  0  0
   59.2490   31.3750   45.9990 C   0  0  0  0  0  0  0  0  0  0  0  0
   59.3450   32.0230   47.3290 C   0  0  0  0  0  0  0  0  0  0  0  0
   58.2190   32.1380   48.0610 N   0  0  0  0  0  0  0  0  0  0  0  0
   58.1440   32.6760   49.2610 N   0  0  0  0  0  0  0  0  0  0  0  0
   59.2610   33.1590   49.8280 C   0  0  0  0  0  0  0  0  0  0  0  0
   59.1750   33.6700   50.9750 O   0  0  0  0  0  0  0  0  0  0  0  0
   60.4300   33.0690   49.1280 C   0  0  0  0  0  0  0  0  0  0  0  0
   60.5310   32.5060   47.8620 C   0  0  0  0  0  0  0  0  0  0  0  0
   61.7890   32.4110   47.1070 C   0  0  0  0  0  0  0  0  0  0  0  0
   62.8300   33.4050   47.4900 C   0  0  0  0  0  0  0  0  0  0  0  0
   62.5850   34.2090   48.7080 C   0  0  0  0  0  0  0  0  0  0  0  0
   61.6850   33.5960   49.7340 C   0  0  0  0  0  0  0  0  0  0  0  0
   58.1010   29.2480   45.6670 C   0  0  0  0  0  0  0  0  0  0  0  0
   56.9900   29.9930   45.2400 O   0  0  0  0  0  0  0  0  0  0  0  0
   56.8170   30.1930   43.8620 C   0  0  0  0  0  0  0  0  0  0  0  0
   56.0226   22.5908   43.8533 H   0  0  0  0  0  0  0  0  0  0  0  0
   55.4797   23.4947   42.3990 H   0  0  0  0  0  0  0  0  0  0  0  0
   57.0742   22.6676   42.3990 H   0  0  0  0  0  0  0  0  0  0  0  0
   58.0127   24.5885   43.1339 H   0  0  0  0  0  0  0  0  0  0  0  0
   56.4266   25.3730   43.2729 H   0  0  0  0  0  0  0  0  0  0  0  0
   56.5694   23.3831   45.3452 H   0  0  0  0  0  0  0  0  0  0  0  0
   58.1208   24.2792   45.3731 H   0  0  0  0  0  0  0  0  0  0  0  0
   56.1930   27.7520   44.5480 H   0  0  0  0  0  0  0  0  0  0  0  0
   59.0194   26.0556   46.1100 H   0  0  0  0  0  0  0  0  0  0  0  0
   61.1124   27.1569   46.8269 H   0  0  0  0  0  0  0  0  0  0  0  0
   61.2398   29.6355   46.7893 H   0  0  0  0  0  0  0  0  0  0  0  0
   60.1081   31.6975   45.3925 H   0  0  0  0  0  0  0  0  0  0  0  0
   58.2879   31.6811   45.5602 H   0  0  0  0  0  0  0  0  0  0  0  0
   57.2170   32.7170   49.7490 H   0  0  0  0  0  0  0  0  0  0  0  0
   62.2048   31.4045   47.2622 H   0  0  0  0  0  0  0  0  0  0  0  0
   61.5343   32.6216   46.0578 H   0  0  0  0  0  0  0  0  0  0  0  0
   63.7715   32.8563   47.6401 H   0  0  0  0  0  0  0  0  0  0  0  0
   62.8400   34.1348   46.6671 H   0  0  0  0  0  0  0  0  0  0  0  0
   63.5574   34.3997   49.1855 H   0  0  0  0  0  0  0  0  0  0  0  0
   62.0645   35.1147   48.3632 H   0  0  0  0  0  0  0  0  0  0  0  0
   62.2176   32.7684   50.2253 H   0  0  0  0  0  0  0  0  0  0  0  0
   61.4119   34.3773   50.4586 H   0  0  0  0  0  0  0  0  0  0  0  0
   56.1055   31.0156   43.6974 H   0  0  0  0  0  0  0  0  0  0  0  0
   57.7842   30.4477   43.4042 H   0  0  0  0  0  0  0  0  0  0  0  0
   56.4257   29.2725   43.4042 H   0  0  0  0  0  0  0  0  0  0  0  0
  1  2  1  0
  2  3  1  0
  3  4  1  0
  4  5  2  0
  4  6  2  0
  4  7  1  0
  7  8  1  0
  8  9  2  0
  9 10  1  0
 10 11  2  0
 11 12  1  0
 12 13  1  0
 13 14  1  0
 14 15  2  0
 15 16  1  0
 16 17  1  0
 17 18  2  0
 17 19  1  0
 19 20  2  0
 20 21  1  0
 21 22  1  0
 22 23  1  0
 23 24  1  0
 12 25  2  0
 25 26  1  0
 26 27  1  0
 25  8  1  0
 20 14  1  0
 24 19  1  0
  1 28  1  0
  1 29  1  0
  1 30  1  0
  2 31  1  0
  2 32  1  0
  3 33  1  0
  3 34  1  0
  7 35  1  0
  9 36  1  0
 10 37  1  0
 11 38  1  0
 13 39  1  0
 13 40  1  0
 16 41  1  0
 21 42  1  0
 21 43  1  0
 22 44  1  0
 22 45  1  0
 23 46  1  0
 23 47  1  0
 24 48  1  0
 24 49  1  0
 27 50  1  0
 27 51  1  0
 27 52  1  0
M  END
>  <smiles>  (60) 
CCCS(=O)(=O)Nc1cccc(Cc2n[nH]c(=O)c3c2CCCC3)c1OC

>  <score_type>  (60) 
oracle

>  <origin>  (60) 
adg

>  <m_score__min__energy>  (60) 
-9.2400000000000002

>  <m_primary>  (60) 
energy

$$$$
60:0
     RDKit          3D

 58 61  0  0  0  0  0  0  0  0999 V2000
   53.8570   26.7170   46.3880 H   0  0  0  0  0  0  0  0  0  0  0  0
   54.5330   26.1360   45.8430 N   0  0  0  0  0  0  0  0  0  0  0  0
   55.8980   26.0330   46.2410 C   0  0  0  0  0  0  0  0  0  0  0  0
   56.2130   25.2110   47.1440 O   0  0  0  0  0  0  0  0  0  0  0  0
   56.9350   26.8780   45.6040 C   0  0  0  0  0  0  0  0  0  0  0  0
   57.5660   26.4580   44.4180 C   0  0  0  0  0  0  0  0  0  0  0  0
   57.2868   25.4969   43.9615 H   0  0  0  0  0  0  0  0  0  0  0  0
   58.5440   27.2530   43.8170 C   0  0  0  0  0  0  0  0  0  0  0  0
   59.0303   26.9155   42.8898 H   0  0  0  0  0  0  0  0  0  0  0  0
   58.9070   28.4730   44.3870 C   0  0  0  0  0  0  0  0  0  0  0  0
   59.6781   29.0928   43.9061 H   0  0  0  0  0  0  0  0  0  0  0  0
   58.2940   28.9160   45.5720 C   0  0  0  0  0  0  0  0  0  0  0  0
   58.6890   30.2090   46.1850 C   0  0  0  0  0  0  0  0  0  0  0  0
   58.5910   31.4060   45.4550 C   0  0  0  0  0  0  0  0  0  0  0  0
   58.2292   31.3833   44.4164 H   0  0  0  0  0  0  0  0  0  0  0  0
   58.9490   32.6240   46.0370 C   0  0  0  0  0  0  0  0  0  0  0  0
   58.8570   33.5537   45.4563 H   0  0  0  0  0  0  0  0  0  0  0  0
   59.4250   32.6720   47.3560 C   0  0  0  0  0  0  0  0  0  0  0  0
   59.7740   33.9740   47.9740 C   0  0  0  0  0  0  0  0  0  0  0  0
   60.4670   34.7990   47.3220 O   0  0  0  0  0  0  0  0  0  0  0  0
   59.2940   34.3600   49.2720 N   0  0  0  0  0  0  0  0  0  0  0  0
   59.6590   33.8430   50.4080 C   0  0  0  0  0  0  0  0  0  0  0  0
   58.7500   33.2790   51.2520 N   0  0  0  0  0  0  0  0  0  0  0  0
   59.1180   32.7180   52.4350 C   0  0  0  0  0  0  0  0  0  0  0  0
   58.3556   32.2785   53.0950 H   0  0  0  0  0  0  0  0  0  0  0  0
   60.4610   32.6990   52.8130 C   0  0  0  0  0  0  0  0  0  0  0  0
   60.7599   32.2544   53.7737 H   0  0  0  0  0  0  0  0  0  0  0  0
   61.4270   33.2510   51.9590 C   0  0  0  0  0  0  0  0  0  0  0  0
   62.8940   33.2310   52.3430 C   0  0  0  0  0  0  0  0  0  0  0  0
   62.9713   33.4384   53.4205 H   0  0  0  0  0  0  0  0  0  0  0  0
   63.3925   33.9924   51.7252 H   0  0  0  0  0  0  0  0  0  0  0  0
   63.5780   31.9440   52.0670 N   0  0  1  0  0  0  0  0  0  0  0  0
   63.3860   31.3370   52.8960 H   0  0  0  0  0  0  0  0  0  0  0  0
   63.0500   31.3020   50.8770 C   0  0  0  0  0  0  0  0  0  0  0  0
   62.5480   30.1450   50.9550 O   0  0  0  0  0  0  0  0  0  0  0  0
   63.1570   31.9380   49.5430 C   0  0  0  0  0  0  0  0  0  0  0  0
   63.8420   33.1590   49.4080 C   0  0  0  0  0  0  0  0  0  0  0  0
   64.2906   33.6351   50.2924 H   0  0  0  0  0  0  0  0  0  0  0  0
   63.9560   33.7710   48.1560 C   0  0  0  0  0  0  0  0  0  0  0  0
   64.4862   34.7300   48.0600 H   0  0  0  0  0  0  0  0  0  0  0  0
   63.3980   33.1670   47.0270 C   0  0  0  0  0  0  0  0  0  0  0  0
   63.4835   33.6527   46.0437 H   0  0  0  0  0  0  0  0  0  0  0  0
   62.7310   31.9450   47.1480 C   0  0  0  0  0  0  0  0  0  0  0  0
   62.2981   31.4662   46.2573 H   0  0  0  0  0  0  0  0  0  0  0  0
   62.6120   31.3290   48.3970 C   0  0  0  0  0  0  0  0  0  0  0  0
   62.0904   30.3645   48.4847 H   0  0  0  0  0  0  0  0  0  0  0  0
   65.0430   32.0760   51.9940 C   0  0  0  0  0  0  0  0  0  0  0  0
   65.4589   32.1135   53.0116 H   0  0  0  0  0  0  0  0  0  0  0  0
   65.4627   31.2120   51.4579 H   0  0  0  0  0  0  0  0  0  0  0  0
   65.3015   33.0011   51.4579 H   0  0  0  0  0  0  0  0  0  0  0  0
   61.0170   33.8360   50.7520 C   0  0  0  0  0  0  0  0  0  0  0  0
   61.7594   34.2878   50.0777 H   0  0  0  0  0  0  0  0  0  0  0  0
   59.5150   31.4780   48.0910 C   0  0  0  0  0  0  0  0  0  0  0  0
   59.8721   31.5027   49.1311 H   0  0  0  0  0  0  0  0  0  0  0  0
   59.1540   30.2590   47.5100 C   0  0  0  0  0  0  0  0  0  0  0  0
   59.2346   29.3310   48.0950 H   0  0  0  0  0  0  0  0  0  0  0  0
   57.3070   28.1100   46.1730 C   0  0  0  0  0  0  0  0  0  0  0  0
   56.8206   28.4485   47.0997 H   0  0  0  0  0  0  0  0  0  0  0  0
  1  2  1  0
  2  3  1  0
  3  4  2  0
  3  5  1  0
  5  6  2  0
  6  7  1  0
  6  8  1  0
  8  9  1  0
  8 10  2  0
 10 11  1  0
 10 12  1  0
 12 13  1  0
 13 14  2  0
 14 15  1  0
 14 16  1  0
 16 17  1  0
 16 18  2  0
 18 19  1  0
 19 20  2  0
 19 21  1  0
 21 22  2  0
 22 23  1  0
 23 24  1  0
 24 25  1  0
 24 26  2  0
 26 27  1  0
 26 28  1  0
 28 29  1  0
 29 30  1  0
 29 31  1  0
 29 32  1  0
 32 33  1  1
 32 34  1  0
 34 35  2  0
 34 36  1  0
 36 37  2  0
 37 38  1  0
 37 39  1  0
 39 40  1  0
 39 41  2  0
 41 42  1  0
 41 43  1  0
 43 44  1  0
 43 45  2  0
 45 46  1  0
 32 47  1  0
 47 48  1  0
 47 49  1  0
 47 50  1  0
 28 51  2  0
 51 52  1  0
 18 53  1  0
 53 54  1  0
 53 55  2  0
 55 56  1  0
 12 57  2  0
 57 58  1  0
 57  5  1  0
 55 13  1  0
 51 22  1  0
 45 36  1  0
M  CHG  3   2  -1  23  -1  32   1
M  END
>  <UniqueID>  (61) 
58

>  <SMILES>  (61) 
C[N@@H+](Cc1cc[n-]/c(=N\C(=O)c2ccc(-c3cccc(C([NH-])=O)c3)cc2)c1)C(=O)c1ccccc1

>  <Energy>  (61) 
85.37605553440467

>  <Genealogy>  (61) 
C[NH+](Cc1cc[n-]c(=NC(=O)c2ccc(-c3cccc(C([NH-])=O)c3)cc2)c1)C(=O)c1ccccc1 (protonated)
C[N@@H+](Cc1cc[n-]c(=NC(=O)c2ccc(-c3cccc(C([NH-])=O)c3)cc2)c1)C(=O)c1ccccc1 (chirality)
C[N@@H+](Cc1cc[n-]/c(=N\C(=O)c2ccc(-c3cccc(C([NH-])=O)c3)cc2)c1)C(=O)c1ccccc1 (cis-trans isomerization)
C[N@@H+](Cc1cc[n-]/c(=N\C(=O)c2ccc(-c3cccc(C([NH-])=O)c3)cc2)c1)C(=O)c1ccccc1 (3D coordinates assigned)
C[N@@H+](Cc1cc[n-]/c(=N\C(=O)c2ccc(-c3cccc(C([NH-])=O)c3)cc2)c1)C(=O)c1ccccc1 (optimized conformer: 85.37605553440467 kcal/mol)

>  <smiles>  (61) 
CN(Cc1cc[nH]c(=NC(=O)c2ccc(-c3cccc(C(N)=O)c3)cc2)c1)C(=O)c1ccccc1

>  <score_type>  (61) 
oracle

>  <origin>  (61) 
adg

>  <m_score__min__energy>  (61) 
-13.23

>  <m_primary>  (61) 
energy

$$$$
61:0
     RDKit          3D

 51 53  0  0  0  0  0  0  0  0999 V2000
   53.8880   28.2470   53.2620 C   0  0  0  0  0  0  0  0  0  0  0  0
   54.7590   29.2170   52.9530 C   0  0  0  0  0  0  0  0  0  0  0  0
   56.0800   28.9130   53.0860 N   0  0  0  0  0  0  0  0  0  0  0  0
   57.0820   29.7120   52.6430 C   0  0  0  0  0  0  0  0  0  0  0  0
   58.5010   29.2520   52.8200 C   0  0  0  0  0  0  0  0  0  0  0  0
   56.7650   30.9060   51.9740 C   0  0  0  0  0  0  0  0  0  0  0  0
   57.8090   31.8080   51.4520 C   0  0  0  0  0  0  0  0  0  0  0  0
   58.2080   32.7600   52.1750 O   0  0  0  0  0  0  0  0  0  0  0  0
   58.3770   31.6140   50.1440 N   0  0  0  0  0  0  0  0  0  0  0  0
   58.4690   30.2680   49.5560 C   0  0  0  0  0  0  0  0  0  0  0  0
   59.8130   30.1020   48.8400 C   0  0  0  0  0  0  0  0  0  0  0  0
   60.0700   31.2040   47.7720 C   0  0  0  0  0  0  0  0  0  0  0  0
   59.9440   30.6430   46.3460 C   0  0  0  0  0  0  0  0  0  0  0  0
   58.5820   30.6010   45.9720 O   0  0  0  0  0  0  0  0  0  0  0  0
   58.3780   31.2860   44.7500 C   0  0  0  0  0  0  0  0  0  0  0  0
   57.4360   32.4660   44.9600 C   0  0  0  0  0  0  0  0  0  0  0  0
   59.1470   32.4340   47.9400 C   0  0  0  0  0  0  0  0  0  0  0  0
   58.9130   32.7720   49.4160 C   0  0  0  0  0  0  0  0  0  0  0  0
   55.4210   31.2560   51.8180 C   0  0  0  0  0  0  0  0  0  0  0  0
   54.3900   30.4730   52.3760 C   0  0  0  0  0  0  0  0  0  0  0  0
   53.1360   30.9900   52.3390 C   0  0  0  0  0  0  0  0  0  0  0  0
   52.2360   31.0210   51.1720 C   0  0  0  0  0  0  0  0  0  0  0  0
   52.3080   30.1400   50.1590 N   0  0  0  0  0  0  0  0  0  0  0  0
   51.3940   30.6010   49.2780 C   0  0  0  0  0  0  0  0  0  0  0  0
   51.1540   30.0240   48.1850 O   0  0  0  0  0  0  0  0  0  0  0  0
   50.7640   31.7350   49.6530 N   0  0  0  0  0  0  0  0  0  0  0  0
   51.3180   31.9960   50.8490 C   0  0  0  0  0  0  0  0  0  0  0  0
   51.0140   33.1170   51.6100 O   0  0  0  0  0  0  0  0  0  0  0  0
   52.8069   28.4305   53.1753 H   0  0  0  0  0  0  0  0  0  0  0  0
   54.2540   27.2671   53.6024 H   0  0  0  0  0  0  0  0  0  0  0  0
   58.7311   29.1774   53.8931 H   0  0  0  0  0  0  0  0  0  0  0  0
   58.6285   28.2665   52.3483 H   0  0  0  0  0  0  0  0  0  0  0  0
   59.1825   29.9753   52.3483 H   0  0  0  0  0  0  0  0  0  0  0  0
   58.3853   29.5151   50.3536 H   0  0  0  0  0  0  0  0  0  0  0  0
   57.6533   30.1335   48.8304 H   0  0  0  0  0  0  0  0  0  0  0  0
   60.6174   30.1447   49.5891 H   0  0  0  0  0  0  0  0  0  0  0  0
   59.7914   29.1343   48.3174 H   0  0  0  0  0  0  0  0  0  0  0  0
   61.1033   31.5444   47.9342 H   0  0  0  0  0  0  0  0  0  0  0  0
   60.4956   31.2899   45.6480 H   0  0  0  0  0  0  0  0  0  0  0  0
   60.3630   29.6264   46.3149 H   0  0  0  0  0  0  0  0  0  0  0  0
   59.3439   31.6544   44.3741 H   0  0  0  0  0  0  0  0  0  0  0  0
   57.9308   30.5945   44.0207 H   0  0  0  0  0  0  0  0  0  0  0  0
   57.2986   32.6382   46.0377 H   0  0  0  0  0  0  0  0  0  0  0  0
   57.8668   33.3660   44.4969 H   0  0  0  0  0  0  0  0  0  0  0  0
   56.4629   32.2453   44.4969 H   0  0  0  0  0  0  0  0  0  0  0  0
   59.6133   33.2992   47.4461 H   0  0  0  0  0  0  0  0  0  0  0  0
   58.1741   32.1962   47.4851 H   0  0  0  0  0  0  0  0  0  0  0  0
   59.8680   33.0725   49.8717 H   0  0  0  0  0  0  0  0  0  0  0  0
   58.1819   33.5918   49.4756 H   0  0  0  0  0  0  0  0  0  0  0  0
   55.1624   32.1607   51.2483 H   0  0  0  0  0  0  0  0  0  0  0  0
   52.7532   31.4294   53.2720 H   0  0  0  0  0  0  0  0  0  0  0  0
  1  2  2  0
  2  3  1  0
  3  4  2  0
  4  5  1  0
  4  6  1  0
  6  7  1  0
  7  8  2  0
  7  9  1  0
  9 10  1  0
 10 11  1  0
 11 12  1  0
 12 13  1  0
 13 14  1  0
 14 15  1  0
 15 16  1  0
 12 17  1  0
 17 18  1  0
  6 19  2  0
 19 20  1  0
 20 21  2  3
 21 22  1  0
 22 23  1  0
 23 24  1  0
 24 25  2  0
 24 26  1  0
 26 27  1  0
 27 28  1  0
 20  2  1  0
 27 22  2  0
 18  9  1  0
  1 29  1  0
  1 30  1  0
  5 31  1  0
  5 32  1  0
  5 33  1  0
 10 34  1  0
 10 35  1  0
 11 36  1  0
 11 37  1  0
 12 38  1  0
 13 39  1  0
 13 40  1  0
 15 41  1  0
 15 42  1  0
 16 43  1  0
 16 44  1  0
 16 45  1  0
 17 46  1  0
 17 47  1  0
 18 48  1  0
 18 49  1  0
 19 50  1  0
 21 51  1  0
M  CHG  3  23  -1  26  -1  28  -1
M  END
>  <UniqueID>  (62) 
59

>  <SMILES>  (62) 
C=c1nc(C)c(C(=O)N2CCC(COCC)CC2)cc1=Cc1[n-]c(=O)[n-]c1[O-]

>  <Energy>  (62) 
108.03000423420512

>  <Genealogy>  (62) 
C=c1nc(C)c(C(=O)N2CCC(COCC)CC2)cc1=Cc1[n-]c(=O)[n-]c1[O-] (protonated)
C=c1nc(C)c(C(=O)N2CCC(COCC)CC2)cc1=Cc1[n-]c(=O)[n-]c1[O-] (3D coordinates assigned)
C=c1nc(C)c(C(=O)N2CCC(COCC)CC2)cc1=Cc1[n-]c(=O)[n-]c1[O-] (nonaromatic ring conformer: 108.03000423420512 kcal/mol)

>  <smiles>  (62) 
C=c1nc(C)c(C(=O)N2CCC(COCC)CC2)cc1=Cc1[nH]c(=O)[nH]c1O

>  <score_type>  (62) 
oracle

>  <origin>  (62) 
adg

>  <m_score__min__energy>  (62) 
-17.100000000000001

>  <m_primary>  (62) 
energy

$$$$
62:0
     RDKit          3D

 54 57  0  0  0  0  0  0  0  0999 V2000
   55.8370   30.6990   44.4800 O   0  0  0  0  0  0  0  0  0  0  0  0
   57.0310   30.6820   44.8820 C   0  0  0  0  0  0  0  0  0  0  0  0
   57.7580   29.4470   44.8290 N   0  0  0  0  0  0  0  0  0  0  0  0
   58.4350   28.8170   45.9270 C   0  0  0  0  0  0  0  0  0  0  0  0
   57.9290   27.6570   46.5420 C   0  0  0  0  0  0  0  0  0  0  0  0
   58.6370   27.0450   47.5810 C   0  0  0  0  0  0  0  0  0  0  0  0
   59.8620   27.5750   48.0030 C   0  0  0  0  0  0  0  0  0  0  0  0
   60.7520   26.8040   49.3050 Cl  0  0  0  0  0  0  0  0  0  0  0  0
   60.3780   28.7180   47.3850 C   0  0  0  0  0  0  0  0  0  0  0  0
   59.6690   29.3320   46.3470 C   0  0  0  0  0  0  0  0  0  0  0  0
   57.6440   31.9380   45.3630 C   0  0  0  0  0  0  0  0  0  0  0  0
   57.6150   33.1120   44.5930 C   0  0  0  0  0  0  0  0  0  0  0  0
   58.1740   34.2830   45.1070 C   0  0  0  0  0  0  0  0  0  0  0  0
   58.7470   34.2820   46.3790 C   0  0  0  0  0  0  0  0  0  0  0  0
   58.7630   33.0950   47.1230 C   0  0  0  0  0  0  0  0  0  0  0  0
   59.3320   33.0680   48.5140 C   0  0  0  0  0  0  0  0  0  0  0  0
   58.4200   32.3610   49.4380 N   0  0  0  0  0  0  0  0  0  0  0  0
   58.6010   30.8880   49.3610 C   0  0  0  0  0  0  0  0  0  0  0  0
   58.1910   30.1330   50.6440 C   0  0  0  0  0  0  0  0  0  0  0  0
   57.2180   30.8950   51.4450 N   0  0  0  0  0  0  0  0  0  0  0  0
   56.1780   30.2030   52.1710 C   0  0  0  0  0  0  0  0  0  0  0  0
   56.1540   28.9380   52.1810 O   0  0  0  0  0  0  0  0  0  0  0  0
   55.0930   30.9730   52.8890 C   0  0  0  0  0  0  0  0  0  0  0  0
   53.8010   30.9960   52.1240 C   0  0  0  0  0  0  0  0  0  0  0  0
   53.4970   30.1810   51.0470 C   0  0  0  0  0  0  0  0  0  0  0  0
   52.2430   30.5590   50.6220 C   0  0  0  0  0  0  0  0  0  0  0  0
   51.8610   31.5880   51.4590 C   0  0  0  0  0  0  0  0  0  0  0  0
   50.6530   32.2740   51.3780 O   0  0  0  0  0  0  0  0  0  0  0  0
   52.8050   31.8700   52.3770 N   0  0  0  0  0  0  0  0  0  0  0  0
   57.4460   32.3310   51.6730 C   0  0  0  0  0  0  0  0  0  0  0  0
   58.5950   32.8540   50.8140 C   0  0  0  0  0  0  0  0  0  0  0  0
   58.2040   31.9680   46.6030 N   0  0  0  0  0  0  0  0  0  0  0  0
   56.9731   27.2301   46.2043 H   0  0  0  0  0  0  0  0  0  0  0  0
   58.2308   26.1459   48.0674 H   0  0  0  0  0  0  0  0  0  0  0  0
   61.3412   29.1344   47.7148 H   0  0  0  0  0  0  0  0  0  0  0  0
   60.0830   30.2255   45.8569 H   0  0  0  0  0  0  0  0  0  0  0  0
   57.1557   33.1087   43.5935 H   0  0  0  0  0  0  0  0  0  0  0  0
   58.1628   35.2064   44.5094 H   0  0  0  0  0  0  0  0  0  0  0  0
   59.1817   35.2036   46.7934 H   0  0  0  0  0  0  0  0  0  0  0  0
   60.3021   32.5498   48.4973 H   0  0  0  0  0  0  0  0  0  0  0  0
   59.4582   34.1030   48.8646 H   0  0  0  0  0  0  0  0  0  0  0  0
   57.9917   30.5085   48.5275 H   0  0  0  0  0  0  0  0  0  0  0  0
   59.6768   30.7083   49.2181 H   0  0  0  0  0  0  0  0  0  0  0  0
   57.7414   29.1698   50.3610 H   0  0  0  0  0  0  0  0  0  0  0  0
   59.0937   29.9862   51.2552 H   0  0  0  0  0  0  0  0  0  0  0  0
   54.9152   30.5026   53.8673 H   0  0  0  0  0  0  0  0  0  0  0  0
   55.4363   32.0126   52.9961 H   0  0  0  0  0  0  0  0  0  0  0  0
   54.1299   29.3905   50.6173 H   0  0  0  0  0  0  0  0  0  0  0  0
   51.6661   30.1304   49.7893 H   0  0  0  0  0  0  0  0  0  0  0  0
   50.1530   32.3460   50.5010 H   0  0  0  0  0  0  0  0  0  0  0  0
   56.5293   32.8839   51.4202 H   0  0  0  0  0  0  0  0  0  0  0  0
   57.7094   32.4769   52.7310 H   0  0  0  0  0  0  0  0  0  0  0  0
   58.5877   33.9540   50.8165 H   0  0  0  0  0  0  0  0  0  0  0  0
   59.5552   32.5012   51.2185 H   0  0  0  0  0  0  0  0  0  0  0  0
  1  2  2  0
  2  3  1  0
  3  4  1  0
  4  5  2  0
  5  6  1  0
  6  7  2  0
  7  8  1  0
  7  9  1  0
  9 10  2  0
  2 11  1  0
 11 12  2  0
 12 13  1  0
 13 14  2  0
 14 15  1  0
 15 16  1  0
 16 17  1  0
 17 18  1  0
 18 19  1  0
 19 20  1  0
 20 21  1  0
 21 22  2  0
 21 23  1  0
 23 24  1  0
 24 25  2  0
 25 26  1  0
 26 27  2  0
 27 28  1  0
 27 29  1  0
 20 30  1  0
 30 31  1  0
 15 32  2  0
 10  4  1  0
 32 11  1  0
 31 17  1  0
 29 24  1  0
  5 33  1  0
  6 34  1  0
  9 35  1  0
 10 36  1  0
 12 37  1  0
 13 38  1  0
 14 39  1  0
 16 40  1  0
 16 41  1  0
 18 42  1  0
 18 43  1  0
 19 44  1  0
 19 45  1  0
 23 46  1  0
 23 47  1  0
 25 48  1  0
 26 49  1  0
 28 50  1  0
 30 51  1  0
 30 52  1  0
 31 53  1  0
 31 54  1  0
M  CHG  2   3  -1  29  -1
M  END
>  <UniqueID>  (63) 
60

>  <SMILES>  (63) 
O=C([N-]c1ccc(Cl)cc1)c1cccc(CN2CCN(C(=O)Cc3ccc(O)[n-]3)CC2)n1

>  <Energy>  (63) 
93.8958674407673

>  <Genealogy>  (63) 
O=C([N-]c1ccc(Cl)cc1)c1cccc(CN2CCN(C(=O)Cc3ccc(O)[n-]3)CC2)n1 (protonated)
O=C([N-]c1ccc(Cl)cc1)c1cccc(CN2CCN(C(=O)Cc3ccc(O)[n-]3)CC2)n1 (3D coordinates assigned)
O=C([N-]c1ccc(Cl)cc1)c1cccc(CN2CCN(C(=O)Cc3ccc(O)[n-]3)CC2)n1 (nonaromatic ring conformer: 93.8958674407673 kcal/mol)

>  <smiles>  (63) 
O=C(Nc1ccc(Cl)cc1)c1cccc(CN2CCN(C(=O)Cc3ccc(O)[nH]3)CC2)n1

>  <score_type>  (63) 
oracle

>  <origin>  (63) 
adg

>  <m_score__min__energy>  (63) 
-13.4

>  <m_primary>  (63) 
energy

$$$$
63:0
     RDKit          3D

 69 73  0  0  0  0  0  0  0  0999 V2000
   66.5953   30.8869   52.2683 H   0  0  0  0  0  0  0  0  0  0  0  0
   66.0450   31.4140   51.4750 C   0  0  0  0  0  0  0  0  0  0  0  0
   64.7450   31.1120   51.2270 N   0  0  0  0  0  0  0  0  0  0  0  0
   64.0490   31.7420   50.2440 C   0  0  0  0  0  0  0  0  0  0  0  0
   62.9949   31.4862   50.0610 H   0  0  0  0  0  0  0  0  0  0  0  0
   64.6840   32.7210   49.4640 C   0  0  0  0  0  0  0  0  0  0  0  0
   63.9210   33.4750   48.3990 C   0  0  0  0  0  0  0  0  0  0  0  0
   64.6388   34.0184   47.7669 H   0  0  0  0  0  0  0  0  0  0  0  0
   63.0060   34.5700   49.0060 C   0  0  0  0  0  0  0  0  0  0  0  0
   62.9899   35.4315   48.3222 H   0  0  0  0  0  0  0  0  0  0  0  0
   63.4189   34.8337   49.9909 H   0  0  0  0  0  0  0  0  0  0  0  0
   61.5620   34.0940   49.2270 C   0  0  0  0  0  0  0  0  0  0  0  0
   60.9442   34.9537   49.5256 H   0  0  0  0  0  0  0  0  0  0  0  0
   61.5691   33.3245   50.0130 H   0  0  0  0  0  0  0  0  0  0  0  0
   60.9960   33.5000   48.0050 N   0  0  0  0  0  0  0  0  0  0  0  0
   59.5900   33.1840   47.9620 C   0  0  0  0  0  0  0  0  0  0  0  0
   58.9620   32.9790   49.0370 O   0  0  0  0  0  0  0  0  0  0  0  0
   58.8590   33.0950   46.6820 C   0  0  0  0  0  0  0  0  0  0  0  0
   58.9140   34.1440   45.7560 C   0  0  0  0  0  0  0  0  0  0  0  0
   59.5162   35.0395   45.9692 H   0  0  0  0  0  0  0  0  0  0  0  0
   58.2000   34.0460   44.5610 C   0  0  0  0  0  0  0  0  0  0  0  0
   58.2368   34.8671   43.8299 H   0  0  0  0  0  0  0  0  0  0  0  0
   57.4600   32.9380   44.3000 N   0  0  0  0  0  0  0  0  0  0  0  0
   57.3750   31.9010   45.1810 C   0  0  0  0  0  0  0  0  0  0  0  0
   56.6820   30.8340   44.9050 N   0  0  0  0  0  0  0  0  0  0  0  0
   56.8120   29.9900   43.7470 C   0  0  0  0  0  0  0  0  0  0  0  0
   56.1150   30.2520   42.7310 O   0  0  0  0  0  0  0  0  0  0  0  0
   57.7560   28.8140   43.7190 C   0  0  0  0  0  0  0  0  0  0  0  0
   57.2624   27.9755   43.2060 H   0  0  0  0  0  0  0  0  0  0  0  0
   58.6684   29.1256   43.1895 H   0  0  0  0  0  0  0  0  0  0  0  0
   58.1530   28.3700   45.1040 C   0  0  0  0  0  0  0  0  0  0  0  0
   57.5690   27.2300   45.6790 C   0  0  0  0  0  0  0  0  0  0  0  0
   56.8511   26.6309   45.0995 H   0  0  0  0  0  0  0  0  0  0  0  0
   57.8960   26.8530   46.9850 C   0  0  0  0  0  0  0  0  0  0  0  0
   57.4348   25.9588   47.4295 H   0  0  0  0  0  0  0  0  0  0  0  0
   58.8070   27.6090   47.7270 C   0  0  0  0  0  0  0  0  0  0  0  0
   59.0556   27.3113   48.7563 H   0  0  0  0  0  0  0  0  0  0  0  0
   59.4070   28.7480   47.1640 C   0  0  0  0  0  0  0  0  0  0  0  0
   60.3760   29.5470   47.9460 C   0  0  0  0  0  0  0  0  0  0  0  0
   61.3540   30.0840   47.3540 O   0  0  0  0  0  0  0  0  0  0  0  0
   60.2190   29.7240   49.3660 N   0  0  0  0  0  0  0  0  0  0  0  0
   61.4230   29.8980   50.1920 C   0  0  0  0  0  0  0  0  0  0  0  0
   62.2434   29.3046   49.7620 H   0  0  0  0  0  0  0  0  0  0  0  0
   61.6872   30.9657   50.2068 H   0  0  0  0  0  0  0  0  0  0  0  0
   61.1710   29.4360   51.6330 C   0  0  0  0  0  0  0  0  0  0  0  0
   61.0770   28.3401   51.6469 H   0  0  0  0  0  0  0  0  0  0  0  0
   62.0175   29.7614   52.2555 H   0  0  0  0  0  0  0  0  0  0  0  0
   59.8870   30.0550   52.1990 C   0  0  0  0  0  0  0  0  0  0  0  0
   59.6968   29.6395   53.1996 H   0  0  0  0  0  0  0  0  0  0  0  0
   60.0165   31.1459   52.2561 H   0  0  0  0  0  0  0  0  0  0  0  0
   58.6920   29.7490   51.2930 C   0  0  0  0  0  0  0  0  0  0  0  0
   58.5303   28.6614   51.2615 H   0  0  0  0  0  0  0  0  0  0  0  0
   57.8009   30.2525   51.6960 H   0  0  0  0  0  0  0  0  0  0  0  0
   58.9520   30.2610   49.8750 C   0  0  0  0  0  0  0  0  0  0  0  0
   58.1311   29.9403   49.2168 H   0  0  0  0  0  0  0  0  0  0  0  0
   59.0104   31.3593   49.8953 H   0  0  0  0  0  0  0  0  0  0  0  0
   59.0840   29.1170   45.8480 C   0  0  0  0  0  0  0  0  0  0  0  0
   59.5631   29.9976   45.3953 H   0  0  0  0  0  0  0  0  0  0  0  0
   58.0810   31.9660   46.3910 C   0  0  0  0  0  0  0  0  0  0  0  0
   58.0244   31.1344   47.1088 H   0  0  0  0  0  0  0  0  0  0  0  0
   61.8890   33.0990   46.9080 C   0  0  0  0  0  0  0  0  0  0  0  0
   62.1507   33.9825   46.3072 H   0  0  0  0  0  0  0  0  0  0  0  0
   61.3788   32.3601   46.2726 H   0  0  0  0  0  0  0  0  0  0  0  0
   63.1630   32.4800   47.4850 C   0  0  0  0  0  0  0  0  0  0  0  0
   63.8226   32.1842   46.6559 H   0  0  0  0  0  0  0  0  0  0  0  0
   62.8762   31.6081   48.0912 H   0  0  0  0  0  0  0  0  0  0  0  0
   65.9840   33.0300   49.7310 N   0  0  0  0  0  0  0  0  0  0  0  0
   66.6780   32.4000   50.7140 C   0  0  0  0  0  0  0  0  0  0  0  0
   67.7280   32.6635   50.9090 H   0  0  0  0  0  0  0  0  0  0  0  0
  1  2  1  0
  2  3  2  0
  3  4  1  0
  4  5  1  0
  4  6  2  0
  6  7  1  0
  7  8  1  0
  7  9  1  0
  9 10  1  0
  9 11  1  0
  9 12  1  0
 12 13  1  0
 12 14  1  0
 12 15  1  0
 15 16  1  0
 16 17  2  0
 16 18  1  0
 18 19  1  0
 19 20  1  0
 19 21  2  0
 21 22  1  0
 21 23  1  0
 23 24  1  0
 24 25  2  0
 25 26  1  0
 26 27  2  0
 26 28  1  0
 28 29  1  0
 28 30  1  0
 28 31  1  0
 31 32  2  0
 32 33  1  0
 32 34  1  0
 34 35  1  0
 34 36  2  0
 36 37  1  0
 36 38  1  0
 38 39  1  0
 39 40  2  0
 39 41  1  0
 41 42  1  0
 42 43  1  0
 42 44  1  0
 42 45  1  0
 45 46  1  0
 45 47  1  0
 45 48  1  0
 48 49  1  0
 48 50  1  0
 48 51  1  0
 51 52  1  0
 51 53  1  0
 51 54  1  0
 54 55  1  0
 54 56  1  0
 38 57  2  0
 57 58  1  0
 24 59  1  0
 59 60  1  0
 15 61  1  0
 61 62  1  0
 61 63  1  0
 61 64  1  0
 64 65  1  0
 64 66  1  0
  6 67  1  0
 67 68  2  0
 68 69  1  0
 68  2  1  0
 64  7  1  0
 59 18  2  0
 57 31  1  0
 54 41  1  0
M  CHG  1  23  -1
M  END
>  <UniqueID>  (64) 
61

>  <SMILES>  (64) 
O=C(Cc1cccc(C(=O)N2CCCCC2)c1)/N=c1/cc(C(=O)N2CCC(c3cnccn3)CC2)cc[n-]1

>  <Energy>  (64) 
88.57337285939582

>  <Genealogy>  (64) 
O=C(Cc1cccc(C(=O)N2CCCCC2)c1)N=c1cc(C(=O)N2CCC(c3cnccn3)CC2)cc[n-]1 (protonated)
O=C(Cc1cccc(C(=O)N2CCCCC2)c1)/N=c1/cc(C(=O)N2CCC(c3cnccn3)CC2)cc[n-]1 (cis-trans isomerization)
O=C(Cc1cccc(C(=O)N2CCCCC2)c1)/N=c1/cc(C(=O)N2CCC(c3cnccn3)CC2)cc[n-]1 (3D coordinates assigned)
O=C(Cc1cccc(C(=O)N2CCCCC2)c1)/N=c1/cc(C(=O)N2CCC(c3cnccn3)CC2)cc[n-]1 (nonaromatic ring conformer: 88.57337285939582 kcal/mol)

>  <smiles>  (64) 
O=C(Cc1cccc(C(=O)N2CCCCC2)c1)N=c1cc(C(=O)N2CCC(c3cnccn3)CC2)cc[nH]1

>  <score_type>  (64) 
oracle

>  <origin>  (64) 
adg

>  <m_score__min__energy>  (64) 
-12.56

>  <m_primary>  (64) 
energy

$$$$
64:0
     RDKit          3D

 51 55  0  0  0  0  0  0  0  0999 V2000
   60.8232   29.0292   47.1249 H   0  0  0  0  0  0  0  0  0  0  0  0
   59.9930   29.5000   46.5780 C   0  0  0  0  0  0  0  0  0  0  0  0
   59.8680   30.8280   46.3500 N   0  0  0  0  0  0  0  0  0  0  0  0
   58.7190   30.9200   45.6450 C   0  0  0  0  0  0  0  0  0  0  0  0
   58.1540   32.0920   45.1400 C   0  0  0  0  0  0  0  0  0  0  0  0
   58.7220   33.2420   45.3590 N   0  0  0  0  0  0  0  0  0  0  0  0
   59.0340   33.8290   46.6330 C   0  0  0  0  0  0  0  0  0  0  0  0
   58.1350   34.4140   47.3000 O   0  0  0  0  0  0  0  0  0  0  0  0
   60.4130   33.7360   47.1890 C   0  0  0  0  0  0  0  0  0  0  0  0
   61.5120   33.8440   46.3140 C   0  0  0  0  0  0  0  0  0  0  0  0
   61.3366   33.9830   45.2370 H   0  0  0  0  0  0  0  0  0  0  0  0
   62.8190   33.7770   46.7950 C   0  0  0  0  0  0  0  0  0  0  0  0
   63.6655   33.8657   46.0982 H   0  0  0  0  0  0  0  0  0  0  0  0
   63.0550   33.5980   48.1560 C   0  0  0  0  0  0  0  0  0  0  0  0
   64.0872   33.5496   48.5332 H   0  0  0  0  0  0  0  0  0  0  0  0
   61.9830   33.4800   49.0410 C   0  0  0  0  0  0  0  0  0  0  0  0
   62.1766   33.3379   50.1145 H   0  0  0  0  0  0  0  0  0  0  0  0
   60.6540   33.5410   48.5740 C   0  0  0  0  0  0  0  0  0  0  0  0
   59.5680   33.4010   49.4550 O   0  0  0  0  0  0  0  0  0  0  0  0
   58.8030   32.2120   49.6230 C   0  0  0  0  0  0  0  0  0  0  0  0
   58.6722   32.0087   50.6961 H   0  0  0  0  0  0  0  0  0  0  0  0
   57.8176   32.3403   49.1513 H   0  0  0  0  0  0  0  0  0  0  0  0
   59.3282   31.3684   49.1513 H   0  0  0  0  0  0  0  0  0  0  0  0
   57.0020   31.9790   44.4120 N   0  0  0  0  0  0  0  0  0  0  0  0
   56.4160   30.7680   44.1720 C   0  0  0  0  0  0  0  0  0  0  0  0
   55.4912   30.7095   43.5792 H   0  0  0  0  0  0  0  0  0  0  0  0
   56.9980   29.6020   44.6840 C   0  0  0  0  0  0  0  0  0  0  0  0
   56.5549   28.6138   44.4915 H   0  0  0  0  0  0  0  0  0  0  0  0
   58.1290   29.7320   45.4270 N   0  0  0  0  0  0  0  0  0  0  0  0
   58.9210   28.8200   46.0210 C   0  0  0  0  0  0  0  0  0  0  0  0
   58.6890   27.3620   46.0880 C   0  0  0  0  0  0  0  0  0  0  0  0
   59.7670   26.4740   45.9400 C   0  0  0  0  0  0  0  0  0  0  0  0
   60.7815   26.8664   45.7762 H   0  0  0  0  0  0  0  0  0  0  0  0
   59.5560   25.0950   46.0000 C   0  0  0  0  0  0  0  0  0  0  0  0
   60.4012   24.4041   45.8651 H   0  0  0  0  0  0  0  0  0  0  0  0
   58.2740   24.5910   46.2310 C   0  0  0  0  0  0  0  0  0  0  0  0
   58.1107   23.5035   46.2567 H   0  0  0  0  0  0  0  0  0  0  0  0
   57.1960   25.4610   46.4300 C   0  0  0  0  0  0  0  0  0  0  0  0
   55.8940   24.9050   46.6630 N   0  0  0  0  0  0  0  0  0  0  0  0
   54.7980   24.9040   45.7420 C   0  0  0  0  0  0  0  0  0  0  0  0
   54.1060   25.9510   45.6230 O   0  0  0  0  0  0  0  0  0  0  0  0
   54.5350   23.7510   44.9260 N   0  0  0  0  0  0  0  0  0  0  0  0
   55.4220   23.0220   44.3190 C   0  0  0  0  0  0  0  0  0  0  0  0
   55.5370   22.9170   42.9760 N   0  0  0  0  0  0  0  0  0  0  0  0
   56.5460   22.0760   42.6270 C   0  0  0  0  0  0  0  0  0  0  0  0
   56.7994   21.8602   41.5786 H   0  0  0  0  0  0  0  0  0  0  0  0
   57.2350   21.5080   43.6950 C   0  0  0  0  0  0  0  0  0  0  0  0
   58.0785   20.8061   43.6184 H   0  0  0  0  0  0  0  0  0  0  0  0
   56.5540   22.0810   45.1240 S   0  0  0  0  0  0  0  0  0  0  0  0
   57.4060   26.8500   46.3410 C   0  0  0  0  0  0  0  0  0  0  0  0
   56.5588   27.5396   46.4706 H   0  0  0  0  0  0  0  0  0  0  0  0
  1  2  1  0
  2  3  1  0
  3  4  2  0
  4  5  1  0
  5  6  2  3
  6  7  1  0
  7  8  2  0
  7  9  1  0
  9 10  2  0
 10 11  1  0
 10 12  1  0
 12 13  1  0
 12 14  2  0
 14 15  1  0
 14 16  1  0
 16 17  1  0
 16 18  2  0
 18 19  1  0
 19 20  1  0
 20 21  1  0
 20 22  1  0
 20 23  1  0
  5 24  1  0
 24 25  1  0
 25 26  1  0
 25 27  2  0
 27 28  1  0
 27 29  1  0
 29 30  1  0
 30 31  1  0
 31 32  2  0
 32 33  1  0
 32 34  1  0
 34 35  1  0
 34 36  2  0
 36 37  1  0
 36 38  1  0
 38 39  1  0
 39 40  1  0
 40 41  2  0
 40 42  1  0
 42 43  2  0
 43 44  1  0
 44 45  1  0
 45 46  1  0
 45 47  2  0
 47 48  1  0
 47 49  1  0
 38 50  2  0
 50 51  1  0
 30  2  2  0
 50 31  1  0
 29  4  1  0
 49 43  1  0
 18  9  1  0
M  CHG  3  24  -1  39  -1  44  -1
M  END
>  <UniqueID>  (65) 
62

>  <SMILES>  (65) 
COc1ccccc1C(=O)N=c1[n-]ccn2c(-c3cccc([N-]C(=O)/N=c4\[n-]ccs4)c3)cnc12

>  <Energy>  (65) 
139.598459210121

>  <Genealogy>  (65) 
COc1ccccc1C(=O)N=c1[n-]ccn2c(-c3cccc([N-]C(=O)N=c4[n-]ccs4)c3)cnc12 (protonated)
COc1ccccc1C(=O)N=c1[n-]ccn2c(-c3cccc([N-]C(=O)/N=c4\[n-]ccs4)c3)cnc12 (cis-trans isomerization)
COc1ccccc1C(=O)N=c1[n-]ccn2c(-c3cccc([N-]C(=O)/N=c4\[n-]ccs4)c3)cnc12 (3D coordinates assigned)
COc1ccccc1C(=O)N=c1[n-]ccn2c(-c3cccc([N-]C(=O)/N=c4\[n-]ccs4)c3)cnc12 (optimized conformer: 139.598459210121 kcal/mol)

>  <smiles>  (65) 
COc1ccccc1C(=O)N=c1[nH]ccn2c(-c3cccc(NC(=O)N=c4[nH]ccs4)c3)cnc12

>  <score_type>  (65) 
oracle

>  <origin>  (65) 
adg

>  <m_score__min__energy>  (65) 
-13.33

>  <m_primary>  (65) 
energy

$$$$
65:0
     RDKit          3D

 54 57  0  0  0  0  0  0  0  0999 V2000
   60.4213   30.1965   44.5253 H   0  0  0  0  0  0  0  0  0  0  0  0
   59.7520   29.3660   44.7940 C   0  0  0  0  0  0  0  0  0  0  0  0
   59.2153   28.8155   44.0073 H   0  0  0  0  0  0  0  0  0  0  0  0
   59.5900   29.0240   46.0830 C   0  0  0  0  0  0  0  0  0  0  0  0
   58.7760   27.9960   46.5660 C   0  0  0  0  0  0  0  0  0  0  0  0
   58.0350   27.1320   45.8450 C   0  0  0  0  0  0  0  0  0  0  0  0
   57.9825   27.2799   44.7563 H   0  0  0  0  0  0  0  0  0  0  0  0
   57.2900   26.0000   46.4270 C   0  0  0  0  0  0  0  0  0  0  0  0
   57.8850   24.8940   46.9070 N   0  0  0  0  0  0  0  0  0  0  0  0
   56.8460   24.1040   47.2540 C   0  0  0  0  0  0  0  0  0  0  0  0
   57.0030   22.9640   47.7640 O   0  0  0  0  0  0  0  0  0  0  0  0
   55.6280   24.6250   47.0000 N   0  0  0  0  0  0  0  0  0  0  0  0
   55.9240   25.8200   46.4660 C   0  0  0  0  0  0  0  0  0  0  0  0
   54.9670   26.7040   45.9820 O   0  0  0  0  0  0  0  0  0  0  0  0
   58.9250   27.9990   47.9440 C   0  0  0  0  0  0  0  0  0  0  0  0
   58.4376   27.3180   48.6573 H   0  0  0  0  0  0  0  0  0  0  0  0
   59.8020   29.0200   48.2500 C   0  0  0  0  0  0  0  0  0  0  0  0
   60.2130   29.3680   49.6270 C   0  0  0  0  0  0  0  0  0  0  0  0
   60.9160   28.5510   50.2810 O   0  0  0  0  0  0  0  0  0  0  0  0
   59.8380   30.6260   50.2220 N   0  0  0  0  0  0  0  0  0  0  0  0
   60.6450   31.2100   51.3030 C   0  0  0  0  0  0  0  0  0  0  0  0
   61.5042   30.5545   51.5080 H   0  0  0  0  0  0  0  0  0  0  0  0
   60.9936   32.2050   50.9891 H   0  0  0  0  0  0  0  0  0  0  0  0
   59.8050   31.3580   52.5820 C   0  0  0  0  0  0  0  0  0  0  0  0
   59.7978   30.3920   53.1081 H   0  0  0  0  0  0  0  0  0  0  0  0
   60.2664   32.1555   53.1830 H   0  0  0  0  0  0  0  0  0  0  0  0
   58.3430   31.7790   52.3110 C   0  0  0  0  0  0  0  0  0  0  0  0
   57.6924   30.9040   52.4562 H   0  0  0  0  0  0  0  0  0  0  0  0
   58.0963   32.5908   53.0111 H   0  0  0  0  0  0  0  0  0  0  0  0
   58.1340   32.3150   50.8890 C   0  0  0  0  0  0  0  0  0  0  0  0
   57.0702   32.5545   50.7441 H   0  0  0  0  0  0  0  0  0  0  0  0
   58.7455   33.2193   50.7538 H   0  0  0  0  0  0  0  0  0  0  0  0
   58.5620   31.2630   49.8550 C   0  0  0  0  0  0  0  0  0  0  0  0
   57.7829   30.4892   49.7903 H   0  0  0  0  0  0  0  0  0  0  0  0
   58.6970   31.7684   48.8874 H   0  0  0  0  0  0  0  0  0  0  0  0
   60.2040   29.6510   47.1200 N   0  0  0  0  0  0  0  0  0  0  0  0
   61.1620   30.7660   47.0310 C   0  0  0  0  0  0  0  0  0  0  0  0
   61.9339   30.6386   47.8043 H   0  0  0  0  0  0  0  0  0  0  0  0
   61.6133   30.7585   46.0279 H   0  0  0  0  0  0  0  0  0  0  0  0
   60.4740   32.0940   47.2360 C   0  0  0  0  0  0  0  0  0  0  0  0
   61.1110   33.1320   47.9360 C   0  0  0  0  0  0  0  0  0  0  0  0
   62.1153   32.9728   48.3557 H   0  0  0  0  0  0  0  0  0  0  0  0
   60.4770   34.3640   48.1020 C   0  0  0  0  0  0  0  0  0  0  0  0
   60.9791   35.1684   48.6596 H   0  0  0  0  0  0  0  0  0  0  0  0
   59.2060   34.5790   47.5620 C   0  0  0  0  0  0  0  0  0  0  0  0
   58.7092   35.5509   47.6984 H   0  0  0  0  0  0  0  0  0  0  0  0
   58.5600   33.5550   46.8440 C   0  0  0  0  0  0  0  0  0  0  0  0
   57.2870   33.7220   46.2790 O   0  0  0  0  0  0  0  0  0  0  0  0
   57.0460   34.2550   44.9810 C   0  0  0  0  0  0  0  0  0  0  0  0
   56.5944   35.2538   45.0728 H   0  0  0  0  0  0  0  0  0  0  0  0
   57.9971   34.3315   44.4337 H   0  0  0  0  0  0  0  0  0  0  0  0
   56.3603   33.5915   44.4337 H   0  0  0  0  0  0  0  0  0  0  0  0
   59.2030   32.3220   46.6830 C   0  0  0  0  0  0  0  0  0  0  0  0
   58.7063   31.5210   46.1159 H   0  0  0  0  0  0  0  0  0  0  0  0
  1  2  1  0
  2  3  1  0
  2  4  2  0
  4  5  1  0
  5  6  2  0
  6  7  1  0
  6  8  1  0
  8  9  1  0
  9 10  1  0
 10 11  2  0
 10 12  1  0
 12 13  1  0
 13 14  1  0
  5 15  1  0
 15 16  1  0
 15 17  2  0
 17 18  1  0
 18 19  2  0
 18 20  1  0
 20 21  1  0
 21 22  1  0
 21 23  1  0
 21 24  1  0
 24 25  1  0
 24 26  1  0
 24 27  1  0
 27 28  1  0
 27 29  1  0
 27 30  1  0
 30 31  1  0
 30 32  1  0
 30 33  1  0
 33 34  1  0
 33 35  1  0
 17 36  1  0
 36 37  1  0
 37 38  1  0
 37 39  1  0
 37 40  1  0
 40 41  2  0
 41 42  1  0
 41 43  1  0
 43 44  1  0
 43 45  2  0
 45 46  1  0
 45 47  1  0
 47 48  1  0
 48 49  1  0
 49 50  1  0
 49 51  1  0
 49 52  1  0
 47 53  2  0
 53 54  1  0
 36  4  1  0
 53 40  1  0
 13  8  2  0
 33 20  1  0
M  CHG  3   9  -1  12  -1  14  -1
M  END
>  <UniqueID>  (66) 
63

>  <SMILES>  (66) 
C=c1/c(=C/c2[n-]c(=O)[n-]c2[O-])cc(C(=O)N2CCCCC2)n1Cc1cccc(OC)c1

>  <Energy>  (66) 
128.00016374918528

>  <Genealogy>  (66) 
C=c1c(=Cc2[n-]c(=O)[n-]c2[O-])cc(C(=O)N2CCCCC2)n1Cc1cccc(OC)c1 (protonated)
C=c1/c(=C/c2[n-]c(=O)[n-]c2[O-])cc(C(=O)N2CCCCC2)n1Cc1cccc(OC)c1 (cis-trans isomerization)
C=c1/c(=C/c2[n-]c(=O)[n-]c2[O-])cc(C(=O)N2CCCCC2)n1Cc1cccc(OC)c1 (3D coordinates assigned)
C=c1/c(=C/c2[n-]c(=O)[n-]c2[O-])cc(C(=O)N2CCCCC2)n1Cc1cccc(OC)c1 (nonaromatic ring conformer: 128.00016374918528 kcal/mol)

>  <smiles>  (66) 
C=c1c(=Cc2[nH]c(=O)[nH]c2O)cc(C(=O)N2CCCCC2)n1Cc1cccc(OC)c1

>  <score_type>  (66) 
oracle

>  <origin>  (66) 
adg

>  <m_score__min__energy>  (66) 
-16.550000000000001

>  <m_primary>  (66) 
energy

$$$$
66:0
     RDKit          3D

 65 69  0  0  0  0  0  0  0  0999 V2000
   56.5450   30.3650   44.4380 C   0  0  0  0  0  0  0  0  0  0  0  0
   57.4630   29.5290   45.2250 N   0  0  0  0  0  0  0  0  0  0  0  0
   58.6990   29.9970   45.6090 C   0  0  0  0  0  0  0  0  0  0  0  0
   59.0530   31.1610   45.2710 O   0  0  0  0  0  0  0  0  0  0  0  0
   59.5500   29.2110   46.3660 N   0  0  0  0  0  0  0  0  0  0  0  0
   60.8590   29.7440   46.7940 C   0  0  0  0  0  0  0  0  0  0  0  0
   60.9830   29.6690   48.3290 C   0  0  0  0  0  0  0  0  0  0  0  0
   60.9830   30.9870   48.9980 N   0  0  0  0  0  0  0  0  0  0  0  0
   59.6340   31.5640   49.1660 C   0  0  0  0  0  0  0  0  0  0  0  0
   59.7430   32.9820   49.7390 C   0  0  0  0  0  0  0  0  0  0  0  0
   60.5030   33.8980   48.8420 N   0  0  0  0  0  0  0  0  0  0  0  0
   59.6460   34.9210   48.1870 C   0  0  0  0  0  0  0  0  0  0  0  0
   58.9570   34.4490   46.9190 C   0  0  0  0  0  0  0  0  0  0  0  0
   59.5500   34.6470   45.6580 C   0  0  0  0  0  0  0  0  0  0  0  0
   58.9040   34.2150   44.4960 C   0  0  0  0  0  0  0  0  0  0  0  0
   57.6730   33.5620   44.5810 C   0  0  0  0  0  0  0  0  0  0  0  0
   57.0880   33.3310   45.8270 C   0  0  0  0  0  0  0  0  0  0  0  0
   57.7320   33.7610   46.9920 C   0  0  0  0  0  0  0  0  0  0  0  0
   61.3840   33.1950   47.8720 C   0  0  0  0  0  0  0  0  0  0  0  0
   62.0080   31.9310   48.4860 C   0  0  0  0  0  0  0  0  0  0  0  0
   59.1530   27.9620   46.7880 C   0  0  0  0  0  0  0  0  0  0  0  0
   59.9160   27.2480   47.4910 O   0  0  0  0  0  0  0  0  0  0  0  0
   57.8820   27.5120   46.4270 C   0  0  0  0  0  0  0  0  0  0  0  0
   57.0810   28.2970   45.6610 C   0  0  0  0  0  0  0  0  0  0  0  0
   55.9030   27.6910   45.4120 N   0  0  0  0  0  0  0  0  0  0  0  0
   56.0410   26.5120   46.0640 C   0  0  0  0  0  0  0  0  0  0  0  0
   55.1410   25.6310   46.0600 O   0  0  0  0  0  0  0  0  0  0  0  0
   57.2280   26.3630   46.7080 N   0  0  0  0  0  0  0  0  0  0  0  0
   57.6630   25.1810   47.4650 C   0  0  0  0  0  0  0  0  0  0  0  0
   57.7170   23.9610   46.5760 C   0  0  0  0  0  0  0  0  0  0  0  0
   58.7510   23.8420   45.6300 C   0  0  0  0  0  0  0  0  0  0  0  0
   58.8190   22.7290   44.7890 C   0  0  0  0  0  0  0  0  0  0  0  0
   57.8560   21.7220   44.8810 C   0  0  0  0  0  0  0  0  0  0  0  0
   56.8230   21.8270   45.8140 C   0  0  0  0  0  0  0  0  0  0  0  0
   56.7430   22.9400   46.6610 C   0  0  0  0  0  0  0  0  0  0  0  0
   55.4140   23.0110   47.8130 Cl  0  0  0  0  0  0  0  0  0  0  0  0
   55.9055   30.9474   45.1177 H   0  0  0  0  0  0  0  0  0  0  0  0
   57.1260   31.0507   43.8037 H   0  0  0  0  0  0  0  0  0  0  0  0
   55.9165   29.7226   43.8037 H   0  0  0  0  0  0  0  0  0  0  0  0
   61.6623   29.1495   46.3342 H   0  0  0  0  0  0  0  0  0  0  0  0
   60.9427   30.7937   46.4760 H   0  0  0  0  0  0  0  0  0  0  0  0
   60.1353   29.0847   48.7162 H   0  0  0  0  0  0  0  0  0  0  0  0
   61.9547   29.2018   48.5470 H   0  0  0  0  0  0  0  0  0  0  0  0
   59.1292   31.6026   48.1894 H   0  0  0  0  0  0  0  0  0  0  0  0
   59.0542   30.9361   49.8585 H   0  0  0  0  0  0  0  0  0  0  0  0
   58.7294   33.3854   49.8798 H   0  0  0  0  0  0  0  0  0  0  0  0
   60.2864   32.9183   50.6933 H   0  0  0  0  0  0  0  0  0  0  0  0
   61.1480   34.4430   49.4650 H   0  0  0  0  0  0  0  0  0  0  0  0
   58.8712   35.2299   48.9041 H   0  0  0  0  0  0  0  0  0  0  0  0
   60.3130   35.7445   47.8919 H   0  0  0  0  0  0  0  0  0  0  0  0
   60.5282   35.1450   45.5864 H   0  0  0  0  0  0  0  0  0  0  0  0
   59.3663   34.3898   43.5133 H   0  0  0  0  0  0  0  0  0  0  0  0
   57.1634   33.2291   43.6648 H   0  0  0  0  0  0  0  0  0  0  0  0
   56.1209   32.8110   45.8929 H   0  0  0  0  0  0  0  0  0  0  0  0
   57.2770   33.5596   47.9730 H   0  0  0  0  0  0  0  0  0  0  0  0
   60.7890   32.9081   46.9925 H   0  0  0  0  0  0  0  0  0  0  0  0
   62.1986   33.8782   47.5898 H   0  0  0  0  0  0  0  0  0  0  0  0
   62.6046   31.4211   47.7153 H   0  0  0  0  0  0  0  0  0  0  0  0
   62.6318   32.2433   49.3365 H   0  0  0  0  0  0  0  0  0  0  0  0
   58.6640   25.3681   47.8809 H   0  0  0  0  0  0  0  0  0  0  0  0
   56.9397   24.9954   48.2727 H   0  0  0  0  0  0  0  0  0  0  0  0
   59.5124   24.6320   45.5519 H   0  0  0  0  0  0  0  0  0  0  0  0
   59.6323   22.6456   44.0531 H   0  0  0  0  0  0  0  0  0  0  0  0
   57.9114   20.8459   44.2182 H   0  0  0  0  0  0  0  0  0  0  0  0
   56.0672   21.0309   45.8846 H   0  0  0  0  0  0  0  0  0  0  0  0
  1  2  1  0
  2  3  1  0
  3  4  2  0
  3  5  1  0
  5  6  1  0
  6  7  1  0
  7  8  1  0
  8  9  1  0
  9 10  1  0
 10 11  1  0
 11 12  1  0
 12 13  1  0
 13 14  2  0
 14 15  1  0
 15 16  2  0
 16 17  1  0
 17 18  2  0
 11 19  1  0
 19 20  1  0
  5 21  1  0
 21 22  2  0
 21 23  1  0
 23 24  2  0
 24 25  1  0
 25 26  1  0
 26 27  2  0
 26 28  1  0
 28 29  1  0
 29 30  1  0
 30 31  2  0
 31 32  1  0
 32 33  2  0
 33 34  1  0
 34 35  2  0
 35 36  1  0
 24  2  1  0
 35 30  1  0
 20  8  1  0
 28 23  1  0
 18 13  1  0
  1 37  1  0
  1 38  1  0
  1 39  1  0
  6 40  1  0
  6 41  1  0
  7 42  1  0
  7 43  1  0
  9 44  1  0
  9 45  1  0
 10 46  1  0
 10 47  1  0
 11 48  1  0
 12 49  1  0
 12 50  1  0
 14 51  1  0
 15 52  1  0
 16 53  1  0
 17 54  1  0
 18 55  1  0
 19 56  1  0
 19 57  1  0
 20 58  1  0
 20 59  1  0
 29 60  1  0
 29 61  1  0
 31 62  1  0
 32 63  1  0
 33 64  1  0
 34 65  1  0
M  CHG  2  11   1  25  -1
M  END
>  <UniqueID>  (67) 
64

>  <SMILES>  (67) 
Cn1c(=O)n(CCN2CC[NH+](Cc3ccccc3)CC2)c(=O)c2c1[n-]c(=O)n2Cc1ccccc1Cl

>  <Energy>  (67) 
135.67803765902178

>  <Genealogy>  (67) 
Cn1c(=O)n(CCN2CC[NH+](Cc3ccccc3)CC2)c(=O)c2c1[n-]c(=O)n2Cc1ccccc1Cl (protonated)
Cn1c(=O)n(CCN2CC[NH+](Cc3ccccc3)CC2)c(=O)c2c1[n-]c(=O)n2Cc1ccccc1Cl (3D coordinates assigned)
Cn1c(=O)n(CCN2CC[NH+](Cc3ccccc3)CC2)c(=O)c2c1[n-]c(=O)n2Cc1ccccc1Cl (nonaromatic ring conformer: 135.67803765902178 kcal/mol)

>  <smiles>  (67) 
Cn1c(=O)n(CCN2CCN(Cc3ccccc3)CC2)c(=O)c2c1[nH]c(=O)n2Cc1ccccc1Cl

>  <score_type>  (67) 
oracle

>  <origin>  (67) 
adg

>  <m_score__min__energy>  (67) 
-9.4000000000000004

>  <m_primary>  (67) 
energy

$$$$
67:0
     RDKit          3D

 56 59  0  0  0  0  0  0  0  0999 V2000
   59.2920   30.1380   51.1730 C   0  0  0  0  0  0  0  0  0  0  0  0
   59.6130   29.8020   49.7810 N   0  0  0  0  0  0  0  0  0  0  0  0
   58.6740   29.2520   48.9980 N   0  0  0  0  0  0  0  0  0  0  0  0
   58.9190   28.9200   47.6980 C   0  0  0  0  0  0  0  0  0  0  0  0
   60.1840   29.1820   47.1490 C   0  0  0  0  0  0  0  0  0  0  0  0
   61.1710   29.7220   47.9720 C   0  0  0  0  0  0  0  0  0  0  0  0
   60.8700   30.0380   49.2940 C   0  0  0  0  0  0  0  0  0  0  0  0
   61.7640   30.5400   50.0290 O   0  0  0  0  0  0  0  0  0  0  0  0
   60.5200   28.8120   45.7270 C   0  0  0  0  0  0  0  0  0  0  0  0
   59.3250   28.6480   44.8800 N   0  0  0  0  0  0  0  0  0  0  0  0
   58.8860   29.8520   44.1390 C   0  0  0  0  0  0  0  0  0  0  0  0
   57.3880   30.0500   44.1140 C   0  0  0  0  0  0  0  0  0  0  0  0
   56.6800   29.2640   43.4330 O   0  0  0  0  0  0  0  0  0  0  0  0
   56.7350   31.0730   44.8790 N   0  0  0  0  0  0  0  0  0  0  0  0
   57.3650   32.2030   45.4960 C   0  0  0  0  0  0  0  0  0  0  0  0
   57.2150   33.4690   44.9200 C   0  0  0  0  0  0  0  0  0  0  0  0
   57.8100   34.5520   45.4860 N   0  0  0  0  0  0  0  0  0  0  0  0
   58.5910   34.4440   46.5940 C   0  0  0  0  0  0  0  0  0  0  0  0
   58.8260   33.1880   47.1750 C   0  0  0  0  0  0  0  0  0  0  0  0
   59.6860   33.0470   48.3730 C   0  0  0  0  0  0  0  0  0  0  0  0
   59.1540   32.7280   49.4720 O   0  0  0  0  0  0  0  0  0  0  0  0
   61.1090   33.2740   48.3180 N   0  0  0  0  0  0  0  0  0  0  0  0
   61.7900   33.8100   49.5060 C   0  0  0  0  0  0  0  0  0  0  0  0
   63.2440   34.1790   49.1950 C   0  0  0  0  0  0  0  0  0  0  0  0
   64.0090   32.9950   48.5790 C   0  0  0  0  0  0  0  0  0  0  0  0
   63.1740   32.1650   47.5760 C   0  0  0  0  0  0  0  0  0  0  0  0
   61.8920   32.8780   47.1360 C   0  0  0  0  0  0  0  0  0  0  0  0
   58.2010   32.0630   46.6140 C   0  0  0  0  0  0  0  0  0  0  0  0
   58.2620   27.8290   45.4930 C   0  0  0  0  0  0  0  0  0  0  0  0
   57.8000   28.3590   46.8580 C   0  0  0  0  0  0  0  0  0  0  0  0
   59.8913   29.5107   51.8492 H   0  0  0  0  0  0  0  0  0  0  0  0
   59.5214   31.1980   51.3566 H   0  0  0  0  0  0  0  0  0  0  0  0
   58.2226   29.9572   51.3566 H   0  0  0  0  0  0  0  0  0  0  0  0
   57.7180   29.0710   49.3830 H   0  0  0  0  0  0  0  0  0  0  0  0
   62.1831   29.8977   47.5787 H   0  0  0  0  0  0  0  0  0  0  0  0
   61.1489   29.6054   45.2970 H   0  0  0  0  0  0  0  0  0  0  0  0
   61.0425   27.8443   45.7521 H   0  0  0  0  0  0  0  0  0  0  0  0
   59.3430   30.7340   44.6115 H   0  0  0  0  0  0  0  0  0  0  0  0
   59.2050   29.7155   43.0952 H   0  0  0  0  0  0  0  0  0  0  0  0
   56.6139   33.5883   44.0065 H   0  0  0  0  0  0  0  0  0  0  0  0
   59.0406   35.3449   47.0369 H   0  0  0  0  0  0  0  0  0  0  0  0
   61.2576   34.7094   49.8490 H   0  0  0  0  0  0  0  0  0  0  0  0
   61.7878   33.0350   50.2867 H   0  0  0  0  0  0  0  0  0  0  0  0
   63.2551   35.0193   48.4853 H   0  0  0  0  0  0  0  0  0  0  0  0
   63.7384   34.4550   50.1381 H   0  0  0  0  0  0  0  0  0  0  0  0
   64.8915   33.3884   48.0533 H   0  0  0  0  0  0  0  0  0  0  0  0
   64.2767   32.3217   49.4066 H   0  0  0  0  0  0  0  0  0  0  0  0
   63.7892   31.9674   46.6858 H   0  0  0  0  0  0  0  0  0  0  0  0
   62.8776   31.2347   48.0827 H   0  0  0  0  0  0  0  0  0  0  0  0
   62.1541   33.7744   46.5549 H   0  0  0  0  0  0  0  0  0  0  0  0
   61.2922   32.1956   46.5159 H   0  0  0  0  0  0  0  0  0  0  0  0
   58.3674   31.0681   47.0526 H   0  0  0  0  0  0  0  0  0  0  0  0
   57.3972   27.8133   44.8134 H   0  0  0  0  0  0  0  0  0  0  0  0
   58.6778   26.8239   45.6568 H   0  0  0  0  0  0  0  0  0  0  0  0
   57.0592   29.1545   46.6895 H   0  0  0  0  0  0  0  0  0  0  0  0
   57.3793   27.5054   47.4098 H   0  0  0  0  0  0  0  0  0  0  0  0
  1  2  1  0
  2  3  1  0
  3  4  2  0
  4  5  1  0
  5  6  2  0
  6  7  1  0
  7  8  2  0
  5  9  1  0
  9 10  1  0
 10 11  1  0
 11 12  1  0
 12 13  2  0
 12 14  1  0
 14 15  1  0
 15 16  2  0
 16 17  1  0
 17 18  2  0
 18 19  1  0
 19 20  1  0
 20 21  2  0
 20 22  1  0
 22 23  1  0
 23 24  1  0
 24 25  1  0
 25 26  1  0
 26 27  1  0
 19 28  2  0
 10 29  1  0
 29 30  1  0
  7  2  1  0
 28 15  1  0
 30  4  1  0
 27 22  1  0
  1 31  1  0
  1 32  1  0
  1 33  1  0
  3 34  1  0
  6 35  1  0
  9 36  1  0
  9 37  1  0
 11 38  1  0
 11 39  1  0
 16 40  1  0
 18 41  1  0
 23 42  1  0
 23 43  1  0
 24 44  1  0
 24 45  1  0
 25 46  1  0
 25 47  1  0
 26 48  1  0
 26 49  1  0
 27 50  1  0
 27 51  1  0
 28 52  1  0
 29 53  1  0
 29 54  1  0
 30 55  1  0
 30 56  1  0
M  CHG  2   3   1  14  -1
M  END
>  <UniqueID>  (68) 
65

>  <SMILES>  (68) 
Cn1[nH+]c2c(cc1=O)CN(CC(=O)[N-]c1cncc(C(=O)N3CCCCC3)c1)CC2

>  <Energy>  (68) 
80.1634928278533

>  <Genealogy>  (68) 
Cn1[nH+]c2c(cc1=O)CN(CC(=O)[N-]c1cncc(C(=O)N3CCCCC3)c1)CC2 (protonated)
Cn1[nH+]c2c(cc1=O)CN(CC(=O)[N-]c1cncc(C(=O)N3CCCCC3)c1)CC2 (3D coordinates assigned)
Cn1[nH+]c2c(cc1=O)CN(CC(=O)[N-]c1cncc(C(=O)N3CCCCC3)c1)CC2 (nonaromatic ring conformer: 80.1634928278533 kcal/mol)

>  <smiles>  (68) 
Cn1nc2c(cc1=O)CN(CC(=O)Nc1cncc(C(=O)N3CCCCC3)c1)CC2

>  <score_type>  (68) 
oracle

>  <origin>  (68) 
adg

>  <m_score__min__energy>  (68) 
-9.7899999999999991

>  <m_primary>  (68) 
energy

$$$$
68:0
     RDKit          3D

 49 52  0  0  0  0  0  0  0  0999 V2000
   56.8860   31.1170   44.1130 C   0  0  0  0  0  0  0  0  0  0  0  0
   57.4200   30.1670   45.1530 C   0  0  0  0  0  0  0  0  0  0  0  0
   57.1800   28.7910   44.9990 C   0  0  0  0  0  0  0  0  0  0  0  0
   57.6680   27.8650   45.9340 C   0  0  0  0  0  0  0  0  0  0  0  0
   57.4190   26.4540   45.7690 N   0  0  0  0  0  0  0  0  0  0  0  0
   58.4520   25.6310   45.5460 N   0  0  0  0  0  0  0  0  0  0  0  0
   58.2720   24.2940   45.3890 C   0  0  0  0  0  0  0  0  0  0  0  0
   56.9820   23.7770   45.4560 C   0  0  0  0  0  0  0  0  0  0  0  0
   56.7800   22.5430   45.3180 O   0  0  0  0  0  0  0  0  0  0  0  0
   55.9420   24.6170   45.6710 N   0  0  0  0  0  0  0  0  0  0  0  0
   56.1450   25.9490   45.8250 C   0  0  0  0  0  0  0  0  0  0  0  0
   55.1520   26.7070   45.9990 O   0  0  0  0  0  0  0  0  0  0  0  0
   58.3810   28.3250   47.0460 C   0  0  0  0  0  0  0  0  0  0  0  0
   58.6150   29.6890   47.2200 C   0  0  0  0  0  0  0  0  0  0  0  0
   58.1340   30.6230   46.2890 C   0  0  0  0  0  0  0  0  0  0  0  0
   58.4890   32.3390   46.5480 S   0  0  0  0  0  0  0  0  0  0  0  0
   58.9780   32.9370   45.2580 O   0  0  0  0  0  0  0  0  0  0  0  0
   57.2450   33.0690   46.9670 O   0  0  0  0  0  0  0  0  0  0  0  0
   59.6950   32.5170   47.7910 N   0  0  0  0  0  0  0  0  0  0  0  0
   59.2610   32.6710   49.1490 C   0  0  0  0  0  0  0  0  0  0  0  0
   59.7160   33.7490   49.9220 C   0  0  0  0  0  0  0  0  0  0  0  0
   59.2980   33.8870   51.2490 C   0  0  0  0  0  0  0  0  0  0  0  0
   58.4170   32.9550   51.8060 C   0  0  0  0  0  0  0  0  0  0  0  0
   57.9500   31.8870   51.0350 C   0  0  0  0  0  0  0  0  0  0  0  0
   58.3690   31.7460   49.7080 C   0  0  0  0  0  0  0  0  0  0  0  0
   61.0830   32.7090   47.4610 C   0  0  0  0  0  0  0  0  0  0  0  0
   62.0550   31.7670   47.8450 C   0  0  0  0  0  0  0  0  0  0  0  0
   63.3980   31.9600   47.5090 C   0  0  0  0  0  0  0  0  0  0  0  0
   63.7840   33.0910   46.7830 C   0  0  0  0  0  0  0  0  0  0  0  0
   62.8260   34.0280   46.3900 C   0  0  0  0  0  0  0  0  0  0  0  0
   61.4810   33.8390   46.7240 C   0  0  0  0  0  0  0  0  0  0  0  0
   56.4052   31.9724   44.6101 H   0  0  0  0  0  0  0  0  0  0  0  0
   57.7144   31.4763   43.4847 H   0  0  0  0  0  0  0  0  0  0  0  0
   56.1485   30.5961   43.4847 H   0  0  0  0  0  0  0  0  0  0  0  0
   56.6017   28.4347   44.1337 H   0  0  0  0  0  0  0  0  0  0  0  0
   59.4270   26.0060   45.5040 H   0  0  0  0  0  0  0  0  0  0  0  0
   59.1317   23.6310   45.2118 H   0  0  0  0  0  0  0  0  0  0  0  0
   58.7596   27.6065   47.7880 H   0  0  0  0  0  0  0  0  0  0  0  0
   59.1824   30.0364   48.0960 H   0  0  0  0  0  0  0  0  0  0  0  0
   60.4032   34.4875   49.4834 H   0  0  0  0  0  0  0  0  0  0  0  0
   59.6625   34.7294   51.8553 H   0  0  0  0  0  0  0  0  0  0  0  0
   58.0914   33.0624   52.8512 H   0  0  0  0  0  0  0  0  0  0  0  0
   57.2527   31.1570   51.4719 H   0  0  0  0  0  0  0  0  0  0  0  0
   57.9974   30.9068   49.1016 H   0  0  0  0  0  0  0  0  0  0  0  0
   61.7563   30.8735   48.4129 H   0  0  0  0  0  0  0  0  0  0  0  0
   64.1525   31.2209   47.8162 H   0  0  0  0  0  0  0  0  0  0  0  0
   64.8417   33.2426   46.5216 H   0  0  0  0  0  0  0  0  0  0  0  0
   63.1297   34.9163   45.8167 H   0  0  0  0  0  0  0  0  0  0  0  0
   60.7301   34.5783   46.4085 H   0  0  0  0  0  0  0  0  0  0  0  0
  1  2  1  0
  2  3  2  0
  3  4  1  0
  4  5  1  0
  5  6  1  0
  6  7  2  0
  7  8  1  0
  8  9  2  0
  8 10  1  0
 10 11  1  0
 11 12  2  0
  4 13  2  0
 13 14  1  0
 14 15  2  0
 15 16  1  0
 16 17  2  0
 16 18  2  0
 16 19  1  0
 19 20  1  0
 20 21  2  0
 21 22  1  0
 22 23  2  0
 23 24  1  0
 24 25  2  0
 19 26  1  0
 26 27  2  0
 27 28  1  0
 28 29  2  0
 29 30  1  0
 30 31  2  0
 15  2  1  0
 25 20  1  0
 31 26  1  0
 11  5  1  0
  1 32  1  0
  1 33  1  0
  1 34  1  0
  3 35  1  0
  6 36  1  0
  7 37  1  0
 13 38  1  0
 14 39  1  0
 21 40  1  0
 22 41  1  0
 23 42  1  0
 24 43  1  0
 25 44  1  0
 27 45  1  0
 28 46  1  0
 29 47  1  0
 30 48  1  0
 31 49  1  0
M  CHG  2   6   1  10  -1
M  END
>  <UniqueID>  (69) 
66

>  <SMILES>  (69) 
Cc1cc(-n2[nH+]cc(=O)[n-]c2=O)ccc1S(=O)(=O)N(c1ccccc1)c1ccccc1

>  <Energy>  (69) 
74.90476640630044

>  <Genealogy>  (69) 
Cc1cc(-n2[nH+]cc(=O)[n-]c2=O)ccc1S(=O)(=O)N(c1ccccc1)c1ccccc1 (protonated)
Cc1cc(-n2[nH+]cc(=O)[n-]c2=O)ccc1S(=O)(=O)N(c1ccccc1)c1ccccc1 (3D coordinates assigned)
Cc1cc(-n2[nH+]cc(=O)[n-]c2=O)ccc1S(=O)(=O)N(c1ccccc1)c1ccccc1 (optimized conformer: 74.90476640630044 kcal/mol)

>  <smiles>  (69) 
Cc1cc(-n2ncc(=O)[nH]c2=O)ccc1S(=O)(=O)N(c1ccccc1)c1ccccc1

>  <score_type>  (69) 
oracle

>  <origin>  (69) 
adg

>  <m_score__min__energy>  (69) 
-9.5700000000000003

>  <m_primary>  (69) 
energy

$$$$
69:0
     RDKit          3D

 32 33  0  0  0  0  0  0  0  0999 V2000
   60.1848   28.9365   45.2375 H   0  0  0  0  0  0  0  0  0  0  0  0
   60.0410   29.9160   45.7170 C   0  0  0  0  0  0  0  0  0  0  0  0
   60.9890   30.3970   46.5580 N   0  0  0  0  0  0  0  0  0  0  0  0
   60.8410   31.6040   47.1590 C   0  0  0  0  0  0  0  0  0  0  0  0
   61.9050   32.1280   48.0650 C   0  0  0  0  0  0  0  0  0  0  0  0
   61.6016   31.9786   49.1117 H   0  0  0  0  0  0  0  0  0  0  0  0
   62.8456   31.5901   47.8755 H   0  0  0  0  0  0  0  0  0  0  0  0
   62.0520   33.2015   47.8755 H   0  0  0  0  0  0  0  0  0  0  0  0
   59.7280   32.3420   46.9250 N   0  0  0  0  0  0  0  0  0  0  0  0
   58.7330   31.9060   46.1070 C   0  0  0  0  0  0  0  0  0  0  0  0
   57.6260   32.7510   45.9390 O   0  0  0  0  0  0  0  0  0  0  0  0
   57.5640   33.8310   45.0120 C   0  0  0  0  0  0  0  0  0  0  0  0
   57.5094   34.7827   45.5609 H   0  0  0  0  0  0  0  0  0  0  0  0
   58.4640   33.8236   44.3797 H   0  0  0  0  0  0  0  0  0  0  0  0
   56.6707   33.7206   44.3797 H   0  0  0  0  0  0  0  0  0  0  0  0
   58.8780   30.6550   45.4520 C   0  0  0  0  0  0  0  0  0  0  0  0
   57.9120   30.1410   44.4080 C   0  0  0  0  0  0  0  0  0  0  0  0
   57.4922   30.9948   43.8559 H   0  0  0  0  0  0  0  0  0  0  0  0
   58.4577   29.4706   43.7277 H   0  0  0  0  0  0  0  0  0  0  0  0
   56.7930   29.3690   45.0400 C   0  0  0  0  0  0  0  0  0  0  0  0
   55.5990   29.6680   44.7650 O   0  0  0  0  0  0  0  0  0  0  0  0
   57.0820   28.4240   46.0800 N   0  0  0  0  0  0  0  0  0  0  0  0
   57.1930   27.1260   46.0010 C   0  0  0  0  0  0  0  0  0  0  0  0
   58.4460   26.6080   45.8750 N   0  0  0  0  0  0  0  0  0  0  0  0
   58.6840   25.2740   45.7790 C   0  0  0  0  0  0  0  0  0  0  0  0
   59.7158   24.9046   45.6839 H   0  0  0  0  0  0  0  0  0  0  0  0
   57.6210   24.3740   45.8010 C   0  0  0  0  0  0  0  0  0  0  0  0
   57.8066   23.2917   45.7355 H   0  0  0  0  0  0  0  0  0  0  0  0
   56.3200   24.8610   45.9070 C   0  0  0  0  0  0  0  0  0  0  0  0
   55.4725   24.1599   45.9239 H   0  0  0  0  0  0  0  0  0  0  0  0
   56.0870   26.2360   45.9920 C   0  0  0  0  0  0  0  0  0  0  0  0
   54.7700   26.6810   46.0180 O   0  0  0  0  0  0  0  0  0  0  0  0
  1  2  1  0
  2  3  2  0
  3  4  1  0
  4  5  1  0
  5  6  1  0
  5  7  1  0
  5  8  1  0
  4  9  2  0
  9 10  1  0
 10 11  1  0
 11 12  1  0
 12 13  1  0
 12 14  1  0
 12 15  1  0
 10 16  2  0
 16 17  1  0
 17 18  1  0
 17 19  1  0
 17 20  1  0
 20 21  2  0
 20 22  1  0
 22 23  2  0
 23 24  1  0
 24 25  1  0
 25 26  1  0
 25 27  2  0
 27 28  1  0
 27 29  1  0
 29 30  1  0
 29 31  2  0
 31 32  1  0
 16  2  1  0
 31 23  1  0
M  CHG  2  24  -1  32  -1
M  END
>  <UniqueID>  (70) 
67

>  <SMILES>  (70) 
COc1nc(C)ncc1CC(=O)/N=c1/[n-]cccc1[O-]

>  <Energy>  (70) 
50.29682198454843

>  <Genealogy>  (70) 
COc1nc(C)ncc1CC(=O)N=c1[n-]cccc1[O-] (protonated)
COc1nc(C)ncc1CC(=O)/N=c1/[n-]cccc1[O-] (cis-trans isomerization)
COc1nc(C)ncc1CC(=O)/N=c1/[n-]cccc1[O-] (3D coordinates assigned)
COc1nc(C)ncc1CC(=O)/N=c1/[n-]cccc1[O-] (optimized conformer: 50.29682198454843 kcal/mol)

>  <smiles>  (70) 
COc1nc(C)ncc1CC(=O)N=c1[nH]cccc1O

>  <score_type>  (70) 
oracle

>  <origin>  (70) 
adg

>  <m_score__min__energy>  (70) 
-12.210000000000001

>  <m_primary>  (70) 
energy

$$$$
70:0
     RDKit          3D

 37 39  0  0  0  0  0  0  0  0999 V2000
   55.4190   29.4220   44.8720 O   0  0  0  0  0  0  0  0  0  0  0  0
   56.6240   29.6060   44.6260 C   0  0  0  0  0  0  0  0  0  0  0  0
   57.5320   28.5440   44.1430 C   0  0  0  0  0  0  0  0  0  0  0  0
   59.2660   28.9040   44.5420 S   0  0  0  0  0  0  0  0  0  0  0  0
   59.4610   28.6740   46.3110 C   0  0  0  0  0  0  0  0  0  0  0  0
   58.9060   29.5120   47.2000 N   0  0  0  0  0  0  0  0  0  0  0  0
   59.0550   29.3380   48.5400 C   0  0  0  0  0  0  0  0  0  0  0  0
   58.5270   30.1330   49.3610 O   0  0  0  0  0  0  0  0  0  0  0  0
   59.8170   28.2420   48.9600 C   0  0  0  0  0  0  0  0  0  0  0  0
   60.3860   27.3820   48.0150 C   0  0  0  0  0  0  0  0  0  0  0  0
   60.2060   27.6010   46.6890 N   0  0  0  0  0  0  0  0  0  0  0  0
   57.2410   30.9410   44.8070 C   0  0  0  0  0  0  0  0  0  0  0  0
   57.5930   31.6860   45.7350 N   0  0  0  0  0  0  0  0  0  0  0  0
   58.1350   32.8630   45.5800 C   0  0  0  0  0  0  0  0  0  0  0  0
   58.5420   33.7230   46.7680 C   0  0  0  0  0  0  0  0  0  0  0  0
   59.9570   33.4110   47.0730 C   0  0  0  0  0  0  0  0  0  0  0  0
   60.9390   34.0920   46.3820 C   0  0  0  0  0  0  0  0  0  0  0  0
   62.2810   33.8260   46.6420 C   0  0  0  0  0  0  0  0  0  0  0  0
   62.5870   32.8660   47.6050 C   0  0  0  0  0  0  0  0  0  0  0  0
   63.9210   32.6120   47.8530 O   0  0  0  0  0  0  0  0  0  0  0  0
   61.6070   32.1830   48.2980 C   0  0  0  0  0  0  0  0  0  0  0  0
   60.2670   32.4550   48.0320 C   0  0  0  0  0  0  0  0  0  0  0  0
   58.3200   33.2870   44.3100 C   0  0  0  0  0  0  0  0  0  0  0  0
   57.6890   31.9390   43.2730 S   0  0  0  0  0  0  0  0  0  0  0  0
   57.2486   27.5917   44.6151 H   0  0  0  0  0  0  0  0  0  0  0  0
   57.4385   28.4868   43.0485 H   0  0  0  0  0  0  0  0  0  0  0  0
   59.9685   28.0568   50.0336 H   0  0  0  0  0  0  0  0  0  0  0  0
   60.9839   26.5216   48.3500 H   0  0  0  0  0  0  0  0  0  0  0  0
   60.6370   26.9500   45.9840 H   0  0  0  0  0  0  0  0  0  0  0  0
   58.4375   34.7884   46.5149 H   0  0  0  0  0  0  0  0  0  0  0  0
   57.9011   33.5147   47.6374 H   0  0  0  0  0  0  0  0  0  0  0  0
   60.6621   34.8432   45.6276 H   0  0  0  0  0  0  0  0  0  0  0  0
   63.0776   34.3589   46.1022 H   0  0  0  0  0  0  0  0  0  0  0  0
   64.5310   32.3620   47.0920 H   0  0  0  0  0  0  0  0  0  0  0  0
   61.8819   31.4315   49.0527 H   0  0  0  0  0  0  0  0  0  0  0  0
   59.4694   31.9229   48.5711 H   0  0  0  0  0  0  0  0  0  0  0  0
   58.7572   34.2402   43.9781 H   0  0  0  0  0  0  0  0  0  0  0  0
  1  2  2  0
  2  3  1  0
  3  4  1  0
  4  5  1  0
  5  6  2  0
  6  7  1  0
  7  8  2  0
  7  9  1  0
  9 10  2  0
 10 11  1  0
  2 12  1  0
 12 13  2  0
 13 14  1  0
 14 15  1  0
 15 16  1  0
 16 17  2  0
 17 18  1  0
 18 19  2  0
 19 20  1  0
 19 21  1  0
 21 22  2  0
 14 23  2  0
 23 24  1  0
 11  5  1  0
 24 12  1  0
 22 16  1  0
  3 25  1  0
  3 26  1  0
  9 27  1  0
 10 28  1  0
 11 29  1  0
 15 30  1  0
 15 31  1  0
 17 32  1  0
 18 33  1  0
 20 34  1  0
 21 35  1  0
 22 36  1  0
 23 37  1  0
M  END
>  <smiles>  (71) 
O=C(CSc1nc(=O)cc[nH]1)c1nc(Cc2ccc(O)cc2)cs1

>  <score_type>  (71) 
oracle

>  <origin>  (71) 
adg

>  <m_score__min__energy>  (71) 
-8.3699999999999992

>  <m_primary>  (71) 
energy

$$$$
71:0
     RDKit          3D

 53 56  0  0  0  0  0  0  0  0999 V2000
   53.3970   28.4190   53.1630 C   0  0  0  0  0  0  0  0  0  0  0  0
   54.4380   29.1800   52.7910 C   0  0  0  0  0  0  0  0  0  0  0  0
   54.4050   30.3320   51.9870 C   0  0  0  0  0  0  0  0  0  0  0  0
   53.4090   30.8830   51.2660 C   0  0  0  0  0  0  0  0  0  0  0  0
   52.1690   31.4540   51.8080 C   0  0  0  0  0  0  0  0  0  0  0  0
   51.7840   31.3090   53.0880 N   0  0  0  0  0  0  0  0  0  0  0  0
   50.6710   32.0690   53.1690 C   0  0  0  0  0  0  0  0  0  0  0  0
   50.0020   32.1790   54.2280 O   0  0  0  0  0  0  0  0  0  0  0  0
   50.3400   32.7120   52.0290 N   0  0  0  0  0  0  0  0  0  0  0  0
   51.3050   32.3280   51.1780 C   0  0  0  0  0  0  0  0  0  0  0  0
   51.3980   32.7900   49.8670 O   0  0  0  0  0  0  0  0  0  0  0  0
   55.6800   30.8690   52.0300 C   0  0  0  0  0  0  0  0  0  0  0  0
   56.4520   30.0110   52.7820 C   0  0  0  0  0  0  0  0  0  0  0  0
   57.8940   30.2030   53.0250 C   0  0  0  0  0  0  0  0  0  0  0  0
   58.3940   29.7640   54.0950 O   0  0  0  0  0  0  0  0  0  0  0  0
   58.7210   30.9130   52.0850 N   0  0  0  0  0  0  0  0  0  0  0  0
   58.1660   32.0420   51.3270 C   0  0  0  0  0  0  0  0  0  0  0  0
   59.2680   32.7670   50.5410 C   0  0  0  0  0  0  0  0  0  0  0  0
   60.1040   31.8230   49.7670 N   0  0  0  0  0  0  0  0  0  0  0  0
   59.4240   31.3810   48.5300 C   0  0  0  0  0  0  0  0  0  0  0  0
   59.3690   32.5030   47.5260 C   0  0  0  0  0  0  0  0  0  0  0  0
   58.1800   32.7590   46.8240 C   0  0  0  0  0  0  0  0  0  0  0  0
   58.1160   33.8100   45.9040 C   0  0  0  0  0  0  0  0  0  0  0  0
   59.2380   34.6140   45.6810 C   0  0  0  0  0  0  0  0  0  0  0  0
   59.1730   35.6590   44.7680 O   0  0  0  0  0  0  0  0  0  0  0  0
   60.4250   34.3670   46.3770 C   0  0  0  0  0  0  0  0  0  0  0  0
   60.4920   33.3150   47.2970 C   0  0  0  0  0  0  0  0  0  0  0  0
   60.6330   30.6780   50.5620 C   0  0  0  0  0  0  0  0  0  0  0  0
   60.1610   30.6520   52.0240 C   0  0  0  0  0  0  0  0  0  0  0  0
   55.7010   28.9880   53.2560 N   0  0  0  0  0  0  0  0  0  0  0  0
   56.1260   27.9610   54.2140 C   0  0  0  0  0  0  0  0  0  0  0  0
   53.5603   27.5368   53.7994 H   0  0  0  0  0  0  0  0  0  0  0  0
   52.3805   28.6775   52.8315 H   0  0  0  0  0  0  0  0  0  0  0  0
   53.5359   30.9074   50.1736 H   0  0  0  0  0  0  0  0  0  0  0  0
   51.7080   32.1900   49.1140 H   0  0  0  0  0  0  0  0  0  0  0  0
   56.0134   31.8031   51.5542 H   0  0  0  0  0  0  0  0  0  0  0  0
   57.4090   31.6661   50.6230 H   0  0  0  0  0  0  0  0  0  0  0  0
   57.7128   32.7521   52.0343 H   0  0  0  0  0  0  0  0  0  0  0  0
   58.7995   33.4796   49.8462 H   0  0  0  0  0  0  0  0  0  0  0  0
   59.9169   33.2856   51.2621 H   0  0  0  0  0  0  0  0  0  0  0  0
   59.9765   30.5344   48.0963 H   0  0  0  0  0  0  0  0  0  0  0  0
   58.3966   31.0769   48.7790 H   0  0  0  0  0  0  0  0  0  0  0  0
   57.2948   32.1297   46.9987 H   0  0  0  0  0  0  0  0  0  0  0  0
   57.1826   34.0044   45.3554 H   0  0  0  0  0  0  0  0  0  0  0  0
   61.3071   35.0003   46.2012 H   0  0  0  0  0  0  0  0  0  0  0  0
   61.4275   33.1231   47.8429 H   0  0  0  0  0  0  0  0  0  0  0  0
   60.3093   29.7443   50.0788 H   0  0  0  0  0  0  0  0  0  0  0  0
   61.7270   30.7898   50.5860 H   0  0  0  0  0  0  0  0  0  0  0  0
   60.3717   29.6636   52.4583 H   0  0  0  0  0  0  0  0  0  0  0  0
   60.6952   31.4279   52.5920 H   0  0  0  0  0  0  0  0  0  0  0  0
   55.9733   28.3300   55.2389 H   0  0  0  0  0  0  0  0  0  0  0  0
   55.5318   27.0481   54.0606 H   0  0  0  0  0  0  0  0  0  0  0  0
   57.1915   27.7350   54.0606 H   0  0  0  0  0  0  0  0  0  0  0  0
  1  2  2  0
  2  3  1  0
  3  4  2  3
  4  5  1  0
  5  6  1  0
  6  7  1  0
  7  8  2  0
  7  9  1  0
  9 10  1  0
 10 11  1  0
  3 12  1  0
 12 13  2  0
 13 14  1  0
 14 15  2  0
 14 16  1  0
 16 17  1  0
 17 18  1  0
 18 19  1  0
 19 20  1  0
 20 21  1  0
 21 22  2  0
 22 23  1  0
 23 24  2  0
 24 25  1  0
 24 26  1  0
 26 27  2  0
 19 28  1  0
 28 29  1  0
 13 30  1  0
 30 31  1  0
 30  2  1  0
 10  5  2  0
 29 16  1  0
 27 21  1  0
  1 32  1  0
  1 33  1  0
  4 34  1  0
 11 35  1  0
 12 36  1  0
 17 37  1  0
 17 38  1  0
 18 39  1  0
 18 40  1  0
 20 41  1  0
 20 42  1  0
 22 43  1  0
 23 44  1  0
 26 45  1  0
 27 46  1  0
 28 47  1  0
 28 48  1  0
 29 49  1  0
 29 50  1  0
 31 51  1  0
 31 52  1  0
 31 53  1  0
M  CHG  3   6  -1   9  -1  25  -1
M  END
>  <UniqueID>  (72) 
68

>  <SMILES>  (72) 
C=c1c(=Cc2[n-]c(=O)[n-]c2O)cc(C(=O)N2CCN(Cc3ccc([O-])cc3)CC2)n1C

>  <Energy>  (72) 
138.1257518853896

>  <Genealogy>  (72) 
C=c1c(=Cc2[n-]c(=O)[n-]c2O)cc(C(=O)N2CCN(Cc3ccc([O-])cc3)CC2)n1C (protonated)
C=c1c(=Cc2[n-]c(=O)[n-]c2O)cc(C(=O)N2CCN(Cc3ccc([O-])cc3)CC2)n1C (3D coordinates assigned)
C=c1c(=Cc2[n-]c(=O)[n-]c2O)cc(C(=O)N2CCN(Cc3ccc([O-])cc3)CC2)n1C (nonaromatic ring conformer: 138.1257518853896 kcal/mol)

>  <smiles>  (72) 
C=c1c(=Cc2[nH]c(=O)[nH]c2O)cc(C(=O)N2CCN(Cc3ccc(O)cc3)CC2)n1C

>  <score_type>  (72) 
oracle

>  <origin>  (72) 
adg

>  <m_score__min__energy>  (72) 
-17.18

>  <m_primary>  (72) 
energy

$$$$
72:0
     RDKit          3D

 68 72  0  0  0  0  0  0  0  0999 V2000
   59.7887   35.0427   48.1828 H   0  0  0  0  0  0  0  0  0  0  0  0
   59.3910   34.0180   48.1410 C   0  0  0  0  0  0  0  0  0  0  0  0
   59.5450   33.2780   49.2540 C   0  0  0  0  0  0  0  0  0  0  0  0
   59.6251   33.8151   50.2106 H   0  0  0  0  0  0  0  0  0  0  0  0
   59.6150   31.8090   49.2960 C   0  0  0  0  0  0  0  0  0  0  0  0
   58.5180   31.0830   49.7840 C   0  0  0  0  0  0  0  0  0  0  0  0
   57.6332   31.6157   50.1626 H   0  0  0  0  0  0  0  0  0  0  0  0
   58.5450   29.6860   49.7910 C   0  0  0  0  0  0  0  0  0  0  0  0
   57.6750   29.1211   50.1571 H   0  0  0  0  0  0  0  0  0  0  0  0
   59.6770   29.0060   49.3330 C   0  0  0  0  0  0  0  0  0  0  0  0
   59.6900   27.9061   49.3237 H   0  0  0  0  0  0  0  0  0  0  0  0
   60.7920   29.7200   48.8870 C   0  0  0  0  0  0  0  0  0  0  0  0
   61.6854   29.1809   48.5389 H   0  0  0  0  0  0  0  0  0  0  0  0
   60.7750   31.1240   48.8820 C   0  0  0  0  0  0  0  0  0  0  0  0
   61.9660   31.8490   48.5460 N   0  0  0  0  0  0  0  0  0  0  0  0
   62.0640   32.4450   47.2090 C   0  0  0  0  0  0  0  0  0  0  0  0
   61.5576   31.7930   46.4821 H   0  0  0  0  0  0  0  0  0  0  0  0
   61.5856   33.4354   47.2205 H   0  0  0  0  0  0  0  0  0  0  0  0
   63.5320   32.6030   46.8100 C   0  0  0  0  0  0  0  0  0  0  0  0
   63.9768   31.6082   46.6602 H   0  0  0  0  0  0  0  0  0  0  0  0
   63.5898   33.1847   45.8782 H   0  0  0  0  0  0  0  0  0  0  0  0
   64.2710   33.3110   47.8630 N   0  0  0  0  0  0  0  0  0  0  0  0
   65.2690   33.3870   47.5560 H   0  0  0  0  0  0  0  0  0  0  0  0
   64.2480   32.5290   49.1050 C   0  0  0  0  0  0  0  0  0  0  0  0
   64.6701   31.5315   48.9132 H   0  0  0  0  0  0  0  0  0  0  0  0
   64.8448   33.0516   49.8670 H   0  0  0  0  0  0  0  0  0  0  0  0
   62.8140   32.3800   49.6140 C   0  0  0  0  0  0  0  0  0  0  0  0
   62.7995   31.6896   50.4703 H   0  0  0  0  0  0  0  0  0  0  0  0
   62.4337   33.3636   49.9271 H   0  0  0  0  0  0  0  0  0  0  0  0
   58.7480   33.6180   46.8610 C   0  0  0  0  0  0  0  0  0  0  0  0
   58.8810   32.3190   46.4660 N   0  0  0  0  0  0  0  0  0  0  0  0
   58.4210   31.8640   45.2660 C   0  0  0  0  0  0  0  0  0  0  0  0
   58.6980   30.4760   44.8380 C   0  0  0  0  0  0  0  0  0  0  0  0
   59.5728   30.3192   44.1898 H   0  0  0  0  0  0  0  0  0  0  0  0
   57.9700   29.3720   45.1720 C   0  0  0  0  0  0  0  0  0  0  0  0
   56.5780   29.2690   44.8640 C   0  0  0  0  0  0  0  0  0  0  0  0
   55.8800   30.1870   44.1710 C   0  0  0  0  0  0  0  0  0  0  0  0
   56.3720   31.1100   43.8304 H   0  0  0  0  0  0  0  0  0  0  0  0
   54.8174   30.0145   43.9450 H   0  0  0  0  0  0  0  0  0  0  0  0
   55.8960   28.1620   45.2450 N   0  0  0  0  0  0  0  0  0  0  0  0
   56.4750   27.1330   45.9010 C   0  0  0  0  0  0  0  0  0  0  0  0
   55.7650   26.1390   46.2140 O   0  0  0  0  0  0  0  0  0  0  0  0
   57.8020   27.1800   46.2220 N   0  0  0  0  0  0  0  0  0  0  0  0
   58.4280   26.0640   46.9680 C   0  0  0  0  0  0  0  0  0  0  0  0
   59.1311   26.4780   47.7057 H   0  0  0  0  0  0  0  0  0  0  0  0
   57.6300   25.4914   47.4634 H   0  0  0  0  0  0  0  0  0  0  0  0
   59.1900   25.1140   46.0320 C   0  0  0  0  0  0  0  0  0  0  0  0
   59.8293   25.7095   45.3636 H   0  0  0  0  0  0  0  0  0  0  0  0
   59.7922   24.4332   46.6516 H   0  0  0  0  0  0  0  0  0  0  0  0
   58.2530   24.2820   45.1970 C   0  0  0  0  0  0  0  0  0  0  0  0
   57.5340   24.8690   44.1400 C   0  0  0  0  0  0  0  0  0  0  0  0
   57.6293   25.9473   43.9447 H   0  0  0  0  0  0  0  0  0  0  0  0
   56.6990   24.0870   43.3370 C   0  0  0  0  0  0  0  0  0  0  0  0
   56.1355   24.5516   42.5144 H   0  0  0  0  0  0  0  0  0  0  0  0
   56.5790   22.7150   43.5780 C   0  0  0  0  0  0  0  0  0  0  0  0
   55.9203   22.1012   42.9460 H   0  0  0  0  0  0  0  0  0  0  0  0
   57.2960   22.1230   44.6220 C   0  0  0  0  0  0  0  0  0  0  0  0
   57.2024   21.0432   44.8096 H   0  0  0  0  0  0  0  0  0  0  0  0
   58.1320   22.9020   45.4280 C   0  0  0  0  0  0  0  0  0  0  0  0
   58.6972   22.4320   46.2463 H   0  0  0  0  0  0  0  0  0  0  0  0
   58.5430   28.2890   45.9000 C   0  0  0  0  0  0  0  0  0  0  0  0
   59.7340   28.3660   46.3110 O   0  0  0  0  0  0  0  0  0  0  0  0
   57.8110   32.7540   44.3780 C   0  0  0  0  0  0  0  0  0  0  0  0
   57.4492   32.4031   43.4003 H   0  0  0  0  0  0  0  0  0  0  0  0
   57.6660   34.0900   44.7440 C   0  0  0  0  0  0  0  0  0  0  0  0
   57.1715   34.7961   44.0607 H   0  0  0  0  0  0  0  0  0  0  0  0
   58.1470   34.5340   45.9760 C   0  0  0  0  0  0  0  0  0  0  0  0
   58.0573   35.5943   46.2548 H   0  0  0  0  0  0  0  0  0  0  0  0
  1  2  1  0
  2  3  2  3
  3  4  1  0
  3  5  1  0
  5  6  2  0
  6  7  1  0
  6  8  1  0
  8  9  1  0
  8 10  2  0
 10 11  1  0
 10 12  1  0
 12 13  1  0
 12 14  2  0
 14 15  1  0
 15 16  1  0
 16 17  1  0
 16 18  1  0
 16 19  1  0
 19 20  1  0
 19 21  1  0
 19 22  1  0
 22 23  1  0
 22 24  1  0
 24 25  1  0
 24 26  1  0
 24 27  1  0
 27 28  1  0
 27 29  1  0
  2 30  1  0
 30 31  2  0
 31 32  1  0
 32 33  1  0
 33 34  1  0
 33 35  2  0
 35 36  1  0
 36 37  2  0
 37 38  1  0
 37 39  1  0
 36 40  1  0
 40 41  1  0
 41 42  2  0
 41 43  1  0
 43 44  1  0
 44 45  1  0
 44 46  1  0
 44 47  1  0
 47 48  1  0
 47 49  1  0
 47 50  1  0
 50 51  2  0
 51 52  1  0
 51 53  1  0
 53 54  1  0
 53 55  2  0
 55 56  1  0
 55 57  1  0
 57 58  1  0
 57 59  2  0
 59 60  1  0
 43 61  1  0
 61 62  2  0
 32 63  2  0
 63 64  1  0
 63 65  1  0
 65 66  1  0
 65 67  2  0
 67 68  1  0
 14  5  1  0
 27 15  1  0
 67 30  1  0
 61 35  1  0
 59 50  1  0
M  CHG  1  40  -1
M  END
>  <UniqueID>  (73) 
69

>  <SMILES>  (73) 
C=c1[n-]c(=O)n(CCc2ccccc2)c(=O)/c1=C\c1cccc(C=Cc2ccccc2N2CCNCC2)n1

>  <Energy>  (73) 
106.95429627583835

>  <Genealogy>  (73) 
C=c1[n-]c(=O)n(CCc2ccccc2)c(=O)c1=Cc1cccc(C=Cc2ccccc2N2CCNCC2)n1 (protonated)
C=c1[n-]c(=O)n(CCc2ccccc2)c(=O)/c1=C\c1cccc(C=Cc2ccccc2N2CCNCC2)n1 (cis-trans isomerization)
C=c1[n-]c(=O)n(CCc2ccccc2)c(=O)/c1=C\c1cccc(C=Cc2ccccc2N2CCNCC2)n1 (3D coordinates assigned)
C=c1[n-]c(=O)n(CCc2ccccc2)c(=O)/c1=C\c1cccc(C=Cc2ccccc2N2CCNCC2)n1 (nonaromatic ring conformer: 106.95429627583835 kcal/mol)

>  <smiles>  (73) 
C=c1[nH]c(=O)n(CCc2ccccc2)c(=O)c1=Cc1cccc(C=Cc2ccccc2N2CCNCC2)n1

>  <score_type>  (73) 
oracle

>  <origin>  (73) 
adg

>  <m_score__min__energy>  (73) 
-12.779999999999999

>  <m_primary>  (73) 
energy

$$$$
73:0
     RDKit          3D

 30 31  0  0  0  0  0  0  0  0999 V2000
   54.8790   26.3420   45.9940 N   0  0  0  0  0  0  0  0  0  0  0  0
   56.1590   25.9710   46.5020 C   0  0  0  0  0  0  0  0  0  0  0  0
   56.2640   24.9200   47.1930 O   0  0  0  0  0  0  0  0  0  0  0  0
   57.3520   26.8030   46.2240 C   0  0  0  0  0  0  0  0  0  0  0  0
   58.5810   26.5220   46.8380 C   0  0  0  0  0  0  0  0  0  0  0  0
   59.6940   27.3160   46.5710 C   0  0  0  0  0  0  0  0  0  0  0  0
   59.5780   28.3870   45.6870 C   0  0  0  0  0  0  0  0  0  0  0  0
   58.3860   28.6580   45.0740 N   0  0  0  0  0  0  0  0  0  0  0  0
   58.2760   29.7900   44.1420 C   0  0  0  0  0  0  0  0  0  0  0  0
   57.4290   30.8890   44.7310 C   0  0  0  0  0  0  0  0  0  0  0  0
   56.1790   30.7210   44.7670 O   0  0  0  0  0  0  0  0  0  0  0  0
   58.0070   32.1680   45.2230 C   0  0  0  0  0  0  0  0  0  0  0  0
   58.0490   33.3200   44.4130 C   0  0  0  0  0  0  0  0  0  0  0  0
   58.5890   34.5140   44.9030 C   0  0  0  0  0  0  0  0  0  0  0  0
   59.0990   34.5730   46.2020 C   0  0  0  0  0  0  0  0  0  0  0  0
   59.6350   35.7600   46.6850 O   0  0  0  0  0  0  0  0  0  0  0  0
   59.0720   33.4360   47.0130 C   0  0  0  0  0  0  0  0  0  0  0  0
   58.5310   32.2410   46.5280 C   0  0  0  0  0  0  0  0  0  0  0  0
   57.2810   27.8940   45.3390 C   0  0  0  0  0  0  0  0  0  0  0  0
   54.7770   26.7350   45.0320 H   0  0  0  0  0  0  0  0  0  0  0  0
   58.6664   25.6728   47.5319 H   0  0  0  0  0  0  0  0  0  0  0  0
   60.6579   27.0991   47.0546 H   0  0  0  0  0  0  0  0  0  0  0  0
   60.4534   29.0203   45.4804 H   0  0  0  0  0  0  0  0  0  0  0  0
   59.2817   30.1831   43.9321 H   0  0  0  0  0  0  0  0  0  0  0  0
   57.8009   29.4378   43.2145 H   0  0  0  0  0  0  0  0  0  0  0  0
   57.6541   33.2803   43.3871 H   0  0  0  0  0  0  0  0  0  0  0  0
   58.6120   35.4087   44.2635 H   0  0  0  0  0  0  0  0  0  0  0  0
   59.4769   33.4806   48.0348 H   0  0  0  0  0  0  0  0  0  0  0  0
   58.5147   31.3495   47.1722 H   0  0  0  0  0  0  0  0  0  0  0  0
   56.3245   28.1368   44.8530 H   0  0  0  0  0  0  0  0  0  0  0  0
  1  2  1  0
  2  3  2  0
  2  4  1  0
  4  5  2  0
  5  6  1  0
  6  7  2  0
  7  8  1  0
  8  9  1  0
  9 10  1  0
 10 11  2  0
 10 12  1  0
 12 13  2  0
 13 14  1  0
 14 15  2  0
 15 16  1  0
 15 17  1  0
 17 18  2  0
  8 19  2  0
 19  4  1  0
 18 12  1  0
  1 20  1  0
  5 21  1  0
  6 22  1  0
  7 23  1  0
  9 24  1  0
  9 25  1  0
 13 26  1  0
 14 27  1  0
 17 28  1  0
 18 29  1  0
 19 30  1  0
M  CHG  3   1  -1   8   1  16  -1
M  END
>  <UniqueID>  (74) 
70

>  <SMILES>  (74) 
[NH-]C(=O)c1ccc[n+](CC(=O)c2ccc([O-])cc2)c1

>  <Energy>  (74) 
33.1221021534434

>  <Genealogy>  (74) 
[NH-]C(=O)c1ccc[n+](CC(=O)c2ccc([O-])cc2)c1 (protonated)
[NH-]C(=O)c1ccc[n+](CC(=O)c2ccc([O-])cc2)c1 (3D coordinates assigned)
[NH-]C(=O)c1ccc[n+](CC(=O)c2ccc([O-])cc2)c1 (optimized conformer: 33.1221021534434 kcal/mol)

>  <smiles>  (74) 
NC(=O)c1ccc[n+](CC(=O)c2ccc(O)cc2)c1

>  <score_type>  (74) 
oracle

>  <origin>  (74) 
adg

>  <m_score__min__energy>  (74) 
-9.8599999999999994

>  <m_primary>  (74) 
energy

$$$$
74:0
     RDKit          3D

 57 59  0  0  0  0  0  0  0  0999 V2000
   61.3950   30.5430   47.7420 C   0  0  0  0  0  0  0  0  0  0  0  0
   60.4520   30.4730   46.7990 C   0  0  0  0  0  0  0  0  0  0  0  0
   59.0280   30.1270   47.1320 C   0  0  0  0  0  0  0  0  0  0  0  0
   58.4120   29.3700   46.0400 N   0  0  0  0  0  0  0  0  0  0  0  0
   58.6490   28.0790   45.8570 N   0  0  0  0  0  0  0  0  0  0  0  0
   58.0280   27.7050   44.7240 C   0  0  0  0  0  0  0  0  0  0  0  0
   58.1130   26.3610   44.1460 C   0  0  0  0  0  0  0  0  0  0  0  0
   57.7830   26.1740   42.9450 O   0  0  0  0  0  0  0  0  0  0  0  0
   58.5640   25.2680   44.9530 N   0  0  0  0  0  0  0  0  0  0  0  0
   57.8250   24.7460   46.0960 C   0  0  0  0  0  0  0  0  0  0  0  0
   56.3650   24.5660   45.7320 C   0  0  0  0  0  0  0  0  0  0  0  0
   55.8870   23.3390   45.2080 C   0  0  0  0  0  0  0  0  0  0  0  0
   56.8090   22.1750   44.9480 C   0  0  0  0  0  0  0  0  0  0  0  0
   54.5210   23.2050   44.9100 C   0  0  0  0  0  0  0  0  0  0  0  0
   53.6480   24.2670   45.1520 C   0  0  0  0  0  0  0  0  0  0  0  0
   52.1910   24.1330   44.8400 C   0  0  0  0  0  0  0  0  0  0  0  0
   54.1260   25.4320   45.6590 N   0  0  0  0  0  0  0  0  0  0  0  0
   55.4400   25.6090   45.9540 C   0  0  0  0  0  0  0  0  0  0  0  0
   55.8150   26.7160   46.4250 O   0  0  0  0  0  0  0  0  0  0  0  0
   57.3840   28.7880   44.1580 C   0  0  0  0  0  0  0  0  0  0  0  0
   57.6490   29.8380   45.0200 C   0  0  0  0  0  0  0  0  0  0  0  0
   57.2760   31.2530   44.7760 C   0  0  0  0  0  0  0  0  0  0  0  0
   56.0870   31.5600   44.4970 O   0  0  0  0  0  0  0  0  0  0  0  0
   58.2560   32.2910   44.9090 N   0  0  0  0  0  0  0  0  0  0  0  0
   57.9090   33.6300   45.3830 C   0  0  0  0  0  0  0  0  0  0  0  0
   59.1320   34.5600   45.3770 C   0  0  0  0  0  0  0  0  0  0  0  0
   60.0130   34.3380   46.5830 C   0  0  0  0  0  0  0  0  0  0  0  0
   59.4890   34.4760   47.8810 C   0  0  0  0  0  0  0  0  0  0  0  0
   60.2940   34.2240   48.9960 C   0  0  0  0  0  0  0  0  0  0  0  0
   61.6270   33.8420   48.8250 C   0  0  0  0  0  0  0  0  0  0  0  0
   62.1530   33.6970   47.5380 C   0  0  0  0  0  0  0  0  0  0  0  0
   61.3500   33.9420   46.4200 C   0  0  0  0  0  0  0  0  0  0  0  0
   62.4291   30.7987   47.4678 H   0  0  0  0  0  0  0  0  0  0  0  0
   61.1376   30.3450   48.7930 H   0  0  0  0  0  0  0  0  0  0  0  0
   60.7244   30.6736   45.7523 H   0  0  0  0  0  0  0  0  0  0  0  0
   59.0086   29.5195   48.0488 H   0  0  0  0  0  0  0  0  0  0  0  0
   58.4624   31.0587   47.2805 H   0  0  0  0  0  0  0  0  0  0  0  0
   58.2491   23.7749   46.3911 H   0  0  0  0  0  0  0  0  0  0  0  0
   57.9034   25.4572   46.9315 H   0  0  0  0  0  0  0  0  0  0  0  0
   57.1443   21.7517   45.9063 H   0  0  0  0  0  0  0  0  0  0  0  0
   56.2737   21.4043   44.3740 H   0  0  0  0  0  0  0  0  0  0  0  0
   57.6818   22.5197   44.3740 H   0  0  0  0  0  0  0  0  0  0  0  0
   54.1396   22.2642   44.4864 H   0  0  0  0  0  0  0  0  0  0  0  0
   51.6185   24.0803   45.7778 H   0  0  0  0  0  0  0  0  0  0  0  0
   51.8593   25.0044   44.2564 H   0  0  0  0  0  0  0  0  0  0  0  0
   52.0238   23.2157   44.2564 H   0  0  0  0  0  0  0  0  0  0  0  0
   56.7932   28.8109   43.2304 H   0  0  0  0  0  0  0  0  0  0  0  0
   59.2640   32.0780   44.7420 H   0  0  0  0  0  0  0  0  0  0  0  0
   57.1344   34.0528   44.7263 H   0  0  0  0  0  0  0  0  0  0  0  0
   57.5413   33.5475   46.4164 H   0  0  0  0  0  0  0  0  0  0  0  0
   59.7198   34.3690   44.4670 H   0  0  0  0  0  0  0  0  0  0  0  0
   58.7710   35.5987   45.4046 H   0  0  0  0  0  0  0  0  0  0  0  0
   58.4419   34.7833   48.0194 H   0  0  0  0  0  0  0  0  0  0  0  0
   59.8774   34.3266   50.0089 H   0  0  0  0  0  0  0  0  0  0  0  0
   62.2626   33.6553   49.7032 H   0  0  0  0  0  0  0  0  0  0  0  0
   63.2007   33.3895   47.4046 H   0  0  0  0  0  0  0  0  0  0  0  0
   61.7673   33.8241   45.4091 H   0  0  0  0  0  0  0  0  0  0  0  0
  1  2  2  0
  2  3  1  0
  3  4  1  0
  4  5  1  0
  5  6  2  0
  6  7  1  0
  7  8  2  0
  7  9  1  0
  9 10  1  0
 10 11  1  0
 11 12  2  0
 12 13  1  0
 12 14  1  0
 14 15  2  0
 15 16  1  0
 15 17  1  0
 17 18  1  0
 18 19  2  0
  6 20  1  0
 20 21  2  0
 21 22  1  0
 22 23  2  0
 22 24  1  0
 24 25  1  0
 25 26  1  0
 26 27  1  0
 27 28  2  0
 28 29  1  0
 29 30  2  0
 30 31  1  0
 31 32  2  0
 21  4  1  0
 32 27  1  0
 18 11  1  0
  1 33  1  0
  1 34  1  0
  2 35  1  0
  3 36  1  0
  3 37  1  0
 10 38  1  0
 10 39  1  0
 13 40  1  0
 13 41  1  0
 13 42  1  0
 14 43  1  0
 16 44  1  0
 16 45  1  0
 16 46  1  0
 20 47  1  0
 24 48  1  0
 25 49  1  0
 25 50  1  0
 26 51  1  0
 26 52  1  0
 28 53  1  0
 29 54  1  0
 30 55  1  0
 31 56  1  0
 32 57  1  0
M  CHG  2   9  -1  17  -1
M  END
>  <UniqueID>  (75) 
71

>  <SMILES>  (75) 
C=CCn1nc(C(=O)[N-]Cc2c(C)cc(C)[n-]c2=O)cc1C(=O)NCCc1ccccc1

>  <Energy>  (75) 
77.04857774682975

>  <Genealogy>  (75) 
C=CCn1nc(C(=O)[N-]Cc2c(C)cc(C)[n-]c2=O)cc1C(=O)NCCc1ccccc1 (protonated)
C=CCn1nc(C(=O)[N-]Cc2c(C)cc(C)[n-]c2=O)cc1C(=O)NCCc1ccccc1 (3D coordinates assigned)
C=CCn1nc(C(=O)[N-]Cc2c(C)cc(C)[n-]c2=O)cc1C(=O)NCCc1ccccc1 (optimized conformer: 77.04857774682975 kcal/mol)

>  <smiles>  (75) 
C=CCn1nc(C(=O)NCc2c(C)cc(C)[nH]c2=O)cc1C(=O)NCCc1ccccc1

>  <score_type>  (75) 
oracle

>  <origin>  (75) 
adg

>  <m_score__min__energy>  (75) 
-12.050000000000001

>  <m_primary>  (75) 
energy

$$$$
75:0
     RDKit          3D

 50 53  0  0  0  0  0  0  0  0999 V2000
   55.4460   27.5010   54.4200 N   0  0  0  0  0  0  0  0  0  0  0  0
   56.7440   27.9700   54.0470 C   0  0  0  0  0  0  0  0  0  0  0  0
   57.7630   27.3760   54.4890 O   0  0  0  0  0  0  0  0  0  0  0  0
   56.9060   29.1040   53.1070 C   0  0  0  0  0  0  0  0  0  0  0  0
   58.1340   29.2460   52.4390 C   0  0  0  0  0  0  0  0  0  0  0  0
   58.3020   30.2160   51.4390 C   0  0  0  0  0  0  0  0  0  0  0  0
   59.6060   30.3130   50.6930 C   0  0  0  0  0  0  0  0  0  0  0  0
   59.4130   29.9480   49.2540 C   0  0  0  0  0  0  0  0  0  0  0  0
   59.6850   28.6870   48.8260 N   0  0  0  0  0  0  0  0  0  0  0  0
   59.5330   28.3440   47.5230 C   0  0  0  0  0  0  0  0  0  0  0  0
   59.7880   27.1680   47.1490 O   0  0  0  0  0  0  0  0  0  0  0  0
   59.0920   29.2930   46.5990 C   0  0  0  0  0  0  0  0  0  0  0  0
   58.8260   30.5970   47.0460 C   0  0  0  0  0  0  0  0  0  0  0  0
   58.3630   31.6150   46.1410 N   0  0  0  0  0  0  0  0  0  0  0  0
   57.7070   31.2200   44.8910 C   0  0  0  0  0  0  0  0  0  0  0  0
   57.8480   32.3380   43.8550 C   0  0  0  0  0  0  0  0  0  0  0  0
   57.4050   33.5750   44.3820 O   0  0  0  0  0  0  0  0  0  0  0  0
   58.2410   33.9660   45.4530 C   0  0  0  0  0  0  0  0  0  0  0  0
   58.1210   32.9820   46.6200 C   0  0  0  0  0  0  0  0  0  0  0  0
   58.9870   30.8870   48.3660 N   0  0  0  0  0  0  0  0  0  0  0  0
   57.2260   31.0480   51.0990 C   0  0  0  0  0  0  0  0  0  0  0  0
   56.0130   30.9410   51.7810 C   0  0  0  0  0  0  0  0  0  0  0  0
   55.8490   30.0030   52.8060 C   0  0  0  0  0  0  0  0  0  0  0  0
   54.5990   29.9880   53.5110 N   0  0  0  0  0  0  0  0  0  0  0  0
   53.3360   29.6580   52.9230 C   0  0  0  0  0  0  0  0  0  0  0  0
   52.8650   28.4950   53.0350 O   0  0  0  0  0  0  0  0  0  0  0  0
   52.5790   30.6830   52.1930 C   0  0  0  0  0  0  0  0  0  0  0  0
   52.4060   30.7240   50.8210 C   0  0  0  0  0  0  0  0  0  0  0  0
   51.6150   31.8210   50.5660 C   0  0  0  0  0  0  0  0  0  0  0  0
   51.3530   32.3840   51.7960 C   0  0  0  0  0  0  0  0  0  0  0  0
   50.5730   33.5170   51.9970 O   0  0  0  0  0  0  0  0  0  0  0  0
   51.9330   31.7020   52.7990 N   0  0  0  0  0  0  0  0  0  0  0  0
   54.5850   27.8880   53.9740 H   0  0  0  0  0  0  0  0  0  0  0  0
   55.3470   26.7190   55.1020 H   0  0  0  0  0  0  0  0  0  0  0  0
   58.9749   28.5880   52.7035 H   0  0  0  0  0  0  0  0  0  0  0  0
   59.9847   31.3437   50.7577 H   0  0  0  0  0  0  0  0  0  0  0  0
   60.3276   29.6159   51.1440 H   0  0  0  0  0  0  0  0  0  0  0  0
   58.9556   29.0242   45.5411 H   0  0  0  0  0  0  0  0  0  0  0  0
   58.1776   30.3035   44.5055 H   0  0  0  0  0  0  0  0  0  0  0  0
   56.6397   31.0361   45.0836 H   0  0  0  0  0  0  0  0  0  0  0  0
   58.9051   32.4284   43.5645 H   0  0  0  0  0  0  0  0  0  0  0  0
   57.2290   32.0869   42.9810 H   0  0  0  0  0  0  0  0  0  0  0  0
   59.2847   33.9896   45.1064 H   0  0  0  0  0  0  0  0  0  0  0  0
   57.9309   34.9634   45.7979 H   0  0  0  0  0  0  0  0  0  0  0  0
   58.8635   33.2363   47.3907 H   0  0  0  0  0  0  0  0  0  0  0  0
   57.1093   33.0448   47.0472 H   0  0  0  0  0  0  0  0  0  0  0  0
   57.3381   31.7874   50.2923 H   0  0  0  0  0  0  0  0  0  0  0  0
   55.1764   31.6017   51.5095 H   0  0  0  0  0  0  0  0  0  0  0  0
   52.8180   30.0209   50.0822 H   0  0  0  0  0  0  0  0  0  0  0  0
   51.2650   32.1746   49.5849 H   0  0  0  0  0  0  0  0  0  0  0  0
  1  2  1  0
  2  3  2  0
  2  4  1  0
  4  5  2  0
  5  6  1  0
  6  7  1  0
  7  8  1  0
  8  9  2  0
  9 10  1  0
 10 11  2  0
 10 12  1  0
 12 13  2  0
 13 14  1  0
 14 15  1  0
 15 16  1  0
 16 17  1  0
 17 18  1  0
 18 19  1  0
 13 20  1  0
  6 21  2  0
 21 22  1  0
 22 23  2  0
 23 24  1  0
 24 25  1  0
 25 26  2  0
 25 27  1  0
 27 28  2  0
 28 29  1  0
 29 30  2  0
 30 31  1  0
 30 32  1  0
 23  4  1  0
 32 27  1  0
 20  8  1  0
 19 14  1  0
  1 33  1  0
  1 34  1  0
  5 35  1  0
  7 36  1  0
  7 37  1  0
 12 38  1  0
 15 39  1  0
 15 40  1  0
 16 41  1  0
 16 42  1  0
 18 43  1  0
 18 44  1  0
 19 45  1  0
 19 46  1  0
 21 47  1  0
 22 48  1  0
 28 49  1  0
 29 50  1  0
M  CHG  4  20  -1  24  -1  31  -1  32  -1
M  END
>  <UniqueID>  (76) 
72

>  <SMILES>  (76) 
NC(=O)c1cc(Cc2nc(=O)cc(N3CCOCC3)[n-]2)ccc1[N-]C(=O)c1ccc([O-])[n-]1

>  <Energy>  (76) 
90.88185415706745

>  <Genealogy>  (76) 
NC(=O)c1cc(Cc2nc(=O)cc(N3CCOCC3)[n-]2)ccc1[N-]C(=O)c1ccc([O-])[n-]1 (protonated)
NC(=O)c1cc(Cc2nc(=O)cc(N3CCOCC3)[n-]2)ccc1[N-]C(=O)c1ccc([O-])[n-]1 (3D coordinates assigned)
NC(=O)c1cc(Cc2nc(=O)cc(N3CCOCC3)[n-]2)ccc1[N-]C(=O)c1ccc([O-])[n-]1 (nonaromatic ring conformer: 90.88185415706745 kcal/mol)

>  <smiles>  (76) 
NC(=O)c1cc(Cc2nc(=O)cc(N3CCOCC3)[nH]2)ccc1NC(=O)c1ccc(O)[nH]1

>  <score_type>  (76) 
oracle

>  <origin>  (76) 
adg

>  <m_score__min__energy>  (76) 
-17.190000000000001

>  <m_primary>  (76) 
energy

$$$$
76:0
     RDKit          3D

 58 61  0  0  0  0  0  0  0  0999 V2000
   57.8040   25.9399   43.8816 H   0  0  0  0  0  0  0  0  0  0  0  0
   57.2160   25.1340   44.3450 C   0  0  0  0  0  0  0  0  0  0  0  0
   56.9410   23.9720   43.6200 C   0  0  0  0  0  0  0  0  0  0  0  0
   57.2984   23.8785   42.5839 H   0  0  0  0  0  0  0  0  0  0  0  0
   56.2150   22.9260   44.2000 C   0  0  0  0  0  0  0  0  0  0  0  0
   55.9640   21.7800   43.4300 O   0  0  0  0  0  0  0  0  0  0  0  0
   56.9690   20.8770   42.9840 C   0  0  0  0  0  0  0  0  0  0  0  0
   57.4698   20.4270   43.8539 H   0  0  0  0  0  0  0  0  0  0  0  0
   56.5068   20.0848   42.3767 H   0  0  0  0  0  0  0  0  0  0  0  0
   57.7074   21.4210   42.3767 H   0  0  0  0  0  0  0  0  0  0  0  0
   55.7710   23.0550   45.5290 C   0  0  0  0  0  0  0  0  0  0  0  0
   55.2073   22.2360   45.9996 H   0  0  0  0  0  0  0  0  0  0  0  0
   56.0430   24.2200   46.2550 C   0  0  0  0  0  0  0  0  0  0  0  0
   55.7036   24.3071   47.2977 H   0  0  0  0  0  0  0  0  0  0  0  0
   56.7490   25.2810   45.6570 C   0  0  0  0  0  0  0  0  0  0  0  0
   57.0780   26.4820   46.3750 N   0  0  0  0  0  0  0  0  0  0  0  0
   57.1460   27.6830   45.8840 C   0  0  0  0  0  0  0  0  0  0  0  0
   56.1320   28.3050   45.2440 N   0  0  0  0  0  0  0  0  0  0  0  0
   56.4960   29.5360   44.7920 C   0  0  0  0  0  0  0  0  0  0  0  0
   55.5160   30.4080   44.0720 C   0  0  0  0  0  0  0  0  0  0  0  0
   54.9031   30.9534   44.8047 H   0  0  0  0  0  0  0  0  0  0  0  0
   56.0593   31.1268   43.4410 H   0  0  0  0  0  0  0  0  0  0  0  0
   54.8652   29.7848   43.4410 H   0  0  0  0  0  0  0  0  0  0  0  0
   57.8210   29.8980   45.0870 C   0  0  0  0  0  0  0  0  0  0  0  0
   58.5550   31.1650   44.7140 C   0  0  2  0  0  0  0  0  0  0  0  0
   59.6220   30.9179   44.8166 H   0  0  0  0  0  0  0  0  0  0  0  0
   58.1990   32.2810   45.5810 N   0  0  0  0  0  0  0  0  0  0  0  0
   58.3250   32.2390   47.0180 C   0  0  0  0  0  0  0  0  0  0  0  0
   57.4090   32.7150   47.7430 O   0  0  0  0  0  0  0  0  0  0  0  0
   59.5270   31.6960   47.6720 C   0  0  0  0  0  0  0  0  0  0  0  0
   59.4410   30.5130   48.4090 C   0  0  0  0  0  0  0  0  0  0  0  0
   58.4787   29.9894   48.5078 H   0  0  0  0  0  0  0  0  0  0  0  0
   60.5850   30.0020   49.0180 C   0  0  0  0  0  0  0  0  0  0  0  0
   60.5228   29.0751   49.6070 H   0  0  0  0  0  0  0  0  0  0  0  0
   61.7790   30.6420   48.8890 N   0  0  0  0  0  0  0  0  0  0  0  0
   62.6050   30.2100   49.3570 H   0  0  0  0  0  0  0  0  0  0  0  0
   61.9090   31.7950   48.1600 C   0  0  0  0  0  0  0  0  0  0  0  0
   63.1990   32.4480   48.0380 N   0  0  0  0  0  0  0  0  0  0  0  0
   64.1550   32.4380   49.1530 C   0  0  0  0  0  0  0  0  0  0  0  0
   63.6064   32.4437   50.1064 H   0  0  0  0  0  0  0  0  0  0  0  0
   64.7779   31.5333   49.0938 H   0  0  0  0  0  0  0  0  0  0  0  0
   64.7967   33.3295   49.0938 H   0  0  0  0  0  0  0  0  0  0  0  0
   63.5690   33.1300   46.7920 C   0  0  0  0  0  0  0  0  0  0  0  0
   64.0812   34.0742   47.0290 H   0  0  0  0  0  0  0  0  0  0  0  0
   64.2410   32.4852   46.2066 H   0  0  0  0  0  0  0  0  0  0  0  0
   62.6621   33.3418   46.2066 H   0  0  0  0  0  0  0  0  0  0  0  0
   60.7660   32.3310   47.5330 C   0  0  0  0  0  0  0  0  0  0  0  0
   60.8482   33.2497   46.9336 H   0  0  0  0  0  0  0  0  0  0  0  0
   57.7280   33.4420   44.8430 C   0  0  0  0  0  0  0  0  0  0  0  0
   58.3510   34.3184   45.0748 H   0  0  0  0  0  0  0  0  0  0  0  0
   56.6914   33.6922   45.1129 H   0  0  0  0  0  0  0  0  0  0  0  0
   57.8440   33.0890   43.3650 C   0  0  0  0  0  0  0  0  0  0  0  0
   58.6199   33.7066   42.8891 H   0  0  0  0  0  0  0  0  0  0  0  0
   56.8948   33.2760   42.8415 H   0  0  0  0  0  0  0  0  0  0  0  0
   58.2280   31.6110   43.2860 C   0  0  0  0  0  0  0  0  0  0  0  0
   59.1072   31.4818   42.6377 H   0  0  0  0  0  0  0  0  0  0  0  0
   57.4093   31.0114   42.8616 H   0  0  0  0  0  0  0  0  0  0  0  0
   58.5410   28.6130   45.9070 S   0  0  0  0  0  0  0  0  0  0  0  0
  1  2  1  0
  2  3  2  0
  3  4  1  0
  3  5  1  0
  5  6  1  0
  6  7  1  0
  7  8  1  0
  7  9  1  0
  7 10  1  0
  5 11  2  0
 11 12  1  0
 11 13  1  0
 13 14  1  0
 13 15  2  0
 15 16  1  0
 16 17  2  0
 17 18  1  0
 18 19  1  0
 19 20  1  0
 20 21  1  0
 20 22  1  0
 20 23  1  0
 19 24  2  0
 24 25  1  0
 25 26  1  6
 25 27  1  0
 27 28  1  0
 28 29  2  0
 28 30  1  0
 30 31  2  0
 31 32  1  0
 31 33  1  0
 33 34  1  0
 33 35  2  0
 35 36  1  0
 35 37  1  0
 37 38  1  0
 38 39  1  0
 39 40  1  0
 39 41  1  0
 39 42  1  0
 38 43  1  0
 43 44  1  0
 43 45  1  0
 43 46  1  0
 37 47  2  0
 47 48  1  0
 27 49  1  0
 49 50  1  0
 49 51  1  0
 49 52  1  0
 52 53  1  0
 52 54  1  0
 52 55  1  0
 55 56  1  0
 55 57  1  0
 24 58  1  0
 15  2  1  0
 58 17  1  0
 55 25  1  0
 47 30  1  0
M  CHG  2  18  -1  35   1
M  END
>  <UniqueID>  (77) 
73

>  <SMILES>  (77) 
COc1ccc(/N=c2\[n-]c(C)c([C@H]3CCCN3C(=O)c3cc[nH+]c(N(C)C)c3)s2)cc1

>  <Energy>  (77) 
101.55507169875445

>  <Genealogy>  (77) 
COc1ccc(N=c2[n-]c(C)c(C3CCCN3C(=O)c3cc[nH+]c(N(C)C)c3)s2)cc1 (protonated)
COc1ccc(N=c2[n-]c(C)c([C@H]3CCCN3C(=O)c3cc[nH+]c(N(C)C)c3)s2)cc1 (chirality)
COc1ccc(/N=c2\[n-]c(C)c([C@H]3CCCN3C(=O)c3cc[nH+]c(N(C)C)c3)s2)cc1 (cis-trans isomerization)
COc1ccc(/N=c2\[n-]c(C)c([C@H]3CCCN3C(=O)c3cc[nH+]c(N(C)C)c3)s2)cc1 (3D coordinates assigned)
COc1ccc(/N=c2\[n-]c(C)c([C@H]3CCCN3C(=O)c3cc[nH+]c(N(C)C)c3)s2)cc1 (nonaromatic ring conformer: 101.55507169875445 kcal/mol)

>  <smiles>  (77) 
COc1ccc(N=c2[nH]c(C)c(C3CCCN3C(=O)c3ccnc(N(C)C)c3)s2)cc1

>  <score_type>  (77) 
oracle

>  <origin>  (77) 
adg

>  <m_score__min__energy>  (77) 
-9.2400000000000002

>  <m_primary>  (77) 
energy

$$$$
77:0
     RDKit          3D

 66 70  0  0  0  0  0  0  0  0999 V2000
   60.8588   28.3674   46.5974 H   0  0  0  0  0  0  0  0  0  0  0  0
   60.0580   27.7970   46.1040 C   0  0  0  0  0  0  0  0  0  0  0  0
   60.0928   26.6976   46.0922 H   0  0  0  0  0  0  0  0  0  0  0  0
   59.0360   28.4440   45.5150 C   0  0  0  0  0  0  0  0  0  0  0  0
   57.9550   27.8430   44.8540 C   0  0  0  0  0  0  0  0  0  0  0  0
   57.7360   26.5180   44.6940 C   0  0  0  0  0  0  0  0  0  0  0  0
   58.0148   26.0811   43.7237 H   0  0  0  0  0  0  0  0  0  0  0  0
   57.1570   25.6000   45.7000 C   0  0  0  0  0  0  0  0  0  0  0  0
   57.7560   24.5150   46.2260 N   0  0  0  0  0  0  0  0  0  0  0  0
   56.8330   24.0220   47.0780 C   0  0  0  0  0  0  0  0  0  0  0  0
   57.0290   22.9880   47.7670 O   0  0  0  0  0  0  0  0  0  0  0  0
   55.6820   24.7250   47.1320 N   0  0  0  0  0  0  0  0  0  0  0  0
   55.9040   25.7190   46.2560 C   0  0  0  0  0  0  0  0  0  0  0  0
   54.9790   26.7160   45.9710 O   0  0  0  0  0  0  0  0  0  0  0  0
   57.1430   28.8860   44.4240 C   0  0  0  0  0  0  0  0  0  0  0  0
   56.1996   28.7947   43.8657 H   0  0  0  0  0  0  0  0  0  0  0  0
   57.7460   30.0560   44.8310 C   0  0  0  0  0  0  0  0  0  0  0  0
   57.1660   31.4230   44.6180 C   0  0  0  0  0  0  0  0  0  0  0  0
   56.9667   31.8927   45.5925 H   0  0  0  0  0  0  0  0  0  0  0  0
   57.8798   32.0401   44.0526 H   0  0  0  0  0  0  0  0  0  0  0  0
   56.2262   31.3385   44.0526 H   0  0  0  0  0  0  0  0  0  0  0  0
   58.8970   29.7970   45.4940 N   0  0  0  0  0  0  0  0  0  0  0  0
   59.7450   30.8150   46.1420 C   0  0  0  0  0  0  0  0  0  0  0  0
   60.7746   30.7187   45.7671 H   0  0  0  0  0  0  0  0  0  0  0  0
   59.3436   31.8115   45.9055 H   0  0  0  0  0  0  0  0  0  0  0  0
   59.7450   30.6360   47.6400 C   0  0  0  0  0  0  0  0  0  0  0  0
   60.7440   31.2330   48.4280 C   0  0  0  0  0  0  0  0  0  0  0  0
   61.5488   31.8083   47.9470 H   0  0  0  0  0  0  0  0  0  0  0  0
   60.7210   31.1000   49.8200 C   0  0  0  0  0  0  0  0  0  0  0  0
   61.5166   31.5561   50.4275 H   0  0  0  0  0  0  0  0  0  0  0  0
   59.6870   30.3870   50.4440 C   0  0  0  0  0  0  0  0  0  0  0  0
   59.5900   30.2910   51.9160 C   0  0  0  0  0  0  0  0  0  0  0  0
   60.3990   29.5270   52.5140 O   0  0  0  0  0  0  0  0  0  0  0  0
   58.5830   30.9980   52.6890 N   0  0  0  0  0  0  0  0  0  0  0  0
   59.1140   31.7110   53.2460 H   0  0  0  0  0  0  0  0  0  0  0  0
   57.6560   31.7690   51.8170 C   0  0  0  0  0  0  0  0  0  0  0  0
   57.8481   32.8420   51.9647 H   0  0  0  0  0  0  0  0  0  0  0  0
   57.8449   31.4546   50.7799 H   0  0  0  0  0  0  0  0  0  0  0  0
   56.1830   31.4940   52.1140 C   0  0  0  0  0  0  0  0  0  0  0  0
   55.9217   31.9069   53.0995 H   0  0  0  0  0  0  0  0  0  0  0  0
   55.5534   31.9681   51.3466 H   0  0  0  0  0  0  0  0  0  0  0  0
   55.9600   30.0420   52.1130 N   0  0  0  0  0  0  0  0  0  0  0  0
   54.5130   29.7030   52.0140 C   0  0  0  0  0  0  0  0  0  0  0  0
   54.5142   28.7735   51.4258 H   0  0  0  0  0  0  0  0  0  0  0  0
   53.8640   29.4830   53.3890 C   0  0  0  0  0  0  0  0  0  0  0  0
   53.3379   28.5173   53.4121 H   0  0  0  0  0  0  0  0  0  0  0  0
   54.6180   29.4657   54.1897 H   0  0  0  0  0  0  0  0  0  0  0  0
   52.8790   30.6240   53.5810 C   0  0  0  0  0  0  0  0  0  0  0  0
   52.0058   30.2862   54.1584 H   0  0  0  0  0  0  0  0  0  0  0  0
   53.3246   31.4611   54.1384 H   0  0  0  0  0  0  0  0  0  0  0  0
   52.4630   31.0350   52.1780 C   0  0  0  0  0  0  0  0  0  0  0  0
   51.5997   30.4397   51.8459 H   0  0  0  0  0  0  0  0  0  0  0  0
   52.1644   32.0931   52.1409 H   0  0  0  0  0  0  0  0  0  0  0  0
   53.6650   30.7650   51.2860 C   0  0  0  0  0  0  0  0  0  0  0  0
   53.3358   30.3847   50.3077 H   0  0  0  0  0  0  0  0  0  0  0  0
   54.2430   31.6831   51.1046 H   0  0  0  0  0  0  0  0  0  0  0  0
   56.7020   29.3530   53.2000 C   0  0  0  0  0  0  0  0  0  0  0  0
   56.0137   29.1921   54.0428 H   0  0  0  0  0  0  0  0  0  0  0  0
   57.0813   28.4086   52.7825 H   0  0  0  0  0  0  0  0  0  0  0  0
   57.9270   30.1450   53.7140 C   0  0  0  0  0  0  0  0  0  0  0  0
   57.5960   30.7925   54.5393 H   0  0  0  0  0  0  0  0  0  0  0  0
   58.6736   29.3996   54.0254 H   0  0  0  0  0  0  0  0  0  0  0  0
   58.7250   29.7410   49.6540 C   0  0  0  0  0  0  0  0  0  0  0  0
   57.9415   29.1357   50.1333 H   0  0  0  0  0  0  0  0  0  0  0  0
   58.7550   29.8610   48.2630 C   0  0  0  0  0  0  0  0  0  0  0  0
   57.9988   29.3454   47.6527 H   0  0  0  0  0  0  0  0  0  0  0  0
  1  2  1  0
  2  3  1  0
  2  4  2  0
  4  5  1  0
  5  6  2  0
  6  7  1  0
  6  8  1  0
  8  9  1  0
  9 10  1  0
 10 11  2  0
 10 12  1  0
 12 13  1  0
 13 14  1  0
  5 15  1  0
 15 16  1  0
 15 17  2  0
 17 18  1  0
 18 19  1  0
 18 20  1  0
 18 21  1  0
 17 22  1  0
 22 23  1  0
 23 24  1  0
 23 25  1  0
 23 26  1  0
 26 27  2  0
 27 28  1  0
 27 29  1  0
 29 30  1  0
 29 31  2  0
 31 32  1  0
 32 33  2  0
 32 34  1  0
 34 35  1  0
 34 36  1  0
 36 37  1  0
 36 38  1  0
 36 39  1  0
 39 40  1  0
 39 41  1  0
 39 42  1  0
 42 43  1  0
 43 44  1  0
 43 45  1  0
 45 46  1  0
 45 47  1  0
 45 48  1  0
 48 49  1  0
 48 50  1  0
 48 51  1  0
 51 52  1  0
 51 53  1  0
 51 54  1  0
 54 55  1  0
 54 56  1  0
 42 57  1  0
 57 58  1  0
 57 59  1  0
 57 60  1  0
 60 61  1  0
 60 62  1  0
 31 63  1  0
 63 64  1  0
 63 65  2  0
 65 66  1  0
 22  4  1  0
 65 26  1  0
 13  8  2  0
 60 34  1  0
 54 43  1  0
M  CHG  4   9  -1  12  -1  14  -1  34   1
M  END
>  <UniqueID>  (78) 
74

>  <SMILES>  (78) 
C=c1/c(=C/c2[n-]c(=O)[n-]c2[O-])cc(C)n1Cc1ccc(C(=O)[NH+]2CCN(C3CCCC3)CC2)cc1

>  <Energy>  (78) 
158.15621915936808

>  <Genealogy>  (78) 
C=c1c(=Cc2[n-]c(=O)[n-]c2[O-])cc(C)n1Cc1ccc(C(=O)[NH+]2CCN(C3CCCC3)CC2)cc1 (protonated)
C=c1/c(=C/c2[n-]c(=O)[n-]c2[O-])cc(C)n1Cc1ccc(C(=O)[NH+]2CCN(C3CCCC3)CC2)cc1 (cis-trans isomerization)
C=c1/c(=C/c2[n-]c(=O)[n-]c2[O-])cc(C)n1Cc1ccc(C(=O)[NH+]2CCN(C3CCCC3)CC2)cc1 (3D coordinates assigned)
C=c1/c(=C/c2[n-]c(=O)[n-]c2[O-])cc(C)n1Cc1ccc(C(=O)[NH+]2CCN(C3CCCC3)CC2)cc1 (nonaromatic ring conformer: 158.15621915936808 kcal/mol)

>  <smiles>  (78) 
C=c1c(=Cc2[nH]c(=O)[nH]c2O)cc(C)n1Cc1ccc(C(=O)N2CCN(C3CCCC3)CC2)cc1

>  <score_type>  (78) 
oracle

>  <origin>  (78) 
adg

>  <m_score__min__energy>  (78) 
-16.68

>  <m_primary>  (78) 
energy

$$$$
78:0
     RDKit          3D

 41 43  0  0  0  0  0  0  0  0999 V2000
   54.1930   26.6520   46.7500 H   0  0  0  0  0  0  0  0  0  0  0  0
   54.7920   26.3560   45.9890 O   0  0  0  0  0  0  0  0  0  0  0  0
   55.9650   25.6470   46.2350 C   0  0  0  0  0  0  0  0  0  0  0  0
   55.9140   24.4800   46.9310 N   0  0  0  0  0  0  0  0  0  0  0  0
   57.0400   23.7620   47.1780 C   0  0  0  0  0  0  0  0  0  0  0  0
   56.9690   22.6860   47.8270 O   0  0  0  0  0  0  0  0  0  0  0  0
   58.2410   24.2010   46.7210 N   0  0  0  0  0  0  0  0  0  0  0  0
   58.3440   25.3600   46.0220 C   0  0  0  0  0  0  0  0  0  0  0  0
   59.4740   25.7370   45.6070 O   0  0  0  0  0  0  0  0  0  0  0  0
   57.1980   26.1290   45.7730 C   0  0  0  0  0  0  0  0  0  0  0  0
   57.2740   27.3720   44.9860 C   0  0  0  0  0  0  0  0  0  0  0  0
   57.0389   27.3154   43.9129 H   0  0  0  0  0  0  0  0  0  0  0  0
   57.6130   28.5760   45.4940 C   0  0  0  0  0  0  0  0  0  0  0  0
   57.5280   29.8410   44.9010 C   0  0  0  0  0  0  0  0  0  0  0  0
   57.0200   30.2020   43.5390 C   0  0  0  0  0  0  0  0  0  0  0  0
   56.1269   30.8367   43.6371 H   0  0  0  0  0  0  0  0  0  0  0  0
   57.8003   30.7493   42.9898 H   0  0  0  0  0  0  0  0  0  0  0  0
   56.7597   29.2851   42.9898 H   0  0  0  0  0  0  0  0  0  0  0  0
   57.9640   30.7750   45.7690 N   0  0  0  0  0  0  0  0  0  0  0  0
   58.3280   30.1680   46.8870 N   0  0  0  0  0  0  0  0  0  0  0  0
   58.8040   30.9060   48.0610 C   0  0  0  0  0  0  0  0  0  0  0  0
   58.0237   31.6087   48.3886 H   0  0  0  0  0  0  0  0  0  0  0  0
   59.0295   30.1906   48.8656 H   0  0  0  0  0  0  0  0  0  0  0  0
   60.0540   31.6740   47.7250 C   0  0  0  0  0  0  0  0  0  0  0  0
   59.9670   33.0130   47.3110 C   0  0  0  0  0  0  0  0  0  0  0  0
   58.9824   33.4962   47.2264 H   0  0  0  0  0  0  0  0  0  0  0  0
   61.1230   33.7350   47.0060 C   0  0  0  0  0  0  0  0  0  0  0  0
   61.0440   34.7806   46.6735 H   0  0  0  0  0  0  0  0  0  0  0  0
   62.3850   33.1320   47.1220 C   0  0  0  0  0  0  0  0  0  0  0  0
   63.6240   33.8970   46.7580 C   0  0  0  0  0  0  0  0  0  0  0  0
   64.1407   34.2160   47.6752 H   0  0  0  0  0  0  0  0  0  0  0  0
   64.2915   33.2536   46.1660 H   0  0  0  0  0  0  0  0  0  0  0  0
   63.3478   34.7820   46.1660 H   0  0  0  0  0  0  0  0  0  0  0  0
   62.4730   31.7890   47.5140 C   0  0  0  0  0  0  0  0  0  0  0  0
   63.4571   31.3023   47.5828 H   0  0  0  0  0  0  0  0  0  0  0  0
   61.3160   31.0650   47.8180 C   0  0  0  0  0  0  0  0  0  0  0  0
   61.3947   30.0135   48.1315 H   0  0  0  0  0  0  0  0  0  0  0  0
   58.1240   28.8340   46.7680 C   0  0  0  0  0  0  0  0  0  0  0  0
   58.3790   27.9370   47.7320 C   0  0  0  0  0  0  0  0  0  0  0  0
   58.7835   28.2693   48.6994 H   0  0  0  0  0  0  0  0  0  0  0  0
   58.1837   26.8690   47.5552 H   0  0  0  0  0  0  0  0  0  0  0  0
  1  2  1  0
  2  3  1  0
  3  4  1  0
  4  5  1  0
  5  6  2  0
  5  7  1  0
  7  8  1  0
  8  9  2  0
  8 10  1  0
 10 11  1  0
 11 12  1  0
 11 13  2  0
 13 14  1  0
 14 15  1  0
 15 16  1  0
 15 17  1  0
 15 18  1  0
 14 19  2  0
 19 20  1  0
 20 21  1  0
 21 22  1  0
 21 23  1  0
 21 24  1  0
 24 25  2  0
 25 26  1  0
 25 27  1  0
 27 28  1  0
 27 29  2  0
 29 30  1  0
 30 31  1  0
 30 32  1  0
 30 33  1  0
 29 34  1  0
 34 35  1  0
 34 36  2  0
 36 37  1  0
 20 38  1  0
 38 39  2  0
 39 40  1  0
 39 41  1  0
 10  3  2  0
 38 13  1  0
 36 24  1  0
M  CHG  2   4  -1   7  -1
M  END
>  <UniqueID>  (79) 
75

>  <SMILES>  (79) 
C=c1/c(=C/c2c(O)[n-]c(=O)[n-]c2=O)c(C)nn1Cc1ccc(C)cc1

>  <Energy>  (79) 
85.7203220699916

>  <Genealogy>  (79) 
C=c1c(=Cc2c(O)[n-]c(=O)[n-]c2=O)c(C)nn1Cc1ccc(C)cc1 (protonated)
C=c1/c(=C/c2c(O)[n-]c(=O)[n-]c2=O)c(C)nn1Cc1ccc(C)cc1 (cis-trans isomerization)
C=c1/c(=C/c2c(O)[n-]c(=O)[n-]c2=O)c(C)nn1Cc1ccc(C)cc1 (3D coordinates assigned)
C=c1/c(=C/c2c(O)[n-]c(=O)[n-]c2=O)c(C)nn1Cc1ccc(C)cc1 (optimized conformer: 85.7203220699916 kcal/mol)

>  <smiles>  (79) 
C=c1c(=Cc2c(O)[nH]c(=O)[nH]c2=O)c(C)nn1Cc1ccc(C)cc1

>  <score_type>  (79) 
oracle

>  <origin>  (79) 
adg

>  <m_score__min__energy>  (79) 
-13.06

>  <m_primary>  (79) 
energy

$$$$
79:0
     RDKit          3D

 45 47  0  0  0  0  0  0  0  0999 V2000
   56.7471   21.4768   45.7649 H   0  0  0  0  0  0  0  0  0  0  0  0
   56.3190   22.4890   45.8110 C   0  0  0  0  0  0  0  0  0  0  0  0
   57.0390   23.5080   46.3520 N   0  0  0  0  0  0  0  0  0  0  0  0
   56.5470   24.7780   46.4370 C   0  0  0  0  0  0  0  0  0  0  0  0
   57.2610   25.7450   46.9390 N   0  0  0  0  0  0  0  0  0  0  0  0
   57.5670   26.9980   46.3100 C   0  0  0  0  0  0  0  0  0  0  0  0
   58.5220   27.6840   46.7600 O   0  0  0  0  0  0  0  0  0  0  0  0
   56.8500   27.4440   45.1470 N   0  0  0  0  0  0  0  0  0  0  0  0
   56.3210   26.7390   44.5850 H   0  0  0  0  0  0  0  0  0  0  0  0
   57.0400   28.7820   44.5830 C   0  0  0  0  0  0  0  0  0  0  0  0
   57.9722   29.2100   44.9802 H   0  0  0  0  0  0  0  0  0  0  0  0
   57.1650   28.7010   43.0470 C   0  0  0  0  0  0  0  0  0  0  0  0
   56.6551   27.7899   42.7007 H   0  0  0  0  0  0  0  0  0  0  0  0
   58.2375   28.6871   42.8029 H   0  0  0  0  0  0  0  0  0  0  0  0
   56.5420   29.9170   42.3300 C   0  0  0  0  0  0  0  0  0  0  0  0
   55.4678   29.7284   42.1871 H   0  0  0  0  0  0  0  0  0  0  0  0
   57.0657   30.0400   41.3705 H   0  0  0  0  0  0  0  0  0  0  0  0
   56.7040   31.1760   43.0910 N   0  0  0  0  0  0  0  0  0  0  0  0
   58.1020   31.6620   43.1210 C   0  0  0  0  0  0  0  0  0  0  0  0
   58.2526   32.3752   42.2972 H   0  0  0  0  0  0  0  0  0  0  0  0
   58.7753   30.7990   43.0117 H   0  0  0  0  0  0  0  0  0  0  0  0
   58.4080   32.3470   44.4280 C   0  0  0  0  0  0  0  0  0  0  0  0
   58.8650   31.6080   45.5330 C   0  0  0  0  0  0  0  0  0  0  0  0
   58.9870   30.5179   45.4509 H   0  0  0  0  0  0  0  0  0  0  0  0
   59.1650   32.2540   46.7360 C   0  0  0  0  0  0  0  0  0  0  0  0
   59.5207   31.6704   47.5979 H   0  0  0  0  0  0  0  0  0  0  0  0
   59.0140   33.6420   46.8470 C   0  0  0  0  0  0  0  0  0  0  0  0
   59.3240   34.3050   48.0850 C   0  0  0  0  0  0  0  0  0  0  0  0
   59.5730   34.8390   49.0820 N   0  0  0  0  0  0  0  0  0  0  0  0
   58.5630   34.3820   45.7470 C   0  0  0  0  0  0  0  0  0  0  0  0
   58.4453   35.4725   45.8304 H   0  0  0  0  0  0  0  0  0  0  0  0
   58.2620   33.7380   44.5430 C   0  0  0  0  0  0  0  0  0  0  0  0
   57.9091   34.3244   43.6819 H   0  0  0  0  0  0  0  0  0  0  0  0
   56.0840   31.1240   44.4430 C   0  0  0  0  0  0  0  0  0  0  0  0
   55.1024   31.6177   44.3913 H   0  0  0  0  0  0  0  0  0  0  0  0
   56.7801   31.6289   45.1290 H   0  0  0  0  0  0  0  0  0  0  0  0
   55.8790   29.6960   44.9920 C   0  0  0  0  0  0  0  0  0  0  0  0
   54.9399   29.2871   44.5909 H   0  0  0  0  0  0  0  0  0  0  0  0
   55.8386   29.7436   46.0902 H   0  0  0  0  0  0  0  0  0  0  0  0
   55.2650   25.0530   45.9360 C   0  0  0  0  0  0  0  0  0  0  0  0
   54.7400   26.3400   45.9930 O   0  0  0  0  0  0  0  0  0  0  0  0
   54.5100   24.0180   45.3770 C   0  0  0  0  0  0  0  0  0  0  0  0
   53.5016   24.2209   44.9870 H   0  0  0  0  0  0  0  0  0  0  0  0
   55.0360   22.7280   45.3140 C   0  0  0  0  0  0  0  0  0  0  0  0
   54.4469   21.9079   44.8777 H   0  0  0  0  0  0  0  0  0  0  0  0
  1  2  1  0
  2  3  1  0
  3  4  1  0
  4  5  2  0
  5  6  1  0
  6  7  2  0
  6  8  1  0
  8  9  1  0
  8 10  1  0
 10 11  1  0
 10 12  1  0
 12 13  1  0
 12 14  1  0
 12 15  1  0
 15 16  1  0
 15 17  1  0
 15 18  1  0
 18 19  1  0
 19 20  1  0
 19 21  1  0
 19 22  1  0
 22 23  2  0
 23 24  1  0
 23 25  1  0
 25 26  1  0
 25 27  2  0
 27 28  1  0
 28 29  3  0
 27 30  1  0
 30 31  1  0
 30 32  2  0
 32 33  1  0
 18 34  1  0
 34 35  1  0
 34 36  1  0
 34 37  1  0
 37 38  1  0
 37 39  1  0
  4 40  1  0
 40 41  1  0
 40 42  2  0
 42 43  1  0
 42 44  1  0
 44 45  1  0
 44  2  2  0
 37 10  1  0
 32 22  1  0
M  CHG  2   3  -1  41  -1
M  END
>  <UniqueID>  (80) 
76

>  <SMILES>  (80) 
N#Cc1ccc(CN2CCC(NC(=O)/N=c3\[n-]cccc3[O-])CC2)cc1

>  <Energy>  (80) 
59.29451708268631

>  <Genealogy>  (80) 
N#Cc1ccc(CN2CCC(NC(=O)N=c3[n-]cccc3[O-])CC2)cc1 (protonated)
N#Cc1ccc(CN2CCC(NC(=O)/N=c3\[n-]cccc3[O-])CC2)cc1 (cis-trans isomerization)
N#Cc1ccc(CN2CCC(NC(=O)/N=c3\[n-]cccc3[O-])CC2)cc1 (3D coordinates assigned)
N#Cc1ccc(CN2CCC(NC(=O)/N=c3\[n-]cccc3[O-])CC2)cc1 (nonaromatic ring conformer: 59.29451708268631 kcal/mol)

>  <smiles>  (80) 
N#Cc1ccc(CN2CCC(NC(=O)N=c3[nH]cccc3O)CC2)cc1

>  <score_type>  (80) 
oracle

>  <origin>  (80) 
adg

>  <m_score__min__energy>  (80) 
-13.609999999999999

>  <m_primary>  (80) 
energy

$$$$
80:0
     RDKit          3D

 52 54  0  0  0  0  0  0  0  0999 V2000
   54.2070   30.8140   51.9330 C   0  0  0  0  0  0  0  0  0  0  0  0
   55.5480   31.2300   52.3340 N   0  0  0  0  0  0  0  0  0  0  0  0
   56.7510   30.8570   51.6450 C   0  0  0  0  0  0  0  0  0  0  0  0
   57.2580   29.7250   51.8720 O   0  0  0  0  0  0  0  0  0  0  0  0
   57.3860   31.7560   50.7230 N   0  0  0  0  0  0  0  0  0  0  0  0
   58.6500   31.4340   50.0610 C   0  0  0  0  0  0  0  0  0  0  0  0
   59.1100   32.5720   49.1910 C   0  0  0  0  0  0  0  0  0  0  0  0
   60.3260   33.2190   49.4590 C   0  0  0  0  0  0  0  0  0  0  0  0
   60.7990   34.2190   48.6050 C   0  0  0  0  0  0  0  0  0  0  0  0
   60.0800   34.5570   47.4530 C   0  0  0  0  0  0  0  0  0  0  0  0
   58.8840   33.8900   47.1470 C   0  0  0  0  0  0  0  0  0  0  0  0
   58.1550   34.1720   45.8590 C   0  0  0  0  0  0  0  0  0  0  0  0
   57.1470   33.1410   45.6250 N   0  0  0  0  0  0  0  0  0  0  0  0
   57.2830   32.1260   44.6230 C   0  0  0  0  0  0  0  0  0  0  0  0
   58.0310   32.3140   43.6250 O   0  0  0  0  0  0  0  0  0  0  0  0
   56.6380   30.8650   44.8260 N   0  0  0  0  0  0  0  0  0  0  0  0
   57.2130   29.7440   45.5120 C   0  0  0  0  0  0  0  0  0  0  0  0
   58.2640   29.9040   46.4290 C   0  0  0  0  0  0  0  0  0  0  0  0
   58.7950   28.7900   47.0850 C   0  0  0  0  0  0  0  0  0  0  0  0
   58.2780   27.5140   46.8340 C   0  0  0  0  0  0  0  0  0  0  0  0
   57.2340   27.3350   45.9070 C   0  0  0  0  0  0  0  0  0  0  0  0
   56.6350   25.9980   45.6520 C   0  0  0  0  0  0  0  0  0  0  0  0
   57.3800   24.9390   45.1110 C   0  0  0  0  0  0  0  0  0  0  0  0
   56.7580   23.7030   44.8670 C   0  0  0  0  0  0  0  0  0  0  0  0
   57.5450   22.5440   44.3170 C   0  0  0  0  0  0  0  0  0  0  0  0
   55.4030   23.5390   45.1820 C   0  0  0  0  0  0  0  0  0  0  0  0
   54.6900   24.6120   45.7230 C   0  0  0  0  0  0  0  0  0  0  0  0
   53.4650   24.4880   45.9960 O   0  0  0  0  0  0  0  0  0  0  0  0
   55.3170   25.7980   45.9390 N   0  0  0  0  0  0  0  0  0  0  0  0
   56.7160   28.4640   45.2450 C   0  0  0  0  0  0  0  0  0  0  0  0
   58.3940   32.9120   48.0310 C   0  0  0  0  0  0  0  0  0  0  0  0
   53.5982   30.6252   52.8295 H   0  0  0  0  0  0  0  0  0  0  0  0
   53.7402   31.6095   51.3337 H   0  0  0  0  0  0  0  0  0  0  0  0
   54.2724   29.8939   51.3337 H   0  0  0  0  0  0  0  0  0  0  0  0
   56.9830   32.7100   50.5570 H   0  0  0  0  0  0  0  0  0  0  0  0
   59.4153   31.2338   50.8254 H   0  0  0  0  0  0  0  0  0  0  0  0
   58.4969   30.5485   49.4266 H   0  0  0  0  0  0  0  0  0  0  0  0
   60.9107   32.9372   50.3471 H   0  0  0  0  0  0  0  0  0  0  0  0
   61.7383   34.7415   48.8388 H   0  0  0  0  0  0  0  0  0  0  0  0
   60.4534   35.3477   46.7856 H   0  0  0  0  0  0  0  0  0  0  0  0
   57.6643   35.1543   45.9247 H   0  0  0  0  0  0  0  0  0  0  0  0
   58.8745   34.1720   45.0269 H   0  0  0  0  0  0  0  0  0  0  0  0
   58.6696   30.9063   46.6312 H   0  0  0  0  0  0  0  0  0  0  0  0
   59.6211   28.9165   47.8002 H   0  0  0  0  0  0  0  0  0  0  0  0
   58.6908   26.6439   47.3654 H   0  0  0  0  0  0  0  0  0  0  0  0
   58.4465   25.0760   44.8789 H   0  0  0  0  0  0  0  0  0  0  0  0
   57.9496   21.9481   45.1484 H   0  0  0  0  0  0  0  0  0  0  0  0
   56.8872   21.9139   43.7003 H   0  0  0  0  0  0  0  0  0  0  0  0
   58.3733   22.9230   43.7003 H   0  0  0  0  0  0  0  0  0  0  0  0
   54.9048   22.5744   45.0051 H   0  0  0  0  0  0  0  0  0  0  0  0
   55.9094   28.3380   44.5077 H   0  0  0  0  0  0  0  0  0  0  0  0
   57.4409   32.4084   47.8120 H   0  0  0  0  0  0  0  0  0  0  0  0
  1  2  1  0
  2  3  1  0
  3  4  2  0
  3  5  1  0
  5  6  1  0
  6  7  1  0
  7  8  2  0
  8  9  1  0
  9 10  2  0
 10 11  1  0
 11 12  1  0
 12 13  1  0
 13 14  1  0
 14 15  2  0
 14 16  1  0
 16 17  1  0
 17 18  2  0
 18 19  1  0
 19 20  2  0
 20 21  1  0
 21 22  1  0
 22 23  2  0
 23 24  1  0
 24 25  1  0
 24 26  2  0
 26 27  1  0
 27 28  2  0
 27 29  1  0
 21 30  2  0
 11 31  2  0
 31  7  1  0
 30 17  1  0
 29 22  1  0
  1 32  1  0
  1 33  1  0
  1 34  1  0
  5 35  1  0
  6 36  1  0
  6 37  1  0
  8 38  1  0
  9 39  1  0
 10 40  1  0
 12 41  1  0
 12 42  1  0
 18 43  1  0
 19 44  1  0
 20 45  1  0
 23 46  1  0
 25 47  1  0
 25 48  1  0
 25 49  1  0
 26 50  1  0
 30 51  1  0
 31 52  1  0
M  CHG  4   2  -1  13  -1  16  -1  29  -1
M  END
>  <UniqueID>  (81) 
77

>  <SMILES>  (81) 
C[N-]C(=O)NCc1cccc(C[N-]C(=O)[N-]c2cccc(-c3cc(C)cc(=O)[n-]3)c2)c1

>  <Energy>  (81) 
56.50208116250963

>  <Genealogy>  (81) 
C[N-]C(=O)NCc1cccc(C[N-]C(=O)[N-]c2cccc(-c3cc(C)cc(=O)[n-]3)c2)c1 (protonated)
C[N-]C(=O)NCc1cccc(C[N-]C(=O)[N-]c2cccc(-c3cc(C)cc(=O)[n-]3)c2)c1 (3D coordinates assigned)
C[N-]C(=O)NCc1cccc(C[N-]C(=O)[N-]c2cccc(-c3cc(C)cc(=O)[n-]3)c2)c1 (optimized conformer: 56.50208116250963 kcal/mol)

>  <smiles>  (81) 
CNC(=O)NCc1cccc(CNC(=O)Nc2cccc(-c3cc(C)cc(=O)[nH]3)c2)c1

>  <score_type>  (81) 
oracle

>  <origin>  (81) 
adg

>  <m_score__min__energy>  (81) 
-15.44

>  <m_primary>  (81) 
energy

$$$$
81:0
     RDKit          3D

 62 66  0  0  0  0  0  0  0  0999 V2000
   58.4382   26.6467   41.7373 H   0  0  0  0  0  0  0  0  0  0  0  0
   58.1430   26.7110   42.7950 C   0  0  0  0  0  0  0  0  0  0  0  0
   57.7790   25.5890   43.4650 N   0  0  0  0  0  0  0  0  0  0  0  0
   57.3950   25.6180   44.7710 C   0  0  0  0  0  0  0  0  0  0  0  0
   57.0350   24.3940   45.4360 N   0  0  0  0  0  0  0  0  0  0  0  0
   55.8410   24.3070   46.2860 C   0  0  0  0  0  0  0  0  0  0  0  0
   55.5184   25.3223   46.5600 H   0  0  0  0  0  0  0  0  0  0  0  0
   55.0466   23.7911   45.7268 H   0  0  0  0  0  0  0  0  0  0  0  0
   56.1410   23.5080   47.5700 C   0  0  0  0  0  0  0  0  0  0  0  0
   56.4255   24.2178   48.3607 H   0  0  0  0  0  0  0  0  0  0  0  0
   55.2285   22.9447   47.8151 H   0  0  0  0  0  0  0  0  0  0  0  0
   57.2280   22.5180   47.4210 N   0  0  0  0  0  0  0  0  0  0  0  0
   58.1340   22.9690   47.6940 H   0  0  0  0  0  0  0  0  0  0  0  0
   57.3530   22.0190   46.0460 C   0  0  0  0  0  0  0  0  0  0  0  0
   58.1240   21.2351   46.0138 H   0  0  0  0  0  0  0  0  0  0  0  0
   56.3834   21.6097   45.7260 H   0  0  0  0  0  0  0  0  0  0  0  0
   57.7500   23.1580   45.0960 C   0  0  0  0  0  0  0  0  0  0  0  0
   58.8328   23.3340   45.1768 H   0  0  0  0  0  0  0  0  0  0  0  0
   57.4845   22.8686   44.0685 H   0  0  0  0  0  0  0  0  0  0  0  0
   57.3990   26.8410   45.4620 C   0  0  0  0  0  0  0  0  0  0  0  0
   57.1142   26.8738   46.5240 H   0  0  0  0  0  0  0  0  0  0  0  0
   57.7670   28.0230   44.7960 C   0  0  0  0  0  0  0  0  0  0  0  0
   57.7940   29.3150   45.5230 C   0  0  0  0  0  0  0  0  0  0  0  0
   58.0850   29.3330   46.7510 O   0  0  0  0  0  0  0  0  0  0  0  0
   57.4550   30.5430   44.8570 N   0  0  0  0  0  0  0  0  0  0  0  0
   56.7750   30.5030   44.0630 H   0  0  0  0  0  0  0  0  0  0  0  0
   57.8980   31.8380   45.3000 C   0  0  0  0  0  0  0  0  0  0  0  0
   57.1120   32.9640   45.0250 C   0  0  0  0  0  0  0  0  0  0  0  0
   56.1620   32.8483   44.4828 H   0  0  0  0  0  0  0  0  0  0  0  0
   57.5270   34.2330   45.4350 C   0  0  0  0  0  0  0  0  0  0  0  0
   56.8948   35.1097   45.2309 H   0  0  0  0  0  0  0  0  0  0  0  0
   58.7420   34.3910   46.1030 C   0  0  0  0  0  0  0  0  0  0  0  0
   59.0567   35.3925   46.4317 H   0  0  0  0  0  0  0  0  0  0  0  0
   59.5680   33.2820   46.3600 C   0  0  0  0  0  0  0  0  0  0  0  0
   60.8640   33.4740   47.0600 C   0  0  0  0  0  0  0  0  0  0  0  0
   60.8660   33.6980   48.4040 N   0  0  0  0  0  0  0  0  0  0  0  0
   62.0130   33.8840   49.1170 C   0  0  0  0  0  0  0  0  0  0  0  0
   61.9750   34.0940   50.4000 N   0  0  0  0  0  0  0  0  0  0  0  0
   61.2480   33.2650   51.3610 C   0  0  0  0  0  0  0  0  0  0  0  0
   61.9242   32.9873   52.1830 H   0  0  0  0  0  0  0  0  0  0  0  0
   60.3931   33.8387   51.7484 H   0  0  0  0  0  0  0  0  0  0  0  0
   60.7330   32.0140   50.7000 C   0  0  0  0  0  0  0  0  0  0  0  0
   59.3620   31.8750   50.4270 C   0  0  0  0  0  0  0  0  0  0  0  0
   58.6671   32.6871   50.6871 H   0  0  0  0  0  0  0  0  0  0  0  0
   58.8760   30.7090   49.8260 C   0  0  0  0  0  0  0  0  0  0  0  0
   57.8028   30.6105   49.6058 H   0  0  0  0  0  0  0  0  0  0  0  0
   59.7530   29.6690   49.5050 C   0  0  0  0  0  0  0  0  0  0  0  0
   59.2790   28.5380   48.9280 F   0  0  0  0  0  0  0  0  0  0  0  0
   61.1180   29.7950   49.7840 C   0  0  0  0  0  0  0  0  0  0  0  0
   61.8070   28.9738   49.5372 H   0  0  0  0  0  0  0  0  0  0  0  0
   61.6080   30.9630   50.3760 C   0  0  0  0  0  0  0  0  0  0  0  0
   62.6828   31.0597   50.5891 H   0  0  0  0  0  0  0  0  0  0  0  0
   63.2460   33.8530   48.4590 C   0  0  0  0  0  0  0  0  0  0  0  0
   64.1798   33.9953   49.0227 H   0  0  0  0  0  0  0  0  0  0  0  0
   63.2810   33.6400   47.0810 C   0  0  0  0  0  0  0  0  0  0  0  0
   64.2453   33.6186   46.5522 H   0  0  0  0  0  0  0  0  0  0  0  0
   62.0930   33.4540   46.3730 C   0  0  0  0  0  0  0  0  0  0  0  0
   62.1164   33.2928   45.2851 H   0  0  0  0  0  0  0  0  0  0  0  0
   59.1310   32.0030   45.9580 C   0  0  0  0  0  0  0  0  0  0  0  0
   59.7609   31.1244   46.1610 H   0  0  0  0  0  0  0  0  0  0  0  0
   58.1440   27.9470   43.4440 C   0  0  0  0  0  0  0  0  0  0  0  0
   58.4383   28.8567   42.9002 H   0  0  0  0  0  0  0  0  0  0  0  0
  1  2  1  0
  2  3  2  0
  3  4  1  0
  4  5  1  0
  5  6  1  0
  6  7  1  0
  6  8  1  0
  6  9  1  0
  9 10  1  0
  9 11  1  0
  9 12  1  0
 12 13  1  0
 12 14  1  0
 14 15  1  0
 14 16  1  0
 14 17  1  0
 17 18  1  0
 17 19  1  0
  4 20  2  0
 20 21  1  0
 20 22  1  0
 22 23  1  0
 23 24  2  0
 23 25  1  0
 25 26  1  0
 25 27  1  0
 27 28  2  0
 28 29  1  0
 28 30  1  0
 30 31  1  0
 30 32  2  0
 32 33  1  0
 32 34  1  0
 34 35  1  0
 35 36  1  0
 36 37  1  0
 37 38  2  0
 38 39  1  0
 39 40  1  0
 39 41  1  0
 39 42  1  0
 42 43  2  0
 43 44  1  0
 43 45  1  0
 45 46  1  0
 45 47  2  0
 47 48  1  0
 47 49  1  0
 49 50  1  0
 49 51  2  0
 51 52  1  0
 37 53  1  0
 53 54  1  0
 53 55  2  0
 55 56  1  0
 55 57  1  0
 57 58  1  0
 34 59  2  0
 59 60  1  0
 22 61  2  0
 61 62  1  0
 61  2  1  0
 17  5  1  0
 59 27  1  0
 57 35  2  0
 51 42  1  0
M  CHG  1  36  -1
M  END
>  <UniqueID>  (82) 
78

>  <SMILES>  (82) 
O=C(Nc1cccc(-c2ccc/c(=N/Cc3ccc(F)cc3)[n-]2)c1)c1ccnc(N2CCNCC2)c1

>  <Energy>  (82) 
84.06915737084512

>  <Genealogy>  (82) 
O=C(Nc1cccc(-c2cccc(=NCc3ccc(F)cc3)[n-]2)c1)c1ccnc(N2CCNCC2)c1 (protonated)
O=C(Nc1cccc(-c2ccc/c(=N/Cc3ccc(F)cc3)[n-]2)c1)c1ccnc(N2CCNCC2)c1 (cis-trans isomerization)
O=C(Nc1cccc(-c2ccc/c(=N/Cc3ccc(F)cc3)[n-]2)c1)c1ccnc(N2CCNCC2)c1 (3D coordinates assigned)
O=C(Nc1cccc(-c2ccc/c(=N/Cc3ccc(F)cc3)[n-]2)c1)c1ccnc(N2CCNCC2)c1 (nonaromatic ring conformer: 84.06915737084512 kcal/mol)

>  <smiles>  (82) 
O=C(Nc1cccc(-c2cccc(=NCc3ccc(F)cc3)[nH]2)c1)c1ccnc(N2CCNCC2)c1

>  <score_type>  (82) 
oracle

>  <origin>  (82) 
adg

>  <m_score__min__energy>  (82) 
-11.779999999999999

>  <m_primary>  (82) 
energy

$$$$
82:0
     RDKit          3D

 51 53  0  0  0  0  0  0  0  0999 V2000
   61.0911   28.9659   50.1503 H   0  0  0  0  0  0  0  0  0  0  0  0
   61.2250   29.8400   49.4960 C   0  0  0  0  0  0  0  0  0  0  0  0
   60.2340   30.0800   48.4270 C   0  0  0  0  0  0  0  0  0  0  0  0
   59.6810   31.2120   48.3680 O   0  0  0  0  0  0  0  0  0  0  0  0
   59.9500   29.0910   47.4240 N   0  0  0  0  0  0  0  0  0  0  0  0
   60.6990   28.4000   47.1950 H   0  0  0  0  0  0  0  0  0  0  0  0
   58.7440   29.0710   46.6330 C   0  0  0  0  0  0  0  0  0  0  0  0
   58.4190   30.1310   45.7710 C   0  0  0  0  0  0  0  0  0  0  0  0
   59.0962   30.9942   45.6917 H   0  0  0  0  0  0  0  0  0  0  0  0
   57.2410   30.1020   45.0100 C   0  0  0  0  0  0  0  0  0  0  0  0
   56.9690   31.2150   44.0670 C   0  0  0  0  0  0  0  0  0  0  0  0
   56.3320   30.9610   43.0070 O   0  0  0  0  0  0  0  0  0  0  0  0
   57.2790   32.6570   44.4370 C   0  0  0  0  0  0  0  0  0  0  0  0
   56.7669   33.3186   43.7228 H   0  0  0  0  0  0  0  0  0  0  0  0
   58.8080   32.8990   44.3260 C   0  0  0  0  0  0  0  0  0  0  0  0
   59.3367   31.9847   44.6335 H   0  0  0  0  0  0  0  0  0  0  0  0
   59.0392   33.1562   43.2818 H   0  0  0  0  0  0  0  0  0  0  0  0
   59.2650   34.0600   45.2160 C   0  0  0  0  0  0  0  0  0  0  0  0
   60.3444   34.2164   45.0733 H   0  0  0  0  0  0  0  0  0  0  0  0
   58.6982   34.9583   44.9299 H   0  0  0  0  0  0  0  0  0  0  0  0
   58.9930   33.7700   46.7070 C   0  0  0  0  0  0  0  0  0  0  0  0
   59.8738   33.2651   47.1304 H   0  0  0  0  0  0  0  0  0  0  0  0
   58.7931   34.7356   47.1946 H   0  0  0  0  0  0  0  0  0  0  0  0
   57.7550   32.8750   46.9420 C   0  0  0  0  0  0  0  0  0  0  0  0
   58.0745   31.8227   46.9665 H   0  0  0  0  0  0  0  0  0  0  0  0
   57.2947   33.1677   47.8972 H   0  0  0  0  0  0  0  0  0  0  0  0
   56.7110   33.0530   45.8310 C   0  0  0  0  0  0  0  0  0  0  0  0
   55.8409   32.4182   46.0546 H   0  0  0  0  0  0  0  0  0  0  0  0
   56.4262   34.1149   45.7957 H   0  0  0  0  0  0  0  0  0  0  0  0
   56.3610   29.0170   45.1820 C   0  0  0  0  0  0  0  0  0  0  0  0
   55.1380   28.9690   44.5230 O   0  0  0  0  0  0  0  0  0  0  0  0
   56.6840   28.0070   46.0310 N   0  0  0  0  0  0  0  0  0  0  0  0
   57.8380   28.0030   46.7480 C   0  0  0  0  0  0  0  0  0  0  0  0
   58.0840   27.0330   47.5130 O   0  0  0  0  0  0  0  0  0  0  0  0
   62.2800   30.6400   49.7040 C   0  0  0  0  0  0  0  0  0  0  0  0
   62.9277   30.4342   50.5690 H   0  0  0  0  0  0  0  0  0  0  0  0
   62.6210   31.7920   48.8260 C   0  0  0  0  0  0  0  0  0  0  0  0
   63.3880   31.6180   47.6550 C   0  0  0  0  0  0  0  0  0  0  0  0
   63.7284   30.6112   47.3713 H   0  0  0  0  0  0  0  0  0  0  0  0
   63.7190   32.7110   46.8530 C   0  0  0  0  0  0  0  0  0  0  0  0
   64.3115   32.5615   45.9384 H   0  0  0  0  0  0  0  0  0  0  0  0
   63.3000   33.9920   47.2090 C   0  0  0  0  0  0  0  0  0  0  0  0
   63.5580   34.8508   46.5719 H   0  0  0  0  0  0  0  0  0  0  0  0
   62.5540   34.1870   48.3720 C   0  0  0  0  0  0  0  0  0  0  0  0
   62.2313   35.2012   48.6501 H   0  0  0  0  0  0  0  0  0  0  0  0
   62.2110   33.0940   49.1930 C   0  0  0  0  0  0  0  0  0  0  0  0
   61.4630   33.2680   50.3710 O   0  0  0  0  0  0  0  0  0  0  0  0
   60.0570   33.4880   50.4130 C   0  0  0  0  0  0  0  0  0  0  0  0
   59.7251   33.5399   51.4605 H   0  0  0  0  0  0  0  0  0  0  0  0
   59.8186   34.4344   49.9055 H   0  0  0  0  0  0  0  0  0  0  0  0
   59.5409   32.6597   49.9055 H   0  0  0  0  0  0  0  0  0  0  0  0
  1  2  1  0
  2  3  1  0
  3  4  2  0
  3  5  1  0
  5  6  1  0
  5  7  1  0
  7  8  2  0
  8  9  1  0
  8 10  1  0
 10 11  1  0
 11 12  2  0
 11 13  1  0
 13 14  1  0
 13 15  1  0
 15 16  1  0
 15 17  1  0
 15 18  1  0
 18 19  1  0
 18 20  1  0
 18 21  1  0
 21 22  1  0
 21 23  1  0
 21 24  1  0
 24 25  1  0
 24 26  1  0
 24 27  1  0
 27 28  1  0
 27 29  1  0
 10 30  2  0
 30 31  1  0
 30 32  1  0
 32 33  1  0
 33 34  2  0
  2 35  2  0
 35 36  1  0
 35 37  1  0
 37 38  2  0
 38 39  1  0
 38 40  1  0
 40 41  1  0
 40 42  2  0
 42 43  1  0
 42 44  1  0
 44 45  1  0
 44 46  2  0
 46 47  1  0
 47 48  1  0
 48 49  1  0
 48 50  1  0
 48 51  1  0
 33  7  1  0
 46 37  1  0
 27 13  1  0
M  CHG  2  31  -1  32  -1
M  END
>  <UniqueID>  (83) 
79

>  <SMILES>  (83) 
COc1ccccc1/C=C/C(=O)Nc1cc(C(=O)C2CCCCC2)c([O-])[n-]c1=O

>  <Energy>  (83) 
69.5396035237041

>  <Genealogy>  (83) 
COc1ccccc1C=CC(=O)Nc1cc(C(=O)C2CCCCC2)c([O-])[n-]c1=O (protonated)
COc1ccccc1/C=C/C(=O)Nc1cc(C(=O)C2CCCCC2)c([O-])[n-]c1=O (cis-trans isomerization)
COc1ccccc1/C=C/C(=O)Nc1cc(C(=O)C2CCCCC2)c([O-])[n-]c1=O (3D coordinates assigned)
COc1ccccc1/C=C/C(=O)Nc1cc(C(=O)C2CCCCC2)c([O-])[n-]c1=O (nonaromatic ring conformer: 69.5396035237041 kcal/mol)

>  <smiles>  (83) 
COc1ccccc1C=CC(=O)Nc1cc(C(=O)C2CCCCC2)c(O)[nH]c1=O

>  <score_type>  (83) 
oracle

>  <origin>  (83) 
adg

>  <m_score__min__energy>  (83) 
-14.109999999999999

>  <m_primary>  (83) 
energy

$$$$
83:0
     RDKit          3D

 35 36  0  0  0  0  0  0  0  0999 V2000
   59.0705   34.0349   52.8556 H   0  0  0  0  0  0  0  0  0  0  0  0
   58.8200   33.3090   52.0680 C   0  0  0  0  0  0  0  0  0  0  0  0
   59.1930   33.5460   50.7840 N   0  0  0  0  0  0  0  0  0  0  0  0
   58.8940   32.6660   49.7880 C   0  0  0  0  0  0  0  0  0  0  0  0
   59.2710   32.8810   48.5610 N   0  0  0  0  0  0  0  0  0  0  0  0
   58.7930   32.2140   47.3810 C   0  0  0  0  0  0  0  0  0  0  0  0
   57.9240   32.8410   46.4680 C   0  0  0  0  0  0  0  0  0  0  0  0
   57.6128   33.8827   46.6354 H   0  0  0  0  0  0  0  0  0  0  0  0
   57.4550   32.1460   45.3500 C   0  0  0  0  0  0  0  0  0  0  0  0
   56.7962   32.6513   44.6284 H   0  0  0  0  0  0  0  0  0  0  0  0
   57.8200   30.8070   45.1430 C   0  0  0  0  0  0  0  0  0  0  0  0
   57.3430   30.0700   43.9210 C   0  0  0  0  0  0  0  0  0  0  0  0
   57.3308   30.7574   43.0623 H   0  0  0  0  0  0  0  0  0  0  0  0
   58.0237   29.2305   43.7163 H   0  0  0  0  0  0  0  0  0  0  0  0
   55.9640   29.5400   44.1510 C   0  0  0  0  0  0  0  0  0  0  0  0
   55.0330   29.8480   43.3580 O   0  0  0  0  0  0  0  0  0  0  0  0
   55.7210   28.6490   45.2420 N   0  0  0  0  0  0  0  0  0  0  0  0
   56.6400   27.5800   45.6060 C   0  0  0  0  0  0  0  0  0  0  0  0
   57.2046   27.2625   44.7170 H   0  0  0  0  0  0  0  0  0  0  0  0
   57.3403   27.9419   46.3732 H   0  0  0  0  0  0  0  0  0  0  0  0
   55.8650   26.4240   46.1430 C   0  0  0  0  0  0  0  0  0  0  0  0
   54.6260   26.3410   45.9360 O   0  0  0  0  0  0  0  0  0  0  0  0
   56.5000   25.4620   46.9180 O   0  0  0  0  0  0  0  0  0  0  0  0
   58.6700   30.1760   46.0640 C   0  0  0  0  0  0  0  0  0  0  0  0
   58.9686   29.1292   45.9056 H   0  0  0  0  0  0  0  0  0  0  0  0
   59.1390   30.8720   47.1820 C   0  0  0  0  0  0  0  0  0  0  0  0
   59.7850   30.3612   47.9112 H   0  0  0  0  0  0  0  0  0  0  0  0
   58.2320   31.5180   50.0860 N   0  0  0  0  0  0  0  0  0  0  0  0
   57.8390   31.2360   51.3540 C   0  0  0  0  0  0  0  0  0  0  0  0
   57.2290   30.1590   51.5890 O   0  0  0  0  0  0  0  0  0  0  0  0
   58.1170   32.1420   52.3910 C   0  0  0  0  0  0  0  0  0  0  0  0
   57.7170   31.8530   53.8100 C   0  0  0  0  0  0  0  0  0  0  0  0
   58.4134   32.3561   54.4970 H   0  0  0  0  0  0  0  0  0  0  0  0
   56.6964   32.2237   53.9860 H   0  0  0  0  0  0  0  0  0  0  0  0
   57.7484   30.7676   53.9860 H   0  0  0  0  0  0  0  0  0  0  0  0
  1  2  1  0
  2  3  1  0
  3  4  1  0
  4  5  2  0
  5  6  1  0
  6  7  2  0
  7  8  1  0
  7  9  1  0
  9 10  1  0
  9 11  2  0
 11 12  1  0
 12 13  1  0
 12 14  1  0
 12 15  1  0
 15 16  2  0
 15 17  1  0
 17 18  1  0
 18 19  1  0
 18 20  1  0
 18 21  1  0
 21 22  2  0
 21 23  1  0
 11 24  1  0
 24 25  1  0
 24 26  2  0
 26 27  1  0
  4 28  1  0
 28 29  1  0
 29 30  2  0
 29 31  1  0
 31 32  1  0
 32 33  1  0
 32 34  1  0
 32 35  1  0
 31  2  2  0
 26  6  1  0
M  CHG  4   3  -1  17  -1  23  -1  28  -1
M  END
>  <UniqueID>  (84) 
80

>  <SMILES>  (84) 
Cc1c[n-]/c(=N\c2ccc(CC(=O)[N-]CC(=O)[O-])cc2)[n-]c1=O

>  <Energy>  (84) 
37.15544157787687

>  <Genealogy>  (84) 
Cc1c[n-]c(=Nc2ccc(CC(=O)[N-]CC(=O)[O-])cc2)[n-]c1=O (protonated)
Cc1c[n-]/c(=N\c2ccc(CC(=O)[N-]CC(=O)[O-])cc2)[n-]c1=O (cis-trans isomerization)
Cc1c[n-]/c(=N\c2ccc(CC(=O)[N-]CC(=O)[O-])cc2)[n-]c1=O (3D coordinates assigned)
Cc1c[n-]/c(=N\c2ccc(CC(=O)[N-]CC(=O)[O-])cc2)[n-]c1=O (optimized conformer: 37.15544157787687 kcal/mol)

>  <smiles>  (84) 
Cc1c[nH]c(=Nc2ccc(CC(=O)NCC(=O)O)cc2)[nH]c1=O

>  <score_type>  (84) 
oracle

>  <origin>  (84) 
adg

>  <m_score__min__energy>  (84) 
-14.16

>  <m_primary>  (84) 
energy

$$$$
84:0
     RDKit          3D

 48 52  0  0  0  0  0  0  0  0999 V2000
   52.5191   30.0848   50.5528 H   0  0  0  0  0  0  0  0  0  0  0  0
   52.6540   30.3900   51.6010 C   0  0  0  0  0  0  0  0  0  0  0  0
   51.7010   31.3600   52.1680 C   0  0  0  0  0  0  0  0  0  0  0  0
   51.4810   31.4930   53.4870 N   0  0  0  0  0  0  0  0  0  0  0  0
   50.6200   32.5300   53.5600 C   0  0  0  0  0  0  0  0  0  0  0  0
   50.1600   32.9540   54.6520 O   0  0  0  0  0  0  0  0  0  0  0  0
   50.2970   33.0830   52.3720 N   0  0  0  0  0  0  0  0  0  0  0  0
   51.0000   32.3410   51.5000 C   0  0  0  0  0  0  0  0  0  0  0  0
   51.0380   32.5940   50.1350 O   0  0  0  0  0  0  0  0  0  0  0  0
   53.6740   29.8580   52.2850 C   0  0  0  0  0  0  0  0  0  0  0  0
   53.7570   28.6370   52.9840 C   0  0  0  0  0  0  0  0  0  0  0  0
   52.9163   27.9459   53.1443 H   0  0  0  0  0  0  0  0  0  0  0  0
   55.0280   28.4350   53.4330 N   0  0  0  0  0  0  0  0  0  0  0  0
   55.6790   29.5390   53.1160 N   0  0  0  0  0  0  0  0  0  0  0  0
   56.9670   29.8020   52.8540 C   0  0  0  0  0  0  0  0  0  0  0  0
   58.0940   28.9010   53.1730 C   0  0  0  0  0  0  0  0  0  0  0  0
   57.9470   27.9290   54.1770 C   0  0  0  0  0  0  0  0  0  0  0  0
   56.9957   27.8450   54.7230 H   0  0  0  0  0  0  0  0  0  0  0  0
   59.0050   27.0680   54.4850 C   0  0  0  0  0  0  0  0  0  0  0  0
   58.8871   26.3153   55.2785 H   0  0  0  0  0  0  0  0  0  0  0  0
   60.2110   27.1620   53.7870 C   0  0  0  0  0  0  0  0  0  0  0  0
   61.0429   26.4857   54.0331 H   0  0  0  0  0  0  0  0  0  0  0  0
   60.3610   28.1140   52.7770 C   0  0  0  0  0  0  0  0  0  0  0  0
   61.3102   28.1845   52.2256 H   0  0  0  0  0  0  0  0  0  0  0  0
   59.3070   28.9780   52.4650 C   0  0  0  0  0  0  0  0  0  0  0  0
   59.4268   29.7209   51.6627 H   0  0  0  0  0  0  0  0  0  0  0  0
   56.9380   30.9150   51.9940 C   0  0  0  0  0  0  0  0  0  0  0  0
   58.0770   31.5490   51.3960 N   0  0  0  0  0  0  0  0  0  0  0  0
   58.8720   32.4980   52.1810 C   0  0  0  0  0  0  0  0  0  0  0  0
   59.7120   31.9615   52.6464 H   0  0  0  0  0  0  0  0  0  0  0  0
   58.2200   32.9441   52.9464 H   0  0  0  0  0  0  0  0  0  0  0  0
   59.4310   33.6360   51.2970 C   0  0  0  0  0  0  0  0  0  0  0  0
   60.4838   33.8051   51.5672 H   0  0  0  0  0  0  0  0  0  0  0  0
   58.8130   34.5278   51.4779 H   0  0  0  0  0  0  0  0  0  0  0  0
   59.3580   33.3320   49.8510 N   0  0  0  0  0  0  0  0  0  0  0  0
   60.2330   34.2380   49.0930 C   0  0  0  0  0  0  0  0  0  0  0  0
   60.8227   34.8486   49.7925 H   0  0  0  0  0  0  0  0  0  0  0  0
   60.9115   33.6477   48.4596 H   0  0  0  0  0  0  0  0  0  0  0  0
   59.6195   34.8956   48.4596 H   0  0  0  0  0  0  0  0  0  0  0  0
   59.7130   31.9290   49.5860 C   0  0  0  0  0  0  0  0  0  0  0  0
   60.6633   31.6881   50.0850 H   0  0  0  0  0  0  0  0  0  0  0  0
   59.8248   31.7713   48.5031 H   0  0  0  0  0  0  0  0  0  0  0  0
   58.6050   31.0260   50.1290 C   0  0  0  0  0  0  0  0  0  0  0  0
   59.0118   30.0179   50.2970 H   0  0  0  0  0  0  0  0  0  0  0  0
   57.7870   30.9924   49.3943 H   0  0  0  0  0  0  0  0  0  0  0  0
   55.6490   31.2560   51.7070 N   0  0  0  0  0  0  0  0  0  0  0  0
   55.3030   31.9410   51.0000 H   0  0  0  0  0  0  0  0  0  0  0  0
   54.9390   30.3730   52.4310 C   0  0  0  0  0  0  0  0  0  0  0  0
  1  2  1  0
  2  3  1  0
  3  4  1  0
  4  5  1  0
  5  6  2  0
  5  7  1  0
  7  8  1  0
  8  9  1  0
  2 10  2  0
 10 11  1  0
 11 12  1  0
 11 13  2  0
 13 14  1  0
 14 15  1  0
 15 16  1  0
 16 17  2  0
 17 18  1  0
 17 19  1  0
 19 20  1  0
 19 21  2  0
 21 22  1  0
 21 23  1  0
 23 24  1  0
 23 25  2  0
 25 26  1  0
 15 27  2  0
 27 28  1  0
 28 29  1  0
 29 30  1  0
 29 31  1  0
 29 32  1  0
 32 33  1  0
 32 34  1  0
 32 35  1  0
 35 36  1  0
 36 37  1  0
 36 38  1  0
 36 39  1  0
 35 40  1  0
 40 41  1  0
 40 42  1  0
 40 43  1  0
 43 44  1  0
 43 45  1  0
 27 46  1  0
 46 47  1  0
 46 48  2  0
  8  3  2  0
 48 10  1  0
 48 14  1  0
 25 16  1  0
 43 28  1  0
M  CHG  4   4  -1   7  -1   9  -1  46   1
M  END
>  <UniqueID>  (85) 
81

>  <SMILES>  (85) 
CN1CCN(c2[nH+]c3/c(=C/c4[n-]c(=O)[n-]c4[O-])cnn3c2-c2ccccc2)CC1

>  <Energy>  (85) 
190.81818895515622

>  <Genealogy>  (85) 
CN1CCN(c2[nH+]c3c(=Cc4[n-]c(=O)[n-]c4[O-])cnn3c2-c2ccccc2)CC1 (protonated)
CN1CCN(c2[nH+]c3/c(=C/c4[n-]c(=O)[n-]c4[O-])cnn3c2-c2ccccc2)CC1 (cis-trans isomerization)
CN1CCN(c2[nH+]c3/c(=C/c4[n-]c(=O)[n-]c4[O-])cnn3c2-c2ccccc2)CC1 (3D coordinates assigned)
CN1CCN(c2[nH+]c3/c(=C/c4[n-]c(=O)[n-]c4[O-])cnn3c2-c2ccccc2)CC1 (nonaromatic ring conformer: 190.81818895515622 kcal/mol)

>  <smiles>  (85) 
CN1CCN(c2nc3c(=Cc4[nH]c(=O)[nH]c4O)cnn3c2-c2ccccc2)CC1

>  <score_type>  (85) 
oracle

>  <origin>  (85) 
adg

>  <m_score__min__energy>  (85) 
-15.640000000000001

>  <m_primary>  (85) 
energy

$$$$
85:0
     RDKit          3D

 53 56  0  0  0  0  0  0  0  0999 V2000
   60.1380   26.9840   48.4150 C   0  0  0  0  0  0  0  0  0  0  0  0
   59.7800   28.2490   48.1330 C   0  0  0  0  0  0  0  0  0  0  0  0
   58.8610   28.6410   47.1470 C   0  0  0  0  0  0  0  0  0  0  0  0
   58.3280   27.9610   46.1120 C   0  0  0  0  0  0  0  0  0  0  0  0
   57.1420   27.0910   46.1770 C   0  0  0  0  0  0  0  0  0  0  0  0
   57.1500   25.8120   46.6000 N   0  0  0  0  0  0  0  0  0  0  0  0
   55.8890   25.3950   46.3530 C   0  0  0  0  0  0  0  0  0  0  0  0
   55.4930   24.2340   46.6310 O   0  0  0  0  0  0  0  0  0  0  0  0
   55.0900   26.3170   45.7760 N   0  0  0  0  0  0  0  0  0  0  0  0
   55.9040   27.3780   45.6590 C   0  0  0  0  0  0  0  0  0  0  0  0
   55.5240   28.5850   45.0850 O   0  0  0  0  0  0  0  0  0  0  0  0
   58.5590   29.9600   47.4070 C   0  0  0  0  0  0  0  0  0  0  0  0
   59.3350   30.3510   48.4760 C   0  0  0  0  0  0  0  0  0  0  0  0
   59.2410   31.7010   49.0700 C   0  0  0  0  0  0  0  0  0  0  0  0
   58.4310   31.9030   50.0160 O   0  0  0  0  0  0  0  0  0  0  0  0
   59.9950   32.8050   48.5130 N   0  0  0  0  0  0  0  0  0  0  0  0
   60.7300   32.3810   47.2910 C   0  0  0  0  0  0  0  0  0  0  0  0
   59.9870   32.7690   46.0020 C   0  0  0  0  0  0  0  0  0  0  0  0
   59.7660   34.2320   45.8960 N   0  0  0  0  0  0  0  0  0  0  0  0
   58.6980   34.4780   44.8870 C   0  0  0  0  0  0  0  0  0  0  0  0
   58.0150   33.3050   44.1890 C   0  0  0  0  0  0  0  0  0  0  0  0
   57.2980   34.0550   45.3110 C   0  0  0  0  0  0  0  0  0  0  0  0
   59.6840   34.9060   47.2220 C   0  0  0  0  0  0  0  0  0  0  0  0
   59.1080   33.9750   48.2950 C   0  0  0  0  0  0  0  0  0  0  0  0
   60.1200   29.3240   48.9030 N   0  0  0  0  0  0  0  0  0  0  0  0
   61.1510   29.3370   49.9710 C   0  0  0  0  0  0  0  0  0  0  0  0
   62.1110   30.5310   49.8650 C   0  0  0  0  0  0  0  0  0  0  0  0
   60.5080   29.2330   51.3570 C   0  0  0  0  0  0  0  0  0  0  0  0
   60.8703   26.7841   49.2111 H   0  0  0  0  0  0  0  0  0  0  0  0
   59.6985   26.1490   47.8496 H   0  0  0  0  0  0  0  0  0  0  0  0
   58.8218   28.0652   45.1346 H   0  0  0  0  0  0  0  0  0  0  0  0
   57.8343   30.5837   46.8631 H   0  0  0  0  0  0  0  0  0  0  0  0
   60.7130   33.1010   49.2170 H   0  0  0  0  0  0  0  0  0  0  0  0
   61.7193   32.8619   47.2880 H   0  0  0  0  0  0  0  0  0  0  0  0
   60.8176   31.2847   47.3131 H   0  0  0  0  0  0  0  0  0  0  0  0
   60.5818   32.4379   45.1380 H   0  0  0  0  0  0  0  0  0  0  0  0
   59.0013   32.2813   46.0230 H   0  0  0  0  0  0  0  0  0  0  0  0
   59.1869   35.3893   44.5121 H   0  0  0  0  0  0  0  0  0  0  0  0
   57.6698   33.4081   43.1497 H   0  0  0  0  0  0  0  0  0  0  0  0
   58.2757   32.2537   43.9973 H   0  0  0  0  0  0  0  0  0  0  0  0
   56.4357   34.6975   45.0795 H   0  0  0  0  0  0  0  0  0  0  0  0
   56.8276   33.7663   46.2625 H   0  0  0  0  0  0  0  0  0  0  0  0
   60.6937   35.2191   47.5261 H   0  0  0  0  0  0  0  0  0  0  0  0
   59.0152   35.7740   47.1254 H   0  0  0  0  0  0  0  0  0  0  0  0
   59.0076   34.5316   49.2385 H   0  0  0  0  0  0  0  0  0  0  0  0
   58.1261   33.6132   47.9559 H   0  0  0  0  0  0  0  0  0  0  0  0
   61.7749   28.4433   49.8223 H   0  0  0  0  0  0  0  0  0  0  0  0
   62.3851   30.8719   50.8743 H   0  0  0  0  0  0  0  0  0  0  0  0
   63.0177   30.2254   49.3224 H   0  0  0  0  0  0  0  0  0  0  0  0
   61.6178   31.3510   49.3224 H   0  0  0  0  0  0  0  0  0  0  0  0
   61.2806   29.3580   52.1299 H   0  0  0  0  0  0  0  0  0  0  0  0
   59.7474   30.0198   51.4683 H   0  0  0  0  0  0  0  0  0  0  0  0
   60.0342   28.2465   51.4683 H   0  0  0  0  0  0  0  0  0  0  0  0
  1  2  2  0
  2  3  1  0
  3  4  2  3
  4  5  1  0
  5  6  1  0
  6  7  1  0
  7  8  2  0
  7  9  1  0
  9 10  1  0
 10 11  1  0
  3 12  1  0
 12 13  2  0
 13 14  1  0
 14 15  2  0
 14 16  1  0
 16 17  1  0
 17 18  1  0
 18 19  1  0
 19 20  1  0
 20 21  1  0
 21 22  1  0
 19 23  1  0
 23 24  1  0
 13 25  1  0
 25 26  1  0
 26 27  1  0
 26 28  1  0
 25  2  1  0
 10  5  2  0
 24 16  1  0
 22 20  1  0
  1 29  1  0
  1 30  1  0
  4 31  1  0
 12 32  1  0
 16 33  1  0
 17 34  1  0
 17 35  1  0
 18 36  1  0
 18 37  1  0
 20 38  1  0
 21 39  1  0
 21 40  1  0
 22 41  1  0
 22 42  1  0
 23 43  1  0
 23 44  1  0
 24 45  1  0
 24 46  1  0
 26 47  1  0
 27 48  1  0
 27 49  1  0
 27 50  1  0
 28 51  1  0
 28 52  1  0
 28 53  1  0
M  CHG  4   6  -1   9  -1  11  -1  16   1
M  END
>  <UniqueID>  (86) 
82

>  <SMILES>  (86) 
C=c1c(=Cc2[n-]c(=O)[n-]c2[O-])cc(C(=O)[NH+]2CCN(C3CC3)CC2)n1C(C)C

>  <Energy>  (86) 
419.1780991517197

>  <Genealogy>  (86) 
C=c1c(=Cc2[n-]c(=O)[n-]c2[O-])cc(C(=O)[NH+]2CCN(C3CC3)CC2)n1C(C)C (protonated)
C=c1c(=Cc2[n-]c(=O)[n-]c2[O-])cc(C(=O)[NH+]2CCN(C3CC3)CC2)n1C(C)C (3D coordinates assigned)
C=c1c(=Cc2[n-]c(=O)[n-]c2[O-])cc(C(=O)[NH+]2CCN(C3CC3)CC2)n1C(C)C (nonaromatic ring conformer: 419.1780991517197 kcal/mol)

>  <smiles>  (86) 
C=c1c(=Cc2[nH]c(=O)[nH]c2O)cc(C(=O)N2CCN(C3CC3)CC2)n1C(C)C

>  <score_type>  (86) 
oracle

>  <origin>  (86) 
adg

>  <m_score__min__energy>  (86) 
-15.699999999999999

>  <m_primary>  (86) 
energy

$$$$
86:0
     RDKit          3D

 73 77  0  0  0  0  0  0  0  0999 V2000
   59.8670   32.7820   51.5530 C   0  0  0  0  0  0  0  0  0  0  0  0
   59.4690   33.1740   50.1610 C   0  0  0  0  0  0  0  0  0  0  0  0
   58.4630   32.4650   49.4860 C   0  0  0  0  0  0  0  0  0  0  0  0
   58.1140   32.8110   48.1780 C   0  0  0  0  0  0  0  0  0  0  0  0
   58.7710   33.8640   47.5240 C   0  0  0  0  0  0  0  0  0  0  0  0
   58.3920   34.2280   46.1070 C   0  0  0  0  0  0  0  0  0  0  0  0
   58.3580   33.0400   45.2160 N   0  0  2  0  0  0  0  0  0  0  0  0
   58.7150   33.4090   43.8300 C   0  0  0  0  0  0  0  0  0  0  0  0
   57.0640   32.3030   45.2730 C   0  0  0  0  0  0  0  0  0  0  0  0
   57.0470   31.0120   44.4830 C   0  0  0  0  0  0  0  0  0  0  0  0
   56.2840   30.7990   43.3400 C   0  0  0  0  0  0  0  0  0  0  0  0
   56.4790   29.5560   42.8620 N   0  0  0  0  0  0  0  0  0  0  0  0
   57.3710   28.9760   43.6790 C   0  0  0  0  0  0  0  0  0  0  0  0
   57.9140   27.7020   43.5250 C   0  0  0  0  0  0  0  0  0  0  0  0
   58.8990   27.2890   44.4310 C   0  0  0  0  0  0  0  0  0  0  0  0
   59.3270   28.1500   45.4580 C   0  0  0  0  0  0  0  0  0  0  0  0
   58.7680   29.4370   45.6100 C   0  0  0  0  0  0  0  0  0  0  0  0
   59.3050   30.3090   46.6720 C   0  0  0  0  0  0  0  0  0  0  0  0
   59.0990   30.0150   47.8770 O   0  0  0  0  0  0  0  0  0  0  0  0
   60.1890   31.3970   46.3710 N   0  0  0  0  0  0  0  0  0  0  0  0
   61.3200   31.8180   47.1470 C   0  0  0  0  0  0  0  0  0  0  0  0
   62.1400   32.8860   46.7420 C   0  0  0  0  0  0  0  0  0  0  0  0
   63.2410   33.2560   47.5150 C   0  0  0  0  0  0  0  0  0  0  0  0
   63.5230   32.5830   48.7070 C   0  0  0  0  0  0  0  0  0  0  0  0
   62.6840   31.5460   49.1520 C   0  0  0  0  0  0  0  0  0  0  0  0
   62.9740   30.8210   50.4150 C   0  0  0  0  0  0  0  0  0  0  0  0
   64.1560   30.7960   50.8560 O   0  0  0  0  0  0  0  0  0  0  0  0
   61.9350   30.1550   51.1570 N   0  0  0  0  0  0  0  0  0  0  0  0
   61.9260   30.1870   52.6180 C   0  0  0  0  0  0  0  0  0  0  0  0
   62.1250   28.7650   53.1600 C   0  0  0  0  0  0  0  0  0  0  0  0
   61.1860   27.7930   52.5560 N   0  0  0  0  0  0  0  0  0  0  0  0
   59.8190   27.9250   53.0880 C   0  0  0  0  0  0  0  0  0  0  0  0
   61.2240   27.8140   51.0770 C   0  0  0  0  0  0  0  0  0  0  0  0
   61.0180   29.2220   50.4990 C   0  0  0  0  0  0  0  0  0  0  0  0
   61.5830   31.1730   48.3620 C   0  0  0  0  0  0  0  0  0  0  0  0
   57.7620   29.8270   44.6940 C   0  0  0  0  0  0  0  0  0  0  0  0
   59.7940   34.5560   48.1910 C   0  0  0  0  0  0  0  0  0  0  0  0
   60.1450   34.2100   49.4990 C   0  0  0  0  0  0  0  0  0  0  0  0
   59.2786   33.3616   52.2795 H   0  0  0  0  0  0  0  0  0  0  0  0
   59.6769   31.7086   51.7002 H   0  0  0  0  0  0  0  0  0  0  0  0
   60.9374   32.9884   51.7002 H   0  0  0  0  0  0  0  0  0  0  0  0
   57.9473   31.6336   49.9888 H   0  0  0  0  0  0  0  0  0  0  0  0
   57.3199   32.2548   47.6583 H   0  0  0  0  0  0  0  0  0  0  0  0
   57.3958   34.6944   46.1148 H   0  0  0  0  0  0  0  0  0  0  0  0
   59.1535   34.9208   45.7196 H   0  0  0  0  0  0  0  0  0  0  0  0
   59.0900   32.3630   45.5430 H   0  0  0  0  0  0  0  0  0  0  0  0
   59.4798   34.1995   43.8464 H   0  0  0  0  0  0  0  0  0  0  0  0
   59.1110   32.5266   43.3060 H   0  0  0  0  0  0  0  0  0  0  0  0
   57.8200   33.7756   43.3060 H   0  0  0  0  0  0  0  0  0  0  0  0
   56.8488   32.0658   46.3253 H   0  0  0  0  0  0  0  0  0  0  0  0
   56.3072   32.9598   44.8193 H   0  0  0  0  0  0  0  0  0  0  0  0
   55.6129   31.5444   42.8883 H   0  0  0  0  0  0  0  0  0  0  0  0
   56.0420   29.1410   42.0080 H   0  0  0  0  0  0  0  0  0  0  0  0
   57.5783   27.0388   42.7141 H   0  0  0  0  0  0  0  0  0  0  0  0
   59.3405   26.2857   44.3390 H   0  0  0  0  0  0  0  0  0  0  0  0
   60.1101   27.8147   46.1539 H   0  0  0  0  0  0  0  0  0  0  0  0
   61.9130   33.4309   45.8138 H   0  0  0  0  0  0  0  0  0  0  0  0
   63.8897   34.0807   47.1849 H   0  0  0  0  0  0  0  0  0  0  0  0
   64.4054   32.8658   49.2998 H   0  0  0  0  0  0  0  0  0  0  0  0
   62.7407   30.8336   52.9760 H   0  0  0  0  0  0  0  0  0  0  0  0
   60.9625   30.5834   52.9710 H   0  0  0  0  0  0  0  0  0  0  0  0
   63.1542   28.4445   52.9409 H   0  0  0  0  0  0  0  0  0  0  0  0
   61.9315   28.7892   54.2426 H   0  0  0  0  0  0  0  0  0  0  0  0
   59.8516   27.9219   54.1875 H   0  0  0  0  0  0  0  0  0  0  0  0
   59.3786   28.8699   52.7369 H   0  0  0  0  0  0  0  0  0  0  0  0
   59.2059   27.0819   52.7369 H   0  0  0  0  0  0  0  0  0  0  0  0
   62.2024   27.4368   50.7447 H   0  0  0  0  0  0  0  0  0  0  0  0
   60.4000   27.1820   50.7143 H   0  0  0  0  0  0  0  0  0  0  0  0
   61.2208   29.2086   49.4179 H   0  0  0  0  0  0  0  0  0  0  0  0
   59.9800   29.5426   50.6716 H   0  0  0  0  0  0  0  0  0  0  0  0
   60.9195   30.3643   48.7023 H   0  0  0  0  0  0  0  0  0  0  0  0
   60.3224   35.3752   47.6815 H   0  0  0  0  0  0  0  0  0  0  0  0
   60.9539   34.7517   50.0110 H   0  0  0  0  0  0  0  0  0  0  0  0
  1  2  1  0
  2  3  2  0
  3  4  1  0
  4  5  2  0
  5  6  1  0
  6  7  1  0
  7  8  1  0
  7  9  1  0
  9 10  1  0
 10 11  2  0
 11 12  1  0
 12 13  1  0
 13 14  2  0
 14 15  1  0
 15 16  2  0
 16 17  1  0
 17 18  1  0
 18 19  2  0
 18 20  1  0
 20 21  1  0
 21 22  2  0
 22 23  1  0
 23 24  2  0
 24 25  1  0
 25 26  1  0
 26 27  2  0
 26 28  1  0
 28 29  1  0
 29 30  1  0
 30 31  1  0
 31 32  1  0
 31 33  1  0
 33 34  1  0
 25 35  2  0
 17 36  2  0
  5 37  1  0
 37 38  2  0
 38  2  1  0
 36 10  1  0
 36 13  1  0
 35 21  1  0
 34 28  1  0
  1 39  1  0
  1 40  1  0
  1 41  1  0
  3 42  1  0
  4 43  1  0
  6 44  1  0
  6 45  1  0
  7 46  1  1
  8 47  1  0
  8 48  1  0
  8 49  1  0
  9 50  1  0
  9 51  1  0
 11 52  1  0
 12 53  1  0
 14 54  1  0
 15 55  1  0
 16 56  1  0
 22 57  1  0
 23 58  1  0
 24 59  1  0
 29 60  1  0
 29 61  1  0
 30 62  1  0
 30 63  1  0
 32 64  1  0
 32 65  1  0
 32 66  1  0
 33 67  1  0
 33 68  1  0
 34 69  1  0
 34 70  1  0
 35 71  1  0
 37 72  1  0
 38 73  1  0
M  CHG  2   7   1  20  -1
M  END
>  <UniqueID>  (87) 
83

>  <SMILES>  (87) 
Cc1ccc(C[N@H+](C)Cc2c[nH]c3cccc(C(=O)[N-]c4cccc(C(=O)N5CCN(C)CC5)c4)c23)cc1

>  <Energy>  (87) 
135.21874127208508

>  <Genealogy>  (87) 
Cc1ccc(C[NH+](C)Cc2c[nH]c3cccc(C(=O)[N-]c4cccc(C(=O)N5CCN(C)CC5)c4)c23)cc1 (protonated)
Cc1ccc(C[N@H+](C)Cc2c[nH]c3cccc(C(=O)[N-]c4cccc(C(=O)N5CCN(C)CC5)c4)c23)cc1 (chirality)
Cc1ccc(C[N@H+](C)Cc2c[nH]c3cccc(C(=O)[N-]c4cccc(C(=O)N5CCN(C)CC5)c4)c23)cc1 (3D coordinates assigned)
Cc1ccc(C[N@H+](C)Cc2c[nH]c3cccc(C(=O)[N-]c4cccc(C(=O)N5CCN(C)CC5)c4)c23)cc1 (nonaromatic ring conformer: 135.21874127208508 kcal/mol)

>  <smiles>  (87) 
Cc1ccc(CN(C)Cc2c[nH]c3cccc(C(=O)Nc4cccc(C(=O)N5CCN(C)CC5)c4)c23)cc1

>  <score_type>  (87) 
oracle

>  <origin>  (87) 
adg

>  <m_score__min__energy>  (87) 
-10.119999999999999

>  <m_primary>  (87) 
energy

$$$$
87:0
     RDKit          3D

 70 74  0  0  0  0  0  0  0  0999 V2000
   62.3000   29.7760   51.4860 O   0  0  0  0  0  0  0  0  0  0  0  0
   62.1540   30.7180   50.6640 C   0  0  0  0  0  0  0  0  0  0  0  0
   63.0080   31.8650   50.7780 N   0  0  0  0  0  0  0  0  0  0  0  0
   62.5690   33.2080   51.1480 C   0  0  0  0  0  0  0  0  0  0  0  0
   62.4650   34.0890   49.9320 C   0  0  0  0  0  0  0  0  0  0  0  0
   62.9810   35.2410   49.9600 O   0  0  0  0  0  0  0  0  0  0  0  0
   61.7560   33.6510   48.7490 N   0  0  0  0  0  0  0  0  0  0  0  0
   62.4900   33.1930   47.5650 C   0  0  0  0  0  0  0  0  0  0  0  0
   62.0160   33.9780   46.3460 C   0  0  0  0  0  0  0  0  0  0  0  0
   60.5150   33.9410   46.2290 C   0  0  0  0  0  0  0  0  0  0  0  0
   59.9160   34.1860   44.9820 C   0  0  0  0  0  0  0  0  0  0  0  0
   58.5220   34.2320   44.8600 C   0  0  0  0  0  0  0  0  0  0  0  0
   57.7160   34.0340   45.9830 C   0  0  0  0  0  0  0  0  0  0  0  0
   58.3000   33.7990   47.2310 C   0  0  0  0  0  0  0  0  0  0  0  0
   59.6980   33.7680   47.3720 C   0  0  0  0  0  0  0  0  0  0  0  0
   60.2910   33.5150   48.7420 C   0  0  0  0  0  0  0  0  0  0  0  0
   61.1510   30.5820   49.5880 C   0  0  0  0  0  0  0  0  0  0  0  0
   61.5720   30.3790   48.2640 C   0  0  0  0  0  0  0  0  0  0  0  0
   60.6340   30.2420   47.2360 C   0  0  0  0  0  0  0  0  0  0  0  0
   59.2600   30.3170   47.5150 C   0  0  0  0  0  0  0  0  0  0  0  0
   58.2600   30.1530   46.4390 C   0  0  0  0  0  0  0  0  0  0  0  0
   57.8040   31.1910   45.8890 O   0  0  0  0  0  0  0  0  0  0  0  0
   57.7800   28.8540   46.0230 N   0  0  0  0  0  0  0  0  0  0  0  0
   56.9780   28.6700   44.7990 C   0  0  0  0  0  0  0  0  0  0  0  0
   57.8220   28.0950   43.6540 C   0  0  0  0  0  0  0  0  0  0  0  0
   57.8970   26.5620   43.6770 C   0  0  0  0  0  0  0  0  0  0  0  0
   57.6660   26.0570   45.0390 N   0  0  0  0  0  0  0  0  0  0  0  0
   56.7650   24.9510   45.2290 C   0  0  0  0  0  0  0  0  0  0  0  0
   55.7330   25.1070   45.9380 O   0  0  0  0  0  0  0  0  0  0  0  0
   57.0210   23.6430   44.5800 C   0  0  0  0  0  0  0  0  0  0  0  0
   58.2150   22.9480   44.8430 C   0  0  0  0  0  0  0  0  0  0  0  0
   58.4800   21.7240   44.2220 C   0  0  0  0  0  0  0  0  0  0  0  0
   57.5510   21.1740   43.3390 C   0  0  0  0  0  0  0  0  0  0  0  0
   56.3530   21.8460   43.0770 C   0  0  0  0  0  0  0  0  0  0  0  0
   56.0840   23.0740   43.6910 C   0  0  0  0  0  0  0  0  0  0  0  0
   54.9220   23.7150   43.3960 F   0  0  0  0  0  0  0  0  0  0  0  0
   58.4970   26.4810   46.1790 C   0  0  0  0  0  0  0  0  0  0  0  0
   57.9380   27.7030   46.9230 C   0  0  0  0  0  0  0  0  0  0  0  0
   58.8380   30.4730   48.8450 C   0  0  0  0  0  0  0  0  0  0  0  0
   59.7770   30.6020   49.8740 C   0  0  0  0  0  0  0  0  0  0  0  0
   61.5838   33.1447   51.6331 H   0  0  0  0  0  0  0  0  0  0  0  0
   63.3073   33.6434   51.8374 H   0  0  0  0  0  0  0  0  0  0  0  0
   63.5673   33.3587   47.7131 H   0  0  0  0  0  0  0  0  0  0  0  0
   62.3055   32.1200   47.4081 H   0  0  0  0  0  0  0  0  0  0  0  0
   62.3434   35.0237   46.4422 H   0  0  0  0  0  0  0  0  0  0  0  0
   62.4487   33.5195   45.4446 H   0  0  0  0  0  0  0  0  0  0  0  0
   60.5470   34.3429   44.0948 H   0  0  0  0  0  0  0  0  0  0  0  0
   58.0617   34.4241   43.8796 H   0  0  0  0  0  0  0  0  0  0  0  0
   56.6207   34.0630   45.8854 H   0  0  0  0  0  0  0  0  0  0  0  0
   57.6597   33.6369   48.1106 H   0  0  0  0  0  0  0  0  0  0  0  0
   59.8649   34.2396   49.4514 H   0  0  0  0  0  0  0  0  0  0  0  0
   60.0471   32.4815   49.0291 H   0  0  0  0  0  0  0  0  0  0  0  0
   62.6464   30.3274   48.0340 H   0  0  0  0  0  0  0  0  0  0  0  0
   60.9743   30.0746   46.2035 H   0  0  0  0  0  0  0  0  0  0  0  0
   56.1502   27.9785   45.0148 H   0  0  0  0  0  0  0  0  0  0  0  0
   56.5962   29.6530   44.4859 H   0  0  0  0  0  0  0  0  0  0  0  0
   57.3778   28.4101   42.6983 H   0  0  0  0  0  0  0  0  0  0  0  0
   58.8464   28.4769   43.7757 H   0  0  0  0  0  0  0  0  0  0  0  0
   57.1302   26.1516   43.0035 H   0  0  0  0  0  0  0  0  0  0  0  0
   58.8982   26.2490   43.3458 H   0  0  0  0  0  0  0  0  0  0  0  0
   58.9482   23.3721   45.5448 H   0  0  0  0  0  0  0  0  0  0  0  0
   59.4215   21.1945   44.4298 H   0  0  0  0  0  0  0  0  0  0  0  0
   57.7606   20.2118   42.8488 H   0  0  0  0  0  0  0  0  0  0  0  0
   55.6190   21.4072   42.3852 H   0  0  0  0  0  0  0  0  0  0  0  0
   58.5680   25.6436   46.8887 H   0  0  0  0  0  0  0  0  0  0  0  0
   59.4786   26.7692   45.7747 H   0  0  0  0  0  0  0  0  0  0  0  0
   56.9572   27.4447   47.3489 H   0  0  0  0  0  0  0  0  0  0  0  0
   58.6481   27.9794   47.7163 H   0  0  0  0  0  0  0  0  0  0  0  0
   57.7634   30.4939   49.0792 H   0  0  0  0  0  0  0  0  0  0  0  0
   59.4365   30.7198   50.9133 H   0  0  0  0  0  0  0  0  0  0  0  0
  1  2  2  0
  2  3  1  0
  3  4  1  0
  4  5  1  0
  5  6  2  0
  5  7  1  0
  7  8  1  0
  8  9  1  0
  9 10  1  0
 10 11  2  0
 11 12  1  0
 12 13  2  0
 13 14  1  0
 14 15  2  0
 15 16  1  0
  2 17  1  0
 17 18  2  0
 18 19  1  0
 19 20  2  0
 20 21  1  0
 21 22  2  0
 21 23  1  0
 23 24  1  0
 24 25  1  0
 25 26  1  0
 26 27  1  0
 27 28  1  0
 28 29  2  0
 28 30  1  0
 30 31  2  0
 31 32  1  0
 32 33  2  0
 33 34  1  0
 34 35  2  0
 35 36  1  0
 27 37  1  0
 37 38  1  0
 20 39  1  0
 39 40  2  0
 16  7  1  0
 40 17  1  0
 15 10  1  0
 38 23  1  0
 35 30  1  0
  4 41  1  0
  4 42  1  0
  8 43  1  0
  8 44  1  0
  9 45  1  0
  9 46  1  0
 11 47  1  0
 12 48  1  0
 13 49  1  0
 14 50  1  0
 16 51  1  0
 16 52  1  0
 18 53  1  0
 19 54  1  0
 24 55  1  0
 24 56  1  0
 25 57  1  0
 25 58  1  0
 26 59  1  0
 26 60  1  0
 31 61  1  0
 32 62  1  0
 33 63  1  0
 34 64  1  0
 37 65  1  0
 37 66  1  0
 38 67  1  0
 38 68  1  0
 39 69  1  0
 40 70  1  0
M  CHG  1   3  -1
M  END
>  <UniqueID>  (88) 
84

>  <SMILES>  (88) 
O=C([N-]CC(=O)N1CCc2ccccc2C1)c1ccc(C(=O)N2CCCN(C(=O)c3ccccc3F)CC2)cc1

>  <Energy>  (88) 
92.72442878302046

>  <Genealogy>  (88) 
O=C([N-]CC(=O)N1CCc2ccccc2C1)c1ccc(C(=O)N2CCCN(C(=O)c3ccccc3F)CC2)cc1 (protonated)
O=C([N-]CC(=O)N1CCc2ccccc2C1)c1ccc(C(=O)N2CCCN(C(=O)c3ccccc3F)CC2)cc1 (3D coordinates assigned)
O=C([N-]CC(=O)N1CCc2ccccc2C1)c1ccc(C(=O)N2CCCN(C(=O)c3ccccc3F)CC2)cc1 (nonaromatic ring conformer: 92.72442878302046 kcal/mol)

>  <smiles>  (88) 
O=C(NCC(=O)N1CCc2ccccc2C1)c1ccc(C(=O)N2CCCN(C(=O)c3ccccc3F)CC2)cc1

>  <score_type>  (88) 
oracle

>  <origin>  (88) 
adg

>  <m_score__min__energy>  (88) 
-9.8100000000000005

>  <m_primary>  (88) 
energy

$$$$
88:0
     RDKit          3D

 50 52  0  0  0  0  0  0  0  0999 V2000
   58.8840   30.0110   49.8730 C   0  0  0  0  0  0  0  0  0  0  0  0
   59.7600   30.9100   49.1170 N   0  0  0  0  0  0  0  0  0  0  0  0
   61.1010   30.4680   48.7020 C   0  0  0  0  0  0  0  0  0  0  0  0
   61.9940   31.6590   48.4760 C   0  0  0  0  0  0  0  0  0  0  0  0
   62.2800   32.0810   47.1670 C   0  0  0  0  0  0  0  0  0  0  0  0
   63.1430   33.1590   46.9460 C   0  0  0  0  0  0  0  0  0  0  0  0
   63.7260   33.8220   48.0290 C   0  0  0  0  0  0  0  0  0  0  0  0
   63.4460   33.4070   49.3340 C   0  0  0  0  0  0  0  0  0  0  0  0
   62.5870   32.3270   49.5610 C   0  0  0  0  0  0  0  0  0  0  0  0
   59.3500   32.2790   48.9300 C   0  0  0  0  0  0  0  0  0  0  0  0
   59.2700   33.0450   49.9280 O   0  0  0  0  0  0  0  0  0  0  0  0
   59.0410   32.8180   47.5900 C   0  0  0  0  0  0  0  0  0  0  0  0
   59.3670   34.1430   47.2620 C   0  0  0  0  0  0  0  0  0  0  0  0
   59.0870   34.6420   45.9890 C   0  0  0  0  0  0  0  0  0  0  0  0
   58.4880   33.8220   45.0290 C   0  0  0  0  0  0  0  0  0  0  0  0
   58.1660   32.4950   45.3420 C   0  0  0  0  0  0  0  0  0  0  0  0
   57.4050   31.4490   44.1480 S   0  0  0  0  0  0  0  0  0  0  0  0
   55.9830   31.1410   44.5290 O   0  0  0  0  0  0  0  0  0  0  0  0
   57.4050   32.1490   42.8180 O   0  0  0  0  0  0  0  0  0  0  0  0
   58.2950   29.9650   44.0140 N   0  0  0  0  0  0  0  0  0  0  0  0
   58.3080   28.9370   45.0210 C   0  0  0  0  0  0  0  0  0  0  0  0
   59.3510   28.9140   45.9550 C   0  0  0  0  0  0  0  0  0  0  0  0
   59.4010   27.9250   46.9360 C   0  0  0  0  0  0  0  0  0  0  0  0
   58.4050   26.9490   47.0090 C   0  0  0  0  0  0  0  0  0  0  0  0
   58.4970   26.0070   47.9810 F   0  0  0  0  0  0  0  0  0  0  0  0
   57.3310   26.9590   46.0930 C   0  0  0  0  0  0  0  0  0  0  0  0
   56.2370   25.9550   46.1620 C   0  0  0  0  0  0  0  0  0  0  0  0
   54.8690   26.3530   46.0990 N   0  0  0  0  0  0  0  0  0  0  0  0
   56.5090   24.7280   46.2710 O   0  0  0  0  0  0  0  0  0  0  0  0
   57.2980   27.9590   45.1000 C   0  0  0  0  0  0  0  0  0  0  0  0
   58.4480   31.9950   46.6190 C   0  0  0  0  0  0  0  0  0  0  0  0
   59.0382   30.1693   50.9506 H   0  0  0  0  0  0  0  0  0  0  0  0
   57.8348   30.2212   49.6180 H   0  0  0  0  0  0  0  0  0  0  0  0
   59.1213   28.9676   49.6180 H   0  0  0  0  0  0  0  0  0  0  0  0
   61.5341   29.8332   49.4890 H   0  0  0  0  0  0  0  0  0  0  0  0
   61.0173   29.8990   47.7643 H   0  0  0  0  0  0  0  0  0  0  0  0
   61.8231   31.5612   46.3120 H   0  0  0  0  0  0  0  0  0  0  0  0
   63.3630   33.4852   45.9188 H   0  0  0  0  0  0  0  0  0  0  0  0
   64.4048   34.6699   47.8547 H   0  0  0  0  0  0  0  0  0  0  0  0
   63.9031   33.9319   50.1858 H   0  0  0  0  0  0  0  0  0  0  0  0
   62.3753   32.0001   50.5897 H   0  0  0  0  0  0  0  0  0  0  0  0
   59.8452   34.7910   48.0113 H   0  0  0  0  0  0  0  0  0  0  0  0
   59.3385   35.6837   45.7407 H   0  0  0  0  0  0  0  0  0  0  0  0
   58.2691   34.2188   44.0267 H   0  0  0  0  0  0  0  0  0  0  0  0
   58.8050   29.8010   43.1180 H   0  0  0  0  0  0  0  0  0  0  0  0
   60.1370   29.6824   45.9142 H   0  0  0  0  0  0  0  0  0  0  0  0
   60.2310   27.9133   47.6578 H   0  0  0  0  0  0  0  0  0  0  0  0
   54.4930   27.0880   46.7370 H   0  0  0  0  0  0  0  0  0  0  0  0
   56.4704   27.9756   44.3756 H   0  0  0  0  0  0  0  0  0  0  0  0
   58.2034   30.9507   46.8632 H   0  0  0  0  0  0  0  0  0  0  0  0
  1  2  1  0
  2  3  1  0
  3  4  1  0
  4  5  2  0
  5  6  1  0
  6  7  2  0
  7  8  1  0
  8  9  2  0
  2 10  1  0
 10 11  2  0
 10 12  1  0
 12 13  2  0
 13 14  1  0
 14 15  2  0
 15 16  1  0
 16 17  1  0
 17 18  2  0
 17 19  2  0
 17 20  1  0
 20 21  1  0
 21 22  2  0
 22 23  1  0
 23 24  2  0
 24 25  1  0
 24 26  1  0
 26 27  1  0
 27 28  1  0
 27 29  2  0
 26 30  2  0
 16 31  2  0
  9  4  1  0
 31 12  1  0
 30 21  1  0
  1 32  1  0
  1 33  1  0
  1 34  1  0
  3 35  1  0
  3 36  1  0
  5 37  1  0
  6 38  1  0
  7 39  1  0
  8 40  1  0
  9 41  1  0
 13 42  1  0
 14 43  1  0
 15 44  1  0
 20 45  1  0
 22 46  1  0
 23 47  1  0
 28 48  1  0
 30 49  1  0
 31 50  1  0
M  CHG  1  28  -1
M  END
>  <UniqueID>  (89) 
85

>  <SMILES>  (89) 
CN(Cc1ccccc1)C(=O)c1cccc(S(=O)(=O)Nc2ccc(F)c(C([NH-])=O)c2)c1

>  <Energy>  (89) 
55.824615433134625

>  <Genealogy>  (89) 
CN(Cc1ccccc1)C(=O)c1cccc(S(=O)(=O)Nc2ccc(F)c(C([NH-])=O)c2)c1 (protonated)
CN(Cc1ccccc1)C(=O)c1cccc(S(=O)(=O)Nc2ccc(F)c(C([NH-])=O)c2)c1 (3D coordinates assigned)
CN(Cc1ccccc1)C(=O)c1cccc(S(=O)(=O)Nc2ccc(F)c(C([NH-])=O)c2)c1 (optimized conformer: 55.824615433134625 kcal/mol)

>  <smiles>  (89) 
CN(Cc1ccccc1)C(=O)c1cccc(S(=O)(=O)Nc2ccc(F)c(C(N)=O)c2)c1

>  <score_type>  (89) 
oracle

>  <origin>  (89) 
adg

>  <m_score__min__energy>  (89) 
-13.789999999999999

>  <m_primary>  (89) 
energy

$$$$
89:0
     RDKit          3D

 59 62  0  0  0  0  0  0  0  0999 V2000
   58.9600   29.3840   50.6160 H   0  0  0  0  0  0  0  0  0  0  0  0
   59.2580   29.9850   51.3470 O   0  0  0  0  0  0  0  0  0  0  0  0
   60.6030   29.6760   51.5800 C   0  0  0  0  0  0  0  0  0  0  0  0
   60.8786   29.9838   52.5995 H   0  0  0  0  0  0  0  0  0  0  0  0
   61.2329   30.2094   50.8529 H   0  0  0  0  0  0  0  0  0  0  0  0
   60.8140   28.1690   51.4280 C   0  0  0  0  0  0  0  0  0  0  0  0
   60.0068   27.6412   51.9570 H   0  0  0  0  0  0  0  0  0  0  0  0
   61.7964   27.9165   51.8535 H   0  0  0  0  0  0  0  0  0  0  0  0
   60.8070   27.7390   49.9560 C   0  0  0  0  0  0  0  0  0  0  0  0
   60.4333   26.7068   49.8862 H   0  0  0  0  0  0  0  0  0  0  0  0
   61.8345   27.8083   49.5695 H   0  0  0  0  0  0  0  0  0  0  0  0
   59.9720   28.5900   49.1700 O   0  0  0  0  0  0  0  0  0  0  0  0
   59.7080   28.4350   47.7980 C   0  0  0  0  0  0  0  0  0  0  0  0
   60.7090   28.1350   46.8580 C   0  0  0  0  0  0  0  0  0  0  0  0
   61.7531   28.0100   47.1809 H   0  0  0  0  0  0  0  0  0  0  0  0
   60.3680   27.9970   45.5120 C   0  0  0  0  0  0  0  0  0  0  0  0
   61.1444   27.7574   44.7705 H   0  0  0  0  0  0  0  0  0  0  0  0
   59.0790   28.1580   45.1160 N   0  0  0  0  0  0  0  0  0  0  0  0
   58.0850   28.4620   45.9940 C   0  0  0  0  0  0  0  0  0  0  0  0
   56.6950   28.6120   45.5070 C   0  0  0  0  0  0  0  0  0  0  0  0
   55.9790   27.5890   45.3500 O   0  0  0  0  0  0  0  0  0  0  0  0
   56.1590   29.8910   45.1300 N   0  0  0  0  0  0  0  0  0  0  0  0
   56.7720   30.7990   44.4280 C   0  0  0  0  0  0  0  0  0  0  0  0
   56.8000   30.7370   43.0650 N   0  0  0  0  0  0  0  0  0  0  0  0
   57.4510   31.6660   42.3170 C   0  0  0  0  0  0  0  0  0  0  0  0
   57.4494   31.5864   41.2199 H   0  0  0  0  0  0  0  0  0  0  0  0
   58.1210   32.7200   42.9370 C   0  0  0  0  0  0  0  0  0  0  0  0
   58.6536   33.4689   42.3324 H   0  0  0  0  0  0  0  0  0  0  0  0
   58.1120   32.8200   44.3380 C   0  0  0  0  0  0  0  0  0  0  0  0
   58.8270   33.9180   45.0260 C   0  0  0  0  0  0  0  0  0  0  0  0
   58.6320   35.1070   44.6550 O   0  0  0  0  0  0  0  0  0  0  0  0
   59.7460   33.6750   46.1550 C   0  0  0  0  0  0  0  0  0  0  0  0
   61.1230   33.8560   46.1320 C   0  0  0  0  0  0  0  0  0  0  0  0
   61.6924   34.2182   45.2633 H   0  0  0  0  0  0  0  0  0  0  0  0
   61.6690   33.5240   47.3300 N   0  0  0  0  0  0  0  0  0  0  0  0
   63.0940   33.6230   47.6870 C   0  0  0  0  0  0  0  0  0  0  0  0
   63.5921   34.2981   46.9756 H   0  0  0  0  0  0  0  0  0  0  0  0
   63.2580   34.2180   49.0900 C   0  0  0  0  0  0  0  0  0  0  0  0
   63.0450   33.4452   49.8432 H   0  0  0  0  0  0  0  0  0  0  0  0
   64.2892   34.5793   49.2168 H   0  0  0  0  0  0  0  0  0  0  0  0
   62.5575   35.0566   49.2168 H   0  0  0  0  0  0  0  0  0  0  0  0
   63.7600   32.2480   47.5880 C   0  0  0  0  0  0  0  0  0  0  0  0
   63.9487   31.8583   48.5992 H   0  0  0  0  0  0  0  0  0  0  0  0
   63.0966   31.5574   47.0468 H   0  0  0  0  0  0  0  0  0  0  0  0
   64.7132   32.3404   47.0468 H   0  0  0  0  0  0  0  0  0  0  0  0
   60.6380   33.1270   48.1090 C   0  0  0  0  0  0  0  0  0  0  0  0
   60.6620   32.6670   49.4290 C   0  0  0  0  0  0  0  0  0  0  0  0
   61.6060   32.6199   49.9918 H   0  0  0  0  0  0  0  0  0  0  0  0
   59.4840   32.2770   50.0040 N   0  0  0  0  0  0  0  0  0  0  0  0
   59.4910   31.9280   50.9890 H   0  0  0  0  0  0  0  0  0  0  0  0
   58.2980   32.3160   49.3210 C   0  0  0  0  0  0  0  0  0  0  0  0
   57.3728   31.9850   49.8153 H   0  0  0  0  0  0  0  0  0  0  0  0
   58.2530   32.7750   47.9950 C   0  0  0  0  0  0  0  0  0  0  0  0
   57.3090   32.8017   47.4309 H   0  0  0  0  0  0  0  0  0  0  0  0
   59.4530   33.1960   47.4210 C   0  0  0  0  0  0  0  0  0  0  0  0
   57.4450   31.8360   45.0850 C   0  0  0  0  0  0  0  0  0  0  0  0
   57.4512   31.8798   46.1841 H   0  0  0  0  0  0  0  0  0  0  0  0
   58.3900   28.5970   47.3570 C   0  0  0  0  0  0  0  0  0  0  0  0
   57.5932   28.8301   48.0786 H   0  0  0  0  0  0  0  0  0  0  0  0
  1  2  1  0
  2  3  1  0
  3  4  1  0
  3  5  1  0
  3  6  1  0
  6  7  1  0
  6  8  1  0
  6  9  1  0
  9 10  1  0
  9 11  1  0
  9 12  1  0
 12 13  1  0
 13 14  2  0
 14 15  1  0
 14 16  1  0
 16 17  1  0
 16 18  2  0
 18 19  1  0
 19 20  1  0
 20 21  2  0
 20 22  1  0
 22 23  2  0
 23 24  1  0
 24 25  1  0
 25 26  1  0
 25 27  2  0
 27 28  1  0
 27 29  1  0
 29 30  1  0
 30 31  2  0
 30 32  1  0
 32 33  2  0
 33 34  1  0
 33 35  1  0
 35 36  1  0
 36 37  1  0
 36 38  1  0
 38 39  1  0
 38 40  1  0
 38 41  1  0
 36 42  1  0
 42 43  1  0
 42 44  1  0
 42 45  1  0
 35 46  1  0
 46 47  2  0
 47 48  1  0
 47 49  1  0
 49 50  1  0
 49 51  2  0
 51 52  1  0
 51 53  1  0
 53 54  1  0
 53 55  2  0
 29 56  2  0
 56 57  1  0
 19 58  2  0
 58 59  1  0
 58 13  1  0
 56 23  1  0
 55 32  1  0
 55 46  1  0
M  CHG  2  24  -1  49   1
M  END
>  <UniqueID>  (90) 
86

>  <SMILES>  (90) 
CC(C)n1cc(C(=O)c2cc[n-]/c(=N\C(=O)c3cc(OCCCO)ccn3)c2)c2cc[nH+]cc21

>  <Energy>  (90) 
103.54276867804366

>  <Genealogy>  (90) 
CC(C)n1cc(C(=O)c2cc[n-]c(=NC(=O)c3cc(OCCCO)ccn3)c2)c2cc[nH+]cc21 (protonated)
CC(C)n1cc(C(=O)c2cc[n-]/c(=N\C(=O)c3cc(OCCCO)ccn3)c2)c2cc[nH+]cc21 (cis-trans isomerization)
CC(C)n1cc(C(=O)c2cc[n-]/c(=N\C(=O)c3cc(OCCCO)ccn3)c2)c2cc[nH+]cc21 (3D coordinates assigned)
CC(C)n1cc(C(=O)c2cc[n-]/c(=N\C(=O)c3cc(OCCCO)ccn3)c2)c2cc[nH+]cc21 (optimized conformer: 103.54276867804366 kcal/mol)

>  <smiles>  (90) 
CC(C)n1cc(C(=O)c2cc[nH]c(=NC(=O)c3cc(OCCCO)ccn3)c2)c2ccncc21

>  <score_type>  (90) 
oracle

>  <origin>  (90) 
adg

>  <m_score__min__energy>  (90) 
-9.7699999999999996

>  <m_primary>  (90) 
energy

$$$$
