0:0
     RDKit          3D

 47 49  0  0  0  0  0  0  0  0999 V2000
   60.0276   33.2282   50.0075 H   0  0  0  0  0  0  0  0  0  0  0  0
   59.2400   33.5290   50.7140 C   0  0  0  0  0  0  0  0  0  0  0  0
   59.1025   34.5912   50.9648 H   0  0  0  0  0  0  0  0  0  0  0  0
   58.4510   32.6050   51.2670 C   0  0  0  0  0  0  0  0  0  0  0  0
   57.2230   32.9750   52.3560 S   0  0  0  0  0  0  0  0  0  0  0  0
   56.7220   31.3740   52.5300 C   0  0  0  0  0  0  0  0  0  0  0  0
   55.6980   30.9320   53.2780 C   0  0  0  0  0  0  0  0  0  0  0  0
   55.8455   30.8472   54.3648 H   0  0  0  0  0  0  0  0  0  0  0  0
   54.3820   30.5530   52.7180 C   0  0  0  0  0  0  0  0  0  0  0  0
   53.5550   31.5620   52.1880 C   0  0  0  0  0  0  0  0  0  0  0  0
   53.9265   32.5962   52.1401 H   0  0  0  0  0  0  0  0  0  0  0  0
   52.2650   31.2700   51.7200 C   0  0  0  0  0  0  0  0  0  0  0  0
   51.4130   32.3420   51.1570 C   0  0  0  0  0  0  0  0  0  0  0  0
   51.3710   32.5410   49.9150 O   0  0  0  0  0  0  0  0  0  0  0  0
   50.6470   33.1460   51.9950 O   0  0  0  0  0  0  0  0  0  0  0  0
   51.7930   29.9530   51.8040 C   0  0  0  0  0  0  0  0  0  0  0  0
   50.7825   29.7116   51.4426 H   0  0  0  0  0  0  0  0  0  0  0  0
   52.5940   28.9460   52.3420 C   0  0  0  0  0  0  0  0  0  0  0  0
   52.2025   27.9202   52.4089 H   0  0  0  0  0  0  0  0  0  0  0  0
   53.8940   29.2220   52.8000 C   0  0  0  0  0  0  0  0  0  0  0  0
   54.7090   28.0960   53.3250 C   0  0  0  0  0  0  0  0  0  0  0  0
   54.3420   26.9010   53.1570 O   0  0  0  0  0  0  0  0  0  0  0  0
   55.8810   28.3690   54.0420 O   0  0  0  0  0  0  0  0  0  0  0  0
   56.8980   27.3950   54.2500 C   0  0  0  0  0  0  0  0  0  0  0  0
   57.0505   27.2489   55.3295 H   0  0  0  0  0  0  0  0  0  0  0  0
   56.5935   26.4430   53.7906 H   0  0  0  0  0  0  0  0  0  0  0  0
   57.8359   27.7403   53.7906 H   0  0  0  0  0  0  0  0  0  0  0  0
   57.5340   30.5860   51.7130 C   0  0  0  0  0  0  0  0  0  0  0  0
   57.3850   29.3370   51.6080 O   0  0  0  0  0  0  0  0  0  0  0  0
   58.5050   31.2620   51.0240 N   0  0  0  0  0  0  0  0  0  0  0  0
   59.4350   30.6040   50.0930 C   0  0  0  0  0  0  0  0  0  0  0  0
   60.3924   31.1457   50.0934 H   0  0  0  0  0  0  0  0  0  0  0  0
   59.5895   29.5643   50.4174 H   0  0  0  0  0  0  0  0  0  0  0  0
   58.8570   30.6020   48.6760 C   0  0  0  0  0  0  0  0  0  0  0  0
   59.3008   29.7726   48.1059 H   0  0  0  0  0  0  0  0  0  0  0  0
   57.7656   30.4801   48.7388 H   0  0  0  0  0  0  0  0  0  0  0  0
   59.1600   31.8990   47.9780 C   0  0  0  0  0  0  0  0  0  0  0  0
   60.4910   32.2910   47.7590 C   0  0  0  0  0  0  0  0  0  0  0  0
   61.3154   31.6592   48.1211 H   0  0  0  0  0  0  0  0  0  0  0  0
   60.7710   33.4820   47.0820 C   0  0  0  0  0  0  0  0  0  0  0  0
   61.8148   33.7897   46.9215 H   0  0  0  0  0  0  0  0  0  0  0  0
   59.7280   34.2820   46.6090 C   0  0  0  0  0  0  0  0  0  0  0  0
   59.9508   35.2191   46.0779 H   0  0  0  0  0  0  0  0  0  0  0  0
   58.4000   33.8910   46.8110 C   0  0  0  0  0  0  0  0  0  0  0  0
   57.5791   34.5202   46.4365 H   0  0  0  0  0  0  0  0  0  0  0  0
   58.1150   32.7020   47.4880 C   0  0  0  0  0  0  0  0  0  0  0  0
   57.0699   32.3934   47.6380 H   0  0  0  0  0  0  0  0  0  0  0  0
  1  2  1  0
  2  3  1  0
  2  4  2  0
  4  5  1  0
  5  6  1  0
  6  7  2  0
  7  8  1  0
  7  9  1  0
  9 10  2  0
 10 11  1  0
 10 12  1  0
 12 13  1  0
 13 14  2  0
 13 15  1  0
 12 16  2  0
 16 17  1  0
 16 18  1  0
 18 19  1  0
 18 20  2  0
 20 21  1  0
 21 22  2  0
 21 23  1  0
 23 24  1  0
 24 25  1  0
 24 26  1  0
 24 27  1  0
  6 28  1  0
 28 29  2  0
 28 30  1  0
 30 31  1  0
 31 32  1  0
 31 33  1  0
 31 34  1  0
 34 35  1  0
 34 36  1  0
 34 37  1  0
 37 38  2  0
 38 39  1  0
 38 40  1  0
 40 41  1  0
 40 42  2  0
 42 43  1  0
 42 44  1  0
 44 45  1  0
 44 46  2  0
 46 47  1  0
 30  4  1  0
 46 37  1  0
 20  9  1  0
M  CHG  1  15  -1
M  END
>  <UniqueID>  (1) 
1

>  <SMILES>  (1) 
C=c1s/c(=C\c2cc(C(=O)[O-])ccc2C(=O)OC)c(=O)n1CCc1ccccc1

>  <Energy>  (1) 
87.87790381892276

>  <Genealogy>  (1) 
C=c1sc(=Cc2cc(C(=O)[O-])ccc2C(=O)OC)c(=O)n1CCc1ccccc1 (protonated)
C=c1s/c(=C\c2cc(C(=O)[O-])ccc2C(=O)OC)c(=O)n1CCc1ccccc1 (cis-trans isomerization)
C=c1s/c(=C\c2cc(C(=O)[O-])ccc2C(=O)OC)c(=O)n1CCc1ccccc1 (3D coordinates assigned)
C=c1s/c(=C\c2cc(C(=O)[O-])ccc2C(=O)OC)c(=O)n1CCc1ccccc1 (optimized conformer: 87.87790381892276 kcal/mol)

>  <smiles>  (1) 
C=c1sc(=Cc2cc(C(=O)O)ccc2C(=O)OC)c(=O)n1CCc1ccccc1

>  <score_type>  (1) 
oracle

>  <origin>  (1) 
adg

>  <m_score__min__energy>  (1) 
-11.779999999999999

>  <m_primary>  (1) 
energy

$$$$
1:0
     RDKit          3D

 64 67  0  0  0  0  0  0  0  0999 V2000
   61.0971   33.1101   45.9408 H   0  0  0  0  0  0  0  0  0  0  0  0
   60.3070   33.4990   46.6000 C   0  0  0  0  0  0  0  0  0  0  0  0
   59.0150   33.8980   46.0020 C   0  0  0  0  0  0  0  0  0  0  0  0
   58.1030   34.3130   46.7620 O   0  0  0  0  0  0  0  0  0  0  0  0
   58.7390   33.7820   44.6000 N   0  0  0  0  0  0  0  0  0  0  0  0
   58.1420   32.6550   43.9440 C   0  0  0  0  0  0  0  0  0  0  0  0
   57.7890   32.7640   42.5940 C   0  0  0  0  0  0  0  0  0  0  0  0
   57.9701   33.7057   42.0551 H   0  0  0  0  0  0  0  0  0  0  0  0
   57.2080   31.6830   41.9280 C   0  0  0  0  0  0  0  0  0  0  0  0
   56.9175   31.7805   40.8715 H   0  0  0  0  0  0  0  0  0  0  0  0
   56.9950   30.4770   42.6020 C   0  0  0  0  0  0  0  0  0  0  0  0
   56.5277   29.6307   42.0773 H   0  0  0  0  0  0  0  0  0  0  0  0
   57.3750   30.3430   43.9440 C   0  0  0  0  0  0  0  0  0  0  0  0
   57.1470   28.8090   44.7770 S   0  0  0  0  0  0  0  0  0  0  0  0
   57.5460   27.6790   43.8720 O   0  0  0  0  0  0  0  0  0  0  0  0
   55.6920   28.6510   45.1180 O   0  0  0  0  0  0  0  0  0  0  0  0
   58.0910   28.7850   46.2400 N   0  0  0  0  0  0  0  0  0  0  0  0
   59.4340   29.3500   46.0030 C   0  0  0  0  0  0  0  0  0  0  0  0
   59.8105   28.9875   45.0351 H   0  0  0  0  0  0  0  0  0  0  0  0
   59.3558   30.4472   46.0014 H   0  0  0  0  0  0  0  0  0  0  0  0
   60.4150   28.9320   47.1120 C   0  0  0  0  0  0  0  0  0  0  0  0
   60.9821   28.0495   46.7809 H   0  0  0  0  0  0  0  0  0  0  0  0
   61.1014   29.7671   47.3154 H   0  0  0  0  0  0  0  0  0  0  0  0
   59.7130   28.6170   48.2950 O   0  0  0  0  0  0  0  0  0  0  0  0
   58.9410   27.4400   48.1150 C   0  0  0  0  0  0  0  0  0  0  0  0
   59.6120   26.5695   48.1594 H   0  0  0  0  0  0  0  0  0  0  0  0
   58.1854   27.4145   48.9140 H   0  0  0  0  0  0  0  0  0  0  0  0
   58.1900   27.4160   46.7640 C   0  0  0  0  0  0  0  0  0  0  0  0
   58.7405   26.7875   46.0485 H   0  0  0  0  0  0  0  0  0  0  0  0
   57.1809   27.0032   46.9102 H   0  0  0  0  0  0  0  0  0  0  0  0
   57.9480   31.4330   44.6130 C   0  0  0  0  0  0  0  0  0  0  0  0
   58.2476   31.3324   45.6666 H   0  0  0  0  0  0  0  0  0  0  0  0
   60.5530   33.5930   47.9160 C   0  0  0  0  0  0  0  0  0  0  0  0
   61.1613   34.4421   48.2609 H   0  0  0  0  0  0  0  0  0  0  0  0
   60.0640   32.6340   48.9430 C   0  0  0  0  0  0  0  0  0  0  0  0
   60.9160   31.9640   49.8490 C   0  0  0  0  0  0  0  0  0  0  0  0
   62.0054   32.0984   49.7775 H   0  0  0  0  0  0  0  0  0  0  0  0
   60.3810   31.1310   50.8360 C   0  0  0  0  0  0  0  0  0  0  0  0
   61.0522   30.6313   51.5500 H   0  0  0  0  0  0  0  0  0  0  0  0
   58.9990   30.9270   50.9240 C   0  0  0  0  0  0  0  0  0  0  0  0
   58.4360   30.1110   52.0140 C   0  0  0  0  0  0  0  0  0  0  0  0
   59.1570   29.8370   53.0110 O   0  0  0  0  0  0  0  0  0  0  0  0
   57.0890   29.6280   51.9790 N   0  0  0  0  0  0  0  0  0  0  0  0
   55.9010   30.4750   51.8860 C   0  0  0  0  0  0  0  0  0  0  0  0
   56.0082   31.3233   52.5780 H   0  0  0  0  0  0  0  0  0  0  0  0
   55.8049   30.8343   50.8508 H   0  0  0  0  0  0  0  0  0  0  0  0
   54.6370   29.6850   52.2510 C   0  0  0  0  0  0  0  0  0  0  0  0
   54.5249   28.8444   51.5504 H   0  0  0  0  0  0  0  0  0  0  0  0
   54.7417   29.3196   53.2833 H   0  0  0  0  0  0  0  0  0  0  0  0
   53.4080   30.5540   52.1760 C   0  0  0  0  0  0  0  0  0  0  0  0
   53.0880   31.2180   50.9800 C   0  0  0  0  0  0  0  0  0  0  0  0
   53.7134   31.0711   50.0871 H   0  0  0  0  0  0  0  0  0  0  0  0
   51.9770   32.0650   50.9210 C   0  0  0  0  0  0  0  0  0  0  0  0
   51.7271   32.5786   49.9809 H   0  0  0  0  0  0  0  0  0  0  0  0
   51.1830   32.2600   52.0560 C   0  0  0  0  0  0  0  0  0  0  0  0
   50.0750   33.0990   51.9960 O   0  0  0  0  0  0  0  0  0  0  0  0
   51.5030   31.6090   53.2520 C   0  0  0  0  0  0  0  0  0  0  0  0
   50.8808   31.7654   54.1455 H   0  0  0  0  0  0  0  0  0  0  0  0
   52.6120   30.7600   53.3140 C   0  0  0  0  0  0  0  0  0  0  0  0
   52.8616   30.2519   54.2571 H   0  0  0  0  0  0  0  0  0  0  0  0
   58.1500   31.5640   50.0100 C   0  0  0  0  0  0  0  0  0  0  0  0
   57.0643   31.3945   50.0607 H   0  0  0  0  0  0  0  0  0  0  0  0
   58.6770   32.4140   49.0340 C   0  0  0  0  0  0  0  0  0  0  0  0
   57.9996   32.9172   48.3284 H   0  0  0  0  0  0  0  0  0  0  0  0
  1  2  1  0
  2  3  1  0
  3  4  2  0
  3  5  1  0
  5  6  1  0
  6  7  2  0
  7  8  1  0
  7  9  1  0
  9 10  1  0
  9 11  2  0
 11 12  1  0
 11 13  1  0
 13 14  1  0
 14 15  2  0
 14 16  2  0
 14 17  1  0
 17 18  1  0
 18 19  1  0
 18 20  1  0
 18 21  1  0
 21 22  1  0
 21 23  1  0
 21 24  1  0
 24 25  1  0
 25 26  1  0
 25 27  1  0
 25 28  1  0
 28 29  1  0
 28 30  1  0
 13 31  2  0
 31 32  1  0
  2 33  2  0
 33 34  1  0
 33 35  1  0
 35 36  2  0
 36 37  1  0
 36 38  1  0
 38 39  1  0
 38 40  2  0
 40 41  1  0
 41 42  2  0
 41 43  1  0
 43 44  1  0
 44 45  1  0
 44 46  1  0
 44 47  1  0
 47 48  1  0
 47 49  1  0
 47 50  1  0
 50 51  2  0
 51 52  1  0
 51 53  1  0
 53 54  1  0
 53 55  2  0
 55 56  1  0
 55 57  1  0
 57 58  1  0
 57 59  2  0
 59 60  1  0
 40 61  1  0
 61 62  1  0
 61 63  2  0
 63 64  1  0
 31  6  1  0
 63 35  1  0
 28 17  1  0
 59 50  1  0
M  CHG  3   5  -1  43  -1  56  -1
M  END
>  <UniqueID>  (2) 
2

>  <SMILES>  (2) 
O=C(/C=C/c1ccc(C(=O)[N-]CCc2ccc([O-])cc2)cc1)[N-]c1cccc(S(=O)(=O)N2CCOCC2)c1

>  <Energy>  (2) 
79.08819525912364

>  <Genealogy>  (2) 
O=C(C=Cc1ccc(C(=O)[N-]CCc2ccc([O-])cc2)cc1)[N-]c1cccc(S(=O)(=O)N2CCOCC2)c1 (protonated)
O=C(/C=C/c1ccc(C(=O)[N-]CCc2ccc([O-])cc2)cc1)[N-]c1cccc(S(=O)(=O)N2CCOCC2)c1 (cis-trans isomerization)
O=C(/C=C/c1ccc(C(=O)[N-]CCc2ccc([O-])cc2)cc1)[N-]c1cccc(S(=O)(=O)N2CCOCC2)c1 (3D coordinates assigned)
O=C(/C=C/c1ccc(C(=O)[N-]CCc2ccc([O-])cc2)cc1)[N-]c1cccc(S(=O)(=O)N2CCOCC2)c1 (nonaromatic ring conformer: 79.08819525912364 kcal/mol)

>  <smiles>  (2) 
O=C(C=Cc1ccc(C(=O)NCCc2ccc(O)cc2)cc1)Nc1cccc(S(=O)(=O)N2CCOCC2)c1

>  <score_type>  (2) 
oracle

>  <origin>  (2) 
adg

>  <m_score__min__energy>  (2) 
-17.510000000000002

>  <m_primary>  (2) 
energy

$$$$
2:0
     RDKit          3D

 40 42  0  0  0  0  0  0  0  0999 V2000
   55.8680   27.1350   46.1910 H   0  0  0  0  0  0  0  0  0  0  0  0
   55.3010   26.3220   45.9860 O   0  0  0  0  0  0  0  0  0  0  0  0
   55.8050   25.1880   45.3440 C   0  0  0  0  0  0  0  0  0  0  0  0
   54.9620   24.1200   44.9730 C   0  0  0  0  0  0  0  0  0  0  0  0
   53.2320   24.1590   45.2870 Cl  0  0  0  0  0  0  0  0  0  0  0  0
   55.5020   22.9950   44.3410 C   0  0  0  0  0  0  0  0  0  0  0  0
   54.8439   22.1649   44.0446 H   0  0  0  0  0  0  0  0  0  0  0  0
   56.8710   22.9210   44.0850 C   0  0  0  0  0  0  0  0  0  0  0  0
   57.2898   22.0302   43.5940 H   0  0  0  0  0  0  0  0  0  0  0  0
   57.7110   23.9740   44.4500 C   0  0  0  0  0  0  0  0  0  0  0  0
   58.7917   23.9048   44.2570 H   0  0  0  0  0  0  0  0  0  0  0  0
   57.1810   25.1240   45.0640 C   0  0  0  0  0  0  0  0  0  0  0  0
   58.0200   26.2150   45.4730 N   0  0  0  0  0  0  0  0  0  0  0  0
   57.9090   26.9820   46.6810 C   0  0  0  0  0  0  0  0  0  0  0  0
   58.2380   26.4750   47.7850 O   0  0  0  0  0  0  0  0  0  0  0  0
   57.4790   28.3520   46.6550 N   0  0  0  0  0  0  0  0  0  0  0  0
   57.1590   29.0630   45.6110 C   0  0  0  0  0  0  0  0  0  0  0  0
   55.9140   28.9870   45.0600 N   0  0  0  0  0  0  0  0  0  0  0  0
   55.5580   29.7170   43.9710 C   0  0  0  0  0  0  0  0  0  0  0  0
   54.5441   29.6253   43.5545 H   0  0  0  0  0  0  0  0  0  0  0  0
   56.4780   30.5820   43.3820 C   0  0  0  0  0  0  0  0  0  0  0  0
   56.1953   31.1772   42.5012 H   0  0  0  0  0  0  0  0  0  0  0  0
   57.7590   30.6860   43.9190 C   0  0  0  0  0  0  0  0  0  0  0  0
   58.4919   31.3670   43.4618 H   0  0  0  0  0  0  0  0  0  0  0  0
   58.1180   29.9220   45.0450 C   0  0  0  0  0  0  0  0  0  0  0  0
   59.3980   29.9880   45.6250 O   0  0  0  0  0  0  0  0  0  0  0  0
   59.7130   30.6180   46.8660 C   0  0  0  0  0  0  0  0  0  0  0  0
   58.9436   30.3574   47.6077 H   0  0  0  0  0  0  0  0  0  0  0  0
   60.7011   30.2665   47.1978 H   0  0  0  0  0  0  0  0  0  0  0  0
   59.7620   32.1190   46.7110 C   0  0  0  0  0  0  0  0  0  0  0  0
   58.5850   32.8600   46.4890 C   0  0  0  0  0  0  0  0  0  0  0  0
   57.3790   32.2440   46.4040 F   0  0  0  0  0  0  0  0  0  0  0  0
   58.6450   34.2520   46.3550 C   0  0  0  0  0  0  0  0  0  0  0  0
   57.7241   34.8256   46.1736 H   0  0  0  0  0  0  0  0  0  0  0  0
   59.8710   34.9150   46.4510 C   0  0  0  0  0  0  0  0  0  0  0  0
   59.9151   36.0085   46.3398 H   0  0  0  0  0  0  0  0  0  0  0  0
   61.0400   34.1900   46.6880 C   0  0  0  0  0  0  0  0  0  0  0  0
   62.0036   34.7144   46.7681 H   0  0  0  0  0  0  0  0  0  0  0  0
   60.9900   32.7990   46.8240 C   0  0  0  0  0  0  0  0  0  0  0  0
   62.1380   32.1170   47.0670 F   0  0  0  0  0  0  0  0  0  0  0  0
  1  2  1  0
  2  3  1  0
  3  4  2  0
  4  5  1  0
  4  6  1  0
  6  7  1  0
  6  8  2  0
  8  9  1  0
  8 10  1  0
 10 11  1  0
 10 12  2  0
 12 13  1  0
 13 14  1  0
 14 15  2  0
 14 16  1  0
 16 17  2  0
 17 18  1  0
 18 19  1  0
 19 20  1  0
 19 21  2  0
 21 22  1  0
 21 23  1  0
 23 24  1  0
 23 25  2  0
 25 26  1  0
 26 27  1  0
 27 28  1  0
 27 29  1  0
 27 30  1  0
 30 31  2  0
 31 32  1  0
 31 33  1  0
 33 34  1  0
 33 35  2  0
 35 36  1  0
 35 37  1  0
 37 38  1  0
 37 39  2  0
 39 40  1  0
 12  3  1  0
 25 17  1  0
 39 30  1  0
M  CHG  2  13  -1  18  -1
M  END
>  <UniqueID>  (3) 
3

>  <SMILES>  (3) 
O=C(/N=c1\[n-]cccc1OCc1c(F)cccc1F)[N-]c1cccc(Cl)c1O

>  <Energy>  (3) 
52.07806625031941

>  <Genealogy>  (3) 
O=C(N=c1[n-]cccc1OCc1c(F)cccc1F)[N-]c1cccc(Cl)c1O (protonated)
O=C(/N=c1\[n-]cccc1OCc1c(F)cccc1F)[N-]c1cccc(Cl)c1O (cis-trans isomerization)
O=C(/N=c1\[n-]cccc1OCc1c(F)cccc1F)[N-]c1cccc(Cl)c1O (3D coordinates assigned)
O=C(/N=c1\[n-]cccc1OCc1c(F)cccc1F)[N-]c1cccc(Cl)c1O (optimized conformer: 52.07806625031941 kcal/mol)

>  <smiles>  (3) 
O=C(N=c1[nH]cccc1OCc1c(F)cccc1F)Nc1cccc(Cl)c1O

>  <score_type>  (3) 
oracle

>  <origin>  (3) 
adg

>  <m_score__min__energy>  (3) 
-10.66

>  <m_primary>  (3) 
energy

$$$$
3:0
     RDKit          3D

 42 45  0  0  0  0  0  0  0  0999 V2000
   52.9690   29.6230   54.7920 O   0  0  0  0  0  0  0  0  0  0  0  0
   53.5270   29.6790   53.6640 C   0  0  0  0  0  0  0  0  0  0  0  0
   54.8860   29.2320   53.5510 N   0  0  0  0  0  0  0  0  0  0  0  0
   55.8210   29.7870   52.8380 C   0  0  0  0  0  0  0  0  0  0  0  0
   56.8180   29.0560   52.2770 N   0  0  0  0  0  0  0  0  0  0  0  0
   57.5300   29.9910   51.6310 C   0  0  0  0  0  0  0  0  0  0  0  0
   58.6890   29.8130   50.8830 C   0  0  0  0  0  0  0  0  0  0  0  0
   59.2790   30.9520   50.3080 C   0  0  0  0  0  0  0  0  0  0  0  0
   58.7000   32.2390   50.4910 C   0  0  0  0  0  0  0  0  0  0  0  0
   59.2900   33.4250   49.9390 N   0  0  0  0  0  0  0  0  0  0  0  0
   60.2610   33.4900   48.5060 S   0  0  0  0  0  0  0  0  0  0  0  0
   61.2480   34.6160   48.6340 O   0  0  0  0  0  0  0  0  0  0  0  0
   61.0240   32.2040   48.3550 O   0  0  0  0  0  0  0  0  0  0  0  0
   59.2360   33.7840   47.1040 C   0  0  0  0  0  0  0  0  0  0  0  0
   59.7080   34.5250   46.0100 C   0  0  0  0  0  0  0  0  0  0  0  0
   58.8860   34.7400   44.9010 C   0  0  0  0  0  0  0  0  0  0  0  0
   57.5880   34.2220   44.8790 C   0  0  0  0  0  0  0  0  0  0  0  0
   57.1120   33.4850   45.9670 C   0  0  0  0  0  0  0  0  0  0  0  0
   57.9340   33.2640   47.0770 C   0  0  0  0  0  0  0  0  0  0  0  0
   57.5170   32.3680   51.2450 C   0  0  0  0  0  0  0  0  0  0  0  0
   56.9650   31.2170   51.8020 C   0  0  0  0  0  0  0  0  0  0  0  0
   55.8670   31.1200   52.5640 N   0  0  0  0  0  0  0  0  0  0  0  0
   52.7780   30.2530   52.5210 C   0  0  0  0  0  0  0  0  0  0  0  0
   52.2540   31.5540   52.6080 C   0  0  0  0  0  0  0  0  0  0  0  0
   51.5600   32.1110   51.5290 C   0  0  0  0  0  0  0  0  0  0  0  0
   51.0360   33.3940   51.6280 O   0  0  0  0  0  0  0  0  0  0  0  0
   51.3930   31.3800   50.3520 C   0  0  0  0  0  0  0  0  0  0  0  0
   51.9320   30.0920   50.2430 C   0  0  0  0  0  0  0  0  0  0  0  0
   51.7920   29.3640   49.0630 O   0  0  0  0  0  0  0  0  0  0  0  0
   52.6260   29.5330   51.3230 C   0  0  0  0  0  0  0  0  0  0  0  0
   59.1292   28.8143   50.7459 H   0  0  0  0  0  0  0  0  0  0  0  0
   60.1969   30.8475   49.7109 H   0  0  0  0  0  0  0  0  0  0  0  0
   60.7276   34.9376   46.0256 H   0  0  0  0  0  0  0  0  0  0  0  0
   59.2610   35.3180   44.0435 H   0  0  0  0  0  0  0  0  0  0  0  0
   56.9415   34.3943   44.0059 H   0  0  0  0  0  0  0  0  0  0  0  0
   56.0900   33.0784   45.9504 H   0  0  0  0  0  0  0  0  0  0  0  0
   57.5582   32.6809   47.9307 H   0  0  0  0  0  0  0  0  0  0  0  0
   57.0427   33.3499   51.3897 H   0  0  0  0  0  0  0  0  0  0  0  0
   52.3905   32.1378   53.5302 H   0  0  0  0  0  0  0  0  0  0  0  0
   50.8373   31.8160   49.5088 H   0  0  0  0  0  0  0  0  0  0  0  0
   51.8700   28.3530   49.0520 H   0  0  0  0  0  0  0  0  0  0  0  0
   53.0550   28.5241   51.2336 H   0  0  0  0  0  0  0  0  0  0  0  0
  1  2  2  0
  2  3  1  0
  3  4  2  3
  4  5  1  0
  5  6  1  0
  6  7  2  0
  7  8  1  0
  8  9  2  0
  9 10  1  0
 10 11  1  0
 11 12  2  0
 11 13  2  0
 11 14  1  0
 14 15  2  0
 15 16  1  0
 16 17  2  0
 17 18  1  0
 18 19  2  0
  9 20  1  0
 20 21  2  0
 21 22  1  0
  2 23  1  0
 23 24  2  0
 24 25  1  0
 25 26  1  0
 25 27  2  0
 27 28  1  0
 28 29  1  0
 28 30  2  0
 22  4  1  0
 30 23  1  0
 21  6  1  0
 19 14  1  0
  7 31  1  0
  8 32  1  0
 15 33  1  0
 16 34  1  0
 17 35  1  0
 18 36  1  0
 19 37  1  0
 20 38  1  0
 24 39  1  0
 27 40  1  0
 29 41  1  0
 30 42  1  0
M  CHG  4   5  -1  10  -1  22  -1  26  -1
M  END
>  <UniqueID>  (4) 
4

>  <SMILES>  (4) 
O=C(N=c1[n-]c2ccc([N-]S(=O)(=O)c3ccccc3)cc2[n-]1)c1cc([O-])cc(O)c1

>  <Energy>  (4) 
92.71324812965733

>  <Genealogy>  (4) 
O=C(N=c1[n-]c2ccc([N-]S(=O)(=O)c3ccccc3)cc2[n-]1)c1cc([O-])cc(O)c1 (protonated)
O=C(N=c1[n-]c2ccc([N-]S(=O)(=O)c3ccccc3)cc2[n-]1)c1cc([O-])cc(O)c1 (3D coordinates assigned)
O=C(N=c1[n-]c2ccc([N-]S(=O)(=O)c3ccccc3)cc2[n-]1)c1cc([O-])cc(O)c1 (optimized conformer: 92.71324812965733 kcal/mol)

>  <smiles>  (4) 
O=C(N=c1[nH]c2ccc(NS(=O)(=O)c3ccccc3)cc2[nH]1)c1cc(O)cc(O)c1

>  <score_type>  (4) 
oracle

>  <origin>  (4) 
adg

>  <m_score__min__energy>  (4) 
-16.43

>  <m_primary>  (4) 
energy

$$$$
4:0
     RDKit          3D

 43 45  0  0  0  0  0  0  0  0999 V2000
   62.4620   32.1520   47.4770 C   0  0  0  0  0  0  0  0  0  0  0  0
   61.9100   30.9440   47.5850 C   0  0  0  0  0  0  0  0  0  0  0  0
   60.7730   30.4680   46.7580 C   0  0  0  0  0  0  0  0  0  0  0  0
   59.5270   31.0970   46.9040 C   0  0  0  0  0  0  0  0  0  0  0  0
   58.4280   30.6880   46.1440 C   0  0  0  0  0  0  0  0  0  0  0  0
   58.5530   29.6370   45.2240 C   0  0  0  0  0  0  0  0  0  0  0  0
   57.3700   29.2000   44.3980 C   0  0  0  0  0  0  0  0  0  0  0  0
   57.5520   27.8320   43.9050 N   0  0  0  0  0  0  0  0  0  0  0  0
   57.7630   27.4770   42.6210 C   0  0  0  0  0  0  0  0  0  0  0  0
   57.8080   26.1400   42.4690 N   0  0  0  0  0  0  0  0  0  0  0  0
   57.6230   25.6230   43.7010 C   0  0  0  0  0  0  0  0  0  0  0  0
   57.5790   24.1710   43.9890 C   0  0  0  0  0  0  0  0  0  0  0  0
   58.4400   23.6230   44.9550 C   0  0  0  0  0  0  0  0  0  0  0  0
   58.4070   22.2530   45.2360 C   0  0  0  0  0  0  0  0  0  0  0  0
   57.5110   21.4200   44.5610 C   0  0  0  0  0  0  0  0  0  0  0  0
   56.6420   21.9580   43.6080 C   0  0  0  0  0  0  0  0  0  0  0  0
   56.6730   23.3260   43.3240 C   0  0  0  0  0  0  0  0  0  0  0  0
   57.4710   26.6750   44.5980 C   0  0  0  0  0  0  0  0  0  0  0  0
   57.1140   26.5710   46.0270 C   0  0  0  0  0  0  0  0  0  0  0  0
   57.9360   27.0850   46.9470 C   0  0  0  0  0  0  0  0  0  0  0  0
   55.8710   25.8720   46.4170 C   0  0  0  0  0  0  0  0  0  0  0  0
   55.9060   24.8510   47.1550 O   0  0  0  0  0  0  0  0  0  0  0  0
   54.6400   26.3420   45.9720 O   0  0  0  0  0  0  0  0  0  0  0  0
   59.8030   29.0240   45.0500 C   0  0  0  0  0  0  0  0  0  0  0  0
   60.9040   29.4330   45.8090 C   0  0  0  0  0  0  0  0  0  0  0  0
   63.3039   32.4321   48.1271 H   0  0  0  0  0  0  0  0  0  0  0  0
   62.0757   32.8691   46.7377 H   0  0  0  0  0  0  0  0  0  0  0  0
   62.3238   30.2548   48.3358 H   0  0  0  0  0  0  0  0  0  0  0  0
   59.4143   31.9207   47.6243 H   0  0  0  0  0  0  0  0  0  0  0  0
   57.4590   31.1935   46.2681 H   0  0  0  0  0  0  0  0  0  0  0  0
   56.4627   29.2413   45.0186 H   0  0  0  0  0  0  0  0  0  0  0  0
   57.2764   29.8748   43.5344 H   0  0  0  0  0  0  0  0  0  0  0  0
   57.8839   28.1945   41.7961 H   0  0  0  0  0  0  0  0  0  0  0  0
   57.9580   25.6210   41.5760 H   0  0  0  0  0  0  0  0  0  0  0  0
   59.1438   24.2749   45.4932 H   0  0  0  0  0  0  0  0  0  0  0  0
   59.0878   21.8307   45.9898 H   0  0  0  0  0  0  0  0  0  0  0  0
   57.4897   20.3421   44.7795 H   0  0  0  0  0  0  0  0  0  0  0  0
   55.9324   21.3036   43.0805 H   0  0  0  0  0  0  0  0  0  0  0  0
   55.9842   23.7444   42.5754 H   0  0  0  0  0  0  0  0  0  0  0  0
   57.6803   27.0134   48.0145 H   0  0  0  0  0  0  0  0  0  0  0  0
   58.8682   27.5797   46.6367 H   0  0  0  0  0  0  0  0  0  0  0  0
   59.9177   28.2165   44.3119 H   0  0  0  0  0  0  0  0  0  0  0  0
   61.8788   28.9442   45.6649 H   0  0  0  0  0  0  0  0  0  0  0  0
  1  2  2  0
  2  3  1  0
  3  4  2  0
  4  5  1  0
  5  6  2  0
  6  7  1  0
  7  8  1  0
  8  9  1  0
  9 10  2  0
 10 11  1  0
 11 12  1  0
 12 13  2  0
 13 14  1  0
 14 15  2  0
 15 16  1  0
 16 17  2  0
 11 18  2  0
 18 19  1  0
 19 20  2  0
 19 21  1  0
 21 22  2  0
 21 23  1  0
  6 24  1  0
 24 25  2  0
 25  3  1  0
 18  8  1  0
 17 12  1  0
  1 26  1  0
  1 27  1  0
  2 28  1  0
  4 29  1  0
  5 30  1  0
  7 31  1  0
  7 32  1  0
  9 33  1  0
 10 34  1  0
 13 35  1  0
 14 36  1  0
 15 37  1  0
 16 38  1  0
 17 39  1  0
 20 40  1  0
 20 41  1  0
 24 42  1  0
 25 43  1  0
M  CHG  2  10   1  23  -1
M  END
>  <UniqueID>  (5) 
5

>  <SMILES>  (5) 
C=Cc1ccc(Cn2c[nH+]c(-c3ccccc3)c2C(=C)C(=O)[O-])cc1

>  <Energy>  (5) 
85.19587600922597

>  <Genealogy>  (5) 
C=Cc1ccc(Cn2c[nH+]c(-c3ccccc3)c2C(=C)C(=O)[O-])cc1 (protonated)
C=Cc1ccc(Cn2c[nH+]c(-c3ccccc3)c2C(=C)C(=O)[O-])cc1 (3D coordinates assigned)
C=Cc1ccc(Cn2c[nH+]c(-c3ccccc3)c2C(=C)C(=O)[O-])cc1 (optimized conformer: 85.19587600922597 kcal/mol)

>  <smiles>  (5) 
C=Cc1ccc(Cn2cnc(-c3ccccc3)c2C(=C)C(=O)O)cc1

>  <score_type>  (5) 
oracle

>  <origin>  (5) 
adg

>  <m_score__min__energy>  (5) 
-8.8399999999999999

>  <m_primary>  (5) 
energy

$$$$
5:0
     RDKit          3D

 30 31  0  0  0  0  0  0  0  0999 V2000
   57.7700   32.8060   44.3100 C   0  0  0  0  0  0  0  0  0  0  0  0
   57.4070   31.8360   45.3350 N   0  0  0  0  0  0  0  0  0  0  0  0
   57.1900   30.4370   45.1060 C   0  0  0  0  0  0  0  0  0  0  0  0
   56.1550   30.0820   44.4810 O   0  0  0  0  0  0  0  0  0  0  0  0
   58.1570   29.4060   45.5360 C   0  0  0  0  0  0  0  0  0  0  0  0
   59.5190   29.5660   45.2430 C   0  0  0  0  0  0  0  0  0  0  0  0
   60.4410   28.5830   45.6140 C   0  0  0  0  0  0  0  0  0  0  0  0
   60.0090   27.4320   46.2780 C   0  0  0  0  0  0  0  0  0  0  0  0
   58.6530   27.2590   46.5830 C   0  0  0  0  0  0  0  0  0  0  0  0
   58.2360   26.0460   47.2240 N   0  0  0  0  0  0  0  0  0  0  0  0
   57.7340   24.8730   46.5730 C   0  0  0  0  0  0  0  0  0  0  0  0
   57.7560   23.7780   47.1950 O   0  0  0  0  0  0  0  0  0  0  0  0
   57.1350   24.9220   45.1940 C   0  0  0  0  0  0  0  0  0  0  0  0
   55.6900   24.5340   45.2340 C   0  0  0  0  0  0  0  0  0  0  0  0
   55.0850   22.9980   44.8990 S   0  0  0  0  0  0  0  0  0  0  0  0
   53.5050   23.4560   45.2490 C   0  0  0  0  0  0  0  0  0  0  0  0
   52.5110   22.6890   45.1740 O   0  0  0  0  0  0  0  0  0  0  0  0
   53.4090   24.7490   45.6280 N   0  0  0  0  0  0  0  0  0  0  0  0
   54.6290   25.3470   45.6270 C   0  0  0  0  0  0  0  0  0  0  0  0
   54.7900   26.6770   45.9950 O   0  0  0  0  0  0  0  0  0  0  0  0
   57.7250   28.2350   46.1800 C   0  0  0  0  0  0  0  0  0  0  0  0
   58.1170   33.7333   44.7892 H   0  0  0  0  0  0  0  0  0  0  0  0
   58.5747   32.3937   43.6835 H   0  0  0  0  0  0  0  0  0  0  0  0
   56.8923   33.0233   43.6835 H   0  0  0  0  0  0  0  0  0  0  0  0
   59.8635   30.4695   44.7186 H   0  0  0  0  0  0  0  0  0  0  0  0
   61.5082   28.7158   45.3829 H   0  0  0  0  0  0  0  0  0  0  0  0
   60.7372   26.6582   46.5625 H   0  0  0  0  0  0  0  0  0  0  0  0
   57.2242   25.9440   44.7971 H   0  0  0  0  0  0  0  0  0  0  0  0
   57.6747   24.2146   44.5473 H   0  0  0  0  0  0  0  0  0  0  0  0
   56.6527   28.0805   46.3704 H   0  0  0  0  0  0  0  0  0  0  0  0
  1  2  1  0
  2  3  1  0
  3  4  2  0
  3  5  1  0
  5  6  2  0
  6  7  1  0
  7  8  2  0
  8  9  1  0
  9 10  1  0
 10 11  1  0
 11 12  2  0
 11 13  1  0
 13 14  1  0
 14 15  1  0
 15 16  1  0
 16 17  2  0
 16 18  1  0
 18 19  1  0
 19 20  1  0
  9 21  2  0
 21  5  1  0
 19 14  2  0
  1 22  1  0
  1 23  1  0
  1 24  1  0
  6 25  1  0
  7 26  1  0
  8 27  1  0
 13 28  1  0
 13 29  1  0
 21 30  1  0
M  CHG  4   2  -1  10  -1  18  -1  20  -1
M  END
>  <UniqueID>  (6) 
6

>  <SMILES>  (6) 
C[N-]C(=O)c1cccc([N-]C(=O)Cc2sc(=O)[n-]c2[O-])c1

>  <Energy>  (6) 
67.39849112040423

>  <Genealogy>  (6) 
C[N-]C(=O)c1cccc([N-]C(=O)Cc2sc(=O)[n-]c2[O-])c1 (protonated)
C[N-]C(=O)c1cccc([N-]C(=O)Cc2sc(=O)[n-]c2[O-])c1 (3D coordinates assigned)
C[N-]C(=O)c1cccc([N-]C(=O)Cc2sc(=O)[n-]c2[O-])c1 (optimized conformer: 67.39849112040423 kcal/mol)

>  <smiles>  (6) 
CNC(=O)c1cccc(NC(=O)Cc2sc(=O)[nH]c2O)c1

>  <score_type>  (6) 
oracle

>  <origin>  (6) 
adg

>  <m_score__min__energy>  (6) 
-15.130000000000001

>  <m_primary>  (6) 
energy

$$$$
6:0
     RDKit          3D

 51 53  0  0  0  0  0  0  0  0999 V2000
   56.0167   32.1316   44.1970 H   0  0  0  0  0  0  0  0  0  0  0  0
   56.5690   31.1880   44.3180 C   0  0  0  0  0  0  0  0  0  0  0  0
   55.9370   30.0900   44.8100 N   0  0  0  0  0  0  0  0  0  0  0  0
   56.5850   28.9020   44.9860 C   0  0  0  0  0  0  0  0  0  0  0  0
   55.9600   27.8530   45.4380 N   0  0  0  0  0  0  0  0  0  0  0  0
   56.5550   26.7570   46.1490 C   0  0  0  0  0  0  0  0  0  0  0  0
   55.8490   25.7450   46.4030 O   0  0  0  0  0  0  0  0  0  0  0  0
   57.9810   26.7480   46.5220 C   0  0  0  0  0  0  0  0  0  0  0  0
   58.8440   26.3400   45.7000 O   0  0  0  0  0  0  0  0  0  0  0  0
   58.3620   27.1210   47.8520 N   0  0  0  0  0  0  0  0  0  0  0  0
   59.1100   28.2860   48.2320 C   0  0  0  0  0  0  0  0  0  0  0  0
   60.3800   28.1990   48.8310 C   0  0  0  0  0  0  0  0  0  0  0  0
   60.8221   27.2131   49.0372 H   0  0  0  0  0  0  0  0  0  0  0  0
   61.0820   29.3600   49.1650 C   0  0  0  0  0  0  0  0  0  0  0  0
   62.0673   29.2835   49.6481 H   0  0  0  0  0  0  0  0  0  0  0  0
   60.5380   30.6210   48.8880 C   0  0  0  0  0  0  0  0  0  0  0  0
   61.4400   32.0870   49.2810 S   0  0  0  0  0  0  0  0  0  0  0  0
   62.9140   31.7900   49.2300 O   0  0  0  0  0  0  0  0  0  0  0  0
   61.1020   32.5160   50.6820 O   0  0  0  0  0  0  0  0  0  0  0  0
   61.0720   33.3860   48.1690 N   0  0  0  0  0  0  0  0  0  0  0  0
   59.8130   34.0560   48.5600 C   0  0  0  0  0  0  0  0  0  0  0  0
   60.0101   34.7176   49.4164 H   0  0  0  0  0  0  0  0  0  0  0  0
   59.0768   33.2834   48.8266 H   0  0  0  0  0  0  0  0  0  0  0  0
   59.2440   34.8890   47.4060 C   0  0  0  0  0  0  0  0  0  0  0  0
   60.0032   35.6150   47.0796 H   0  0  0  0  0  0  0  0  0  0  0  0
   58.3404   35.4050   47.7626 H   0  0  0  0  0  0  0  0  0  0  0  0
   58.8510   33.9870   46.1970 C   0  0  0  0  0  0  0  0  0  0  0  0
   59.0400   34.7860   44.8890 C   0  0  0  0  0  0  0  0  0  0  0  0
   59.2871   35.8305   45.1298 H   0  0  0  0  0  0  0  0  0  0  0  0
   59.8578   34.3416   44.3028 H   0  0  0  0  0  0  0  0  0  0  0  0
   58.1098   34.7551   44.3028 H   0  0  0  0  0  0  0  0  0  0  0  0
   57.3640   33.5840   46.3100 C   0  0  0  0  0  0  0  0  0  0  0  0
   57.0843   33.5082   47.3711 H   0  0  0  0  0  0  0  0  0  0  0  0
   56.7395   34.3453   45.8197 H   0  0  0  0  0  0  0  0  0  0  0  0
   57.2094   32.6115   45.8197 H   0  0  0  0  0  0  0  0  0  0  0  0
   59.7250   32.6960   46.1570 C   0  0  0  0  0  0  0  0  0  0  0  0
   59.8377   32.3746   45.1111 H   0  0  0  0  0  0  0  0  0  0  0  0
   59.2210   31.9233   46.7560 H   0  0  0  0  0  0  0  0  0  0  0  0
   61.1200   32.9320   46.7580 C   0  0  0  0  0  0  0  0  0  0  0  0
   61.6345   33.6987   46.1601 H   0  0  0  0  0  0  0  0  0  0  0  0
   61.6543   31.9706   46.7389 H   0  0  0  0  0  0  0  0  0  0  0  0
   59.2800   30.7090   48.2770 C   0  0  0  0  0  0  0  0  0  0  0  0
   58.8447   31.6955   48.0593 H   0  0  0  0  0  0  0  0  0  0  0  0
   58.5760   29.5490   47.9430 C   0  0  0  0  0  0  0  0  0  0  0  0
   57.5959   29.6278   47.4498 H   0  0  0  0  0  0  0  0  0  0  0  0
   57.9360   28.7970   44.6330 C   0  0  0  0  0  0  0  0  0  0  0  0
   58.4678   27.8419   44.7552 H   0  0  0  0  0  0  0  0  0  0  0  0
   58.6030   29.9130   44.1250 C   0  0  0  0  0  0  0  0  0  0  0  0
   59.6658   29.8422   43.8504 H   0  0  0  0  0  0  0  0  0  0  0  0
   57.9180   31.1200   43.9660 C   0  0  0  0  0  0  0  0  0  0  0  0
   58.4352   32.0057   43.5684 H   0  0  0  0  0  0  0  0  0  0  0  0
  1  2  1  0
  2  3  1  0
  3  4  1  0
  4  5  2  0
  5  6  1  0
  6  7  2  0
  6  8  1  0
  8  9  2  0
  8 10  1  0
 10 11  1  0
 11 12  2  0
 12 13  1  0
 12 14  1  0
 14 15  1  0
 14 16  2  0
 16 17  1  0
 17 18  2  0
 17 19  2  0
 17 20  1  0
 20 21  1  0
 21 22  1  0
 21 23  1  0
 21 24  1  0
 24 25  1  0
 24 26  1  0
 24 27  1  0
 27 28  1  0
 28 29  1  0
 28 30  1  0
 28 31  1  0
 27 32  1  0
 32 33  1  0
 32 34  1  0
 32 35  1  0
 27 36  1  0
 36 37  1  0
 36 38  1  0
 36 39  1  0
 39 40  1  0
 39 41  1  0
 16 42  1  0
 42 43  1  0
 42 44  2  0
 44 45  1  0
  4 46  1  0
 46 47  1  0
 46 48  2  0
 48 49  1  0
 48 50  1  0
 50 51  1  0
 50  2  2  0
 44 11  1  0
 39 20  1  0
M  CHG  2   3  -1  10  -1
M  END
>  <UniqueID>  (7) 
7

>  <SMILES>  (7) 
CC1(C)CCN(S(=O)(=O)c2ccc([N-]C(=O)C(=O)/N=c3/cccc[n-]3)cc2)CC1

>  <Energy>  (7) 
65.88183485586762

>  <Genealogy>  (7) 
CC1(C)CCN(S(=O)(=O)c2ccc([N-]C(=O)C(=O)N=c3cccc[n-]3)cc2)CC1 (protonated)
CC1(C)CCN(S(=O)(=O)c2ccc([N-]C(=O)C(=O)/N=c3/cccc[n-]3)cc2)CC1 (cis-trans isomerization)
CC1(C)CCN(S(=O)(=O)c2ccc([N-]C(=O)C(=O)/N=c3/cccc[n-]3)cc2)CC1 (3D coordinates assigned)
CC1(C)CCN(S(=O)(=O)c2ccc([N-]C(=O)C(=O)/N=c3/cccc[n-]3)cc2)CC1 (nonaromatic ring conformer: 65.88183485586762 kcal/mol)

>  <smiles>  (7) 
CC1(C)CCN(S(=O)(=O)c2ccc(NC(=O)C(=O)N=c3cccc[nH]3)cc2)CC1

>  <score_type>  (7) 
oracle

>  <origin>  (7) 
adg

>  <m_score__min__energy>  (7) 
-12.720000000000001

>  <m_primary>  (7) 
energy

$$$$
7:0
     RDKit          3D

 42 45  0  0  0  0  0  0  0  0999 V2000
   60.1240   33.0446   50.0419 H   0  0  0  0  0  0  0  0  0  0  0  0
   60.1360   33.3000   48.9720 C   0  0  0  0  0  0  0  0  0  0  0  0
   61.2860   33.6710   48.2870 C   0  0  0  0  0  0  0  0  0  0  0  0
   63.0320   33.8130   49.0360 Br  0  0  0  0  0  0  0  0  0  0  0  0
   60.8970   33.9790   46.6800 S   0  0  0  0  0  0  0  0  0  0  0  0
   59.2580   33.6390   46.8470 C   0  0  0  0  0  0  0  0  0  0  0  0
   58.0790   33.7420   45.5560 S   0  0  0  0  0  0  0  0  0  0  0  0
   56.7000   33.7850   46.1510 O   0  0  0  0  0  0  0  0  0  0  0  0
   58.3370   34.9870   44.7540 O   0  0  0  0  0  0  0  0  0  0  0  0
   58.2340   32.3530   44.5290 N   0  0  0  0  0  0  0  0  0  0  0  0
   57.6570   31.0670   44.7880 C   0  0  0  0  0  0  0  0  0  0  0  0
   56.4790   30.6330   44.1510 C   0  0  0  0  0  0  0  0  0  0  0  0
   55.9730   31.2914   43.4295 H   0  0  0  0  0  0  0  0  0  0  0  0
   55.9490   29.3710   44.4300 C   0  0  0  0  0  0  0  0  0  0  0  0
   55.0282   29.0395   43.9278 H   0  0  0  0  0  0  0  0  0  0  0  0
   56.5860   28.5280   45.3460 C   0  0  0  0  0  0  0  0  0  0  0  0
   56.0740   27.3030   45.6210 N   0  0  0  0  0  0  0  0  0  0  0  0
   56.6840   26.4810   46.5130 C   0  0  0  0  0  0  0  0  0  0  0  0
   56.1730   25.3070   46.7420 N   0  0  0  0  0  0  0  0  0  0  0  0
   56.3060   24.1390   45.9120 C   0  0  0  0  0  0  0  0  0  0  0  0
   56.0320   24.1810   44.5300 C   0  0  0  0  0  0  0  0  0  0  0  0
   55.6832   25.1171   44.0695 H   0  0  0  0  0  0  0  0  0  0  0  0
   56.2010   23.0410   43.7430 C   0  0  0  0  0  0  0  0  0  0  0  0
   55.9711   23.0773   42.6679 H   0  0  0  0  0  0  0  0  0  0  0  0
   56.6610   21.8550   44.3170 C   0  0  0  0  0  0  0  0  0  0  0  0
   56.7844   20.9556   43.6958 H   0  0  0  0  0  0  0  0  0  0  0  0
   56.9650   21.8090   45.6800 C   0  0  0  0  0  0  0  0  0  0  0  0
   57.3365   20.8749   46.1266 H   0  0  0  0  0  0  0  0  0  0  0  0
   56.7980   22.9540   46.4860 C   0  0  0  0  0  0  0  0  0  0  0  0
   57.1010   22.9480   47.8570 O   0  0  0  0  0  0  0  0  0  0  0  0
   56.1880   22.5720   48.8830 C   0  0  0  0  0  0  0  0  0  0  0  0
   56.6439   22.7597   49.8663 H   0  0  0  0  0  0  0  0  0  0  0  0
   55.2654   23.1634   48.7876 H   0  0  0  0  0  0  0  0  0  0  0  0
   55.9494   21.5024   48.7876 H   0  0  0  0  0  0  0  0  0  0  0  0
   57.8030   26.8730   47.1180 O   0  0  0  0  0  0  0  0  0  0  0  0
   58.3570   28.0600   46.8960 C   0  0  0  0  0  0  0  0  0  0  0  0
   59.4150   28.3690   47.5060 O   0  0  0  0  0  0  0  0  0  0  0  0
   57.7630   28.9500   45.9890 C   0  0  0  0  0  0  0  0  0  0  0  0
   58.2960   30.2200   45.7050 C   0  0  0  0  0  0  0  0  0  0  0  0
   59.2186   30.5506   46.2046 H   0  0  0  0  0  0  0  0  0  0  0  0
   58.9940   33.2840   48.1630 C   0  0  0  0  0  0  0  0  0  0  0  0
   57.9922   33.0180   48.5313 H   0  0  0  0  0  0  0  0  0  0  0  0
  1  2  1  0
  2  3  2  0
  3  4  1  0
  3  5  1  0
  5  6  1  0
  6  7  1  0
  7  8  2  0
  7  9  2  0
  7 10  1  0
 10 11  1  0
 11 12  2  0
 12 13  1  0
 12 14  1  0
 14 15  1  0
 14 16  2  0
 16 17  1  0
 17 18  1  0
 18 19  2  0
 19 20  1  0
 20 21  2  0
 21 22  1  0
 21 23  1  0
 23 24  1  0
 23 25  2  0
 25 26  1  0
 25 27  1  0
 27 28  1  0
 27 29  2  0
 29 30  1  0
 30 31  1  0
 31 32  1  0
 31 33  1  0
 31 34  1  0
 18 35  1  0
 35 36  1  0
 36 37  2  0
 36 38  1  0
 38 39  2  0
 39 40  1  0
  6 41  2  0
 41 42  1  0
 41  2  1  0
 39 11  1  0
 38 16  1  0
 29 20  1  0
M  CHG  2  10  -1  17  -1
M  END
>  <UniqueID>  (8) 
8

>  <SMILES>  (8) 
COc1ccccc1/N=c1/[n-]c2ccc([N-]S(=O)(=O)c3ccc(Br)s3)cc2c(=O)o1

>  <Energy>  (8) 
87.40810484818242

>  <Genealogy>  (8) 
COc1ccccc1N=c1[n-]c2ccc([N-]S(=O)(=O)c3ccc(Br)s3)cc2c(=O)o1 (protonated)
COc1ccccc1/N=c1/[n-]c2ccc([N-]S(=O)(=O)c3ccc(Br)s3)cc2c(=O)o1 (cis-trans isomerization)
COc1ccccc1/N=c1/[n-]c2ccc([N-]S(=O)(=O)c3ccc(Br)s3)cc2c(=O)o1 (3D coordinates assigned)
COc1ccccc1/N=c1/[n-]c2ccc([N-]S(=O)(=O)c3ccc(Br)s3)cc2c(=O)o1 (optimized conformer: 87.40810484818242 kcal/mol)

>  <smiles>  (8) 
COc1ccccc1N=c1[nH]c2ccc(NS(=O)(=O)c3ccc(Br)s3)cc2c(=O)o1

>  <score_type>  (8) 
oracle

>  <origin>  (8) 
adg

>  <m_score__min__energy>  (8) 
-12.050000000000001

>  <m_primary>  (8) 
energy

$$$$
8:0
     RDKit          3D

 71 75  0  0  0  0  0  0  0  0999 V2000
   57.5600   29.7450   51.3220 O   0  0  0  0  0  0  0  0  0  0  0  0
   58.5220   29.9780   50.5420 C   0  0  0  0  0  0  0  0  0  0  0  0
   59.1830   28.9050   49.8580 N   0  0  0  0  0  0  0  0  0  0  0  0
   59.3490   28.7030   48.4450 C   0  0  0  0  0  0  0  0  0  0  0  0
   60.1960   27.7150   47.9050 C   0  0  0  0  0  0  0  0  0  0  0  0
   60.3870   27.6250   46.5150 C   0  0  0  0  0  0  0  0  0  0  0  0
   59.7710   28.5460   45.6660 C   0  0  0  0  0  0  0  0  0  0  0  0
   58.9640   29.5600   46.1990 C   0  0  0  0  0  0  0  0  0  0  0  0
   58.3580   30.8500   45.1550 S   0  0  0  0  0  0  0  0  0  0  0  0
   56.8520   30.7990   45.1570 O   0  0  0  0  0  0  0  0  0  0  0  0
   58.8360   30.6120   43.7490 O   0  0  0  0  0  0  0  0  0  0  0  0
   58.8840   32.4280   45.7110 N   0  0  0  0  0  0  0  0  0  0  0  0
   57.9790   32.9370   46.7550 C   0  0  0  0  0  0  0  0  0  0  0  0
   56.9530   33.8400   46.0810 C   0  0  0  0  0  0  0  0  0  0  0  0
   57.4730   34.0840   44.6750 C   0  0  0  0  0  0  0  0  0  0  0  0
   58.8410   33.4200   44.6290 C   0  0  0  0  0  0  0  0  0  0  0  0
   58.7380   29.6170   47.5840 C   0  0  0  0  0  0  0  0  0  0  0  0
   58.9920   31.3650   50.3300 C   0  0  0  0  0  0  0  0  0  0  0  0
   58.6870   32.3850   51.2510 C   0  0  0  0  0  0  0  0  0  0  0  0
   59.1880   33.6770   51.0600 C   0  0  0  0  0  0  0  0  0  0  0  0
   60.0000   33.9640   49.9560 C   0  0  0  0  0  0  0  0  0  0  0  0
   60.3120   32.9580   49.0340 C   0  0  0  0  0  0  0  0  0  0  0  0
   61.3190   33.3220   47.6300 S   0  0  0  0  0  0  0  0  0  0  0  0
   61.3850   32.1050   46.7520 O   0  0  0  0  0  0  0  0  0  0  0  0
   60.6770   34.4320   46.8420 O   0  0  0  0  0  0  0  0  0  0  0  0
   62.9460   33.7830   48.1000 N   0  0  0  0  0  0  0  0  0  0  0  0
   63.9000   32.6650   47.9620 C   0  0  0  0  0  0  0  0  0  0  0  0
   63.8510   31.7050   49.1630 C   0  0  0  0  0  0  0  0  0  0  0  0
   63.9470   32.3920   50.4820 N   0  0  0  0  0  0  0  0  0  0  0  0
   65.0740   31.8750   51.2920 C   0  0  0  0  0  0  0  0  0  0  0  0
   66.2460   32.8230   51.2580 C   0  0  0  0  0  0  0  0  0  0  0  0
   66.4460   33.7490   52.2970 C   0  0  0  0  0  0  0  0  0  0  0  0
   67.5400   34.6220   52.2600 C   0  0  0  0  0  0  0  0  0  0  0  0
   68.4370   34.5740   51.1880 C   0  0  0  0  0  0  0  0  0  0  0  0
   68.2340   33.6650   50.1480 C   0  0  0  0  0  0  0  0  0  0  0  0
   67.1460   32.7910   50.1830 C   0  0  0  0  0  0  0  0  0  0  0  0
   64.0460   33.8590   50.3730 C   0  0  0  0  0  0  0  0  0  0  0  0
   62.9520   34.4130   49.4450 C   0  0  0  0  0  0  0  0  0  0  0  0
   59.8000   31.6650   49.2180 C   0  0  0  0  0  0  0  0  0  0  0  0
   60.7107   27.0102   48.5746 H   0  0  0  0  0  0  0  0  0  0  0  0
   61.0213   26.8295   46.0969 H   0  0  0  0  0  0  0  0  0  0  0  0
   59.9191   28.4758   44.5783 H   0  0  0  0  0  0  0  0  0  0  0  0
   59.8610   32.3420   46.0830 H   0  0  0  0  0  0  0  0  0  0  0  0
   57.4702   32.0974   47.2512 H   0  0  0  0  0  0  0  0  0  0  0  0
   58.5443   33.4971   47.5144 H   0  0  0  0  0  0  0  0  0  0  0  0
   55.9717   33.3442   46.0453 H   0  0  0  0  0  0  0  0  0  0  0  0
   56.8210   34.7828   46.6320 H   0  0  0  0  0  0  0  0  0  0  0  0
   56.8002   33.6311   43.9319 H   0  0  0  0  0  0  0  0  0  0  0  0
   57.5313   35.1572   44.4410 H   0  0  0  0  0  0  0  0  0  0  0  0
   58.9857   32.9238   43.6580 H   0  0  0  0  0  0  0  0  0  0  0  0
   59.6394   34.1662   44.7541 H   0  0  0  0  0  0  0  0  0  0  0  0
   58.0723   30.3902   47.9951 H   0  0  0  0  0  0  0  0  0  0  0  0
   58.0532   32.1655   52.1229 H   0  0  0  0  0  0  0  0  0  0  0  0
   58.9429   34.4712   51.7805 H   0  0  0  0  0  0  0  0  0  0  0  0
   60.3932   34.9813   49.8130 H   0  0  0  0  0  0  0  0  0  0  0  0
   63.6559   32.1022   47.0489 H   0  0  0  0  0  0  0  0  0  0  0  0
   64.9130   33.0908   47.9123 H   0  0  0  0  0  0  0  0  0  0  0  0
   62.9006   31.1522   49.1275 H   0  0  0  0  0  0  0  0  0  0  0  0
   64.7248   31.0419   49.0810 H   0  0  0  0  0  0  0  0  0  0  0  0
   64.7414   31.7520   52.3333 H   0  0  0  0  0  0  0  0  0  0  0  0
   65.3928   30.9098   50.8716 H   0  0  0  0  0  0  0  0  0  0  0  0
   65.7414   33.7877   53.1408 H   0  0  0  0  0  0  0  0  0  0  0  0
   67.6940   35.3456   53.0740 H   0  0  0  0  0  0  0  0  0  0  0  0
   69.3025   35.2525   51.1643 H   0  0  0  0  0  0  0  0  0  0  0  0
   68.9330   33.6374   49.2991 H   0  0  0  0  0  0  0  0  0  0  0  0
   66.9939   32.0735   49.3632 H   0  0  0  0  0  0  0  0  0  0  0  0
   63.9301   34.3035   51.3725 H   0  0  0  0  0  0  0  0  0  0  0  0
   65.0290   34.1156   49.9514 H   0  0  0  0  0  0  0  0  0  0  0  0
   61.9735   34.2386   49.9163 H   0  0  0  0  0  0  0  0  0  0  0  0
   63.1589   35.4838   49.3016 H   0  0  0  0  0  0  0  0  0  0  0  0
   60.0325   30.8779   48.4856 H   0  0  0  0  0  0  0  0  0  0  0  0
  1  2  2  0
  2  3  1  0
  3  4  1  0
  4  5  2  0
  5  6  1  0
  6  7  2  0
  7  8  1  0
  8  9  1  0
  9 10  2  0
  9 11  2  0
  9 12  1  0
 12 13  1  0
 13 14  1  0
 14 15  1  0
 15 16  1  0
  8 17  2  0
  2 18  1  0
 18 19  2  0
 19 20  1  0
 20 21  2  0
 21 22  1  0
 22 23  1  0
 23 24  2  0
 23 25  2  0
 23 26  1  0
 26 27  1  0
 27 28  1  0
 28 29  1  0
 29 30  1  0
 30 31  1  0
 31 32  2  0
 32 33  1  0
 33 34  2  0
 34 35  1  0
 35 36  2  0
 29 37  1  0
 37 38  1  0
 22 39  2  0
 17  4  1  0
 39 18  1  0
 16 12  1  0
 38 26  1  0
 36 31  1  0
  5 40  1  0
  6 41  1  0
  7 42  1  0
 12 43  1  0
 13 44  1  0
 13 45  1  0
 14 46  1  0
 14 47  1  0
 15 48  1  0
 15 49  1  0
 16 50  1  0
 16 51  1  0
 17 52  1  0
 19 53  1  0
 20 54  1  0
 21 55  1  0
 27 56  1  0
 27 57  1  0
 28 58  1  0
 28 59  1  0
 30 60  1  0
 30 61  1  0
 32 62  1  0
 33 63  1  0
 34 64  1  0
 35 65  1  0
 36 66  1  0
 37 67  1  0
 37 68  1  0
 38 69  1  0
 38 70  1  0
 39 71  1  0
M  CHG  2   3  -1  12   1
M  END
>  <UniqueID>  (9) 
9

>  <SMILES>  (9) 
O=C([N-]c1cccc(S(=O)(=O)[NH+]2CCCC2)c1)c1cccc(S(=O)(=O)N2CCN(Cc3ccccc3)CC2)c1

>  <Energy>  (9) 
94.16927154564657

>  <Genealogy>  (9) 
O=C([N-]c1cccc(S(=O)(=O)[NH+]2CCCC2)c1)c1cccc(S(=O)(=O)N2CCN(Cc3ccccc3)CC2)c1 (protonated)
O=C([N-]c1cccc(S(=O)(=O)[NH+]2CCCC2)c1)c1cccc(S(=O)(=O)N2CCN(Cc3ccccc3)CC2)c1 (3D coordinates assigned)
O=C([N-]c1cccc(S(=O)(=O)[NH+]2CCCC2)c1)c1cccc(S(=O)(=O)N2CCN(Cc3ccccc3)CC2)c1 (nonaromatic ring conformer: 94.16927154564657 kcal/mol)

>  <smiles>  (9) 
O=C(Nc1cccc(S(=O)(=O)N2CCCC2)c1)c1cccc(S(=O)(=O)N2CCN(Cc3ccccc3)CC2)c1

>  <score_type>  (9) 
oracle

>  <origin>  (9) 
adg

>  <m_score__min__energy>  (9) 
-10.460000000000001

>  <m_primary>  (9) 
energy

$$$$
9:0
     RDKit          3D

 53 56  0  0  0  0  0  0  0  0999 V2000
   54.5830   30.9780   51.5930 C   0  0  0  0  0  0  0  0  0  0  0  0
   54.6370   29.9030   52.3960 C   0  0  0  0  0  0  0  0  0  0  0  0
   53.5390   29.2190   52.9280 C   0  0  0  0  0  0  0  0  0  0  0  0
   52.2320   29.4980   52.7480 C   0  0  0  0  0  0  0  0  0  0  0  0
   51.7390   30.7680   52.1880 C   0  0  0  0  0  0  0  0  0  0  0  0
   51.3290   31.7970   52.9500 N   0  0  0  0  0  0  0  0  0  0  0  0
   50.9220   32.7140   52.0460 C   0  0  0  0  0  0  0  0  0  0  0  0
   50.4710   33.8400   52.3790 O   0  0  0  0  0  0  0  0  0  0  0  0
   51.0260   32.3240   50.7580 N   0  0  0  0  0  0  0  0  0  0  0  0
   51.5320   31.0850   50.8610 C   0  0  0  0  0  0  0  0  0  0  0  0
   51.7490   30.2570   49.7610 O   0  0  0  0  0  0  0  0  0  0  0  0
   54.0550   28.1470   53.6430 C   0  0  0  0  0  0  0  0  0  0  0  0
   55.4290   28.2260   53.5370 C   0  0  0  0  0  0  0  0  0  0  0  0
   56.3790   27.2590   54.1790 C   0  0  0  0  0  0  0  0  0  0  0  0
   55.7880   29.2900   52.7810 N   0  0  0  0  0  0  0  0  0  0  0  0
   57.1380   29.6910   52.4790 C   0  0  0  0  0  0  0  0  0  0  0  0
   57.8050   29.0520   51.6230 O   0  0  0  0  0  0  0  0  0  0  0  0
   57.6910   30.8590   53.0990 N   0  0  0  0  0  0  0  0  0  0  0  0
   58.4170   31.9070   52.4410 C   0  0  0  0  0  0  0  0  0  0  0  0
   59.1470   32.8110   53.2230 C   0  0  0  0  0  0  0  0  0  0  0  0
   59.8820   33.8350   52.6190 C   0  0  0  0  0  0  0  0  0  0  0  0
   59.9090   33.9520   51.2280 C   0  0  0  0  0  0  0  0  0  0  0  0
   59.2080   33.0350   50.4320 C   0  0  0  0  0  0  0  0  0  0  0  0
   59.2380   33.1590   48.6740 S   0  0  0  0  0  0  0  0  0  0  0  0
   59.4590   34.5990   48.3030 O   0  0  0  0  0  0  0  0  0  0  0  0
   57.9180   32.7120   48.1090 O   0  0  0  0  0  0  0  0  0  0  0  0
   60.5420   32.1680   48.0550 N   0  0  0  0  0  0  0  0  0  0  0  0
   61.1040   32.7150   46.8000 C   0  0  0  0  0  0  0  0  0  0  0  0
   62.4010   33.5150   47.0280 C   0  0  0  0  0  0  0  0  0  0  0  0
   62.3720   34.1480   48.2870 O   0  0  0  0  0  0  0  0  0  0  0  0
   62.4550   33.1830   49.3220 C   0  0  0  0  0  0  0  0  0  0  0  0
   61.5780   31.9310   49.0750 C   0  0  0  0  0  0  0  0  0  0  0  0
   58.4660   32.0130   51.0390 C   0  0  0  0  0  0  0  0  0  0  0  0
   55.5126   31.4405   51.2298 H   0  0  0  0  0  0  0  0  0  0  0  0
   53.6091   31.3961   51.2984 H   0  0  0  0  0  0  0  0  0  0  0  0
   51.4934   28.7351   53.0352 H   0  0  0  0  0  0  0  0  0  0  0  0
   52.1250   29.3220   49.8650 H   0  0  0  0  0  0  0  0  0  0  0  0
   53.4808   27.3832   54.1880 H   0  0  0  0  0  0  0  0  0  0  0  0
   56.3001   27.3393   55.2732 H   0  0  0  0  0  0  0  0  0  0  0  0
   56.1261   26.2349   53.8673 H   0  0  0  0  0  0  0  0  0  0  0  0
   57.4075   27.4937   53.8673 H   0  0  0  0  0  0  0  0  0  0  0  0
   59.1419   32.7146   54.3188 H   0  0  0  0  0  0  0  0  0  0  0  0
   60.4403   34.5502   53.2409 H   0  0  0  0  0  0  0  0  0  0  0  0
   60.4809   34.7645   50.7560 H   0  0  0  0  0  0  0  0  0  0  0  0
   61.3212   31.8795   46.1182 H   0  0  0  0  0  0  0  0  0  0  0  0
   60.3592   33.4040   46.3751 H   0  0  0  0  0  0  0  0  0  0  0  0
   63.2612   32.8307   46.9859 H   0  0  0  0  0  0  0  0  0  0  0  0
   62.4900   34.2820   46.2445 H   0  0  0  0  0  0  0  0  0  0  0  0
   63.5028   32.8609   49.4137 H   0  0  0  0  0  0  0  0  0  0  0  0
   62.0822   33.6617   50.2395 H   0  0  0  0  0  0  0  0  0  0  0  0
   62.2242   31.1070   48.7384 H   0  0  0  0  0  0  0  0  0  0  0  0
   61.0709   31.6831   50.0192 H   0  0  0  0  0  0  0  0  0  0  0  0
   57.9190   31.2899   50.4161 H   0  0  0  0  0  0  0  0  0  0  0  0
  1  2  2  0
  2  3  1  0
  3  4  2  3
  4  5  1  0
  5  6  1  0
  6  7  1  0
  7  8  2  0
  7  9  1  0
  9 10  1  0
 10 11  1  0
  3 12  1  0
 12 13  2  0
 13 14  1  0
 13 15  1  0
 15 16  1  0
 16 17  2  0
 16 18  1  0
 18 19  1  0
 19 20  2  0
 20 21  1  0
 21 22  2  0
 22 23  1  0
 23 24  1  0
 24 25  2  0
 24 26  2  0
 24 27  1  0
 27 28  1  0
 28 29  1  0
 29 30  1  0
 30 31  1  0
 31 32  1  0
 23 33  2  0
 15  2  1  0
 33 19  1  0
 10  5  2  0
 32 27  1  0
  1 34  1  0
  1 35  1  0
  4 36  1  0
 11 37  1  0
 12 38  1  0
 14 39  1  0
 14 40  1  0
 14 41  1  0
 20 42  1  0
 21 43  1  0
 22 44  1  0
 28 45  1  0
 28 46  1  0
 29 47  1  0
 29 48  1  0
 31 49  1  0
 31 50  1  0
 32 51  1  0
 32 52  1  0
 33 53  1  0
M  CHG  3   6  -1   9  -1  18  -1
M  END
>  <UniqueID>  (10) 
10

>  <SMILES>  (10) 
C=c1c(=Cc2[n-]c(=O)[n-]c2O)cc(C)n1C(=O)[N-]c1cccc(S(=O)(=O)N2CCOCC2)c1

>  <Energy>  (10) 
139.5364932430451

>  <Genealogy>  (10) 
C=c1c(=Cc2[n-]c(=O)[n-]c2O)cc(C)n1C(=O)[N-]c1cccc(S(=O)(=O)N2CCOCC2)c1 (protonated)
C=c1c(=Cc2[n-]c(=O)[n-]c2O)cc(C)n1C(=O)[N-]c1cccc(S(=O)(=O)N2CCOCC2)c1 (3D coordinates assigned)
C=c1c(=Cc2[n-]c(=O)[n-]c2O)cc(C)n1C(=O)[N-]c1cccc(S(=O)(=O)N2CCOCC2)c1 (nonaromatic ring conformer: 139.5364932430451 kcal/mol)

>  <smiles>  (10) 
C=c1c(=Cc2[nH]c(=O)[nH]c2O)cc(C)n1C(=O)Nc1cccc(S(=O)(=O)N2CCOCC2)c1

>  <score_type>  (10) 
oracle

>  <origin>  (10) 
adg

>  <m_score__min__energy>  (10) 
-15.619999999999999

>  <m_primary>  (10) 
energy

$$$$
10:0
     RDKit          3D

 61 64  0  0  0  0  0  0  0  0999 V2000
   55.0320   23.5780   46.6010 C   0  0  0  0  0  0  0  0  0  0  0  0
   55.8860   24.4940   47.2810 O   0  0  0  0  0  0  0  0  0  0  0  0
   56.7450   25.4000   46.6360 C   0  0  0  0  0  0  0  0  0  0  0  0
   58.1430   25.2280   46.6250 C   0  0  0  0  0  0  0  0  0  0  0  0
   58.9600   26.1360   45.9430 C   0  0  0  0  0  0  0  0  0  0  0  0
   58.3950   27.1990   45.2220 C   0  0  0  0  0  0  0  0  0  0  0  0
   59.2800   28.1280   44.4270 C   0  0  0  0  0  0  0  0  0  0  0  0
   59.7340   29.3410   45.2510 C   0  0  0  0  0  0  0  0  0  0  0  0
   58.5810   30.1310   45.6890 N   0  0  0  0  0  0  0  0  0  0  0  0
   58.4930   31.5500   45.4940 C   0  0  0  0  0  0  0  0  0  0  0  0
   57.8160   32.0520   44.3700 C   0  0  0  0  0  0  0  0  0  0  0  0
   57.6510   33.4270   44.2020 C   0  0  0  0  0  0  0  0  0  0  0  0
   58.1780   34.3160   45.1410 C   0  0  0  0  0  0  0  0  0  0  0  0
   58.8930   33.8260   46.2470 C   0  0  0  0  0  0  0  0  0  0  0  0
   59.5720   34.9680   47.4500 S   0  0  0  0  0  0  0  0  0  0  0  0
   60.9590   33.8860   47.8430 C   0  0  0  0  0  0  0  0  0  0  0  0
   61.9990   33.7870   46.9070 C   0  0  0  0  0  0  0  0  0  0  0  0
   63.0780   32.9300   47.1380 C   0  0  0  0  0  0  0  0  0  0  0  0
   63.1270   32.1640   48.3030 C   0  0  0  0  0  0  0  0  0  0  0  0
   62.0860   32.2350   49.2330 C   0  0  0  0  0  0  0  0  0  0  0  0
   61.0020   33.1050   49.0220 C   0  0  0  0  0  0  0  0  0  0  0  0
   59.9200   33.1590   50.0220 C   0  0  0  0  0  0  0  0  0  0  0  0
   60.0540   33.8490   51.0670 O   0  0  0  0  0  0  0  0  0  0  0  0
   58.7010   32.4480   49.7870 N   0  0  0  0  0  0  0  0  0  0  0  0
   58.3310   31.2530   50.5340 C   0  0  0  0  0  0  0  0  0  0  0  0
   59.0620   30.0640   49.9800 C   0  0  0  0  0  0  0  0  0  0  0  0
   58.6720   29.4970   48.7570 C   0  0  0  0  0  0  0  0  0  0  0  0
   59.3480   28.3800   48.2530 C   0  0  0  0  0  0  0  0  0  0  0  0
   60.4300   27.8370   48.9580 C   0  0  0  0  0  0  0  0  0  0  0  0
   61.0750   26.7460   48.4760 F   0  0  0  0  0  0  0  0  0  0  0  0
   60.8370   28.4080   50.1640 C   0  0  0  0  0  0  0  0  0  0  0  0
   60.1620   29.5250   50.6710 C   0  0  0  0  0  0  0  0  0  0  0  0
   59.0650   32.4450   46.4150 C   0  0  0  0  0  0  0  0  0  0  0  0
   57.0000   27.3800   45.2480 C   0  0  0  0  0  0  0  0  0  0  0  0
   56.1850   26.5010   45.9690 C   0  0  0  0  0  0  0  0  0  0  0  0
   54.8110   26.7110   46.0070 O   0  0  0  0  0  0  0  0  0  0  0  0
   54.4748   22.9804   47.3374 H   0  0  0  0  0  0  0  0  0  0  0  0
   54.3241   24.1358   45.9703 H   0  0  0  0  0  0  0  0  0  0  0  0
   55.6379   22.9108   45.9703 H   0  0  0  0  0  0  0  0  0  0  0  0
   58.5942   24.3762   47.1549 H   0  0  0  0  0  0  0  0  0  0  0  0
   60.0530   26.0158   45.9721 H   0  0  0  0  0  0  0  0  0  0  0  0
   60.1693   27.5723   44.0947 H   0  0  0  0  0  0  0  0  0  0  0  0
   58.6977   28.4995   43.5709 H   0  0  0  0  0  0  0  0  0  0  0  0
   60.2879   28.9904   46.1343 H   0  0  0  0  0  0  0  0  0  0  0  0
   60.3779   29.9740   44.6227 H   0  0  0  0  0  0  0  0  0  0  0  0
   57.9450   29.6910   46.3950 H   0  0  0  0  0  0  0  0  0  0  0  0
   57.4138   31.3570   43.6182 H   0  0  0  0  0  0  0  0  0  0  0  0
   57.1047   33.8116   43.3281 H   0  0  0  0  0  0  0  0  0  0  0  0
   58.0335   35.3992   45.0150 H   0  0  0  0  0  0  0  0  0  0  0  0
   61.9649   34.3874   45.9860 H   0  0  0  0  0  0  0  0  0  0  0  0
   63.8905   32.8591   46.3999 H   0  0  0  0  0  0  0  0  0  0  0  0
   63.9862   31.5031   48.4899 H   0  0  0  0  0  0  0  0  0  0  0  0
   62.1151   31.6065   50.1353 H   0  0  0  0  0  0  0  0  0  0  0  0
   58.5984   31.3860   51.5927 H   0  0  0  0  0  0  0  0  0  0  0  0
   57.2470   31.0885   50.4449 H   0  0  0  0  0  0  0  0  0  0  0  0
   57.8332   29.9314   48.1933 H   0  0  0  0  0  0  0  0  0  0  0  0
   59.0294   27.9279   47.3022 H   0  0  0  0  0  0  0  0  0  0  0  0
   61.6873   27.9811   50.7160 H   0  0  0  0  0  0  0  0  0  0  0  0
   60.4937   29.9832   51.6144 H   0  0  0  0  0  0  0  0  0  0  0  0
   59.6468   32.0621   47.2664 H   0  0  0  0  0  0  0  0  0  0  0  0
   56.5473   28.2181   44.6978 H   0  0  0  0  0  0  0  0  0  0  0  0
  1  2  1  0
  2  3  1  0
  3  4  2  0
  4  5  1  0
  5  6  2  0
  6  7  1  0
  7  8  1  0
  8  9  1  0
  9 10  1  0
 10 11  2  0
 11 12  1  0
 12 13  2  0
 13 14  1  0
 14 15  1  0
 15 16  1  0
 16 17  2  0
 17 18  1  0
 18 19  2  0
 19 20  1  0
 20 21  2  0
 21 22  1  0
 22 23  2  0
 22 24  1  0
 24 25  1  0
 25 26  1  0
 26 27  2  0
 27 28  1  0
 28 29  2  0
 29 30  1  0
 29 31  1  0
 31 32  2  0
 14 33  2  0
  6 34  1  0
 34 35  2  0
 35 36  1  0
 35  3  1  0
 33 10  1  0
 21 16  1  0
 32 26  1  0
  1 37  1  0
  1 38  1  0
  1 39  1  0
  4 40  1  0
  5 41  1  0
  7 42  1  0
  7 43  1  0
  8 44  1  0
  8 45  1  0
  9 46  1  0
 11 47  1  0
 12 48  1  0
 13 49  1  0
 17 50  1  0
 18 51  1  0
 19 52  1  0
 20 53  1  0
 25 54  1  0
 25 55  1  0
 27 56  1  0
 28 57  1  0
 31 58  1  0
 32 59  1  0
 33 60  1  0
 34 61  1  0
M  CHG  2  24  -1  36  -1
M  END
>  <UniqueID>  (11) 
11

>  <SMILES>  (11) 
COc1ccc(CCNc2cccc(Sc3ccccc3C(=O)[N-]Cc3ccc(F)cc3)c2)cc1[O-]

>  <Energy>  (11) 
55.55463780799191

>  <Genealogy>  (11) 
COc1ccc(CCNc2cccc(Sc3ccccc3C(=O)[N-]Cc3ccc(F)cc3)c2)cc1[O-] (protonated)
COc1ccc(CCNc2cccc(Sc3ccccc3C(=O)[N-]Cc3ccc(F)cc3)c2)cc1[O-] (3D coordinates assigned)
COc1ccc(CCNc2cccc(Sc3ccccc3C(=O)[N-]Cc3ccc(F)cc3)c2)cc1[O-] (optimized conformer: 55.55463780799191 kcal/mol)

>  <smiles>  (11) 
COc1ccc(CCNc2cccc(Sc3ccccc3C(=O)NCc3ccc(F)cc3)c2)cc1O

>  <score_type>  (11) 
oracle

>  <origin>  (11) 
adg

>  <m_score__min__energy>  (11) 
-14.52

>  <m_primary>  (11) 
energy

$$$$
11:0
     RDKit          3D

 46 48  0  0  0  0  0  0  0  0999 V2000
   62.2270   34.1860   49.8220 C   0  0  0  0  0  0  0  0  0  0  0  0
   61.1220   33.4530   49.9740 C   0  0  0  0  0  0  0  0  0  0  0  0
   60.9730   32.4070   50.8620 C   0  0  0  0  0  0  0  0  0  0  0  0
   59.6820   31.9410   50.6730 C   0  0  0  0  0  0  0  0  0  0  0  0
   59.0420   30.8130   51.3710 C   0  0  0  0  0  0  0  0  0  0  0  0
   59.5630   29.6700   51.2700 O   0  0  0  0  0  0  0  0  0  0  0  0
   57.8390   30.9810   52.1460 N   0  0  0  0  0  0  0  0  0  0  0  0
   57.5890   30.1310   53.3150 C   0  0  0  0  0  0  0  0  0  0  0  0
   56.3750   29.2130   53.0670 C   0  0  0  0  0  0  0  0  0  0  0  0
   55.4690   29.7280   52.0060 N   0  0  0  0  0  0  0  0  0  0  0  0
   54.1250   29.1220   52.1100 C   0  0  0  0  0  0  0  0  0  0  0  0
   53.0580   30.1860   52.0910 C   0  0  0  0  0  0  0  0  0  0  0  0
   52.5120   30.6690   53.2900 C   0  0  0  0  0  0  0  0  0  0  0  0
   51.5050   31.6360   53.2640 C   0  0  0  0  0  0  0  0  0  0  0  0
   51.0300   32.1240   52.0430 C   0  0  0  0  0  0  0  0  0  0  0  0
   50.0260   33.0860   52.0340 O   0  0  0  0  0  0  0  0  0  0  0  0
   51.5570   31.6470   50.8350 C   0  0  0  0  0  0  0  0  0  0  0  0
   51.0470   32.1590   49.6320 O   0  0  0  0  0  0  0  0  0  0  0  0
   50.6420   31.3610   48.5250 C   0  0  0  0  0  0  0  0  0  0  0  0
   52.5740   30.6730   50.8660 C   0  0  0  0  0  0  0  0  0  0  0  0
   55.3790   31.2000   52.0470 C   0  0  0  0  0  0  0  0  0  0  0  0
   56.7300   31.8010   51.6370 C   0  0  0  0  0  0  0  0  0  0  0  0
   59.0840   32.6390   49.7320 O   0  0  0  0  0  0  0  0  0  0  0  0
   59.9140   33.5580   49.2940 C   0  0  0  0  0  0  0  0  0  0  0  0
   59.5910   34.4290   48.3370 C   0  0  0  0  0  0  0  0  0  0  0  0
   62.2486   35.0021   49.0847 H   0  0  0  0  0  0  0  0  0  0  0  0
   63.1161   33.9741   50.4340 H   0  0  0  0  0  0  0  0  0  0  0  0
   61.7218   32.0238   51.5708 H   0  0  0  0  0  0  0  0  0  0  0  0
   58.4773   29.5117   53.5086 H   0  0  0  0  0  0  0  0  0  0  0  0
   57.3774   30.7733   54.1826 H   0  0  0  0  0  0  0  0  0  0  0  0
   56.7409   28.2205   52.7652 H   0  0  0  0  0  0  0  0  0  0  0  0
   55.7975   29.1685   54.0021 H   0  0  0  0  0  0  0  0  0  0  0  0
   53.9698   28.4398   51.2611 H   0  0  0  0  0  0  0  0  0  0  0  0
   54.0581   28.5710   53.0597 H   0  0  0  0  0  0  0  0  0  0  0  0
   52.8784   30.2847   54.2534 H   0  0  0  0  0  0  0  0  0  0  0  0
   51.0842   32.0150   54.2070 H   0  0  0  0  0  0  0  0  0  0  0  0
   50.1727   30.4363   48.8918 H   0  0  0  0  0  0  0  0  0  0  0  0
   49.9193   31.9215   47.9139 H   0  0  0  0  0  0  0  0  0  0  0  0
   51.5211   31.1086   47.9139 H   0  0  0  0  0  0  0  0  0  0  0  0
   52.9924   30.2908   49.9232 H   0  0  0  0  0  0  0  0  0  0  0  0
   54.5986   31.5402   51.3504 H   0  0  0  0  0  0  0  0  0  0  0  0
   55.1242   31.5259   53.0663 H   0  0  0  0  0  0  0  0  0  0  0  0
   56.7875   31.8450   50.5394 H   0  0  0  0  0  0  0  0  0  0  0  0
   56.8120   32.8114   52.0641 H   0  0  0  0  0  0  0  0  0  0  0  0
   60.3240   35.1795   48.0062 H   0  0  0  0  0  0  0  0  0  0  0  0
   58.5916   34.3968   47.8785 H   0  0  0  0  0  0  0  0  0  0  0  0
  1  2  2  0
  2  3  1  0
  3  4  2  0
  4  5  1  0
  5  6  2  0
  5  7  1  0
  7  8  1  0
  8  9  1  0
  9 10  1  0
 10 11  1  0
 11 12  1  0
 12 13  2  0
 13 14  1  0
 14 15  2  0
 15 16  1  0
 15 17  1  0
 17 18  1  0
 18 19  1  0
 17 20  2  0
 10 21  1  0
 21 22  1  0
  4 23  1  0
 23 24  1  0
 24 25  2  0
 24  2  1  0
 22  7  1  0
 20 12  1  0
  1 26  1  0
  1 27  1  0
  3 28  1  0
  8 29  1  0
  8 30  1  0
  9 31  1  0
  9 32  1  0
 11 33  1  0
 11 34  1  0
 13 35  1  0
 14 36  1  0
 19 37  1  0
 19 38  1  0
 19 39  1  0
 20 40  1  0
 21 41  1  0
 21 42  1  0
 22 43  1  0
 22 44  1  0
 25 45  1  0
 25 46  1  0
M  CHG  1  16  -1
M  END
>  <UniqueID>  (12) 
12

>  <SMILES>  (12) 
C=c1cc(C(=O)N2CCN(Cc3ccc([O-])c(OC)c3)CC2)oc1=C

>  <Energy>  (12) 
83.63195008925265

>  <Genealogy>  (12) 
C=c1cc(C(=O)N2CCN(Cc3ccc([O-])c(OC)c3)CC2)oc1=C (protonated)
C=c1cc(C(=O)N2CCN(Cc3ccc([O-])c(OC)c3)CC2)oc1=C (3D coordinates assigned)
C=c1cc(C(=O)N2CCN(Cc3ccc([O-])c(OC)c3)CC2)oc1=C (nonaromatic ring conformer: 83.63195008925265 kcal/mol)

>  <smiles>  (12) 
C=c1cc(C(=O)N2CCN(Cc3ccc(O)c(OC)c3)CC2)oc1=C

>  <score_type>  (12) 
oracle

>  <origin>  (12) 
adg

>  <m_score__min__energy>  (12) 
-12.529999999999999

>  <m_primary>  (12) 
energy

$$$$
12:0
     RDKit          3D

 67 70  0  0  0  0  0  0  0  0999 V2000
   58.1620   31.8720   51.5840 C   0  0  0  0  0  0  0  0  0  0  0  0
   59.3510   32.8240   51.7550 C   0  0  0  0  0  0  0  0  0  0  0  0
   58.9470   34.1280   52.4610 C   0  0  0  0  0  0  0  0  0  0  0  0
   60.0280   33.0820   50.4680 N   0  0  0  0  0  0  0  0  0  0  0  0
   59.3010   33.6510   49.5040 N   0  0  0  0  0  0  0  0  0  0  0  0
   59.7870   33.9520   48.2720 C   0  0  0  0  0  0  0  0  0  0  0  0
   58.8260   34.5630   47.2820 C   0  0  0  0  0  0  0  0  0  0  0  0
   58.5880   33.6230   46.1270 C   0  0  0  0  0  0  0  0  0  0  0  0
   58.8420   34.0490   44.8130 C   0  0  0  0  0  0  0  0  0  0  0  0
   58.6000   33.1930   43.7370 C   0  0  0  0  0  0  0  0  0  0  0  0
   58.1100   31.9040   43.9600 C   0  0  0  0  0  0  0  0  0  0  0  0
   57.8710   31.4560   45.2710 C   0  0  0  0  0  0  0  0  0  0  0  0
   57.3580   30.1430   45.5390 N   0  0  0  0  0  0  0  0  0  0  0  0
   56.1530   29.5850   45.0040 C   0  0  0  0  0  0  0  0  0  0  0  0
   55.3750   30.3080   44.3250 O   0  0  0  0  0  0  0  0  0  0  0  0
   55.8920   28.1870   45.2250 N   0  0  0  0  0  0  0  0  0  0  0  0
   56.5800   27.2640   45.8430 C   0  0  0  0  0  0  0  0  0  0  0  0
   57.9810   27.3130   46.0170 C   0  0  0  0  0  0  0  0  0  0  0  0
   58.6380   26.2860   46.7030 C   0  0  0  0  0  0  0  0  0  0  0  0
   60.0330   26.3770   46.8470 O   0  0  0  0  0  0  0  0  0  0  0  0
   60.7810   27.5880   46.9550 C   0  0  0  0  0  0  0  0  0  0  0  0
   60.3210   28.4160   48.1580 C   0  0  0  0  0  0  0  0  0  0  0  0
   59.7540   29.7010   47.6910 N   0  0  0  0  0  0  0  0  0  0  0  0
   59.2490   30.5050   48.8160 C   0  0  0  0  0  0  0  0  0  0  0  0
   60.7460   30.4780   46.9320 C   0  0  0  0  0  0  0  0  0  0  0  0
   57.8880   25.2120   47.2130 C   0  0  0  0  0  0  0  0  0  0  0  0
   56.5080   25.1930   47.0230 C   0  0  0  0  0  0  0  0  0  0  0  0
   55.8970   26.2030   46.3530 N   0  0  0  0  0  0  0  0  0  0  0  0
   58.0940   32.3260   46.3460 C   0  0  0  0  0  0  0  0  0  0  0  0
   61.1310   33.6320   47.9720 C   0  0  0  0  0  0  0  0  0  0  0  0
   61.7130   33.8840   46.7100 C   0  0  0  0  0  0  0  0  0  0  0  0
   63.0480   33.5560   46.4640 C   0  0  0  0  0  0  0  0  0  0  0  0
   63.8240   32.9750   47.4650 C   0  0  0  0  0  0  0  0  0  0  0  0
   63.2680   32.7170   48.7190 C   0  0  0  0  0  0  0  0  0  0  0  0
   61.9220   33.0390   48.9850 C   0  0  0  0  0  0  0  0  0  0  0  0
   61.3500   32.7840   50.2450 C   0  0  0  0  0  0  0  0  0  0  0  0
   62.0600   32.2840   51.1630 O   0  0  0  0  0  0  0  0  0  0  0  0
   57.7872   31.5719   52.5737 H   0  0  0  0  0  0  0  0  0  0  0  0
   57.3614   32.3815   51.0278 H   0  0  0  0  0  0  0  0  0  0  0  0
   58.4841   30.9793   51.0278 H   0  0  0  0  0  0  0  0  0  0  0  0
   60.0772   32.3208   52.4103 H   0  0  0  0  0  0  0  0  0  0  0  0
   58.9916   33.9840   53.5506 H   0  0  0  0  0  0  0  0  0  0  0  0
   59.6380   34.9324   52.1688 H   0  0  0  0  0  0  0  0  0  0  0  0
   57.9222   34.4008   52.1688 H   0  0  0  0  0  0  0  0  0  0  0  0
   57.8694   34.7675   47.7852 H   0  0  0  0  0  0  0  0  0  0  0  0
   59.2593   35.4976   46.8963 H   0  0  0  0  0  0  0  0  0  0  0  0
   59.2331   35.0609   44.6310 H   0  0  0  0  0  0  0  0  0  0  0  0
   58.7959   33.5348   42.7100 H   0  0  0  0  0  0  0  0  0  0  0  0
   57.9106   31.2378   43.1077 H   0  0  0  0  0  0  0  0  0  0  0  0
   58.5558   28.1593   45.6128 H   0  0  0  0  0  0  0  0  0  0  0  0
   61.8465   27.3424   47.0745 H   0  0  0  0  0  0  0  0  0  0  0  0
   60.6201   28.1800   46.0420 H   0  0  0  0  0  0  0  0  0  0  0  0
   59.5532   27.8580   48.7140 H   0  0  0  0  0  0  0  0  0  0  0  0
   61.1811   28.6142   48.8144 H   0  0  0  0  0  0  0  0  0  0  0  0
   59.5448   30.0341   49.7651 H   0  0  0  0  0  0  0  0  0  0  0  0
   59.6730   31.5186   48.7618 H   0  0  0  0  0  0  0  0  0  0  0  0
   58.1519   30.5631   48.7618 H   0  0  0  0  0  0  0  0  0  0  0  0
   61.4145   31.0016   47.6312 H   0  0  0  0  0  0  0  0  0  0  0  0
   61.3365   29.7996   46.2986 H   0  0  0  0  0  0  0  0  0  0  0  0
   60.2288   31.2138   46.2986 H   0  0  0  0  0  0  0  0  0  0  0  0
   58.3855   24.3952   47.7564 H   0  0  0  0  0  0  0  0  0  0  0  0
   55.9117   24.3569   47.4172 H   0  0  0  0  0  0  0  0  0  0  0  0
   57.8803   31.9905   47.3716 H   0  0  0  0  0  0  0  0  0  0  0  0
   61.1090   34.3429   45.9134 H   0  0  0  0  0  0  0  0  0  0  0  0
   63.4886   33.7570   45.4764 H   0  0  0  0  0  0  0  0  0  0  0  0
   64.8754   32.7195   47.2668 H   0  0  0  0  0  0  0  0  0  0  0  0
   63.8852   32.2588   49.5058 H   0  0  0  0  0  0  0  0  0  0  0  0
  1  2  1  0
  2  3  1  0
  2  4  1  0
  4  5  1  0
  5  6  2  0
  6  7  1  0
  7  8  1  0
  8  9  2  0
  9 10  1  0
 10 11  2  0
 11 12  1  0
 12 13  1  0
 13 14  1  0
 14 15  2  0
 14 16  1  0
 16 17  2  3
 17 18  1  0
 18 19  2  0
 19 20  1  0
 20 21  1  0
 21 22  1  0
 22 23  1  0
 23 24  1  0
 23 25  1  0
 19 26  1  0
 26 27  2  0
 27 28  1  0
 12 29  2  0
  6 30  1  0
 30 31  2  0
 31 32  1  0
 32 33  2  0
 33 34  1  0
 34 35  2  0
 35 36  1  0
 36 37  2  0
 36  4  1  0
 29  8  1  0
 35 30  1  0
 28 17  1  0
  1 38  1  0
  1 39  1  0
  1 40  1  0
  2 41  1  0
  3 42  1  0
  3 43  1  0
  3 44  1  0
  7 45  1  0
  7 46  1  0
  9 47  1  0
 10 48  1  0
 11 49  1  0
 18 50  1  0
 21 51  1  0
 21 52  1  0
 22 53  1  0
 22 54  1  0
 24 55  1  0
 24 56  1  0
 24 57  1  0
 25 58  1  0
 25 59  1  0
 25 60  1  0
 26 61  1  0
 27 62  1  0
 29 63  1  0
 31 64  1  0
 32 65  1  0
 33 66  1  0
 34 67  1  0
M  CHG  2  13  -1  28  -1
M  END
>  <UniqueID>  (13) 
13

>  <SMILES>  (13) 
CC(C)n1nc(Cc2cccc([N-]C(=O)N=c3cc(OCCN(C)C)cc[n-]3)c2)c2ccccc2c1=O

>  <Energy>  (13) 
89.1374412665476

>  <Genealogy>  (13) 
CC(C)n1nc(Cc2cccc([N-]C(=O)N=c3cc(OCCN(C)C)cc[n-]3)c2)c2ccccc2c1=O (protonated)
CC(C)n1nc(Cc2cccc([N-]C(=O)N=c3cc(OCCN(C)C)cc[n-]3)c2)c2ccccc2c1=O (3D coordinates assigned)
CC(C)n1nc(Cc2cccc([N-]C(=O)N=c3cc(OCCN(C)C)cc[n-]3)c2)c2ccccc2c1=O (optimized conformer: 89.1374412665476 kcal/mol)

>  <smiles>  (13) 
CC(C)n1nc(Cc2cccc(NC(=O)N=c3cc(OCCN(C)C)cc[nH]3)c2)c2ccccc2c1=O

>  <score_type>  (13) 
oracle

>  <origin>  (13) 
adg

>  <m_score__min__energy>  (13) 
-12.66

>  <m_primary>  (13) 
energy

$$$$
13:0
     RDKit          3D

 44 47  0  0  0  0  0  0  0  0999 V2000
   56.5131   31.4682   51.7063 H   0  0  0  0  0  0  0  0  0  0  0  0
   55.4520   31.4090   51.9900 C   0  0  0  0  0  0  0  0  0  0  0  0
   54.7627   32.2204   51.7135 H   0  0  0  0  0  0  0  0  0  0  0  0
   54.9980   30.3460   52.6740 C   0  0  0  0  0  0  0  0  0  0  0  0
   53.6830   30.1170   53.1100 C   0  0  0  0  0  0  0  0  0  0  0  0
   52.5310   30.7610   52.8330 C   0  0  0  0  0  0  0  0  0  0  0  0
   52.0167   31.2524   53.6720 H   0  0  0  0  0  0  0  0  0  0  0  0
   51.9020   30.8640   51.5080 C   0  0  0  0  0  0  0  0  0  0  0  0
   52.0200   29.9240   50.5550 N   0  0  0  0  0  0  0  0  0  0  0  0
   51.4090   30.4840   49.4870 C   0  0  0  0  0  0  0  0  0  0  0  0
   51.2970   29.8920   48.3830 O   0  0  0  0  0  0  0  0  0  0  0  0
   50.9380   31.7330   49.6940 N   0  0  0  0  0  0  0  0  0  0  0  0
   51.2720   31.9650   50.9720 C   0  0  0  0  0  0  0  0  0  0  0  0
   51.0300   33.1660   51.6270 O   0  0  0  0  0  0  0  0  0  0  0  0
   53.7410   29.0150   53.9440 C   0  0  0  0  0  0  0  0  0  0  0  0
   52.9004   28.5658   54.4932 H   0  0  0  0  0  0  0  0  0  0  0  0
   55.0510   28.5860   53.9570 C   0  0  0  0  0  0  0  0  0  0  0  0
   55.5230   27.4160   54.7240 C   0  0  0  0  0  0  0  0  0  0  0  0
   54.7580   26.9250   55.5990 O   0  0  0  0  0  0  0  0  0  0  0  0
   56.8350   26.8510   54.5250 N   0  0  0  0  0  0  0  0  0  0  0  0
   56.9330   25.5360   53.8740 C   0  0  0  0  0  0  0  0  0  0  0  0
   56.3161   25.5498   52.9634 H   0  0  0  0  0  0  0  0  0  0  0  0
   56.5834   24.7856   54.5984 H   0  0  0  0  0  0  0  0  0  0  0  0
   58.3460   25.1660   53.4910 C   0  0  0  0  0  0  0  0  0  0  0  0
   58.5680   23.9520   52.8200 C   0  0  0  0  0  0  0  0  0  0  0  0
   57.7162   23.3005   52.5751 H   0  0  0  0  0  0  0  0  0  0  0  0
   59.8620   23.5650   52.4610 C   0  0  0  0  0  0  0  0  0  0  0  0
   60.0680   22.3620   51.7960 O   0  0  0  0  0  0  0  0  0  0  0  0
   60.9480   24.3870   52.7700 C   0  0  0  0  0  0  0  0  0  0  0  0
   61.9661   24.0828   52.4855 H   0  0  0  0  0  0  0  0  0  0  0  0
   60.7420   25.5950   53.4400 C   0  0  0  0  0  0  0  0  0  0  0  0
   61.5993   26.2441   53.6719 H   0  0  0  0  0  0  0  0  0  0  0  0
   59.4470   25.9870   53.8200 C   0  0  0  0  0  0  0  0  0  0  0  0
   59.2460   27.3180   54.4850 C   0  0  0  0  0  0  0  0  0  0  0  0
   59.1778   28.0977   53.7120 H   0  0  0  0  0  0  0  0  0  0  0  0
   60.1002   27.5041   55.1526 H   0  0  0  0  0  0  0  0  0  0  0  0
   57.9690   27.3350   55.3220 C   0  0  0  0  0  0  0  0  0  0  0  0
   57.7664   28.3636   55.6552 H   0  0  0  0  0  0  0  0  0  0  0  0
   58.1020   26.6776   56.1938 H   0  0  0  0  0  0  0  0  0  0  0  0
   55.8120   29.3760   53.1620 N   0  0  0  0  0  0  0  0  0  0  0  0
   57.2410   29.2120   52.8710 C   0  0  0  0  0  0  0  0  0  0  0  0
   57.8023   29.1476   53.8148 H   0  0  0  0  0  0  0  0  0  0  0  0
   57.3935   28.2905   52.2900 H   0  0  0  0  0  0  0  0  0  0  0  0
   57.5983   30.0750   52.2900 H   0  0  0  0  0  0  0  0  0  0  0  0
  1  2  1  0
  2  3  1  0
  2  4  2  0
  4  5  1  0
  5  6  2  0
  6  7  1  0
  6  8  1  0
  8  9  1  0
  9 10  1  0
 10 11  2  0
 10 12  1  0
 12 13  1  0
 13 14  1  0
  5 15  1  0
 15 16  1  0
 15 17  2  0
 17 18  1  0
 18 19  2  0
 18 20  1  0
 20 21  1  0
 21 22  1  0
 21 23  1  0
 21 24  1  0
 24 25  2  0
 25 26  1  0
 25 27  1  0
 27 28  1  0
 27 29  2  0
 29 30  1  0
 29 31  1  0
 31 32  1  0
 31 33  2  0
 33 34  1  0
 34 35  1  0
 34 36  1  0
 34 37  1  0
 37 38  1  0
 37 39  1  0
 17 40  1  0
 40 41  1  0
 41 42  1  0
 41 43  1  0
 41 44  1  0
 40  4  1  0
 13  8  2  0
 37 20  1  0
 33 24  1  0
M  CHG  4   9  -1  12  -1  14  -1  28  -1
M  END
>  <UniqueID>  (14) 
14

>  <SMILES>  (14) 
C=c1/c(=C\c2[n-]c(=O)[n-]c2[O-])cc(C(=O)N2CCc3ccc([O-])cc3C2)n1C

>  <Energy>  (14) 
125.15974486086648

>  <Genealogy>  (14) 
C=c1c(=Cc2[n-]c(=O)[n-]c2[O-])cc(C(=O)N2CCc3ccc([O-])cc3C2)n1C (protonated)
C=c1/c(=C\c2[n-]c(=O)[n-]c2[O-])cc(C(=O)N2CCc3ccc([O-])cc3C2)n1C (cis-trans isomerization)
C=c1/c(=C\c2[n-]c(=O)[n-]c2[O-])cc(C(=O)N2CCc3ccc([O-])cc3C2)n1C (3D coordinates assigned)
C=c1/c(=C\c2[n-]c(=O)[n-]c2[O-])cc(C(=O)N2CCc3ccc([O-])cc3C2)n1C (nonaromatic ring conformer: 125.15974486086648 kcal/mol)

>  <smiles>  (14) 
C=c1c(=Cc2[nH]c(=O)[nH]c2O)cc(C(=O)N2CCc3ccc(O)cc3C2)n1C

>  <score_type>  (14) 
oracle

>  <origin>  (14) 
adg

>  <m_score__min__energy>  (14) 
-18.18

>  <m_primary>  (14) 
energy

$$$$
14:0
     RDKit          3D

 51 53  0  0  0  0  0  0  0  0999 V2000
   54.8060   26.3230   46.0110 N   0  0  0  0  0  0  0  0  0  0  0  0
   56.1860   25.2850   46.0570 S   0  0  0  0  0  0  0  0  0  0  0  0
   56.2480   24.4790   44.7910 O   0  0  0  0  0  0  0  0  0  0  0  0
   56.0670   24.3440   47.2230 O   0  0  0  0  0  0  0  0  0  0  0  0
   57.6460   26.2560   46.2190 C   0  0  0  0  0  0  0  0  0  0  0  0
   58.8810   25.6390   46.4470 C   0  0  0  0  0  0  0  0  0  0  0  0
   60.0360   26.4110   46.5820 C   0  0  0  0  0  0  0  0  0  0  0  0
   59.9650   27.8040   46.5000 C   0  0  0  0  0  0  0  0  0  0  0  0
   58.7270   28.4440   46.2910 C   0  0  0  0  0  0  0  0  0  0  0  0
   58.6250   29.9250   46.1980 C   0  0  0  0  0  0  0  0  0  0  0  0
   58.4930   30.5830   44.9670 C   0  0  0  0  0  0  0  0  0  0  0  0
   58.4040   31.9740   44.9360 C   0  0  0  0  0  0  0  0  0  0  0  0
   58.4550   32.7220   46.1230 C   0  0  0  0  0  0  0  0  0  0  0  0
   58.3600   34.2040   46.0690 C   0  0  0  0  0  0  0  0  0  0  0  0
   58.9030   35.0170   47.1120 N   0  0  0  0  0  0  0  0  0  0  0  0
   57.7940   34.7650   45.0920 O   0  0  0  0  0  0  0  0  0  0  0  0
   58.6010   32.0270   47.3440 C   0  0  0  0  0  0  0  0  0  0  0  0
   58.6830   32.6840   48.4660 N   0  0  0  0  0  0  0  0  0  0  0  0
   59.4160   32.2610   49.6630 C   0  0  0  0  0  0  0  0  0  0  0  0
   60.9400   32.4210   49.4830 C   0  0  2  0  0  0  0  0  0  0  0  0
   61.3110   33.8750   49.0920 C   0  0  0  0  0  0  0  0  0  0  0  0
   62.7060   33.9390   48.4650 C   0  0  0  0  0  0  0  0  0  0  0  0
   62.7640   33.1460   47.1370 C   0  0  1  0  0  0  0  0  0  0  0  0
   64.1460   32.7390   46.8710 N   0  0  0  0  0  0  0  0  0  0  0  0
   61.8030   31.9270   47.1150 C   0  0  0  0  0  0  0  0  0  0  0  0
   61.5480   31.3630   48.5200 C   0  0  0  0  0  0  0  0  0  0  0  0
   58.6810   30.6660   47.3370 N   0  0  0  0  0  0  0  0  0  0  0  0
   57.5720   27.6540   46.1430 C   0  0  0  0  0  0  0  0  0  0  0  0
   55.1600   27.3050   46.0650 H   0  0  0  0  0  0  0  0  0  0  0  0
   58.9418   24.5431   46.5200 H   0  0  0  0  0  0  0  0  0  0  0  0
   61.0057   25.9209   46.7536 H   0  0  0  0  0  0  0  0  0  0  0  0
   60.8811   28.4048   46.5992 H   0  0  0  0  0  0  0  0  0  0  0  0
   58.4599   30.0053   44.0315 H   0  0  0  0  0  0  0  0  0  0  0  0
   58.2926   32.4909   43.9714 H   0  0  0  0  0  0  0  0  0  0  0  0
   58.8720   36.0570   47.0330 H   0  0  0  0  0  0  0  0  0  0  0  0
   59.2680   34.5980   47.9950 H   0  0  0  0  0  0  0  0  0  0  0  0
   59.0910   32.8749   50.5159 H   0  0  0  0  0  0  0  0  0  0  0  0
   59.2007   31.1969   49.8397 H   0  0  0  0  0  0  0  0  0  0  0  0
   61.4029   32.2224   50.4609 H   0  0  0  0  0  0  0  0  0  0  0  0
   60.5739   34.2512   48.3673 H   0  0  0  0  0  0  0  0  0  0  0  0
   61.3088   34.4926   50.0022 H   0  0  0  0  0  0  0  0  0  0  0  0
   62.9612   34.9903   48.2658 H   0  0  0  0  0  0  0  0  0  0  0  0
   63.4231   33.4904   49.1683 H   0  0  0  0  0  0  0  0  0  0  0  0
   62.4165   33.8133   46.3346 H   0  0  0  0  0  0  0  0  0  0  0  0
   64.7520   33.0230   47.6750 H   0  0  0  0  0  0  0  0  0  0  0  0
   64.1820   31.6950   46.8070 H   0  0  0  0  0  0  0  0  0  0  0  0
   60.8428   32.2409   46.6798 H   0  0  0  0  0  0  0  0  0  0  0  0
   62.2756   31.1357   46.5145 H   0  0  0  0  0  0  0  0  0  0  0  0
   60.8501   30.5166   48.4394 H   0  0  0  0  0  0  0  0  0  0  0  0
   62.5168   31.0491   48.9358 H   0  0  0  0  0  0  0  0  0  0  0  0
   56.6005   28.1385   45.9658 H   0  0  0  0  0  0  0  0  0  0  0  0
  1  2  1  0
  2  3  2  0
  2  4  2  0
  2  5  1  0
  5  6  2  0
  6  7  1  0
  7  8  2  0
  8  9  1  0
  9 10  1  0
 10 11  2  0
 11 12  1  0
 12 13  2  0
 13 14  1  0
 14 15  1  0
 14 16  2  0
 13 17  1  0
 17 18  2  3
 18 19  1  0
 19 20  1  0
 20 21  1  0
 21 22  1  0
 22 23  1  0
 23 24  1  0
 23 25  1  0
 25 26  1  0
 17 27  1  0
  9 28  2  0
 28  5  1  0
 27 10  1  0
 26 20  1  0
  1 29  1  0
  6 30  1  0
  7 31  1  0
  8 32  1  0
 11 33  1  0
 12 34  1  0
 15 35  1  0
 15 36  1  0
 19 37  1  0
 19 38  1  0
 20 39  1  1
 21 40  1  0
 21 41  1  0
 22 42  1  0
 22 43  1  0
 23 44  1  6
 24 45  1  0
 24 46  1  0
 25 47  1  0
 25 48  1  0
 26 49  1  0
 26 50  1  0
 28 51  1  0
M  CHG  2   1  -1  27  -1
M  END
>  <UniqueID>  (15) 
15

>  <SMILES>  (15) 
[NH-]S(=O)(=O)c1cccc(-c2ccc(C(N)=O)c(=NCC3CCC(N)CC3)[n-]2)c1

>  <Energy>  (15) 
61.011087957782124

>  <Genealogy>  (15) 
[NH-]S(=O)(=O)c1cccc(-c2ccc(C(N)=O)c(=NCC3CCC(N)CC3)[n-]2)c1 (protonated)
[NH-]S(=O)(=O)c1cccc(-c2ccc(C(N)=O)c(=NCC3CCC(N)CC3)[n-]2)c1 (3D coordinates assigned)
[NH-]S(=O)(=O)c1cccc(-c2ccc(C(N)=O)c(=NCC3CCC(N)CC3)[n-]2)c1 (nonaromatic ring conformer: 61.011087957782124 kcal/mol)

>  <smiles>  (15) 
NC(=O)c1ccc(-c2cccc(S(N)(=O)=O)c2)[nH]c1=NCC1CCC(N)CC1

>  <score_type>  (15) 
oracle

>  <origin>  (15) 
adg

>  <m_score__min__energy>  (15) 
-13.220000000000001

>  <m_primary>  (15) 
energy

$$$$
15:0
     RDKit          3D

 61 64  0  0  0  0  0  0  0  0999 V2000
   61.4640   33.6080   50.3760 C   0  0  0  0  0  0  0  0  0  0  0  0
   62.0580   32.2340   50.3980 C   0  0  0  0  0  0  0  0  0  0  0  0
   63.3020   32.1280   50.5610 O   0  0  0  0  0  0  0  0  0  0  0  0
   61.2600   31.0430   50.2020 N   0  0  0  0  0  0  0  0  0  0  0  0
   61.8970   29.7320   50.4040 C   0  0  0  0  0  0  0  0  0  0  0  0
   60.8810   28.5910   50.3100 C   0  0  0  0  0  0  0  0  0  0  0  0
   60.0440   28.7800   49.1190 N   0  0  0  0  0  0  0  0  0  0  0  0
   60.0800   27.8150   48.0410 C   0  0  0  0  0  0  0  0  0  0  0  0
   61.0000   26.9540   47.9980 O   0  0  0  0  0  0  0  0  0  0  0  0
   59.0900   27.8370   46.9440 C   0  0  0  0  0  0  0  0  0  0  0  0
   58.7220   29.0430   46.3290 C   0  0  0  0  0  0  0  0  0  0  0  0
   57.7980   29.0540   45.2690 C   0  0  0  0  0  0  0  0  0  0  0  0
   57.3900   30.3270   44.6270 C   0  0  0  0  0  0  0  0  0  0  0  0
   56.2210   30.7650   44.8070 O   0  0  0  0  0  0  0  0  0  0  0  0
   58.3020   31.0640   43.7970 N   0  0  0  0  0  0  0  0  0  0  0  0
   58.0820   32.4680   43.4550 C   0  0  0  0  0  0  0  0  0  0  0  0
   58.4080   33.3420   44.6340 C   0  0  0  0  0  0  0  0  0  0  0  0
   57.8700   33.0730   45.9010 C   0  0  0  0  0  0  0  0  0  0  0  0
   58.2210   33.8700   46.9920 C   0  0  0  0  0  0  0  0  0  0  0  0
   59.1100   34.9310   46.8060 C   0  0  0  0  0  0  0  0  0  0  0  0
   59.6320   35.1740   45.5740 N   0  0  0  0  0  0  0  0  0  0  0  0
   59.3080   34.4100   44.4970 C   0  0  0  0  0  0  0  0  0  0  0  0
   57.2220   27.8400   44.8510 C   0  0  0  0  0  0  0  0  0  0  0  0
   57.5530   26.6340   45.4860 C   0  0  0  0  0  0  0  0  0  0  0  0
   56.9420   25.4070   45.0570 N   0  0  0  0  0  0  0  0  0  0  0  0
   57.3350   24.6660   43.8630 C   0  0  0  0  0  0  0  0  0  0  0  0
   56.4930   23.3750   43.7920 C   0  0  0  0  0  0  0  0  0  0  0  0
   55.1420   23.5910   44.4900 C   0  0  0  0  0  0  0  0  0  0  0  0
   55.4470   24.8500   45.6830 S   0  0  0  0  0  0  0  0  0  0  0  0
   54.3950   25.9230   45.6330 O   0  0  0  0  0  0  0  0  0  0  0  0
   55.5960   24.2890   47.0710 O   0  0  0  0  0  0  0  0  0  0  0  0
   58.4810   26.6420   46.5370 C   0  0  0  0  0  0  0  0  0  0  0  0
   59.3660   30.0770   48.9320 C   0  0  0  0  0  0  0  0  0  0  0  0
   59.8040   31.1160   49.9760 C   0  0  0  0  0  0  0  0  0  0  0  0
   61.3125   33.9585   51.4076 H   0  0  0  0  0  0  0  0  0  0  0  0
   62.1459   34.2939   49.8521 H   0  0  0  0  0  0  0  0  0  0  0  0
   60.4971   33.5811   49.8521 H   0  0  0  0  0  0  0  0  0  0  0  0
   62.6684   29.5874   49.6332 H   0  0  0  0  0  0  0  0  0  0  0  0
   62.3397   29.7162   51.4109 H   0  0  0  0  0  0  0  0  0  0  0  0
   61.4130   27.6311   50.2360 H   0  0  0  0  0  0  0  0  0  0  0  0
   60.2464   28.5893   51.2085 H   0  0  0  0  0  0  0  0  0  0  0  0
   59.1604   29.9891   46.6793 H   0  0  0  0  0  0  0  0  0  0  0  0
   59.1440   30.5870   43.4030 H   0  0  0  0  0  0  0  0  0  0  0  0
   58.7286   32.7423   42.6085 H   0  0  0  0  0  0  0  0  0  0  0  0
   57.0266   32.6114   43.1803 H   0  0  0  0  0  0  0  0  0  0  0  0
   57.1714   32.2339   46.0350 H   0  0  0  0  0  0  0  0  0  0  0  0
   57.8017   33.6645   47.9880 H   0  0  0  0  0  0  0  0  0  0  0  0
   59.3881   35.5705   47.6567 H   0  0  0  0  0  0  0  0  0  0  0  0
   59.7527   34.6297   43.5152 H   0  0  0  0  0  0  0  0  0  0  0  0
   56.5044   27.8368   44.0173 H   0  0  0  0  0  0  0  0  0  0  0  0
   57.1515   25.2789   42.9682 H   0  0  0  0  0  0  0  0  0  0  0  0
   58.4055   24.4171   43.9079 H   0  0  0  0  0  0  0  0  0  0  0  0
   56.3206   23.1098   42.7385 H   0  0  0  0  0  0  0  0  0  0  0  0
   57.0349   22.5618   44.2971 H   0  0  0  0  0  0  0  0  0  0  0  0
   54.3805   23.9188   43.7670 H   0  0  0  0  0  0  0  0  0  0  0  0
   54.7603   22.6675   44.9498 H   0  0  0  0  0  0  0  0  0  0  0  0
   58.7337   25.7009   47.0473 H   0  0  0  0  0  0  0  0  0  0  0  0
   59.6046   30.4602   47.9289 H   0  0  0  0  0  0  0  0  0  0  0  0
   58.2848   29.9134   49.0509 H   0  0  0  0  0  0  0  0  0  0  0  0
   59.5441   32.1223   49.6157 H   0  0  0  0  0  0  0  0  0  0  0  0
   59.2870   30.9060   50.9239 H   0  0  0  0  0  0  0  0  0  0  0  0
  1  2  1  0
  2  3  2  0
  2  4  1  0
  4  5  1  0
  5  6  1  0
  6  7  1  0
  7  8  1  0
  8  9  2  0
  8 10  1  0
 10 11  2  0
 11 12  1  0
 12 13  1  0
 13 14  2  0
 13 15  1  0
 15 16  1  0
 16 17  1  0
 17 18  2  0
 18 19  1  0
 19 20  2  0
 20 21  1  0
 21 22  2  0
 12 23  2  0
 23 24  1  0
 24 25  1  0
 25 26  1  0
 26 27  1  0
 27 28  1  0
 28 29  1  0
 29 30  2  0
 29 31  2  0
 24 32  2  0
  7 33  1  0
 33 34  1  0
 34  4  1  0
 32 10  1  0
 22 17  1  0
 29 25  1  0
  1 35  1  0
  1 36  1  0
  1 37  1  0
  5 38  1  0
  5 39  1  0
  6 40  1  0
  6 41  1  0
 11 42  1  0
 15 43  1  0
 16 44  1  0
 16 45  1  0
 18 46  1  0
 19 47  1  0
 20 48  1  0
 22 49  1  0
 23 50  1  0
 26 51  1  0
 26 52  1  0
 27 53  1  0
 27 54  1  0
 28 55  1  0
 28 56  1  0
 32 57  1  0
 33 58  1  0
 33 59  1  0
 34 60  1  0
 34 61  1  0
M  END
>  <UniqueID>  (16) 
16

>  <SMILES>  (16) 
CC(=O)N1CCN(C(=O)c2cc(C(=O)NCc3cccnc3)cc(N3CCCS3(=O)=O)c2)CC1

>  <Energy>  (16) 
77.97851350592951

>  <Genealogy>  (16) 
CC(=O)N1CCN(C(=O)c2cc(C(=O)NCc3cccnc3)cc(N3CCCS3(=O)=O)c2)CC1 (3D coordinates assigned)
CC(=O)N1CCN(C(=O)c2cc(C(=O)NCc3cccnc3)cc(N3CCCS3(=O)=O)c2)CC1 (nonaromatic ring conformer: 77.97851350592951 kcal/mol)

>  <smiles>  (16) 
CC(=O)N1CCN(C(=O)c2cc(C(=O)NCc3cccnc3)cc(N3CCCS3(=O)=O)c2)CC1

>  <score_type>  (16) 
oracle

>  <origin>  (16) 
adg

>  <m_score__min__energy>  (16) 
-10.630000000000001

>  <m_primary>  (16) 
energy

$$$$
16:0
     RDKit          3D

 52 54  0  0  0  0  0  0  0  0999 V2000
   56.5500   30.0480   43.3390 C   0  0  0  0  0  0  0  0  0  0  0  0
   57.0300   31.1160   44.2740 C   0  0  0  0  0  0  0  0  0  0  0  0
   57.5260   32.2980   43.8590 C   0  0  0  0  0  0  0  0  0  0  0  0
   58.1080   32.4590   42.4780 C   0  0  0  0  0  0  0  0  0  0  0  0
   57.6240   33.4360   44.8090 C   0  0  0  0  0  0  0  0  0  0  0  0
   57.1020   34.5380   44.4870 O   0  0  0  0  0  0  0  0  0  0  0  0
   58.3060   33.3220   46.1230 C   0  0  0  0  0  0  0  0  0  0  0  0
   59.4720   34.0630   46.3760 C   0  0  0  0  0  0  0  0  0  0  0  0
   60.1150   33.9730   47.6140 C   0  0  0  0  0  0  0  0  0  0  0  0
   59.5930   33.1630   48.6280 C   0  0  0  0  0  0  0  0  0  0  0  0
   60.2800   33.0930   49.8480 O   0  0  0  0  0  0  0  0  0  0  0  0
   61.6720   33.1600   50.0070 C   0  0  0  0  0  0  0  0  0  0  0  0
   62.2480   34.2590   50.5750 N   0  0  0  0  0  0  0  0  0  0  0  0
   63.5890   34.3580   50.7610 C   0  0  0  0  0  0  0  0  0  0  0  0
   64.4260   33.3160   50.3700 C   0  0  0  0  0  0  0  0  0  0  0  0
   63.8730   32.1830   49.7730 C   0  0  0  0  0  0  0  0  0  0  0  0
   62.4860   32.0960   49.5640 C   0  0  0  0  0  0  0  0  0  0  0  0
   61.9150   30.8920   48.9170 C   0  0  0  0  0  0  0  0  0  0  0  0
   61.8530   29.8110   49.5630 O   0  0  0  0  0  0  0  0  0  0  0  0
   61.4940   30.9270   47.5430 N   0  0  0  0  0  0  0  0  0  0  0  0
   60.5420   30.0120   46.9720 C   0  0  0  0  0  0  0  0  0  0  0  0
   60.6360   29.5970   45.6320 C   0  0  0  0  0  0  0  0  0  0  0  0
   59.7130   28.6860   45.1090 C   0  0  0  0  0  0  0  0  0  0  0  0
   58.6950   28.1670   45.9200 C   0  0  0  0  0  0  0  0  0  0  0  0
   57.5250   27.0320   45.2550 S   0  0  0  0  0  0  0  0  0  0  0  0
   55.9250   27.5680   45.6240 N   0  0  0  0  0  0  0  0  0  0  0  0
   57.6940   26.9420   43.7640 O   0  0  0  0  0  0  0  0  0  0  0  0
   57.7450   25.6680   45.8460 O   0  0  0  0  0  0  0  0  0  0  0  0
   58.6060   28.5690   47.2590 C   0  0  0  0  0  0  0  0  0  0  0  0
   59.5290   29.4780   47.7830 C   0  0  0  0  0  0  0  0  0  0  0  0
   58.4290   32.4140   48.3790 C   0  0  0  0  0  0  0  0  0  0  0  0
   57.7860   32.5010   47.1410 C   0  0  0  0  0  0  0  0  0  0  0  0
   56.1673   29.1964   43.9206 H   0  0  0  0  0  0  0  0  0  0  0  0
   55.7460   30.4500   42.7050 H   0  0  0  0  0  0  0  0  0  0  0  0
   57.3844   29.7136   42.7050 H   0  0  0  0  0  0  0  0  0  0  0  0
   56.9745   30.9250   45.3559 H   0  0  0  0  0  0  0  0  0  0  0  0
   59.1654   32.7515   42.5575 H   0  0  0  0  0  0  0  0  0  0  0  0
   58.0311   31.5059   41.9343 H   0  0  0  0  0  0  0  0  0  0  0  0
   57.5522   33.2371   41.9343 H   0  0  0  0  0  0  0  0  0  0  0  0
   59.8823   34.7190   45.5942 H   0  0  0  0  0  0  0  0  0  0  0  0
   61.0385   34.5435   47.7921 H   0  0  0  0  0  0  0  0  0  0  0  0
   64.0148   35.2620   51.2209 H   0  0  0  0  0  0  0  0  0  0  0  0
   65.5120   33.3856   50.5303 H   0  0  0  0  0  0  0  0  0  0  0  0
   64.5260   31.3534   49.4642 H   0  0  0  0  0  0  0  0  0  0  0  0
   61.9750   31.6000   46.9040 H   0  0  0  0  0  0  0  0  0  0  0  0
   61.4394   29.9908   44.9920 H   0  0  0  0  0  0  0  0  0  0  0  0
   59.7864   28.3754   44.0563 H   0  0  0  0  0  0  0  0  0  0  0  0
   55.5850   28.1050   44.7960 H   0  0  0  0  0  0  0  0  0  0  0  0
   57.8071   28.1679   47.8999 H   0  0  0  0  0  0  0  0  0  0  0  0
   59.4609   29.7772   48.8393 H   0  0  0  0  0  0  0  0  0  0  0  0
   58.0228   31.7568   49.1620 H   0  0  0  0  0  0  0  0  0  0  0  0
   56.8671   31.9237   46.9611 H   0  0  0  0  0  0  0  0  0  0  0  0
  1  2  1  0
  2  3  2  3
  3  4  1  0
  3  5  1  0
  5  6  2  0
  5  7  1  0
  7  8  2  0
  8  9  1  0
  9 10  2  0
 10 11  1  0
 11 12  1  0
 12 13  2  0
 13 14  1  0
 14 15  2  0
 15 16  1  0
 16 17  2  0
 17 18  1  0
 18 19  2  0
 18 20  1  0
 20 21  1  0
 21 22  2  0
 22 23  1  0
 23 24  2  0
 24 25  1  0
 25 26  1  0
 25 27  2  0
 25 28  2  0
 24 29  1  0
 29 30  2  0
 10 31  1  0
 31 32  2  0
 32  7  1  0
 17 12  1  0
 30 21  1  0
  1 33  1  0
  1 34  1  0
  1 35  1  0
  2 36  1  0
  4 37  1  0
  4 38  1  0
  4 39  1  0
  8 40  1  0
  9 41  1  0
 14 42  1  0
 15 43  1  0
 16 44  1  0
 20 45  1  0
 22 46  1  0
 23 47  1  0
 26 48  1  0
 29 49  1  0
 30 50  1  0
 31 51  1  0
 32 52  1  0
M  CHG  1  26  -1
M  END
>  <UniqueID>  (17) 
17

>  <SMILES>  (17) 
CC=C(C)C(=O)c1ccc(Oc2ncccc2C(=O)Nc2ccc(S([NH-])(=O)=O)cc2)cc1

>  <Energy>  (17) 
69.82132124428972

>  <Genealogy>  (17) 
CC=C(C)C(=O)c1ccc(Oc2ncccc2C(=O)Nc2ccc(S([NH-])(=O)=O)cc2)cc1 (protonated)
CC=C(C)C(=O)c1ccc(Oc2ncccc2C(=O)Nc2ccc(S([NH-])(=O)=O)cc2)cc1 (3D coordinates assigned)
CC=C(C)C(=O)c1ccc(Oc2ncccc2C(=O)Nc2ccc(S([NH-])(=O)=O)cc2)cc1 (optimized conformer: 69.82132124428972 kcal/mol)

>  <smiles>  (17) 
CC=C(C)C(=O)c1ccc(Oc2ncccc2C(=O)Nc2ccc(S(N)(=O)=O)cc2)cc1

>  <score_type>  (17) 
oracle

>  <origin>  (17) 
adg

>  <m_score__min__energy>  (17) 
-11.66

>  <m_primary>  (17) 
energy

$$$$
17:0
     RDKit          3D

 55 59  0  0  0  0  0  0  0  0999 V2000
   59.1840   29.9440   44.1000 O   0  0  0  0  0  0  0  0  0  0  0  0
   57.9440   29.8860   44.3180 C   0  0  0  0  0  0  0  0  0  0  0  0
   57.2600   28.5540   44.2670 C   0  0  0  0  0  0  0  0  0  0  0  0
   57.6380   27.7520   45.4730 C   0  0  0  0  0  0  0  0  0  0  0  0
   58.8530   27.7950   46.0510 N   0  0  0  0  0  0  0  0  0  0  0  0
   58.7080   27.0050   47.1390 C   0  0  0  0  0  0  0  0  0  0  0  0
   59.8090   26.7360   48.1130 C   0  0  0  0  0  0  0  0  0  0  0  0
   60.3580   28.0210   48.6640 C   0  0  0  0  0  0  0  0  0  0  0  0
   60.6870   29.1350   47.9200 C   0  0  0  0  0  0  0  0  0  0  0  0
   61.2550   30.0480   48.7370 N   0  0  0  0  0  0  0  0  0  0  0  0
   61.7610   31.3520   48.3780 C   0  0  0  0  0  0  0  0  0  0  0  0
   62.8120   31.4670   47.4470 C   0  0  0  0  0  0  0  0  0  0  0  0
   63.3140   32.7210   47.0910 C   0  0  0  0  0  0  0  0  0  0  0  0
   62.7770   33.8770   47.6590 C   0  0  0  0  0  0  0  0  0  0  0  0
   61.7390   33.7810   48.5870 C   0  0  0  0  0  0  0  0  0  0  0  0
   61.2320   32.5290   48.9480 C   0  0  0  0  0  0  0  0  0  0  0  0
   61.3140   29.5590   49.9680 N   0  0  0  0  0  0  0  0  0  0  0  0
   60.7650   28.3270   49.9590 C   0  0  0  0  0  0  0  0  0  0  0  0
   60.7120   27.4680   51.1620 C   0  0  0  0  0  0  0  0  0  0  0  0
   61.2930   26.1930   51.1270 C   0  0  0  0  0  0  0  0  0  0  0  0
   61.2660   25.3900   52.2700 C   0  0  0  0  0  0  0  0  0  0  0  0
   60.6860   25.8460   53.4100 N   0  0  0  0  0  0  0  0  0  0  0  0
   60.1270   27.0810   53.4780 C   0  0  0  0  0  0  0  0  0  0  0  0
   60.1380   27.9180   52.3590 C   0  0  0  0  0  0  0  0  0  0  0  0
   57.4960   26.5050   47.2550 O   0  0  0  0  0  0  0  0  0  0  0  0
   56.8120   26.9590   46.2390 C   0  0  0  0  0  0  0  0  0  0  0  0
   55.4690   26.6710   46.0100 O   0  0  0  0  0  0  0  0  0  0  0  0
   57.2060   31.1120   44.6670 C   0  0  0  0  0  0  0  0  0  0  0  0
   55.9560   31.1440   44.5070 O   0  0  0  0  0  0  0  0  0  0  0  0
   57.8990   32.3030   45.2110 C   0  0  0  0  0  0  0  0  0  0  0  0
   58.3460   33.3160   44.3460 C   0  0  0  0  0  0  0  0  0  0  0  0
   58.9730   34.4560   44.8580 C   0  0  0  0  0  0  0  0  0  0  0  0
   59.1470   34.6010   46.2340 C   0  0  0  0  0  0  0  0  0  0  0  0
   58.6960   33.6060   47.1050 C   0  0  0  0  0  0  0  0  0  0  0  0
   58.0720   32.4630   46.5980 C   0  0  0  0  0  0  0  0  0  0  0  0
   56.1701   28.7019   44.2520 H   0  0  0  0  0  0  0  0  0  0  0  0
   57.5700   28.0174   43.3582 H   0  0  0  0  0  0  0  0  0  0  0  0
   59.4175   26.1265   48.9408 H   0  0  0  0  0  0  0  0  0  0  0  0
   60.6173   26.2008   47.5932 H   0  0  0  0  0  0  0  0  0  0  0  0
   60.5152   29.2591   46.8406 H   0  0  0  0  0  0  0  0  0  0  0  0
   63.2416   30.5604   46.9959 H   0  0  0  0  0  0  0  0  0  0  0  0
   64.1340   32.7974   46.3617 H   0  0  0  0  0  0  0  0  0  0  0  0
   63.1718   34.8638   47.3754 H   0  0  0  0  0  0  0  0  0  0  0  0
   61.3185   34.6930   49.0357 H   0  0  0  0  0  0  0  0  0  0  0  0
   60.4150   32.4613   49.6815 H   0  0  0  0  0  0  0  0  0  0  0  0
   61.7676   25.8266   50.2048 H   0  0  0  0  0  0  0  0  0  0  0  0
   61.7155   24.3863   52.2464 H   0  0  0  0  0  0  0  0  0  0  0  0
   59.6646   27.4236   54.4154 H   0  0  0  0  0  0  0  0  0  0  0  0
   59.6985   28.9247   52.4172 H   0  0  0  0  0  0  0  0  0  0  0  0
   54.8730   26.3160   46.7480 H   0  0  0  0  0  0  0  0  0  0  0  0
   58.2019   33.2116   43.2605 H   0  0  0  0  0  0  0  0  0  0  0  0
   59.3298   35.2401   44.1740 H   0  0  0  0  0  0  0  0  0  0  0  0
   59.6397   35.4995   46.6340 H   0  0  0  0  0  0  0  0  0  0  0  0
   58.8322   33.7224   48.1903 H   0  0  0  0  0  0  0  0  0  0  0  0
   57.7141   31.6840   47.2873 H   0  0  0  0  0  0  0  0  0  0  0  0
  1  2  2  0
  2  3  1  0
  3  4  1  0
  4  5  1  0
  5  6  2  0
  6  7  1  0
  7  8  1  0
  8  9  2  0
  9 10  1  0
 10 11  1  0
 11 12  2  0
 12 13  1  0
 13 14  2  0
 14 15  1  0
 15 16  2  0
 10 17  1  0
 17 18  2  0
 18 19  1  0
 19 20  2  0
 20 21  1  0
 21 22  2  0
 22 23  1  0
 23 24  2  0
  6 25  1  0
 25 26  1  0
 26 27  1  0
  2 28  1  0
 28 29  2  0
 28 30  1  0
 30 31  2  0
 31 32  1  0
 32 33  2  0
 33 34  1  0
 34 35  2  0
 26  4  2  0
 35 30  1  0
 18  8  1  0
 24 19  1  0
 16 11  1  0
  3 36  1  0
  3 37  1  0
  7 38  1  0
  7 39  1  0
  9 40  1  0
 12 41  1  0
 13 42  1  0
 14 43  1  0
 15 44  1  0
 16 45  1  0
 20 46  1  0
 21 47  1  0
 23 48  1  0
 24 49  1  0
 27 50  1  0
 31 51  1  0
 32 52  1  0
 33 53  1  0
 34 54  1  0
 35 55  1  0
M  END
>  <UniqueID>  (18) 
18

>  <SMILES>  (18) 
O=C(Cc1nc(Cc2cn(-c3ccccc3)nc2-c2ccncc2)oc1O)C(=O)c1ccccc1

>  <Energy>  (18) 
127.01749206399707

>  <Genealogy>  (18) 
O=C(Cc1nc(Cc2cn(-c3ccccc3)nc2-c2ccncc2)oc1O)C(=O)c1ccccc1 (3D coordinates assigned)
O=C(Cc1nc(Cc2cn(-c3ccccc3)nc2-c2ccncc2)oc1O)C(=O)c1ccccc1 (optimized conformer: 127.01749206399707 kcal/mol)

>  <smiles>  (18) 
O=C(Cc1nc(Cc2cn(-c3ccccc3)nc2-c2ccncc2)oc1O)C(=O)c1ccccc1

>  <score_type>  (18) 
oracle

>  <origin>  (18) 
adg

>  <m_score__min__energy>  (18) 
-10.710000000000001

>  <m_primary>  (18) 
energy

$$$$
18:0
     RDKit          3D

 47 49  0  0  0  0  0  0  0  0999 V2000
   51.5600   32.3120   50.2790 O   0  0  0  0  0  0  0  0  0  0  0  0
   51.3760   32.3200   51.5270 C   0  0  0  0  0  0  0  0  0  0  0  0
   50.3410   33.0880   52.0500 O   0  0  0  0  0  0  0  0  0  0  0  0
   52.2420   31.5200   52.4220 C   0  0  0  0  0  0  0  0  0  0  0  0
   51.7730   31.0920   53.6760 C   0  0  0  0  0  0  0  0  0  0  0  0
   52.6070   30.3600   54.5270 C   0  0  0  0  0  0  0  0  0  0  0  0
   53.9170   30.0470   54.1420 C   0  0  0  0  0  0  0  0  0  0  0  0
   54.7420   29.3260   55.0050 O   0  0  0  0  0  0  0  0  0  0  0  0
   54.3940   30.4550   52.8820 C   0  0  0  0  0  0  0  0  0  0  0  0
   55.7870   30.1770   52.4660 C   0  0  0  0  0  0  0  0  0  0  0  0
   56.0740   29.0400   52.0030 O   0  0  0  0  0  0  0  0  0  0  0  0
   56.8240   31.1660   52.6130 N   0  0  0  0  0  0  0  0  0  0  0  0
   58.1770   30.7690   53.0170 C   0  0  0  0  0  0  0  0  0  0  0  0
   59.2510   31.4110   52.1100 C   0  0  0  0  0  0  0  0  0  0  0  0
   58.7870   32.6420   51.4160 N   0  0  0  0  0  0  0  0  0  0  0  0
   59.9260   33.5060   51.0280 C   0  0  0  0  0  0  0  0  0  0  0  0
   59.8380   33.9320   49.5550 C   0  0  0  0  0  0  0  0  0  0  0  0
   61.1670   33.7830   48.8580 C   0  0  0  0  0  0  0  0  0  0  0  0
   61.2400   33.8590   47.4570 C   0  0  0  0  0  0  0  0  0  0  0  0
   62.4670   33.6990   46.8050 C   0  0  0  0  0  0  0  0  0  0  0  0
   63.6270   33.4560   47.5460 C   0  0  0  0  0  0  0  0  0  0  0  0
   63.5610   33.3700   48.9400 C   0  0  0  0  0  0  0  0  0  0  0  0
   62.3370   33.5310   49.5960 C   0  0  0  0  0  0  0  0  0  0  0  0
   57.8240   33.3930   52.2410 C   0  0  0  0  0  0  0  0  0  0  0  0
   56.5310   32.5840   52.3620 C   0  0  0  0  0  0  0  0  0  0  0  0
   53.5540   31.1960   52.0330 C   0  0  0  0  0  0  0  0  0  0  0  0
   50.7465   31.3336   53.9890 H   0  0  0  0  0  0  0  0  0  0  0  0
   52.2315   30.0275   55.5060 H   0  0  0  0  0  0  0  0  0  0  0  0
   55.5630   28.8380   54.6660 H   0  0  0  0  0  0  0  0  0  0  0  0
   58.3483   31.0893   54.0553 H   0  0  0  0  0  0  0  0  0  0  0  0
   58.2573   29.6757   52.9257 H   0  0  0  0  0  0  0  0  0  0  0  0
   60.1214   31.6692   52.7311 H   0  0  0  0  0  0  0  0  0  0  0  0
   59.4965   30.6747   51.3305 H   0  0  0  0  0  0  0  0  0  0  0  0
   59.9227   34.4060   51.6605 H   0  0  0  0  0  0  0  0  0  0  0  0
   60.8545   32.9323   51.1648 H   0  0  0  0  0  0  0  0  0  0  0  0
   59.0938   33.3030   49.0445 H   0  0  0  0  0  0  0  0  0  0  0  0
   59.5451   34.9917   49.5183 H   0  0  0  0  0  0  0  0  0  0  0  0
   60.3283   34.0451   46.8704 H   0  0  0  0  0  0  0  0  0  0  0  0
   62.5192   33.7645   45.7082 H   0  0  0  0  0  0  0  0  0  0  0  0
   64.5919   33.3324   47.0324 H   0  0  0  0  0  0  0  0  0  0  0  0
   64.4741   33.1753   49.5217 H   0  0  0  0  0  0  0  0  0  0  0  0
   62.2891   33.4603   50.6927 H   0  0  0  0  0  0  0  0  0  0  0  0
   58.2485   33.5609   53.2418 H   0  0  0  0  0  0  0  0  0  0  0  0
   57.6110   34.3642   51.7705 H   0  0  0  0  0  0  0  0  0  0  0  0
   55.9334   32.9818   53.1955 H   0  0  0  0  0  0  0  0  0  0  0  0
   55.9736   32.6669   51.4173 H   0  0  0  0  0  0  0  0  0  0  0  0
   53.9273   31.5265   51.0525 H   0  0  0  0  0  0  0  0  0  0  0  0
  1  2  2  0
  2  3  1  0
  2  4  1  0
  4  5  2  0
  5  6  1  0
  6  7  2  0
  7  8  1  0
  7  9  1  0
  9 10  1  0
 10 11  2  0
 10 12  1  0
 12 13  1  0
 13 14  1  0
 14 15  1  0
 15 16  1  0
 16 17  1  0
 17 18  1  0
 18 19  2  0
 19 20  1  0
 20 21  2  0
 21 22  1  0
 22 23  2  0
 15 24  1  0
 24 25  1  0
  9 26  2  0
 26  4  1  0
 25 12  1  0
 23 18  1  0
  5 27  1  0
  6 28  1  0
  8 29  1  0
 13 30  1  0
 13 31  1  0
 14 32  1  0
 14 33  1  0
 16 34  1  0
 16 35  1  0
 17 36  1  0
 17 37  1  0
 19 38  1  0
 20 39  1  0
 21 40  1  0
 22 41  1  0
 23 42  1  0
 24 43  1  0
 24 44  1  0
 25 45  1  0
 25 46  1  0
 26 47  1  0
M  CHG  1   3  -1
M  END
>  <UniqueID>  (19) 
19

>  <SMILES>  (19) 
O=C([O-])c1ccc(O)c(C(=O)N2CCN(CCc3ccccc3)CC2)c1

>  <Energy>  (19) 
59.129950233735066

>  <Genealogy>  (19) 
O=C([O-])c1ccc(O)c(C(=O)N2CCN(CCc3ccccc3)CC2)c1 (protonated)
O=C([O-])c1ccc(O)c(C(=O)N2CCN(CCc3ccccc3)CC2)c1 (3D coordinates assigned)
O=C([O-])c1ccc(O)c(C(=O)N2CCN(CCc3ccccc3)CC2)c1 (nonaromatic ring conformer: 59.129950233735066 kcal/mol)

>  <smiles>  (19) 
O=C(O)c1ccc(O)c(C(=O)N2CCN(CCc3ccccc3)CC2)c1

>  <score_type>  (19) 
oracle

>  <origin>  (19) 
adg

>  <m_score__min__energy>  (19) 
-11.369999999999999

>  <m_primary>  (19) 
energy

$$$$
19:0
     RDKit          3D

 23 24  0  0  0  0  0  0  0  0999 V2000
   57.4360   26.4220   45.8980 C   0  0  0  0  0  0  0  0  0  0  0  0
   57.2670   27.6520   45.4230 C   0  0  0  0  0  0  0  0  0  0  0  0
   56.0600   28.2390   45.2550 N   0  0  0  0  0  0  0  0  0  0  0  0
   56.1660   29.4980   44.7500 C   0  0  0  0  0  0  0  0  0  0  0  0
   55.1470   30.2030   44.5180 O   0  0  0  0  0  0  0  0  0  0  0  0
   57.4720   29.9370   44.5140 C   0  0  0  0  0  0  0  0  0  0  0  0
   57.8130   31.1250   43.9890 C   0  0  0  0  0  0  0  0  0  0  0  0
   58.1550   32.3210   44.7890 C   0  0  0  0  0  0  0  0  0  0  0  0
   58.1690   32.2230   46.1890 C   0  0  0  0  0  0  0  0  0  0  0  0
   58.5190   33.3280   46.9720 C   0  0  0  0  0  0  0  0  0  0  0  0
   58.8780   34.5330   46.3620 C   0  0  0  0  0  0  0  0  0  0  0  0
   59.2200   35.6020   47.1210 F   0  0  0  0  0  0  0  0  0  0  0  0
   58.8960   34.6310   44.9680 C   0  0  0  0  0  0  0  0  0  0  0  0
   58.5460   33.5290   44.1830 C   0  0  0  0  0  0  0  0  0  0  0  0
   58.5150   28.6770   44.9470 S   0  0  0  0  0  0  0  0  0  0  0  0
   58.4497   26.0092   46.0076 H   0  0  0  0  0  0  0  0  0  0  0  0
   56.5622   25.8170   46.1815 H   0  0  0  0  0  0  0  0  0  0  0  0
   55.1480   27.7820   45.4820 H   0  0  0  0  0  0  0  0  0  0  0  0
   57.8397   31.2144   42.8930 H   0  0  0  0  0  0  0  0  0  0  0  0
   57.9032   31.2718   46.6733 H   0  0  0  0  0  0  0  0  0  0  0  0
   58.5117   33.2484   48.0691 H   0  0  0  0  0  0  0  0  0  0  0  0
   59.1862   35.5772   44.4878 H   0  0  0  0  0  0  0  0  0  0  0  0
   58.5764   33.6065   43.0862 H   0  0  0  0  0  0  0  0  0  0  0  0
  1  2  2  0
  2  3  1  0
  3  4  1  0
  4  5  2  0
  4  6  1  0
  6  7  2  3
  7  8  1  0
  8  9  2  0
  9 10  1  0
 10 11  2  0
 11 12  1  0
 11 13  1  0
 13 14  2  0
  6 15  1  0
 15  2  1  0
 14  8  1  0
  1 16  1  0
  1 17  1  0
  3 18  1  0
  7 19  1  0
  9 20  1  0
 10 21  1  0
 13 22  1  0
 14 23  1  0
M  END
>  <UniqueID>  (20) 
20

>  <SMILES>  (20) 
C=c1[nH]c(=O)c(=Cc2ccc(F)cc2)s1

>  <Energy>  (20) 
59.74781183735271

>  <Genealogy>  (20) 
C=c1[nH]c(=O)c(=Cc2ccc(F)cc2)s1 (3D coordinates assigned)
C=c1[nH]c(=O)c(=Cc2ccc(F)cc2)s1 (optimized conformer: 59.74781183735271 kcal/mol)

>  <smiles>  (20) 
C=c1[nH]c(=O)c(=Cc2ccc(F)cc2)s1

>  <score_type>  (20) 
oracle

>  <origin>  (20) 
adg

>  <m_score__min__energy>  (20) 
-6.7599999999999998

>  <m_primary>  (20) 
energy

$$$$
20:0
     RDKit          3D

 37 39  0  0  0  0  0  0  0  0999 V2000
   55.6450   30.4970   44.1570 C   0  0  0  0  0  0  0  0  0  0  0  0
   56.6210   29.8000   44.7430 C   0  0  0  0  0  0  0  0  0  0  0  0
   56.6030   28.4540   44.8430 N   0  0  0  0  0  0  0  0  0  0  0  0
   57.7800   28.0860   45.3970 C   0  0  0  0  0  0  0  0  0  0  0  0
   58.1800   26.8280   45.6520 C   0  0  0  0  0  0  0  0  0  0  0  0
   57.3920   25.7950   46.3570 C   0  0  0  0  0  0  0  0  0  0  0  0
   57.8860   24.6960   46.9560 N   0  0  0  0  0  0  0  0  0  0  0  0
   56.7840   24.0540   47.3970 C   0  0  0  0  0  0  0  0  0  0  0  0
   56.8400   22.9640   48.0260 O   0  0  0  0  0  0  0  0  0  0  0  0
   55.6180   24.6680   47.1100 N   0  0  0  0  0  0  0  0  0  0  0  0
   56.0210   25.7650   46.4470 C   0  0  0  0  0  0  0  0  0  0  0  0
   55.1500   26.7180   45.9340 O   0  0  0  0  0  0  0  0  0  0  0  0
   58.5570   29.2040   45.6520 C   0  0  0  0  0  0  0  0  0  0  0  0
   57.8130   30.3010   45.2580 C   0  0  0  0  0  0  0  0  0  0  0  0
   58.2560   31.7030   45.3800 C   0  0  0  0  0  0  0  0  0  0  0  0
   58.2430   32.4410   44.3580 O   0  0  0  0  0  0  0  0  0  0  0  0
   58.7540   32.2140   46.6240 N   0  0  0  0  0  0  0  0  0  0  0  0
   59.0700   33.6310   46.7910 C   0  0  0  0  0  0  0  0  0  0  0  0
   60.4980   33.8060   47.2220 C   0  0  0  0  0  0  0  0  0  0  0  0
   61.6040   33.7040   46.4030 C   0  0  0  0  0  0  0  0  0  0  0  0
   62.6800   33.8690   47.2560 C   0  0  0  0  0  0  0  0  0  0  0  0
   62.2380   34.0460   48.5180 N   0  0  0  0  0  0  0  0  0  0  0  0
   60.9160   33.9960   48.4900 N   0  0  0  0  0  0  0  0  0  0  0  0
   60.0770   34.1550   49.6730 C   0  0  0  0  0  0  0  0  0  0  0  0
   55.7089   31.5938   44.1022 H   0  0  0  0  0  0  0  0  0  0  0  0
   54.7768   29.9746   43.7289 H   0  0  0  0  0  0  0  0  0  0  0  0
   55.8350   27.8410   44.4930 H   0  0  0  0  0  0  0  0  0  0  0  0
   59.1838   26.5418   45.3048 H   0  0  0  0  0  0  0  0  0  0  0  0
   59.5686   29.2167   46.0838 H   0  0  0  0  0  0  0  0  0  0  0  0
   58.9590   31.5440   47.4000 H   0  0  0  0  0  0  0  0  0  0  0  0
   58.9146   34.1514   45.8344 H   0  0  0  0  0  0  0  0  0  0  0  0
   58.4115   34.0528   47.5646 H   0  0  0  0  0  0  0  0  0  0  0  0
   61.6250   33.5306   45.3170 H   0  0  0  0  0  0  0  0  0  0  0  0
   63.7369   33.8576   46.9512 H   0  0  0  0  0  0  0  0  0  0  0  0
   60.6923   34.0384   50.5773 H   0  0  0  0  0  0  0  0  0  0  0  0
   59.6203   35.1557   49.6668 H   0  0  0  0  0  0  0  0  0  0  0  0
   59.2858   33.3908   49.6668 H   0  0  0  0  0  0  0  0  0  0  0  0
  1  2  2  0
  2  3  1  0
  3  4  1  0
  4  5  2  3
  5  6  1  0
  6  7  1  0
  7  8  1  0
  8  9  2  0
  8 10  1  0
 10 11  1  0
 11 12  1  0
  4 13  1  0
 13 14  2  0
 14 15  1  0
 15 16  2  0
 15 17  1  0
 17 18  1  0
 18 19  1  0
 19 20  2  0
 20 21  1  0
 21 22  2  0
 22 23  1  0
 23 24  1  0
 14  2  1  0
 23 19  1  0
 11  6  2  0
  1 25  1  0
  1 26  1  0
  3 27  1  0
  5 28  1  0
 13 29  1  0
 17 30  1  0
 18 31  1  0
 18 32  1  0
 20 33  1  0
 21 34  1  0
 24 35  1  0
 24 36  1  0
 24 37  1  0
M  CHG  3   7  -1  10  -1  12  -1
M  END
>  <UniqueID>  (21) 
21

>  <SMILES>  (21) 
C=c1[nH]c(=Cc2[n-]c(=O)[n-]c2[O-])cc1C(=O)NCc1ccnn1C

>  <Energy>  (21) 
127.47329891448965

>  <Genealogy>  (21) 
C=c1[nH]c(=Cc2[n-]c(=O)[n-]c2[O-])cc1C(=O)NCc1ccnn1C (protonated)
C=c1[nH]c(=Cc2[n-]c(=O)[n-]c2[O-])cc1C(=O)NCc1ccnn1C (3D coordinates assigned)
C=c1[nH]c(=Cc2[n-]c(=O)[n-]c2[O-])cc1C(=O)NCc1ccnn1C (optimized conformer: 127.47329891448965 kcal/mol)

>  <smiles>  (21) 
C=c1[nH]c(=Cc2[nH]c(=O)[nH]c2O)cc1C(=O)NCc1ccnn1C

>  <score_type>  (21) 
oracle

>  <origin>  (21) 
adg

>  <m_score__min__energy>  (21) 
-16.68

>  <m_primary>  (21) 
energy

$$$$
21:0
     RDKit          3D

 56 59  0  0  0  0  0  0  0  0999 V2000
   53.4230   28.5660   54.4180 C   0  0  0  0  0  0  0  0  0  0  0  0
   54.1100   29.3720   53.5870 C   0  0  0  0  0  0  0  0  0  0  0  0
   53.5360   30.2060   52.6210 C   0  0  0  0  0  0  0  0  0  0  0  0
   52.2270   30.3560   52.3340 C   0  0  0  0  0  0  0  0  0  0  0  0
   51.7220   30.8260   51.0320 C   0  0  0  0  0  0  0  0  0  0  0  0
   51.6280   30.0370   49.9470 N   0  0  0  0  0  0  0  0  0  0  0  0
   51.0550   30.8400   49.0240 C   0  0  0  0  0  0  0  0  0  0  0  0
   50.8080   30.4560   47.8520 O   0  0  0  0  0  0  0  0  0  0  0  0
   50.7560   32.0830   49.4610 N   0  0  0  0  0  0  0  0  0  0  0  0
   51.1750   32.0560   50.7370 C   0  0  0  0  0  0  0  0  0  0  0  0
   51.0170   33.1170   51.6190 O   0  0  0  0  0  0  0  0  0  0  0  0
   54.5860   30.7920   51.9440 C   0  0  0  0  0  0  0  0  0  0  0  0
   55.7470   30.3130   52.5110 C   0  0  0  0  0  0  0  0  0  0  0  0
   57.0820   30.6520   51.9780 C   0  0  0  0  0  0  0  0  0  0  0  0
   57.4150   30.1900   50.8540 O   0  0  0  0  0  0  0  0  0  0  0  0
   58.0320   31.3910   52.7920 N   0  0  0  0  0  0  0  0  0  0  0  0
   57.9310   32.8580   52.6060 C   0  0  0  0  0  0  0  0  0  0  0  0
   58.6290   33.3580   51.3290 C   0  0  0  0  0  0  0  0  0  0  0  0
   60.0270   32.8940   51.2860 N   0  0  0  0  0  0  0  0  0  0  0  0
   60.7050   33.4110   50.0790 C   0  0  0  0  0  0  0  0  0  0  0  0
   59.6990   34.1580   49.1900 C   0  0  0  0  0  0  0  0  0  0  0  0
   60.2050   34.4960   47.7960 C   0  0  0  0  0  0  0  0  0  0  0  0
   59.1800   33.3880   47.9840 C   0  0  0  0  0  0  0  0  0  0  0  0
   60.0580   31.4180   51.3140 C   0  0  0  0  0  0  0  0  0  0  0  0
   59.4160   30.9010   52.6080 C   0  0  0  0  0  0  0  0  0  0  0  0
   55.4720   29.4640   53.5400 N   0  0  0  0  0  0  0  0  0  0  0  0
   56.4300   28.6340   54.3130 C   0  0  0  0  0  0  0  0  0  0  0  0
   56.4870   29.1090   55.7670 C   0  0  0  0  0  0  0  0  0  0  0  0
   56.1450   27.1280   54.2230 C   0  0  0  0  0  0  0  0  0  0  0  0
   53.9598   27.9430   55.1485 H   0  0  0  0  0  0  0  0  0  0  0  0
   52.3248   28.5304   54.3665 H   0  0  0  0  0  0  0  0  0  0  0  0
   51.4937   30.1134   53.1172 H   0  0  0  0  0  0  0  0  0  0  0  0
   54.5106   31.5057   51.1104 H   0  0  0  0  0  0  0  0  0  0  0  0
   57.7830   31.2070   53.7930 H   0  0  0  0  0  0  0  0  0  0  0  0
   56.8667   33.1309   52.5521 H   0  0  0  0  0  0  0  0  0  0  0  0
   58.4368   33.3309   53.4608 H   0  0  0  0  0  0  0  0  0  0  0  0
   58.0929   32.9722   50.4494 H   0  0  0  0  0  0  0  0  0  0  0  0
   58.6204   34.4580   51.3279 H   0  0  0  0  0  0  0  0  0  0  0  0
   61.5077   34.1005   50.3794 H   0  0  0  0  0  0  0  0  0  0  0  0
   61.1291   32.5677   49.5142 H   0  0  0  0  0  0  0  0  0  0  0  0
   59.2289   34.7179   50.0119 H   0  0  0  0  0  0  0  0  0  0  0  0
   59.9106   35.4422   47.3186 H   0  0  0  0  0  0  0  0  0  0  0  0
   61.1963   34.5664   47.3245 H   0  0  0  0  0  0  0  0  0  0  0  0
   58.1443   33.5331   47.6428 H   0  0  0  0  0  0  0  0  0  0  0  0
   59.1230   32.3255   47.7051 H   0  0  0  0  0  0  0  0  0  0  0  0
   59.5013   31.0261   50.4500 H   0  0  0  0  0  0  0  0  0  0  0  0
   61.1036   31.0792   51.2709 H   0  0  0  0  0  0  0  0  0  0  0  0
   59.3994   29.8015   52.5781 H   0  0  0  0  0  0  0  0  0  0  0  0
   60.0165   31.2751   53.4503 H   0  0  0  0  0  0  0  0  0  0  0  0
   57.4187   28.7729   53.8513 H   0  0  0  0  0  0  0  0  0  0  0  0
   56.3833   28.2447   56.4394 H   0  0  0  0  0  0  0  0  0  0  0  0
   57.4511   29.6048   55.9532 H   0  0  0  0  0  0  0  0  0  0  0  0
   55.6676   29.8189   55.9532 H   0  0  0  0  0  0  0  0  0  0  0  0
   56.0656   26.7086   55.2368 H   0  0  0  0  0  0  0  0  0  0  0  0
   55.2001   26.9652   53.6839 H   0  0  0  0  0  0  0  0  0  0  0  0
   56.9651   26.6312   53.6839 H   0  0  0  0  0  0  0  0  0  0  0  0
  1  2  2  0
  2  3  1  0
  3  4  2  3
  4  5  1  0
  5  6  1  0
  6  7  1  0
  7  8  2  0
  7  9  1  0
  9 10  1  0
 10 11  1  0
  3 12  1  0
 12 13  2  0
 13 14  1  0
 14 15  2  0
 14 16  1  0
 16 17  1  0
 17 18  1  0
 18 19  1  0
 19 20  1  0
 20 21  1  0
 21 22  1  0
 22 23  1  0
 19 24  1  0
 24 25  1  0
 13 26  1  0
 26 27  1  0
 27 28  1  0
 27 29  1  0
 26  2  1  0
 10  5  2  0
 25 16  1  0
 23 21  1  0
  1 30  1  0
  1 31  1  0
  4 32  1  0
 12 33  1  0
 16 34  1  0
 17 35  1  0
 17 36  1  0
 18 37  1  0
 18 38  1  0
 20 39  1  0
 20 40  1  0
 21 41  1  0
 22 42  1  0
 22 43  1  0
 23 44  1  0
 23 45  1  0
 24 46  1  0
 24 47  1  0
 25 48  1  0
 25 49  1  0
 27 50  1  0
 28 51  1  0
 28 52  1  0
 28 53  1  0
 29 54  1  0
 29 55  1  0
 29 56  1  0
M  CHG  4   6  -1   9  -1  11  -1  16   1
M  END
>  <UniqueID>  (22) 
22

>  <SMILES>  (22) 
C=c1c(=Cc2[n-]c(=O)[n-]c2[O-])cc(C(=O)[NH+]2CCN(CC3CC3)CC2)n1C(C)C

>  <Energy>  (22) 
400.51286552388643

>  <Genealogy>  (22) 
C=c1c(=Cc2[n-]c(=O)[n-]c2[O-])cc(C(=O)[NH+]2CCN(CC3CC3)CC2)n1C(C)C (protonated)
C=c1c(=Cc2[n-]c(=O)[n-]c2[O-])cc(C(=O)[NH+]2CCN(CC3CC3)CC2)n1C(C)C (3D coordinates assigned)
C=c1c(=Cc2[n-]c(=O)[n-]c2[O-])cc(C(=O)[NH+]2CCN(CC3CC3)CC2)n1C(C)C (nonaromatic ring conformer: 400.51286552388643 kcal/mol)

>  <smiles>  (22) 
C=c1c(=Cc2[nH]c(=O)[nH]c2O)cc(C(=O)N2CCN(CC3CC3)CC2)n1C(C)C

>  <score_type>  (22) 
oracle

>  <origin>  (22) 
adg

>  <m_score__min__energy>  (22) 
-15.880000000000001

>  <m_primary>  (22) 
energy

$$$$
22:0
     RDKit          3D

 57 59  0  0  0  0  0  0  0  0999 V2000
   52.1310   29.8720   49.8940 C   0  0  0  0  0  0  0  0  0  0  0  0
   51.9350   30.6810   50.9430 C   0  0  0  0  0  0  0  0  0  0  0  0
   52.3990   30.2360   52.3120 C   0  0  0  0  0  0  0  0  0  0  0  0
   53.9050   30.2330   52.3800 C   0  0  0  0  0  0  0  0  0  0  0  0
   54.5940   29.0700   52.7680 C   0  0  0  0  0  0  0  0  0  0  0  0
   55.9910   29.0410   52.7620 C   0  0  0  0  0  0  0  0  0  0  0  0
   56.7190   30.1730   52.3690 C   0  0  0  0  0  0  0  0  0  0  0  0
   58.4820   30.1060   52.2890 S   0  0  0  0  0  0  0  0  0  0  0  0
   59.0630   31.1700   53.1810 O   0  0  0  0  0  0  0  0  0  0  0  0
   58.9480   28.7680   52.7930 O   0  0  0  0  0  0  0  0  0  0  0  0
   59.0590   30.3310   50.6520 N   0  0  0  0  0  0  0  0  0  0  0  0
   60.5370   30.3510   50.6150 C   0  0  0  0  0  0  0  0  0  0  0  0
   61.0480   31.0700   49.3620 C   0  0  0  0  0  0  0  0  0  0  0  0
   60.6530   32.4970   49.3760 N   0  0  0  0  0  0  0  0  0  0  0  0
   60.6900   33.1420   47.7510 S   0  0  0  0  0  0  0  0  0  0  0  0
   60.4050   34.6180   47.7790 O   0  0  0  0  0  0  0  0  0  0  0  0
   62.0540   32.9190   47.1550 O   0  0  0  0  0  0  0  0  0  0  0  0
   59.4650   32.3430   46.7640 C   0  0  0  0  0  0  0  0  0  0  0  0
   59.5190   30.9570   46.5750 C   0  0  0  0  0  0  0  0  0  0  0  0
   58.5770   30.3190   45.7640 C   0  0  0  0  0  0  0  0  0  0  0  0
   57.5570   31.0550   45.1300 C   0  0  0  0  0  0  0  0  0  0  0  0
   56.5670   30.3610   44.2620 C   0  0  0  0  0  0  0  0  0  0  0  0
   56.6980   30.3460   42.7670 C   0  0  0  0  0  0  0  0  0  0  0  0
   55.5860   29.7630   44.7860 O   0  0  0  0  0  0  0  0  0  0  0  0
   57.5010   32.4480   45.3380 C   0  0  0  0  0  0  0  0  0  0  0  0
   58.4490   33.0860   46.1460 C   0  0  0  0  0  0  0  0  0  0  0  0
   59.3350   32.7470   50.0150 C   0  0  0  0  0  0  0  0  0  0  0  0
   58.4260   31.5040   50.0050 C   0  0  0  0  0  0  0  0  0  0  0  0
   56.0350   31.3410   51.9970 C   0  0  0  0  0  0  0  0  0  0  0  0
   54.6370   31.3680   51.9940 C   0  0  0  0  0  0  0  0  0  0  0  0
   51.2000   31.9630   50.7860 C   0  0  0  0  0  0  0  0  0  0  0  0
   51.0380   32.4800   49.6470 O   0  0  0  0  0  0  0  0  0  0  0  0
   50.6770   32.6150   51.8970 O   0  0  0  0  0  0  0  0  0  0  0  0
   51.7994   30.1809   48.8917 H   0  0  0  0  0  0  0  0  0  0  0  0
   52.6236   28.8986   50.0346 H   0  0  0  0  0  0  0  0  0  0  0  0
   52.0031   30.9265   53.0713 H   0  0  0  0  0  0  0  0  0  0  0  0
   52.0308   29.2167   52.5002 H   0  0  0  0  0  0  0  0  0  0  0  0
   54.0299   28.1780   53.0780 H   0  0  0  0  0  0  0  0  0  0  0  0
   56.5215   28.1268   53.0667 H   0  0  0  0  0  0  0  0  0  0  0  0
   60.9116   30.8741   51.5072 H   0  0  0  0  0  0  0  0  0  0  0  0
   60.9000   29.3128   50.5944 H   0  0  0  0  0  0  0  0  0  0  0  0
   62.1453   31.0000   49.3284 H   0  0  0  0  0  0  0  0  0  0  0  0
   60.6061   30.5908   48.4759 H   0  0  0  0  0  0  0  0  0  0  0  0
   61.3770   33.0190   49.9230 H   0  0  0  0  0  0  0  0  0  0  0  0
   60.3066   30.3676   47.0672 H   0  0  0  0  0  0  0  0  0  0  0  0
   58.6325   29.2300   45.6190 H   0  0  0  0  0  0  0  0  0  0  0  0
   57.7564   30.2248   42.4929 H   0  0  0  0  0  0  0  0  0  0  0  0
   56.1147   29.5088   42.3562 H   0  0  0  0  0  0  0  0  0  0  0  0
   56.3190   31.2934   42.3562 H   0  0  0  0  0  0  0  0  0  0  0  0
   56.7051   33.0388   44.8610 H   0  0  0  0  0  0  0  0  0  0  0  0
   58.3969   34.1744   46.2968 H   0  0  0  0  0  0  0  0  0  0  0  0
   59.5018   33.0529   51.0584 H   0  0  0  0  0  0  0  0  0  0  0  0
   58.8288   33.5342   49.4370 H   0  0  0  0  0  0  0  0  0  0  0  0
   57.4959   31.7432   50.5414 H   0  0  0  0  0  0  0  0  0  0  0  0
   58.2319   31.2412   48.9546 H   0  0  0  0  0  0  0  0  0  0  0  0
   56.6010   32.2385   51.7067 H   0  0  0  0  0  0  0  0  0  0  0  0
   54.1079   32.2825   51.6879 H   0  0  0  0  0  0  0  0  0  0  0  0
  1  2  2  0
  2  3  1  0
  3  4  1  0
  4  5  2  0
  5  6  1  0
  6  7  2  0
  7  8  1  0
  8  9  2  0
  8 10  2  0
  8 11  1  0
 11 12  1  0
 12 13  1  0
 13 14  1  0
 14 15  1  0
 15 16  2  0
 15 17  2  0
 15 18  1  0
 18 19  2  0
 19 20  1  0
 20 21  2  0
 21 22  1  0
 22 23  1  0
 22 24  2  0
 21 25  1  0
 25 26  2  0
 14 27  1  0
 27 28  1  0
  7 29  1  0
 29 30  2  0
  2 31  1  0
 31 32  2  0
 31 33  1  0
 30  4  1  0
 28 11  1  0
 26 18  1  0
  1 34  1  0
  1 35  1  0
  3 36  1  0
  3 37  1  0
  5 38  1  0
  6 39  1  0
 12 40  1  0
 12 41  1  0
 13 42  1  0
 13 43  1  0
 14 44  1  0
 19 45  1  0
 20 46  1  0
 23 47  1  0
 23 48  1  0
 23 49  1  0
 25 50  1  0
 26 51  1  0
 27 52  1  0
 27 53  1  0
 28 54  1  0
 28 55  1  0
 29 56  1  0
 30 57  1  0
M  CHG  2  14   1  33  -1
M  END
>  <UniqueID>  (23) 
23

>  <SMILES>  (23) 
C=C(Cc1ccc(S(=O)(=O)N2CC[NH+](S(=O)(=O)c3ccc(C(C)=O)cc3)CC2)cc1)C(=O)[O-]

>  <Energy>  (23) 
64.44783543783524

>  <Genealogy>  (23) 
C=C(Cc1ccc(S(=O)(=O)N2CC[NH+](S(=O)(=O)c3ccc(C(C)=O)cc3)CC2)cc1)C(=O)[O-] (protonated)
C=C(Cc1ccc(S(=O)(=O)N2CC[NH+](S(=O)(=O)c3ccc(C(C)=O)cc3)CC2)cc1)C(=O)[O-] (3D coordinates assigned)
C=C(Cc1ccc(S(=O)(=O)N2CC[NH+](S(=O)(=O)c3ccc(C(C)=O)cc3)CC2)cc1)C(=O)[O-] (nonaromatic ring conformer: 64.44783543783524 kcal/mol)

>  <smiles>  (23) 
C=C(Cc1ccc(S(=O)(=O)N2CCN(S(=O)(=O)c3ccc(C(C)=O)cc3)CC2)cc1)C(=O)O

>  <score_type>  (23) 
oracle

>  <origin>  (23) 
adg

>  <m_score__min__energy>  (23) 
-12.99

>  <m_primary>  (23) 
energy

$$$$
23:0
     RDKit          3D

 66 69  0  0  0  0  0  0  0  0999 V2000
   58.2620   32.2240   43.8100 C   0  0  0  0  0  0  0  0  0  0  0  0
   57.5570   30.9840   44.2720 C   0  0  0  0  0  0  0  0  0  0  0  0
   56.1770   30.8460   44.0610 C   0  0  0  0  0  0  0  0  0  0  0  0
   55.5070   29.7050   44.5120 C   0  0  0  0  0  0  0  0  0  0  0  0
   56.2040   28.6990   45.1880 C   0  0  0  0  0  0  0  0  0  0  0  0
   55.5210   27.5690   45.6210 O   0  0  0  0  0  0  0  0  0  0  0  0
   57.5840   28.8360   45.4230 C   0  0  0  0  0  0  0  0  0  0  0  0
   58.4710   27.5770   46.2850 S   0  0  0  0  0  0  0  0  0  0  0  0
   58.8710   26.4600   45.3600 O   0  0  0  0  0  0  0  0  0  0  0  0
   57.5850   27.0150   47.3620 O   0  0  0  0  0  0  0  0  0  0  0  0
   59.8960   28.2490   47.0130 N   0  0  0  0  0  0  0  0  0  0  0  0
   60.0400   28.5050   48.4220 C   0  0  0  0  0  0  0  0  0  0  0  0
   60.6980   27.6040   49.2800 C   0  0  0  0  0  0  0  0  0  0  0  0
   60.8270   27.8920   50.6420 C   0  0  0  0  0  0  0  0  0  0  0  0
   60.3020   29.0750   51.1630 C   0  0  0  0  0  0  0  0  0  0  0  0
   59.6450   29.9860   50.3230 C   0  0  0  0  0  0  0  0  0  0  0  0
   59.0380   31.2410   50.8930 C   0  0  0  0  0  0  0  0  0  0  0  0
   58.1960   31.9640   49.8320 C   0  0  0  0  0  0  0  0  0  0  0  0
   59.0580   32.7020   48.8830 N   0  0  0  0  0  0  0  0  0  0  0  0
   59.6150   33.9080   49.5210 C   0  0  0  0  0  0  0  0  0  0  0  0
   60.6840   34.5460   48.6110 C   0  0  0  0  0  0  0  0  0  0  0  0
   60.4540   34.2900   47.1670 N   0  0  0  0  0  0  0  0  0  0  0  0
   61.2090   33.1190   46.6660 C   0  0  0  0  0  0  0  0  0  0  0  0
   62.7130   33.3490   46.8430 C   0  0  0  0  0  0  0  0  0  0  0  0
   63.1930   32.7530   48.1390 C   0  0  0  0  0  0  0  0  0  0  0  0
   64.4120   33.1670   48.7030 C   0  0  0  0  0  0  0  0  0  0  0  0
   64.8730   32.5860   49.8890 C   0  0  0  0  0  0  0  0  0  0  0  0
   64.1270   31.5820   50.5120 C   0  0  0  0  0  0  0  0  0  0  0  0
   62.9230   31.1520   49.9490 C   0  0  0  0  0  0  0  0  0  0  0  0
   62.4560   31.7310   48.7640 C   0  0  0  0  0  0  0  0  0  0  0  0
   59.0130   34.1990   46.8610 C   0  0  0  0  0  0  0  0  0  0  0  0
   58.3240   33.0600   47.6460 C   0  0  0  0  0  0  0  0  0  0  0  0
   59.5080   29.6890   48.9570 C   0  0  0  0  0  0  0  0  0  0  0  0
   58.2530   29.9830   44.9660 C   0  0  0  0  0  0  0  0  0  0  0  0
   58.5923   32.8050   44.6837 H   0  0  0  0  0  0  0  0  0  0  0  0
   59.1362   31.9444   43.2037 H   0  0  0  0  0  0  0  0  0  0  0  0
   57.5747   32.8323   43.2037 H   0  0  0  0  0  0  0  0  0  0  0  0
   55.6203   31.6382   43.5390 H   0  0  0  0  0  0  0  0  0  0  0  0
   54.4267   29.5982   44.3343 H   0  0  0  0  0  0  0  0  0  0  0  0
   60.7160   28.4120   46.3840 H   0  0  0  0  0  0  0  0  0  0  0  0
   61.1129   26.6684   48.8769 H   0  0  0  0  0  0  0  0  0  0  0  0
   61.3444   27.1832   51.3053 H   0  0  0  0  0  0  0  0  0  0  0  0
   60.4037   29.2940   52.2362 H   0  0  0  0  0  0  0  0  0  0  0  0
   58.3956   30.9768   51.7459 H   0  0  0  0  0  0  0  0  0  0  0  0
   59.8478   31.9100   51.2195 H   0  0  0  0  0  0  0  0  0  0  0  0
   57.6028   31.2224   49.2770 H   0  0  0  0  0  0  0  0  0  0  0  0
   57.5367   32.6839   50.3390 H   0  0  0  0  0  0  0  0  0  0  0  0
   58.8065   34.6332   49.6955 H   0  0  0  0  0  0  0  0  0  0  0  0
   60.0794   33.6262   50.4775 H   0  0  0  0  0  0  0  0  0  0  0  0
   60.6808   35.6333   48.7777 H   0  0  0  0  0  0  0  0  0  0  0  0
   61.6499   34.0895   48.8732 H   0  0  0  0  0  0  0  0  0  0  0  0
   60.9087   32.2237   47.2302 H   0  0  0  0  0  0  0  0  0  0  0  0
   60.9890   32.9785   45.5974 H   0  0  0  0  0  0  0  0  0  0  0  0
   63.2512   32.8777   46.0075 H   0  0  0  0  0  0  0  0  0  0  0  0
   62.9059   34.4318   46.8586 H   0  0  0  0  0  0  0  0  0  0  0  0
   65.0057   33.9508   48.2099 H   0  0  0  0  0  0  0  0  0  0  0  0
   65.8232   32.9196   50.3314 H   0  0  0  0  0  0  0  0  0  0  0  0
   64.4884   31.1295   51.4472 H   0  0  0  0  0  0  0  0  0  0  0  0
   62.3411   30.3569   50.4381 H   0  0  0  0  0  0  0  0  0  0  0  0
   61.5104   31.3862   48.3202 H   0  0  0  0  0  0  0  0  0  0  0  0
   58.5331   35.1529   47.1252 H   0  0  0  0  0  0  0  0  0  0  0  0
   58.9071   33.9835   45.7875 H   0  0  0  0  0  0  0  0  0  0  0  0
   57.3085   33.3830   47.9187 H   0  0  0  0  0  0  0  0  0  0  0  0
   58.3039   32.1709   46.9987 H   0  0  0  0  0  0  0  0  0  0  0  0
   58.9775   30.3925   48.2985 H   0  0  0  0  0  0  0  0  0  0  0  0
   59.3308   30.0974   45.1536 H   0  0  0  0  0  0  0  0  0  0  0  0
  1  2  1  0
  2  3  2  0
  3  4  1  0
  4  5  2  0
  5  6  1  0
  5  7  1  0
  7  8  1  0
  8  9  2  0
  8 10  2  0
  8 11  1  0
 11 12  1  0
 12 13  2  0
 13 14  1  0
 14 15  2  0
 15 16  1  0
 16 17  1  0
 17 18  1  0
 18 19  1  0
 19 20  1  0
 20 21  1  0
 21 22  1  0
 22 23  1  0
 23 24  1  0
 24 25  1  0
 25 26  2  0
 26 27  1  0
 27 28  2  0
 28 29  1  0
 29 30  2  0
 22 31  1  0
 31 32  1  0
 16 33  2  0
  7 34  2  0
 34  2  1  0
 33 12  1  0
 32 19  1  0
 30 25  1  0
  1 35  1  0
  1 36  1  0
  1 37  1  0
  3 38  1  0
  4 39  1  0
 11 40  1  0
 13 41  1  0
 14 42  1  0
 15 43  1  0
 17 44  1  0
 17 45  1  0
 18 46  1  0
 18 47  1  0
 20 48  1  0
 20 49  1  0
 21 50  1  0
 21 51  1  0
 23 52  1  0
 23 53  1  0
 24 54  1  0
 24 55  1  0
 26 56  1  0
 27 57  1  0
 28 58  1  0
 29 59  1  0
 30 60  1  0
 31 61  1  0
 31 62  1  0
 32 63  1  0
 32 64  1  0
 33 65  1  0
 34 66  1  0
M  CHG  1   6  -1
M  END
>  <UniqueID>  (24) 
24

>  <SMILES>  (24) 
Cc1ccc([O-])c(S(=O)(=O)Nc2cccc(CCN3CCN(CCc4ccccc4)CC3)c2)c1

>  <Energy>  (24) 
79.11352266528746

>  <Genealogy>  (24) 
Cc1ccc([O-])c(S(=O)(=O)Nc2cccc(CCN3CCN(CCc4ccccc4)CC3)c2)c1 (protonated)
Cc1ccc([O-])c(S(=O)(=O)Nc2cccc(CCN3CCN(CCc4ccccc4)CC3)c2)c1 (3D coordinates assigned)
Cc1ccc([O-])c(S(=O)(=O)Nc2cccc(CCN3CCN(CCc4ccccc4)CC3)c2)c1 (nonaromatic ring conformer: 79.11352266528746 kcal/mol)

>  <smiles>  (24) 
Cc1ccc(O)c(S(=O)(=O)Nc2cccc(CCN3CCN(CCc4ccccc4)CC3)c2)c1

>  <score_type>  (24) 
oracle

>  <origin>  (24) 
adg

>  <m_score__min__energy>  (24) 
-13.74

>  <m_primary>  (24) 
energy

$$$$
24:0
     RDKit          3D

 44 47  0  0  0  0  0  0  0  0999 V2000
   64.1900   32.6880   50.1410 O   0  0  0  0  0  0  0  0  0  0  0  0
   63.5150   33.0320   49.1360 C   0  0  0  0  0  0  0  0  0  0  0  0
   62.0400   33.2650   49.2690 C   0  0  0  0  0  0  0  0  0  0  0  0
   61.5750   34.2170   48.2400 N   0  0  0  0  0  0  0  0  0  0  0  0
   60.1230   34.5000   48.3510 C   0  0  0  0  0  0  0  0  0  0  0  0
   59.2850   33.8030   47.3090 C   0  0  0  0  0  0  0  0  0  0  0  0
   58.3580   34.4110   46.4740 C   0  0  0  0  0  0  0  0  0  0  0  0
   57.7530   33.5280   45.5710 C   0  0  0  0  0  0  0  0  0  0  0  0
   58.1990   32.2080   45.6870 C   0  0  0  0  0  0  0  0  0  0  0  0
   57.7790   31.0450   44.8600 C   0  0  0  0  0  0  0  0  0  0  0  0
   57.0100   31.2220   43.6930 C   0  0  0  0  0  0  0  0  0  0  0  0
   56.6420   30.1240   42.9120 C   0  0  0  0  0  0  0  0  0  0  0  0
   57.0230   28.8360   43.2870 C   0  0  0  0  0  0  0  0  0  0  0  0
   57.7730   28.6300   44.4480 C   0  0  0  0  0  0  0  0  0  0  0  0
   58.1400   27.3170   44.7820 O   0  0  0  0  0  0  0  0  0  0  0  0
   57.3330   26.4180   45.4900 C   0  0  0  0  0  0  0  0  0  0  0  0
   55.9820   26.7170   45.6640 C   0  0  0  0  0  0  0  0  0  0  0  0
   55.1830   25.8530   46.3390 N   0  0  0  0  0  0  0  0  0  0  0  0
   55.6610   24.7220   46.8600 N   0  0  0  0  0  0  0  0  0  0  0  0
   56.9730   24.3870   46.7470 C   0  0  0  0  0  0  0  0  0  0  0  0
   57.3900   23.3190   47.2660 O   0  0  0  0  0  0  0  0  0  0  0  0
   57.8460   25.2400   46.0620 C   0  0  0  0  0  0  0  0  0  0  0  0
   59.5660   24.8640   45.9890 Cl  0  0  0  0  0  0  0  0  0  0  0  0
   58.1600   29.7390   45.2250 C   0  0  0  0  0  0  0  0  0  0  0  0
   59.3450   32.1660   46.9290 S   0  0  0  0  0  0  0  0  0  0  0  0
   61.9720   33.7840   46.8870 C   0  0  0  0  0  0  0  0  0  0  0  0
   63.4970   33.8490   46.7510 C   0  0  0  0  0  0  0  0  0  0  0  0
   64.1500   33.1570   47.8590 N   0  0  0  0  0  0  0  0  0  0  0  0
   61.5094   32.3094   49.1452 H   0  0  0  0  0  0  0  0  0  0  0  0
   61.8332   33.6856   50.2642 H   0  0  0  0  0  0  0  0  0  0  0  0
   59.7814   34.1749   49.3448 H   0  0  0  0  0  0  0  0  0  0  0  0
   59.9947   35.5812   48.1941 H   0  0  0  0  0  0  0  0  0  0  0  0
   58.1211   35.4843   46.5174 H   0  0  0  0  0  0  0  0  0  0  0  0
   56.9963   33.8439   44.8378 H   0  0  0  0  0  0  0  0  0  0  0  0
   56.6968   32.2333   43.3944 H   0  0  0  0  0  0  0  0  0  0  0  0
   56.0495   30.2758   41.9978 H   0  0  0  0  0  0  0  0  0  0  0  0
   56.7314   27.9769   42.6651 H   0  0  0  0  0  0  0  0  0  0  0  0
   55.5659   27.6497   45.2555 H   0  0  0  0  0  0  0  0  0  0  0  0
   58.7677   29.5833   46.1286 H   0  0  0  0  0  0  0  0  0  0  0  0
   61.6336   32.7508   46.7197 H   0  0  0  0  0  0  0  0  0  0  0  0
   61.5110   34.4488   46.1417 H   0  0  0  0  0  0  0  0  0  0  0  0
   63.7945   33.3740   45.8045 H   0  0  0  0  0  0  0  0  0  0  0  0
   63.8060   34.9046   46.7655 H   0  0  0  0  0  0  0  0  0  0  0  0
   65.1580   32.8920   47.7610 H   0  0  0  0  0  0  0  0  0  0  0  0
  1  2  2  0
  2  3  1  0
  3  4  1  0
  4  5  1  0
  5  6  1  0
  6  7  2  0
  7  8  1  0
  8  9  2  0
  9 10  1  0
 10 11  2  0
 11 12  1  0
 12 13  2  0
 13 14  1  0
 14 15  1  0
 15 16  1  0
 16 17  1  0
 17 18  2  0
 18 19  1  0
 19 20  1  0
 20 21  2  0
 20 22  1  0
 22 23  1  0
 14 24  2  0
  9 25  1  0
  4 26  1  0
 26 27  1  0
 27 28  1  0
 28  2  1  0
 25  6  1  0
 24 10  1  0
 22 16  2  0
  3 29  1  0
  3 30  1  0
  5 31  1  0
  5 32  1  0
  7 33  1  0
  8 34  1  0
 11 35  1  0
 12 36  1  0
 13 37  1  0
 17 38  1  0
 24 39  1  0
 26 40  1  0
 26 41  1  0
 27 42  1  0
 27 43  1  0
 28 44  1  0
M  CHG  1  19  -1
M  END
>  <UniqueID>  (25) 
25

>  <SMILES>  (25) 
O=C1CN(Cc2ccc(-c3cccc(Oc4cn[n-]c(=O)c4Cl)c3)s2)CCN1

>  <Energy>  (25) 
88.55479256858415

>  <Genealogy>  (25) 
O=C1CN(Cc2ccc(-c3cccc(Oc4cn[n-]c(=O)c4Cl)c3)s2)CCN1 (protonated)
O=C1CN(Cc2ccc(-c3cccc(Oc4cn[n-]c(=O)c4Cl)c3)s2)CCN1 (3D coordinates assigned)
O=C1CN(Cc2ccc(-c3cccc(Oc4cn[n-]c(=O)c4Cl)c3)s2)CCN1 (nonaromatic ring conformer: 88.55479256858415 kcal/mol)

>  <smiles>  (25) 
O=C1CN(Cc2ccc(-c3cccc(Oc4cn[nH]c(=O)c4Cl)c3)s2)CCN1

>  <score_type>  (25) 
oracle

>  <origin>  (25) 
adg

>  <m_score__min__energy>  (25) 
-11.59

>  <m_primary>  (25) 
energy

$$$$
25:0
     RDKit          3D

 51 53  0  0  0  0  0  0  0  0999 V2000
   58.0990   27.0780   42.7500 C   0  0  0  0  0  0  0  0  0  0  0  0
   58.2040   28.1590   43.7990 C   0  0  0  0  0  0  0  0  0  0  0  0
   59.1860   28.0240   44.7900 C   0  0  0  0  0  0  0  0  0  0  0  0
   59.3400   29.0110   45.7520 C   0  0  0  0  0  0  0  0  0  0  0  0
   58.5220   30.1420   45.7320 C   0  0  0  0  0  0  0  0  0  0  0  0
   58.7280   31.1890   46.7550 C   0  0  0  0  0  0  0  0  0  0  0  0
   59.7450   31.1260   47.4920 O   0  0  0  0  0  0  0  0  0  0  0  0
   57.8410   32.3040   46.9080 N   0  0  0  0  0  0  0  0  0  0  0  0
   57.8110   33.5160   46.0920 C   0  0  0  0  0  0  0  0  0  0  0  0
   59.1300   34.2440   46.1340 C   0  0  0  0  0  0  0  0  0  0  0  0
   59.3310   35.1510   45.3380 O   0  0  0  0  0  0  0  0  0  0  0  0
   60.1860   33.8030   47.0290 N   0  0  0  0  0  0  0  0  0  0  0  0
   61.4850   33.8330   46.3160 C   0  0  0  0  0  0  0  0  0  0  0  0
   62.7100   33.8580   47.2600 C   0  0  0  0  0  0  0  0  0  0  0  0
   62.3610   33.4210   48.6240 N   0  0  0  0  0  0  0  0  0  0  0  0
   63.3230   32.6890   49.4060 C   0  0  0  0  0  0  0  0  0  0  0  0
   62.9220   31.5740   50.1650 C   0  0  0  0  0  0  0  0  0  0  0  0
   63.8650   30.8390   50.8940 C   0  0  0  0  0  0  0  0  0  0  0  0
   65.2120   31.2160   50.8750 C   0  0  0  0  0  0  0  0  0  0  0  0
   65.6190   32.3290   50.1300 C   0  0  0  0  0  0  0  0  0  0  0  0
   64.6800   33.0610   49.3960 C   0  0  0  0  0  0  0  0  0  0  0  0
   61.1580   33.9560   49.2830 C   0  0  0  0  0  0  0  0  0  0  0  0
   60.2260   34.6200   48.2610 C   0  0  0  0  0  0  0  0  0  0  0  0
   57.4900   30.2200   44.7800 C   0  0  0  0  0  0  0  0  0  0  0  0
   56.6810   31.1880   44.8310 O   0  0  0  0  0  0  0  0  0  0  0  0
   57.3440   29.2380   43.8230 N   0  0  0  0  0  0  0  0  0  0  0  0
   56.2940   29.3630   42.7960 C   0  0  0  0  0  0  0  0  0  0  0  0
   58.0038   26.0984   43.2412 H   0  0  0  0  0  0  0  0  0  0  0  0
   57.2144   27.2609   42.1223 H   0  0  0  0  0  0  0  0  0  0  0  0
   59.0023   27.0872   42.1223 H   0  0  0  0  0  0  0  0  0  0  0  0
   59.8343   27.1355   44.8047 H   0  0  0  0  0  0  0  0  0  0  0  0
   60.1080   28.9025   46.5320 H   0  0  0  0  0  0  0  0  0  0  0  0
   57.5881   33.2402   45.0507 H   0  0  0  0  0  0  0  0  0  0  0  0
   57.0356   34.1839   46.4952 H   0  0  0  0  0  0  0  0  0  0  0  0
   59.9850   32.8120   47.3060 H   0  0  0  0  0  0  0  0  0  0  0  0
   61.5537   32.9374   45.6810 H   0  0  0  0  0  0  0  0  0  0  0  0
   61.5100   34.7642   45.7309 H   0  0  0  0  0  0  0  0  0  0  0  0
   63.4827   33.1862   46.8580 H   0  0  0  0  0  0  0  0  0  0  0  0
   63.0760   34.8938   47.3167 H   0  0  0  0  0  0  0  0  0  0  0  0
   61.8627   31.2783   50.1858 H   0  0  0  0  0  0  0  0  0  0  0  0
   63.5466   29.9653   51.4815 H   0  0  0  0  0  0  0  0  0  0  0  0
   65.9525   30.6370   51.4463 H   0  0  0  0  0  0  0  0  0  0  0  0
   66.6776   32.6280   50.1218 H   0  0  0  0  0  0  0  0  0  0  0  0
   65.0041   33.9322   48.8078 H   0  0  0  0  0  0  0  0  0  0  0  0
   60.6220   33.1329   49.7783 H   0  0  0  0  0  0  0  0  0  0  0  0
   61.4668   34.7110   50.0209 H   0  0  0  0  0  0  0  0  0  0  0  0
   59.2133   34.6967   48.6835 H   0  0  0  0  0  0  0  0  0  0  0  0
   60.6001   35.6265   48.0223 H   0  0  0  0  0  0  0  0  0  0  0  0
   55.3153   29.4795   43.2845 H   0  0  0  0  0  0  0  0  0  0  0  0
   56.4977   30.2432   42.1686 H   0  0  0  0  0  0  0  0  0  0  0  0
   56.2854   28.4595   42.1686 H   0  0  0  0  0  0  0  0  0  0  0  0
  1  2  1  0
  2  3  2  0
  3  4  1  0
  4  5  2  0
  5  6  1  0
  6  7  2  0
  6  8  1  0
  8  9  1  0
  9 10  1  0
 10 11  2  0
 10 12  1  0
 12 13  1  0
 13 14  1  0
 14 15  1  0
 15 16  1  0
 16 17  2  0
 17 18  1  0
 18 19  2  0
 19 20  1  0
 20 21  2  0
 15 22  1  0
 22 23  1  0
  5 24  1  0
 24 25  2  0
 24 26  1  0
 26 27  1  0
 26  2  1  0
 23 12  1  0
 21 16  1  0
  1 28  1  0
  1 29  1  0
  1 30  1  0
  3 31  1  0
  4 32  1  0
  9 33  1  0
  9 34  1  0
 12 35  1  0
 13 36  1  0
 13 37  1  0
 14 38  1  0
 14 39  1  0
 17 40  1  0
 18 41  1  0
 19 42  1  0
 20 43  1  0
 21 44  1  0
 22 45  1  0
 22 46  1  0
 23 47  1  0
 23 48  1  0
 27 49  1  0
 27 50  1  0
 27 51  1  0
M  CHG  2   8  -1  12   1
M  END
>  <UniqueID>  (26) 
26

>  <SMILES>  (26) 
Cc1ccc(C(=O)[N-]CC(=O)[NH+]2CCN(c3ccccc3)CC2)c(=O)n1C

>  <Energy>  (26) 
68.61031273223934

>  <Genealogy>  (26) 
Cc1ccc(C(=O)[N-]CC(=O)[NH+]2CCN(c3ccccc3)CC2)c(=O)n1C (protonated)
Cc1ccc(C(=O)[N-]CC(=O)[NH+]2CCN(c3ccccc3)CC2)c(=O)n1C (3D coordinates assigned)
Cc1ccc(C(=O)[N-]CC(=O)[NH+]2CCN(c3ccccc3)CC2)c(=O)n1C (nonaromatic ring conformer: 68.61031273223934 kcal/mol)

>  <smiles>  (26) 
Cc1ccc(C(=O)NCC(=O)N2CCN(c3ccccc3)CC2)c(=O)n1C

>  <score_type>  (26) 
oracle

>  <origin>  (26) 
adg

>  <m_score__min__energy>  (26) 
-8.4700000000000006

>  <m_primary>  (26) 
energy

$$$$
26:0
     RDKit          3D

 41 43  0  0  0  0  0  0  0  0999 V2000
   55.1440   29.3080   44.7140 O   0  0  0  0  0  0  0  0  0  0  0  0
   56.2330   28.9510   45.2440 C   0  0  0  0  0  0  0  0  0  0  0  0
   57.2690   29.9110   45.4860 N   0  0  0  0  0  0  0  0  0  0  0  0
   57.8770   30.7280   44.4400 C   0  0  0  0  0  0  0  0  0  0  0  0
   58.2310   32.0800   44.9950 C   0  0  0  0  0  0  0  0  0  0  0  0
   57.5690   33.2260   44.5250 C   0  0  0  0  0  0  0  0  0  0  0  0
   57.8450   34.4770   45.0800 C   0  0  0  0  0  0  0  0  0  0  0  0
   58.7720   34.5930   46.1170 C   0  0  0  0  0  0  0  0  0  0  0  0
   59.4360   33.4550   46.6140 C   0  0  0  0  0  0  0  0  0  0  0  0
   60.3930   33.5760   47.7430 C   0  0  0  0  0  0  0  0  0  0  0  0
   61.7580   33.8080   47.4930 C   0  0  0  0  0  0  0  0  0  0  0  0
   62.6580   33.9430   48.5520 C   0  0  0  0  0  0  0  0  0  0  0  0
   62.2120   33.8580   49.8730 C   0  0  0  0  0  0  0  0  0  0  0  0
   63.1340   33.9960   50.9080 O   0  0  0  0  0  0  0  0  0  0  0  0
   60.8470   33.6390   50.1440 C   0  0  0  0  0  0  0  0  0  0  0  0
   60.3450   33.5260   51.5640 C   0  0  0  0  0  0  0  0  0  0  0  0
   58.9080   33.7650   51.6240 N   0  0  0  0  0  0  0  0  0  0  0  0
   58.0780   32.8140   51.7910 C   0  0  0  0  0  0  0  0  0  0  0  0
   57.0200   31.6110   51.9990 S   0  0  0  0  0  0  0  0  0  0  0  0
   59.9490   33.4810   49.0750 C   0  0  0  0  0  0  0  0  0  0  0  0
   59.1570   32.1970   46.0450 C   0  0  0  0  0  0  0  0  0  0  0  0
   56.4310   27.5530   45.6490 C   0  0  0  0  0  0  0  0  0  0  0  0
   57.6530   26.9030   45.7330 C   0  0  0  0  0  0  0  0  0  0  0  0
   57.3790   25.6160   46.1540 C   0  0  0  0  0  0  0  0  0  0  0  0
   56.0060   25.5610   46.2980 C   0  0  0  0  0  0  0  0  0  0  0  0
   55.2940   24.4350   46.7020 O   0  0  0  0  0  0  0  0  0  0  0  0
   55.4160   26.7330   45.9960 N   0  0  0  0  0  0  0  0  0  0  0  0
   58.7883   30.2333   44.0729 H   0  0  0  0  0  0  0  0  0  0  0  0
   57.1636   30.8495   43.6116 H   0  0  0  0  0  0  0  0  0  0  0  0
   56.8294   33.1375   43.7156 H   0  0  0  0  0  0  0  0  0  0  0  0
   57.3313   35.3722   44.6996 H   0  0  0  0  0  0  0  0  0  0  0  0
   58.9856   35.5815   46.5496 H   0  0  0  0  0  0  0  0  0  0  0  0
   62.1185   33.8835   46.4565 H   0  0  0  0  0  0  0  0  0  0  0  0
   63.7242   34.1173   48.3448 H   0  0  0  0  0  0  0  0  0  0  0  0
   60.5590   32.5158   51.9432 H   0  0  0  0  0  0  0  0  0  0  0  0
   60.8548   34.2813   52.1801 H   0  0  0  0  0  0  0  0  0  0  0  0
   58.8873   33.2808   49.2815 H   0  0  0  0  0  0  0  0  0  0  0  0
   59.6677   31.3001   46.4254 H   0  0  0  0  0  0  0  0  0  0  0  0
   58.6429   27.3273   45.5091 H   0  0  0  0  0  0  0  0  0  0  0  0
   58.1011   24.8064   46.3360 H   0  0  0  0  0  0  0  0  0  0  0  0
   54.6930   24.4630   47.5180 H   0  0  0  0  0  0  0  0  0  0  0  0
  1  2  2  0
  2  3  1  0
  3  4  1  0
  4  5  1  0
  5  6  2  0
  6  7  1  0
  7  8  2  0
  8  9  1  0
  9 10  1  0
 10 11  2  0
 11 12  1  0
 12 13  2  0
 13 14  1  0
 13 15  1  0
 15 16  1  0
 16 17  1  0
 17 18  2  0
 18 19  2  0
 15 20  2  0
  9 21  2  0
  2 22  1  0
 22 23  2  0
 23 24  1  0
 24 25  2  0
 25 26  1  0
 25 27  1  0
 21  5  1  0
 27 22  1  0
 20 10  1  0
  4 28  1  0
  4 29  1  0
  6 30  1  0
  7 31  1  0
  8 32  1  0
 11 33  1  0
 12 34  1  0
 16 35  1  0
 16 36  1  0
 20 37  1  0
 21 38  1  0
 23 39  1  0
 24 40  1  0
 26 41  1  0
M  CHG  3   3  -1  14  -1  27  -1
M  END
>  <UniqueID>  (27) 
27

>  <SMILES>  (27) 
O=C([N-]Cc1cccc(-c2ccc([O-])c(CN=C=S)c2)c1)c1ccc(O)[n-]1

>  <Energy>  (27) 
68.85606055242532

>  <Genealogy>  (27) 
O=C([N-]Cc1cccc(-c2ccc([O-])c(CN=C=S)c2)c1)c1ccc(O)[n-]1 (protonated)
O=C([N-]Cc1cccc(-c2ccc([O-])c(CN=C=S)c2)c1)c1ccc(O)[n-]1 (3D coordinates assigned)
O=C([N-]Cc1cccc(-c2ccc([O-])c(CN=C=S)c2)c1)c1ccc(O)[n-]1 (optimized conformer: 68.85606055242532 kcal/mol)

>  <smiles>  (27) 
O=C(NCc1cccc(-c2ccc(O)c(CN=C=S)c2)c1)c1ccc(O)[nH]1

>  <score_type>  (27) 
oracle

>  <origin>  (27) 
adg

>  <m_score__min__energy>  (27) 
-13.73

>  <m_primary>  (27) 
energy

$$$$
27:0
     RDKit          3D

 51 54  0  0  0  0  0  0  0  0999 V2000
   56.5500   24.5700   45.4240 C   0  0  0  0  0  0  0  0  0  0  0  0
   56.3170   26.0270   45.6820 C   0  0  0  0  0  0  0  0  0  0  0  0
   55.1610   26.4020   46.0130 O   0  0  0  0  0  0  0  0  0  0  0  0
   57.4030   27.0330   45.5420 C   0  0  0  0  0  0  0  0  0  0  0  0
   58.0840   27.1690   44.3200 C   0  0  0  0  0  0  0  0  0  0  0  0
   59.1000   28.1170   44.1770 C   0  0  0  0  0  0  0  0  0  0  0  0
   59.4340   28.9520   45.2440 C   0  0  0  0  0  0  0  0  0  0  0  0
   58.7560   28.8510   46.4620 C   0  0  0  0  0  0  0  0  0  0  0  0
   59.1360   29.7220   47.5390 N   0  0  0  0  0  0  0  0  0  0  0  0
   59.8560   29.3550   48.7240 C   0  0  0  0  0  0  0  0  0  0  0  0
   59.4800   28.3400   49.3680 O   0  0  0  0  0  0  0  0  0  0  0  0
   61.0510   30.0920   49.1770 C   0  0  0  0  0  0  0  0  0  0  0  0
   61.9040   29.7990   50.2420 C   0  0  0  0  0  0  0  0  0  0  0  0
   62.8920   30.7250   50.3120 N   0  0  0  0  0  0  0  0  0  0  0  0
   62.6780   31.5900   49.3320 N   0  0  0  0  0  0  0  0  0  0  0  0
   63.4220   32.6840   49.0180 C   0  0  0  0  0  0  0  0  0  0  0  0
   64.6520   33.0410   49.8050 C   0  0  0  0  0  0  0  0  0  0  0  0
   65.5240   31.9710   49.8100 F   0  0  0  0  0  0  0  0  0  0  0  0
   64.3000   33.3500   51.1040 F   0  0  0  0  0  0  0  0  0  0  0  0
   63.0060   33.4580   47.9200 C   0  0  0  0  0  0  0  0  0  0  0  0
   61.8540   33.0650   47.1980 C   0  0  0  0  0  0  0  0  0  0  0  0
   61.3740   33.8670   46.0270 C   0  0  0  0  0  0  0  0  0  0  0  0
   59.8780   33.8250   45.9590 C   0  0  0  0  0  0  0  0  0  0  0  0
   59.2350   34.8940   45.7690 O   0  0  0  0  0  0  0  0  0  0  0  0
   59.1820   32.5840   46.1480 N   0  0  0  0  0  0  0  0  0  0  0  0
   57.7270   32.4940   46.1010 C   0  0  0  0  0  0  0  0  0  0  0  0
   57.2870   31.7780   44.8660 C   0  0  0  0  0  0  0  0  0  0  0  0
   56.4800   30.6950   44.8740 N   0  0  0  0  0  0  0  0  0  0  0  0
   56.3120   30.1760   43.6280 C   0  0  0  0  0  0  0  0  0  0  0  0
   57.0080   30.8320   42.6190 C   0  0  0  0  0  0  0  0  0  0  0  0
   57.8560   32.1070   43.3190 S   0  0  0  0  0  0  0  0  0  0  0  0
   61.1560   31.9540   47.5770 N   0  0  0  0  0  0  0  0  0  0  0  0
   61.5850   31.2420   48.6450 C   0  0  0  0  0  0  0  0  0  0  0  0
   57.7690   27.8640   46.6190 C   0  0  0  0  0  0  0  0  0  0  0  0
   56.6352   24.0370   46.3824 H   0  0  0  0  0  0  0  0  0  0  0  0
   55.7061   24.1597   44.8500 H   0  0  0  0  0  0  0  0  0  0  0  0
   57.4798   24.4434   44.8500 H   0  0  0  0  0  0  0  0  0  0  0  0
   57.8150   26.5244   43.4702 H   0  0  0  0  0  0  0  0  0  0  0  0
   59.6378   28.2055   43.2215 H   0  0  0  0  0  0  0  0  0  0  0  0
   60.2365   29.6949   45.1256 H   0  0  0  0  0  0  0  0  0  0  0  0
   61.7914   28.9432   50.9239 H   0  0  0  0  0  0  0  0  0  0  0  0
   65.1389   33.9113   49.3408 H   0  0  0  0  0  0  0  0  0  0  0  0
   63.5684   34.3566   47.6263 H   0  0  0  0  0  0  0  0  0  0  0  0
   61.7049   34.9101   46.1391 H   0  0  0  0  0  0  0  0  0  0  0  0
   61.7906   33.4421   45.1019 H   0  0  0  0  0  0  0  0  0  0  0  0
   59.7320   31.7050   46.2910 H   0  0  0  0  0  0  0  0  0  0  0  0
   57.3695   31.9450   46.9846 H   0  0  0  0  0  0  0  0  0  0  0  0
   57.3077   33.5109   46.0913 H   0  0  0  0  0  0  0  0  0  0  0  0
   55.6729   29.3022   43.4332 H   0  0  0  0  0  0  0  0  0  0  0  0
   57.0052   30.5652   41.5519 H   0  0  0  0  0  0  0  0  0  0  0  0
   57.2761   27.7385   47.5943 H   0  0  0  0  0  0  0  0  0  0  0  0
  1  2  1  0
  2  3  2  0
  2  4  1  0
  4  5  2  0
  5  6  1  0
  6  7  2  0
  7  8  1  0
  8  9  1  0
  9 10  1  0
 10 11  2  0
 10 12  1  0
 12 13  1  0
 13 14  2  0
 14 15  1  0
 15 16  1  0
 16 17  1  0
 17 18  1  0
 17 19  1  0
 16 20  2  0
 20 21  1  0
 21 22  1  0
 22 23  1  0
 23 24  2  0
 23 25  1  0
 25 26  1  0
 26 27  1  0
 27 28  2  0
 28 29  1  0
 29 30  2  0
 30 31  1  0
 21 32  2  0
 32 33  1  0
  8 34  2  0
 34  4  1  0
 33 12  2  0
 33 15  1  0
 31 27  1  0
  1 35  1  0
  1 36  1  0
  1 37  1  0
  5 38  1  0
  6 39  1  0
  7 40  1  0
 13 41  1  0
 17 42  1  0
 20 43  1  0
 22 44  1  0
 22 45  1  0
 25 46  1  0
 26 47  1  0
 26 48  1  0
 29 49  1  0
 30 50  1  0
 34 51  1  0
M  CHG  1   9  -1
M  END
>  <UniqueID>  (28) 
28

>  <SMILES>  (28) 
CC(=O)c1cccc([N-]C(=O)c2cnn3c(C(F)F)cc(CC(=O)NCc4nccs4)nc23)c1

>  <Energy>  (28) 
120.71416823058837

>  <Genealogy>  (28) 
CC(=O)c1cccc([N-]C(=O)c2cnn3c(C(F)F)cc(CC(=O)NCc4nccs4)nc23)c1 (protonated)
CC(=O)c1cccc([N-]C(=O)c2cnn3c(C(F)F)cc(CC(=O)NCc4nccs4)nc23)c1 (3D coordinates assigned)
CC(=O)c1cccc([N-]C(=O)c2cnn3c(C(F)F)cc(CC(=O)NCc4nccs4)nc23)c1 (optimized conformer: 120.71416823058837 kcal/mol)

>  <smiles>  (28) 
CC(=O)c1cccc(NC(=O)c2cnn3c(C(F)F)cc(CC(=O)NCc4nccs4)nc23)c1

>  <score_type>  (28) 
oracle

>  <origin>  (28) 
adg

>  <m_score__min__energy>  (28) 
-9.6600000000000001

>  <m_primary>  (28) 
energy

$$$$
28:0
     RDKit          3D

 40 41  0  0  0  0  0  0  0  0999 V2000
   57.3820   31.8990   42.3400 C   0  0  0  0  0  0  0  0  0  0  0  0
   57.6370   31.8710   43.6540 C   0  0  0  0  0  0  0  0  0  0  0  0
   57.6970   33.0030   44.3840 N   0  0  0  0  0  0  0  0  0  0  0  0
   58.1380   32.6700   45.6090 C   0  0  0  0  0  0  0  0  0  0  0  0
   58.3630   33.6640   46.7050 C   0  0  0  0  0  0  0  0  0  0  0  0
   58.3600   31.3040   45.6870 C   0  0  0  0  0  0  0  0  0  0  0  0
   58.7970   30.5850   46.9070 C   0  0  0  0  0  0  0  0  0  0  0  0
   58.3430   30.9680   48.0200 O   0  0  0  0  0  0  0  0  0  0  0  0
   59.5980   29.3800   46.8200 N   0  0  0  0  0  0  0  0  0  0  0  0
   60.8340   29.5950   46.0170 C   0  0  0  0  0  0  0  0  0  0  0  0
   61.0690   28.5890   44.8770 C   0  0  0  0  0  0  0  0  0  0  0  0
   59.8210   28.8320   48.1790 C   0  0  0  0  0  0  0  0  0  0  0  0
   59.9420   27.3040   48.1840 C   0  0  0  0  0  0  0  0  0  0  0  0
   58.0120   30.7690   44.4430 C   0  0  0  0  0  0  0  0  0  0  0  0
   58.0980   29.4620   44.1190 C   0  0  0  0  0  0  0  0  0  0  0  0
   57.5140   28.3490   44.8820 C   0  0  0  0  0  0  0  0  0  0  0  0
   58.2450   27.4010   45.4920 N   0  0  0  0  0  0  0  0  0  0  0  0
   57.3230   26.6810   46.1690 C   0  0  0  0  0  0  0  0  0  0  0  0
   57.6240   25.6750   46.8620 O   0  0  0  0  0  0  0  0  0  0  0  0
   56.0560   27.1310   46.0520 N   0  0  0  0  0  0  0  0  0  0  0  0
   56.1950   28.1980   45.2470 C   0  0  0  0  0  0  0  0  0  0  0  0
   55.1440   29.0280   44.8770 O   0  0  0  0  0  0  0  0  0  0  0  0
   57.3387   30.9604   41.7680 H   0  0  0  0  0  0  0  0  0  0  0  0
   57.2158   32.8606   41.8324 H   0  0  0  0  0  0  0  0  0  0  0  0
   57.4920   33.9720   44.0490 H   0  0  0  0  0  0  0  0  0  0  0  0
   58.2505   33.1668   47.6797 H   0  0  0  0  0  0  0  0  0  0  0  0
   59.3779   34.0796   46.6204 H   0  0  0  0  0  0  0  0  0  0  0  0
   57.6260   34.4762   46.6204 H   0  0  0  0  0  0  0  0  0  0  0  0
   59.0340   28.6640   46.3040 H   0  0  0  0  0  0  0  0  0  0  0  0
   60.7798   30.6008   45.5750 H   0  0  0  0  0  0  0  0  0  0  0  0
   61.6736   29.4607   46.7149 H   0  0  0  0  0  0  0  0  0  0  0  0
   61.2998   27.6009   45.3017 H   0  0  0  0  0  0  0  0  0  0  0  0
   60.1630   28.5191   44.2571 H   0  0  0  0  0  0  0  0  0  0  0  0
   61.9122   28.9277   44.2571 H   0  0  0  0  0  0  0  0  0  0  0  0
   60.7496   29.2606   48.5840 H   0  0  0  0  0  0  0  0  0  0  0  0
   58.9494   29.0999   48.7942 H   0  0  0  0  0  0  0  0  0  0  0  0
   59.9707   26.9419   49.2223 H   0  0  0  0  0  0  0  0  0  0  0  0
   59.0757   26.8659   47.6667 H   0  0  0  0  0  0  0  0  0  0  0  0
   60.8664   27.0077   47.6667 H   0  0  0  0  0  0  0  0  0  0  0  0
   58.6534   29.2069   43.2044 H   0  0  0  0  0  0  0  0  0  0  0  0
  1  2  2  0
  2  3  1  0
  3  4  1  0
  4  5  1  0
  4  6  2  0
  6  7  1  0
  7  8  2  0
  7  9  1  0
  9 10  1  0
 10 11  1  0
  9 12  1  0
 12 13  1  0
  6 14  1  0
 14 15  2  3
 15 16  1  0
 16 17  1  0
 17 18  1  0
 18 19  2  0
 18 20  1  0
 20 21  1  0
 21 22  1  0
 14  2  1  0
 21 16  2  0
  1 23  1  0
  1 24  1  0
  3 25  1  0
  5 26  1  0
  5 27  1  0
  5 28  1  0
  9 29  1  0
 10 30  1  0
 10 31  1  0
 11 32  1  0
 11 33  1  0
 11 34  1  0
 12 35  1  0
 12 36  1  0
 13 37  1  0
 13 38  1  0
 13 39  1  0
 15 40  1  0
M  CHG  4   9   1  17  -1  20  -1  22  -1
M  END
>  <UniqueID>  (29) 
29

>  <SMILES>  (29) 
C=c1[nH]c(C)c(C(=O)[NH+](CC)CC)c1=Cc1[n-]c(=O)[n-]c1[O-]

>  <Energy>  (29) 
116.59287608742345

>  <Genealogy>  (29) 
C=c1[nH]c(C)c(C(=O)[NH+](CC)CC)c1=Cc1[n-]c(=O)[n-]c1[O-] (protonated)
C=c1[nH]c(C)c(C(=O)[NH+](CC)CC)c1=Cc1[n-]c(=O)[n-]c1[O-] (3D coordinates assigned)
C=c1[nH]c(C)c(C(=O)[NH+](CC)CC)c1=Cc1[n-]c(=O)[n-]c1[O-] (optimized conformer: 116.59287608742345 kcal/mol)

>  <smiles>  (29) 
C=c1[nH]c(C)c(C(=O)N(CC)CC)c1=Cc1[nH]c(=O)[nH]c1O

>  <score_type>  (29) 
oracle

>  <origin>  (29) 
adg

>  <m_score__min__energy>  (29) 
-13.779999999999999

>  <m_primary>  (29) 
energy

$$$$
29:0
     RDKit          3D

 50 53  0  0  0  0  0  0  0  0999 V2000
   66.8870   32.9230   51.2930 O   0  0  0  0  0  0  0  0  0  0  0  0
   65.7110   33.2280   51.6220 C   0  0  0  0  0  0  0  0  0  0  0  0
   64.6670   33.2920   50.5900 C   0  0  0  0  0  0  0  0  0  0  0  0
   63.3770   33.6040   50.9590 C   0  0  0  0  0  0  0  0  0  0  0  0
   62.3950   33.6650   49.9930 C   0  0  0  0  0  0  0  0  0  0  0  0
   62.6680   33.4230   48.6610 C   0  0  0  0  0  0  0  0  0  0  0  0
   61.6560   33.4800   47.6150 C   0  0  0  0  0  0  0  0  0  0  0  0
   61.9790   33.6790   46.3940 O   0  0  0  0  0  0  0  0  0  0  0  0
   60.2700   33.3190   47.8820 N   0  0  0  0  0  0  0  0  0  0  0  0
   59.3330   33.3850   46.8150 C   0  0  0  0  0  0  0  0  0  0  0  0
   58.5000   34.4780   46.6920 C   0  0  0  0  0  0  0  0  0  0  0  0
   57.6180   34.4730   45.6330 C   0  0  0  0  0  0  0  0  0  0  0  0
   57.5550   33.4270   44.7260 C   0  0  0  0  0  0  0  0  0  0  0  0
   58.3850   32.3480   44.8590 C   0  0  0  0  0  0  0  0  0  0  0  0
   58.4070   31.1700   43.9650 C   0  0  0  0  0  0  0  0  0  0  0  0
   57.8100   29.9530   44.5630 C   0  0  0  0  0  0  0  0  0  0  0  0
   56.4540   29.9300   44.7310 N   0  0  0  0  0  0  0  0  0  0  0  0
   55.8190   28.8840   45.2320 N   0  0  0  0  0  0  0  0  0  0  0  0
   56.4720   27.7720   45.6090 C   0  0  0  0  0  0  0  0  0  0  0  0
   55.8010   26.8210   46.0750 O   0  0  0  0  0  0  0  0  0  0  0  0
   57.8460   27.7420   45.4600 C   0  0  0  0  0  0  0  0  0  0  0  0
   58.5140   28.8370   44.9360 C   0  0  0  0  0  0  0  0  0  0  0  0
   59.9770   28.8050   44.8030 C   0  0  0  0  0  0  0  0  0  0  0  0
   60.5100   28.0610   46.0370 C   0  0  0  0  0  0  0  0  0  0  0  0
   60.0140   26.6400   46.0130 C   0  0  0  0  0  0  0  0  0  0  0  0
   58.5360   26.4970   45.8790 C   0  0  0  0  0  0  0  0  0  0  0  0
   59.2930   32.3250   45.9250 C   0  0  0  0  0  0  0  0  0  0  0  0
   63.9700   33.1150   48.3300 C   0  0  0  0  0  0  0  0  0  0  0  0
   64.9740   33.0450   49.2720 C   0  0  0  0  0  0  0  0  0  0  0  0
   65.4670   33.4447   52.6725 H   0  0  0  0  0  0  0  0  0  0  0  0
   63.1329   33.8024   52.0131 H   0  0  0  0  0  0  0  0  0  0  0  0
   61.3658   33.9133   50.2915 H   0  0  0  0  0  0  0  0  0  0  0  0
   59.9240   33.1530   48.8510 H   0  0  0  0  0  0  0  0  0  0  0  0
   58.5381   35.3142   47.4057 H   0  0  0  0  0  0  0  0  0  0  0  0
   56.9401   35.3295   45.5031 H   0  0  0  0  0  0  0  0  0  0  0  0
   56.8345   33.4647   43.8957 H   0  0  0  0  0  0  0  0  0  0  0  0
   57.8469   31.4178   43.0513 H   0  0  0  0  0  0  0  0  0  0  0  0
   59.4638   30.9416   43.7627 H   0  0  0  0  0  0  0  0  0  0  0  0
   54.7770   28.9600   45.3240 H   0  0  0  0  0  0  0  0  0  0  0  0
   60.2637   28.2720   43.8845 H   0  0  0  0  0  0  0  0  0  0  0  0
   60.3934   29.8212   44.7400 H   0  0  0  0  0  0  0  0  0  0  0  0
   61.6099   28.0667   46.0230 H   0  0  0  0  0  0  0  0  0  0  0  0
   60.1548   28.5602   46.9506 H   0  0  0  0  0  0  0  0  0  0  0  0
   60.4862   26.1268   45.1623 H   0  0  0  0  0  0  0  0  0  0  0  0
   60.2810   26.2018   46.9860 H   0  0  0  0  0  0  0  0  0  0  0  0
   58.3301   25.7182   45.1299 H   0  0  0  0  0  0  0  0  0  0  0  0
   58.1491   26.2380   46.8756 H   0  0  0  0  0  0  0  0  0  0  0  0
   59.9713   31.4688   46.0547 H   0  0  0  0  0  0  0  0  0  0  0  0
   64.2168   32.9180   47.2763 H   0  0  0  0  0  0  0  0  0  0  0  0
   66.0033   32.7958   48.9748 H   0  0  0  0  0  0  0  0  0  0  0  0
  1  2  2  0
  2  3  1  0
  3  4  2  0
  4  5  1  0
  5  6  2  0
  6  7  1  0
  7  8  2  0
  7  9  1  0
  9 10  1  0
 10 11  2  0
 11 12  1  0
 12 13  2  0
 13 14  1  0
 14 15  1  0
 15 16  1  0
 16 17  2  0
 17 18  1  0
 18 19  1  0
 19 20  2  0
 19 21  1  0
 21 22  2  0
 22 23  1  0
 23 24  1  0
 24 25  1  0
 25 26  1  0
 14 27  2  0
  6 28  1  0
 28 29  2  0
 29  3  1  0
 27 10  1  0
 22 16  1  0
 26 21  1  0
  2 30  1  0
  4 31  1  0
  5 32  1  0
  9 33  1  0
 11 34  1  0
 12 35  1  0
 13 36  1  0
 15 37  1  0
 15 38  1  0
 18 39  1  0
 23 40  1  0
 23 41  1  0
 24 42  1  0
 24 43  1  0
 25 44  1  0
 25 45  1  0
 26 46  1  0
 26 47  1  0
 27 48  1  0
 28 49  1  0
 29 50  1  0
M  END
>  <smiles>  (30) 
O=Cc1ccc(C(=O)Nc2cccc(Cc3n[nH]c(=O)c4c3CCCC4)c2)cc1

>  <score_type>  (30) 
oracle

>  <origin>  (30) 
adg

>  <m_score__min__energy>  (30) 
-10.130000000000001

>  <m_primary>  (30) 
energy

$$$$
30:0
     RDKit          3D

 46 49  0  0  0  0  0  0  0  0999 V2000
   58.2110   35.0315   43.8611 H   0  0  0  0  0  0  0  0  0  0  0  0
   58.3700   34.6280   44.8720 C   0  0  0  0  0  0  0  0  0  0  0  0
   59.4880   35.0190   45.6130 C   0  0  0  0  0  0  0  0  0  0  0  0
   60.2126   35.7256   45.1822 H   0  0  0  0  0  0  0  0  0  0  0  0
   59.6870   34.5140   46.9000 C   0  0  0  0  0  0  0  0  0  0  0  0
   60.5760   34.8154   47.4734 H   0  0  0  0  0  0  0  0  0  0  0  0
   58.7620   33.6260   47.4660 C   0  0  0  0  0  0  0  0  0  0  0  0
   59.0160   33.1150   48.7830 N   0  0  0  0  0  0  0  0  0  0  0  0
   60.1700   32.3810   49.2130 C   0  0  0  0  0  0  0  0  0  0  0  0
   61.3140   32.9060   49.1810 O   0  0  0  0  0  0  0  0  0  0  0  0
   60.0400   31.0370   49.6890 N   0  0  0  0  0  0  0  0  0  0  0  0
   59.7780   29.8760   48.8890 C   0  0  0  0  0  0  0  0  0  0  0  0
   60.3200   28.6180   49.2050 C   0  0  0  0  0  0  0  0  0  0  0  0
   60.9818   28.5107   50.0771 H   0  0  0  0  0  0  0  0  0  0  0  0
   60.0220   27.5020   48.4160 C   0  0  0  0  0  0  0  0  0  0  0  0
   60.4479   26.5207   48.6724 H   0  0  0  0  0  0  0  0  0  0  0  0
   59.1800   27.6290   47.2960 C   0  0  0  0  0  0  0  0  0  0  0  0
   58.8210   26.5030   46.4780 N   0  0  0  0  0  0  0  0  0  0  0  0
   57.6180   26.0700   46.2380 C   0  0  0  0  0  0  0  0  0  0  0  0
   56.5110   26.8470   46.3030 N   0  0  0  0  0  0  0  0  0  0  0  0
   55.5220   25.9850   46.0180 C   0  0  0  0  0  0  0  0  0  0  0  0
   54.1810   26.3410   45.9530 O   0  0  0  0  0  0  0  0  0  0  0  0
   56.0360   24.7280   45.8070 C   0  0  0  0  0  0  0  0  0  0  0  0
   55.2750   23.5010   45.4100 C   0  0  0  0  0  0  0  0  0  0  0  0
   54.6823   23.7168   44.5088 H   0  0  0  0  0  0  0  0  0  0  0  0
   55.9869   22.6877   45.2057 H   0  0  0  0  0  0  0  0  0  0  0  0
   54.3520   23.0780   46.5230 C   0  0  0  0  0  0  0  0  0  0  0  0
   54.8360   23.0150   47.8410 C   0  0  0  0  0  0  0  0  0  0  0  0
   55.8765   23.3005   48.0553 H   0  0  0  0  0  0  0  0  0  0  0  0
   54.0040   22.5920   48.8810 C   0  0  0  0  0  0  0  0  0  0  0  0
   54.3884   22.5528   49.9109 H   0  0  0  0  0  0  0  0  0  0  0  0
   52.6850   22.2190   48.6140 C   0  0  0  0  0  0  0  0  0  0  0  0
   52.0306   21.8880   49.4339 H   0  0  0  0  0  0  0  0  0  0  0  0
   52.1960   22.2660   47.3060 C   0  0  0  0  0  0  0  0  0  0  0  0
   51.1572   21.9695   47.0986 H   0  0  0  0  0  0  0  0  0  0  0  0
   53.0230   22.6890   46.2580 C   0  0  0  0  0  0  0  0  0  0  0  0
   52.5180   22.7170   44.9640 O   0  0  0  0  0  0  0  0  0  0  0  0
   57.3730   24.7740   45.9420 N   0  0  0  0  0  0  0  0  0  0  0  0
   58.5960   28.8710   47.0200 C   0  0  0  0  0  0  0  0  0  0  0  0
   57.8970   28.9704   46.1765 H   0  0  0  0  0  0  0  0  0  0  0  0
   58.8950   29.9860   47.8090 C   0  0  0  0  0  0  0  0  0  0  0  0
   58.4325   30.9572   47.5789 H   0  0  0  0  0  0  0  0  0  0  0  0
   57.6490   33.2160   46.7050 C   0  0  0  0  0  0  0  0  0  0  0  0
   56.9322   32.4952   47.1252 H   0  0  0  0  0  0  0  0  0  0  0  0
   57.4540   33.7240   45.4160 C   0  0  0  0  0  0  0  0  0  0  0  0
   56.5776   33.4110   44.8296 H   0  0  0  0  0  0  0  0  0  0  0  0
  1  2  1  0
  2  3  2  0
  3  4  1  0
  3  5  1  0
  5  6  1  0
  5  7  2  0
  7  8  1  0
  8  9  1  0
  9 10  2  0
  9 11  1  0
 11 12  1  0
 12 13  2  0
 13 14  1  0
 13 15  1  0
 15 16  1  0
 15 17  2  0
 17 18  1  0
 18 19  2  0
 19 20  1  0
 20 21  1  0
 21 22  1  0
 21 23  2  0
 23 24  1  0
 24 25  1  0
 24 26  1  0
 24 27  1  0
 27 28  2  0
 28 29  1  0
 28 30  1  0
 30 31  1  0
 30 32  2  0
 32 33  1  0
 32 34  1  0
 34 35  1  0
 34 36  2  0
 36 37  1  0
 23 38  1  0
 17 39  1  0
 39 40  1  0
 39 41  2  0
 41 42  1  0
  7 43  1  0
 43 44  1  0
 43 45  2  0
 45 46  1  0
 45  2  1  0
 41 12  1  0
 38 19  1  0
 36 27  1  0
M  CHG  6   8  -1  11  -1  20  -1  22  -1  37  -1  38  -1
M  END
>  <UniqueID>  (31) 
30

>  <SMILES>  (31) 
O=C([N-]c1ccccc1)[N-]c1ccc(/N=c2\[n-]c([O-])c(Cc3ccccc3[O-])[n-]2)cc1

>  <Energy>  (31) 
91.86177910157488

>  <Genealogy>  (31) 
O=C([N-]c1ccccc1)[N-]c1ccc(N=c2[n-]c([O-])c(Cc3ccccc3[O-])[n-]2)cc1 (protonated)
O=C([N-]c1ccccc1)[N-]c1ccc(/N=c2\[n-]c([O-])c(Cc3ccccc3[O-])[n-]2)cc1 (cis-trans isomerization)
O=C([N-]c1ccccc1)[N-]c1ccc(/N=c2\[n-]c([O-])c(Cc3ccccc3[O-])[n-]2)cc1 (3D coordinates assigned)
O=C([N-]c1ccccc1)[N-]c1ccc(/N=c2\[n-]c([O-])c(Cc3ccccc3[O-])[n-]2)cc1 (optimized conformer: 91.86177910157488 kcal/mol)

>  <smiles>  (31) 
O=C(Nc1ccccc1)Nc1ccc(N=c2[nH]c(O)c(Cc3ccccc3O)[nH]2)cc1

>  <score_type>  (31) 
oracle

>  <origin>  (31) 
adg

>  <m_score__min__energy>  (31) 
-18.370000000000001

>  <m_primary>  (31) 
energy

$$$$
31:0
     RDKit          3D

 42 45  0  0  0  0  0  0  0  0999 V2000
   60.8030   26.6550   50.1750 C   0  0  0  0  0  0  0  0  0  0  0  0
   60.3430   27.3960   48.9650 C   0  0  0  0  0  0  0  0  0  0  0  0
   59.7170   26.8370   47.8670 C   0  0  0  0  0  0  0  0  0  0  0  0
   59.4340   27.9270   47.0630 C   0  0  0  0  0  0  0  0  0  0  0  0
   58.8710   27.9020   45.8870 N   0  0  0  0  0  0  0  0  0  0  0  0
   57.5060   27.5590   45.6070 C   0  0  0  0  0  0  0  0  0  0  0  0
   56.6450   28.4780   45.5960 O   0  0  0  0  0  0  0  0  0  0  0  0
   57.0740   26.1490   45.4250 C   0  0  0  0  0  0  0  0  0  0  0  0
   58.0150   25.1740   45.0500 C   0  0  0  0  0  0  0  0  0  0  0  0
   57.6290   23.8370   44.8750 C   0  0  0  0  0  0  0  0  0  0  0  0
   58.5660   22.8660   44.4920 C   0  0  0  0  0  0  0  0  0  0  0  0
   58.1700   21.5370   44.3210 C   0  0  0  0  0  0  0  0  0  0  0  0
   56.8390   21.1670   44.5330 C   0  0  0  0  0  0  0  0  0  0  0  0
   55.8960   22.1250   44.9170 C   0  0  0  0  0  0  0  0  0  0  0  0
   56.2820   23.4630   45.0900 C   0  0  0  0  0  0  0  0  0  0  0  0
   55.3450   24.4330   45.4750 C   0  0  0  0  0  0  0  0  0  0  0  0
   55.7340   25.7660   45.6420 C   0  0  0  0  0  0  0  0  0  0  0  0
   54.7750   26.7040   46.0050 O   0  0  0  0  0  0  0  0  0  0  0  0
   59.8750   29.0550   47.6640 N   0  0  0  0  0  0  0  0  0  0  0  0
   59.7880   30.4110   47.1980 C   0  0  0  0  0  0  0  0  0  0  0  0
   60.8150   31.2850   47.3070 N   0  0  0  0  0  0  0  0  0  0  0  0
   60.4960   32.5080   46.8080 C   0  0  0  0  0  0  0  0  0  0  0  0
   59.2080   32.6060   46.2990 C   0  0  0  0  0  0  0  0  0  0  0  0
   58.4890   34.0490   45.6100 S   0  0  0  0  0  0  0  0  0  0  0  0
   56.7780   34.0220   45.8540 N   0  0  0  0  0  0  0  0  0  0  0  0
   59.0780   35.2640   46.2690 O   0  0  0  0  0  0  0  0  0  0  0  0
   58.7780   34.1010   44.1360 O   0  0  0  0  0  0  0  0  0  0  0  0
   58.4370   31.1230   46.4790 S   0  0  0  0  0  0  0  0  0  0  0  0
   60.4180   28.7360   48.8290 N   0  0  0  0  0  0  0  0  0  0  0  0
   60.4724   27.1876   51.0789 H   0  0  0  0  0  0  0  0  0  0  0  0
   60.3749   25.6417   50.1692 H   0  0  0  0  0  0  0  0  0  0  0  0
   61.9010   26.5892   50.1692 H   0  0  0  0  0  0  0  0  0  0  0  0
   59.4960   25.7763   47.6771 H   0  0  0  0  0  0  0  0  0  0  0  0
   59.0647   25.4627   44.8922 H   0  0  0  0  0  0  0  0  0  0  0  0
   59.6152   23.1515   44.3258 H   0  0  0  0  0  0  0  0  0  0  0  0
   58.9081   20.7796   44.0186 H   0  0  0  0  0  0  0  0  0  0  0  0
   56.5326   20.1193   44.3974 H   0  0  0  0  0  0  0  0  0  0  0  0
   54.8497   21.8294   45.0838 H   0  0  0  0  0  0  0  0  0  0  0  0
   54.2977   24.1436   45.6467 H   0  0  0  0  0  0  0  0  0  0  0  0
   61.2012   33.3522   46.8074 H   0  0  0  0  0  0  0  0  0  0  0  0
   56.6170   33.9290   46.8820 H   0  0  0  0  0  0  0  0  0  0  0  0
   56.4160   34.9610   45.5760 H   0  0  0  0  0  0  0  0  0  0  0  0
  1  2  1  0
  2  3  2  0
  3  4  1  0
  4  5  2  3
  5  6  1  0
  6  7  2  0
  6  8  1  0
  8  9  2  0
  9 10  1  0
 10 11  2  0
 11 12  1  0
 12 13  2  0
 13 14  1  0
 14 15  2  0
 15 16  1  0
 16 17  2  0
 17 18  1  0
  4 19  1  0
 19 20  1  0
 20 21  2  0
 21 22  1  0
 22 23  2  0
 23 24  1  0
 24 25  1  0
 24 26  2  0
 24 27  2  0
 23 28  1  0
 19 29  1  0
 29  2  1  0
 17  8  1  0
 28 20  1  0
 15 10  1  0
  1 30  1  0
  1 31  1  0
  1 32  1  0
  3 33  1  0
  9 34  1  0
 11 35  1  0
 12 36  1  0
 13 37  1  0
 14 38  1  0
 16 39  1  0
 22 40  1  0
 25 41  1  0
 25 42  1  0
M  CHG  2  18  -1  29  -1
M  END
>  <UniqueID>  (32) 
31

>  <SMILES>  (32) 
Cc1cc(=NC(=O)c2cc3ccccc3cc2[O-])n(-c2ncc(S(N)(=O)=O)s2)[n-]1

>  <Energy>  (32) 
119.04037752460098

>  <Genealogy>  (32) 
Cc1cc(=NC(=O)c2cc3ccccc3cc2[O-])n(-c2ncc(S(N)(=O)=O)s2)[n-]1 (protonated)
Cc1cc(=NC(=O)c2cc3ccccc3cc2[O-])n(-c2ncc(S(N)(=O)=O)s2)[n-]1 (3D coordinates assigned)
Cc1cc(=NC(=O)c2cc3ccccc3cc2[O-])n(-c2ncc(S(N)(=O)=O)s2)[n-]1 (optimized conformer: 119.04037752460098 kcal/mol)

>  <smiles>  (32) 
Cc1cc(=NC(=O)c2cc3ccccc3cc2O)n(-c2ncc(S(N)(=O)=O)s2)[nH]1

>  <score_type>  (32) 
oracle

>  <origin>  (32) 
adg

>  <m_score__min__energy>  (32) 
-12.550000000000001

>  <m_primary>  (32) 
energy

$$$$
32:0
     RDKit          3D

 28 29  0  0  0  0  0  0  0  0999 V2000
   59.8020   28.5230   48.1420 C   0  0  0  0  0  0  0  0  0  0  0  0
   59.3210   29.4410   47.2750 C   0  0  0  0  0  0  0  0  0  0  0  0
   59.4880   30.8060   47.6090 C   0  0  0  0  0  0  0  0  0  0  0  0
   60.1440   31.1790   48.7400 F   0  0  0  0  0  0  0  0  0  0  0  0
   58.9650   31.8120   46.8010 C   0  0  0  0  0  0  0  0  0  0  0  0
   58.2820   31.4950   45.6270 C   0  0  0  0  0  0  0  0  0  0  0  0
   57.7010   32.5890   44.7710 C   0  0  0  0  0  0  0  0  0  0  0  0
   57.8790   33.9480   45.4380 C   0  0  0  0  0  0  0  0  0  0  0  0
   58.1090   30.1530   45.2710 C   0  0  0  0  0  0  0  0  0  0  0  0
   58.6160   29.0980   46.0700 C   0  0  0  0  0  0  0  0  0  0  0  0
   58.4730   27.8110   45.6490 C   0  0  0  0  0  0  0  0  0  0  0  0
   57.2620   26.9840   45.8240 C   0  0  0  0  0  0  0  0  0  0  0  0
   57.2780   25.7550   46.3690 N   0  0  0  0  0  0  0  0  0  0  0  0
   55.9700   25.4240   46.4340 C   0  0  0  0  0  0  0  0  0  0  0  0
   55.5740   24.3170   46.8830 O   0  0  0  0  0  0  0  0  0  0  0  0
   55.1210   26.3740   45.9890 N   0  0  0  0  0  0  0  0  0  0  0  0
   55.9520   27.3610   45.6200 C   0  0  0  0  0  0  0  0  0  0  0  0
   55.5210   28.5920   45.1400 O   0  0  0  0  0  0  0  0  0  0  0  0
   59.6945   27.4504   47.9231 H   0  0  0  0  0  0  0  0  0  0  0  0
   60.3011   28.8483   49.0667 H   0  0  0  0  0  0  0  0  0  0  0  0
   59.0915   32.8655   47.0909 H   0  0  0  0  0  0  0  0  0  0  0  0
   58.2122   32.5952   43.7970 H   0  0  0  0  0  0  0  0  0  0  0  0
   56.6258   32.3993   44.6369 H   0  0  0  0  0  0  0  0  0  0  0  0
   57.8629   33.8249   46.5310 H   0  0  0  0  0  0  0  0  0  0  0  0
   58.8418   34.3833   45.1322 H   0  0  0  0  0  0  0  0  0  0  0  0
   57.0607   34.6165   45.1322 H   0  0  0  0  0  0  0  0  0  0  0  0
   57.5650   29.9103   44.3463 H   0  0  0  0  0  0  0  0  0  0  0  0
   59.3298   27.3494   45.1364 H   0  0  0  0  0  0  0  0  0  0  0  0
  1  2  2  0
  2  3  1  0
  3  4  1  0
  3  5  2  0
  5  6  1  0
  6  7  1  0
  7  8  1  0
  6  9  2  0
  9 10  1  0
 10 11  2  3
 11 12  1  0
 12 13  1  0
 13 14  1  0
 14 15  2  0
 14 16  1  0
 16 17  1  0
 17 18  1  0
 10  2  1  0
 17 12  2  0
  1 19  1  0
  1 20  1  0
  5 21  1  0
  7 22  1  0
  7 23  1  0
  8 24  1  0
  8 25  1  0
  8 26  1  0
  9 27  1  0
 11 28  1  0
M  CHG  3  13  -1  16  -1  18  -1
M  END
>  <UniqueID>  (33) 
32

>  <SMILES>  (33) 
C=c1c(F)cc(CC)cc1=Cc1[n-]c(=O)[n-]c1[O-]

>  <Energy>  (33) 
72.42734948789565

>  <Genealogy>  (33) 
C=c1c(F)cc(CC)cc1=Cc1[n-]c(=O)[n-]c1[O-] (protonated)
C=c1c(F)cc(CC)cc1=Cc1[n-]c(=O)[n-]c1[O-] (3D coordinates assigned)
C=c1c(F)cc(CC)cc1=Cc1[n-]c(=O)[n-]c1[O-] (optimized conformer: 72.42734948789565 kcal/mol)

>  <smiles>  (33) 
C=c1c(F)cc(CC)cc1=Cc1[nH]c(=O)[nH]c1O

>  <score_type>  (33) 
oracle

>  <origin>  (33) 
adg

>  <m_score__min__energy>  (33) 
-15.52

>  <m_primary>  (33) 
energy

$$$$
33:0
     RDKit          3D

 57 59  0  0  0  0  0  0  0  0999 V2000
   54.7680   27.4870   46.3090 H   0  0  0  0  0  0  0  0  0  0  0  0
   54.7870   26.5110   46.0390 O   0  0  0  0  0  0  0  0  0  0  0  0
   55.9890   25.8190   45.8920 C   0  0  0  0  0  0  0  0  0  0  0  0
   55.9890   24.4590   45.5530 C   0  0  0  0  0  0  0  0  0  0  0  0
   55.0366   23.9296   45.4021 H   0  0  0  0  0  0  0  0  0  0  0  0
   57.1970   23.7770   45.4070 C   0  0  0  0  0  0  0  0  0  0  0  0
   57.2047   22.7094   45.1421 H   0  0  0  0  0  0  0  0  0  0  0  0
   58.3960   24.4650   45.6010 C   0  0  0  0  0  0  0  0  0  0  0  0
   59.3558   23.9394   45.4892 H   0  0  0  0  0  0  0  0  0  0  0  0
   58.3780   25.7840   45.9280 N   0  0  0  0  0  0  0  0  0  0  0  0
   57.2140   26.4780   46.0790 C   0  0  0  0  0  0  0  0  0  0  0  0
   57.2180   27.7460   46.3790 N   0  0  0  0  0  0  0  0  0  0  0  0
   56.7740   28.8360   45.5540 C   0  0  0  0  0  0  0  0  0  0  0  0
   55.7520   28.7140   44.8240 O   0  0  0  0  0  0  0  0  0  0  0  0
   57.5210   30.1150   45.5620 C   0  0  0  0  0  0  0  0  0  0  0  0
   58.7300   30.2340   46.2720 C   0  0  0  0  0  0  0  0  0  0  0  0
   59.1501   29.3565   46.7853 H   0  0  0  0  0  0  0  0  0  0  0  0
   59.4010   31.4580   46.3300 C   0  0  0  0  0  0  0  0  0  0  0  0
   60.3383   31.5422   46.8995 H   0  0  0  0  0  0  0  0  0  0  0  0
   58.8860   32.5770   45.6670 C   0  0  0  0  0  0  0  0  0  0  0  0
   59.6840   34.1380   45.8360 S   0  0  0  0  0  0  0  0  0  0  0  0
   59.2370   35.0760   44.7500 O   0  0  0  0  0  0  0  0  0  0  0  0
   61.1700   33.9490   45.7250 O   0  0  0  0  0  0  0  0  0  0  0  0
   59.3040   34.8060   47.3940 N   0  0  0  0  0  0  0  0  0  0  0  0
   60.3970   34.5810   48.3440 C   0  0  0  0  0  0  0  0  0  0  0  0
   60.9123   35.5331   48.5389 H   0  0  0  0  0  0  0  0  0  0  0  0
   61.1044   33.8554   47.9162 H   0  0  0  0  0  0  0  0  0  0  0  0
   59.8410   34.0270   49.6580 C   0  0  0  0  0  0  0  0  0  0  0  0
   58.7953   34.3497   49.7694 H   0  0  0  0  0  0  0  0  0  0  0  0
   60.4559   34.4108   50.4854 H   0  0  0  0  0  0  0  0  0  0  0  0
   59.8960   32.5160   49.6820 C   0  0  0  0  0  0  0  0  0  0  0  0
   60.9650   31.8570   49.0590 C   0  0  0  0  0  0  0  0  0  0  0  0
   61.7723   32.4440   48.5968 H   0  0  0  0  0  0  0  0  0  0  0  0
   61.0140   30.4640   49.0200 C   0  0  0  0  0  0  0  0  0  0  0  0
   61.8527   29.9604   48.5170 H   0  0  0  0  0  0  0  0  0  0  0  0
   59.9990   29.7000   49.6190 C   0  0  0  0  0  0  0  0  0  0  0  0
   60.0240   28.2960   49.6210 O   0  0  0  0  0  0  0  0  0  0  0  0
   59.9260   27.4870   48.4540 C   0  0  0  0  0  0  0  0  0  0  0  0
   59.7985   26.4345   48.7471 H   0  0  0  0  0  0  0  0  0  0  0  0
   59.0603   27.8087   47.8565 H   0  0  0  0  0  0  0  0  0  0  0  0
   60.8435   27.5927   47.8565 H   0  0  0  0  0  0  0  0  0  0  0  0
   58.9310   30.3480   50.2560 C   0  0  0  0  0  0  0  0  0  0  0  0
   57.9690   29.5620   50.8980 O   0  0  0  0  0  0  0  0  0  0  0  0
   57.8560   29.5110   52.3160 C   0  0  0  0  0  0  0  0  0  0  0  0
   58.7686   29.9229   52.7716 H   0  0  0  0  0  0  0  0  0  0  0  0
   56.9866   30.1040   52.6361 H   0  0  0  0  0  0  0  0  0  0  0  0
   57.7255   28.4667   52.6361 H   0  0  0  0  0  0  0  0  0  0  0  0
   58.8520   31.7600   50.2540 C   0  0  0  0  0  0  0  0  0  0  0  0
   57.7610   32.4270   50.8250 O   0  0  0  0  0  0  0  0  0  0  0  0
   57.7700   32.9330   52.1570 C   0  0  0  0  0  0  0  0  0  0  0  0
   57.7551   32.0939   52.8681 H   0  0  0  0  0  0  0  0  0  0  0  0
   58.6789   33.5319   52.3156 H   0  0  0  0  0  0  0  0  0  0  0  0
   56.8829   33.5638   52.3156 H   0  0  0  0  0  0  0  0  0  0  0  0
   57.7010   32.4600   44.9310 C   0  0  0  0  0  0  0  0  0  0  0  0
   57.3049   33.3306   44.3878 H   0  0  0  0  0  0  0  0  0  0  0  0
   57.0190   31.2400   44.8840 C   0  0  0  0  0  0  0  0  0  0  0  0
   56.0827   31.1598   44.3123 H   0  0  0  0  0  0  0  0  0  0  0  0
  1  2  1  0
  2  3  1  0
  3  4  2  0
  4  5  1  0
  4  6  1  0
  6  7  1  0
  6  8  2  0
  8  9  1  0
  8 10  1  0
 10 11  1  0
 11 12  2  0
 12 13  1  0
 13 14  2  0
 13 15  1  0
 15 16  2  0
 16 17  1  0
 16 18  1  0
 18 19  1  0
 18 20  2  0
 20 21  1  0
 21 22  2  0
 21 23  2  0
 21 24  1  0
 24 25  1  0
 25 26  1  0
 25 27  1  0
 25 28  1  0
 28 29  1  0
 28 30  1  0
 28 31  1  0
 31 32  2  0
 32 33  1  0
 32 34  1  0
 34 35  1  0
 34 36  2  0
 36 37  1  0
 37 38  1  0
 38 39  1  0
 38 40  1  0
 38 41  1  0
 36 42  1  0
 42 43  1  0
 43 44  1  0
 44 45  1  0
 44 46  1  0
 44 47  1  0
 42 48  2  0
 48 49  1  0
 49 50  1  0
 50 51  1  0
 50 52  1  0
 50 53  1  0
 20 54  1  0
 54 55  1  0
 54 56  2  0
 56 57  1  0
 11  3  1  0
 56 15  1  0
 48 31  1  0
M  CHG  2  10  -1  24  -1
M  END
>  <UniqueID>  (34) 
33

>  <SMILES>  (34) 
COc1ccc(CC[N-]S(=O)(=O)c2ccc(C(=O)/N=c3\[n-]cccc3O)cc2)c(OC)c1OC

>  <Energy>  (34) 
61.98143522829839

>  <Genealogy>  (34) 
COc1ccc(CC[N-]S(=O)(=O)c2ccc(C(=O)N=c3[n-]cccc3O)cc2)c(OC)c1OC (protonated)
COc1ccc(CC[N-]S(=O)(=O)c2ccc(C(=O)/N=c3\[n-]cccc3O)cc2)c(OC)c1OC (cis-trans isomerization)
COc1ccc(CC[N-]S(=O)(=O)c2ccc(C(=O)/N=c3\[n-]cccc3O)cc2)c(OC)c1OC (3D coordinates assigned)
COc1ccc(CC[N-]S(=O)(=O)c2ccc(C(=O)/N=c3\[n-]cccc3O)cc2)c(OC)c1OC (optimized conformer: 61.98143522829839 kcal/mol)

>  <smiles>  (34) 
COc1ccc(CCNS(=O)(=O)c2ccc(C(=O)N=c3[nH]cccc3O)cc2)c(OC)c1OC

>  <score_type>  (34) 
oracle

>  <origin>  (34) 
adg

>  <m_score__min__energy>  (34) 
-12.140000000000001

>  <m_primary>  (34) 
energy

$$$$
34:0
     RDKit          3D

 59 63  0  0  0  0  0  0  0  0999 V2000
   57.8250   29.6930   51.6620 O   0  0  0  0  0  0  0  0  0  0  0  0
   56.9340   30.5850   51.6180 C   0  0  0  0  0  0  0  0  0  0  0  0
   57.2800   31.9240   51.2150 N   0  0  0  0  0  0  0  0  0  0  0  0
   58.5740   32.2970   50.7100 C   0  0  0  0  0  0  0  0  0  0  0  0
   59.2950   33.3700   51.2620 C   0  0  0  0  0  0  0  0  0  0  0  0
   60.5640   33.6890   50.7760 C   0  0  0  0  0  0  0  0  0  0  0  0
   61.1310   32.9400   49.7440 C   0  0  0  0  0  0  0  0  0  0  0  0
   60.4300   31.8570   49.1840 C   0  0  0  0  0  0  0  0  0  0  0  0
   61.0350   31.0440   48.1050 C   0  0  0  0  0  0  0  0  0  0  0  0
   62.2560   31.1990   47.8270 O   0  0  0  0  0  0  0  0  0  0  0  0
   60.2590   30.0910   47.3570 N   0  0  0  0  0  0  0  0  0  0  0  0
   60.4300   30.0140   45.8990 C   0  0  0  0  0  0  0  0  0  0  0  0
   59.8460   28.7140   45.3320 C   0  0  0  0  0  0  0  0  0  0  0  0
   58.3850   28.4660   45.7910 C   0  0  0  0  0  0  0  0  0  0  0  0
   57.3570   29.1890   44.8860 C   0  0  0  0  0  0  0  0  0  0  0  0
   57.6450   30.6640   44.7470 C   0  0  0  0  0  0  0  0  0  0  0  0
   57.8090   31.2350   43.4740 C   0  0  0  0  0  0  0  0  0  0  0  0
   58.0890   32.5990   43.3430 C   0  0  0  0  0  0  0  0  0  0  0  0
   58.2060   33.4010   44.4810 C   0  0  0  0  0  0  0  0  0  0  0  0
   58.0450   32.8420   45.7510 C   0  0  0  0  0  0  0  0  0  0  0  0
   57.7650   31.4790   45.8860 C   0  0  0  0  0  0  0  0  0  0  0  0
   58.1490   28.8450   47.2830 C   0  0  0  0  0  0  0  0  0  0  0  0
   59.4510   29.0820   48.0530 C   0  0  0  0  0  0  0  0  0  0  0  0
   59.1600   31.5320   49.6900 C   0  0  0  0  0  0  0  0  0  0  0  0
   55.5450   30.2250   51.9960 C   0  0  0  0  0  0  0  0  0  0  0  0
   55.3000   29.0410   52.7350 C   0  0  0  0  0  0  0  0  0  0  0  0
   53.9960   28.6810   53.1090 C   0  0  0  0  0  0  0  0  0  0  0  0
   52.9600   29.5290   52.7340 C   0  0  0  0  0  0  0  0  0  0  0  0
   51.6530   29.3500   53.0110 N   0  0  0  0  0  0  0  0  0  0  0  0
   51.0640   30.4350   52.4510 C   0  0  0  0  0  0  0  0  0  0  0  0
   52.0190   31.2430   51.8560 C   0  0  0  0  0  0  0  0  0  0  0  0
   53.2060   30.6520   52.0440 N   0  0  0  0  0  0  0  0  0  0  0  0
   54.4470   31.0460   51.6590 C   0  0  0  0  0  0  0  0  0  0  0  0
   56.5830   32.6910   51.3320 H   0  0  0  0  0  0  0  0  0  0  0  0
   58.8574   33.9607   52.0803 H   0  0  0  0  0  0  0  0  0  0  0  0
   61.1195   34.5343   51.2083 H   0  0  0  0  0  0  0  0  0  0  0  0
   62.1315   33.1980   49.3666 H   0  0  0  0  0  0  0  0  0  0  0  0
   59.9176   30.8688   45.4335 H   0  0  0  0  0  0  0  0  0  0  0  0
   61.5071   30.0342   45.6765 H   0  0  0  0  0  0  0  0  0  0  0  0
   59.8657   28.7687   44.2335 H   0  0  0  0  0  0  0  0  0  0  0  0
   60.4591   27.8817   45.7080 H   0  0  0  0  0  0  0  0  0  0  0  0
   58.2274   27.3817   45.6940 H   0  0  0  0  0  0  0  0  0  0  0  0
   57.3818   28.7292   43.8870 H   0  0  0  0  0  0  0  0  0  0  0  0
   56.3675   29.0847   45.3552 H   0  0  0  0  0  0  0  0  0  0  0  0
   57.7168   30.6064   42.5760 H   0  0  0  0  0  0  0  0  0  0  0  0
   58.2171   33.0405   42.3437 H   0  0  0  0  0  0  0  0  0  0  0  0
   58.4252   34.4739   44.3768 H   0  0  0  0  0  0  0  0  0  0  0  0
   58.1386   33.4749   46.6458 H   0  0  0  0  0  0  0  0  0  0  0  0
   57.6381   31.0425   46.8877 H   0  0  0  0  0  0  0  0  0  0  0  0
   57.5474   29.7651   47.3200 H   0  0  0  0  0  0  0  0  0  0  0  0
   57.6339   27.9982   47.7602 H   0  0  0  0  0  0  0  0  0  0  0  0
   59.2168   29.4369   49.0675 H   0  0  0  0  0  0  0  0  0  0  0  0
   60.0160   28.1401   48.1133 H   0  0  0  0  0  0  0  0  0  0  0  0
   58.6181   30.6665   49.2811 H   0  0  0  0  0  0  0  0  0  0  0  0
   56.1436   28.3950   53.0195 H   0  0  0  0  0  0  0  0  0  0  0  0
   53.8006   27.7605   53.6787 H   0  0  0  0  0  0  0  0  0  0  0  0
   49.9841   30.6436   52.4668 H   0  0  0  0  0  0  0  0  0  0  0  0
   51.8368   32.1910   51.3287 H   0  0  0  0  0  0  0  0  0  0  0  0
   54.5932   31.9812   51.0987 H   0  0  0  0  0  0  0  0  0  0  0  0
  1  2  2  0
  2  3  1  0
  3  4  1  0
  4  5  2  0
  5  6  1  0
  6  7  2  0
  7  8  1  0
  8  9  1  0
  9 10  2  0
  9 11  1  0
 11 12  1  0
 12 13  1  0
 13 14  1  0
 14 15  1  0
 15 16  1  0
 16 17  2  0
 17 18  1  0
 18 19  2  0
 19 20  1  0
 20 21  2  0
 14 22  1  0
 22 23  1  0
  8 24  2  0
  2 25  1  0
 25 26  1  0
 26 27  2  0
 27 28  1  0
 28 29  2  0
 29 30  1  0
 30 31  2  0
 31 32  1  0
 32 33  1  0
 24  4  1  0
 33 25  2  0
 23 11  1  0
 32 28  1  0
 21 16  1  0
  3 34  1  0
  5 35  1  0
  6 36  1  0
  7 37  1  0
 12 38  1  0
 12 39  1  0
 13 40  1  0
 13 41  1  0
 14 42  1  0
 15 43  1  0
 15 44  1  0
 17 45  1  0
 18 46  1  0
 19 47  1  0
 20 48  1  0
 21 49  1  0
 22 50  1  0
 22 51  1  0
 23 52  1  0
 23 53  1  0
 24 54  1  0
 26 55  1  0
 27 56  1  0
 30 57  1  0
 31 58  1  0
 33 59  1  0
M  END
>  <UniqueID>  (35) 
34

>  <SMILES>  (35) 
O=C(Nc1cccc(C(=O)N2CCC(Cc3ccccc3)CC2)c1)c1ccc2nccn2c1

>  <Energy>  (35) 
111.96410271538076

>  <Genealogy>  (35) 
O=C(Nc1cccc(C(=O)N2CCC(Cc3ccccc3)CC2)c1)c1ccc2nccn2c1 (3D coordinates assigned)
O=C(Nc1cccc(C(=O)N2CCC(Cc3ccccc3)CC2)c1)c1ccc2nccn2c1 (nonaromatic ring conformer: 111.96410271538076 kcal/mol)

>  <smiles>  (35) 
O=C(Nc1cccc(C(=O)N2CCC(Cc3ccccc3)CC2)c1)c1ccc2nccn2c1

>  <score_type>  (35) 
oracle

>  <origin>  (35) 
adg

>  <m_score__min__energy>  (35) 
-9.9399999999999995

>  <m_primary>  (35) 
energy

$$$$
35:0
     RDKit          3D

 62 65  0  0  0  0  0  0  0  0999 V2000
   56.4790   21.7200   48.9100 C   0  0  0  0  0  0  0  0  0  0  0  0
   56.3080   20.7220   47.8430 N   0  0  0  0  0  0  0  0  0  0  0  0
   55.5640   21.3100   46.7050 C   0  0  0  0  0  0  0  0  0  0  0  0
   55.7700   20.4910   45.4240 C   0  0  0  0  0  0  0  0  0  0  0  0
   57.2000   20.4270   45.0180 N   0  0  0  0  0  0  0  0  0  0  0  0
   57.5290   21.5410   43.7090 S   0  0  0  0  0  0  0  0  0  0  0  0
   58.7520   21.0840   42.9600 O   0  0  0  0  0  0  0  0  0  0  0  0
   56.3770   21.5660   42.7430 O   0  0  0  0  0  0  0  0  0  0  0  0
   57.7930   23.1740   44.3480 C   0  0  0  0  0  0  0  0  0  0  0  0
   58.8990   23.3950   45.1810 C   0  0  0  0  0  0  0  0  0  0  0  0
   59.1530   24.6580   45.7150 C   0  0  0  0  0  0  0  0  0  0  0  0
   58.3050   25.7370   45.4270 C   0  0  0  0  0  0  0  0  0  0  0  0
   58.5680   27.0450   45.9820 N   0  0  0  0  0  0  0  0  0  0  0  0
   59.6810   27.2240   46.9280 C   0  0  0  0  0  0  0  0  0  0  0  0
   59.5280   28.5130   47.7420 C   0  0  0  0  0  0  0  0  0  0  0  0
   59.2770   29.6590   46.8570 N   0  0  0  0  0  0  0  0  0  0  0  0
   59.7560   30.9740   47.2150 C   0  0  0  0  0  0  0  0  0  0  0  0
   58.8520   31.9860   47.5860 C   0  0  0  0  0  0  0  0  0  0  0  0
   59.3130   33.2610   47.9150 C   0  0  0  0  0  0  0  0  0  0  0  0
   60.6790   33.5440   47.8890 C   0  0  0  0  0  0  0  0  0  0  0  0
   61.6060   32.5430   47.5540 C   0  0  0  0  0  0  0  0  0  0  0  0
   63.0800   32.8520   47.4830 C   0  0  0  0  0  0  0  0  0  0  0  0
   63.7650   31.7120   47.1030 F   0  0  0  0  0  0  0  0  0  0  0  0
   63.3310   33.8550   46.5630 F   0  0  0  0  0  0  0  0  0  0  0  0
   63.5490   33.2680   48.7170 F   0  0  0  0  0  0  0  0  0  0  0  0
   61.1330   31.2660   47.1990 C   0  0  0  0  0  0  0  0  0  0  0  0
   58.4480   29.4890   45.6530 C   0  0  0  0  0  0  0  0  0  0  0  0
   57.6700   28.1700   45.6840 C   0  0  0  0  0  0  0  0  0  0  0  0
   57.1910   25.5210   44.6000 C   0  0  0  0  0  0  0  0  0  0  0  0
   56.9210   24.2530   44.0590 C   0  0  0  0  0  0  0  0  0  0  0  0
   55.7580   24.0940   43.2340 N   0  0  0  0  0  0  0  0  0  0  0  0
   58.1430   20.6790   46.1320 C   0  0  0  0  0  0  0  0  0  0  0  0
   57.6060   20.1150   47.4550 C   0  0  0  0  0  0  0  0  0  0  0  0
   56.3946   21.2273   49.8899 H   0  0  0  0  0  0  0  0  0  0  0  0
   57.4704   22.1878   48.8190 H   0  0  0  0  0  0  0  0  0  0  0  0
   55.6999   22.4912   48.8190 H   0  0  0  0  0  0  0  0  0  0  0  0
   54.4917   21.3299   46.9494 H   0  0  0  0  0  0  0  0  0  0  0  0
   55.9415   22.3285   46.5314 H   0  0  0  0  0  0  0  0  0  0  0  0
   55.4051   19.4677   45.5960 H   0  0  0  0  0  0  0  0  0  0  0  0
   55.2126   20.9859   44.6151 H   0  0  0  0  0  0  0  0  0  0  0  0
   57.3840   19.4630   44.6550 H   0  0  0  0  0  0  0  0  0  0  0  0
   59.5758   22.5605   45.4166 H   0  0  0  0  0  0  0  0  0  0  0  0
   60.0257   24.8090   46.3674 H   0  0  0  0  0  0  0  0  0  0  0  0
   59.7047   26.3672   47.6174 H   0  0  0  0  0  0  0  0  0  0  0  0
   60.6153   27.2903   46.3512 H   0  0  0  0  0  0  0  0  0  0  0  0
   58.6835   28.4025   48.4381 H   0  0  0  0  0  0  0  0  0  0  0  0
   60.4598   28.6929   48.2983 H   0  0  0  0  0  0  0  0  0  0  0  0
   57.7738   31.7705   47.6169 H   0  0  0  0  0  0  0  0  0  0  0  0
   58.5963   34.0467   48.1962 H   0  0  0  0  0  0  0  0  0  0  0  0
   61.0322   34.5570   48.1323 H   0  0  0  0  0  0  0  0  0  0  0  0
   61.8495   30.4849   46.9048 H   0  0  0  0  0  0  0  0  0  0  0  0
   57.7336   30.3232   45.5911 H   0  0  0  0  0  0  0  0  0  0  0  0
   59.1133   29.4748   44.7771 H   0  0  0  0  0  0  0  0  0  0  0  0
   56.8927   28.2272   46.4602 H   0  0  0  0  0  0  0  0  0  0  0  0
   57.2121   28.0058   44.6974 H   0  0  0  0  0  0  0  0  0  0  0  0
   56.5174   26.3601   44.3716 H   0  0  0  0  0  0  0  0  0  0  0  0
   54.8170   24.4430   43.5070 H   0  0  0  0  0  0  0  0  0  0  0  0
   55.8320   23.6240   42.3030 H   0  0  0  0  0  0  0  0  0  0  0  0
   59.1057   20.1990   45.9022 H   0  0  0  0  0  0  0  0  0  0  0  0
   58.2673   21.7663   46.2428 H   0  0  0  0  0  0  0  0  0  0  0  0
   57.4698   19.0288   47.3467 H   0  0  0  0  0  0  0  0  0  0  0  0
   58.3364   20.3529   48.2423 H   0  0  0  0  0  0  0  0  0  0  0  0
  1  2  1  0
  2  3  1  0
  3  4  1  0
  4  5  1  0
  5  6  1  0
  6  7  2  0
  6  8  2  0
  6  9  1  0
  9 10  2  0
 10 11  1  0
 11 12  2  0
 12 13  1  0
 13 14  1  0
 14 15  1  0
 15 16  1  0
 16 17  1  0
 17 18  2  0
 18 19  1  0
 19 20  2  0
 20 21  1  0
 21 22  1  0
 22 23  1  0
 22 24  1  0
 22 25  1  0
 21 26  2  0
 16 27  1  0
 27 28  1  0
 12 29  1  0
 29 30  2  0
 30 31  1  0
  5 32  1  0
 32 33  1  0
 33  2  1  0
 30  9  1  0
 28 13  1  0
 26 17  1  0
  1 34  1  0
  1 35  1  0
  1 36  1  0
  3 37  1  0
  3 38  1  0
  4 39  1  0
  4 40  1  0
  5 41  1  0
 10 42  1  0
 11 43  1  0
 14 44  1  0
 14 45  1  0
 15 46  1  0
 15 47  1  0
 18 48  1  0
 19 49  1  0
 20 50  1  0
 26 51  1  0
 27 52  1  0
 27 53  1  0
 28 54  1  0
 28 55  1  0
 29 56  1  0
 31 57  1  0
 31 58  1  0
 32 59  1  0
 32 60  1  0
 33 61  1  0
 33 62  1  0
M  CHG  1   5   1
M  END
>  <UniqueID>  (36) 
35

>  <SMILES>  (36) 
CN1CC[NH+](S(=O)(=O)c2ccc(N3CCN(c4cccc(C(F)(F)F)c4)CC3)cc2N)CC1

>  <Energy>  (36) 
83.28252259671355

>  <Genealogy>  (36) 
CN1CC[NH+](S(=O)(=O)c2ccc(N3CCN(c4cccc(C(F)(F)F)c4)CC3)cc2N)CC1 (protonated)
CN1CC[NH+](S(=O)(=O)c2ccc(N3CCN(c4cccc(C(F)(F)F)c4)CC3)cc2N)CC1 (3D coordinates assigned)
CN1CC[NH+](S(=O)(=O)c2ccc(N3CCN(c4cccc(C(F)(F)F)c4)CC3)cc2N)CC1 (nonaromatic ring conformer: 83.28252259671355 kcal/mol)

>  <smiles>  (36) 
CN1CCN(S(=O)(=O)c2ccc(N3CCN(c4cccc(C(F)(F)F)c4)CC3)cc2N)CC1

>  <score_type>  (36) 
oracle

>  <origin>  (36) 
adg

>  <m_score__min__energy>  (36) 
-7.0099999999999998

>  <m_primary>  (36) 
energy

$$$$
36:0
     RDKit          3D

 62 65  0  0  0  0  0  0  0  0999 V2000
   57.1130   31.8380   51.6140 C   0  0  0  0  0  0  0  0  0  0  0  0
   58.5890   31.9470   51.3380 C   0  0  0  0  0  0  0  0  0  0  0  0
   59.2130   30.9740   50.5410 C   0  0  0  0  0  0  0  0  0  0  0  0
   60.5830   31.0400   50.2790 C   0  0  0  0  0  0  0  0  0  0  0  0
   61.3540   32.0840   50.8040 C   0  0  0  0  0  0  0  0  0  0  0  0
   62.8390   32.1510   50.5190 C   0  0  0  0  0  0  0  0  0  0  0  0
   63.1850   33.2610   49.5940 N   0  0  0  0  0  0  0  0  0  0  0  0
   61.9950   34.0630   49.1790 C   0  0  0  0  0  0  0  0  0  0  0  0
   61.7500   34.0760   47.6600 C   0  0  0  0  0  0  0  0  0  0  0  0
   61.8210   32.7200   47.0740 N   0  0  0  0  0  0  0  0  0  0  0  0
   60.6340   31.8870   47.3760 C   0  0  0  0  0  0  0  0  0  0  0  0
   59.4020   32.3890   46.6680 C   0  0  0  0  0  0  0  0  0  0  0  0
   59.0250   33.7350   46.7680 C   0  0  0  0  0  0  0  0  0  0  0  0
   57.8920   34.1990   46.0970 C   0  0  0  0  0  0  0  0  0  0  0  0
   57.1160   33.3190   45.3360 C   0  0  0  0  0  0  0  0  0  0  0  0
   57.4580   31.9640   45.2590 C   0  0  0  0  0  0  0  0  0  0  0  0
   56.6380   31.0780   44.4850 N   0  0  0  0  0  0  0  0  0  0  0  0
   56.3430   29.7160   44.8260 C   0  0  0  0  0  0  0  0  0  0  0  0
   55.1390   29.3530   44.8840 O   0  0  0  0  0  0  0  0  0  0  0  0
   57.4130   28.7430   45.1540 C   0  0  0  0  0  0  0  0  0  0  0  0
   57.9590   28.7150   46.4500 C   0  0  0  0  0  0  0  0  0  0  0  0
   58.9810   27.8150   46.7680 C   0  0  0  0  0  0  0  0  0  0  0  0
   59.6600   27.7880   48.3830 Cl  0  0  0  0  0  0  0  0  0  0  0  0
   59.4700   26.9390   45.7950 C   0  0  0  0  0  0  0  0  0  0  0  0
   58.9380   26.9610   44.5040 C   0  0  0  0  0  0  0  0  0  0  0  0
   57.9190   27.8610   44.1780 C   0  0  0  0  0  0  0  0  0  0  0  0
   57.4640   27.8980   42.9000 F   0  0  0  0  0  0  0  0  0  0  0  0
   58.6150   31.5060   45.9100 C   0  0  0  0  0  0  0  0  0  0  0  0
   63.0860   32.0140   47.4120 C   0  0  0  0  0  0  0  0  0  0  0  0
   63.9660   32.7600   48.4380 C   0  0  0  0  0  0  0  0  0  0  0  0
   60.7380   33.0610   51.6040 C   0  0  0  0  0  0  0  0  0  0  0  0
   59.3630   32.9960   51.8870 C   0  0  0  0  0  0  0  0  0  0  0  0
   58.7430   34.0470   52.7700 C   0  0  0  0  0  0  0  0  0  0  0  0
   56.9431   31.8255   52.7007 H   0  0  0  0  0  0  0  0  0  0  0  0
   56.5926   32.7002   51.1715 H   0  0  0  0  0  0  0  0  0  0  0  0
   56.7249   30.9087   51.1715 H   0  0  0  0  0  0  0  0  0  0  0  0
   58.6168   30.1516   50.1188 H   0  0  0  0  0  0  0  0  0  0  0  0
   61.0589   30.2677   49.6569 H   0  0  0  0  0  0  0  0  0  0  0  0
   63.3751   32.3008   51.4678 H   0  0  0  0  0  0  0  0  0  0  0  0
   63.1326   31.2068   50.0371 H   0  0  0  0  0  0  0  0  0  0  0  0
   63.8310   33.9010   50.1150 H   0  0  0  0  0  0  0  0  0  0  0  0
   61.1052   33.6415   49.6696 H   0  0  0  0  0  0  0  0  0  0  0  0
   62.1906   35.1029   49.4795 H   0  0  0  0  0  0  0  0  0  0  0  0
   60.7517   34.4949   47.4652 H   0  0  0  0  0  0  0  0  0  0  0  0
   62.5369   34.6879   47.1949 H   0  0  0  0  0  0  0  0  0  0  0  0
   60.8331   30.8540   47.0546 H   0  0  0  0  0  0  0  0  0  0  0  0
   60.4491   31.9359   48.4592 H   0  0  0  0  0  0  0  0  0  0  0  0
   59.6237   34.4282   47.3771 H   0  0  0  0  0  0  0  0  0  0  0  0
   57.6089   35.2596   46.1671 H   0  0  0  0  0  0  0  0  0  0  0  0
   56.2337   33.6931   44.7960 H   0  0  0  0  0  0  0  0  0  0  0  0
   57.5798   29.4052   47.2180 H   0  0  0  0  0  0  0  0  0  0  0  0
   60.2743   26.2319   46.0462 H   0  0  0  0  0  0  0  0  0  0  0  0
   59.3220   26.2679   43.7410 H   0  0  0  0  0  0  0  0  0  0  0  0
   58.9070   30.4488   45.8258 H   0  0  0  0  0  0  0  0  0  0  0  0
   62.8315   31.0276   47.8269 H   0  0  0  0  0  0  0  0  0  0  0  0
   63.6700   31.9444   46.4825 H   0  0  0  0  0  0  0  0  0  0  0  0
   64.7401   32.0709   48.8067 H   0  0  0  0  0  0  0  0  0  0  0  0
   64.4090   33.6295   47.9304 H   0  0  0  0  0  0  0  0  0  0  0  0
   61.3389   33.8863   52.0136 H   0  0  0  0  0  0  0  0  0  0  0  0
   58.9010   33.7792   53.8251 H   0  0  0  0  0  0  0  0  0  0  0  0
   59.2112   35.0210   52.5649 H   0  0  0  0  0  0  0  0  0  0  0  0
   57.6640   34.1083   52.5649 H   0  0  0  0  0  0  0  0  0  0  0  0
  1  2  1  0
  2  3  2  0
  3  4  1  0
  4  5  2  0
  5  6  1  0
  6  7  1  0
  7  8  1  0
  8  9  1  0
  9 10  1  0
 10 11  1  0
 11 12  1  0
 12 13  2  0
 13 14  1  0
 14 15  2  0
 15 16  1  0
 16 17  1  0
 17 18  1  0
 18 19  2  0
 18 20  1  0
 20 21  2  0
 21 22  1  0
 22 23  1  0
 22 24  2  0
 24 25  1  0
 25 26  2  0
 26 27  1  0
 16 28  2  0
 10 29  1  0
 29 30  1  0
  5 31  1  0
 31 32  2  0
 32 33  1  0
 32  2  1  0
 30  7  1  0
 28 12  1  0
 26 20  1  0
  1 34  1  0
  1 35  1  0
  1 36  1  0
  3 37  1  0
  4 38  1  0
  6 39  1  0
  6 40  1  0
  7 41  1  0
  8 42  1  0
  8 43  1  0
  9 44  1  0
  9 45  1  0
 11 46  1  0
 11 47  1  0
 13 48  1  0
 14 49  1  0
 15 50  1  0
 21 51  1  0
 24 52  1  0
 25 53  1  0
 28 54  1  0
 29 55  1  0
 29 56  1  0
 30 57  1  0
 30 58  1  0
 31 59  1  0
 33 60  1  0
 33 61  1  0
 33 62  1  0
M  CHG  2   7   1  17  -1
M  END
>  <UniqueID>  (37) 
36

>  <SMILES>  (37) 
Cc1ccc(C[NH+]2CCN(Cc3cccc([N-]C(=O)c4cc(Cl)ccc4F)c3)CC2)cc1C

>  <Energy>  (37) 
82.94245777241017

>  <Genealogy>  (37) 
Cc1ccc(C[NH+]2CCN(Cc3cccc([N-]C(=O)c4cc(Cl)ccc4F)c3)CC2)cc1C (protonated)
Cc1ccc(C[NH+]2CCN(Cc3cccc([N-]C(=O)c4cc(Cl)ccc4F)c3)CC2)cc1C (3D coordinates assigned)
Cc1ccc(C[NH+]2CCN(Cc3cccc([N-]C(=O)c4cc(Cl)ccc4F)c3)CC2)cc1C (nonaromatic ring conformer: 82.94245777241017 kcal/mol)

>  <smiles>  (37) 
Cc1ccc(CN2CCN(Cc3cccc(NC(=O)c4cc(Cl)ccc4F)c3)CC2)cc1C

>  <score_type>  (37) 
oracle

>  <origin>  (37) 
adg

>  <m_score__min__energy>  (37) 
-10.699999999999999

>  <m_primary>  (37) 
energy

$$$$
37:0
     RDKit          3D

 47 49  0  0  0  0  0  0  0  0999 V2000
   58.5850   22.3070   44.4940 C   0  0  0  0  0  0  0  0  0  0  0  0
   57.6270   23.3800   44.9310 C   0  0  0  0  0  0  0  0  0  0  0  0
   58.0370   24.3750   45.8270 C   0  0  0  0  0  0  0  0  0  0  0  0
   57.1790   25.3680   46.2100 N   0  0  0  0  0  0  0  0  0  0  0  0
   57.6620   26.4010   47.1430 C   0  0  0  0  0  0  0  0  0  0  0  0
   58.9470   27.0030   46.6440 C   0  0  0  0  0  0  0  0  0  0  0  0
   58.9840   28.2330   46.1110 C   0  0  0  0  0  0  0  0  0  0  0  0
   58.8810   28.4480   44.6300 C   0  0  0  0  0  0  0  0  0  0  0  0
   58.3620   29.7860   44.3520 N   0  0  0  0  0  0  0  0  0  0  0  0
   56.9960   30.1600   44.5900 C   0  0  0  0  0  0  0  0  0  0  0  0
   56.1500   29.2970   44.9500 O   0  0  0  0  0  0  0  0  0  0  0  0
   56.5780   31.5920   44.4670 C   0  0  0  0  0  0  0  0  0  0  0  0
   57.6710   32.4850   44.9620 C   0  0  0  0  0  0  0  0  0  0  0  0
   57.7240   33.8480   44.6830 C   0  0  0  0  0  0  0  0  0  0  0  0
   59.1280   34.4530   45.3770 S   0  0  0  0  0  0  0  0  0  0  0  0
   59.6180   32.9620   45.9910 C   0  0  0  0  0  0  0  0  0  0  0  0
   60.8560   32.7070   46.7640 C   0  0  0  0  0  0  0  0  0  0  0  0
   61.9070   33.6440   46.7790 C   0  0  0  0  0  0  0  0  0  0  0  0
   63.0710   33.3910   47.5130 C   0  0  0  0  0  0  0  0  0  0  0  0
   63.1990   32.2040   48.2380 C   0  0  0  0  0  0  0  0  0  0  0  0
   62.1630   31.2670   48.2310 C   0  0  0  0  0  0  0  0  0  0  0  0
   60.9970   31.5150   47.4990 C   0  0  0  0  0  0  0  0  0  0  0  0
   58.7240   31.9990   45.6750 N   0  0  0  0  0  0  0  0  0  0  0  0
   55.9090   25.4040   45.6960 C   0  0  0  0  0  0  0  0  0  0  0  0
   55.1000   26.3100   46.0320 O   0  0  0  0  0  0  0  0  0  0  0  0
   55.5050   24.4590   44.8090 N   0  0  0  0  0  0  0  0  0  0  0  0
   56.3290   23.4580   44.4120 C   0  0  0  0  0  0  0  0  0  0  0  0
   55.9150   22.6100   43.5790 O   0  0  0  0  0  0  0  0  0  0  0  0
   59.0194   21.8204   45.3797 H   0  0  0  0  0  0  0  0  0  0  0  0
   58.0483   21.5596   43.8913 H   0  0  0  0  0  0  0  0  0  0  0  0
   59.3882   22.7559   43.8913 H   0  0  0  0  0  0  0  0  0  0  0  0
   59.0614   24.3574   46.2273 H   0  0  0  0  0  0  0  0  0  0  0  0
   56.9025   27.1917   47.2322 H   0  0  0  0  0  0  0  0  0  0  0  0
   57.8439   25.9373   48.1237 H   0  0  0  0  0  0  0  0  0  0  0  0
   59.8775   26.4211   46.7180 H   0  0  0  0  0  0  0  0  0  0  0  0
   59.0923   29.1036   46.7746 H   0  0  0  0  0  0  0  0  0  0  0  0
   59.8778   28.3429   44.1768 H   0  0  0  0  0  0  0  0  0  0  0  0
   58.1958   27.7002   44.2042 H   0  0  0  0  0  0  0  0  0  0  0  0
   59.0420   30.5240   44.0580 H   0  0  0  0  0  0  0  0  0  0  0  0
   56.3690   31.8217   43.4118 H   0  0  0  0  0  0  0  0  0  0  0  0
   55.6730   31.7585   45.0698 H   0  0  0  0  0  0  0  0  0  0  0  0
   56.9810   34.4238   44.1117 H   0  0  0  0  0  0  0  0  0  0  0  0
   61.8123   34.5807   46.2101 H   0  0  0  0  0  0  0  0  0  0  0  0
   63.8871   34.1285   47.5191 H   0  0  0  0  0  0  0  0  0  0  0  0
   64.1151   32.0072   48.8142 H   0  0  0  0  0  0  0  0  0  0  0  0
   62.2642   30.3324   48.8022 H   0  0  0  0  0  0  0  0  0  0  0  0
   60.1847   30.7733   47.4978 H   0  0  0  0  0  0  0  0  0  0  0  0
  1  2  1  0
  2  3  2  0
  3  4  1  0
  4  5  1  0
  5  6  1  0
  6  7  2  3
  7  8  1  0
  8  9  1  0
  9 10  1  0
 10 11  2  0
 10 12  1  0
 12 13  1  0
 13 14  2  0
 14 15  1  0
 15 16  1  0
 16 17  1  0
 17 18  2  0
 18 19  1  0
 19 20  2  0
 20 21  1  0
 21 22  2  0
 16 23  2  0
  4 24  1  0
 24 25  2  0
 24 26  1  0
 26 27  1  0
 27 28  2  0
 27  2  1  0
 23 13  1  0
 22 17  1  0
  1 29  1  0
  1 30  1  0
  1 31  1  0
  3 32  1  0
  5 33  1  0
  5 34  1  0
  6 35  1  0
  7 36  1  0
  8 37  1  0
  8 38  1  0
  9 39  1  0
 12 40  1  0
 12 41  1  0
 14 42  1  0
 18 43  1  0
 19 44  1  0
 20 45  1  0
 21 46  1  0
 22 47  1  0
M  CHG  1  26  -1
M  END
>  <UniqueID>  (38) 
37

>  <SMILES>  (38) 
Cc1cn(CC=CCNC(=O)Cc2csc(-c3ccccc3)n2)c(=O)[n-]c1=O

>  <Energy>  (38) 
70.63305271837682

>  <Genealogy>  (38) 
Cc1cn(CC=CCNC(=O)Cc2csc(-c3ccccc3)n2)c(=O)[n-]c1=O (protonated)
Cc1cn(CC=CCNC(=O)Cc2csc(-c3ccccc3)n2)c(=O)[n-]c1=O (3D coordinates assigned)
Cc1cn(CC=CCNC(=O)Cc2csc(-c3ccccc3)n2)c(=O)[n-]c1=O (optimized conformer: 70.63305271837682 kcal/mol)

>  <smiles>  (38) 
Cc1cn(CC=CCNC(=O)Cc2csc(-c3ccccc3)n2)c(=O)[nH]c1=O

>  <score_type>  (38) 
oracle

>  <origin>  (38) 
adg

>  <m_score__min__energy>  (38) 
-11.630000000000001

>  <m_primary>  (38) 
energy

$$$$
38:0
     RDKit          3D

 52 55  0  0  0  0  0  0  0  0999 V2000
   58.6200   30.4760   51.4130 O   0  0  0  0  0  0  0  0  0  0  0  0
   58.0710   31.4910   50.9040 C   0  0  0  0  0  0  0  0  0  0  0  0
   56.8070   31.9480   51.4140 N   0  0  0  0  0  0  0  0  0  0  0  0
   55.8720   31.1040   52.1100 C   0  0  0  0  0  0  0  0  0  0  0  0
   56.2540   30.3640   53.2440 C   0  0  0  0  0  0  0  0  0  0  0  0
   55.3290   29.5390   53.8900 C   0  0  0  0  0  0  0  0  0  0  0  0
   54.0260   29.4250   53.4010 C   0  0  0  0  0  0  0  0  0  0  0  0
   53.6440   30.1220   52.2420 C   0  0  0  0  0  0  0  0  0  0  0  0
   52.3090   30.0430   51.7250 N   0  0  0  0  0  0  0  0  0  0  0  0
   51.1030   30.3090   52.4540 C   0  0  0  0  0  0  0  0  0  0  0  0
   50.3780   29.3390   52.8020 O   0  0  0  0  0  0  0  0  0  0  0  0
   50.7280   31.6710   52.8720 C   0  0  0  0  0  0  0  0  0  0  0  0
   50.6110   32.7070   52.0150 N   0  0  0  0  0  0  0  0  0  0  0  0
   50.2920   33.7460   52.8060 C   0  0  0  0  0  0  0  0  0  0  0  0
   50.2340   33.3210   54.1090 C   0  0  0  0  0  0  0  0  0  0  0  0
   50.5140   32.0070   54.1600 N   0  0  0  0  0  0  0  0  0  0  0  0
   54.5650   30.9700   51.6150 C   0  0  0  0  0  0  0  0  0  0  0  0
   58.7620   32.2270   49.8170 C   0  0  0  0  0  0  0  0  0  0  0  0
   60.0440   32.7720   50.0180 C   0  0  0  0  0  0  0  0  0  0  0  0
   60.6850   33.4700   48.9930 C   0  0  0  0  0  0  0  0  0  0  0  0
   60.0560   33.6420   47.7580 C   0  0  0  0  0  0  0  0  0  0  0  0
   58.7720   33.1180   47.5420 C   0  0  0  0  0  0  0  0  0  0  0  0
   58.0900   33.2890   46.2100 C   0  0  0  0  0  0  0  0  0  0  0  0
   58.8020   32.5160   45.1680 N   0  0  0  0  0  0  0  0  0  0  0  0
   58.1200   32.5690   43.8490 C   0  0  0  0  0  0  0  0  0  0  0  0
   57.1830   31.3690   43.6000 C   0  0  0  0  0  0  0  0  0  0  0  0
   56.6770   30.8460   44.8700 N   0  0  0  0  0  0  0  0  0  0  0  0
   57.7680   30.2890   45.6840 C   0  0  0  0  0  0  0  0  0  0  0  0
   59.0640   31.1260   45.5880 C   0  0  0  0  0  0  0  0  0  0  0  0
   58.1320   32.4120   48.5730 C   0  0  0  0  0  0  0  0  0  0  0  0
   56.6000   32.9700   51.3670 H   0  0  0  0  0  0  0  0  0  0  0  0
   57.2840   30.4350   53.6234 H   0  0  0  0  0  0  0  0  0  0  0  0
   55.6286   28.9773   54.7871 H   0  0  0  0  0  0  0  0  0  0  0  0
   53.2972   28.7884   53.9240 H   0  0  0  0  0  0  0  0  0  0  0  0
   50.1067   34.7745   52.4627 H   0  0  0  0  0  0  0  0  0  0  0  0
   49.9959   33.9553   54.9756 H   0  0  0  0  0  0  0  0  0  0  0  0
   54.2608   31.5382   50.7236 H   0  0  0  0  0  0  0  0  0  0  0  0
   60.5444   32.6470   50.9896 H   0  0  0  0  0  0  0  0  0  0  0  0
   61.6896   33.8862   49.1587 H   0  0  0  0  0  0  0  0  0  0  0  0
   60.5680   34.1893   46.9528 H   0  0  0  0  0  0  0  0  0  0  0  0
   57.0530   32.9296   46.2840 H   0  0  0  0  0  0  0  0  0  0  0  0
   58.0998   34.3543   45.9360 H   0  0  0  0  0  0  0  0  0  0  0  0
   57.5251   33.4930   43.8000 H   0  0  0  0  0  0  0  0  0  0  0  0
   58.9017   32.5390   43.0757 H   0  0  0  0  0  0  0  0  0  0  0  0
   56.3357   31.6934   42.9780 H   0  0  0  0  0  0  0  0  0  0  0  0
   57.7465   30.5762   43.0863 H   0  0  0  0  0  0  0  0  0  0  0  0
   55.9990   30.0770   44.6600 H   0  0  0  0  0  0  0  0  0  0  0  0
   57.4443   30.2590   46.7349 H   0  0  0  0  0  0  0  0  0  0  0  0
   57.9908   29.2822   45.3009 H   0  0  0  0  0  0  0  0  0  0  0  0
   59.5501   31.1401   46.5747 H   0  0  0  0  0  0  0  0  0  0  0  0
   59.7101   30.6608   44.8290 H   0  0  0  0  0  0  0  0  0  0  0  0
   57.1263   31.9988   48.4061 H   0  0  0  0  0  0  0  0  0  0  0  0
  1  2  2  0
  2  3  1  0
  3  4  1  0
  4  5  2  0
  5  6  1  0
  6  7  2  0
  7  8  1  0
  8  9  1  0
  9 10  1  0
 10 11  2  0
 10 12  1  0
 12 13  2  0
 13 14  1  0
 14 15  2  0
 15 16  1  0
  8 17  2  0
  2 18  1  0
 18 19  2  0
 19 20  1  0
 20 21  2  0
 21 22  1  0
 22 23  1  0
 23 24  1  0
 24 25  1  0
 25 26  1  0
 26 27  1  0
 27 28  1  0
 28 29  1  0
 22 30  2  0
 17  4  1  0
 30 18  1  0
 16 12  1  0
 29 24  1  0
  3 31  1  0
  5 32  1  0
  6 33  1  0
  7 34  1  0
 14 35  1  0
 15 36  1  0
 17 37  1  0
 19 38  1  0
 20 39  1  0
 21 40  1  0
 23 41  1  0
 23 42  1  0
 25 43  1  0
 25 44  1  0
 26 45  1  0
 26 46  1  0
 27 47  1  0
 28 48  1  0
 28 49  1  0
 29 50  1  0
 29 51  1  0
 30 52  1  0
M  CHG  2   9  -1  16  -1
M  END
>  <UniqueID>  (39) 
38

>  <SMILES>  (39) 
O=C(Nc1cccc([N-]C(=O)c2ncc[n-]2)c1)c1cccc(CN2CCNCC2)c1

>  <Energy>  (39) 
101.89531432206486

>  <Genealogy>  (39) 
O=C(Nc1cccc([N-]C(=O)c2ncc[n-]2)c1)c1cccc(CN2CCNCC2)c1 (protonated)
O=C(Nc1cccc([N-]C(=O)c2ncc[n-]2)c1)c1cccc(CN2CCNCC2)c1 (3D coordinates assigned)
O=C(Nc1cccc([N-]C(=O)c2ncc[n-]2)c1)c1cccc(CN2CCNCC2)c1 (nonaromatic ring conformer: 101.89531432206486 kcal/mol)

>  <smiles>  (39) 
O=C(Nc1cccc(NC(=O)c2ncc[nH]2)c1)c1cccc(CN2CCNCC2)c1

>  <score_type>  (39) 
oracle

>  <origin>  (39) 
adg

>  <m_score__min__energy>  (39) 
-13.73

>  <m_primary>  (39) 
energy

$$$$
39:0
     RDKit          3D

 43 46  0  0  0  0  0  0  0  0999 V2000
   63.5183   31.1910   49.9374 H   0  0  0  0  0  0  0  0  0  0  0  0
   63.2200   31.9390   49.1880 C   0  0  0  0  0  0  0  0  0  0  0  0
   63.9250   32.0610   48.0330 N   0  0  0  0  0  0  0  0  0  0  0  0
   63.5870   32.9710   47.0830 C   0  0  0  0  0  0  0  0  0  0  0  0
   64.1764   33.0428   46.1570 H   0  0  0  0  0  0  0  0  0  0  0  0
   62.4920   33.8160   47.2800 C   0  0  0  0  0  0  0  0  0  0  0  0
   62.2124   34.5495   46.5094 H   0  0  0  0  0  0  0  0  0  0  0  0
   61.7510   33.7220   48.4690 C   0  0  0  0  0  0  0  0  0  0  0  0
   60.5240   34.5710   48.6700 C   0  0  0  0  0  0  0  0  0  0  0  0
   60.8066   35.6339   48.6525 H   0  0  0  0  0  0  0  0  0  0  0  0
   60.0657   34.3296   49.6404 H   0  0  0  0  0  0  0  0  0  0  0  0
   59.5390   34.2960   47.5680 C   0  0  0  0  0  0  0  0  0  0  0  0
   58.6080   33.2530   47.6990 C   0  0  0  0  0  0  0  0  0  0  0  0
   58.5098   32.7236   48.6582 H   0  0  0  0  0  0  0  0  0  0  0  0
   57.8060   32.8850   46.6160 C   0  0  0  0  0  0  0  0  0  0  0  0
   57.0623   32.0829   46.7326 H   0  0  0  0  0  0  0  0  0  0  0  0
   57.9450   33.5330   45.3830 C   0  0  0  0  0  0  0  0  0  0  0  0
   57.2330   33.0230   44.2470 N   0  0  0  0  0  0  0  0  0  0  0  0
   57.7810   32.1870   43.2170 C   0  0  0  0  0  0  0  0  0  0  0  0
   57.6380   32.5320   42.0160 O   0  0  0  0  0  0  0  0  0  0  0  0
   58.5180   30.9890   43.5120 N   0  0  0  0  0  0  0  0  0  0  0  0
   58.1120   29.9900   44.2400 C   0  0  0  0  0  0  0  0  0  0  0  0
   56.8500   29.9160   44.7140 N   0  0  0  0  0  0  0  0  0  0  0  0
   56.6450   28.7820   45.4330 C   0  0  0  0  0  0  0  0  0  0  0  0
   55.6784   28.5438   45.9009 H   0  0  0  0  0  0  0  0  0  0  0  0
   57.7520   27.9450   45.5320 C   0  0  0  0  0  0  0  0  0  0  0  0
   57.8140   26.6550   46.2850 C   0  0  0  0  0  0  0  0  0  0  0  0
   58.8426   26.2661   46.2563 H   0  0  0  0  0  0  0  0  0  0  0  0
   57.5094   26.8315   47.3272 H   0  0  0  0  0  0  0  0  0  0  0  0
   56.8900   25.6550   45.6680 C   0  0  0  0  0  0  0  0  0  0  0  0
   57.3720   24.2330   44.9020 S   0  0  0  0  0  0  0  0  0  0  0  0
   55.7840   23.7420   44.6420 C   0  0  0  0  0  0  0  0  0  0  0  0
   55.4590   22.6740   44.0610 O   0  0  0  0  0  0  0  0  0  0  0  0
   54.8810   24.6180   45.1290 N   0  0  0  0  0  0  0  0  0  0  0  0
   55.4980   25.6800   45.7080 C   0  0  0  0  0  0  0  0  0  0  0  0
   54.7770   26.7110   46.2980 O   0  0  0  0  0  0  0  0  0  0  0  0
   59.0430   28.6650   44.7280 S   0  0  0  0  0  0  0  0  0  0  0  0
   58.8240   34.6240   45.2720 C   0  0  0  0  0  0  0  0  0  0  0  0
   58.8809   35.1887   44.3298 H   0  0  0  0  0  0  0  0  0  0  0  0
   59.6250   34.9930   46.3540 C   0  0  0  0  0  0  0  0  0  0  0  0
   60.3268   35.8342   46.2541 H   0  0  0  0  0  0  0  0  0  0  0  0
   62.1160   32.7630   49.4250 C   0  0  0  0  0  0  0  0  0  0  0  0
   61.5375   32.6600   50.3549 H   0  0  0  0  0  0  0  0  0  0  0  0
  1  2  1  0
  2  3  2  0
  3  4  1  0
  4  5  1  0
  4  6  2  0
  6  7  1  0
  6  8  1  0
  8  9  1  0
  9 10  1  0
  9 11  1  0
  9 12  1  0
 12 13  2  0
 13 14  1  0
 13 15  1  0
 15 16  1  0
 15 17  2  0
 17 18  1  0
 18 19  1  0
 19 20  2  0
 19 21  1  0
 21 22  2  0
 22 23  1  0
 23 24  1  0
 24 25  1  0
 24 26  2  0
 26 27  1  0
 27 28  1  0
 27 29  1  0
 27 30  1  0
 30 31  1  0
 31 32  1  0
 32 33  2  0
 32 34  1  0
 34 35  1  0
 35 36  1  0
 26 37  1  0
 17 38  1  0
 38 39  1  0
 38 40  2  0
 40 41  1  0
  8 42  2  0
 42 43  1  0
 42  2  1  0
 40 12  1  0
 37 22  1  0
 35 30  2  0
M  CHG  4  18  -1  23  -1  34  -1  36  -1
M  END
>  <UniqueID>  (40) 
39

>  <SMILES>  (40) 
O=C(/N=c1/[n-]cc(Cc2sc(=O)[n-]c2[O-])s1)[N-]c1ccc(Cc2ccncc2)cc1

>  <Energy>  (40) 
113.28623999757838

>  <Genealogy>  (40) 
O=C(N=c1[n-]cc(Cc2sc(=O)[n-]c2[O-])s1)[N-]c1ccc(Cc2ccncc2)cc1 (protonated)
O=C(/N=c1/[n-]cc(Cc2sc(=O)[n-]c2[O-])s1)[N-]c1ccc(Cc2ccncc2)cc1 (cis-trans isomerization)
O=C(/N=c1/[n-]cc(Cc2sc(=O)[n-]c2[O-])s1)[N-]c1ccc(Cc2ccncc2)cc1 (3D coordinates assigned)
O=C(/N=c1/[n-]cc(Cc2sc(=O)[n-]c2[O-])s1)[N-]c1ccc(Cc2ccncc2)cc1 (optimized conformer: 113.28623999757838 kcal/mol)

>  <smiles>  (40) 
O=C(N=c1[nH]cc(Cc2sc(=O)[nH]c2O)s1)Nc1ccc(Cc2ccncc2)cc1

>  <score_type>  (40) 
oracle

>  <origin>  (40) 
adg

>  <m_score__min__energy>  (40) 
-17.440000000000001

>  <m_primary>  (40) 
energy

$$$$
40:0
     RDKit          3D

 50 53  0  0  0  0  0  0  0  0999 V2000
   54.6278   28.4088   54.9119 H   0  0  0  0  0  0  0  0  0  0  0  0
   53.9630   28.8400   54.1490 C   0  0  0  0  0  0  0  0  0  0  0  0
   52.9157   28.5103   54.0823 H   0  0  0  0  0  0  0  0  0  0  0  0
   54.4300   29.7690   53.2990 C   0  0  0  0  0  0  0  0  0  0  0  0
   53.6990   30.3970   52.2870 C   0  0  0  0  0  0  0  0  0  0  0  0
   52.4250   30.1560   51.9180 C   0  0  0  0  0  0  0  0  0  0  0  0
   51.8205   29.4838   52.5446 H   0  0  0  0  0  0  0  0  0  0  0  0
   51.7980   30.7440   50.7210 C   0  0  0  0  0  0  0  0  0  0  0  0
   51.6610   30.0870   49.5560 N   0  0  0  0  0  0  0  0  0  0  0  0
   50.9940   30.9660   48.7770 C   0  0  0  0  0  0  0  0  0  0  0  0
   50.6850   30.7140   47.5830 O   0  0  0  0  0  0  0  0  0  0  0  0
   50.6770   32.1310   49.3800 N   0  0  0  0  0  0  0  0  0  0  0  0
   51.1820   31.9710   50.6130 C   0  0  0  0  0  0  0  0  0  0  0  0
   51.0420   32.9090   51.6300 O   0  0  0  0  0  0  0  0  0  0  0  0
   54.5590   31.3070   51.6960 C   0  0  0  0  0  0  0  0  0  0  0  0
   54.3268   31.9770   50.8550 H   0  0  0  0  0  0  0  0  0  0  0  0
   55.7620   31.2130   52.3630 C   0  0  0  0  0  0  0  0  0  0  0  0
   56.9200   32.0800   52.0690 C   0  0  0  0  0  0  0  0  0  0  0  0
   56.8710   33.3150   52.3140 O   0  0  0  0  0  0  0  0  0  0  0  0
   58.0730   31.5340   51.4160 N   0  0  0  0  0  0  0  0  0  0  0  0
   58.4320   32.0170   50.0790 C   0  0  0  0  0  0  0  0  0  0  0  0
   57.5305   32.0275   49.4488 H   0  0  0  0  0  0  0  0  0  0  0  0
   58.8519   33.0288   50.1789 H   0  0  0  0  0  0  0  0  0  0  0  0
   59.4890   31.1200   49.4220 C   0  0  0  0  0  0  0  0  0  0  0  0
   59.4593   31.2636   48.3318 H   0  0  0  0  0  0  0  0  0  0  0  0
   60.4808   31.3924   49.8121 H   0  0  0  0  0  0  0  0  0  0  0  0
   59.2260   29.7070   49.7320 N   0  0  0  0  0  0  0  0  0  0  0  0
   59.3750   28.7050   48.7150 C   0  0  0  0  0  0  0  0  0  0  0  0
   60.1880   27.7590   48.8950 O   0  0  0  0  0  0  0  0  0  0  0  0
   58.5640   28.7480   47.4760 C   0  0  0  0  0  0  0  0  0  0  0  0
   57.8340   27.6220   47.0580 C   0  0  0  0  0  0  0  0  0  0  0  0
   57.8777   26.6921   47.6440 H   0  0  0  0  0  0  0  0  0  0  0  0
   57.0740   27.6780   45.9320 N   0  0  0  0  0  0  0  0  0  0  0  0
   56.9870   28.8070   45.1820 C   0  0  0  0  0  0  0  0  0  0  0  0
   56.3656   28.8175   44.2744 H   0  0  0  0  0  0  0  0  0  0  0  0
   57.6850   29.9530   45.5620 C   0  0  0  0  0  0  0  0  0  0  0  0
   57.6154   30.8711   44.9602 H   0  0  0  0  0  0  0  0  0  0  0  0
   58.4730   29.9230   46.7140 C   0  0  0  0  0  0  0  0  0  0  0  0
   59.0240   30.8227   47.0253 H   0  0  0  0  0  0  0  0  0  0  0  0
   59.0030   29.2770   51.1190 C   0  0  0  0  0  0  0  0  0  0  0  0
   58.0858   28.6713   51.1618 H   0  0  0  0  0  0  0  0  0  0  0  0
   59.8762   28.6913   51.4421 H   0  0  0  0  0  0  0  0  0  0  0  0
   58.8530   30.4730   52.0630 C   0  0  0  0  0  0  0  0  0  0  0  0
   58.3373   30.1502   52.9795 H   0  0  0  0  0  0  0  0  0  0  0  0
   59.8515   30.8619   52.3113 H   0  0  0  0  0  0  0  0  0  0  0  0
   55.6960   30.2640   53.3270 N   0  0  0  0  0  0  0  0  0  0  0  0
   56.7790   29.8680   54.2350 C   0  0  0  0  0  0  0  0  0  0  0  0
   56.4470   29.9894   55.2766 H   0  0  0  0  0  0  0  0  0  0  0  0
   57.0424   28.8154   54.0544 H   0  0  0  0  0  0  0  0  0  0  0  0
   57.6593   30.5024   54.0544 H   0  0  0  0  0  0  0  0  0  0  0  0
  1  2  1  0
  2  3  1  0
  2  4  2  0
  4  5  1  0
  5  6  2  0
  6  7  1  0
  6  8  1  0
  8  9  1  0
  9 10  1  0
 10 11  2  0
 10 12  1  0
 12 13  1  0
 13 14  1  0
  5 15  1  0
 15 16  1  0
 15 17  2  0
 17 18  1  0
 18 19  2  0
 18 20  1  0
 20 21  1  0
 21 22  1  0
 21 23  1  0
 21 24  1  0
 24 25  1  0
 24 26  1  0
 24 27  1  0
 27 28  1  0
 28 29  2  0
 28 30  1  0
 30 31  2  0
 31 32  1  0
 31 33  1  0
 33 34  2  0
 34 35  1  0
 34 36  1  0
 36 37  1  0
 36 38  2  0
 38 39  1  0
 27 40  1  0
 40 41  1  0
 40 42  1  0
 40 43  1  0
 43 44  1  0
 43 45  1  0
 17 46  1  0
 46 47  1  0
 47 48  1  0
 47 49  1  0
 47 50  1  0
 46  4  1  0
 13  8  2  0
 43 20  1  0
 38 30  1  0
M  CHG  3   9  -1  12  -1  14  -1
M  END
>  <UniqueID>  (41) 
40

>  <SMILES>  (41) 
C=c1/c(=C/c2[n-]c(=O)[n-]c2[O-])cc(C(=O)N2CCN(C(=O)c3cccnc3)CC2)n1C

>  <Energy>  (41) 
129.17911711906441

>  <Genealogy>  (41) 
C=c1c(=Cc2[n-]c(=O)[n-]c2[O-])cc(C(=O)N2CCN(C(=O)c3cccnc3)CC2)n1C (protonated)
C=c1/c(=C/c2[n-]c(=O)[n-]c2[O-])cc(C(=O)N2CCN(C(=O)c3cccnc3)CC2)n1C (cis-trans isomerization)
C=c1/c(=C/c2[n-]c(=O)[n-]c2[O-])cc(C(=O)N2CCN(C(=O)c3cccnc3)CC2)n1C (3D coordinates assigned)
C=c1/c(=C/c2[n-]c(=O)[n-]c2[O-])cc(C(=O)N2CCN(C(=O)c3cccnc3)CC2)n1C (nonaromatic ring conformer: 129.17911711906441 kcal/mol)

>  <smiles>  (41) 
C=c1c(=Cc2[nH]c(=O)[nH]c2O)cc(C(=O)N2CCN(C(=O)c3cccnc3)CC2)n1C

>  <score_type>  (41) 
oracle

>  <origin>  (41) 
adg

>  <m_score__min__energy>  (41) 
-18.43

>  <m_primary>  (41) 
energy

$$$$
41:0
     RDKit          3D

 70 73  0  0  1  0  0  0  0  0999 V2000
   57.2400   32.3790   40.4720 C   0  0  0  0  0  0  0  0  0  0  0  0
   57.4500   32.1250   41.6330 C   0  0  0  0  0  0  0  0  0  0  0  0
   57.7200   31.8360   42.9970 C   0  0  0  0  0  0  0  0  0  0  0  0
   57.5740   30.5380   43.4300 C   0  0  0  0  0  0  0  0  0  0  0  0
   57.8310   30.2300   44.7460 C   0  0  0  0  0  0  0  0  0  0  0  0
   58.2330   31.2340   45.6210 C   0  0  0  0  0  0  0  0  0  0  0  0
   58.3900   32.5450   45.2200 C   0  0  0  0  0  0  0  0  0  0  0  0
   58.8030   33.5780   46.1340 N   0  0  0  0  0  0  0  0  0  0  0  0
   57.8110   33.8970   47.1360 C   0  0  0  0  0  0  0  0  0  0  0  0
   58.1360   33.1020   48.3820 C   0  0  0  0  0  0  0  0  0  0  0  0
   59.3410   32.2510   48.2290 C   0  0  0  0  0  0  0  0  0  0  0  0
   59.1510   31.0150   48.7650 N   0  0  0  0  0  0  0  0  0  0  0  0
   61.5700   31.4890   47.6390 C   0  0  0  0  0  0  0  0  0  0  0  0
   62.6970   31.7240   47.1090 N   0  0  0  0  0  0  0  0  0  0  0  0
   60.1140   27.7200   48.5370 C   0  0  0  0  0  0  0  0  0  0  0  0
   59.7430   28.0960   47.0970 C   0  0  0  0  0  0  0  0  0  0  0  0
   58.7340   27.1770   46.5150 C   0  0  0  0  0  0  0  0  0  0  0  0
   59.2380   26.0190   45.9110 C   0  0  0  0  0  0  0  0  0  0  0  0
   58.3940   25.0920   45.3380 C   0  0  0  0  0  0  0  0  0  0  0  0
   57.0390   25.3610   45.3890 C   0  0  0  0  0  0  0  0  0  0  0  0
   56.5290   26.4890   45.9760 C   0  0  0  0  0  0  0  0  0  0  0  0
   55.1510   26.6920   45.9890 O   0  0  0  0  0  0  0  0  0  0  0  0
   57.3720   27.4320   46.5590 C   0  0  0  0  0  0  0  0  0  0  0  0
   61.3100   30.2890   48.1900 N   0  0  0  0  0  0  0  0  0  0  0  0
   60.1060   30.0690   48.7440 C   0  0  0  0  0  0  0  0  0  0  0  0
   59.7960   28.9310   49.2910 N   0  0  0  0  0  0  0  0  0  0  0  0
   63.7300   32.4250   47.8250 C   0  0  0  0  0  0  0  0  0  0  0  0
   63.4900   32.3380   49.3180 C   0  0  0  0  0  0  0  0  0  0  0  0
   63.2470   33.7120   49.8880 C   0  0  0  0  0  0  0  0  0  0  0  0
   64.2320   33.9000   51.0420 C   0  0  0  0  0  0  0  0  0  0  0  0
   61.8270   33.8540   50.4120 C   0  0  0  0  0  0  0  0  0  0  0  0
   60.5770   32.4740   47.6600 C   0  0  0  0  0  0  0  0  0  0  0  0
   61.0900   33.6830   47.0070 C   0  0  0  0  0  0  0  0  0  0  0  0
   60.1150   34.1380   45.9340 C   0  0  0  0  0  0  0  0  0  0  0  0
   58.1280   32.8270   43.8990 C   0  0  0  0  0  0  0  0  0  0  0  0
   57.0486   32.6105   39.4138 H   0  0  0  0  0  0  0  0  0  0  0  0
   57.2543   29.7527   42.7293 H   0  0  0  0  0  0  0  0  0  0  0  0
   57.7193   29.1960   45.1042 H   0  0  0  0  0  0  0  0  0  0  0  0
   58.4330   30.9733   46.6708 H   0  0  0  0  0  0  0  0  0  0  0  0
   57.8400   34.9733   47.3612 H   0  0  0  0  0  0  0  0  0  0  0  0
   56.8040   33.6446   46.7722 H   0  0  0  0  0  0  0  0  0  0  0  0
   58.3059   33.8043   49.2114 H   0  0  0  0  0  0  0  0  0  0  0  0
   57.2842   32.4339   48.5773 H   0  0  0  0  0  0  0  0  0  0  0  0
   58.2140   30.8380   49.1990 H   0  0  0  0  0  0  0  0  0  0  0  0
   61.1832   27.4746   48.6176 H   0  0  0  0  0  0  0  0  0  0  0  0
   59.5785   26.8313   48.9024 H   0  0  0  0  0  0  0  0  0  0  0  0
   59.3348   29.1175   47.0925 H   0  0  0  0  0  0  0  0  0  0  0  0
   60.6547   28.0238   46.4858 H   0  0  0  0  0  0  0  0  0  0  0  0
   60.3242   25.8462   45.8934 H   0  0  0  0  0  0  0  0  0  0  0  0
   58.7812   24.1793   44.8616 H   0  0  0  0  0  0  0  0  0  0  0  0
   56.3411   24.6393   44.9395 H   0  0  0  0  0  0  0  0  0  0  0  0
   54.5720   26.3760   46.7590 H   0  0  0  0  0  0  0  0  0  0  0  0
   56.9740   28.3407   47.0343 H   0  0  0  0  0  0  0  0  0  0  0  0
   62.0040   29.5090   48.2100 H   0  0  0  0  0  0  0  0  0  0  0  0
   64.7051   31.9745   47.5878 H   0  0  0  0  0  0  0  0  0  0  0  0
   63.7187   33.4826   47.5229 H   0  0  0  0  0  0  0  0  0  0  0  0
   62.6106   31.7052   49.5082 H   0  0  0  0  0  0  0  0  0  0  0  0
   64.3780   31.9022   49.7991 H   0  0  0  0  0  0  0  0  0  0  0  0
   63.3870   34.4691   49.1024 H   0  0  0  0  0  0  0  0  0  0  0  0
   63.6993   33.7983   51.9990 H   0  0  0  0  0  0  0  0  0  0  0  0
   65.0211   33.1363   50.9786 H   0  0  0  0  0  0  0  0  0  0  0  0
   64.6843   34.9007   50.9786 H   0  0  0  0  0  0  0  0  0  0  0  0
   61.8402   33.8527   51.5119 H   0  0  0  0  0  0  0  0  0  0  0  0
   61.3960   34.7997   50.0516 H   0  0  0  0  0  0  0  0  0  0  0  0
   61.2173   33.0123   50.0516 H   0  0  0  0  0  0  0  0  0  0  0  0
   61.2086   34.4805   47.7553 H   0  0  0  0  0  0  0  0  0  0  0  0
   62.0636   33.4625   46.5449 H   0  0  0  0  0  0  0  0  0  0  0  0
   60.0421   35.2353   45.9607 H   0  0  0  0  0  0  0  0  0  0  0  0
   60.4909   33.7914   44.9600 H   0  0  0  0  0  0  0  0  0  0  0  0
   58.2423   33.8608   43.5408 H   0  0  0  0  0  0  0  0  0  0  0  0
  1  2  3  0
  2  3  1  0
  3  4  2  0
  4  5  1  0
  5  6  2  0
  6  7  1  0
  7  8  1  0
  8  9  1  0
  9 10  1  0
 10 11  1  0
 11 12  1  0
 12 13  1  0
 13 14  2  0
 14 15  1  0
 15 16  1  0
 16 17  1  0
 17 18  2  0
 18 19  1  0
 19 20  2  0
 20 21  1  0
 21 22  1  0
 21 23  2  0
 13 24  1  0
 24 25  1  0
 25 26  2  0
 26 27  1  0
 27 28  1  0
 28 29  1  0
 29 30  1  0
 29 31  1  0
 25 32  1  0
 32 33  1  0
 33 34  1  0
  7 35  2  0
 35  3  1  0
 34  8  1  0
 32 11  2  0
 23 17  1  0
  1 36  1  0
  4 37  1  0
  5 38  1  0
  6 39  1  0
  9 40  1  0
  9 41  1  0
 10 42  1  0
 10 43  1  0
 12 44  1  0
 15 45  1  0
 15 46  1  0
 16 47  1  0
 16 48  1  0
 18 49  1  0
 19 50  1  0
 20 51  1  0
 22 52  1  0
 23 53  1  0
 24 54  1  0
 27 55  1  0
 27 56  1  0
 28 57  1  0
 28 58  1  0
 29 59  1  0
 30 60  1  0
 30 61  1  0
 30 62  1  0
 31 63  1  0
 31 64  1  0
 31 65  1  0
 33 66  1  0
 33 67  1  0
 34 68  1  0
 34 69  1  0
 35 70  1  0
M  END
>  <smiles>  (42) 
C#Cc1cccc(N2CCc3[nH]c(=NCCc4cccc(O)c4)[nH]c(=NCCC(C)C)c3CC2)c1

>  <score_type>  (42) 
oracle

>  <origin>  (42) 
adg

>  <m_score__min__energy>  (42) 
-8.9000000000000004

>  <m_primary>  (42) 
energy

$$$$
42:0
     RDKit          3D

 50 53  0  0  0  0  0  0  0  0999 V2000
   55.1550   30.1400   45.6330 H   0  0  0  0  0  0  0  0  0  0  0  0
   55.4820   29.3830   45.0440 O   0  0  0  0  0  0  0  0  0  0  0  0
   56.3130   28.3840   45.5460 C   0  0  0  0  0  0  0  0  0  0  0  0
   55.9350   27.1020   45.6750 N   0  0  0  0  0  0  0  0  0  0  0  0
   57.0330   26.5190   46.2020 C   0  0  0  0  0  0  0  0  0  0  0  0
   57.0810   25.2930   46.4810 O   0  0  0  0  0  0  0  0  0  0  0  0
   58.0720   27.3550   46.4150 N   0  0  0  0  0  0  0  0  0  0  0  0
   57.6130   28.5400   45.9710 C   0  0  0  0  0  0  0  0  0  0  0  0
   58.3300   29.8170   46.1120 C   0  0  0  0  0  0  0  0  0  0  0  0
   59.1085   29.8725   46.8872 H   0  0  0  0  0  0  0  0  0  0  0  0
   58.1160   30.9270   45.3730 C   0  0  0  0  0  0  0  0  0  0  0  0
   58.2610   32.2320   45.8490 C   0  0  0  0  0  0  0  0  0  0  0  0
   58.6030   32.6590   47.2240 C   0  0  0  0  0  0  0  0  0  0  0  0
   58.0980   32.0310   48.1960 O   0  0  0  0  0  0  0  0  0  0  0  0
   59.5070   33.7540   47.4700 N   0  0  0  0  0  0  0  0  0  0  0  0
   59.6350   34.3360   48.7970 C   0  0  0  0  0  0  0  0  0  0  0  0
   59.7977   35.4199   48.7044 H   0  0  0  0  0  0  0  0  0  0  0  0
   58.7130   34.1423   49.3648 H   0  0  0  0  0  0  0  0  0  0  0  0
   60.8210   33.7070   49.5380 C   0  0  0  0  0  0  0  0  0  0  0  0
   61.2027   34.4465   50.2573 H   0  0  0  0  0  0  0  0  0  0  0  0
   60.4334   32.7917   50.0092 H   0  0  0  0  0  0  0  0  0  0  0  0
   61.9560   33.2760   48.6760 N   0  0  0  0  0  0  0  0  0  0  0  0
   63.1460   32.7110   49.3120 C   0  0  0  0  0  0  0  0  0  0  0  0
   63.0680   31.5550   50.1270 C   0  0  0  0  0  0  0  0  0  0  0  0
   62.0945   31.0669   50.2820 H   0  0  0  0  0  0  0  0  0  0  0  0
   64.2090   31.0240   50.7380 C   0  0  0  0  0  0  0  0  0  0  0  0
   64.1246   30.1281   51.3707 H   0  0  0  0  0  0  0  0  0  0  0  0
   65.4500   31.6240   50.5490 C   0  0  0  0  0  0  0  0  0  0  0  0
   66.3436   31.2053   51.0351 H   0  0  0  0  0  0  0  0  0  0  0  0
   65.5600   32.7550   49.7440 C   0  0  0  0  0  0  0  0  0  0  0  0
   66.5422   33.2263   49.5917 H   0  0  0  0  0  0  0  0  0  0  0  0
   64.4260   33.2930   49.1290 C   0  0  0  0  0  0  0  0  0  0  0  0
   64.5283   34.1837   48.4917 H   0  0  0  0  0  0  0  0  0  0  0  0
   61.8620   33.2350   47.1950 C   0  0  0  0  0  0  0  0  0  0  0  0
   62.7784   33.6798   46.7799 H   0  0  0  0  0  0  0  0  0  0  0  0
   61.7341   32.1781   46.9182 H   0  0  0  0  0  0  0  0  0  0  0  0
   60.6640   33.9840   46.6170 C   0  0  0  0  0  0  0  0  0  0  0  0
   60.8856   35.0607   46.5780 H   0  0  0  0  0  0  0  0  0  0  0  0
   60.4543   33.6224   45.5995 H   0  0  0  0  0  0  0  0  0  0  0  0
   58.0650   33.0780   44.7690 C   0  0  0  0  0  0  0  0  0  0  0  0
   58.1730   34.5710   44.7800 C   0  0  0  0  0  0  0  0  0  0  0  0
   58.1989   34.9291   45.8198 H   0  0  0  0  0  0  0  0  0  0  0  0
   59.0955   34.8757   44.2642 H   0  0  0  0  0  0  0  0  0  0  0  0
   57.3039   35.0053   44.2642 H   0  0  0  0  0  0  0  0  0  0  0  0
   57.7860   32.3650   43.6650 N   0  0  0  0  0  0  0  0  0  0  0  0
   57.5640   32.7590   42.7220 H   0  0  0  0  0  0  0  0  0  0  0  0
   57.7730   31.0610   44.0160 C   0  0  0  0  0  0  0  0  0  0  0  0
   57.3530   30.1130   43.1710 C   0  0  0  0  0  0  0  0  0  0  0  0
   57.3532   29.0583   43.4835 H   0  0  0  0  0  0  0  0  0  0  0  0
   57.0074   30.3881   42.1636 H   0  0  0  0  0  0  0  0  0  0  0  0
  1  2  1  0
  2  3  1  0
  3  4  1  0
  4  5  1  0
  5  6  2  0
  5  7  1  0
  7  8  1  0
  8  9  1  0
  9 10  1  0
  9 11  2  0
 11 12  1  0
 12 13  1  0
 13 14  2  0
 13 15  1  0
 15 16  1  0
 16 17  1  0
 16 18  1  0
 16 19  1  0
 19 20  1  0
 19 21  1  0
 19 22  1  0
 22 23  1  0
 23 24  2  0
 24 25  1  0
 24 26  1  0
 26 27  1  0
 26 28  2  0
 28 29  1  0
 28 30  1  0
 30 31  1  0
 30 32  2  0
 32 33  1  0
 22 34  1  0
 34 35  1  0
 34 36  1  0
 34 37  1  0
 37 38  1  0
 37 39  1  0
 12 40  2  0
 40 41  1  0
 41 42  1  0
 41 43  1  0
 41 44  1  0
 40 45  1  0
 45 46  1  0
 45 47  1  0
 47 48  2  0
 48 49  1  0
 48 50  1  0
  8  3  2  0
 47 11  1  0
 37 15  1  0
 32 23  1  0
M  CHG  2   4  -1   7  -1
M  END
>  <UniqueID>  (43) 
41

>  <SMILES>  (43) 
C=c1[nH]c(C)c(C(=O)N2CCN(c3ccccc3)CC2)/c1=C/c1[n-]c(=O)[n-]c1O

>  <Energy>  (43) 
134.16988709714252

>  <Genealogy>  (43) 
C=c1[nH]c(C)c(C(=O)N2CCN(c3ccccc3)CC2)c1=Cc1[n-]c(=O)[n-]c1O (protonated)
C=c1[nH]c(C)c(C(=O)N2CCN(c3ccccc3)CC2)/c1=C/c1[n-]c(=O)[n-]c1O (cis-trans isomerization)
C=c1[nH]c(C)c(C(=O)N2CCN(c3ccccc3)CC2)/c1=C/c1[n-]c(=O)[n-]c1O (3D coordinates assigned)
C=c1[nH]c(C)c(C(=O)N2CCN(c3ccccc3)CC2)/c1=C/c1[n-]c(=O)[n-]c1O (nonaromatic ring conformer: 134.16988709714252 kcal/mol)

>  <smiles>  (43) 
C=c1[nH]c(C)c(C(=O)N2CCN(c3ccccc3)CC2)c1=Cc1[nH]c(=O)[nH]c1O

>  <score_type>  (43) 
oracle

>  <origin>  (43) 
adg

>  <m_score__min__energy>  (43) 
-12.949999999999999

>  <m_primary>  (43) 
energy

$$$$
43:0
     RDKit          3D

 39 40  0  0  0  0  0  0  0  0999 V2000
   59.6520   35.7680   46.2850 C   0  0  0  0  0  0  0  0  0  0  0  0
   58.9930   34.4860   45.8710 C   0  0  0  0  0  0  0  0  0  0  0  0
   59.4220   33.2650   46.4100 C   0  0  0  0  0  0  0  0  0  0  0  0
   58.8290   32.0680   46.0010 C   0  0  0  0  0  0  0  0  0  0  0  0
   57.8100   32.0670   45.0320 C   0  0  0  0  0  0  0  0  0  0  0  0
   57.1900   30.7890   44.6100 C   0  0  0  0  0  0  0  0  0  0  0  0
   55.9350   30.7200   44.4920 O   0  0  0  0  0  0  0  0  0  0  0  0
   57.9890   29.6240   44.3530 N   0  0  0  0  0  0  0  0  0  0  0  0
   57.3980   28.3980   43.8190 C   0  0  0  0  0  0  0  0  0  0  0  0
   58.3360   27.2470   44.0000 C   0  0  0  0  0  0  0  0  0  0  0  0
   59.5240   27.4560   44.3650 O   0  0  0  0  0  0  0  0  0  0  0  0
   57.8590   25.9460   43.8190 O   0  0  0  0  0  0  0  0  0  0  0  0
   57.6610   25.0290   44.8910 C   0  0  0  0  0  0  0  0  0  0  0  0
   56.2290   24.5300   44.9030 C   0  0  0  0  0  0  0  0  0  0  0  0
   55.8450   23.3770   44.1780 C   0  0  0  0  0  0  0  0  0  0  0  0
   56.8250   22.5800   43.3660 C   0  0  0  0  0  0  0  0  0  0  0  0
   54.5450   22.9790   44.1930 N   0  0  0  0  0  0  0  0  0  0  0  0
   53.6030   23.6570   44.8950 C   0  0  0  0  0  0  0  0  0  0  0  0
   52.4100   23.2590   44.8920 O   0  0  0  0  0  0  0  0  0  0  0  0
   53.9470   24.7620   45.6010 N   0  0  0  0  0  0  0  0  0  0  0  0
   55.2280   25.2140   45.6200 C   0  0  0  0  0  0  0  0  0  0  0  0
   55.5000   26.2470   46.2870 O   0  0  0  0  0  0  0  0  0  0  0  0
   57.3870   33.2950   44.4910 C   0  0  0  0  0  0  0  0  0  0  0  0
   57.9820   34.4920   44.9000 C   0  0  0  0  0  0  0  0  0  0  0  0
   59.6822   35.8268   47.3830 H   0  0  0  0  0  0  0  0  0  0  0  0
   60.6773   35.7981   45.8878 H   0  0  0  0  0  0  0  0  0  0  0  0
   59.0798   36.6194   45.8878 H   0  0  0  0  0  0  0  0  0  0  0  0
   60.2286   33.2494   47.1578 H   0  0  0  0  0  0  0  0  0  0  0  0
   59.1625   31.1168   46.4414 H   0  0  0  0  0  0  0  0  0  0  0  0
   59.0000   29.6300   44.6190 H   0  0  0  0  0  0  0  0  0  0  0  0
   56.4582   28.1871   44.3503 H   0  0  0  0  0  0  0  0  0  0  0  0
   57.2019   28.5339   42.7452 H   0  0  0  0  0  0  0  0  0  0  0  0
   58.3417   24.1739   44.7667 H   0  0  0  0  0  0  0  0  0  0  0  0
   57.8678   25.5420   45.8418 H   0  0  0  0  0  0  0  0  0  0  0  0
   57.4994   22.0316   44.0401 H   0  0  0  0  0  0  0  0  0  0  0  0
   56.2801   21.8655   42.7315 H   0  0  0  0  0  0  0  0  0  0  0  0
   57.4134   23.2591   42.7315 H   0  0  0  0  0  0  0  0  0  0  0  0
   56.5825   33.3133   43.7410 H   0  0  0  0  0  0  0  0  0  0  0  0
   57.6549   35.4443   44.4572 H   0  0  0  0  0  0  0  0  0  0  0  0
  1  2  1  0
  2  3  2  0
  3  4  1  0
  4  5  2  0
  5  6  1  0
  6  7  2  0
  6  8  1  0
  8  9  1  0
  9 10  1  0
 10 11  2  0
 10 12  1  0
 12 13  1  0
 13 14  1  0
 14 15  2  0
 15 16  1  0
 15 17  1  0
 17 18  1  0
 18 19  2  0
 18 20  1  0
 20 21  1  0
 21 22  2  0
  5 23  1  0
 23 24  2  0
 24  2  1  0
 21 14  1  0
  1 25  1  0
  1 26  1  0
  1 27  1  0
  3 28  1  0
  4 29  1  0
  8 30  1  0
  9 31  1  0
  9 32  1  0
 13 33  1  0
 13 34  1  0
 16 35  1  0
 16 36  1  0
 16 37  1  0
 23 38  1  0
 24 39  1  0
M  CHG  2  17  -1  20  -1
M  END
>  <UniqueID>  (44) 
42

>  <SMILES>  (44) 
Cc1ccc(C(=O)NCC(=O)OCc2c(C)[n-]c(=O)[n-]c2=O)cc1

>  <Energy>  (44) 
38.22226432733655

>  <Genealogy>  (44) 
Cc1ccc(C(=O)NCC(=O)OCc2c(C)[n-]c(=O)[n-]c2=O)cc1 (protonated)
Cc1ccc(C(=O)NCC(=O)OCc2c(C)[n-]c(=O)[n-]c2=O)cc1 (3D coordinates assigned)
Cc1ccc(C(=O)NCC(=O)OCc2c(C)[n-]c(=O)[n-]c2=O)cc1 (optimized conformer: 38.22226432733655 kcal/mol)

>  <smiles>  (44) 
Cc1ccc(C(=O)NCC(=O)OCc2c(C)[nH]c(=O)[nH]c2=O)cc1

>  <score_type>  (44) 
oracle

>  <origin>  (44) 
adg

>  <m_score__min__energy>  (44) 
-12.029999999999999

>  <m_primary>  (44) 
energy

$$$$
44:0
     RDKit          3D

 40 42  0  0  0  0  0  0  0  0999 V2000
   58.8390   30.4170   48.5880 H   0  0  0  0  0  0  0  0  0  0  0  0
   59.0050   31.3810   48.3470 O   0  0  0  0  0  0  0  0  0  0  0  0
   58.5530   32.0180   47.1870 C   0  0  0  0  0  0  0  0  0  0  0  0
   57.7630   31.2960   46.3530 N   0  0  0  0  0  0  0  0  0  0  0  0
   57.2750   31.8300   45.2110 C   0  0  0  0  0  0  0  0  0  0  0  0
   56.5200   31.1020   44.4420 N   0  0  0  0  0  0  0  0  0  0  0  0
   56.7090   29.7230   44.0890 C   0  0  0  0  0  0  0  0  0  0  0  0
   57.0180   29.4410   42.9010 O   0  0  0  0  0  0  0  0  0  0  0  0
   56.6120   28.6850   45.0750 N   0  0  0  0  0  0  0  0  0  0  0  0
   57.6980   28.0330   45.7540 C   0  0  0  0  0  0  0  0  0  0  0  0
   58.9890   28.5930   45.7340 C   0  0  0  0  0  0  0  0  0  0  0  0
   59.1594   29.5503   45.2197 H   0  0  0  0  0  0  0  0  0  0  0  0
   60.0550   27.9460   46.3600 C   0  0  0  0  0  0  0  0  0  0  0  0
   61.0563   28.4014   46.3501 H   0  0  0  0  0  0  0  0  0  0  0  0
   59.8530   26.7250   46.9970 C   0  0  0  0  0  0  0  0  0  0  0  0
   60.6937   26.2197   47.4949 H   0  0  0  0  0  0  0  0  0  0  0  0
   58.5860   26.1410   47.0050 C   0  0  0  0  0  0  0  0  0  0  0  0
   58.4380   25.1718   47.5038 H   0  0  0  0  0  0  0  0  0  0  0  0
   57.4930   26.7770   46.3820 C   0  0  0  0  0  0  0  0  0  0  0  0
   56.1590   26.1160   46.4160 C   0  0  0  0  0  0  0  0  0  0  0  0
   55.1440   26.7120   45.9650 O   0  0  0  0  0  0  0  0  0  0  0  0
   56.0000   24.8350   46.9290 O   0  0  0  0  0  0  0  0  0  0  0  0
   57.5830   33.1110   44.8980 N   0  0  0  0  0  0  0  0  0  0  0  0
   58.3710   33.8550   45.7110 C   0  0  0  0  0  0  0  0  0  0  0  0
   58.6270   35.0450   45.3790 O   0  0  0  0  0  0  0  0  0  0  0  0
   58.8780   33.3200   46.8700 N   0  0  0  0  0  0  0  0  0  0  0  0
   59.7150   34.1690   47.7440 C   0  0  0  0  0  0  0  0  0  0  0  0
   59.6348   35.2154   47.4144 H   0  0  0  0  0  0  0  0  0  0  0  0
   59.3606   34.0658   48.7802 H   0  0  0  0  0  0  0  0  0  0  0  0
   61.1610   33.7400   47.6820 C   0  0  0  0  0  0  0  0  0  0  0  0
   61.8070   33.2410   48.8240 C   0  0  0  0  0  0  0  0  0  0  0  0
   61.2516   33.1445   49.7686 H   0  0  0  0  0  0  0  0  0  0  0  0
   63.1530   32.8660   48.7670 C   0  0  0  0  0  0  0  0  0  0  0  0
   63.6516   32.4720   49.6648 H   0  0  0  0  0  0  0  0  0  0  0  0
   63.8660   32.9910   47.5710 C   0  0  0  0  0  0  0  0  0  0  0  0
   64.9248   32.6958   47.5279 H   0  0  0  0  0  0  0  0  0  0  0  0
   63.2330   33.4910   46.4310 C   0  0  0  0  0  0  0  0  0  0  0  0
   63.7940   33.5895   45.4899 H   0  0  0  0  0  0  0  0  0  0  0  0
   61.8860   33.8670   46.4840 C   0  0  0  0  0  0  0  0  0  0  0  0
   61.3923   34.2636   45.5846 H   0  0  0  0  0  0  0  0  0  0  0  0
  1  2  1  0
  2  3  1  0
  3  4  2  0
  4  5  1  0
  5  6  2  0
  6  7  1  0
  7  8  2  0
  7  9  1  0
  9 10  1  0
 10 11  2  0
 11 12  1  0
 11 13  1  0
 13 14  1  0
 13 15  2  0
 15 16  1  0
 15 17  1  0
 17 18  1  0
 17 19  2  0
 19 20  1  0
 20 21  2  0
 20 22  1  0
  5 23  1  0
 23 24  1  0
 24 25  2  0
 24 26  1  0
 26 27  1  0
 27 28  1  0
 27 29  1  0
 27 30  1  0
 30 31  2  0
 31 32  1  0
 31 33  1  0
 33 34  1  0
 33 35  2  0
 35 36  1  0
 35 37  1  0
 37 38  1  0
 37 39  2  0
 39 40  1  0
 26  3  1  0
 39 30  1  0
 19 10  1  0
M  CHG  3   9  -1  22  -1  23  -1
M  END
>  <UniqueID>  (45) 
43

>  <SMILES>  (45) 
O=C(/N=c1/nc(O)n(Cc2ccccc2)c(=O)[n-]1)[N-]c1ccccc1C(=O)[O-]

>  <Energy>  (45) 
57.817896052802524

>  <Genealogy>  (45) 
O=C(N=c1nc(O)n(Cc2ccccc2)c(=O)[n-]1)[N-]c1ccccc1C(=O)[O-] (protonated)
O=C(/N=c1/nc(O)n(Cc2ccccc2)c(=O)[n-]1)[N-]c1ccccc1C(=O)[O-] (cis-trans isomerization)
O=C(/N=c1/nc(O)n(Cc2ccccc2)c(=O)[n-]1)[N-]c1ccccc1C(=O)[O-] (3D coordinates assigned)
O=C(/N=c1/nc(O)n(Cc2ccccc2)c(=O)[n-]1)[N-]c1ccccc1C(=O)[O-] (optimized conformer: 57.817896052802524 kcal/mol)

>  <smiles>  (45) 
O=C(N=c1nc(O)n(Cc2ccccc2)c(=O)[nH]1)Nc1ccccc1C(=O)O

>  <score_type>  (45) 
oracle

>  <origin>  (45) 
adg

>  <m_score__min__energy>  (45) 
-13.960000000000001

>  <m_primary>  (45) 
energy

$$$$
45:0
     RDKit          3D

 42 44  0  0  0  0  0  0  0  0999 V2000
   54.8406   31.0058   43.6345 H   0  0  0  0  0  0  0  0  0  0  0  0
   55.6870   30.4010   43.9920 C   0  0  0  0  0  0  0  0  0  0  0  0
   55.5350   29.3660   44.8600 N   0  0  0  0  0  0  0  0  0  0  0  0
   56.7190   28.7680   45.1300 C   0  0  0  0  0  0  0  0  0  0  0  0
   56.8610   27.7730   45.9530 N   0  0  0  0  0  0  0  0  0  0  0  0
   56.2890   26.4660   45.7920 C   0  0  0  0  0  0  0  0  0  0  0  0
   55.0570   26.3190   46.0010 O   0  0  0  0  0  0  0  0  0  0  0  0
   57.1110   25.2820   45.4440 C   0  0  0  0  0  0  0  0  0  0  0  0
   58.4180   25.1420   45.9430 C   0  0  0  0  0  0  0  0  0  0  0  0
   58.8463   25.9274   46.5831 H   0  0  0  0  0  0  0  0  0  0  0  0
   59.1760   24.0100   45.6300 C   0  0  0  0  0  0  0  0  0  0  0  0
   60.2004   23.9110   46.0182 H   0  0  0  0  0  0  0  0  0  0  0  0
   58.6360   23.0050   44.8260 C   0  0  0  0  0  0  0  0  0  0  0  0
   59.2365   22.1167   44.5805 H   0  0  0  0  0  0  0  0  0  0  0  0
   57.3310   23.1250   44.3310 C   0  0  0  0  0  0  0  0  0  0  0  0
   56.6530   21.8370   43.3400 S   0  0  0  0  0  0  0  0  0  0  0  0
   55.7340   22.3940   42.2890 O   0  0  0  0  0  0  0  0  0  0  0  0
   57.7740   21.1010   42.6630 O   0  0  0  0  0  0  0  0  0  0  0  0
   55.7700   20.7290   44.3400 N   0  0  0  0  0  0  0  0  0  0  0  0
   55.3410   20.9890   45.6840 C   0  0  0  0  0  0  0  0  0  0  0  0
   54.3840   21.9730   45.9890 C   0  0  0  0  0  0  0  0  0  0  0  0
   53.9394   22.5732   45.1815 H   0  0  0  0  0  0  0  0  0  0  0  0
   53.9950   22.1920   47.3140 C   0  0  0  0  0  0  0  0  0  0  0  0
   53.2489   22.9669   47.5440 H   0  0  0  0  0  0  0  0  0  0  0  0
   54.5530   21.4260   48.3560 C   0  0  0  0  0  0  0  0  0  0  0  0
   54.1950   21.6070   49.7000 O   0  0  0  0  0  0  0  0  0  0  0  0
   53.1530   22.4710   50.1450 C   0  0  0  0  0  0  0  0  0  0  0  0
   53.1342   22.4866   51.2447 H   0  0  0  0  0  0  0  0  0  0  0  0
   53.3335   23.4881   49.7669 H   0  0  0  0  0  0  0  0  0  0  0  0
   52.1869   22.1053   49.7669 H   0  0  0  0  0  0  0  0  0  0  0  0
   55.5010   20.4440   48.0450 C   0  0  0  0  0  0  0  0  0  0  0  0
   55.9413   19.8370   48.8498 H   0  0  0  0  0  0  0  0  0  0  0  0
   55.8930   20.2280   46.7210 C   0  0  0  0  0  0  0  0  0  0  0  0
   56.6407   19.4543   46.4922 H   0  0  0  0  0  0  0  0  0  0  0  0
   56.5690   24.2600   44.6450 C   0  0  0  0  0  0  0  0  0  0  0  0
   55.5412   24.3510   44.2638 H   0  0  0  0  0  0  0  0  0  0  0  0
   58.0000   29.4940   44.3230 S   0  0  0  0  0  0  0  0  0  0  0  0
   56.9990   30.6340   43.5920 C   0  0  0  0  0  0  0  0  0  0  0  0
   57.4380   31.6670   42.6080 C   0  0  0  0  0  0  0  0  0  0  0  0
   57.8132   32.5500   43.1461 H   0  0  0  0  0  0  0  0  0  0  0  0
   58.2387   31.2549   41.9764 H   0  0  0  0  0  0  0  0  0  0  0  0
   56.5855   31.9574   41.9764 H   0  0  0  0  0  0  0  0  0  0  0  0
  1  2  1  0
  2  3  1  0
  3  4  1  0
  4  5  2  0
  5  6  1  0
  6  7  2  0
  6  8  1  0
  8  9  2  0
  9 10  1  0
  9 11  1  0
 11 12  1  0
 11 13  2  0
 13 14  1  0
 13 15  1  0
 15 16  1  0
 16 17  2  0
 16 18  2  0
 16 19  1  0
 19 20  1  0
 20 21  2  0
 21 22  1  0
 21 23  1  0
 23 24  1  0
 23 25  2  0
 25 26  1  0
 26 27  1  0
 27 28  1  0
 27 29  1  0
 27 30  1  0
 25 31  1  0
 31 32  1  0
 31 33  2  0
 33 34  1  0
 15 35  2  0
 35 36  1  0
  4 37  1  0
 37 38  1  0
 38 39  1  0
 39 40  1  0
 39 41  1  0
 39 42  1  0
 38  2  2  0
 35  8  1  0
 33 20  1  0
M  CHG  2   3  -1  19  -1
M  END
>  <UniqueID>  (46) 
44

>  <SMILES>  (46) 
COc1ccc([N-]S(=O)(=O)c2cccc(C(=O)/N=c3\[n-]cc(C)s3)c2)cc1

>  <Energy>  (46) 
83.09949107782833

>  <Genealogy>  (46) 
COc1ccc([N-]S(=O)(=O)c2cccc(C(=O)N=c3[n-]cc(C)s3)c2)cc1 (protonated)
COc1ccc([N-]S(=O)(=O)c2cccc(C(=O)/N=c3\[n-]cc(C)s3)c2)cc1 (cis-trans isomerization)
COc1ccc([N-]S(=O)(=O)c2cccc(C(=O)/N=c3\[n-]cc(C)s3)c2)cc1 (3D coordinates assigned)
COc1ccc([N-]S(=O)(=O)c2cccc(C(=O)/N=c3\[n-]cc(C)s3)c2)cc1 (optimized conformer: 83.09949107782833 kcal/mol)

>  <smiles>  (46) 
COc1ccc(NS(=O)(=O)c2cccc(C(=O)N=c3[nH]cc(C)s3)c2)cc1

>  <score_type>  (46) 
oracle

>  <origin>  (46) 
adg

>  <m_score__min__energy>  (46) 
-12.06

>  <m_primary>  (46) 
energy

$$$$
46:0
     RDKit          3D

 51 53  0  0  0  0  0  0  0  0999 V2000
   59.5650   34.7590   45.2650 O   0  0  0  0  0  0  0  0  0  0  0  0
   58.9670   33.7960   45.8130 C   0  0  0  0  0  0  0  0  0  0  0  0
   57.4800   33.6750   45.6750 C   0  0  0  0  0  0  0  0  0  0  0  0
   57.1180   32.3590   45.1530 N   0  0  0  0  0  0  0  0  0  0  0  0
   57.3800   31.9700   43.7970 C   0  0  0  0  0  0  0  0  0  0  0  0
   57.9750   32.7580   43.0120 O   0  0  0  0  0  0  0  0  0  0  0  0
   56.9810   30.6090   43.3140 C   0  0  0  0  0  0  0  0  0  0  0  0
   57.4440   29.5540   44.2860 C   0  0  0  0  0  0  0  0  0  0  0  0
   58.8210   29.3530   44.4860 C   0  0  0  0  0  0  0  0  0  0  0  0
   59.2710   28.3960   45.4000 C   0  0  0  0  0  0  0  0  0  0  0  0
   58.3530   27.6360   46.1260 C   0  0  0  0  0  0  0  0  0  0  0  0
   56.9810   27.8340   45.9440 C   0  0  0  0  0  0  0  0  0  0  0  0
   56.5220   28.7900   45.0310 C   0  0  0  0  0  0  0  0  0  0  0  0
   55.1520   28.9720   44.8710 O   0  0  0  0  0  0  0  0  0  0  0  0
   59.7030   32.7650   46.4850 N   0  0  0  0  0  0  0  0  0  0  0  0
   59.3520   32.1390   47.7270 C   0  0  0  0  0  0  0  0  0  0  0  0
   59.2130   30.7440   47.8470 C   0  0  0  0  0  0  0  0  0  0  0  0
   58.9030   30.1710   49.0840 C   0  0  0  0  0  0  0  0  0  0  0  0
   58.7410   30.9810   50.2180 C   0  0  0  0  0  0  0  0  0  0  0  0
   58.3540   30.2570   51.7800 S   0  0  0  0  0  0  0  0  0  0  0  0
   58.7500   31.2070   52.8750 O   0  0  0  0  0  0  0  0  0  0  0  0
   59.1500   28.9930   51.9510 O   0  0  0  0  0  0  0  0  0  0  0  0
   56.6530   29.8860   51.9230 N   0  0  0  0  0  0  0  0  0  0  0  0
   56.4000   29.0730   53.1210 C   0  0  0  0  0  0  0  0  0  0  0  0
   54.8880   28.8060   53.2760 C   0  0  0  0  0  0  0  0  0  0  0  0
   54.1380   29.4010   52.2340 O   0  0  0  0  0  0  0  0  0  0  0  0
   54.3700   30.7970   52.2150 C   0  0  0  0  0  0  0  0  0  0  0  0
   55.8590   31.1240   51.9780 C   0  0  0  0  0  0  0  0  0  0  0  0
   58.9050   32.3690   50.1040 C   0  0  0  0  0  0  0  0  0  0  0  0
   59.2120   32.9410   48.8670 C   0  0  0  0  0  0  0  0  0  0  0  0
   57.0128   33.8139   46.6611 H   0  0  0  0  0  0  0  0  0  0  0  0
   57.1248   34.4448   44.9742 H   0  0  0  0  0  0  0  0  0  0  0  0
   56.6490   31.6830   45.7960 H   0  0  0  0  0  0  0  0  0  0  0  0
   55.8858   30.5628   43.2224 H   0  0  0  0  0  0  0  0  0  0  0  0
   57.4484   30.4247   42.3354 H   0  0  0  0  0  0  0  0  0  0  0  0
   59.5488   29.9526   43.9197 H   0  0  0  0  0  0  0  0  0  0  0  0
   60.3501   28.2417   45.5472 H   0  0  0  0  0  0  0  0  0  0  0  0
   58.7091   26.8806   46.8420 H   0  0  0  0  0  0  0  0  0  0  0  0
   56.2598   27.2362   46.5206 H   0  0  0  0  0  0  0  0  0  0  0  0
   59.3487   30.1019   46.9643 H   0  0  0  0  0  0  0  0  0  0  0  0
   58.7856   29.0805   49.1685 H   0  0  0  0  0  0  0  0  0  0  0  0
   56.9304   28.1139   53.0276 H   0  0  0  0  0  0  0  0  0  0  0  0
   56.7603   29.6175   54.0063 H   0  0  0  0  0  0  0  0  0  0  0  0
   54.7154   27.7197   53.2629 H   0  0  0  0  0  0  0  0  0  0  0  0
   54.5594   29.2481   54.2282 H   0  0  0  0  0  0  0  0  0  0  0  0
   53.7732   31.2467   51.4078 H   0  0  0  0  0  0  0  0  0  0  0  0
   54.0802   31.2065   53.1940 H   0  0  0  0  0  0  0  0  0  0  0  0
   55.9644   31.6649   51.0260 H   0  0  0  0  0  0  0  0  0  0  0  0
   56.2246   31.7461   52.8083 H   0  0  0  0  0  0  0  0  0  0  0  0
   58.7916   33.0093   50.9912 H   0  0  0  0  0  0  0  0  0  0  0  0
   59.3449   34.0300   48.7875 H   0  0  0  0  0  0  0  0  0  0  0  0
  1  2  2  0
  2  3  1  0
  3  4  1  0
  4  5  1  0
  5  6  2  0
  5  7  1  0
  7  8  1  0
  8  9  2  0
  9 10  1  0
 10 11  2  0
 11 12  1  0
 12 13  2  0
 13 14  1  0
  2 15  1  0
 15 16  1  0
 16 17  2  0
 17 18  1  0
 18 19  2  0
 19 20  1  0
 20 21  2  0
 20 22  2  0
 20 23  1  0
 23 24  1  0
 24 25  1  0
 25 26  1  0
 26 27  1  0
 27 28  1  0
 19 29  1  0
 29 30  2  0
 13  8  1  0
 30 16  1  0
 28 23  1  0
  3 31  1  0
  3 32  1  0
  4 33  1  0
  7 34  1  0
  7 35  1  0
  9 36  1  0
 10 37  1  0
 11 38  1  0
 12 39  1  0
 17 40  1  0
 18 41  1  0
 24 42  1  0
 24 43  1  0
 25 44  1  0
 25 45  1  0
 27 46  1  0
 27 47  1  0
 28 48  1  0
 28 49  1  0
 29 50  1  0
 30 51  1  0
M  CHG  2  14  -1  15  -1
M  END
>  <UniqueID>  (47) 
45

>  <SMILES>  (47) 
O=C(CNC(=O)Cc1ccccc1[O-])[N-]c1ccc(S(=O)(=O)N2CCOCC2)cc1

>  <Energy>  (47) 
58.23022037701478

>  <Genealogy>  (47) 
O=C(CNC(=O)Cc1ccccc1[O-])[N-]c1ccc(S(=O)(=O)N2CCOCC2)cc1 (protonated)
O=C(CNC(=O)Cc1ccccc1[O-])[N-]c1ccc(S(=O)(=O)N2CCOCC2)cc1 (3D coordinates assigned)
O=C(CNC(=O)Cc1ccccc1[O-])[N-]c1ccc(S(=O)(=O)N2CCOCC2)cc1 (nonaromatic ring conformer: 58.23022037701478 kcal/mol)

>  <smiles>  (47) 
O=C(Cc1ccccc1O)NCC(=O)Nc1ccc(S(=O)(=O)N2CCOCC2)cc1

>  <score_type>  (47) 
oracle

>  <origin>  (47) 
adg

>  <m_score__min__energy>  (47) 
-14.710000000000001

>  <m_primary>  (47) 
energy

$$$$
47:0
     RDKit          3D

 94101  0  0  0  0  0  0  0  0999 V2000
   61.8920   22.8270   53.3460 C   0  0  0  0  0  0  0  0  0  0  0  0
   61.8310   24.2670   53.0710 N   0  0  0  0  0  0  0  0  0  0  0  0
   63.0090   24.6870   52.2770 C   0  0  0  0  0  0  0  0  0  0  0  0
   62.8360   26.0780   51.6280 C   0  0  0  0  0  0  0  0  0  0  0  0
   61.6780   26.8020   52.1690 N   0  0  0  0  0  0  0  0  0  0  0  0
   61.6980   28.2380   52.2090 C   0  0  0  0  0  0  0  0  0  0  0  0
   61.9990   28.8980   53.4070 C   0  0  0  0  0  0  0  0  0  0  0  0
   61.9980   30.2930   53.4610 C   0  0  0  0  0  0  0  0  0  0  0  0
   61.6880   31.0370   52.3170 C   0  0  0  0  0  0  0  0  0  0  0  0
   61.3620   30.3920   51.1200 C   0  0  0  0  0  0  0  0  0  0  0  0
   60.9800   31.1860   49.9930 N   0  0  0  0  0  0  0  0  0  0  0  0
   59.6510   31.2660   49.4690 C   0  0  0  0  0  0  0  0  0  0  0  0
   58.8630   32.1420   49.9160 O   0  0  0  0  0  0  0  0  0  0  0  0
   59.1980   30.3050   48.4430 C   0  0  0  0  0  0  0  0  0  0  0  0
   59.0100   28.9680   48.8200 C   0  0  0  0  0  0  0  0  0  0  0  0
   58.6420   28.0090   47.8850 C   0  0  0  0  0  0  0  0  0  0  0  0
   58.4340   28.3660   46.5450 C   0  0  0  0  0  0  0  0  0  0  0  0
   58.0670   27.3880   45.6070 C   0  0  0  0  0  0  0  0  0  0  0  0
   57.8270   27.7430   44.2750 C   0  0  0  0  0  0  0  0  0  0  0  0
   57.9400   29.0740   43.8750 C   0  0  0  0  0  0  0  0  0  0  0  0
   58.3100   30.0580   44.7910 C   0  0  0  0  0  0  0  0  0  0  0  0
   58.5740   29.7200   46.1430 C   0  0  0  0  0  0  0  0  0  0  0  0
   58.9580   30.6980   47.1010 C   0  0  0  0  0  0  0  0  0  0  0  0
   59.0330   32.1320   46.7190 C   0  0  0  0  0  0  0  0  0  0  0  0
   57.8300   32.8340   46.5210 C   0  0  0  0  0  0  0  0  0  0  0  0
   57.8530   34.1900   46.1970 C   0  0  0  0  0  0  0  0  0  0  0  0
   59.0700   34.8590   46.0630 C   0  0  0  0  0  0  0  0  0  0  0  0
   60.2720   34.1760   46.2490 C   0  0  0  0  0  0  0  0  0  0  0  0
   60.2770   32.8040   46.5700 C   0  0  0  0  0  0  0  0  0  0  0  0
   61.5730   32.1110   46.7910 C   0  0  0  0  0  0  0  0  0  0  0  0
   61.6250   30.8540   46.7300 O   0  0  0  0  0  0  0  0  0  0  0  0
   62.7670   32.8200   47.1580 N   0  0  0  0  0  0  0  0  0  0  0  0
   63.2070   33.1490   48.4800 C   0  0  0  0  0  0  0  0  0  0  0  0
   62.4170   33.9050   49.3620 C   0  0  0  0  0  0  0  0  0  0  0  0
   62.8690   34.1920   50.6530 C   0  0  0  0  0  0  0  0  0  0  0  0
   64.1160   33.7290   51.0740 C   0  0  0  0  0  0  0  0  0  0  0  0
   64.9190   32.9880   50.1940 C   0  0  0  0  0  0  0  0  0  0  0  0
   66.1830   32.4050   50.6600 C   0  0  0  0  0  0  0  0  0  0  0  0
   67.2410   33.0870   50.5680 O   0  0  0  0  0  0  0  0  0  0  0  0
   66.2210   31.0580   51.1760 N   0  0  0  0  0  0  0  0  0  0  0  0
   65.0070   30.4760   51.7640 C   0  0  0  0  0  0  0  0  0  0  0  0
   65.2660   29.0580   52.2700 C   0  0  0  0  0  0  0  0  0  0  0  0
   66.0070   28.3310   51.2350 N   0  0  0  0  0  0  0  0  0  0  0  0
   66.0160   26.8950   51.5500 C   0  0  0  0  0  0  0  0  0  0  0  0
   66.7590   26.0660   50.5190 C   0  0  0  0  0  0  0  0  0  0  0  0
   67.3930   26.3490   51.8700 C   0  0  0  0  0  0  0  0  0  0  0  0
   67.3930   28.8400   51.1200 C   0  0  0  0  0  0  0  0  0  0  0  0
   67.5130   30.3700   51.3240 C   0  0  0  0  0  0  0  0  0  0  0  0
   64.4690   32.7160   48.8970 C   0  0  0  0  0  0  0  0  0  0  0  0
   61.3850   28.9860   51.0610 C   0  0  0  0  0  0  0  0  0  0  0  0
   60.4000   26.1210   52.3860 C   0  0  0  0  0  0  0  0  0  0  0  0
   60.5800   24.6030   52.3740 C   0  0  0  0  0  0  0  0  0  0  0  0
   61.8990   22.6614   54.4334 H   0  0  0  0  0  0  0  0  0  0  0  0
   61.0140   22.3320   52.9054 H   0  0  0  0  0  0  0  0  0  0  0  0
   62.8087   22.4081   52.9054 H   0  0  0  0  0  0  0  0  0  0  0  0
   63.8861   24.7165   52.9402 H   0  0  0  0  0  0  0  0  0  0  0  0
   63.1334   23.9578   51.4629 H   0  0  0  0  0  0  0  0  0  0  0  0
   63.7434   26.6712   51.8142 H   0  0  0  0  0  0  0  0  0  0  0  0
   62.6689   25.9299   50.5509 H   0  0  0  0  0  0  0  0  0  0  0  0
   62.2371   28.3150   54.3089 H   0  0  0  0  0  0  0  0  0  0  0  0
   62.2408   30.8073   54.4026 H   0  0  0  0  0  0  0  0  0  0  0  0
   61.7009   32.1361   52.3597 H   0  0  0  0  0  0  0  0  0  0  0  0
   59.1558   28.6745   49.8700 H   0  0  0  0  0  0  0  0  0  0  0  0
   58.5129   26.9624   48.1978 H   0  0  0  0  0  0  0  0  0  0  0  0
   57.9677   26.3383   45.9205 H   0  0  0  0  0  0  0  0  0  0  0  0
   57.5488   26.9710   43.5424 H   0  0  0  0  0  0  0  0  0  0  0  0
   57.7359   29.3496   42.8298 H   0  0  0  0  0  0  0  0  0  0  0  0
   58.3978   31.1042   44.4627 H   0  0  0  0  0  0  0  0  0  0  0  0
   56.8675   32.3111   46.6222 H   0  0  0  0  0  0  0  0  0  0  0  0
   56.9088   34.7339   46.0466 H   0  0  0  0  0  0  0  0  0  0  0  0
   59.0817   35.9294   45.8097 H   0  0  0  0  0  0  0  0  0  0  0  0
   61.2257   34.7140   46.1440 H   0  0  0  0  0  0  0  0  0  0  0  0
   61.4342   34.2743   49.0337 H   0  0  0  0  0  0  0  0  0  0  0  0
   62.2418   34.7827   51.3369 H   0  0  0  0  0  0  0  0  0  0  0  0
   64.4687   33.9444   52.0934 H   0  0  0  0  0  0  0  0  0  0  0  0
   64.6792   31.1035   52.6059 H   0  0  0  0  0  0  0  0  0  0  0  0
   64.2289   30.4331   50.9877 H   0  0  0  0  0  0  0  0  0  0  0  0
   65.8589   29.0954   53.1958 H   0  0  0  0  0  0  0  0  0  0  0  0
   64.3136   28.5505   52.4830 H   0  0  0  0  0  0  0  0  0  0  0  0
   65.0293   26.8453   52.0338 H   0  0  0  0  0  0  0  0  0  0  0  0
   66.4124   25.0508   50.2756 H   0  0  0  0  0  0  0  0  0  0  0  0
   67.0602   26.2139   49.4714 H   0  0  0  0  0  0  0  0  0  0  0  0
   67.5061   25.5385   52.6051 H   0  0  0  0  0  0  0  0  0  0  0  0
   68.3444   26.7868   52.2063 H   0  0  0  0  0  0  0  0  0  0  0  0
   68.0111   28.3388   51.8794 H   0  0  0  0  0  0  0  0  0  0  0  0
   67.7305   28.6248   50.0954 H   0  0  0  0  0  0  0  0  0  0  0  0
   67.9020   30.5623   52.3348 H   0  0  0  0  0  0  0  0  0  0  0  0
   68.1913   30.7596   50.5506 H   0  0  0  0  0  0  0  0  0  0  0  0
   65.1126   32.1578   48.2012 H   0  0  0  0  0  0  0  0  0  0  0  0
   61.1578   28.4720   50.1154 H   0  0  0  0  0  0  0  0  0  0  0  0
   59.9899   26.4271   53.3597 H   0  0  0  0  0  0  0  0  0  0  0  0
   59.7121   26.3991   51.5740 H   0  0  0  0  0  0  0  0  0  0  0  0
   59.7317   24.1263   52.8871 H   0  0  0  0  0  0  0  0  0  0  0  0
   60.6221   24.2405   51.3363 H   0  0  0  0  0  0  0  0  0  0  0  0
  1  2  1  0
  2  3  1  0
  3  4  1  0
  4  5  1  0
  5  6  1  0
  6  7  2  0
  7  8  1  0
  8  9  2  0
  9 10  1  0
 10 11  1  0
 11 12  1  0
 12 13  2  0
 12 14  1  0
 14 15  2  0
 15 16  1  0
 16 17  2  0
 17 18  1  0
 18 19  2  0
 19 20  1  0
 20 21  2  0
 21 22  1  0
 22 23  2  0
 23 24  1  0
 24 25  2  0
 25 26  1  0
 26 27  2  0
 27 28  1  0
 28 29  2  0
 29 30  1  0
 30 31  2  0
 30 32  1  0
 32 33  1  0
 33 34  2  0
 34 35  1  0
 35 36  2  0
 36 37  1  0
 37 38  1  0
 38 39  2  0
 38 40  1  0
 40 41  1  0
 41 42  1  0
 42 43  1  0
 43 44  1  0
 44 45  1  0
 45 46  1  0
 43 47  1  0
 47 48  1  0
 37 49  2  0
 10 50  2  0
  5 51  1  0
 51 52  1  0
 52  2  1  0
 50  6  1  0
 23 14  1  0
 29 24  1  0
 49 33  1  0
 22 17  1  0
 48 40  1  0
 46 44  1  0
  1 53  1  0
  1 54  1  0
  1 55  1  0
  3 56  1  0
  3 57  1  0
  4 58  1  0
  4 59  1  0
  7 60  1  0
  8 61  1  0
  9 62  1  0
 15 63  1  0
 16 64  1  0
 18 65  1  0
 19 66  1  0
 20 67  1  0
 21 68  1  0
 25 69  1  0
 26 70  1  0
 27 71  1  0
 28 72  1  0
 34 73  1  0
 35 74  1  0
 36 75  1  0
 41 76  1  0
 41 77  1  0
 42 78  1  0
 42 79  1  0
 44 80  1  0
 45 81  1  0
 45 82  1  0
 46 83  1  0
 46 84  1  0
 47 85  1  0
 47 86  1  0
 48 87  1  0
 48 88  1  0
 49 89  1  0
 50 90  1  0
 51 91  1  0
 51 92  1  0
 52 93  1  0
 52 94  1  0
M  CHG  2  11  -1  32  -1
M  END
>  <UniqueID>  (48) 
46

>  <SMILES>  (48) 
CN1CCN(c2cccc([N-]C(=O)c3ccc4ccccc4c3-c3ccccc3C(=O)[N-]c3cccc(C(=O)N4CCN(C5CC5)CC4)c3)c2)CC1

>  <Energy>  (48) 
422.39435326092257

>  <Genealogy>  (48) 
CN1CCN(c2cccc([N-]C(=O)c3ccc4ccccc4c3-c3ccccc3C(=O)[N-]c3cccc(C(=O)N4CCN(C5CC5)CC4)c3)c2)CC1 (protonated)
CN1CCN(c2cccc([N-]C(=O)c3ccc4ccccc4c3-c3ccccc3C(=O)[N-]c3cccc(C(=O)N4CCN(C5CC5)CC4)c3)c2)CC1 (3D coordinates assigned)
CN1CCN(c2cccc([N-]C(=O)c3ccc4ccccc4c3-c3ccccc3C(=O)[N-]c3cccc(C(=O)N4CCN(C5CC5)CC4)c3)c2)CC1 (nonaromatic ring conformer: 422.39435326092257 kcal/mol)

>  <smiles>  (48) 
CN1CCN(c2cccc(NC(=O)c3ccc4ccccc4c3-c3ccccc3C(=O)Nc3cccc(C(=O)N4CCN(C5CC5)CC4)c3)c2)CC1

>  <score_type>  (48) 
oracle

>  <origin>  (48) 
adg

>  <m_score__min__energy>  (48) 
-14.06

>  <m_primary>  (48) 
energy

$$$$
48:0
     RDKit          3D

 50 53  0  0  0  0  0  0  0  0999 V2000
   55.4900   29.7390   43.6370 C   0  0  0  0  0  0  0  0  0  0  0  0
   55.7790   29.0960   44.8300 O   0  0  0  0  0  0  0  0  0  0  0  0
   56.9970   28.7100   45.3140 C   0  0  0  0  0  0  0  0  0  0  0  0
   57.4210   27.4080   45.0850 C   0  0  0  0  0  0  0  0  0  0  0  0
   58.6470   26.9940   45.5640 C   0  0  0  0  0  0  0  0  0  0  0  0
   59.4830   27.8410   46.2750 C   0  0  0  0  0  0  0  0  0  0  0  0
   59.0680   29.1360   46.5070 C   0  0  0  0  0  0  0  0  0  0  0  0
   59.8620   30.1120   47.2420 C   0  0  0  0  0  0  0  0  0  0  0  0
   59.7730   30.2280   48.5060 O   0  0  0  0  0  0  0  0  0  0  0  0
   60.7770   30.9900   46.6030 N   0  0  0  0  0  0  0  0  0  0  0  0
   61.4890   31.8970   47.4530 C   0  0  0  0  0  0  0  0  0  0  0  0
   62.6240   31.4050   48.0700 C   0  0  0  0  0  0  0  0  0  0  0  0
   63.3240   32.2730   48.8960 C   0  0  0  0  0  0  0  0  0  0  0  0
   64.4530   32.1220   49.6390 N   0  0  0  0  0  0  0  0  0  0  0  0
   64.7130   33.2970   50.2700 C   0  0  0  0  0  0  0  0  0  0  0  0
   66.1320   33.5000   51.3540 S   0  0  0  0  0  0  0  0  0  0  0  0
   67.2910   32.1290   51.0290 C   0  0  0  0  0  0  0  0  0  0  0  0
   63.7750   34.1860   49.9450 N   0  0  0  0  0  0  0  0  0  0  0  0
   62.9220   33.5760   49.1080 C   0  0  0  0  0  0  0  0  0  0  0  0
   61.7870   34.0170   48.4710 C   0  0  0  0  0  0  0  0  0  0  0  0
   61.0500   33.1780   47.6290 C   0  0  0  0  0  0  0  0  0  0  0  0
   59.8790   33.6790   46.9900 N   0  0  0  0  0  0  0  0  0  0  0  0
   58.5970   33.5870   47.6780 C   0  0  0  0  0  0  0  0  0  0  0  0
   57.5060   33.0970   46.7680 C   0  0  0  0  0  0  0  0  0  0  0  0
   57.7620   33.3690   45.4290 O   0  0  0  0  0  0  0  0  0  0  0  0
   58.5030   34.5150   45.2430 C   0  0  0  0  0  0  0  0  0  0  0  0
   59.9380   34.2780   45.6690 C   0  0  0  0  0  0  0  0  0  0  0  0
   57.8410   29.5270   46.0200 C   0  0  0  0  0  0  0  0  0  0  0  0
   55.0475   30.7235   43.8489 H   0  0  0  0  0  0  0  0  0  0  0  0
   56.4158   29.8701   43.0575 H   0  0  0  0  0  0  0  0  0  0  0  0
   54.7773   29.1338   43.0575 H   0  0  0  0  0  0  0  0  0  0  0  0
   56.7825   26.7096   44.5242 H   0  0  0  0  0  0  0  0  0  0  0  0
   58.9711   25.9598   45.3759 H   0  0  0  0  0  0  0  0  0  0  0  0
   60.4564   27.4880   46.6462 H   0  0  0  0  0  0  0  0  0  0  0  0
   60.9100   30.9610   45.5700 H   0  0  0  0  0  0  0  0  0  0  0  0
   62.9583   30.3689   47.9128 H   0  0  0  0  0  0  0  0  0  0  0  0
   67.6432   31.7124   51.9842 H   0  0  0  0  0  0  0  0  0  0  0  0
   66.7784   31.3442   50.4534 H   0  0  0  0  0  0  0  0  0  0  0  0
   68.1502   32.5038   50.4534 H   0  0  0  0  0  0  0  0  0  0  0  0
   63.7290   35.1810   50.2900 H   0  0  0  0  0  0  0  0  0  0  0  0
   61.4507   35.0527   48.6268 H   0  0  0  0  0  0  0  0  0  0  0  0
   58.6959   32.8890   48.5224 H   0  0  0  0  0  0  0  0  0  0  0  0
   58.3239   34.5942   48.0257 H   0  0  0  0  0  0  0  0  0  0  0  0
   57.4056   32.0088   46.8931 H   0  0  0  0  0  0  0  0  0  0  0  0
   56.5812   33.6251   47.0435 H   0  0  0  0  0  0  0  0  0  0  0  0
   58.4801   34.7952   44.1795 H   0  0  0  0  0  0  0  0  0  0  0  0
   58.0745   35.3253   45.8511 H   0  0  0  0  0  0  0  0  0  0  0  0
   60.4367   33.5965   44.9641 H   0  0  0  0  0  0  0  0  0  0  0  0
   60.5108   35.2170   45.6818 H   0  0  0  0  0  0  0  0  0  0  0  0
   57.5175   30.5611   46.2097 H   0  0  0  0  0  0  0  0  0  0  0  0
  1  2  1  0
  2  3  1  0
  3  4  2  0
  4  5  1  0
  5  6  2  0
  6  7  1  0
  7  8  1  0
  8  9  2  0
  8 10  1  0
 10 11  1  0
 11 12  2  0
 12 13  1  0
 13 14  1  0
 14 15  2  0
 15 16  1  0
 16 17  1  0
 15 18  1  0
 18 19  1  0
 19 20  1  0
 20 21  2  0
 21 22  1  0
 22 23  1  0
 23 24  1  0
 24 25  1  0
 25 26  1  0
 26 27  1  0
  7 28  2  0
 28  3  1  0
 21 11  1  0
 27 22  1  0
 19 13  2  0
  1 29  1  0
  1 30  1  0
  1 31  1  0
  4 32  1  0
  5 33  1  0
  6 34  1  0
 10 35  1  0
 12 36  1  0
 17 37  1  0
 17 38  1  0
 17 39  1  0
 18 40  1  0
 20 41  1  0
 23 42  1  0
 23 43  1  0
 24 44  1  0
 24 45  1  0
 26 46  1  0
 26 47  1  0
 27 48  1  0
 27 49  1  0
 28 50  1  0
M  END
>  <smiles>  (49) 
COc1cccc(C(=O)Nc2cc3nc(SC)[nH]c3cc2N2CCOCC2)c1

>  <score_type>  (49) 
oracle

>  <origin>  (49) 
adg

>  <m_score__min__energy>  (49) 
-7.5800000000000001

>  <m_primary>  (49) 
energy

$$$$
49:0
     RDKit          3D

 45 46  0  0  0  0  0  0  0  0999 V2000
   59.6770   31.3240   47.5580 C   0  0  0  0  0  0  0  0  0  0  0  0
   60.9830   32.0450   47.2030 C   0  0  0  0  0  0  0  0  0  0  0  0
   61.3210   33.1150   48.1770 N   0  0  0  0  0  0  0  0  0  0  0  0
   62.7300   33.6120   48.1370 C   0  0  0  0  0  0  0  0  0  0  0  0
   63.4300   33.5610   46.7680 C   0  0  0  0  0  0  0  0  0  0  0  0
   60.3040   34.2010   48.2400 C   0  0  0  0  0  0  0  0  0  0  0  0
   60.0630   35.0040   46.9410 C   0  0  0  0  0  0  0  0  0  0  0  0
   59.0470   34.3940   46.0840 N   0  0  0  0  0  0  0  0  0  0  0  0
   57.7400   34.2180   46.3680 C   0  0  0  0  0  0  0  0  0  0  0  0
   57.1680   33.4940   45.3430 C   0  0  0  0  0  0  0  0  0  0  0  0
   58.1140   33.2590   44.4130 N   0  0  0  0  0  0  0  0  0  0  0  0
   58.0290   32.3100   43.3080 C   0  0  0  0  0  0  0  0  0  0  0  0
   57.6790   30.9510   43.8530 C   0  0  0  0  0  0  0  0  0  0  0  0
   56.3380   30.5460   43.9330 C   0  0  0  0  0  0  0  0  0  0  0  0
   56.0020   29.3330   44.5410 C   0  0  0  0  0  0  0  0  0  0  0  0
   57.0030   28.5210   45.0880 C   0  0  0  0  0  0  0  0  0  0  0  0
   56.6560   27.2820   45.7340 C   0  0  0  0  0  0  0  0  0  0  0  0
   56.3760   26.2860   46.2520 N   0  0  0  0  0  0  0  0  0  0  0  0
   58.3420   28.9250   45.0220 C   0  0  0  0  0  0  0  0  0  0  0  0
   58.6790   30.1350   44.4100 C   0  0  0  0  0  0  0  0  0  0  0  0
   59.2440   33.8290   44.8770 C   0  0  0  0  0  0  0  0  0  0  0  0
   59.5749   31.2676   48.6518 H   0  0  0  0  0  0  0  0  0  0  0  0
   58.8255   31.8799   47.1384 H   0  0  0  0  0  0  0  0  0  0  0  0
   59.6937   30.3073   47.1384 H   0  0  0  0  0  0  0  0  0  0  0  0
   61.8004   31.3090   47.1887 H   0  0  0  0  0  0  0  0  0  0  0  0
   60.8491   32.5171   46.2185 H   0  0  0  0  0  0  0  0  0  0  0  0
   61.2290   32.6640   49.1200 H   0  0  0  0  0  0  0  0  0  0  0  0
   62.7260   34.6594   48.4730 H   0  0  0  0  0  0  0  0  0  0  0  0
   63.3008   32.9306   48.7849 H   0  0  0  0  0  0  0  0  0  0  0  0
   64.5173   33.4818   46.9149 H   0  0  0  0  0  0  0  0  0  0  0  0
   63.0714   32.6866   46.2051 H   0  0  0  0  0  0  0  0  0  0  0  0
   63.2019   34.4781   46.2051 H   0  0  0  0  0  0  0  0  0  0  0  0
   59.3467   33.7444   48.5319 H   0  0  0  0  0  0  0  0  0  0  0  0
   60.7043   34.9300   48.9599 H   0  0  0  0  0  0  0  0  0  0  0  0
   59.7344   36.0188   47.2098 H   0  0  0  0  0  0  0  0  0  0  0  0
   61.0081   35.0198   46.3784 H   0  0  0  0  0  0  0  0  0  0  0  0
   57.2197   34.5884   47.2636 H   0  0  0  0  0  0  0  0  0  0  0  0
   56.1195   33.1650   45.2933 H   0  0  0  0  0  0  0  0  0  0  0  0
   57.2510   32.6354   42.6018 H   0  0  0  0  0  0  0  0  0  0  0  0
   58.9954   32.2623   42.7847 H   0  0  0  0  0  0  0  0  0  0  0  0
   55.5471   31.1863   43.5152 H   0  0  0  0  0  0  0  0  0  0  0  0
   54.9498   29.0159   44.5898 H   0  0  0  0  0  0  0  0  0  0  0  0
   59.1296   28.2890   45.4525 H   0  0  0  0  0  0  0  0  0  0  0  0
   59.7318   30.4506   44.3638 H   0  0  0  0  0  0  0  0  0  0  0  0
   60.2036   33.8324   44.3392 H   0  0  0  0  0  0  0  0  0  0  0  0
  1  2  1  0
  2  3  1  0
  3  4  1  0
  4  5  1  0
  3  6  1  0
  6  7  1  0
  7  8  1  0
  8  9  1  0
  9 10  2  0
 10 11  1  0
 11 12  1  0
 12 13  1  0
 13 14  2  0
 14 15  1  0
 15 16  2  0
 16 17  1  0
 17 18  3  0
 16 19  1  0
 19 20  2  0
 11 21  2  0
 21  8  1  0
 20 13  1  0
  1 22  1  0
  1 23  1  0
  1 24  1  0
  2 25  1  0
  2 26  1  0
  3 27  1  0
  4 28  1  0
  4 29  1  0
  5 30  1  0
  5 31  1  0
  5 32  1  0
  6 33  1  0
  6 34  1  0
  7 35  1  0
  7 36  1  0
  9 37  1  0
 10 38  1  0
 12 39  1  0
 12 40  1  0
 14 41  1  0
 15 42  1  0
 19 43  1  0
 20 44  1  0
 21 45  1  0
M  CHG  2   3   1  11   1
M  END
>  <UniqueID>  (50) 
47

>  <SMILES>  (50) 
CC[NH+](CC)CCn1cc[n+](Cc2ccc(C#N)cc2)c1

>  <Energy>  (50) 
77.9764192417143

>  <Genealogy>  (50) 
CC[NH+](CC)CCn1cc[n+](Cc2ccc(C#N)cc2)c1 (protonated)
CC[NH+](CC)CCn1cc[n+](Cc2ccc(C#N)cc2)c1 (3D coordinates assigned)
CC[NH+](CC)CCn1cc[n+](Cc2ccc(C#N)cc2)c1 (optimized conformer: 77.9764192417143 kcal/mol)

>  <smiles>  (50) 
CCN(CC)CCn1cc[n+](Cc2ccc(C#N)cc2)c1

>  <score_type>  (50) 
oracle

>  <origin>  (50) 
adg

>  <m_score__min__energy>  (50) 
-3.5800000000000001

>  <m_primary>  (50) 
energy

$$$$
50:0
     RDKit          3D

 41 45  0  0  0  0  0  0  0  0999 V2000
   59.2820   34.7040   44.8730 N   0  0  0  0  0  0  0  0  0  0  0  0
   57.8570   33.9830   45.5310 S   0  0  0  0  0  0  0  0  0  0  0  0
   56.6450   34.7020   45.0080 O   0  0  0  0  0  0  0  0  0  0  0  0
   57.8790   34.1040   47.0300 O   0  0  0  0  0  0  0  0  0  0  0  0
   57.7890   32.2860   45.0690 C   0  0  0  0  0  0  0  0  0  0  0  0
   57.3950   31.9240   43.7730 C   0  0  0  0  0  0  0  0  0  0  0  0
   57.3320   30.5780   43.4100 C   0  0  0  0  0  0  0  0  0  0  0  0
   57.6460   29.5850   44.3400 C   0  0  0  0  0  0  0  0  0  0  0  0
   58.0130   29.9300   45.6520 C   0  0  0  0  0  0  0  0  0  0  0  0
   58.3120   28.8850   46.6570 C   0  0  0  0  0  0  0  0  0  0  0  0
   59.3960   28.9340   47.2980 O   0  0  0  0  0  0  0  0  0  0  0  0
   57.4070   27.8030   46.9140 N   0  0  0  0  0  0  0  0  0  0  0  0
   57.2740   26.6830   46.0740 N   0  0  0  0  0  0  0  0  0  0  0  0
   56.0950   26.1650   45.6760 C   0  0  0  0  0  0  0  0  0  0  0  0
   54.8580   26.7130   45.9940 O   0  0  0  0  0  0  0  0  0  0  0  0
   56.2960   24.9550   45.0470 C   0  0  0  0  0  0  0  0  0  0  0  0
   57.6620   24.7070   45.1010 C   0  0  0  0  0  0  0  0  0  0  0  0
   58.2330   25.7760   45.7600 C   0  0  0  0  0  0  0  0  0  0  0  0
   59.5800   25.8770   46.0960 O   0  0  0  0  0  0  0  0  0  0  0  0
   58.0320   23.2350   45.1420 C   0  0  1  0  0  0  0  0  0  0  0  0
   57.2340   22.6770   46.3260 C   0  0  0  0  0  0  0  0  0  0  0  0
   55.8970   22.9190   46.2760 C   0  0  0  0  0  0  0  0  0  0  0  0
   55.4340   23.7050   45.0440 C   0  0  2  0  0  0  0  0  0  0  0  0
   55.8900   22.9330   43.7490 C   0  0  2  0  0  0  0  0  0  0  0  0
   56.4260   21.4980   43.7930 C   0  0  0  0  0  0  0  0  0  0  0  0
   57.4300   22.6540   43.8070 C   0  0  2  0  0  0  0  0  0  0  0  0
   58.0980   31.2880   46.0040 C   0  0  0  0  0  0  0  0  0  0  0  0
   59.4310   35.6030   45.3830 H   0  0  0  0  0  0  0  0  0  0  0  0
   57.1350   32.7026   43.0408 H   0  0  0  0  0  0  0  0  0  0  0  0
   57.0342   30.2986   42.3886 H   0  0  0  0  0  0  0  0  0  0  0  0
   57.6059   28.5263   44.0440 H   0  0  0  0  0  0  0  0  0  0  0  0
   59.9600   26.7080   46.5290 H   0  0  0  0  0  0  0  0  0  0  0  0
   59.1052   23.0134   45.2375 H   0  0  0  0  0  0  0  0  0  0  0  0
   57.7061   22.1241   47.1515 H   0  0  0  0  0  0  0  0  0  0  0  0
   55.2025   22.5778   47.0578 H   0  0  0  0  0  0  0  0  0  0  0  0
   54.3471   23.8734   45.0595 H   0  0  0  0  0  0  0  0  0  0  0  0
   55.1276   23.3892   43.1004 H   0  0  0  0  0  0  0  0  0  0  0  0
   56.2821   20.8891   44.6977 H   0  0  0  0  0  0  0  0  0  0  0  0
   56.2888   20.6063   43.1637 H   0  0  0  0  0  0  0  0  0  0  0  0
   58.3487   22.8061   43.2214 H   0  0  0  0  0  0  0  0  0  0  0  0
   58.4093   31.5700   47.0207 H   0  0  0  0  0  0  0  0  0  0  0  0
  1  2  1  0
  2  3  2  0
  2  4  2  0
  2  5  1  0
  5  6  2  0
  6  7  1  0
  7  8  2  0
  8  9  1  0
  9 10  1  0
 10 11  2  0
 10 12  1  0
 12 13  1  0
 13 14  1  0
 14 15  1  0
 14 16  2  0
 16 17  1  0
 17 18  2  0
 18 19  1  0
 17 20  1  0
 20 21  1  0
 21 22  2  0
 22 23  1  0
 23 24  1  0
 24 25  1  0
 25 26  1  0
  9 27  2  0
 27  5  1  0
 18 13  1  0
 26 20  1  0
 23 16  1  0
 26 24  1  0
  1 28  1  0
  6 29  1  0
  7 30  1  0
  8 31  1  0
 19 32  1  0
 20 33  1  1
 21 34  1  0
 22 35  1  0
 23 36  1  6
 24 37  1  6
 25 38  1  0
 25 39  1  0
 26 40  1  6
 27 41  1  0
M  CHG  3   1  -1  12  -1  15  -1
M  END
>  <UniqueID>  (51) 
48

>  <SMILES>  (51) 
[NH-]S(=O)(=O)c1cccc(C(=O)[N-]n2c([O-])c3c(c2O)[C@H]2C=C[C@@H]3C3CC32)c1

>  <Energy>  (51) 
399.57706308626643

>  <Genealogy>  (51) 
[NH-]S(=O)(=O)c1cccc(C(=O)[N-]n2c([O-])c3c(c2O)C2C=CC3C3CC23)c1 (protonated)
[NH-]S(=O)(=O)c1cccc(C(=O)[N-]n2c([O-])c3c(c2O)[C@H]2C=C[C@@H]3C3CC32)c1 (chirality)
[NH-]S(=O)(=O)c1cccc(C(=O)[N-]n2c([O-])c3c(c2O)[C@H]2C=C[C@@H]3C3CC32)c1 (3D coordinates assigned)
[NH-]S(=O)(=O)c1cccc(C(=O)[N-]n2c([O-])c3c(c2O)[C@H]2C=C[C@@H]3C3CC32)c1 (nonaromatic ring conformer: 399.57706308626643 kcal/mol)

>  <smiles>  (51) 
NS(=O)(=O)c1cccc(C(=O)Nn2c(O)c3c(c2O)C2C=CC3C3CC23)c1

>  <score_type>  (51) 
oracle

>  <origin>  (51) 
adg

>  <m_score__min__energy>  (51) 
-13.6

>  <m_primary>  (51) 
energy

$$$$
51:0
     RDKit          3D

 45 47  0  0  0  0  0  0  0  0999 V2000
   63.1480   33.4890   49.1690 C   0  0  0  0  0  0  0  0  0  0  0  0
   62.8460   33.1050   47.7110 C   0  0  1  0  0  0  0  0  0  0  0  0
   62.5730   31.6010   47.5500 C   0  0  0  0  0  0  0  0  0  0  0  0
   61.3060   31.1610   48.3100 C   0  0  2  0  0  0  0  0  0  0  0  0
   60.9010   29.7390   47.8970 C   0  0  0  0  0  0  0  0  0  0  0  0
   60.1320   32.1680   48.1610 C   0  0  0  0  0  0  0  0  0  0  0  0
   60.4000   33.2130   47.1600 N   0  0  0  0  0  0  0  0  0  0  0  0
   59.2970   33.7790   46.4360 C   0  0  0  0  0  0  0  0  0  0  0  0
   58.9890   34.9880   46.6280 O   0  0  0  0  0  0  0  0  0  0  0  0
   58.5460   32.9770   45.4400 C   0  0  0  0  0  0  0  0  0  0  0  0
   58.4400   33.4070   44.1060 C   0  0  0  0  0  0  0  0  0  0  0  0
   57.7500   32.6350   43.1670 C   0  0  0  0  0  0  0  0  0  0  0  0
   57.1710   31.4210   43.5470 C   0  0  0  0  0  0  0  0  0  0  0  0
   57.2870   30.9630   44.8620 C   0  0  0  0  0  0  0  0  0  0  0  0
   56.6540   29.7250   45.2240 N   0  0  0  0  0  0  0  0  0  0  0  0
   57.0530   28.4080   44.8200 C   0  0  0  0  0  0  0  0  0  0  0  0
   57.3610   28.2150   43.6140 O   0  0  0  0  0  0  0  0  0  0  0  0
   57.1690   27.2920   45.7800 C   0  0  0  0  0  0  0  0  0  0  0  0
   58.3270   26.7850   46.3340 C   0  0  0  0  0  0  0  0  0  0  0  0
   57.9360   25.7480   47.1590 C   0  0  0  0  0  0  0  0  0  0  0  0
   56.5980   25.5820   47.1350 N   0  0  0  0  0  0  0  0  0  0  0  0
   56.1430   26.5240   46.2900 C   0  0  0  0  0  0  0  0  0  0  0  0
   54.7950   26.6920   45.9950 O   0  0  0  0  0  0  0  0  0  0  0  0
   57.9600   31.7550   45.8080 C   0  0  0  0  0  0  0  0  0  0  0  0
   61.6810   33.9330   47.1280 C   0  0  0  0  0  0  0  0  0  0  0  0
   62.6121   32.8076   49.8462 H   0  0  0  0  0  0  0  0  0  0  0  0
   64.2299   33.4118   49.3519 H   0  0  0  0  0  0  0  0  0  0  0  0
   62.8180   34.5223   49.3519 H   0  0  0  0  0  0  0  0  0  0  0  0
   63.7536   33.3422   47.1366 H   0  0  0  0  0  0  0  0  0  0  0  0
   62.4425   31.3759   46.4812 H   0  0  0  0  0  0  0  0  0  0  0  0
   63.4293   31.0527   47.9697 H   0  0  0  0  0  0  0  0  0  0  0  0
   61.5527   31.1520   49.3819 H   0  0  0  0  0  0  0  0  0  0  0  0
   60.7278   29.1310   48.7972 H   0  0  0  0  0  0  0  0  0  0  0  0
   59.9787   29.7795   47.2989 H   0  0  0  0  0  0  0  0  0  0  0  0
   61.7063   29.2875   47.2989 H   0  0  0  0  0  0  0  0  0  0  0  0
   59.2307   31.6147   47.8586 H   0  0  0  0  0  0  0  0  0  0  0  0
   59.9983   32.6666   49.1324 H   0  0  0  0  0  0  0  0  0  0  0  0
   58.9027   34.3566   43.7992 H   0  0  0  0  0  0  0  0  0  0  0  0
   57.6626   32.9835   42.1273 H   0  0  0  0  0  0  0  0  0  0  0  0
   56.6206   30.8224   42.8063 H   0  0  0  0  0  0  0  0  0  0  0  0
   59.3541   27.1358   46.1548 H   0  0  0  0  0  0  0  0  0  0  0  0
   58.6270   25.1367   47.7581 H   0  0  0  0  0  0  0  0  0  0  0  0
   58.0287   31.4129   46.8512 H   0  0  0  0  0  0  0  0  0  0  0  0
   61.9168   34.1849   46.0835 H   0  0  0  0  0  0  0  0  0  0  0  0
   61.5708   34.8338   47.7496 H   0  0  0  0  0  0  0  0  0  0  0  0
  1  2  1  0
  2  3  1  0
  3  4  1  0
  4  5  1  0
  4  6  1  0
  6  7  1  0
  7  8  1  0
  8  9  2  0
  8 10  1  0
 10 11  2  0
 11 12  1  0
 12 13  2  0
 13 14  1  0
 14 15  1  0
 15 16  1  0
 16 17  2  0
 16 18  1  0
 18 19  1  0
 19 20  2  0
 20 21  1  0
 21 22  1  0
 22 23  1  0
 14 24  2  0
  7 25  1  0
 25  2  1  0
 24 10  1  0
 22 18  2  0
  1 26  1  0
  1 27  1  0
  1 28  1  0
  2 29  1  6
  3 30  1  0
  3 31  1  0
  4 32  1  1
  5 33  1  0
  5 34  1  0
  5 35  1  0
  6 36  1  0
  6 37  1  0
 11 38  1  0
 12 39  1  0
 13 40  1  0
 19 41  1  0
 20 42  1  0
 24 43  1  0
 25 44  1  0
 25 45  1  0
M  CHG  3  15  -1  21  -1  23  -1
M  END
>  <UniqueID>  (52) 
49

>  <SMILES>  (52) 
C[C@H]1C[C@H](C)CN(C(=O)c2cccc([N-]C(=O)c3cc[n-]c3[O-])c2)C1

>  <Energy>  (52) 
80.61704075998337

>  <Genealogy>  (52) 
CC1CC(C)CN(C(=O)c2cccc([N-]C(=O)c3cc[n-]c3[O-])c2)C1 (protonated)
C[C@H]1C[C@H](C)CN(C(=O)c2cccc([N-]C(=O)c3cc[n-]c3[O-])c2)C1 (chirality)
C[C@H]1C[C@H](C)CN(C(=O)c2cccc([N-]C(=O)c3cc[n-]c3[O-])c2)C1 (3D coordinates assigned)
C[C@H]1C[C@H](C)CN(C(=O)c2cccc([N-]C(=O)c3cc[n-]c3[O-])c2)C1 (nonaromatic ring conformer: 80.61704075998337 kcal/mol)

>  <smiles>  (52) 
CC1CC(C)CN(C(=O)c2cccc(NC(=O)c3cc[nH]c3O)c2)C1

>  <score_type>  (52) 
oracle

>  <origin>  (52) 
adg

>  <m_score__min__energy>  (52) 
-16.149999999999999

>  <m_primary>  (52) 
energy

$$$$
52:0
     RDKit          3D

 59 62  0  0  0  0  0  0  0  0999 V2000
   67.0840   30.5930   53.1440 C   0  0  0  0  0  0  0  0  0  0  0  0
   66.5280   31.7090   52.3620 N   0  0  0  0  0  0  0  0  0  0  0  0
   66.9400   31.5890   50.9460 C   0  0  0  0  0  0  0  0  0  0  0  0
   66.3870   32.7510   50.1140 C   0  0  0  0  0  0  0  0  0  0  0  0
   64.9410   32.8490   50.3180 N   0  0  0  0  0  0  0  0  0  0  0  0
   64.0470   32.7060   49.2040 C   0  0  0  0  0  0  0  0  0  0  0  0
   64.0630   31.6360   48.5390 O   0  0  0  0  0  0  0  0  0  0  0  0
   63.0910   33.8060   48.7990 C   0  0  0  0  0  0  0  0  0  0  0  0
   61.6880   33.6110   49.4140 C   0  0  0  0  0  0  0  0  0  0  0  0
   60.6980   34.5900   48.7690 C   0  0  0  0  0  0  0  0  0  0  0  0
   60.5830   34.4030   47.2990 N   0  0  0  0  0  0  0  0  0  0  0  0
   59.2380   33.9810   46.8430 C   0  0  0  0  0  0  0  0  0  0  0  0
   58.9970   32.4880   46.9590 C   0  0  0  0  0  0  0  0  0  0  0  0
   59.4490   31.7840   48.0880 C   0  0  0  0  0  0  0  0  0  0  0  0
   59.2050   30.4160   48.2120 C   0  0  0  0  0  0  0  0  0  0  0  0
   58.5200   29.7320   47.2070 C   0  0  0  0  0  0  0  0  0  0  0  0
   58.0730   30.4180   46.0650 C   0  0  0  0  0  0  0  0  0  0  0  0
   57.4010   29.7360   44.9970 N   0  0  0  0  0  0  0  0  0  0  0  0
   56.2610   28.8810   45.1420 C   0  0  0  0  0  0  0  0  0  0  0  0
   55.1170   29.3440   44.8930 O   0  0  0  0  0  0  0  0  0  0  0  0
   56.3840   27.4940   45.6270 C   0  0  0  0  0  0  0  0  0  0  0  0
   57.5540   26.8100   45.8870 C   0  0  0  0  0  0  0  0  0  0  0  0
   57.2530   25.5820   46.3430 N   0  0  0  0  0  0  0  0  0  0  0  0
   55.9050   25.5690   46.3470 C   0  0  0  0  0  0  0  0  0  0  0  0
   55.2370   24.5690   46.7130 O   0  0  0  0  0  0  0  0  0  0  0  0
   55.3300   26.7130   45.9260 N   0  0  0  0  0  0  0  0  0  0  0  0
   58.3380   31.7860   45.9360 C   0  0  0  0  0  0  0  0  0  0  0  0
   61.6810   33.6360   46.6650 C   0  0  0  0  0  0  0  0  0  0  0  0
   63.0450   34.0090   47.2610 C   0  0  0  0  0  0  0  0  0  0  0  0
   64.4440   32.8910   51.6920 C   0  0  0  0  0  0  0  0  0  0  0  0
   65.0520   31.7300   52.4880 C   0  0  0  0  0  0  0  0  0  0  0  0
   66.9768   30.8082   54.2174 H   0  0  0  0  0  0  0  0  0  0  0  0
   66.5415   29.6678   52.8995 H   0  0  0  0  0  0  0  0  0  0  0  0
   68.1493   30.4689   52.8995 H   0  0  0  0  0  0  0  0  0  0  0  0
   66.9140   32.5990   52.7580 H   0  0  0  0  0  0  0  0  0  0  0  0
   68.0385   31.5962   50.8889 H   0  0  0  0  0  0  0  0  0  0  0  0
   66.5399   30.6470   50.5427 H   0  0  0  0  0  0  0  0  0  0  0  0
   66.8667   33.6893   50.4294 H   0  0  0  0  0  0  0  0  0  0  0  0
   66.5969   32.5733   49.0489 H   0  0  0  0  0  0  0  0  0  0  0  0
   63.4874   34.7418   49.2198 H   0  0  0  0  0  0  0  0  0  0  0  0
   61.3508   32.5794   49.2349 H   0  0  0  0  0  0  0  0  0  0  0  0
   61.7356   33.8024   50.4962 H   0  0  0  0  0  0  0  0  0  0  0  0
   59.7071   34.4381   49.2218 H   0  0  0  0  0  0  0  0  0  0  0  0
   61.0740   35.6084   48.9463 H   0  0  0  0  0  0  0  0  0  0  0  0
   58.4850   34.5029   47.4518 H   0  0  0  0  0  0  0  0  0  0  0  0
   59.1647   34.2371   45.7757 H   0  0  0  0  0  0  0  0  0  0  0  0
   59.9988   32.3149   48.8791 H   0  0  0  0  0  0  0  0  0  0  0  0
   59.5535   29.8752   49.1043 H   0  0  0  0  0  0  0  0  0  0  0  0
   58.3295   28.6534   47.3089 H   0  0  0  0  0  0  0  0  0  0  0  0
   58.5701   27.2063   45.7440 H   0  0  0  0  0  0  0  0  0  0  0  0
   58.0271   32.3171   45.0243 H   0  0  0  0  0  0  0  0  0  0  0  0
   61.5039   32.5618   46.8224 H   0  0  0  0  0  0  0  0  0  0  0  0
   61.6957   33.8774   45.5919 H   0  0  0  0  0  0  0  0  0  0  0  0
   63.8179   33.3782   46.7976 H   0  0  0  0  0  0  0  0  0  0  0  0
   63.2212   35.0754   47.0569 H   0  0  0  0  0  0  0  0  0  0  0  0
   64.7312   33.8454   52.1574 H   0  0  0  0  0  0  0  0  0  0  0  0
   63.3477   32.8011   51.6896 H   0  0  0  0  0  0  0  0  0  0  0  0
   64.7840   31.8431   53.5488 H   0  0  0  0  0  0  0  0  0  0  0  0
   64.6546   30.7863   52.0861 H   0  0  0  0  0  0  0  0  0  0  0  0
  1  2  1  0
  2  3  1  0
  3  4  1  0
  4  5  1  0
  5  6  1  0
  6  7  2  0
  6  8  1  0
  8  9  1  0
  9 10  1  0
 10 11  1  0
 11 12  1  0
 12 13  1  0
 13 14  2  0
 14 15  1  0
 15 16  2  0
 16 17  1  0
 17 18  1  0
 18 19  1  0
 19 20  2  0
 19 21  1  0
 21 22  2  0
 22 23  1  0
 23 24  1  0
 24 25  2  0
 24 26  1  0
 17 27  2  0
 11 28  1  0
 28 29  1  0
  5 30  1  0
 30 31  1  0
 31  2  1  0
 29  8  1  0
 27 13  1  0
 26 21  1  0
  1 32  1  0
  1 33  1  0
  1 34  1  0
  2 35  1  0
  3 36  1  0
  3 37  1  0
  4 38  1  0
  4 39  1  0
  8 40  1  0
  9 41  1  0
  9 42  1  0
 10 43  1  0
 10 44  1  0
 12 45  1  0
 12 46  1  0
 14 47  1  0
 15 48  1  0
 16 49  1  0
 22 50  1  0
 27 51  1  0
 28 52  1  0
 28 53  1  0
 29 54  1  0
 29 55  1  0
 30 56  1  0
 30 57  1  0
 31 58  1  0
 31 59  1  0
M  CHG  4   2   1  18  -1  23  -1  26  -1
M  END
>  <UniqueID>  (53) 
50

>  <SMILES>  (53) 
C[NH+]1CCN(C(=O)C2CCN(Cc3cccc([N-]C(=O)c4c[n-]c(=O)[n-]4)c3)CC2)CC1

>  <Energy>  (53) 
105.96060402407667

>  <Genealogy>  (53) 
C[NH+]1CCN(C(=O)C2CCN(Cc3cccc([N-]C(=O)c4c[n-]c(=O)[n-]4)c3)CC2)CC1 (protonated)
C[NH+]1CCN(C(=O)C2CCN(Cc3cccc([N-]C(=O)c4c[n-]c(=O)[n-]4)c3)CC2)CC1 (3D coordinates assigned)
C[NH+]1CCN(C(=O)C2CCN(Cc3cccc([N-]C(=O)c4c[n-]c(=O)[n-]4)c3)CC2)CC1 (nonaromatic ring conformer: 105.96060402407667 kcal/mol)

>  <smiles>  (53) 
CN1CCN(C(=O)C2CCN(Cc3cccc(NC(=O)c4c[nH]c(=O)[nH]4)c3)CC2)CC1

>  <score_type>  (53) 
oracle

>  <origin>  (53) 
adg

>  <m_score__min__energy>  (53) 
-14.039999999999999

>  <m_primary>  (53) 
energy

$$$$
53:0
     RDKit          3D

 38 39  0  0  0  0  0  0  0  0999 V2000
   50.3433   25.3721   42.9664 H   0  0  0  0  0  0  0  0  0  0  0  0
   50.5340   24.8260   43.9020 C   0  0  0  0  0  0  0  0  0  0  0  0
   49.8268   24.9079   44.7405 H   0  0  0  0  0  0  0  0  0  0  0  0
   51.6250   24.0630   44.0200 C   0  0  0  0  0  0  0  0  0  0  0  0
   52.3216   23.9925   43.1716 H   0  0  0  0  0  0  0  0  0  0  0  0
   51.9280   23.2980   45.2790 C   0  0  0  0  0  0  0  0  0  0  0  0
   51.7709   23.9532   46.1485 H   0  0  0  0  0  0  0  0  0  0  0  0
   51.2592   22.4267   45.3382 H   0  0  0  0  0  0  0  0  0  0  0  0
   53.3140   22.8340   45.2690 N   0  0  0  0  0  0  0  0  0  0  0  0
   54.3570   23.6120   45.2390 C   0  0  0  0  0  0  0  0  0  0  0  0
   54.4110   24.7400   46.0000 N   0  0  0  0  0  0  0  0  0  0  0  0
   55.4900   25.5670   45.9910 C   0  0  0  0  0  0  0  0  0  0  0  0
   55.4935   26.4698   46.6194 H   0  0  0  0  0  0  0  0  0  0  0  0
   56.6010   25.2730   45.1820 C   0  0  0  0  0  0  0  0  0  0  0  0
   57.7890   26.1580   45.1450 C   0  0  0  0  0  0  0  0  0  0  0  0
   58.7630   25.9170   45.9110 O   0  0  0  0  0  0  0  0  0  0  0  0
   57.8460   27.2950   44.2650 N   0  0  0  0  0  0  0  0  0  0  0  0
   56.9970   27.5820   43.7290 H   0  0  0  0  0  0  0  0  0  0  0  0
   59.0340   28.1380   44.1540 C   0  0  0  0  0  0  0  0  0  0  0  0
   59.8184   27.7497   44.8202 H   0  0  0  0  0  0  0  0  0  0  0  0
   59.3860   28.1261   43.1119 H   0  0  0  0  0  0  0  0  0  0  0  0
   58.7060   29.5540   44.5450 C   0  0  0  0  0  0  0  0  0  0  0  0
   57.7490   30.2910   43.8320 C   0  0  0  0  0  0  0  0  0  0  0  0
   57.2189   29.8266   42.9874 H   0  0  0  0  0  0  0  0  0  0  0  0
   57.4650   31.6130   44.1890 C   0  0  0  0  0  0  0  0  0  0  0  0
   56.7118   32.1813   43.6237 H   0  0  0  0  0  0  0  0  0  0  0  0
   58.1350   32.2210   45.2650 C   0  0  0  0  0  0  0  0  0  0  0  0
   57.8410   33.5820   45.6290 N   0  0  0  0  0  0  0  0  0  0  0  0
   57.0150   33.8360   46.5310 O   0  0  0  0  0  0  0  0  0  0  0  0
   58.4660   34.6290   44.9890 O   0  0  0  0  0  0  0  0  0  0  0  0
   59.0970   31.4800   45.9750 C   0  0  0  0  0  0  0  0  0  0  0  0
   59.6296   31.9432   46.8187 H   0  0  0  0  0  0  0  0  0  0  0  0
   59.3810   30.1590   45.6160 C   0  0  0  0  0  0  0  0  0  0  0  0
   60.1380   29.5907   46.1764 H   0  0  0  0  0  0  0  0  0  0  0  0
   56.5520   24.1220   44.3790 C   0  0  0  0  0  0  0  0  0  0  0  0
   57.3999   23.8766   43.7226 H   0  0  0  0  0  0  0  0  0  0  0  0
   55.4340   23.2880   44.4090 C   0  0  0  0  0  0  0  0  0  0  0  0
   55.4003   22.3830   43.7847 H   0  0  0  0  0  0  0  0  0  0  0  0
  1  2  1  0
  2  3  1  0
  2  4  2  0
  4  5  1  0
  4  6  1  0
  6  7  1  0
  6  8  1  0
  6  9  1  0
  9 10  2  0
 10 11  1  0
 11 12  1  0
 12 13  1  0
 12 14  2  0
 14 15  1  0
 15 16  2  0
 15 17  1  0
 17 18  1  0
 17 19  1  0
 19 20  1  0
 19 21  1  0
 19 22  1  0
 22 23  2  0
 23 24  1  0
 23 25  1  0
 25 26  1  0
 25 27  2  0
 27 28  1  0
 28 29  2  0
 28 30  1  0
 27 31  1  0
 31 32  1  0
 31 33  2  0
 33 34  1  0
 14 35  1  0
 35 36  1  0
 35 37  2  0
 37 38  1  0
 37 10  1  0
 33 22  1  0
M  CHG  3  11  -1  28   1  30  -1
M  END
>  <UniqueID>  (54) 
51

>  <SMILES>  (54) 
C=CC/N=c1/ccc(C(=O)NCc2ccc([N+](=O)[O-])cc2)c[n-]1

>  <Energy>  (54) 
37.93854270971299

>  <Genealogy>  (54) 
C=CCN=c1ccc(C(=O)NCc2ccc([N+](=O)[O-])cc2)c[n-]1 (protonated)
C=CC/N=c1/ccc(C(=O)NCc2ccc([N+](=O)[O-])cc2)c[n-]1 (cis-trans isomerization)
C=CC/N=c1/ccc(C(=O)NCc2ccc([N+](=O)[O-])cc2)c[n-]1 (3D coordinates assigned)
C=CC/N=c1/ccc(C(=O)NCc2ccc([N+](=O)[O-])cc2)c[n-]1 (optimized conformer: 37.93854270971299 kcal/mol)

>  <smiles>  (54) 
C=CCN=c1ccc(C(=O)NCc2ccc([N+](=O)[O-])cc2)c[nH]1

>  <score_type>  (54) 
oracle

>  <origin>  (54) 
adg

>  <m_score__min__energy>  (54) 
-8.7400000000000002

>  <m_primary>  (54) 
energy

$$$$
54:0
     RDKit          3D

 43 44  0  0  0  0  0  0  0  0999 V2000
   57.7610   31.8980   42.6070 C   0  0  0  0  0  0  0  0  0  0  0  0
   56.9800   30.8250   42.7080 C   0  0  0  0  0  0  0  0  0  0  0  0
   56.8240   30.0670   43.9660 C   0  0  0  0  0  0  0  0  0  0  0  0
   55.8910   30.3760   44.7540 O   0  0  0  0  0  0  0  0  0  0  0  0
   57.7100   28.9900   44.3090 N   0  0  0  0  0  0  0  0  0  0  0  0
   57.8100   27.8540   43.3940 C   0  0  0  0  0  0  0  0  0  0  0  0
   58.6380   29.1390   45.4380 C   0  0  0  0  0  0  0  0  0  0  0  0
   58.2190   28.2780   46.6550 C   0  0  0  0  0  0  0  0  0  0  0  0
   59.2970   28.0120   47.6350 N   0  0  0  0  0  0  0  0  0  0  0  0
   59.8950   26.6760   47.4980 C   0  0  0  0  0  0  0  0  0  0  0  0
   60.3110   29.0880   47.7020 C   0  0  0  0  0  0  0  0  0  0  0  0
   59.7960   30.2740   48.5270 C   0  0  0  0  0  0  0  0  0  0  0  0
   59.4310   31.3870   47.6540 N   0  0  0  0  0  0  0  0  0  0  0  0
   60.2880   32.3170   47.1680 C   0  0  0  0  0  0  0  0  0  0  0  0
   59.5570   33.1540   46.3580 C   0  0  0  0  0  0  0  0  0  0  0  0
   59.9100   34.2740   45.6080 C   0  0  0  0  0  0  0  0  0  0  0  0
   58.8900   34.9140   44.8770 C   0  0  0  0  0  0  0  0  0  0  0  0
   57.5650   34.4220   44.9170 C   0  0  0  0  0  0  0  0  0  0  0  0
   57.2460   33.2830   45.6830 C   0  0  0  0  0  0  0  0  0  0  0  0
   58.2760   32.6740   46.3950 C   0  0  0  0  0  0  0  0  0  0  0  0
   58.2040   31.5880   47.1860 N   0  0  0  0  0  0  0  0  0  0  0  0
   57.8443   32.4292   41.6474 H   0  0  0  0  0  0  0  0  0  0  0  0
   58.3231   32.2536   43.4831 H   0  0  0  0  0  0  0  0  0  0  0  0
   56.4280   30.4889   41.8179 H   0  0  0  0  0  0  0  0  0  0  0  0
   57.8920   26.9226   43.9734 H   0  0  0  0  0  0  0  0  0  0  0  0
   56.9119   27.8136   42.7601 H   0  0  0  0  0  0  0  0  0  0  0  0
   58.7013   27.9711   42.7601 H   0  0  0  0  0  0  0  0  0  0  0  0
   59.6428   28.8300   45.1142 H   0  0  0  0  0  0  0  0  0  0  0  0
   58.6254   30.1939   45.7494 H   0  0  0  0  0  0  0  0  0  0  0  0
   57.4040   28.8000   47.1777 H   0  0  0  0  0  0  0  0  0  0  0  0
   57.9226   27.2987   46.2510 H   0  0  0  0  0  0  0  0  0  0  0  0
   60.0836   26.2546   48.4964 H   0  0  0  0  0  0  0  0  0  0  0  0
   59.2046   26.0200   46.9475 H   0  0  0  0  0  0  0  0  0  0  0  0
   60.8442   26.7538   46.9475 H   0  0  0  0  0  0  0  0  0  0  0  0
   61.2248   28.6932   48.1702 H   0  0  0  0  0  0  0  0  0  0  0  0
   60.5227   29.4359   46.6802 H   0  0  0  0  0  0  0  0  0  0  0  0
   58.9116   29.9589   49.1002 H   0  0  0  0  0  0  0  0  0  0  0  0
   60.5932   30.6046   49.2091 H   0  0  0  0  0  0  0  0  0  0  0  0
   61.3648   32.3889   47.3810 H   0  0  0  0  0  0  0  0  0  0  0  0
   60.9456   34.6443   45.5875 H   0  0  0  0  0  0  0  0  0  0  0  0
   59.1257   35.8016   44.2716 H   0  0  0  0  0  0  0  0  0  0  0  0
   56.7763   34.9328   44.3452 H   0  0  0  0  0  0  0  0  0  0  0  0
   56.2196   32.8890   45.7172 H   0  0  0  0  0  0  0  0  0  0  0  0
  1  2  2  0
  2  3  1  0
  3  4  2  0
  3  5  1  0
  5  6  1  0
  5  7  1  0
  7  8  1  0
  8  9  1  0
  9 10  1  0
  9 11  1  0
 11 12  1  0
 12 13  1  0
 13 14  1  0
 14 15  2  0
 15 16  1  0
 16 17  2  0
 17 18  1  0
 18 19  2  0
 19 20  1  0
 20 21  2  0
 21 13  1  0
 20 15  1  0
  1 22  1  0
  1 23  1  0
  2 24  1  0
  6 25  1  0
  6 26  1  0
  6 27  1  0
  7 28  1  0
  7 29  1  0
  8 30  1  0
  8 31  1  0
 10 32  1  0
 10 33  1  0
 10 34  1  0
 11 35  1  0
 11 36  1  0
 12 37  1  0
 12 38  1  0
 14 39  1  0
 16 40  1  0
 17 41  1  0
 18 42  1  0
 19 43  1  0
M  END
>  <UniqueID>  (55) 
52

>  <SMILES>  (55) 
C=CC(=O)N(C)CCN(C)CCn1cc2ccccc2n1

>  <Energy>  (55) 
83.66571915554199

>  <Genealogy>  (55) 
C=CC(=O)N(C)CCN(C)CCn1cc2ccccc2n1 (3D coordinates assigned)
C=CC(=O)N(C)CCN(C)CCn1cc2ccccc2n1 (optimized conformer: 83.66571915554199 kcal/mol)

>  <smiles>  (55) 
C=CC(=O)N(C)CCN(C)CCn1cc2ccccc2n1

>  <score_type>  (55) 
oracle

>  <origin>  (55) 
adg

>  <m_score__min__energy>  (55) 
-7.21

>  <m_primary>  (55) 
energy

$$$$
55:0
     RDKit          3D

 59 62  0  0  0  0  0  0  0  0999 V2000
   56.2140   30.8490   44.6630 O   0  0  0  0  0  0  0  0  0  0  0  0
   57.4310   31.1650   44.5540 C   0  0  0  0  0  0  0  0  0  0  0  0
   57.8330   32.5600   44.1570 C   0  0  0  0  0  0  0  0  0  0  0  0
   58.6810   33.2020   45.1860 N   0  0  0  0  0  0  0  0  0  0  0  0
   58.0060   33.1630   46.4950 C   0  0  0  0  0  0  0  0  0  0  0  0
   58.9480   33.6650   47.6120 C   0  0  0  0  0  0  0  0  0  0  0  0
   60.0710   34.4870   47.1100 N   0  0  0  0  0  0  0  0  0  0  0  0
   61.2560   33.6700   46.7640 C   0  0  0  0  0  0  0  0  0  0  0  0
   62.2110   33.5790   47.9260 C   0  0  0  0  0  0  0  0  0  0  0  0
   63.3970   32.8320   47.8180 C   0  0  0  0  0  0  0  0  0  0  0  0
   64.2870   32.7580   48.8970 C   0  0  0  0  0  0  0  0  0  0  0  0
   64.0000   33.4330   50.0860 C   0  0  0  0  0  0  0  0  0  0  0  0
   62.8250   34.1830   50.1980 C   0  0  0  0  0  0  0  0  0  0  0  0
   61.9300   34.2530   49.1250 C   0  0  0  0  0  0  0  0  0  0  0  0
   59.6310   35.3760   46.0130 C   0  0  0  0  0  0  0  0  0  0  0  0
   59.0090   34.6020   44.8260 C   0  0  0  0  0  0  0  0  0  0  0  0
   58.4420   30.1600   44.6900 N   0  0  0  0  0  0  0  0  0  0  0  0
   58.8680   29.6480   45.8150 C   0  0  0  0  0  0  0  0  0  0  0  0
   59.7880   30.3260   46.6440 C   0  0  0  0  0  0  0  0  0  0  0  0
   60.2520   29.7140   47.8110 C   0  0  0  0  0  0  0  0  0  0  0  0
   59.8090   28.4780   48.1540 N   0  0  0  0  0  0  0  0  0  0  0  0
   58.9170   27.8010   47.3880 C   0  0  0  0  0  0  0  0  0  0  0  0
   58.4330   28.3600   46.1910 C   0  0  0  0  0  0  0  0  0  0  0  0
   57.2260   27.4870   45.2290 S   0  0  0  0  0  0  0  0  0  0  0  0
   55.9440   28.2750   45.2500 O   0  0  0  0  0  0  0  0  0  0  0  0
   57.7210   27.3370   43.8170 O   0  0  0  0  0  0  0  0  0  0  0  0
   56.9440   25.9140   45.9000 N   0  0  0  0  0  0  0  0  0  0  0  0
   57.4600   24.6840   45.3730 C   0  0  0  0  0  0  0  0  0  0  0  0
   56.6960   23.9900   44.4290 C   0  0  0  0  0  0  0  0  0  0  0  0
   57.1620   22.7890   43.8830 C   0  0  0  0  0  0  0  0  0  0  0  0
   58.4010   22.2760   44.2750 C   0  0  0  0  0  0  0  0  0  0  0  0
   59.1720   22.9580   45.2260 C   0  0  0  0  0  0  0  0  0  0  0  0
   60.4110   22.4610   45.6220 O   0  0  0  0  0  0  0  0  0  0  0  0
   58.6980   24.1560   45.7810 C   0  0  0  0  0  0  0  0  0  0  0  0
   58.3939   32.5134   43.2119 H   0  0  0  0  0  0  0  0  0  0  0  0
   56.9181   33.1604   44.0450 H   0  0  0  0  0  0  0  0  0  0  0  0
   57.1135   33.8051   46.4600 H   0  0  0  0  0  0  0  0  0  0  0  0
   57.7209   32.1235   46.7143 H   0  0  0  0  0  0  0  0  0  0  0  0
   58.3604   34.2713   48.3170 H   0  0  0  0  0  0  0  0  0  0  0  0
   59.3854   32.7765   48.0908 H   0  0  0  0  0  0  0  0  0  0  0  0
   60.9262   32.6570   46.4900 H   0  0  0  0  0  0  0  0  0  0  0  0
   61.7762   34.1488   45.9213 H   0  0  0  0  0  0  0  0  0  0  0  0
   63.6272   32.3030   46.8814 H   0  0  0  0  0  0  0  0  0  0  0  0
   65.2116   32.1687   48.8082 H   0  0  0  0  0  0  0  0  0  0  0  0
   64.6982   33.3745   50.9340 H   0  0  0  0  0  0  0  0  0  0  0  0
   62.6038   34.7195   51.1325 H   0  0  0  0  0  0  0  0  0  0  0  0
   61.0034   34.8379   49.2211 H   0  0  0  0  0  0  0  0  0  0  0  0
   58.8802   36.0762   46.4079 H   0  0  0  0  0  0  0  0  0  0  0  0
   60.5207   35.9013   45.6357 H   0  0  0  0  0  0  0  0  0  0  0  0
   58.0868   35.1134   44.5129 H   0  0  0  0  0  0  0  0  0  0  0  0
   59.7478   34.5789   44.0113 H   0  0  0  0  0  0  0  0  0  0  0  0
   60.1382   31.3326   46.3720 H   0  0  0  0  0  0  0  0  0  0  0  0
   60.9777   30.2349   48.4529 H   0  0  0  0  0  0  0  0  0  0  0  0
   58.5693   26.8068   47.7054 H   0  0  0  0  0  0  0  0  0  0  0  0
   55.7216   24.3914   44.1135 H   0  0  0  0  0  0  0  0  0  0  0  0
   56.5522   22.2481   43.1443 H   0  0  0  0  0  0  0  0  0  0  0  0
   58.7712   21.3372   43.8374 H   0  0  0  0  0  0  0  0  0  0  0  0
   61.0800   22.1060   44.9490 H   0  0  0  0  0  0  0  0  0  0  0  0
   59.2966   24.6842   46.5378 H   0  0  0  0  0  0  0  0  0  0  0  0
  1  2  2  0
  2  3  1  0
  3  4  1  0
  4  5  1  0
  5  6  1  0
  6  7  1  0
  7  8  1  0
  8  9  1  0
  9 10  2  0
 10 11  1  0
 11 12  2  0
 12 13  1  0
 13 14  2  0
  7 15  1  0
 15 16  1  0
  2 17  1  0
 17 18  2  3
 18 19  1  0
 19 20  2  0
 20 21  1  0
 21 22  1  0
 22 23  2  0
 23 24  1  0
 24 25  2  0
 24 26  2  0
 24 27  1  0
 27 28  1  0
 28 29  2  0
 29 30  1  0
 30 31  2  0
 31 32  1  0
 32 33  1  0
 32 34  2  0
 16  4  1  0
 23 18  1  0
 34 28  1  0
 14  9  1  0
  3 35  1  0
  3 36  1  0
  5 37  1  0
  5 38  1  0
  6 39  1  0
  6 40  1  0
  8 41  1  0
  8 42  1  0
 10 43  1  0
 11 44  1  0
 12 45  1  0
 13 46  1  0
 14 47  1  0
 15 48  1  0
 15 49  1  0
 16 50  1  0
 16 51  1  0
 19 52  1  0
 20 53  1  0
 22 54  1  0
 29 55  1  0
 30 56  1  0
 31 57  1  0
 33 58  1  0
 34 59  1  0
M  CHG  2  21  -1  27  -1
M  END
>  <UniqueID>  (56) 
53

>  <SMILES>  (56) 
O=C(CN1CCN(Cc2ccccc2)CC1)N=c1cc[n-]cc1S(=O)(=O)[N-]c1cccc(O)c1

>  <Energy>  (56) 
89.69844260648105

>  <Genealogy>  (56) 
O=C(CN1CCN(Cc2ccccc2)CC1)N=c1cc[n-]cc1S(=O)(=O)[N-]c1cccc(O)c1 (protonated)
O=C(CN1CCN(Cc2ccccc2)CC1)N=c1cc[n-]cc1S(=O)(=O)[N-]c1cccc(O)c1 (3D coordinates assigned)
O=C(CN1CCN(Cc2ccccc2)CC1)N=c1cc[n-]cc1S(=O)(=O)[N-]c1cccc(O)c1 (nonaromatic ring conformer: 89.69844260648105 kcal/mol)

>  <smiles>  (56) 
O=C(CN1CCN(Cc2ccccc2)CC1)N=c1cc[nH]cc1S(=O)(=O)Nc1cccc(O)c1

>  <score_type>  (56) 
oracle

>  <origin>  (56) 
adg

>  <m_score__min__energy>  (56) 
-13.949999999999999

>  <m_primary>  (56) 
energy

$$$$
56:0
     RDKit          3D

 55 58  0  0  0  0  0  0  0  0999 V2000
   54.5727   29.0968   44.6126 H   0  0  0  0  0  0  0  0  0  0  0  0
   55.6380   29.3540   44.7070 C   0  0  0  0  0  0  0  0  0  0  0  0
   56.1390   30.6060   44.6760 N   0  0  0  0  0  0  0  0  0  0  0  0
   57.4560   30.5250   44.8040 N   0  0  0  0  0  0  0  0  0  0  0  0
   58.3480   31.6890   44.8820 C   0  0  2  0  0  0  0  0  0  0  0  0
   59.1387   31.5894   44.1238 H   0  0  0  0  0  0  0  0  0  0  0  0
   59.0410   31.7420   46.2630 C   0  0  0  0  0  0  0  0  0  0  0  0
   60.0721   32.1018   46.1312 H   0  0  0  0  0  0  0  0  0  0  0  0
   59.0295   30.7293   46.6922 H   0  0  0  0  0  0  0  0  0  0  0  0
   58.3050   32.6820   47.2310 C   0  0  0  0  0  0  0  0  0  0  0  0
   58.8523   32.7016   48.1850 H   0  0  0  0  0  0  0  0  0  0  0  0
   57.2826   32.2949   47.3527 H   0  0  0  0  0  0  0  0  0  0  0  0
   58.1960   34.0790   46.7160 N   0  0  1  0  0  0  0  0  0  0  0  0
   57.2410   34.4120   46.9930 H   0  0  0  0  0  0  0  0  0  0  0  0
   59.1380   35.0210   47.3790 C   0  0  0  0  0  0  0  0  0  0  0  0
   58.6820   35.3602   48.3208 H   0  0  0  0  0  0  0  0  0  0  0  0
   59.3136   35.8450   46.6718 H   0  0  0  0  0  0  0  0  0  0  0  0
   60.4870   34.4220   47.6940 C   0  0  0  0  0  0  0  0  0  0  0  0
   61.0160   34.1970   48.9530 C   0  0  0  0  0  0  0  0  0  0  0  0
   60.5329   34.4005   49.9201 H   0  0  0  0  0  0  0  0  0  0  0  0
   62.2740   33.6650   48.7480 C   0  0  0  0  0  0  0  0  0  0  0  0
   63.2400   33.2950   49.8330 C   0  0  0  0  0  0  0  0  0  0  0  0
   62.7753   33.4730   50.8140 H   0  0  0  0  0  0  0  0  0  0  0  0
   63.5055   32.2315   49.7406 H   0  0  0  0  0  0  0  0  0  0  0  0
   64.1480   33.9090   49.7406 H   0  0  0  0  0  0  0  0  0  0  0  0
   62.5140   33.5290   47.4260 N   0  0  0  0  0  0  0  0  0  0  0  0
   63.7520   33.0690   46.8020 C   0  0  0  0  0  0  0  0  0  0  0  0
   64.4781   32.7992   47.5831 H   0  0  0  0  0  0  0  0  0  0  0  0
   63.5423   32.1888   46.1765 H   0  0  0  0  0  0  0  0  0  0  0  0
   64.1679   33.8726   46.1765 H   0  0  0  0  0  0  0  0  0  0  0  0
   61.4310   33.9940   46.7760 C   0  0  0  0  0  0  0  0  0  0  0  0
   61.3138   34.0287   45.6828 H   0  0  0  0  0  0  0  0  0  0  0  0
   58.2470   34.1910   45.2330 C   0  0  0  0  0  0  0  0  0  0  0  0
   59.2985   34.2402   44.9138 H   0  0  0  0  0  0  0  0  0  0  0  0
   57.7057   35.1013   44.9359 H   0  0  0  0  0  0  0  0  0  0  0  0
   57.5770   32.9900   44.5580 C   0  0  0  0  0  0  0  0  0  0  0  0
   57.5687   33.1446   43.4689 H   0  0  0  0  0  0  0  0  0  0  0  0
   56.5477   32.8977   44.9349 H   0  0  0  0  0  0  0  0  0  0  0  0
   57.8010   29.2280   44.9360 C   0  0  0  0  0  0  0  0  0  0  0  0
   59.0200   28.8230   45.1490 N   0  0  0  0  0  0  0  0  0  0  0  0
   59.4720   28.1250   46.3170 C   0  0  0  0  0  0  0  0  0  0  0  0
   59.4720   26.8660   46.3030 O   0  0  0  0  0  0  0  0  0  0  0  0
   59.8950   28.8400   47.5460 C   0  0  0  0  0  0  0  0  0  0  0  0
   59.2210   28.5970   48.7590 C   0  0  0  0  0  0  0  0  0  0  0  0
   58.3911   27.8756   48.7862 H   0  0  0  0  0  0  0  0  0  0  0  0
   59.5970   29.2640   49.9280 C   0  0  0  0  0  0  0  0  0  0  0  0
   59.0680   29.0624   50.8711 H   0  0  0  0  0  0  0  0  0  0  0  0
   60.6440   30.1860   49.8980 C   0  0  0  0  0  0  0  0  0  0  0  0
   60.9424   30.7087   50.8187 H   0  0  0  0  0  0  0  0  0  0  0  0
   61.3140   30.4460   48.6990 C   0  0  0  0  0  0  0  0  0  0  0  0
   62.1370   31.1756   48.6789 H   0  0  0  0  0  0  0  0  0  0  0  0
   60.9430   29.7830   47.5250 C   0  0  0  0  0  0  0  0  0  0  0  0
   61.5830   30.0930   46.3680 F   0  0  0  0  0  0  0  0  0  0  0  0
   56.6630   28.4430   44.8750 C   0  0  0  0  0  0  0  0  0  0  0  0
   56.5912   27.3475   44.9442 H   0  0  0  0  0  0  0  0  0  0  0  0
  1  2  1  0
  2  3  1  0
  3  4  1  0
  4  5  1  0
  5  6  1  6
  5  7  1  0
  7  8  1  0
  7  9  1  0
  7 10  1  0
 10 11  1  0
 10 12  1  0
 10 13  1  0
 13 14  1  1
 13 15  1  0
 15 16  1  0
 15 17  1  0
 15 18  1  0
 18 19  1  0
 19 20  1  0
 19 21  2  0
 21 22  1  0
 22 23  1  0
 22 24  1  0
 22 25  1  0
 21 26  1  0
 26 27  1  0
 27 28  1  0
 27 29  1  0
 27 30  1  0
 26 31  1  0
 31 32  1  0
 13 33  1  0
 33 34  1  0
 33 35  1  0
 33 36  1  0
 36 37  1  0
 36 38  1  0
  4 39  1  0
 39 40  2  0
 40 41  1  0
 41 42  2  0
 41 43  1  0
 43 44  2  0
 44 45  1  0
 44 46  1  0
 46 47  1  0
 46 48  2  0
 48 49  1  0
 48 50  1  0
 50 51  1  0
 50 52  2  0
 52 53  1  0
 39 54  1  0
 54 55  1  0
 54  2  2  0
 36  5  1  0
 52 43  1  0
 31 18  2  0
M  CHG  2   3  -1  13   1
M  END
>  <UniqueID>  (57) 
54

>  <SMILES>  (57) 
Cc1cc(C[NH+]2CCC(n3[n-]cc/c3=N\C(=O)c3ccccc3F)CC2)cn1C

>  <Energy>  (57) 
132.8410260778353

>  <Genealogy>  (57) 
Cc1cc(C[NH+]2CCC(n3[n-]ccc3=NC(=O)c3ccccc3F)CC2)cn1C (protonated)
Cc1cc(C[NH+]2CCC(n3[n-]cc/c3=N\C(=O)c3ccccc3F)CC2)cn1C (cis-trans isomerization)
Cc1cc(C[NH+]2CCC(n3[n-]cc/c3=N\C(=O)c3ccccc3F)CC2)cn1C (3D coordinates assigned)
Cc1cc(C[NH+]2CCC(n3[n-]cc/c3=N\C(=O)c3ccccc3F)CC2)cn1C (nonaromatic ring conformer: 132.8410260778353 kcal/mol)

>  <smiles>  (57) 
Cc1cc(CN2CCC(n3[nH]ccc3=NC(=O)c3ccccc3F)CC2)cn1C

>  <score_type>  (57) 
oracle

>  <origin>  (57) 
adg

>  <m_score__min__energy>  (57) 
-8.1699999999999999

>  <m_primary>  (57) 
energy

$$$$
57:0
     RDKit          3D

 52 56  0  0  0  0  0  0  0  0999 V2000
   56.6440   30.4530   45.6880 H   0  0  0  0  0  0  0  0  0  0  0  0
   56.5570   29.6300   45.1060 O   0  0  0  0  0  0  0  0  0  0  0  0
   56.6500   28.3490   45.6420 C   0  0  0  0  0  0  0  0  0  0  0  0
   55.6510   27.4520   45.5920 N   0  0  0  0  0  0  0  0  0  0  0  0
   56.1880   26.3730   46.2010 C   0  0  0  0  0  0  0  0  0  0  0  0
   55.5560   25.2960   46.3540 O   0  0  0  0  0  0  0  0  0  0  0  0
   57.4590   26.5360   46.6250 N   0  0  0  0  0  0  0  0  0  0  0  0
   57.7390   27.8090   46.2880 C   0  0  0  0  0  0  0  0  0  0  0  0
   59.0670   28.4320   46.4210 C   0  0  0  0  0  0  0  0  0  0  0  0
   59.5485   28.7923   45.4999 H   0  0  0  0  0  0  0  0  0  0  0  0
   59.7420   28.5980   47.5750 C   0  0  0  0  0  0  0  0  0  0  0  0
   60.1740   29.8360   48.0170 C   0  0  0  0  0  0  0  0  0  0  0  0
   59.9759   30.8069   47.5393 H   0  0  0  0  0  0  0  0  0  0  0  0
   60.9000   29.6220   49.1700 C   0  0  0  0  0  0  0  0  0  0  0  0
   61.6000   30.6870   49.9160 C   0  0  0  0  0  0  0  0  0  0  0  0
   61.5370   30.6860   51.1760 O   0  0  0  0  0  0  0  0  0  0  0  0
   62.3560   31.7070   49.2310 N   0  0  0  0  0  0  0  0  0  0  0  0
   62.0740   32.0340   47.8280 C   0  0  0  0  0  0  0  0  0  0  0  0
   62.6171   31.3327   47.1774 H   0  0  0  0  0  0  0  0  0  0  0  0
   60.9906   31.9522   47.6561 H   0  0  0  0  0  0  0  0  0  0  0  0
   62.5190   33.4690   47.5060 C   0  0  0  0  0  0  0  0  0  0  0  0
   63.6015   33.4732   47.3105 H   0  0  0  0  0  0  0  0  0  0  0  0
   61.9628   33.8152   46.6224 H   0  0  0  0  0  0  0  0  0  0  0  0
   62.2280   34.3880   48.6320 N   0  0  0  0  0  0  0  0  0  0  0  0
   60.7760   34.5330   48.9060 C   0  0  2  0  0  0  0  0  0  0  0  0
   60.6786   35.4909   49.4379 H   0  0  0  0  0  0  0  0  0  0  0  0
   60.2640   33.4110   49.6470 O   0  0  0  0  0  0  0  0  0  0  0  0
   59.2960   32.7360   48.9140 C   0  0  0  0  0  0  0  0  0  0  0  0
   58.6810   31.7160   49.3180 O   0  0  0  0  0  0  0  0  0  0  0  0
   59.1180   33.3910   47.6460 C   0  0  0  0  0  0  0  0  0  0  0  0
   59.9800   34.4510   47.6260 C   0  0  0  0  0  0  0  0  0  0  0  0
   60.0270   35.2930   46.5630 N   0  0  0  0  0  0  0  0  0  0  0  0
   59.2080   35.0620   45.4940 C   0  0  0  0  0  0  0  0  0  0  0  0
   59.2450   35.8320   44.4990 O   0  0  0  0  0  0  0  0  0  0  0  0
   58.3440   33.9990   45.4990 N   0  0  0  0  0  0  0  0  0  0  0  0
   58.2790   33.1520   46.5640 C   0  0  0  0  0  0  0  0  0  0  0  0
   57.4760   32.1810   46.5610 O   0  0  0  0  0  0  0  0  0  0  0  0
   62.9910   34.0160   49.8560 C   0  0  0  0  0  0  0  0  0  0  0  0
   63.9249   34.5970   49.8706 H   0  0  0  0  0  0  0  0  0  0  0  0
   62.3396   34.2363   50.7146 H   0  0  0  0  0  0  0  0  0  0  0  0
   63.3510   32.5180   49.9440 C   0  0  0  0  0  0  0  0  0  0  0  0
   64.3407   32.3564   49.4920 H   0  0  0  0  0  0  0  0  0  0  0  0
   63.3634   32.2167   51.0019 H   0  0  0  0  0  0  0  0  0  0  0  0
   60.9090   28.3040   49.4840 N   0  0  0  0  0  0  0  0  0  0  0  0
   61.4640   27.6980   50.7000 C   0  0  0  0  0  0  0  0  0  0  0  0
   61.0223   28.1803   51.5845 H   0  0  0  0  0  0  0  0  0  0  0  0
   61.2305   26.6232   50.7135 H   0  0  0  0  0  0  0  0  0  0  0  0
   62.5552   27.8364   50.7135 H   0  0  0  0  0  0  0  0  0  0  0  0
   60.1720   27.6680   48.5350 C   0  0  0  0  0  0  0  0  0  0  0  0
   59.8170   26.3760   48.6240 C   0  0  0  0  0  0  0  0  0  0  0  0
   60.2265   25.7472   49.4283 H   0  0  0  0  0  0  0  0  0  0  0  0
   59.1167   25.9464   47.8926 H   0  0  0  0  0  0  0  0  0  0  0  0
  1  2  1  0
  2  3  1  0
  3  4  1  0
  4  5  1  0
  5  6  2  0
  5  7  1  0
  7  8  1  0
  8  9  1  0
  9 10  1  0
  9 11  2  0
 11 12  1  0
 12 13  1  0
 12 14  2  0
 14 15  1  0
 15 16  2  0
 15 17  1  0
 17 18  1  0
 18 19  1  0
 18 20  1  0
 18 21  1  0
 21 22  1  0
 21 23  1  0
 21 24  1  0
 24 25  1  0
 25 26  1  1
 25 27  1  0
 27 28  1  0
 28 29  2  0
 28 30  1  0
 30 31  2  0
 31 32  1  0
 32 33  1  0
 33 34  2  0
 33 35  1  0
 35 36  1  0
 36 37  2  0
 24 38  1  0
 38 39  1  0
 38 40  1  0
 38 41  1  0
 41 42  1  0
 41 43  1  0
 14 44  1  0
 44 45  1  0
 45 46  1  0
 45 47  1  0
 45 48  1  0
 44 49  1  0
 49 50  2  0
 50 51  1  0
 50 52  1  0
  8  3  2  0
 49 11  1  0
 41 17  1  0
 31 25  1  0
 36 30  1  0
M  CHG  4   4  -1   7  -1  32  -1  35  -1
M  END
>  <UniqueID>  (58) 
55

>  <SMILES>  (58) 
C=c1/c(=C\c2[n-]c(=O)[n-]c2O)cc(C(=O)N2CCN([C@@H]3OC(=O)c4c3[n-]c(=O)[n-]c4=O)CC2)n1C

>  <Energy>  (58) 
169.46656759580128

>  <Genealogy>  (58) 
C=c1c(=Cc2[n-]c(=O)[n-]c2O)cc(C(=O)N2CCN(C3OC(=O)c4c3[n-]c(=O)[n-]c4=O)CC2)n1C (protonated)
C=c1c(=Cc2[n-]c(=O)[n-]c2O)cc(C(=O)N2CCN([C@@H]3OC(=O)c4c3[n-]c(=O)[n-]c4=O)CC2)n1C (chirality)
C=c1/c(=C\c2[n-]c(=O)[n-]c2O)cc(C(=O)N2CCN([C@@H]3OC(=O)c4c3[n-]c(=O)[n-]c4=O)CC2)n1C (cis-trans isomerization)
C=c1/c(=C\c2[n-]c(=O)[n-]c2O)cc(C(=O)N2CCN([C@@H]3OC(=O)c4c3[n-]c(=O)[n-]c4=O)CC2)n1C (3D coordinates assigned)
C=c1/c(=C\c2[n-]c(=O)[n-]c2O)cc(C(=O)N2CCN([C@@H]3OC(=O)c4c3[n-]c(=O)[n-]c4=O)CC2)n1C (nonaromatic ring conformer: 169.46656759580128 kcal/mol)

>  <smiles>  (58) 
C=c1c(=Cc2[nH]c(=O)[nH]c2O)cc(C(=O)N2CCN(C3OC(=O)c4c3[nH]c(=O)[nH]c4=O)CC2)n1C

>  <score_type>  (58) 
oracle

>  <origin>  (58) 
adg

>  <m_score__min__energy>  (58) 
-16.010000000000002

>  <m_primary>  (58) 
energy

$$$$
58:0
     RDKit          3D

 30 32  0  0  0  0  0  0  0  0999 V2000
   55.5750   22.4980   42.4250 O   0  0  0  0  0  0  0  0  0  0  0  0
   56.1860   23.2100   43.2650 C   0  0  0  0  0  0  0  0  0  0  0  0
   56.6490   22.6610   44.5590 C   0  0  0  0  0  0  0  0  0  0  0  0
   57.0590   21.3170   44.5780 C   0  0  0  0  0  0  0  0  0  0  0  0
   57.4150   20.6950   45.7760 C   0  0  0  0  0  0  0  0  0  0  0  0
   57.3690   21.4080   46.9730 C   0  0  0  0  0  0  0  0  0  0  0  0
   57.7140   20.7840   48.1650 O   0  0  0  0  0  0  0  0  0  0  0  0
   56.9850   22.7500   46.9730 C   0  0  0  0  0  0  0  0  0  0  0  0
   56.6410   23.4010   45.7730 C   0  0  0  0  0  0  0  0  0  0  0  0
   56.3590   24.8540   45.8210 C   0  0  0  0  0  0  0  0  0  0  0  0
   57.2430   25.8650   45.5010 C   0  0  0  0  0  0  0  0  0  0  0  0
   56.4960   27.0220   45.6330 C   0  0  0  0  0  0  0  0  0  0  0  0
   56.9570   28.4150   45.4130 C   0  0  0  0  0  0  0  0  0  0  0  0
   56.2600   29.2510   44.5210 C   0  0  0  0  0  0  0  0  0  0  0  0
   56.6830   30.5650   44.3030 C   0  0  0  0  0  0  0  0  0  0  0  0
   57.8030   31.0610   44.9710 C   0  0  0  0  0  0  0  0  0  0  0  0
   58.5070   30.2430   45.8590 C   0  0  0  0  0  0  0  0  0  0  0  0
   60.0410   30.9240   46.7710 Br  0  0  0  0  0  0  0  0  0  0  0  0
   58.0880   28.9270   46.0810 C   0  0  0  0  0  0  0  0  0  0  0  0
   55.2380   26.6990   45.9970 N   0  0  0  0  0  0  0  0  0  0  0  0
   55.1530   25.3820   46.1030 N   0  0  0  0  0  0  0  0  0  0  0  0
   56.3806   24.2671   43.0309 H   0  0  0  0  0  0  0  0  0  0  0  0
   57.0999   20.7481   43.6374 H   0  0  0  0  0  0  0  0  0  0  0  0
   57.7320   19.6417   45.7754 H   0  0  0  0  0  0  0  0  0  0  0  0
   56.9508   23.3055   47.9218 H   0  0  0  0  0  0  0  0  0  0  0  0
   58.2992   25.7720   45.2082 H   0  0  0  0  0  0  0  0  0  0  0  0
   55.3756   28.8673   43.9913 H   0  0  0  0  0  0  0  0  0  0  0  0
   56.1315   31.2099   43.6030 H   0  0  0  0  0  0  0  0  0  0  0  0
   58.1321   32.0964   44.7987 H   0  0  0  0  0  0  0  0  0  0  0  0
   58.6448   28.2873   46.7815 H   0  0  0  0  0  0  0  0  0  0  0  0
  1  2  2  0
  2  3  1  0
  3  4  2  0
  4  5  1  0
  5  6  2  0
  6  7  1  0
  6  8  1  0
  8  9  2  0
  9 10  1  0
 10 11  1  0
 11 12  2  0
 12 13  1  0
 13 14  2  0
 14 15  1  0
 15 16  2  0
 16 17  1  0
 17 18  1  0
 17 19  2  0
 12 20  1  0
 20 21  1  0
  9  3  1  0
 21 10  2  0
 19 13  1  0
  2 22  1  0
  4 23  1  0
  5 24  1  0
  8 25  1  0
 11 26  1  0
 14 27  1  0
 15 28  1  0
 16 29  1  0
 19 30  1  0
M  CHG  2   7  -1  20  -1
M  END
>  <UniqueID>  (59) 
56

>  <SMILES>  (59) 
O=Cc1ccc([O-])cc1-c1cc(-c2cccc(Br)c2)[n-]n1

>  <Energy>  (59) 
72.4568642580646

>  <Genealogy>  (59) 
O=Cc1ccc([O-])cc1-c1cc(-c2cccc(Br)c2)[n-]n1 (protonated)
O=Cc1ccc([O-])cc1-c1cc(-c2cccc(Br)c2)[n-]n1 (3D coordinates assigned)
O=Cc1ccc([O-])cc1-c1cc(-c2cccc(Br)c2)[n-]n1 (optimized conformer: 72.4568642580646 kcal/mol)

>  <smiles>  (59) 
O=Cc1ccc(O)cc1-c1cc(-c2cccc(Br)c2)[nH]n1

>  <score_type>  (59) 
oracle

>  <origin>  (59) 
adg

>  <m_score__min__energy>  (59) 
-12.23

>  <m_primary>  (59) 
energy

$$$$
59:0
     RDKit          3D

 50 53  0  0  0  0  0  0  0  0999 V2000
   57.4018   34.9775   44.0046 H   0  0  0  0  0  0  0  0  0  0  0  0
   57.8930   34.5160   44.8740 C   0  0  0  0  0  0  0  0  0  0  0  0
   57.1400   33.7810   45.7930 C   0  0  0  0  0  0  0  0  0  0  0  0
   56.0559   33.6651   45.6470 H   0  0  0  0  0  0  0  0  0  0  0  0
   57.7630   33.1920   46.8990 C   0  0  0  0  0  0  0  0  0  0  0  0
   57.1664   32.6158   47.6215 H   0  0  0  0  0  0  0  0  0  0  0  0
   59.1480   33.3340   47.0900 C   0  0  0  0  0  0  0  0  0  0  0  0
   59.8170   32.7560   48.3080 C   0  0  0  0  0  0  0  0  0  0  0  0
   59.3228   33.1404   49.2124 H   0  0  0  0  0  0  0  0  0  0  0  0
   60.8776   33.0477   48.3110 H   0  0  0  0  0  0  0  0  0  0  0  0
   59.7190   31.2930   48.2850 N   0  0  0  0  0  0  0  0  0  0  0  0
   59.1150   30.6850   49.3110 N   0  0  0  0  0  0  0  0  0  0  0  0
   58.9110   29.3450   49.3430 C   0  0  0  0  0  0  0  0  0  0  0  0
   58.4301   28.8787   50.2155 H   0  0  0  0  0  0  0  0  0  0  0  0
   59.3140   28.5640   48.2650 C   0  0  0  0  0  0  0  0  0  0  0  0
   59.0460   27.2320   48.2470 N   0  0  0  0  0  0  0  0  0  0  0  0
   59.3770   26.4660   47.1760 C   0  0  0  0  0  0  0  0  0  0  0  0
   58.9950   25.2230   47.1370 N   0  0  0  0  0  0  0  0  0  0  0  0
   58.9960   24.3860   45.9320 C   0  0  0  0  0  0  0  0  0  0  0  0
   59.1019   23.3317   46.2273 H   0  0  0  0  0  0  0  0  0  0  0  0
   59.8362   24.6956   45.2931 H   0  0  0  0  0  0  0  0  0  0  0  0
   57.6890   24.5560   45.1360 C   0  0  0  0  0  0  0  0  0  0  0  0
   56.8491   24.2064   45.7543 H   0  0  0  0  0  0  0  0  0  0  0  0
   57.7763   23.9665   44.2114 H   0  0  0  0  0  0  0  0  0  0  0  0
   57.4430   25.9940   44.7490 C   0  0  0  0  0  0  0  0  0  0  0  0
   56.7200   26.8390   45.6080 C   0  0  0  0  0  0  0  0  0  0  0  0
   56.1958   26.4167   46.4780 H   0  0  0  0  0  0  0  0  0  0  0  0
   56.6640   28.2130   45.3620 C   0  0  0  0  0  0  0  0  0  0  0  0
   56.1002   28.8687   46.0418 H   0  0  0  0  0  0  0  0  0  0  0  0
   57.3230   28.7590   44.2530 C   0  0  0  0  0  0  0  0  0  0  0  0
   57.3440   30.5040   44.0220 S   0  0  0  0  0  0  0  0  0  0  0  0
   56.2750   31.1460   44.8620 O   0  0  0  0  0  0  0  0  0  0  0  0
   57.0730   30.8200   42.5770 O   0  0  0  0  0  0  0  0  0  0  0  0
   58.8880   31.1320   44.4760 N   0  0  0  0  0  0  0  0  0  0  0  0
   59.5200   30.3120   44.6200 H   0  0  0  0  0  0  0  0  0  0  0  0
   58.7690   31.5870   45.4090 H   0  0  0  0  0  0  0  0  0  0  0  0
   57.9900   27.9110   43.3590 C   0  0  0  0  0  0  0  0  0  0  0  0
   58.4650   28.3282   42.4588 H   0  0  0  0  0  0  0  0  0  0  0  0
   58.0540   26.5360   43.6070 C   0  0  0  0  0  0  0  0  0  0  0  0
   58.5851   25.8767   42.9046 H   0  0  0  0  0  0  0  0  0  0  0  0
   60.0340   27.0290   46.1250 N   0  0  0  0  0  0  0  0  0  0  0  0
   60.3420   28.3500   46.0990 C   0  0  0  0  0  0  0  0  0  0  0  0
   60.9500   28.8150   45.0990 O   0  0  0  0  0  0  0  0  0  0  0  0
   59.9600   29.1750   47.1760 C   0  0  0  0  0  0  0  0  0  0  0  0
   60.1620   30.5700   47.2070 C   0  0  0  0  0  0  0  0  0  0  0  0
   60.7350   31.1540   46.2460 O   0  0  0  0  0  0  0  0  0  0  0  0
   59.8970   34.0800   46.1640 C   0  0  0  0  0  0  0  0  0  0  0  0
   60.9803   34.2043   46.3087 H   0  0  0  0  0  0  0  0  0  0  0  0
   59.2700   34.6650   45.0590 C   0  0  0  0  0  0  0  0  0  0  0  0
   59.8619   35.2434   44.3343 H   0  0  0  0  0  0  0  0  0  0  0  0
  1  2  1  0
  2  3  2  0
  3  4  1  0
  3  5  1  0
  5  6  1  0
  5  7  2  0
  7  8  1  0
  8  9  1  0
  8 10  1  0
  8 11  1  0
 11 12  1  0
 12 13  2  0
 13 14  1  0
 13 15  1  0
 15 16  1  0
 16 17  1  0
 17 18  2  0
 18 19  1  0
 19 20  1  0
 19 21  1  0
 19 22  1  0
 22 23  1  0
 22 24  1  0
 22 25  1  0
 25 26  2  0
 26 27  1  0
 26 28  1  0
 28 29  1  0
 28 30  2  0
 30 31  1  0
 31 32  2  0
 31 33  2  0
 31 34  1  0
 34 35  1  0
 34 36  1  0
 30 37  1  0
 37 38  1  0
 37 39  2  0
 39 40  1  0
 17 41  1  0
 41 42  1  0
 42 43  2  0
 42 44  1  0
 44 45  1  0
 45 46  2  0
  7 47  1  0
 47 48  1  0
 47 49  2  0
 49 50  1  0
 49  2  1  0
 45 11  1  0
 44 15  2  0
 39 25  1  0
M  CHG  2  16  -1  41  -1
M  END
>  <UniqueID>  (60) 
57

>  <SMILES>  (60) 
NS(=O)(=O)c1ccc(CC/N=c2\[n-]c(=O)c3c(=O)n(Cc4ccccc4)ncc3[n-]2)cc1

>  <Energy>  (60) 
55.53742092633748

>  <Genealogy>  (60) 
NS(=O)(=O)c1ccc(CCN=c2[n-]c(=O)c3c(=O)n(Cc4ccccc4)ncc3[n-]2)cc1 (protonated)
NS(=O)(=O)c1ccc(CC/N=c2\[n-]c(=O)c3c(=O)n(Cc4ccccc4)ncc3[n-]2)cc1 (cis-trans isomerization)
NS(=O)(=O)c1ccc(CC/N=c2\[n-]c(=O)c3c(=O)n(Cc4ccccc4)ncc3[n-]2)cc1 (3D coordinates assigned)
NS(=O)(=O)c1ccc(CC/N=c2\[n-]c(=O)c3c(=O)n(Cc4ccccc4)ncc3[n-]2)cc1 (optimized conformer: 55.53742092633748 kcal/mol)

>  <smiles>  (60) 
NS(=O)(=O)c1ccc(CCN=c2[nH]c(=O)c3c(=O)n(Cc4ccccc4)ncc3[nH]2)cc1

>  <score_type>  (60) 
oracle

>  <origin>  (60) 
adg

>  <m_score__min__energy>  (60) 
-12.4

>  <m_primary>  (60) 
energy

$$$$
60:0
     RDKit          3D

 32 33  0  0  0  0  0  0  0  0999 V2000
   57.0360   30.3630   43.0570 C   0  0  0  0  0  0  0  0  0  0  0  0
   57.8940   29.7290   44.1090 C   0  0  0  0  0  0  0  0  0  0  0  0
   59.0160   30.2450   44.3600 O   0  0  0  0  0  0  0  0  0  0  0  0
   57.4640   28.5090   44.8450 C   0  0  0  0  0  0  0  0  0  0  0  0
   56.1310   28.3240   45.2450 C   0  0  0  0  0  0  0  0  0  0  0  0
   55.1500   29.2610   44.9420 O   0  0  0  0  0  0  0  0  0  0  0  0
   55.7780   27.2060   45.9200 N   0  0  0  0  0  0  0  0  0  0  0  0
   56.6770   26.2360   46.2150 C   0  0  0  0  0  0  0  0  0  0  0  0
   56.2860   25.2230   46.8560 O   0  0  0  0  0  0  0  0  0  0  0  0
   57.9860   26.3590   45.8240 N   0  0  0  0  0  0  0  0  0  0  0  0
   58.9450   25.2730   46.1270 C   0  0  0  0  0  0  0  0  0  0  0  0
   58.6290   24.0330   45.3210 C   0  0  0  0  0  0  0  0  0  0  0  0
   57.4290   23.9600   44.5900 C   0  0  0  0  0  0  0  0  0  0  0  0
   57.1230   22.8240   43.8270 C   0  0  0  0  0  0  0  0  0  0  0  0
   55.8610   22.7750   43.0170 C   0  0  0  0  0  0  0  0  0  0  0  0
   58.0390   21.7650   43.7700 C   0  0  0  0  0  0  0  0  0  0  0  0
   59.2300   21.8260   44.4950 C   0  0  0  0  0  0  0  0  0  0  0  0
   59.5280   22.9500   45.2710 C   0  0  0  0  0  0  0  0  0  0  0  0
   60.7170   22.9780   45.9900 O   0  0  0  0  0  0  0  0  0  0  0  0
   58.3890   27.4900   45.1540 C   0  0  0  0  0  0  0  0  0  0  0  0
   59.6000   27.6370   44.8280 O   0  0  0  0  0  0  0  0  0  0  0  0
   56.2404   30.9509   43.5380 H   0  0  0  0  0  0  0  0  0  0  0  0
   57.6526   31.0241   42.4303 H   0  0  0  0  0  0  0  0  0  0  0  0
   56.5851   29.5794   42.4303 H   0  0  0  0  0  0  0  0  0  0  0  0
   59.9623   25.6122   45.8819 H   0  0  0  0  0  0  0  0  0  0  0  0
   58.8693   25.0257   47.1962 H   0  0  0  0  0  0  0  0  0  0  0  0
   56.7232   24.8033   44.6173 H   0  0  0  0  0  0  0  0  0  0  0  0
   54.9931   22.7413   43.6920 H   0  0  0  0  0  0  0  0  0  0  0  0
   55.7975   23.6714   42.3826 H   0  0  0  0  0  0  0  0  0  0  0  0
   55.8672   21.8764   42.3826 H   0  0  0  0  0  0  0  0  0  0  0  0
   57.8185   20.8824   43.1516 H   0  0  0  0  0  0  0  0  0  0  0  0
   59.9381   20.9851   44.4556 H   0  0  0  0  0  0  0  0  0  0  0  0
  1  2  1  0
  2  3  2  0
  2  4  1  0
  4  5  2  0
  5  6  1  0
  5  7  1  0
  7  8  1  0
  8  9  2  0
  8 10  1  0
 10 11  1  0
 11 12  1  0
 12 13  2  0
 13 14  1  0
 14 15  1  0
 14 16  2  0
 16 17  1  0
 17 18  2  0
 18 19  1  0
 10 20  1  0
 20 21  2  0
 20  4  1  0
 18 12  1  0
  1 22  1  0
  1 23  1  0
  1 24  1  0
 11 25  1  0
 11 26  1  0
 13 27  1  0
 15 28  1  0
 15 29  1  0
 15 30  1  0
 16 31  1  0
 17 32  1  0
M  CHG  3   6  -1   7  -1  19  -1
M  END
>  <UniqueID>  (61) 
58

>  <SMILES>  (61) 
CC(=O)c1c([O-])[n-]c(=O)n(Cc2cc(C)ccc2[O-])c1=O

>  <Energy>  (61) 
41.97889963380298

>  <Genealogy>  (61) 
CC(=O)c1c([O-])[n-]c(=O)n(Cc2cc(C)ccc2[O-])c1=O (protonated)
CC(=O)c1c([O-])[n-]c(=O)n(Cc2cc(C)ccc2[O-])c1=O (3D coordinates assigned)
CC(=O)c1c([O-])[n-]c(=O)n(Cc2cc(C)ccc2[O-])c1=O (optimized conformer: 41.97889963380298 kcal/mol)

>  <smiles>  (61) 
CC(=O)c1c(O)[nH]c(=O)n(Cc2cc(C)ccc2O)c1=O

>  <score_type>  (61) 
oracle

>  <origin>  (61) 
adg

>  <m_score__min__energy>  (61) 
-13.85

>  <m_primary>  (61) 
energy

$$$$
61:0
     RDKit          3D

 55 58  0  0  0  0  0  0  0  0999 V2000
   60.9860   29.4210   48.1130 O   0  0  0  0  0  0  0  0  0  0  0  0
   60.4840   30.1680   47.2340 C   0  0  0  0  0  0  0  0  0  0  0  0
   61.1870   31.3550   46.8400 N   0  0  0  0  0  0  0  0  0  0  0  0
   61.9860   32.1680   47.7190 C   0  0  0  0  0  0  0  0  0  0  0  0
   63.3610   31.9070   47.8800 C   0  0  0  0  0  0  0  0  0  0  0  0
   64.1280   32.6640   48.7680 C   0  0  0  0  0  0  0  0  0  0  0  0
   63.5300   33.6800   49.5150 C   0  0  0  0  0  0  0  0  0  0  0  0
   62.1640   33.9340   49.3850 C   0  0  0  0  0  0  0  0  0  0  0  0
   61.3780   33.1750   48.5000 C   0  0  0  0  0  0  0  0  0  0  0  0
   59.9350   33.4770   48.3750 C   0  0  0  0  0  0  0  0  0  0  0  0
   59.2080   33.4480   49.4060 O   0  0  0  0  0  0  0  0  0  0  0  0
   59.3480   33.8090   47.1000 N   0  0  0  0  0  0  0  0  0  0  0  0
   58.0480   33.2470   46.7270 C   0  0  0  0  0  0  0  0  0  0  0  0
   57.3080   34.2200   45.8010 C   0  0  0  0  0  0  0  0  0  0  0  0
   58.1270   34.5890   44.7060 O   0  0  0  0  0  0  0  0  0  0  0  0
   59.2480   35.3210   45.1700 C   0  0  0  0  0  0  0  0  0  0  0  0
   60.1490   34.4450   46.0490 C   0  0  0  0  0  0  0  0  0  0  0  0
   59.1920   29.8110   46.6300 C   0  0  0  0  0  0  0  0  0  0  0  0
   58.5550   30.6910   45.8160 N   0  0  0  0  0  0  0  0  0  0  0  0
   57.3780   30.3720   45.2240 C   0  0  0  0  0  0  0  0  0  0  0  0
   56.8030   31.2200   44.4920 O   0  0  0  0  0  0  0  0  0  0  0  0
   56.8020   29.1170   45.4360 C   0  0  0  0  0  0  0  0  0  0  0  0
   55.5530   28.8430   44.8750 O   0  0  0  0  0  0  0  0  0  0  0  0
   57.5020   28.1920   46.2420 C   0  0  0  0  0  0  0  0  0  0  0  0
   57.1000   26.7800   46.3820 C   0  0  0  0  0  0  0  0  0  0  0  0
   55.8750   26.4800   46.3350 O   0  0  0  0  0  0  0  0  0  0  0  0
   58.0730   25.7750   46.6820 N   0  0  0  0  0  0  0  0  0  0  0  0
   57.7350   24.3870   46.9580 C   0  0  0  0  0  0  0  0  0  0  0  0
   57.4590   23.6700   45.6670 C   0  0  0  0  0  0  0  0  0  0  0  0
   58.2950   22.6230   45.2470 C   0  0  0  0  0  0  0  0  0  0  0  0
   57.9960   21.8960   44.0940 C   0  0  0  0  0  0  0  0  0  0  0  0
   56.8440   22.1920   43.3610 C   0  0  0  0  0  0  0  0  0  0  0  0
   56.5550   21.4890   42.2450 F   0  0  0  0  0  0  0  0  0  0  0  0
   56.0010   23.2270   43.7710 C   0  0  0  0  0  0  0  0  0  0  0  0
   56.2990   23.9560   44.9300 C   0  0  0  0  0  0  0  0  0  0  0  0
   58.6640   28.5790   46.8330 N   0  0  0  0  0  0  0  0  0  0  0  0
   63.8344   31.1001   47.3013 H   0  0  0  0  0  0  0  0  0  0  0  0
   65.2032   32.4596   48.8787 H   0  0  0  0  0  0  0  0  0  0  0  0
   64.1367   34.2818   50.2077 H   0  0  0  0  0  0  0  0  0  0  0  0
   61.6986   34.7341   49.9794 H   0  0  0  0  0  0  0  0  0  0  0  0
   58.1997   32.2904   46.2055 H   0  0  0  0  0  0  0  0  0  0  0  0
   57.4491   33.0831   47.6350 H   0  0  0  0  0  0  0  0  0  0  0  0
   56.3958   33.7355   45.4226 H   0  0  0  0  0  0  0  0  0  0  0  0
   57.0508   35.1248   46.3712 H   0  0  0  0  0  0  0  0  0  0  0  0
   59.8267   35.6793   44.3059 H   0  0  0  0  0  0  0  0  0  0  0  0
   58.8890   36.1694   45.7710 H   0  0  0  0  0  0  0  0  0  0  0  0
   60.6211   33.6686   45.4290 H   0  0  0  0  0  0  0  0  0  0  0  0
   60.9256   35.0714   46.5121 H   0  0  0  0  0  0  0  0  0  0  0  0
   55.1280   27.9260   44.8910 H   0  0  0  0  0  0  0  0  0  0  0  0
   58.5760   23.9010   47.4743 H   0  0  0  0  0  0  0  0  0  0  0  0
   56.8399   24.3486   47.5962 H   0  0  0  0  0  0  0  0  0  0  0  0
   59.1929   22.3738   45.8316 H   0  0  0  0  0  0  0  0  0  0  0  0
   58.6672   21.0901   43.7623 H   0  0  0  0  0  0  0  0  0  0  0  0
   55.1030   23.4700   43.1841 H   0  0  0  0  0  0  0  0  0  0  0  0
   55.6212   24.7556   45.2636 H   0  0  0  0  0  0  0  0  0  0  0  0
  1  2  2  0
  2  3  1  0
  3  4  1  0
  4  5  2  0
  5  6  1  0
  6  7  2  0
  7  8  1  0
  8  9  2  0
  9 10  1  0
 10 11  2  0
 10 12  1  0
 12 13  1  0
 13 14  1  0
 14 15  1  0
 15 16  1  0
 16 17  1  0
  2 18  1  0
 18 19  2  0
 19 20  1  0
 20 21  2  0
 20 22  1  0
 22 23  1  0
 22 24  2  0
 24 25  1  0
 25 26  2  0
 25 27  1  0
 27 28  1  0
 28 29  1  0
 29 30  2  0
 30 31  1  0
 31 32  2  0
 32 33  1  0
 32 34  1  0
 34 35  2  0
 24 36  1  0
  9  4  1  0
 17 12  1  0
 36 18  1  0
 35 29  1  0
  5 37  1  0
  6 38  1  0
  7 39  1  0
  8 40  1  0
 13 41  1  0
 13 42  1  0
 14 43  1  0
 14 44  1  0
 16 45  1  0
 16 46  1  0
 17 47  1  0
 17 48  1  0
 23 49  1  0
 28 50  1  0
 28 51  1  0
 30 52  1  0
 31 53  1  0
 34 54  1  0
 35 55  1  0
M  CHG  3   3  -1  27  -1  36  -1
M  END
>  <UniqueID>  (62) 
59

>  <SMILES>  (62) 
O=C([N-]c1ccccc1C(=O)N1CCOCC1)c1nc(=O)c(O)c(C(=O)[N-]Cc2ccc(F)cc2)[n-]1

>  <Energy>  (62) 
77.8096401351984

>  <Genealogy>  (62) 
O=C([N-]c1ccccc1C(=O)N1CCOCC1)c1nc(=O)c(O)c(C(=O)[N-]Cc2ccc(F)cc2)[n-]1 (protonated)
O=C([N-]c1ccccc1C(=O)N1CCOCC1)c1nc(=O)c(O)c(C(=O)[N-]Cc2ccc(F)cc2)[n-]1 (3D coordinates assigned)
O=C([N-]c1ccccc1C(=O)N1CCOCC1)c1nc(=O)c(O)c(C(=O)[N-]Cc2ccc(F)cc2)[n-]1 (nonaromatic ring conformer: 77.8096401351984 kcal/mol)

>  <smiles>  (62) 
O=C(Nc1ccccc1C(=O)N1CCOCC1)c1nc(=O)c(O)c(C(=O)NCc2ccc(F)cc2)[nH]1

>  <score_type>  (62) 
oracle

>  <origin>  (62) 
adg

>  <m_score__min__energy>  (62) 
-14.06

>  <m_primary>  (62) 
energy

$$$$
62:0
     RDKit          3D

 61 64  0  0  0  0  0  0  0  0999 V2000
   53.8970   20.5080   45.6610 O   0  0  0  0  0  0  0  0  0  0  0  0
   53.5230   21.6640   45.9910 C   0  0  0  0  0  0  0  0  0  0  0  0
   52.4480   22.2530   45.3330 O   0  0  0  0  0  0  0  0  0  0  0  0
   54.2520   22.4220   47.0610 C   0  0  0  0  0  0  0  0  0  0  0  0
   55.4220   23.2720   46.5080 C   0  0  2  0  0  0  0  0  0  0  0  0
   54.9750   24.6010   46.0790 N   0  0  0  0  0  0  0  0  0  0  0  0
   55.8460   25.6360   45.5950 C   0  0  0  0  0  0  0  0  0  0  0  0
   56.7040   25.3580   44.7130 O   0  0  0  0  0  0  0  0  0  0  0  0
   55.7670   26.9600   46.1480 N   0  0  0  0  0  0  0  0  0  0  0  0
   56.2910   28.0240   45.6090 C   0  0  0  0  0  0  0  0  0  0  0  0
   57.6590   28.2660   45.7680 C   0  0  0  0  0  0  0  0  0  0  0  0
   58.2090   29.4490   45.2660 C   0  0  0  0  0  0  0  0  0  0  0  0
   57.3880   30.3940   44.6320 C   0  0  0  0  0  0  0  0  0  0  0  0
   57.9400   31.6970   44.2130 C   0  0  0  0  0  0  0  0  0  0  0  0
   58.1310   31.9000   42.9830 O   0  0  0  0  0  0  0  0  0  0  0  0
   58.3120   32.7040   45.1840 N   0  0  0  0  0  0  0  0  0  0  0  0
   58.4110   32.3530   46.6150 C   0  0  0  0  0  0  0  0  0  0  0  0
   59.2520   33.3710   47.3920 C   0  0  0  0  0  0  0  0  0  0  0  0
   60.4320   33.7530   46.5950 N   0  0  0  0  0  0  0  0  0  0  0  0
   61.7790   33.6810   47.1230 C   0  0  0  0  0  0  0  0  0  0  0  0
   62.6990   34.3190   46.5360 O   0  0  0  0  0  0  0  0  0  0  0  0
   62.1090   32.8380   48.3460 C   0  0  0  0  0  0  0  0  0  0  0  0
   62.9490   33.5200   49.4330 C   0  0  0  0  0  0  0  0  0  0  0  0
   64.0890   32.5450   49.1690 C   0  0  0  0  0  0  0  0  0  0  0  0
   63.2630   31.8600   48.0870 C   0  0  0  0  0  0  0  0  0  0  0  0
   60.2360   34.2270   45.2190 C   0  0  0  0  0  0  0  0  0  0  0  0
   58.7870   34.0300   44.7550 C   0  0  0  0  0  0  0  0  0  0  0  0
   56.0290   30.1030   44.4630 C   0  0  0  0  0  0  0  0  0  0  0  0
   55.5170   28.9410   44.9530 N   0  0  0  0  0  0  0  0  0  0  0  0
   56.1340   22.5510   45.3760 C   0  0  0  0  0  0  0  0  0  0  0  0
   55.7220   22.7950   44.0510 C   0  0  0  0  0  0  0  0  0  0  0  0
   56.3750   22.1830   42.9730 C   0  0  0  0  0  0  0  0  0  0  0  0
   57.4500   21.3280   43.1970 C   0  0  0  0  0  0  0  0  0  0  0  0
   57.8870   21.0920   44.5060 C   0  0  0  0  0  0  0  0  0  0  0  0
   57.2410   21.7030   45.5920 C   0  0  0  0  0  0  0  0  0  0  0  0
   57.7070   21.4630   46.8510 F   0  0  0  0  0  0  0  0  0  0  0  0
   53.5390   23.0917   47.5642 H   0  0  0  0  0  0  0  0  0  0  0  0
   54.6802   21.6834   47.7547 H   0  0  0  0  0  0  0  0  0  0  0  0
   56.1379   23.4138   47.3311 H   0  0  0  0  0  0  0  0  0  0  0  0
   58.2964   27.5323   46.2833 H   0  0  0  0  0  0  0  0  0  0  0  0
   59.2875   29.6395   45.3682 H   0  0  0  0  0  0  0  0  0  0  0  0
   57.3992   32.3239   47.0456 H   0  0  0  0  0  0  0  0  0  0  0  0
   58.9018   31.3717   46.6939 H   0  0  0  0  0  0  0  0  0  0  0  0
   58.6452   34.2650   47.5983 H   0  0  0  0  0  0  0  0  0  0  0  0
   59.5828   32.9220   48.3401 H   0  0  0  0  0  0  0  0  0  0  0  0
   61.0924   32.4987   48.5937 H   0  0  0  0  0  0  0  0  0  0  0  0
   63.1970   34.5694   49.2158 H   0  0  0  0  0  0  0  0  0  0  0  0
   62.5476   33.6432   50.4497 H   0  0  0  0  0  0  0  0  0  0  0  0
   65.0083   33.0209   48.7968 H   0  0  0  0  0  0  0  0  0  0  0  0
   64.5178   31.9574   49.9941 H   0  0  0  0  0  0  0  0  0  0  0  0
   63.6956   31.9333   47.0783 H   0  0  0  0  0  0  0  0  0  0  0  0
   63.0904   30.7742   48.1230 H   0  0  0  0  0  0  0  0  0  0  0  0
   60.4836   35.2977   45.1716 H   0  0  0  0  0  0  0  0  0  0  0  0
   60.8918   33.6425   44.5570 H   0  0  0  0  0  0  0  0  0  0  0  0
   58.1503   34.8093   45.1992 H   0  0  0  0  0  0  0  0  0  0  0  0
   58.7397   34.1001   43.6583 H   0  0  0  0  0  0  0  0  0  0  0  0
   55.3756   30.8129   43.9347 H   0  0  0  0  0  0  0  0  0  0  0  0
   54.8777   23.4740   43.8606 H   0  0  0  0  0  0  0  0  0  0  0  0
   56.0365   22.3792   41.9449 H   0  0  0  0  0  0  0  0  0  0  0  0
   57.9539   20.8400   42.3497 H   0  0  0  0  0  0  0  0  0  0  0  0
   58.7421   20.4235   44.6845 H   0  0  0  0  0  0  0  0  0  0  0  0
  1  2  2  0
  2  3  1  0
  2  4  1  0
  4  5  1  0
  5  6  1  0
  6  7  1  0
  7  8  2  0
  7  9  1  0
  9 10  2  3
 10 11  1  0
 11 12  2  0
 12 13  1  0
 13 14  1  0
 14 15  2  0
 14 16  1  0
 16 17  1  0
 17 18  1  0
 18 19  1  0
 19 20  1  0
 20 21  2  0
 20 22  1  0
 22 23  1  0
 23 24  1  0
 24 25  1  0
 19 26  1  0
 26 27  1  0
 13 28  2  0
 28 29  1  0
  5 30  1  0
 30 31  2  0
 31 32  1  0
 32 33  2  0
 33 34  1  0
 34 35  2  0
 35 36  1  0
 29 10  1  0
 35 30  1  0
 27 16  1  0
 25 22  1  0
  4 37  1  0
  4 38  1  0
  5 39  1  1
 11 40  1  0
 12 41  1  0
 17 42  1  0
 17 43  1  0
 18 44  1  0
 18 45  1  0
 22 46  1  0
 23 47  1  0
 23 48  1  0
 24 49  1  0
 24 50  1  0
 25 51  1  0
 25 52  1  0
 26 53  1  0
 26 54  1  0
 27 55  1  0
 27 56  1  0
 28 57  1  0
 31 58  1  0
 32 59  1  0
 33 60  1  0
 34 61  1  0
M  CHG  3   3  -1   6  -1  29  -1
M  END
>  <UniqueID>  (63) 
60

>  <SMILES>  (63) 
O=C([O-])C[C@H]([N-]C(=O)N=c1ccc(C(=O)N2CCN(C(=O)C3CCC3)CC2)c[n-]1)c1ccccc1F

>  <Energy>  (63) 
135.89345837517314

>  <Genealogy>  (63) 
O=C([O-])CC([N-]C(=O)N=c1ccc(C(=O)N2CCN(C(=O)C3CCC3)CC2)c[n-]1)c1ccccc1F (protonated)
O=C([O-])C[C@H]([N-]C(=O)N=c1ccc(C(=O)N2CCN(C(=O)C3CCC3)CC2)c[n-]1)c1ccccc1F (chirality)
O=C([O-])C[C@H]([N-]C(=O)N=c1ccc(C(=O)N2CCN(C(=O)C3CCC3)CC2)c[n-]1)c1ccccc1F (3D coordinates assigned)
O=C([O-])C[C@H]([N-]C(=O)N=c1ccc(C(=O)N2CCN(C(=O)C3CCC3)CC2)c[n-]1)c1ccccc1F (nonaromatic ring conformer: 135.89345837517314 kcal/mol)

>  <smiles>  (63) 
O=C(O)CC(NC(=O)N=c1ccc(C(=O)N2CCN(C(=O)C3CCC3)CC2)c[nH]1)c1ccccc1F

>  <score_type>  (63) 
oracle

>  <origin>  (63) 
adg

>  <m_score__min__energy>  (63) 
-14.44

>  <m_primary>  (63) 
energy

$$$$
63:0
     RDKit          3D

 13 13  0  0  0  0  0  0  0  0999 V2000
   56.7750   30.8150   44.8640 N   0  0  0  0  0  0  0  0  0  0  0  0
   57.3900   31.7450   45.1740 C   0  0  0  0  0  0  0  0  0  0  0  0
   58.1560   32.9020   45.5610 C   0  0  0  0  0  0  0  0  0  0  0  0
   58.5350   33.8420   44.5930 C   0  0  0  0  0  0  0  0  0  0  0  0
   59.2780   34.9670   44.9630 C   0  0  0  0  0  0  0  0  0  0  0  0
   59.6450   35.1570   46.2990 C   0  0  0  0  0  0  0  0  0  0  0  0
   59.2670   34.2210   47.2670 C   0  0  0  0  0  0  0  0  0  0  0  0
   58.5240   33.0940   46.9010 C   0  0  0  0  0  0  0  0  0  0  0  0
   58.1650   32.1930   47.8520 F   0  0  0  0  0  0  0  0  0  0  0  0
   58.2477   33.6945   43.5415 H   0  0  0  0  0  0  0  0  0  0  0  0
   59.5744   35.7039   44.2020 H   0  0  0  0  0  0  0  0  0  0  0  0
   60.2306   36.0421   46.5883 H   0  0  0  0  0  0  0  0  0  0  0  0
   59.5546   34.3715   48.3180 H   0  0  0  0  0  0  0  0  0  0  0  0
  1  2  3  0
  2  3  1  0
  3  4  2  0
  4  5  1  0
  5  6  2  0
  6  7  1  0
  7  8  2  0
  8  9  1  0
  8  3  1  0
  4 10  1  0
  5 11  1  0
  6 12  1  0
  7 13  1  0
M  END
>  <UniqueID>  (64) 
61

>  <SMILES>  (64) 
N#Cc1ccccc1F

>  <Energy>  (64) 
11.221000592130181

>  <Genealogy>  (64) 
N#Cc1ccccc1F (3D coordinates assigned)
N#Cc1ccccc1F (optimized conformer: 11.221000592130181 kcal/mol)

>  <smiles>  (64) 
N#Cc1ccccc1F

>  <score_type>  (64) 
oracle

>  <origin>  (64) 
adg

>  <m_score__min__energy>  (64) 
-4.21

>  <m_primary>  (64) 
energy

$$$$
64:0
     RDKit          3D

 60 63  0  0  0  0  0  0  0  0999 V2000
   64.8430   30.6150   51.4300 C   0  0  0  0  0  0  0  0  0  0  0  0
   63.6540   31.2630   50.7180 C   0  0  0  0  0  0  0  0  0  0  0  0
   64.0780   32.2350   49.6400 C   0  0  0  0  0  0  0  0  0  0  0  0
   65.3060   32.3710   49.3740 O   0  0  0  0  0  0  0  0  0  0  0  0
   63.1020   33.0500   48.9510 N   0  0  0  0  0  0  0  0  0  0  0  0
   63.4930   33.8170   47.7550 C   0  0  0  0  0  0  0  0  0  0  0  0
   62.3570   33.8180   46.7180 C   0  0  0  0  0  0  0  0  0  0  0  0
   61.0520   34.0750   47.3410 N   0  0  0  0  0  0  0  0  0  0  0  0
   59.8570   33.8330   46.5800 C   0  0  0  0  0  0  0  0  0  0  0  0
   59.5060   34.7290   45.5590 C   0  0  0  0  0  0  0  0  0  0  0  0
   58.2980   34.5880   44.8770 C   0  0  0  0  0  0  0  0  0  0  0  0
   57.4210   33.5550   45.2130 C   0  0  0  0  0  0  0  0  0  0  0  0
   57.7590   32.6510   46.2220 C   0  0  0  0  0  0  0  0  0  0  0  0
   58.9840   32.7630   46.8940 C   0  0  0  0  0  0  0  0  0  0  0  0
   59.2960   31.7860   47.8950 N   0  0  0  0  0  0  0  0  0  0  0  0
   59.9800   30.5530   47.6520 C   0  0  0  0  0  0  0  0  0  0  0  0
   61.0870   30.3250   48.2110 O   0  0  0  0  0  0  0  0  0  0  0  0
   59.4020   29.5560   46.7240 C   0  0  0  0  0  0  0  0  0  0  0  0
   59.7240   29.5930   45.3580 C   0  0  0  0  0  0  0  0  0  0  0  0
   59.1830   28.6560   44.4800 C   0  0  0  0  0  0  0  0  0  0  0  0
   58.2900   27.6860   44.9470 C   0  0  0  0  0  0  0  0  0  0  0  0
   57.8120   26.7570   44.0830 F   0  0  0  0  0  0  0  0  0  0  0  0
   57.9410   27.6490   46.3080 C   0  0  0  0  0  0  0  0  0  0  0  0
   57.0310   26.6680   46.8220 N   0  0  0  0  0  0  0  0  0  0  0  0
   56.1090   25.9140   46.0250 C   0  0  0  0  0  0  0  0  0  0  0  0
   54.8960   26.2600   45.9780 O   0  0  0  0  0  0  0  0  0  0  0  0
   56.5670   24.7020   45.3030 C   0  0  0  0  0  0  0  0  0  0  0  0
   55.8190   24.2070   44.2170 C   0  0  0  0  0  0  0  0  0  0  0  0
   56.2420   23.0660   43.5260 C   0  0  0  0  0  0  0  0  0  0  0  0
   55.5110   22.5970   42.4840 F   0  0  0  0  0  0  0  0  0  0  0  0
   57.4160   22.4110   43.9050 C   0  0  0  0  0  0  0  0  0  0  0  0
   58.1680   22.8910   44.9790 C   0  0  0  0  0  0  0  0  0  0  0  0
   57.7510   24.0280   45.6790 C   0  0  0  0  0  0  0  0  0  0  0  0
   58.5210   24.4740   46.7050 F   0  0  0  0  0  0  0  0  0  0  0  0
   58.5230   28.5640   47.1940 C   0  0  0  0  0  0  0  0  0  0  0  0
   60.9650   34.3080   48.7840 C   0  0  0  0  0  0  0  0  0  0  0  0
   61.7580   33.2310   49.5290 C   0  0  0  0  0  0  0  0  0  0  0  0
   64.7042   30.6907   52.5186 H   0  0  0  0  0  0  0  0  0  0  0  0
   64.9101   29.5556   51.1417 H   0  0  0  0  0  0  0  0  0  0  0  0
   65.7697   31.1328   51.1417 H   0  0  0  0  0  0  0  0  0  0  0  0
   63.0451   30.4709   50.2578 H   0  0  0  0  0  0  0  0  0  0  0  0
   63.0846   31.8288   51.4701 H   0  0  0  0  0  0  0  0  0  0  0  0
   63.7167   34.8536   48.0473 H   0  0  0  0  0  0  0  0  0  0  0  0
   64.3817   33.3480   47.3075 H   0  0  0  0  0  0  0  0  0  0  0  0
   62.5562   34.6015   45.9720 H   0  0  0  0  0  0  0  0  0  0  0  0
   62.3221   32.8245   46.2471 H   0  0  0  0  0  0  0  0  0  0  0  0
   60.1893   35.5494   45.2944 H   0  0  0  0  0  0  0  0  0  0  0  0
   58.0357   35.2916   44.0732 H   0  0  0  0  0  0  0  0  0  0  0  0
   56.4629   33.4532   44.6823 H   0  0  0  0  0  0  0  0  0  0  0  0
   57.0595   31.8459   46.4912 H   0  0  0  0  0  0  0  0  0  0  0  0
   60.4077   30.3666   44.9784 H   0  0  0  0  0  0  0  0  0  0  0  0
   59.4593   28.6792   43.4155 H   0  0  0  0  0  0  0  0  0  0  0  0
   54.8961   24.7208   43.9100 H   0  0  0  0  0  0  0  0  0  0  0  0
   57.7482   21.5168   43.3572 H   0  0  0  0  0  0  0  0  0  0  0  0
   59.0919   22.3731   45.2758 H   0  0  0  0  0  0  0  0  0  0  0  0
   58.2905   28.5063   48.2676 H   0  0  0  0  0  0  0  0  0  0  0  0
   61.3818   35.2982   49.0203 H   0  0  0  0  0  0  0  0  0  0  0  0
   59.9113   34.2666   49.0969 H   0  0  0  0  0  0  0  0  0  0  0  0
   61.8597   33.5277   50.5833 H   0  0  0  0  0  0  0  0  0  0  0  0
   61.2138   32.2792   49.4397 H   0  0  0  0  0  0  0  0  0  0  0  0
  1  2  1  0
  2  3  1  0
  3  4  2  0
  3  5  1  0
  5  6  1  0
  6  7  1  0
  7  8  1  0
  8  9  1  0
  9 10  2  0
 10 11  1  0
 11 12  2  0
 12 13  1  0
 13 14  2  0
 14 15  1  0
 15 16  1  0
 16 17  2  0
 16 18  1  0
 18 19  2  0
 19 20  1  0
 20 21  2  0
 21 22  1  0
 21 23  1  0
 23 24  1  0
 24 25  1  0
 25 26  2  0
 25 27  1  0
 27 28  2  0
 28 29  1  0
 29 30  1  0
 29 31  2  0
 31 32  1  0
 32 33  2  0
 33 34  1  0
 23 35  2  0
  8 36  1  0
 36 37  1  0
 37  5  1  0
 14  9  1  0
 35 18  1  0
 33 27  1  0
  1 38  1  0
  1 39  1  0
  1 40  1  0
  2 41  1  0
  2 42  1  0
  6 43  1  0
  6 44  1  0
  7 45  1  0
  7 46  1  0
 10 47  1  0
 11 48  1  0
 12 49  1  0
 13 50  1  0
 19 51  1  0
 20 52  1  0
 28 53  1  0
 31 54  1  0
 32 55  1  0
 35 56  1  0
 36 57  1  0
 36 58  1  0
 37 59  1  0
 37 60  1  0
M  CHG  2  15  -1  24  -1
M  END
>  <UniqueID>  (65) 
62

>  <SMILES>  (65) 
CCC(=O)N1CCN(c2ccccc2[N-]C(=O)c2ccc(F)c([N-]C(=O)c3cc(F)ccc3F)c2)CC1

>  <Energy>  (65) 
80.96983701521549

>  <Genealogy>  (65) 
CCC(=O)N1CCN(c2ccccc2[N-]C(=O)c2ccc(F)c([N-]C(=O)c3cc(F)ccc3F)c2)CC1 (protonated)
CCC(=O)N1CCN(c2ccccc2[N-]C(=O)c2ccc(F)c([N-]C(=O)c3cc(F)ccc3F)c2)CC1 (3D coordinates assigned)
CCC(=O)N1CCN(c2ccccc2[N-]C(=O)c2ccc(F)c([N-]C(=O)c3cc(F)ccc3F)c2)CC1 (nonaromatic ring conformer: 80.96983701521549 kcal/mol)

>  <smiles>  (65) 
CCC(=O)N1CCN(c2ccccc2NC(=O)c2ccc(F)c(NC(=O)c3cc(F)ccc3F)c2)CC1

>  <score_type>  (65) 
oracle

>  <origin>  (65) 
adg

>  <m_score__min__energy>  (65) 
-12.33

>  <m_primary>  (65) 
energy

$$$$
65:0
     RDKit          3D

 57 58  0  0  0  0  0  0  0  0999 V2000
   61.6460   30.2140   50.6430 C   0  0  0  0  0  0  0  0  0  0  0  0
   61.4750   30.5060   49.3470 C   0  0  0  0  0  0  0  0  0  0  0  0
   60.6140   29.6030   48.4890 C   0  0  0  0  0  0  0  0  0  0  0  0
   59.1610   30.0950   48.4090 C   0  0  0  0  0  0  0  0  0  0  0  0
   58.9350   31.0500   47.2290 C   0  0  0  0  0  0  0  0  0  0  0  0
   58.9140   32.5110   47.7020 C   0  0  0  0  0  0  0  0  0  0  0  0
   59.6370   33.4700   46.7320 C   0  0  0  0  0  0  0  0  0  0  0  0
   58.7000   34.4490   46.0000 C   0  0  0  0  0  0  0  0  0  0  0  0
   57.4090   33.8100   45.4630 C   0  0  0  0  0  0  0  0  0  0  0  0
   57.6210   33.0140   44.1540 C   0  0  0  0  0  0  0  0  0  0  0  0
   57.6320   31.5010   44.3940 C   0  0  0  0  0  0  0  0  0  0  0  0
   56.3140   31.0390   44.8190 N   0  0  0  0  0  0  0  0  0  0  0  0
   55.7230   29.7920   44.4360 C   0  0  0  0  0  0  0  0  0  0  0  0
   55.1160   29.7140   43.3370 O   0  0  0  0  0  0  0  0  0  0  0  0
   55.8440   28.6200   45.2490 N   0  0  0  0  0  0  0  0  0  0  0  0
   57.0760   27.9600   45.5710 C   0  0  0  0  0  0  0  0  0  0  0  0
   58.3200   28.4890   45.1780 C   0  0  0  0  0  0  0  0  0  0  0  0
   59.5050   27.8450   45.5450 C   0  0  0  0  0  0  0  0  0  0  0  0
   59.4610   26.6710   46.3020 C   0  0  0  0  0  0  0  0  0  0  0  0
   58.2300   26.1460   46.7050 C   0  0  0  0  0  0  0  0  0  0  0  0
   57.0420   26.7930   46.3490 C   0  0  0  0  0  0  0  0  0  0  0  0
   55.8530   26.2780   46.7540 F   0  0  0  0  0  0  0  0  0  0  0  0
   62.1410   31.6950   48.7560 C   0  0  0  0  0  0  0  0  0  0  0  0
   62.8010   31.6010   47.5180 C   0  0  0  0  0  0  0  0  0  0  0  0
   63.4340   32.7190   46.9650 C   0  0  0  0  0  0  0  0  0  0  0  0
   63.4040   33.9430   47.6350 C   0  0  0  0  0  0  0  0  0  0  0  0
   62.7360   34.0540   48.8550 C   0  0  0  0  0  0  0  0  0  0  0  0
   62.1130   32.9350   49.4200 C   0  0  0  0  0  0  0  0  0  0  0  0
   62.2694   30.8631   51.2754 H   0  0  0  0  0  0  0  0  0  0  0  0
   61.1630   29.3251   51.0749 H   0  0  0  0  0  0  0  0  0  0  0  0
   61.0346   29.5726   47.4730 H   0  0  0  0  0  0  0  0  0  0  0  0
   60.6083   28.6037   48.9488 H   0  0  0  0  0  0  0  0  0  0  0  0
   58.4985   29.2247   48.2920 H   0  0  0  0  0  0  0  0  0  0  0  0
   58.9400   30.6455   49.3353 H   0  0  0  0  0  0  0  0  0  0  0  0
   59.7477   30.9194   46.4994 H   0  0  0  0  0  0  0  0  0  0  0  0
   57.9638   30.8158   46.7687 H   0  0  0  0  0  0  0  0  0  0  0  0
   57.8667   32.8333   47.7978 H   0  0  0  0  0  0  0  0  0  0  0  0
   59.4464   32.5530   48.6637 H   0  0  0  0  0  0  0  0  0  0  0  0
   60.3682   34.0567   47.3074 H   0  0  0  0  0  0  0  0  0  0  0  0
   60.1077   32.8441   45.9595 H   0  0  0  0  0  0  0  0  0  0  0  0
   58.4219   35.2490   46.7019 H   0  0  0  0  0  0  0  0  0  0  0  0
   59.2544   34.8199   45.1253 H   0  0  0  0  0  0  0  0  0  0  0  0
   57.0134   33.1257   46.2280 H   0  0  0  0  0  0  0  0  0  0  0  0
   56.7089   34.6280   45.2380 H   0  0  0  0  0  0  0  0  0  0  0  0
   56.8063   33.2563   43.4558 H   0  0  0  0  0  0  0  0  0  0  0  0
   58.5997   33.2981   43.7400 H   0  0  0  0  0  0  0  0  0  0  0  0
   57.9112   30.9890   43.4613 H   0  0  0  0  0  0  0  0  0  0  0  0
   58.3604   31.2727   45.1860 H   0  0  0  0  0  0  0  0  0  0  0  0
   58.3596   29.4117   44.5805 H   0  0  0  0  0  0  0  0  0  0  0  0
   60.4747   28.2633   45.2372 H   0  0  0  0  0  0  0  0  0  0  0  0
   60.3947   26.1605   46.5805 H   0  0  0  0  0  0  0  0  0  0  0  0
   58.1953   25.2232   47.3027 H   0  0  0  0  0  0  0  0  0  0  0  0
   62.8196   30.6414   46.9806 H   0  0  0  0  0  0  0  0  0  0  0  0
   63.9562   32.6334   46.0007 H   0  0  0  0  0  0  0  0  0  0  0  0
   63.9069   34.8200   47.2014 H   0  0  0  0  0  0  0  0  0  0  0  0
   62.6989   35.0231   49.3740 H   0  0  0  0  0  0  0  0  0  0  0  0
   61.5989   33.0257   50.3882 H   0  0  0  0  0  0  0  0  0  0  0  0
  1  2  2  0
  2  3  1  0
  3  4  1  0
  4  5  1  0
  5  6  1  0
  6  7  1  0
  7  8  1  0
  8  9  1  0
  9 10  1  0
 10 11  1  0
 11 12  1  0
 12 13  1  0
 13 14  2  0
 13 15  1  0
 15 16  1  0
 16 17  2  0
 17 18  1  0
 18 19  2  0
 19 20  1  0
 20 21  2  0
 21 22  1  0
  2 23  1  0
 23 24  2  0
 24 25  1  0
 25 26  2  0
 26 27  1  0
 27 28  2  0
 21 16  1  0
 28 23  1  0
  1 29  1  0
  1 30  1  0
  3 31  1  0
  3 32  1  0
  4 33  1  0
  4 34  1  0
  5 35  1  0
  5 36  1  0
  6 37  1  0
  6 38  1  0
  7 39  1  0
  7 40  1  0
  8 41  1  0
  8 42  1  0
  9 43  1  0
  9 44  1  0
 10 45  1  0
 10 46  1  0
 11 47  1  0
 11 48  1  0
 17 49  1  0
 18 50  1  0
 19 51  1  0
 20 52  1  0
 24 53  1  0
 25 54  1  0
 26 55  1  0
 27 56  1  0
 28 57  1  0
M  CHG  2  12  -1  15  -1
M  END
>  <UniqueID>  (66) 
63

>  <SMILES>  (66) 
C=C(CCCCCCCCC[N-]C(=O)[N-]c1ccccc1F)c1ccccc1

>  <Energy>  (66) 
48.66909028833478

>  <Genealogy>  (66) 
C=C(CCCCCCCCC[N-]C(=O)[N-]c1ccccc1F)c1ccccc1 (protonated)
C=C(CCCCCCCCC[N-]C(=O)[N-]c1ccccc1F)c1ccccc1 (3D coordinates assigned)
C=C(CCCCCCCCC[N-]C(=O)[N-]c1ccccc1F)c1ccccc1 (optimized conformer: 48.66909028833478 kcal/mol)

>  <smiles>  (66) 
C=C(CCCCCCCCCNC(=O)Nc1ccccc1F)c1ccccc1

>  <score_type>  (66) 
oracle

>  <origin>  (66) 
adg

>  <m_score__min__energy>  (66) 
-12.470000000000001

>  <m_primary>  (66) 
energy

$$$$
66:0
     RDKit          3D

 58 62  0  0  0  0  0  0  0  0999 V2000
   57.9360   29.2870   46.5920 C   0  0  0  0  0  0  0  0  0  0  0  0
   58.0940   27.9650   46.4900 C   0  0  0  0  0  0  0  0  0  0  0  0
   57.3630   27.2030   45.6520 N   0  0  0  0  0  0  0  0  0  0  0  0
   57.7310   25.9210   45.8610 C   0  0  0  0  0  0  0  0  0  0  0  0
   57.1700   24.8900   45.2130 C   0  0  0  0  0  0  0  0  0  0  0  0
   55.7380   24.5470   45.2790 C   0  0  0  0  0  0  0  0  0  0  0  0
   55.2710   23.2980   45.1110 N   0  0  0  0  0  0  0  0  0  0  0  0
   53.9440   23.4250   45.3330 C   0  0  0  0  0  0  0  0  0  0  0  0
   53.1470   22.4540   45.2520 O   0  0  0  0  0  0  0  0  0  0  0  0
   53.5410   24.6720   45.6560 N   0  0  0  0  0  0  0  0  0  0  0  0
   54.6890   25.3690   45.6310 C   0  0  0  0  0  0  0  0  0  0  0  0
   54.7780   26.7130   45.9710 O   0  0  0  0  0  0  0  0  0  0  0  0
   58.7010   25.8580   46.8520 C   0  0  0  0  0  0  0  0  0  0  0  0
   58.9490   27.1630   47.2400 C   0  0  0  0  0  0  0  0  0  0  0  0
   59.9240   27.5610   48.2770 C   0  0  0  0  0  0  0  0  0  0  0  0
   60.5050   26.6620   48.9440 O   0  0  0  0  0  0  0  0  0  0  0  0
   60.2430   28.9430   48.5170 N   0  0  0  0  0  0  0  0  0  0  0  0
   60.6300   29.7990   47.3880 C   0  0  0  0  0  0  0  0  0  0  0  0
   60.2700   31.2450   47.6350 C   0  0  0  0  0  0  0  0  0  0  0  0
   60.4350   32.1160   46.6170 C   0  0  0  0  0  0  0  0  0  0  0  0
   59.3620   32.9210   45.9950 C   0  0  0  0  0  0  0  0  0  0  0  0
   59.6740   34.1740   45.4450 C   0  0  0  0  0  0  0  0  0  0  0  0
   58.6650   34.9720   44.8960 C   0  0  0  0  0  0  0  0  0  0  0  0
   57.3390   34.5330   44.9110 C   0  0  0  0  0  0  0  0  0  0  0  0
   57.0160   33.3000   45.4840 C   0  0  0  0  0  0  0  0  0  0  0  0
   58.0220   32.4990   46.0350 C   0  0  0  0  0  0  0  0  0  0  0  0
   59.7600   31.6360   48.9780 C   0  0  0  0  0  0  0  0  0  0  0  0
   59.0700   32.6840   49.1160 O   0  0  0  0  0  0  0  0  0  0  0  0
   60.0040   30.7480   50.1410 C   0  0  0  0  0  0  0  0  0  0  0  0
   59.7060   31.1730   51.3890 C   0  0  0  0  0  0  0  0  0  0  0  0
   58.3990   30.9840   52.0530 C   0  0  0  0  0  0  0  0  0  0  0  0
   58.3110   30.5350   53.3840 C   0  0  0  0  0  0  0  0  0  0  0  0
   57.0620   30.3960   53.9980 C   0  0  0  0  0  0  0  0  0  0  0  0
   55.8970   30.7210   53.2990 C   0  0  0  0  0  0  0  0  0  0  0  0
   55.9790   31.1970   51.9880 C   0  0  0  0  0  0  0  0  0  0  0  0
   57.2260   31.3370   51.3700 C   0  0  0  0  0  0  0  0  0  0  0  0
   60.5840   29.3790   49.8740 C   0  0  0  0  0  0  0  0  0  0  0  0
   58.5589   29.8630   47.2921 H   0  0  0  0  0  0  0  0  0  0  0  0
   57.1829   29.8001   45.9759 H   0  0  0  0  0  0  0  0  0  0  0  0
   56.6340   27.5390   44.9830 H   0  0  0  0  0  0  0  0  0  0  0  0
   57.8214   24.2584   44.5911 H   0  0  0  0  0  0  0  0  0  0  0  0
   59.1781   24.9503   47.2501 H   0  0  0  0  0  0  0  0  0  0  0  0
   61.7172   29.7226   47.2389 H   0  0  0  0  0  0  0  0  0  0  0  0
   60.0851   29.4573   46.4957 H   0  0  0  0  0  0  0  0  0  0  0  0
   61.4525   32.2370   46.2169 H   0  0  0  0  0  0  0  0  0  0  0  0
   60.7150   34.5294   45.4457 H   0  0  0  0  0  0  0  0  0  0  0  0
   58.9160   35.9465   44.4519 H   0  0  0  0  0  0  0  0  0  0  0  0
   56.5482   35.1585   44.4713 H   0  0  0  0  0  0  0  0  0  0  0  0
   55.9703   32.9591   45.5018 H   0  0  0  0  0  0  0  0  0  0  0  0
   57.7636   31.5365   46.5007 H   0  0  0  0  0  0  0  0  0  0  0  0
   60.4929   31.6973   51.9510 H   0  0  0  0  0  0  0  0  0  0  0  0
   59.2270   30.2927   53.9429 H   0  0  0  0  0  0  0  0  0  0  0  0
   56.9970   30.0301   55.0333 H   0  0  0  0  0  0  0  0  0  0  0  0
   54.9152   30.6022   53.7807 H   0  0  0  0  0  0  0  0  0  0  0  0
   55.0620   31.4619   51.4413 H   0  0  0  0  0  0  0  0  0  0  0  0
   57.2870   31.7260   50.3429 H   0  0  0  0  0  0  0  0  0  0  0  0
   61.6782   29.4209   49.9784 H   0  0  0  0  0  0  0  0  0  0  0  0
   60.1659   28.6637   50.5975 H   0  0  0  0  0  0  0  0  0  0  0  0
  1  2  2  0
  2  3  1  0
  3  4  1  0
  4  5  2  3
  5  6  1  0
  6  7  1  0
  7  8  1  0
  8  9  2  0
  8 10  1  0
 10 11  1  0
 11 12  1  0
  4 13  1  0
 13 14  2  0
 14 15  1  0
 15 16  2  0
 15 17  1  0
 17 18  1  0
 18 19  1  0
 19 20  2  3
 20 21  1  0
 21 22  2  0
 22 23  1  0
 23 24  2  0
 24 25  1  0
 25 26  2  0
 19 27  1  0
 27 28  2  0
 27 29  1  0
 29 30  2  3
 30 31  1  0
 31 32  2  0
 32 33  1  0
 33 34  2  0
 34 35  1  0
 35 36  2  0
 29 37  1  0
 14  2  1  0
 37 17  1  0
 11  6  2  0
 26 21  1  0
 36 31  1  0
  1 38  1  0
  1 39  1  0
  3 40  1  0
  5 41  1  0
 13 42  1  0
 18 43  1  0
 18 44  1  0
 20 45  1  0
 22 46  1  0
 23 47  1  0
 24 48  1  0
 25 49  1  0
 26 50  1  0
 30 51  1  0
 32 52  1  0
 33 53  1  0
 34 54  1  0
 35 55  1  0
 36 56  1  0
 37 57  1  0
 37 58  1  0
M  CHG  3   7  -1  10  -1  12  -1
M  END
>  <UniqueID>  (67) 
64

>  <SMILES>  (67) 
C=c1[nH]c(=Cc2[n-]c(=O)[n-]c2[O-])cc1C(=O)N1CC(=Cc2ccccc2)C(=O)C(=Cc2ccccc2)C1

>  <Energy>  (67) 
148.51079644930337

>  <Genealogy>  (67) 
C=c1[nH]c(=Cc2[n-]c(=O)[n-]c2[O-])cc1C(=O)N1CC(=Cc2ccccc2)C(=O)C(=Cc2ccccc2)C1 (protonated)
C=c1[nH]c(=Cc2[n-]c(=O)[n-]c2[O-])cc1C(=O)N1CC(=Cc2ccccc2)C(=O)C(=Cc2ccccc2)C1 (3D coordinates assigned)
C=c1[nH]c(=Cc2[n-]c(=O)[n-]c2[O-])cc1C(=O)N1CC(=Cc2ccccc2)C(=O)C(=Cc2ccccc2)C1 (nonaromatic ring conformer: 148.51079644930337 kcal/mol)

>  <smiles>  (67) 
C=c1[nH]c(=Cc2[nH]c(=O)[nH]c2O)cc1C(=O)N1CC(=Cc2ccccc2)C(=O)C(=Cc2ccccc2)C1

>  <score_type>  (67) 
oracle

>  <origin>  (67) 
adg

>  <m_score__min__energy>  (67) 
-20.879999999999999

>  <m_primary>  (67) 
energy

$$$$
67:0
     RDKit          3D

 22 23  0  0  0  0  0  0  0  0999 V2000
   58.6324   31.6363   56.1997 H   0  0  0  0  0  0  0  0  0  0  0  0
   58.8610   31.5030   55.1320 C   0  0  0  0  0  0  0  0  0  0  0  0
   59.8618   31.7509   54.7487 H   0  0  0  0  0  0  0  0  0  0  0  0
   57.9290   31.0430   54.3060 C   0  0  0  0  0  0  0  0  0  0  0  0
   58.1350   30.8530   52.9830 N   0  0  0  0  0  0  0  0  0  0  0  0
   57.0220   30.3740   52.3660 C   0  0  0  0  0  0  0  0  0  0  0  0
   57.0370   30.0920   51.1380 O   0  0  0  0  0  0  0  0  0  0  0  0
   55.9080   30.1880   53.1980 C   0  0  0  0  0  0  0  0  0  0  0  0
   54.6870   29.7190   52.8910 C   0  0  0  0  0  0  0  0  0  0  0  0
   54.5610   28.6280   52.8298 H   0  0  0  0  0  0  0  0  0  0  0  0
   53.5030   30.5590   52.6300 C   0  0  0  0  0  0  0  0  0  0  0  0
   53.3690   31.2710   51.4250 C   0  0  0  0  0  0  0  0  0  0  0  0
   54.1355   31.1724   50.6422 H   0  0  0  0  0  0  0  0  0  0  0  0
   52.2650   32.1040   51.2180 C   0  0  0  0  0  0  0  0  0  0  0  0
   52.1566   32.6459   50.2669 H   0  0  0  0  0  0  0  0  0  0  0  0
   51.2990   32.2490   52.2180 C   0  0  0  0  0  0  0  0  0  0  0  0
   50.2020   33.0760   52.0090 O   0  0  0  0  0  0  0  0  0  0  0  0
   51.4410   31.5660   53.4310 C   0  0  0  0  0  0  0  0  0  0  0  0
   50.6838   31.6842   54.2201 H   0  0  0  0  0  0  0  0  0  0  0  0
   52.5450   30.7330   53.6410 C   0  0  0  0  0  0  0  0  0  0  0  0
   52.6629   30.2121   54.6026 H   0  0  0  0  0  0  0  0  0  0  0  0
   56.3670   30.6190   54.7610 S   0  0  0  0  0  0  0  0  0  0  0  0
  1  2  1  0
  2  3  1  0
  2  4  2  0
  4  5  1  0
  5  6  1  0
  6  7  2  0
  6  8  1  0
  8  9  2  0
  9 10  1  0
  9 11  1  0
 11 12  2  0
 12 13  1  0
 12 14  1  0
 14 15  1  0
 14 16  2  0
 16 17  1  0
 16 18  1  0
 18 19  1  0
 18 20  2  0
 20 21  1  0
  8 22  1  0
 22  4  1  0
 20 11  1  0
M  CHG  2   5  -1  17  -1
M  END
>  <UniqueID>  (68) 
65

>  <SMILES>  (68) 
C=c1[n-]c(=O)/c(=C\c2ccc([O-])cc2)s1

>  <Energy>  (68) 
60.81624426840931

>  <Genealogy>  (68) 
C=c1[n-]c(=O)c(=Cc2ccc([O-])cc2)s1 (protonated)
C=c1[n-]c(=O)/c(=C\c2ccc([O-])cc2)s1 (cis-trans isomerization)
C=c1[n-]c(=O)/c(=C\c2ccc([O-])cc2)s1 (3D coordinates assigned)
C=c1[n-]c(=O)/c(=C\c2ccc([O-])cc2)s1 (optimized conformer: 60.81624426840931 kcal/mol)

>  <smiles>  (68) 
C=c1[nH]c(=O)c(=Cc2ccc(O)cc2)s1

>  <score_type>  (68) 
oracle

>  <origin>  (68) 
adg

>  <m_score__min__energy>  (68) 
-10.390000000000001

>  <m_primary>  (68) 
energy

$$$$
68:0
     RDKit          3D

 35 36  0  0  0  0  0  0  0  0999 V2000
   58.9450   28.0610   46.4550 O   0  0  0  0  0  0  0  0  0  0  0  0
   57.9690   27.3310   46.1330 C   0  0  0  0  0  0  0  0  0  0  0  0
   57.4670   26.3040   47.1010 C   0  0  0  0  0  0  0  0  0  0  0  0
   56.7120   25.2280   46.3630 C   0  0  0  0  0  0  0  0  0  0  0  0
   57.3200   23.9800   46.1420 C   0  0  0  0  0  0  0  0  0  0  0  0
   56.6510   22.9840   45.4270 C   0  0  0  0  0  0  0  0  0  0  0  0
   55.3720   23.2260   44.9180 C   0  0  0  0  0  0  0  0  0  0  0  0
   54.7630   24.4660   45.1210 C   0  0  0  0  0  0  0  0  0  0  0  0
   55.4270   25.4700   45.8350 C   0  0  0  0  0  0  0  0  0  0  0  0
   54.8040   26.7000   46.0160 O   0  0  0  0  0  0  0  0  0  0  0  0
   57.3740   27.4480   44.8330 N   0  0  0  0  0  0  0  0  0  0  0  0
   57.9240   28.3140   43.7930 C   0  0  0  0  0  0  0  0  0  0  0  0
   56.9690   29.4750   43.5050 C   0  0  0  0  0  0  0  0  0  0  0  0
   57.5200   30.7650   44.0540 C   0  0  0  0  0  0  0  0  0  0  0  0
   57.8140   30.8740   45.4240 C   0  0  0  0  0  0  0  0  0  0  0  0
   58.2970   32.0770   45.9490 C   0  0  0  0  0  0  0  0  0  0  0  0
   58.4830   33.1800   45.1130 C   0  0  0  0  0  0  0  0  0  0  0  0
   58.1800   33.0860   43.7510 C   0  0  0  0  0  0  0  0  0  0  0  0
   57.6950   31.8860   43.2210 C   0  0  0  0  0  0  0  0  0  0  0  0
   57.3940   31.8200   41.8990 F   0  0  0  0  0  0  0  0  0  0  0  0
   58.3200   25.8536   47.6297 H   0  0  0  0  0  0  0  0  0  0  0  0
   56.7937   26.7872   47.8244 H   0  0  0  0  0  0  0  0  0  0  0  0
   58.3291   23.7866   46.5347 H   0  0  0  0  0  0  0  0  0  0  0  0
   57.1313   22.0079   45.2643 H   0  0  0  0  0  0  0  0  0  0  0  0
   54.8452   22.4397   44.3575 H   0  0  0  0  0  0  0  0  0  0  0  0
   53.7570   24.6546   44.7180 H   0  0  0  0  0  0  0  0  0  0  0  0
   56.5000   26.9150   44.6240 H   0  0  0  0  0  0  0  0  0  0  0  0
   58.8913   28.7153   44.1296 H   0  0  0  0  0  0  0  0  0  0  0  0
   58.0582   27.7259   42.8732 H   0  0  0  0  0  0  0  0  0  0  0  0
   56.8366   29.5726   42.4174 H   0  0  0  0  0  0  0  0  0  0  0  0
   56.0034   29.2678   43.9895 H   0  0  0  0  0  0  0  0  0  0  0  0
   57.6635   30.0089   46.0866 H   0  0  0  0  0  0  0  0  0  0  0  0
   58.5305   32.1544   47.0211 H   0  0  0  0  0  0  0  0  0  0  0  0
   58.8683   34.1238   45.5263 H   0  0  0  0  0  0  0  0  0  0  0  0
   58.3234   33.9575   43.0953 H   0  0  0  0  0  0  0  0  0  0  0  0
  1  2  2  0
  2  3  1  0
  3  4  1  0
  4  5  2  0
  5  6  1  0
  6  7  2  0
  7  8  1  0
  8  9  2  0
  9 10  1  0
  2 11  1  0
 11 12  1  0
 12 13  1  0
 13 14  1  0
 14 15  2  0
 15 16  1  0
 16 17  2  0
 17 18  1  0
 18 19  2  0
 19 20  1  0
  9  4  1  0
 19 14  1  0
  3 21  1  0
  3 22  1  0
  5 23  1  0
  6 24  1  0
  7 25  1  0
  8 26  1  0
 11 27  1  0
 12 28  1  0
 12 29  1  0
 13 30  1  0
 13 31  1  0
 15 32  1  0
 16 33  1  0
 17 34  1  0
 18 35  1  0
M  CHG  1  10  -1
M  END
>  <UniqueID>  (69) 
66

>  <SMILES>  (69) 
O=C(Cc1ccccc1[O-])NCCc1ccccc1F

>  <Energy>  (69) 
29.35825385829429

>  <Genealogy>  (69) 
O=C(Cc1ccccc1[O-])NCCc1ccccc1F (protonated)
O=C(Cc1ccccc1[O-])NCCc1ccccc1F (3D coordinates assigned)
O=C(Cc1ccccc1[O-])NCCc1ccccc1F (optimized conformer: 29.35825385829429 kcal/mol)

>  <smiles>  (69) 
O=C(Cc1ccccc1O)NCCc1ccccc1F

>  <score_type>  (69) 
oracle

>  <origin>  (69) 
adg

>  <m_score__min__energy>  (69) 
-11.17

>  <m_primary>  (69) 
energy

$$$$
69:0
     RDKit          3D

 38 40  0  0  0  0  0  0  0  0999 V2000
   58.0340   24.7410   45.0460 C   0  0  0  0  0  0  0  0  0  0  0  0
   58.7730   25.5030   45.8450 C   0  0  0  0  0  0  0  0  0  0  0  0
   59.7620   25.2600   46.7240 N   0  0  0  0  0  0  0  0  0  0  0  0
   59.8320   26.5710   47.0190 C   0  0  0  0  0  0  0  0  0  0  0  0
   60.5910   27.2990   47.8300 C   0  0  0  0  0  0  0  0  0  0  0  0
   58.8380   26.8220   46.1360 N   0  0  0  0  0  0  0  0  0  0  0  0
   58.1430   27.9980   45.6940 C   0  0  0  0  0  0  0  0  0  0  0  0
   56.7980   27.9210   45.3040 C   0  0  0  0  0  0  0  0  0  0  0  0
   56.1210   29.0660   44.8770 C   0  0  0  0  0  0  0  0  0  0  0  0
   54.7880   28.9810   44.4960 O   0  0  0  0  0  0  0  0  0  0  0  0
   56.7830   30.2950   44.8310 C   0  0  0  0  0  0  0  0  0  0  0  0
   58.1320   30.3910   45.2110 C   0  0  0  0  0  0  0  0  0  0  0  0
   58.8100   31.6620   45.1850 N   0  0  0  0  0  0  0  0  0  0  0  0
   58.4040   32.7220   44.2580 C   0  0  0  0  0  0  0  0  0  0  0  0
   58.0800   34.0140   45.0330 C   0  0  0  0  0  0  0  0  0  0  0  0
   58.8840   34.1930   46.2720 N   0  0  0  0  0  0  0  0  0  0  0  0
   58.0930   33.9110   47.4830 C   0  0  0  0  0  0  0  0  0  0  0  0
   60.1560   33.4380   46.2580 C   0  0  0  0  0  0  0  0  0  0  0  0
   59.9220   31.9250   46.1040 C   0  0  0  0  0  0  0  0  0  0  0  0
   58.8030   29.2350   45.6480 C   0  0  0  0  0  0  0  0  0  0  0  0
   57.2666   25.1989   44.4045 H   0  0  0  0  0  0  0  0  0  0  0  0
   58.1895   23.6522   45.0259 H   0  0  0  0  0  0  0  0  0  0  0  0
   60.4443   28.3875   47.8909 H   0  0  0  0  0  0  0  0  0  0  0  0
   61.3663   26.8135   48.4409 H   0  0  0  0  0  0  0  0  0  0  0  0
   56.2737   26.9545   45.3345 H   0  0  0  0  0  0  0  0  0  0  0  0
   56.2446   31.1935   44.4951 H   0  0  0  0  0  0  0  0  0  0  0  0
   59.2229   32.9188   43.5504 H   0  0  0  0  0  0  0  0  0  0  0  0
   57.5057   32.3965   43.7130 H   0  0  0  0  0  0  0  0  0  0  0  0
   58.2693   34.8716   44.3707 H   0  0  0  0  0  0  0  0  0  0  0  0
   57.0271   33.9438   45.3437 H   0  0  0  0  0  0  0  0  0  0  0  0
   58.6989   34.1270   48.3753 H   0  0  0  0  0  0  0  0  0  0  0  0
   57.1932   34.5437   47.4888 H   0  0  0  0  0  0  0  0  0  0  0  0
   57.7964   32.8518   47.4888 H   0  0  0  0  0  0  0  0  0  0  0  0
   60.7699   33.7907   45.4161 H   0  0  0  0  0  0  0  0  0  0  0  0
   60.6651   33.6088   47.2180 H   0  0  0  0  0  0  0  0  0  0  0  0
   60.8355   31.4570   45.7083 H   0  0  0  0  0  0  0  0  0  0  0  0
   59.6728   31.5042   47.0893 H   0  0  0  0  0  0  0  0  0  0  0  0
   59.8566   29.3014   45.9570 H   0  0  0  0  0  0  0  0  0  0  0  0
  1  2  2  0
  2  3  1  0
  3  4  1  0
  4  5  2  0
  4  6  1  0
  6  7  1  0
  7  8  2  0
  8  9  1  0
  9 10  1  0
  9 11  2  0
 11 12  1  0
 12 13  1  0
 13 14  1  0
 14 15  1  0
 15 16  1  0
 16 17  1  0
 16 18  1  0
 18 19  1  0
 12 20  2  0
  6  2  1  0
 20  7  1  0
 19 13  1  0
  1 21  1  0
  1 22  1  0
  5 23  1  0
  5 24  1  0
  8 25  1  0
 11 26  1  0
 14 27  1  0
 14 28  1  0
 15 29  1  0
 15 30  1  0
 17 31  1  0
 17 32  1  0
 17 33  1  0
 18 34  1  0
 18 35  1  0
 19 36  1  0
 19 37  1  0
 20 38  1  0
M  CHG  2   3  -1  10  -1
M  END
>  <UniqueID>  (70) 
67

>  <SMILES>  (70) 
C=c1[n-]c(=C)n1-c1cc([O-])cc(N2CCN(C)CC2)c1

>  <Energy>  (70) 
43.30479392511808

>  <Genealogy>  (70) 
C=c1[n-]c(=C)n1-c1cc([O-])cc(N2CCN(C)CC2)c1 (protonated)
C=c1[n-]c(=C)n1-c1cc([O-])cc(N2CCN(C)CC2)c1 (3D coordinates assigned)
C=c1[n-]c(=C)n1-c1cc([O-])cc(N2CCN(C)CC2)c1 (nonaromatic ring conformer: 43.30479392511808 kcal/mol)

>  <smiles>  (70) 
C=c1[nH]c(=C)n1-c1cc(O)cc(N2CCN(C)CC2)c1

>  <score_type>  (70) 
oracle

>  <origin>  (70) 
adg

>  <m_score__min__energy>  (70) 
-10.289999999999999

>  <m_primary>  (70) 
energy

$$$$
70:0
     RDKit          3D

 35 38  0  0  0  0  0  0  0  0999 V2000
   57.3600   22.2750   47.8580 H   0  0  0  0  0  0  0  0  0  0  0  0
   56.9470   23.1550   48.2450 N   0  0  0  0  0  0  0  0  0  0  0  0
   57.0060   24.2700   47.5940 C   0  0  0  0  0  0  0  0  0  0  0  0
   55.9020   24.7410   46.9320 N   0  0  0  0  0  0  0  0  0  0  0  0
   55.9340   25.9130   46.2350 C   0  0  0  0  0  0  0  0  0  0  0  0
   54.8930   26.3400   45.6710 O   0  0  0  0  0  0  0  0  0  0  0  0
   57.1350   26.6220   46.1940 C   0  0  0  0  0  0  0  0  0  0  0  0
   57.5270   27.8270   45.6270 C   0  0  0  0  0  0  0  0  0  0  0  0
   56.7400   28.7180   44.7550 C   0  0  0  0  0  0  0  0  0  0  0  0
   55.6160   29.2900   45.1150 O   0  0  0  0  0  0  0  0  0  0  0  0
   55.1820   30.0320   44.1230 C   0  0  0  0  0  0  0  0  0  0  0  0
   54.2578   30.6284   44.1348 H   0  0  0  0  0  0  0  0  0  0  0  0
   56.0610   29.9500   43.0640 C   0  0  0  0  0  0  0  0  0  0  0  0
   55.9744   30.4573   42.0918 H   0  0  0  0  0  0  0  0  0  0  0  0
   57.0700   29.1040   43.4700 C   0  0  0  0  0  0  0  0  0  0  0  0
   57.9545   28.7992   42.8913 H   0  0  0  0  0  0  0  0  0  0  0  0
   58.8560   28.0100   46.0370 C   0  0  0  0  0  0  0  0  0  0  0  0
   59.7530   29.1650   45.6920 C   0  0  0  0  0  0  0  0  0  0  0  0
   60.7310   29.0218   46.1748 H   0  0  0  0  0  0  0  0  0  0  0  0
   59.8749   29.2095   44.5997 H   0  0  0  0  0  0  0  0  0  0  0  0
   59.1480   30.4570   46.1700 C   0  0  0  0  0  0  0  0  0  0  0  0
   59.1650   30.7890   47.5360 C   0  0  0  0  0  0  0  0  0  0  0  0
   59.5979   30.0883   48.2652 H   0  0  0  0  0  0  0  0  0  0  0  0
   58.6330   32.0080   47.9710 C   0  0  0  0  0  0  0  0  0  0  0  0
   58.6446   32.2614   49.0414 H   0  0  0  0  0  0  0  0  0  0  0  0
   58.0870   32.9040   47.0480 C   0  0  0  0  0  0  0  0  0  0  0  0
   57.6674   33.8607   47.3924 H   0  0  0  0  0  0  0  0  0  0  0  0
   58.0740   32.5850   45.6880 C   0  0  0  0  0  0  0  0  0  0  0  0
   57.6453   33.2917   44.9622 H   0  0  0  0  0  0  0  0  0  0  0  0
   58.6050   31.3690   45.2480 C   0  0  0  0  0  0  0  0  0  0  0  0
   58.5980   31.1246   44.1755 H   0  0  0  0  0  0  0  0  0  0  0  0
   59.2660   26.9700   46.8010 N   0  0  0  0  0  0  0  0  0  0  0  0
   60.2040   26.8370   47.2410 H   0  0  0  0  0  0  0  0  0  0  0  0
   58.2130   26.1440   46.8840 C   0  0  0  0  0  0  0  0  0  0  0  0
   58.1710   24.9810   47.5790 N   0  0  0  0  0  0  0  0  0  0  0  0
  1  2  1  0
  2  3  2  0
  3  4  1  0
  4  5  1  0
  5  6  2  0
  5  7  1  0
  7  8  1  0
  8  9  1  0
  9 10  1  0
 10 11  1  0
 11 12  1  0
 11 13  2  0
 13 14  1  0
 13 15  1  0
 15 16  1  0
  8 17  2  0
 17 18  1  0
 18 19  1  0
 18 20  1  0
 18 21  1  0
 21 22  2  0
 22 23  1  0
 22 24  1  0
 24 25  1  0
 24 26  2  0
 26 27  1  0
 26 28  1  0
 28 29  1  0
 28 30  2  0
 30 31  1  0
 17 32  1  0
 32 33  1  0
 32 34  1  0
 34 35  1  0
 35  3  1  0
 34  7  2  0
 15  9  2  0
 30 21  1  0
M  CHG  2   4  -1  35  -1
M  END
>  <UniqueID>  (71) 
68

>  <SMILES>  (71) 
[H]/N=c1\[n-]c(=O)c2c(-c3ccco3)c(Cc3ccccc3)[nH]c2[n-]1

>  <Energy>  (71) 
104.6804695098849

>  <Genealogy>  (71) 
N=c1[n-]c(=O)c2c(-c3ccco3)c(Cc3ccccc3)[nH]c2[n-]1 (protonated)
[H]/N=c1\[n-]c(=O)c2c(-c3ccco3)c(Cc3ccccc3)[nH]c2[n-]1 (cis-trans isomerization)
[H]/N=c1\[n-]c(=O)c2c(-c3ccco3)c(Cc3ccccc3)[nH]c2[n-]1 (3D coordinates assigned)
[H]/N=c1\[n-]c(=O)c2c(-c3ccco3)c(Cc3ccccc3)[nH]c2[n-]1 (optimized conformer: 104.6804695098849 kcal/mol)

>  <smiles>  (71) 
N=c1[nH]c(=O)c2c(-c3ccco3)c(Cc3ccccc3)[nH]c2[nH]1

>  <score_type>  (71) 
oracle

>  <origin>  (71) 
adg

>  <m_score__min__energy>  (71) 
-11.42

>  <m_primary>  (71) 
energy

$$$$
71:0
     RDKit          3D

 71 75  0  0  0  0  0  0  0  0999 V2000
   52.8680   24.4430   45.2560 C   0  0  0  0  0  0  0  0  0  0  0  0
   54.0790   25.0650   45.6680 O   0  0  0  0  0  0  0  0  0  0  0  0
   55.3610   24.6550   45.2680 C   0  0  0  0  0  0  0  0  0  0  0  0
   55.5650   23.4500   44.5660 C   0  0  0  0  0  0  0  0  0  0  0  0
   56.8520   23.0570   44.1920 C   0  0  0  0  0  0  0  0  0  0  0  0
   57.9490   23.8550   44.5160 C   0  0  0  0  0  0  0  0  0  0  0  0
   57.7640   25.0500   45.2110 C   0  0  0  0  0  0  0  0  0  0  0  0
   56.4740   25.4670   45.5820 C   0  0  0  0  0  0  0  0  0  0  0  0
   56.3230   26.7180   46.4080 C   0  0  0  0  0  0  0  0  0  0  0  0
   56.1120   27.8580   45.5230 N   0  0  0  0  0  0  0  0  0  0  0  0
   57.1190   28.3750   44.6500 C   0  0  0  0  0  0  0  0  0  0  0  0
   57.4470   27.7500   43.6060 O   0  0  0  0  0  0  0  0  0  0  0  0
   57.7360   29.6770   44.9460 C   0  0  0  0  0  0  0  0  0  0  0  0
   58.4130   29.9290   46.1640 C   0  0  0  0  0  0  0  0  0  0  0  0
   58.7100   28.9420   47.1180 O   0  0  0  0  0  0  0  0  0  0  0  0
   60.0170   28.5170   47.5060 C   0  0  0  0  0  0  0  0  0  0  0  0
   60.8280   29.6860   47.9970 C   0  0  0  0  0  0  0  0  0  0  0  0
   61.0000   29.9210   49.3720 C   0  0  0  0  0  0  0  0  0  0  0  0
   61.8220   30.9610   49.8160 C   0  0  0  0  0  0  0  0  0  0  0  0
   62.5210   31.7540   48.8940 C   0  0  0  0  0  0  0  0  0  0  0  0
   63.4120   32.8250   49.3780 C   0  0  0  0  0  0  0  0  0  0  0  0
   63.0540   34.0250   49.2300 O   0  0  0  0  0  0  0  0  0  0  0  0
   64.6530   32.5320   50.0440 N   0  0  0  0  0  0  0  0  0  0  0  0
   65.5880   33.5680   50.4450 C   0  0  0  0  0  0  0  0  0  0  0  0
   66.6920   32.8540   51.2140 C   0  0  0  0  0  0  0  0  0  0  0  0
   66.1100   31.5010   51.6050 C   0  0  0  0  0  0  0  0  0  0  0  0
   64.9840   31.2360   50.6160 C   0  0  0  0  0  0  0  0  0  0  0  0
   62.3550   31.5190   47.5200 C   0  0  0  0  0  0  0  0  0  0  0  0
   61.5200   30.4880   47.0760 C   0  0  0  0  0  0  0  0  0  0  0  0
   58.8110   31.1980   46.4430 N   0  0  0  0  0  0  0  0  0  0  0  0
   58.6060   32.2230   45.5810 C   0  0  0  0  0  0  0  0  0  0  0  0
   59.0240   33.5410   45.9340 N   0  0  0  0  0  0  0  0  0  0  0  0
   59.2660   34.8250   45.2550 C   0  0  0  0  0  0  0  0  0  0  0  0
   59.5940   35.5970   46.4890 C   0  0  0  0  0  0  0  0  0  0  0  0
   59.3480   34.2870   47.1610 C   0  0  0  0  0  0  0  0  0  0  0  0
   57.9900   31.9980   44.3920 N   0  0  0  0  0  0  0  0  0  0  0  0
   57.5440   30.7560   44.0530 C   0  0  0  0  0  0  0  0  0  0  0  0
   56.8080   30.5700   42.7500 C   0  0  0  0  0  0  0  0  0  0  0  0
   52.2886   24.1454   46.1424 H   0  0  0  0  0  0  0  0  0  0  0  0
   52.2791   25.1502   44.6535 H   0  0  0  0  0  0  0  0  0  0  0  0
   53.0998   23.5524   44.6535 H   0  0  0  0  0  0  0  0  0  0  0  0
   54.7043   22.8144   44.3108 H   0  0  0  0  0  0  0  0  0  0  0  0
   57.0007   22.1166   43.6410 H   0  0  0  0  0  0  0  0  0  0  0  0
   58.9618   23.5414   44.2229 H   0  0  0  0  0  0  0  0  0  0  0  0
   58.6342   25.6708   45.4707 H   0  0  0  0  0  0  0  0  0  0  0  0
   55.4601   26.6114   47.0818 H   0  0  0  0  0  0  0  0  0  0  0  0
   57.2336   26.8780   47.0039 H   0  0  0  0  0  0  0  0  0  0  0  0
   59.9313   27.7724   48.3111 H   0  0  0  0  0  0  0  0  0  0  0  0
   60.5211   28.0761   46.6334 H   0  0  0  0  0  0  0  0  0  0  0  0
   60.4842   29.2821   50.1039 H   0  0  0  0  0  0  0  0  0  0  0  0
   61.9211   31.1584   50.8936 H   0  0  0  0  0  0  0  0  0  0  0  0
   66.0024   34.0735   49.5603 H   0  0  0  0  0  0  0  0  0  0  0  0
   65.0997   34.3390   51.0591 H   0  0  0  0  0  0  0  0  0  0  0  0
   67.5791   32.7209   50.5774 H   0  0  0  0  0  0  0  0  0  0  0  0
   67.0119   33.4295   52.0952 H   0  0  0  0  0  0  0  0  0  0  0  0
   66.8781   30.7171   51.5308 H   0  0  0  0  0  0  0  0  0  0  0  0
   65.7471   31.4998   52.6434 H   0  0  0  0  0  0  0  0  0  0  0  0
   65.3186   30.5433   49.8297 H   0  0  0  0  0  0  0  0  0  0  0  0
   64.1141   30.7723   51.1041 H   0  0  0  0  0  0  0  0  0  0  0  0
   62.8839   32.1484   46.7891 H   0  0  0  0  0  0  0  0  0  0  0  0
   61.4050   30.3046   45.9975 H   0  0  0  0  0  0  0  0  0  0  0  0
   60.1065   34.7791   44.5469 H   0  0  0  0  0  0  0  0  0  0  0  0
   58.4577   35.2159   44.6195 H   0  0  0  0  0  0  0  0  0  0  0  0
   60.6245   35.9767   46.5517 H   0  0  0  0  0  0  0  0  0  0  0  0
   59.0996   36.5370   46.7754 H   0  0  0  0  0  0  0  0  0  0  0  0
   60.2410   33.8973   47.6716 H   0  0  0  0  0  0  0  0  0  0  0  0
   58.6020   34.2706   47.9692 H   0  0  0  0  0  0  0  0  0  0  0  0
   57.8380   32.8020   43.7420 H   0  0  0  0  0  0  0  0  0  0  0  0
   55.7603   30.3052   42.9553 H   0  0  0  0  0  0  0  0  0  0  0  0
   56.8434   31.5053   42.1721 H   0  0  0  0  0  0  0  0  0  0  0  0
   57.2835   29.7638   42.1721 H   0  0  0  0  0  0  0  0  0  0  0  0
  1  2  1  0
  2  3  1  0
  3  4  2  0
  4  5  1  0
  5  6  2  0
  6  7  1  0
  7  8  2  0
  8  9  1  0
  9 10  1  0
 10 11  1  0
 11 12  2  0
 11 13  1  0
 13 14  1  0
 14 15  1  0
 15 16  1  0
 16 17  1  0
 17 18  2  0
 18 19  1  0
 19 20  2  0
 20 21  1  0
 21 22  2  0
 21 23  1  0
 23 24  1  0
 24 25  1  0
 25 26  1  0
 26 27  1  0
 20 28  1  0
 28 29  2  0
 14 30  2  0
 30 31  1  0
 31 32  1  0
 32 33  1  0
 33 34  1  0
 34 35  1  0
 31 36  2  0
 36 37  1  0
 37 38  1  0
  8  3  1  0
 37 13  2  0
 29 17  1  0
 35 32  1  0
 27 23  1  0
  1 39  1  0
  1 40  1  0
  1 41  1  0
  4 42  1  0
  5 43  1  0
  6 44  1  0
  7 45  1  0
  9 46  1  0
  9 47  1  0
 16 48  1  0
 16 49  1  0
 18 50  1  0
 19 51  1  0
 24 52  1  0
 24 53  1  0
 25 54  1  0
 25 55  1  0
 26 56  1  0
 26 57  1  0
 27 58  1  0
 27 59  1  0
 28 60  1  0
 29 61  1  0
 33 62  1  0
 33 63  1  0
 34 64  1  0
 34 65  1  0
 35 66  1  0
 35 67  1  0
 36 68  1  0
 38 69  1  0
 38 70  1  0
 38 71  1  0
M  CHG  2  10  -1  36   1
M  END
>  <UniqueID>  (72) 
69

>  <SMILES>  (72) 
COc1ccccc1C[N-]C(=O)c1c(OCc2ccc(C(=O)N3CCCC3)cc2)nc(N2CCC2)[nH+]c1C

>  <Energy>  (72) 
132.6415397122233

>  <Genealogy>  (72) 
COc1ccccc1C[N-]C(=O)c1c(OCc2ccc(C(=O)N3CCCC3)cc2)nc(N2CCC2)[nH+]c1C (protonated)
COc1ccccc1C[N-]C(=O)c1c(OCc2ccc(C(=O)N3CCCC3)cc2)nc(N2CCC2)[nH+]c1C (3D coordinates assigned)
COc1ccccc1C[N-]C(=O)c1c(OCc2ccc(C(=O)N3CCCC3)cc2)nc(N2CCC2)[nH+]c1C (nonaromatic ring conformer: 132.6415397122233 kcal/mol)

>  <smiles>  (72) 
COc1ccccc1CNC(=O)c1c(C)nc(N2CCC2)nc1OCc1ccc(C(=O)N2CCCC2)cc1

>  <score_type>  (72) 
oracle

>  <origin>  (72) 
adg

>  <m_score__min__energy>  (72) 
-9.0800000000000001

>  <m_primary>  (72) 
energy

$$$$
72:0
     RDKit          3D

 44 46  0  0  0  0  0  0  0  0999 V2000
   56.6320   28.8860   45.0820 C   0  0  0  0  0  0  0  0  0  0  0  0
   57.0110   27.6070   45.6790 N   0  0  0  0  0  0  0  0  0  0  0  0
   56.1720   26.6410   46.0990 C   0  0  0  0  0  0  0  0  0  0  0  0
   54.7870   26.7090   45.9990 O   0  0  0  0  0  0  0  0  0  0  0  0
   56.8680   25.5820   46.6410 C   0  0  0  0  0  0  0  0  0  0  0  0
   58.2040   25.9190   46.5530 C   0  0  0  0  0  0  0  0  0  0  0  0
   58.2610   27.1710   45.9590 C   0  0  0  0  0  0  0  0  0  0  0  0
   59.5340   27.9200   45.6540 C   0  0  0  0  0  0  0  0  0  0  0  0
   59.7960   28.9730   46.6580 N   0  0  0  0  0  0  0  0  0  0  0  0
   60.9040   29.8320   46.2120 C   0  0  0  0  0  0  0  0  0  0  0  0
   61.0280   31.0660   47.1240 C   0  0  0  0  0  0  0  0  0  0  0  0
   60.5640   30.8150   48.5070 N   0  0  0  0  0  0  0  0  0  0  0  0
   59.3150   31.5040   48.9010 C   0  0  0  0  0  0  0  0  0  0  0  0
   59.2830   32.9620   48.5140 C   0  0  0  0  0  0  0  0  0  0  0  0
   59.4790   33.8430   49.3930 O   0  0  0  0  0  0  0  0  0  0  0  0
   59.0070   33.3790   47.1240 C   0  0  0  0  0  0  0  0  0  0  0  0
   59.5260   34.5890   46.6440 C   0  0  0  0  0  0  0  0  0  0  0  0
   59.2640   34.9990   45.3380 C   0  0  0  0  0  0  0  0  0  0  0  0
   58.4850   34.1880   44.5120 C   0  0  0  0  0  0  0  0  0  0  0  0
   57.9960   33.0090   44.9800 N   0  0  0  0  0  0  0  0  0  0  0  0
   58.2370   32.5850   46.2500 C   0  0  0  0  0  0  0  0  0  0  0  0
   57.7800   31.4720   46.6230 O   0  0  0  0  0  0  0  0  0  0  0  0
   60.6970   29.4190   48.9670 C   0  0  0  0  0  0  0  0  0  0  0  0
   60.1150   28.3850   47.9770 C   0  0  0  0  0  0  0  0  0  0  0  0
   56.4165   29.6131   45.8788 H   0  0  0  0  0  0  0  0  0  0  0  0
   57.4582   29.2590   44.4589 H   0  0  0  0  0  0  0  0  0  0  0  0
   55.7360   28.7486   44.4589 H   0  0  0  0  0  0  0  0  0  0  0  0
   56.4450   24.6565   47.0587 H   0  0  0  0  0  0  0  0  0  0  0  0
   59.0577   25.3121   46.8889 H   0  0  0  0  0  0  0  0  0  0  0  0
   60.3746   27.2105   45.6522 H   0  0  0  0  0  0  0  0  0  0  0  0
   59.4251   28.4000   44.6703 H   0  0  0  0  0  0  0  0  0  0  0  0
   61.8428   29.2598   46.2470 H   0  0  0  0  0  0  0  0  0  0  0  0
   60.7035   30.1674   45.1837 H   0  0  0  0  0  0  0  0  0  0  0  0
   62.0844   31.3707   47.1590 H   0  0  0  0  0  0  0  0  0  0  0  0
   60.3863   31.8526   46.7005 H   0  0  0  0  0  0  0  0  0  0  0  0
   58.4691   30.9962   48.4146 H   0  0  0  0  0  0  0  0  0  0  0  0
   59.2538   31.4595   49.9984 H   0  0  0  0  0  0  0  0  0  0  0  0
   60.1435   35.2186   47.3015 H   0  0  0  0  0  0  0  0  0  0  0  0
   59.6668   35.9513   44.9626 H   0  0  0  0  0  0  0  0  0  0  0  0
   58.2663   34.5030   43.4810 H   0  0  0  0  0  0  0  0  0  0  0  0
   61.7654   29.2002   49.1107 H   0  0  0  0  0  0  0  0  0  0  0  0
   60.1233   29.3305   49.9013 H   0  0  0  0  0  0  0  0  0  0  0  0
   60.8519   27.5808   47.8347 H   0  0  0  0  0  0  0  0  0  0  0  0
   59.1762   28.0058   48.4070 H   0  0  0  0  0  0  0  0  0  0  0  0
  1  2  1  0
  2  3  1  0
  3  4  1  0
  3  5  2  0
  5  6  1  0
  6  7  2  0
  7  8  1  0
  8  9  1  0
  9 10  1  0
 10 11  1  0
 11 12  1  0
 12 13  1  0
 13 14  1  0
 14 15  2  0
 14 16  1  0
 16 17  2  0
 17 18  1  0
 18 19  2  0
 19 20  1  0
 20 21  1  0
 21 22  2  0
 12 23  1  0
 23 24  1  0
  7  2  1  0
 24  9  1  0
 21 16  1  0
  1 25  1  0
  1 26  1  0
  1 27  1  0
  5 28  1  0
  6 29  1  0
  8 30  1  0
  8 31  1  0
 10 32  1  0
 10 33  1  0
 11 34  1  0
 11 35  1  0
 13 36  1  0
 13 37  1  0
 17 38  1  0
 18 39  1  0
 19 40  1  0
 23 41  1  0
 23 42  1  0
 24 43  1  0
 24 44  1  0
M  CHG  2   4  -1  20  -1
M  END
>  <UniqueID>  (73) 
70

>  <SMILES>  (73) 
Cn1c([O-])ccc1CN1CCN(CC(=O)c2ccc[n-]c2=O)CC1

>  <Energy>  (73) 
91.93890177040502

>  <Genealogy>  (73) 
Cn1c([O-])ccc1CN1CCN(CC(=O)c2ccc[n-]c2=O)CC1 (protonated)
Cn1c([O-])ccc1CN1CCN(CC(=O)c2ccc[n-]c2=O)CC1 (3D coordinates assigned)
Cn1c([O-])ccc1CN1CCN(CC(=O)c2ccc[n-]c2=O)CC1 (nonaromatic ring conformer: 91.93890177040502 kcal/mol)

>  <smiles>  (73) 
Cn1c(O)ccc1CN1CCN(CC(=O)c2ccc[nH]c2=O)CC1

>  <score_type>  (73) 
oracle

>  <origin>  (73) 
adg

>  <m_score__min__energy>  (73) 
-11.52

>  <m_primary>  (73) 
energy

$$$$
73:0
     RDKit          3D

 39 41  0  0  0  0  0  0  0  0999 V2000
   54.8940   31.2100   51.9830 C   0  0  0  0  0  0  0  0  0  0  0  0
   54.6070   30.0170   52.5560 C   0  0  0  0  0  0  0  0  0  0  0  0
   55.6780   29.1400   52.9020 C   0  0  0  0  0  0  0  0  0  0  0  0
   57.1020   29.5420   52.8190 C   0  0  0  0  0  0  0  0  0  0  0  0
   57.8310   29.4300   51.6940 N   0  0  0  0  0  0  0  0  0  0  0  0
   59.0210   29.9590   52.0390 C   0  0  0  0  0  0  0  0  0  0  0  0
   59.9900   30.0350   51.2390 O   0  0  0  0  0  0  0  0  0  0  0  0
   59.0930   30.4030   53.3110 N   0  0  0  0  0  0  0  0  0  0  0  0
   57.8690   30.1390   53.8060 C   0  0  0  0  0  0  0  0  0  0  0  0
   57.4870   30.4150   55.2060 C   0  0  0  0  0  0  0  0  0  0  0  0
   57.0810   29.2970   56.1130 C   0  0  0  0  0  0  0  0  0  0  0  0
   57.4580   31.5990   55.6370 O   0  0  0  0  0  0  0  0  0  0  0  0
   55.4100   27.8480   53.3660 C   0  0  0  0  0  0  0  0  0  0  0  0
   54.1030   27.3970   53.5170 C   0  0  0  0  0  0  0  0  0  0  0  0
   53.8380   25.9870   53.9790 C   0  0  0  0  0  0  0  0  0  0  0  0
   53.2150   25.9860   55.3710 C   0  0  0  0  0  0  0  0  0  0  0  0
   53.0400   28.2490   53.2120 C   0  0  0  0  0  0  0  0  0  0  0  0
   53.2510   29.5690   52.7480 C   0  0  0  0  0  0  0  0  0  0  0  0
   52.1800   30.3880   52.5580 C   0  0  0  0  0  0  0  0  0  0  0  0
   51.6940   30.8740   51.2500 C   0  0  0  0  0  0  0  0  0  0  0  0
   51.7050   30.1260   50.1330 N   0  0  0  0  0  0  0  0  0  0  0  0
   51.0820   30.9100   49.2250 C   0  0  0  0  0  0  0  0  0  0  0  0
   50.9090   30.5560   48.0310 O   0  0  0  0  0  0  0  0  0  0  0  0
   50.6510   32.0970   49.7020 N   0  0  0  0  0  0  0  0  0  0  0  0
   51.0330   32.0540   50.9880 C   0  0  0  0  0  0  0  0  0  0  0  0
   50.7510   33.0550   51.9100 O   0  0  0  0  0  0  0  0  0  0  0  0
   54.0809   31.8986   51.7097 H   0  0  0  0  0  0  0  0  0  0  0  0
   55.9402   31.4904   51.7909 H   0  0  0  0  0  0  0  0  0  0  0  0
   57.1961   29.6140   57.1600 H   0  0  0  0  0  0  0  0  0  0  0  0
   56.0299   29.0340   55.9230 H   0  0  0  0  0  0  0  0  0  0  0  0
   57.7184   28.4208   55.9230 H   0  0  0  0  0  0  0  0  0  0  0  0
   56.2461   27.1781   53.6154 H   0  0  0  0  0  0  0  0  0  0  0  0
   53.1486   25.4992   53.2741 H   0  0  0  0  0  0  0  0  0  0  0  0
   54.7923   25.4413   54.0174 H   0  0  0  0  0  0  0  0  0  0  0  0
   54.0118   25.9873   56.1293 H   0  0  0  0  0  0  0  0  0  0  0  0
   52.5905   26.8831   55.4938 H   0  0  0  0  0  0  0  0  0  0  0  0
   52.5933   25.0869   55.4938 H   0  0  0  0  0  0  0  0  0  0  0  0
   52.0097   27.8840   53.3358 H   0  0  0  0  0  0  0  0  0  0  0  0
   51.6306   30.7152   53.4531 H   0  0  0  0  0  0  0  0  0  0  0  0
  1  2  2  0
  2  3  1  0
  3  4  1  0
  4  5  1  0
  5  6  1  0
  6  7  2  0
  6  8  1  0
  8  9  1  0
  9 10  1  0
 10 11  1  0
 10 12  2  0
  3 13  2  0
 13 14  1  0
 14 15  1  0
 15 16  1  0
 14 17  2  0
 17 18  1  0
 18 19  2  3
 19 20  1  0
 20 21  1  0
 21 22  1  0
 22 23  2  0
 22 24  1  0
 24 25  1  0
 25 26  1  0
 18  2  1  0
 25 20  2  0
  9  4  2  0
  1 27  1  0
  1 28  1  0
 11 29  1  0
 11 30  1  0
 11 31  1  0
 13 32  1  0
 15 33  1  0
 15 34  1  0
 16 35  1  0
 16 36  1  0
 16 37  1  0
 17 38  1  0
 19 39  1  0
M  CHG  5   5  -1   8  -1  21  -1  24  -1  26  -1
M  END
>  <UniqueID>  (74) 
71

>  <SMILES>  (74) 
C=c1c(-c2[n-]c(=O)[n-]c2C(C)=O)cc(CC)cc1=Cc1[n-]c(=O)[n-]c1[O-]

>  <Energy>  (74) 
121.5234467104298

>  <Genealogy>  (74) 
C=c1c(-c2[n-]c(=O)[n-]c2C(C)=O)cc(CC)cc1=Cc1[n-]c(=O)[n-]c1[O-] (protonated)
C=c1c(-c2[n-]c(=O)[n-]c2C(C)=O)cc(CC)cc1=Cc1[n-]c(=O)[n-]c1[O-] (3D coordinates assigned)
C=c1c(-c2[n-]c(=O)[n-]c2C(C)=O)cc(CC)cc1=Cc1[n-]c(=O)[n-]c1[O-] (optimized conformer: 121.5234467104298 kcal/mol)

>  <smiles>  (74) 
C=c1c(-c2[nH]c(=O)[nH]c2C(C)=O)cc(CC)cc1=Cc1[nH]c(=O)[nH]c1O

>  <score_type>  (74) 
oracle

>  <origin>  (74) 
adg

>  <m_score__min__energy>  (74) 
-16.899999999999999

>  <m_primary>  (74) 
energy

$$$$
74:0
     RDKit          3D

 40 42  0  0  0  0  0  0  0  0999 V2000
   55.3320   29.2300   45.1920 O   0  0  0  0  0  0  0  0  0  0  0  0
   56.5100   28.8290   44.9870 C   0  0  0  0  0  0  0  0  0  0  0  0
   57.3980   29.5960   44.1610 N   0  0  0  0  0  0  0  0  0  0  0  0
   57.8210   30.9500   44.3890 C   0  0  0  0  0  0  0  0  0  0  0  0
   58.2440   31.3910   45.6550 C   0  0  0  0  0  0  0  0  0  0  0  0
   58.6310   32.7260   45.8490 C   0  0  0  0  0  0  0  0  0  0  0  0
   59.1440   33.2860   47.4390 S   0  0  0  0  0  0  0  0  0  0  0  0
   58.8410   34.7530   47.5850 O   0  0  0  0  0  0  0  0  0  0  0  0
   58.3740   32.5330   48.4880 O   0  0  0  0  0  0  0  0  0  0  0  0
   60.8530   32.9990   47.6420 N   0  0  0  0  0  0  0  0  0  0  0  0
   61.1590   31.5820   47.3890 C   0  0  0  0  0  0  0  0  0  0  0  0
   62.6800   31.3360   47.4810 C   0  0  0  0  0  0  0  0  0  0  0  0
   63.3940   32.5290   47.7470 O   0  0  0  0  0  0  0  0  0  0  0  0
   63.1140   33.4840   46.7410 C   0  0  0  0  0  0  0  0  0  0  0  0
   61.6160   33.8560   46.7190 C   0  0  0  0  0  0  0  0  0  0  0  0
   58.5670   33.6280   44.7810 C   0  0  0  0  0  0  0  0  0  0  0  0
   58.1230   33.2010   43.5280 C   0  0  0  0  0  0  0  0  0  0  0  0
   57.7470   31.8690   43.3310 C   0  0  0  0  0  0  0  0  0  0  0  0
   57.3010   31.4620   42.0780 O   0  0  0  0  0  0  0  0  0  0  0  0
   57.0120   27.5980   45.6340 C   0  0  0  0  0  0  0  0  0  0  0  0
   58.3610   27.4350   45.7570 N   0  0  0  0  0  0  0  0  0  0  0  0
   58.9090   26.3340   46.3350 C   0  0  0  0  0  0  0  0  0  0  0  0
   58.0880   25.3210   46.8280 C   0  0  0  0  0  0  0  0  0  0  0  0
   56.7030   25.4510   46.7200 C   0  0  0  0  0  0  0  0  0  0  0  0
   55.9520   24.5400   47.1630 O   0  0  0  0  0  0  0  0  0  0  0  0
   56.1510   26.5910   46.1200 C   0  0  0  0  0  0  0  0  0  0  0  0
   54.7680   26.7090   46.0140 O   0  0  0  0  0  0  0  0  0  0  0  0
   58.2718   30.6856   46.4986 H   0  0  0  0  0  0  0  0  0  0  0  0
   60.6453   30.9609   48.1376 H   0  0  0  0  0  0  0  0  0  0  0  0
   60.8149   31.3173   46.3783 H   0  0  0  0  0  0  0  0  0  0  0  0
   62.8754   30.6170   48.2903 H   0  0  0  0  0  0  0  0  0  0  0  0
   63.0206   30.9447   46.5110 H   0  0  0  0  0  0  0  0  0  0  0  0
   63.7053   34.3912   46.9342 H   0  0  0  0  0  0  0  0  0  0  0  0
   63.3766   33.0472   45.7662 H   0  0  0  0  0  0  0  0  0  0  0  0
   61.5004   34.9068   47.0231 H   0  0  0  0  0  0  0  0  0  0  0  0
   61.2301   33.7090   45.6994 H   0  0  0  0  0  0  0  0  0  0  0  0
   58.8672   34.6758   44.9290 H   0  0  0  0  0  0  0  0  0  0  0  0
   58.0689   33.9151   42.6930 H   0  0  0  0  0  0  0  0  0  0  0  0
   60.0023   26.2420   46.4140 H   0  0  0  0  0  0  0  0  0  0  0  0
   58.5275   24.4285   47.2973 H   0  0  0  0  0  0  0  0  0  0  0  0
  1  2  2  0
  2  3  1  0
  3  4  1  0
  4  5  2  0
  5  6  1  0
  6  7  1  0
  7  8  2  0
  7  9  2  0
  7 10  1  0
 10 11  1  0
 11 12  1  0
 12 13  1  0
 13 14  1  0
 14 15  1  0
  6 16  2  0
 16 17  1  0
 17 18  2  0
 18 19  1  0
  2 20  1  0
 20 21  1  0
 21 22  1  0
 22 23  2  0
 23 24  1  0
 24 25  2  0
 24 26  1  0
 26 27  1  0
 18  4  1  0
 26 20  2  0
 15 10  1  0
  5 28  1  0
 11 29  1  0
 11 30  1  0
 12 31  1  0
 12 32  1  0
 14 33  1  0
 14 34  1  0
 15 35  1  0
 15 36  1  0
 16 37  1  0
 17 38  1  0
 22 39  1  0
 23 40  1  0
M  CHG  4   3  -1  19  -1  21  -1  27  -1
M  END
>  <UniqueID>  (75) 
72

>  <SMILES>  (75) 
O=C([N-]c1cc(S(=O)(=O)N2CCOCC2)ccc1[O-])c1[n-]ccc(=O)c1[O-]

>  <Energy>  (75) 
55.42167544117069

>  <Genealogy>  (75) 
O=C([N-]c1cc(S(=O)(=O)N2CCOCC2)ccc1[O-])c1[n-]ccc(=O)c1[O-] (protonated)
O=C([N-]c1cc(S(=O)(=O)N2CCOCC2)ccc1[O-])c1[n-]ccc(=O)c1[O-] (3D coordinates assigned)
O=C([N-]c1cc(S(=O)(=O)N2CCOCC2)ccc1[O-])c1[n-]ccc(=O)c1[O-] (nonaromatic ring conformer: 55.42167544117069 kcal/mol)

>  <smiles>  (75) 
O=C(Nc1cc(S(=O)(=O)N2CCOCC2)ccc1O)c1[nH]ccc(=O)c1O

>  <score_type>  (75) 
oracle

>  <origin>  (75) 
adg

>  <m_score__min__energy>  (75) 
-16.260000000000002

>  <m_primary>  (75) 
energy

$$$$
75:0
     RDKit          3D

 81 84  0  0  0  0  0  0  0  0999 V2000
   64.1560   31.3110   51.5670 C   0  0  0  0  0  0  0  0  0  0  0  0
   63.8100   31.5450   50.3300 N   0  0  0  0  0  0  0  0  0  0  0  0
   64.6940   32.3530   49.4730 C   0  0  0  0  0  0  0  0  0  0  0  0
   66.0420   32.6040   50.1470 C   0  0  0  0  0  0  0  0  0  0  0  0
   62.5730   31.0080   49.8060 C   0  0  0  0  0  0  0  0  0  0  0  0
   62.2940   31.0700   48.4270 C   0  0  0  0  0  0  0  0  0  0  0  0
   61.1090   30.5340   47.9150 C   0  0  0  0  0  0  0  0  0  0  0  0
   60.1780   29.9280   48.7740 C   0  0  0  0  0  0  0  0  0  0  0  0
   58.9100   29.3240   48.2260 C   0  0  0  0  0  0  0  0  0  0  0  0
   58.9750   27.8450   48.2300 N   0  0  0  0  0  0  0  0  0  0  0  0
   60.3370   27.3250   47.9710 C   0  0  0  0  0  0  0  0  0  0  0  0
   60.7110   27.4010   46.4800 C   0  0  0  0  0  0  0  0  0  0  0  0
   59.6630   26.8680   45.5710 N   0  0  0  0  0  0  0  0  0  0  0  0
   59.2820   27.8510   44.5280 C   0  0  0  0  0  0  0  0  0  0  0  0
   57.7570   27.9650   44.3400 C   0  0  0  0  0  0  0  0  0  0  0  0
   57.3310   28.5860   42.9960 C   0  0  0  0  0  0  0  0  0  0  0  0
   56.3890   29.7980   43.1340 C   0  0  0  0  0  0  0  0  0  0  0  0
   57.1180   31.0270   43.5180 N   0  0  0  0  0  0  0  0  0  0  0  0
   57.4450   31.2500   44.8340 C   0  0  0  0  0  0  0  0  0  0  0  0
   57.1030   30.4310   45.7310 O   0  0  0  0  0  0  0  0  0  0  0  0
   58.1570   32.3920   45.2040 C   0  0  0  0  0  0  0  0  0  0  0  0
   58.5100   33.3160   44.2200 C   0  0  0  0  0  0  0  0  0  0  0  0
   59.2580   34.5010   44.5490 N   0  0  0  0  0  0  0  0  0  0  0  0
   59.7210   34.4160   45.9110 C   0  0  0  0  0  0  0  0  0  0  0  0
   58.8600   34.7310   46.9730 C   0  0  0  0  0  0  0  0  0  0  0  0
   59.2860   34.6000   48.2970 C   0  0  0  0  0  0  0  0  0  0  0  0
   60.5900   34.1500   48.5990 C   0  0  0  0  0  0  0  0  0  0  0  0
   61.0310   33.9980   49.9770 N   0  0  0  0  0  0  0  0  0  0  0  0
   60.1230   33.4600   50.9970 C   0  0  0  0  0  0  0  0  0  0  0  0
   62.3990   34.3690   50.3690 C   0  0  0  0  0  0  0  0  0  0  0  0
   61.4510   33.8410   47.5220 C   0  0  0  0  0  0  0  0  0  0  0  0
   61.0180   33.9660   46.1980 C   0  0  0  0  0  0  0  0  0  0  0  0
   58.1490   33.0800   42.9330 N   0  0  0  0  0  0  0  0  0  0  0  0
   57.4670   31.9630   42.5730 C   0  0  0  0  0  0  0  0  0  0  0  0
   57.1570   31.8070   41.3610 O   0  0  0  0  0  0  0  0  0  0  0  0
   58.5060   26.2870   46.2880 C   0  0  0  0  0  0  0  0  0  0  0  0
   57.9380   27.2470   47.3490 C   0  0  0  0  0  0  0  0  0  0  0  0
   60.4390   29.8860   50.1530 C   0  0  0  0  0  0  0  0  0  0  0  0
   61.6240   30.4210   50.6630 C   0  0  0  0  0  0  0  0  0  0  0  0
   63.5034   30.7087   52.2161 H   0  0  0  0  0  0  0  0  0  0  0  0
   65.1001   31.7161   51.9601 H   0  0  0  0  0  0  0  0  0  0  0  0
   64.8608   31.8191   48.5258 H   0  0  0  0  0  0  0  0  0  0  0  0
   64.2099   33.3240   49.2921 H   0  0  0  0  0  0  0  0  0  0  0  0
   65.9157   32.5805   51.2395 H   0  0  0  0  0  0  0  0  0  0  0  0
   66.7548   31.8231   49.8434 H   0  0  0  0  0  0  0  0  0  0  0  0
   66.4260   33.5891   49.8434 H   0  0  0  0  0  0  0  0  0  0  0  0
   63.0157   31.5449   47.7461 H   0  0  0  0  0  0  0  0  0  0  0  0
   60.9050   30.5871   46.8354 H   0  0  0  0  0  0  0  0  0  0  0  0
   58.0614   29.6473   48.8467 H   0  0  0  0  0  0  0  0  0  0  0  0
   58.7834   29.6638   47.1875 H   0  0  0  0  0  0  0  0  0  0  0  0
   61.0597   27.9197   48.5489 H   0  0  0  0  0  0  0  0  0  0  0  0
   60.3592   26.2674   48.2727 H   0  0  0  0  0  0  0  0  0  0  0  0
   60.8916   28.4547   46.2210 H   0  0  0  0  0  0  0  0  0  0  0  0
   61.6044   26.7744   46.3414 H   0  0  0  0  0  0  0  0  0  0  0  0
   59.6750   28.8375   44.8151 H   0  0  0  0  0  0  0  0  0  0  0  0
   59.7069   27.5026   43.5751 H   0  0  0  0  0  0  0  0  0  0  0  0
   57.3249   26.9556   44.4060 H   0  0  0  0  0  0  0  0  0  0  0  0
   57.3907   28.6379   45.1293 H   0  0  0  0  0  0  0  0  0  0  0  0
   58.2367   28.9112   42.4631 H   0  0  0  0  0  0  0  0  0  0  0  0
   56.7729   27.8106   42.4507 H   0  0  0  0  0  0  0  0  0  0  0  0
   55.8875   29.9693   42.1701 H   0  0  0  0  0  0  0  0  0  0  0  0
   55.6610   29.5734   43.9275 H   0  0  0  0  0  0  0  0  0  0  0  0
   58.4354   32.5609   46.2547 H   0  0  0  0  0  0  0  0  0  0  0  0
   60.0650   34.5820   43.8870 H   0  0  0  0  0  0  0  0  0  0  0  0
   58.6730   35.3620   44.4320 H   0  0  0  0  0  0  0  0  0  0  0  0
   57.8401   35.0844   46.7612 H   0  0  0  0  0  0  0  0  0  0  0  0
   58.5958   34.8510   49.1159 H   0  0  0  0  0  0  0  0  0  0  0  0
   60.5162   33.6930   51.9975 H   0  0  0  0  0  0  0  0  0  0  0  0
   59.1283   33.9146   50.8789 H   0  0  0  0  0  0  0  0  0  0  0  0
   60.0440   32.3692   50.8789 H   0  0  0  0  0  0  0  0  0  0  0  0
   62.4733   34.3891   51.4663 H   0  0  0  0  0  0  0  0  0  0  0  0
   63.1086   33.6308   49.9670 H   0  0  0  0  0  0  0  0  0  0  0  0
   62.6384   35.3645   49.9670 H   0  0  0  0  0  0  0  0  0  0  0  0
   62.4756   33.4975   47.7277 H   0  0  0  0  0  0  0  0  0  0  0  0
   61.7006   33.7091   45.3746 H   0  0  0  0  0  0  0  0  0  0  0  0
   57.7156   26.0578   45.5581 H   0  0  0  0  0  0  0  0  0  0  0  0
   58.8499   25.3784   46.8040 H   0  0  0  0  0  0  0  0  0  0  0  0
   57.4091   28.0617   46.8326 H   0  0  0  0  0  0  0  0  0  0  0  0
   57.2709   26.6556   47.9934 H   0  0  0  0  0  0  0  0  0  0  0  0
   59.7066   29.4295   50.8350 H   0  0  0  0  0  0  0  0  0  0  0  0
   61.8173   30.3831   51.7452 H   0  0  0  0  0  0  0  0  0  0  0  0
  1  2  2  0
  2  3  1  0
  3  4  1  0
  2  5  1  0
  5  6  2  0
  6  7  1  0
  7  8  2  0
  8  9  1  0
  9 10  1  0
 10 11  1  0
 11 12  1  0
 12 13  1  0
 13 14  1  0
 14 15  1  0
 15 16  1  0
 16 17  1  0
 17 18  1  0
 18 19  1  0
 19 20  2  0
 19 21  1  0
 21 22  2  0
 22 23  1  0
 23 24  1  0
 24 25  2  0
 25 26  1  0
 26 27  2  0
 27 28  1  0
 28 29  1  0
 28 30  1  0
 27 31  1  0
 31 32  2  0
 22 33  1  0
 33 34  1  0
 34 35  2  0
 13 36  1  0
 36 37  1  0
  8 38  1  0
 38 39  2  0
 39  5  1  0
 37 10  1  0
 34 18  1  0
 32 24  1  0
  1 40  1  0
  1 41  1  0
  3 42  1  0
  3 43  1  0
  4 44  1  0
  4 45  1  0
  4 46  1  0
  6 47  1  0
  7 48  1  0
  9 49  1  0
  9 50  1  0
 11 51  1  0
 11 52  1  0
 12 53  1  0
 12 54  1  0
 14 55  1  0
 14 56  1  0
 15 57  1  0
 15 58  1  0
 16 59  1  0
 16 60  1  0
 17 61  1  0
 17 62  1  0
 21 63  1  0
 23 64  1  0
 23 65  1  0
 25 66  1  0
 26 67  1  0
 29 68  1  0
 29 69  1  0
 29 70  1  0
 30 71  1  0
 30 72  1  0
 30 73  1  0
 31 74  1  0
 32 75  1  0
 36 76  1  0
 36 77  1  0
 37 78  1  0
 37 79  1  0
 38 80  1  0
 39 81  1  0
M  CHG  3   2   1  23   1  33  -1
M  END
>  <UniqueID>  (76) 
73

>  <SMILES>  (76) 
C=[N+](CC)c1ccc(CN2CCN(CCCCn3c(=O)cc([NH2+]c4ccc(N(C)C)cc4)[n-]c3=O)CC2)cc1

>  <Energy>  (76) 
107.19275115718906

>  <Genealogy>  (76) 
C=[N+](CC)c1ccc(CN2CCN(CCCCn3c(=O)cc([NH2+]c4ccc(N(C)C)cc4)[n-]c3=O)CC2)cc1 (protonated)
C=[N+](CC)c1ccc(CN2CCN(CCCCn3c(=O)cc([NH2+]c4ccc(N(C)C)cc4)[n-]c3=O)CC2)cc1 (3D coordinates assigned)
C=[N+](CC)c1ccc(CN2CCN(CCCCn3c(=O)cc([NH2+]c4ccc(N(C)C)cc4)[n-]c3=O)CC2)cc1 (nonaromatic ring conformer: 107.19275115718906 kcal/mol)

>  <smiles>  (76) 
C=[N+](CC)c1ccc(CN2CCN(CCCCn3c(=O)cc(Nc4ccc(N(C)C)cc4)[nH]c3=O)CC2)cc1

>  <score_type>  (76) 
oracle

>  <origin>  (76) 
adg

>  <m_score__min__energy>  (76) 
-7.75

>  <m_primary>  (76) 
energy

$$$$
76:0
     RDKit          3D

 59 62  0  0  0  0  0  0  0  0999 V2000
   50.8230   33.0950   51.9950 N   0  0  0  0  0  0  0  0  0  0  0  0
   51.3850   32.0680   51.1740 C   0  0  0  0  0  0  0  0  0  0  0  0
   51.0100   31.9670   49.9690 O   0  0  0  0  0  0  0  0  0  0  0  0
   52.3920   31.1240   51.7240 C   0  0  0  0  0  0  0  0  0  0  0  0
   51.9980   29.8870   52.2710 C   0  0  0  0  0  0  0  0  0  0  0  0
   52.9550   29.0020   52.7780 C   0  0  0  0  0  0  0  0  0  0  0  0
   54.3140   29.3410   52.7600 C   0  0  0  0  0  0  0  0  0  0  0  0
   54.7340   30.5800   52.2240 C   0  0  0  0  0  0  0  0  0  0  0  0
   56.1640   31.0010   52.2400 C   0  0  0  0  0  0  0  0  0  0  0  0
   56.4330   32.2030   51.9570 O   0  0  0  0  0  0  0  0  0  0  0  0
   57.2350   30.0870   52.5940 N   0  0  2  0  0  0  0  0  0  0  0  0
   57.9450   30.5620   53.8030 C   0  0  0  0  0  0  0  0  0  0  0  0
   58.7950   31.8300   53.5570 C   0  0  0  0  0  0  0  0  0  0  0  0
   59.4250   31.8810   52.1580 C   0  0  0  0  0  0  0  0  0  0  0  0
   59.5450   30.4800   51.5490 C   0  0  2  0  0  0  0  0  0  0  0  0
   60.2420   30.5400   50.2040 C   0  0  0  0  0  0  0  0  0  0  0  0
   61.1370   29.6890   49.9400 O   0  0  0  0  0  0  0  0  0  0  0  0
   59.8830   31.5190   49.2050 N   0  0  0  0  0  0  0  0  0  0  0  0
   60.8610   31.9290   48.1830 C   0  0  0  0  0  0  0  0  0  0  0  0
   60.3200   31.6020   46.7870 C   0  0  0  0  0  0  0  0  0  0  0  0
   58.8760   31.8900   46.6810 N   0  0  0  0  0  0  0  0  0  0  0  0
   58.1020   31.2440   45.6430 C   0  0  0  0  0  0  0  0  0  0  0  0
   57.7370   29.8870   45.7490 C   0  0  0  0  0  0  0  0  0  0  0  0
   57.0610   29.2470   44.7020 C   0  0  0  0  0  0  0  0  0  0  0  0
   56.7530   29.9490   43.5310 C   0  0  0  0  0  0  0  0  0  0  0  0
   57.1120   31.2960   43.4110 C   0  0  0  0  0  0  0  0  0  0  0  0
   57.7740   31.9430   44.4640 C   0  0  0  0  0  0  0  0  0  0  0  0
   58.2310   32.6790   47.7470 C   0  0  0  0  0  0  0  0  0  0  0  0
   58.4990   32.0110   49.1060 C   0  0  0  0  0  0  0  0  0  0  0  0
   58.1460   29.8040   51.4420 C   0  0  0  0  0  0  0  0  0  0  0  0
   53.7600   31.4620   51.7090 C   0  0  0  0  0  0  0  0  0  0  0  0
   50.9180   34.1040   51.7310 H   0  0  0  0  0  0  0  0  0  0  0  0
   50.9323   29.6158   52.2995 H   0  0  0  0  0  0  0  0  0  0  0  0
   52.6385   28.0339   53.1934 H   0  0  0  0  0  0  0  0  0  0  0  0
   55.0583   28.6396   53.1650 H   0  0  0  0  0  0  0  0  0  0  0  0
   56.7990   29.1700   52.8450 H   0  0  0  0  0  0  0  0  0  0  0  0
   57.1992   30.7873   54.5795 H   0  0  0  0  0  0  0  0  0  0  0  0
   58.6354   29.7624   54.1095 H   0  0  0  0  0  0  0  0  0  0  0  0
   58.1492   32.7118   53.6807 H   0  0  0  0  0  0  0  0  0  0  0  0
   59.6204   31.8131   54.2839 H   0  0  0  0  0  0  0  0  0  0  0  0
   58.7958   32.5030   51.5043 H   0  0  0  0  0  0  0  0  0  0  0  0
   60.4348   32.3078   52.2478 H   0  0  0  0  0  0  0  0  0  0  0  0
   60.1619   29.8595   52.2156 H   0  0  0  0  0  0  0  0  0  0  0  0
   61.0391   33.0116   48.2614 H   0  0  0  0  0  0  0  0  0  0  0  0
   61.8040   31.3859   48.3438 H   0  0  0  0  0  0  0  0  0  0  0  0
   60.8600   32.2077   46.0443 H   0  0  0  0  0  0  0  0  0  0  0  0
   60.4703   30.5279   46.6034 H   0  0  0  0  0  0  0  0  0  0  0  0
   57.9850   29.3254   46.6617 H   0  0  0  0  0  0  0  0  0  0  0  0
   56.7716   28.1903   44.8005 H   0  0  0  0  0  0  0  0  0  0  0  0
   56.2297   29.4427   42.7065 H   0  0  0  0  0  0  0  0  0  0  0  0
   56.8746   31.8479   42.4896 H   0  0  0  0  0  0  0  0  0  0  0  0
   58.0399   33.0062   44.3691 H   0  0  0  0  0  0  0  0  0  0  0  0
   58.6440   33.6985   47.7508 H   0  0  0  0  0  0  0  0  0  0  0  0
   57.1469   32.7257   47.5665 H   0  0  0  0  0  0  0  0  0  0  0  0
   58.3234   32.7457   49.9056 H   0  0  0  0  0  0  0  0  0  0  0  0
   57.8204   31.1511   49.2062 H   0  0  0  0  0  0  0  0  0  0  0  0
   57.6599   30.1622   50.5225 H   0  0  0  0  0  0  0  0  0  0  0  0
   58.3208   28.7180   51.4385 H   0  0  0  0  0  0  0  0  0  0  0  0
   54.0738   32.4290   51.2890 H   0  0  0  0  0  0  0  0  0  0  0  0
  1  2  1  0
  2  3  2  0
  2  4  1  0
  4  5  2  0
  5  6  1  0
  6  7  2  0
  7  8  1  0
  8  9  1  0
  9 10  2  0
  9 11  1  0
 11 12  1  0
 12 13  1  0
 13 14  1  0
 14 15  1  0
 15 16  1  0
 16 17  2  0
 16 18  1  0
 18 19  1  0
 19 20  1  0
 20 21  1  0
 21 22  1  0
 22 23  2  0
 23 24  1  0
 24 25  2  0
 25 26  1  0
 26 27  2  0
 21 28  1  0
 28 29  1  0
 15 30  1  0
  8 31  2  0
 31  4  1  0
 30 11  1  0
 29 18  1  0
 27 22  1  0
  1 32  1  0
  5 33  1  0
  6 34  1  0
  7 35  1  0
 11 36  1  1
 12 37  1  0
 12 38  1  0
 13 39  1  0
 13 40  1  0
 14 41  1  0
 14 42  1  0
 15 43  1  1
 19 44  1  0
 19 45  1  0
 20 46  1  0
 20 47  1  0
 23 48  1  0
 24 49  1  0
 25 50  1  0
 26 51  1  0
 27 52  1  0
 28 53  1  0
 28 54  1  0
 29 55  1  0
 29 56  1  0
 30 57  1  0
 30 58  1  0
 31 59  1  0
M  CHG  2   1  -1  11   1
M  END
>  <UniqueID>  (77) 
74

>  <SMILES>  (77) 
[NH-]C(=O)c1cccc(C(=O)[N@@H+]2CCC[C@H](C(=O)N3CCN(c4ccccc4)CC3)C2)c1

>  <Energy>  (77) 
84.32977424202502

>  <Genealogy>  (77) 
[NH-]C(=O)c1cccc(C(=O)[NH+]2CCCC(C(=O)N3CCN(c4ccccc4)CC3)C2)c1 (protonated)
[NH-]C(=O)c1cccc(C(=O)[N@@H+]2CCC[C@H](C(=O)N3CCN(c4ccccc4)CC3)C2)c1 (chirality)
[NH-]C(=O)c1cccc(C(=O)[N@@H+]2CCC[C@H](C(=O)N3CCN(c4ccccc4)CC3)C2)c1 (3D coordinates assigned)
[NH-]C(=O)c1cccc(C(=O)[N@@H+]2CCC[C@H](C(=O)N3CCN(c4ccccc4)CC3)C2)c1 (nonaromatic ring conformer: 84.32977424202502 kcal/mol)

>  <smiles>  (77) 
NC(=O)c1cccc(C(=O)N2CCCC(C(=O)N3CCN(c4ccccc4)CC3)C2)c1

>  <score_type>  (77) 
oracle

>  <origin>  (77) 
adg

>  <m_score__min__energy>  (77) 
-11.640000000000001

>  <m_primary>  (77) 
energy

$$$$
77:0
     RDKit          3D

 44 46  0  0  0  0  0  0  0  0999 V2000
   59.4850   20.7490   45.0400 H   0  0  0  0  0  0  0  0  0  0  0  0
   59.8980   21.6100   45.3710 O   0  0  0  0  0  0  0  0  0  0  0  0
   59.2680   22.8490   45.2480 C   0  0  0  0  0  0  0  0  0  0  0  0
   59.8420   23.9580   45.8760 C   0  0  0  0  0  0  0  0  0  0  0  0
   60.7726   23.8390   46.4502 H   0  0  0  0  0  0  0  0  0  0  0  0
   59.2430   25.2160   45.7800 C   0  0  0  0  0  0  0  0  0  0  0  0
   59.7042   26.0809   46.2792 H   0  0  0  0  0  0  0  0  0  0  0  0
   58.0540   25.3830   45.0490 C   0  0  0  0  0  0  0  0  0  0  0  0
   57.4000   26.7020   44.9330 C   0  0  0  0  0  0  0  0  0  0  0  0
   56.7524   26.9109   44.0687 H   0  0  0  0  0  0  0  0  0  0  0  0
   57.5770   27.6180   45.8340 N   0  0  0  0  0  0  0  0  0  0  0  0
   57.4570   28.9950   45.5690 N   0  0  0  0  0  0  0  0  0  0  0  0
   56.3640   29.6090   45.0830 C   0  0  0  0  0  0  0  0  0  0  0  0
   55.1440   28.9790   44.8770 O   0  0  0  0  0  0  0  0  0  0  0  0
   56.5920   30.9090   44.8090 N   0  0  0  0  0  0  0  0  0  0  0  0
   57.8680   31.1210   45.1070 N   0  0  0  0  0  0  0  0  0  0  0  0
   58.5390   32.4100   44.9300 C   0  0  0  0  0  0  0  0  0  0  0  0
   58.3948   32.7530   43.8948 H   0  0  0  0  0  0  0  0  0  0  0  0
   59.6104   32.2833   45.1444 H   0  0  0  0  0  0  0  0  0  0  0  0
   57.9850   33.4190   45.8570 N   0  0  0  0  0  0  0  0  0  0  0  0
   56.8880   34.1610   45.2040 C   0  0  0  0  0  0  0  0  0  0  0  0
   56.2357   34.6022   45.9720 H   0  0  0  0  0  0  0  0  0  0  0  0
   57.3087   34.9607   44.5768 H   0  0  0  0  0  0  0  0  0  0  0  0
   56.3023   33.4728   44.5768 H   0  0  0  0  0  0  0  0  0  0  0  0
   59.0560   34.3480   46.2800 C   0  0  0  0  0  0  0  0  0  0  0  0
   59.3943   34.9272   45.4082 H   0  0  0  0  0  0  0  0  0  0  0  0
   58.6529   35.0162   47.0553 H   0  0  0  0  0  0  0  0  0  0  0  0
   60.2320   33.5950   46.8590 C   0  0  0  0  0  0  0  0  0  0  0  0
   61.5220   33.8260   46.3480 C   0  0  0  0  0  0  0  0  0  0  0  0
   61.6623   34.5394   45.5226 H   0  0  0  0  0  0  0  0  0  0  0  0
   62.6270   33.1560   46.8810 C   0  0  0  0  0  0  0  0  0  0  0  0
   63.6315   33.3417   46.4730 H   0  0  0  0  0  0  0  0  0  0  0  0
   62.4570   32.2520   47.9300 C   0  0  0  0  0  0  0  0  0  0  0  0
   63.3275   31.7256   48.3486 H   0  0  0  0  0  0  0  0  0  0  0  0
   61.1820   32.0150   48.4490 C   0  0  0  0  0  0  0  0  0  0  0  0
   61.0523   31.3019   49.2764 H   0  0  0  0  0  0  0  0  0  0  0  0
   60.0680   32.6800   47.9220 C   0  0  0  0  0  0  0  0  0  0  0  0
   58.4860   32.3360   48.6110 Cl  0  0  0  0  0  0  0  0  0  0  0  0
   58.4000   29.9620   45.5570 C   0  0  0  0  0  0  0  0  0  0  0  0
   60.0010   29.7280   45.8420 S   0  0  0  0  0  0  0  0  0  0  0  0
   57.4780   24.2690   44.4190 C   0  0  0  0  0  0  0  0  0  0  0  0
   56.5475   24.3890   43.8448 H   0  0  0  0  0  0  0  0  0  0  0  0
   58.0760   23.0060   44.5140 C   0  0  0  0  0  0  0  0  0  0  0  0
   57.2300   21.5320   43.6270 Br  0  0  0  0  0  0  0  0  0  0  0  0
  1  2  1  0
  2  3  1  0
  3  4  2  0
  4  5  1  0
  4  6  1  0
  6  7  1  0
  6  8  2  0
  8  9  1  0
  9 10  1  0
  9 11  2  0
 11 12  1  0
 12 13  1  0
 13 14  1  0
 13 15  2  0
 15 16  1  0
 16 17  1  0
 17 18  1  0
 17 19  1  0
 17 20  1  0
 20 21  1  0
 21 22  1  0
 21 23  1  0
 21 24  1  0
 20 25  1  0
 25 26  1  0
 25 27  1  0
 25 28  1  0
 28 29  2  0
 29 30  1  0
 29 31  1  0
 31 32  1  0
 31 33  2  0
 33 34  1  0
 33 35  1  0
 35 36  1  0
 35 37  2  0
 37 38  1  0
 16 39  1  0
 39 40  2  0
  8 41  1  0
 41 42  1  0
 41 43  2  0
 43 44  1  0
 43  3  1  0
 39 12  1  0
 37 28  1  0
M  CHG  1  14  -1
M  END
>  <UniqueID>  (78) 
75

>  <SMILES>  (78) 
CN(Cc1ccccc1Cl)Cn1nc([O-])n(/N=C/c2ccc(O)c(Br)c2)c1=S

>  <Energy>  (78) 
92.85913277371249

>  <Genealogy>  (78) 
CN(Cc1ccccc1Cl)Cn1nc([O-])n(N=Cc2ccc(O)c(Br)c2)c1=S (protonated)
CN(Cc1ccccc1Cl)Cn1nc([O-])n(/N=C/c2ccc(O)c(Br)c2)c1=S (cis-trans isomerization)
CN(Cc1ccccc1Cl)Cn1nc([O-])n(/N=C/c2ccc(O)c(Br)c2)c1=S (3D coordinates assigned)
CN(Cc1ccccc1Cl)Cn1nc([O-])n(/N=C/c2ccc(O)c(Br)c2)c1=S (optimized conformer: 92.85913277371249 kcal/mol)

>  <smiles>  (78) 
CN(Cc1ccccc1Cl)Cn1nc(O)n(N=Cc2ccc(O)c(Br)c2)c1=S

>  <score_type>  (78) 
oracle

>  <origin>  (78) 
adg

>  <m_score__min__energy>  (78) 
-12.93

>  <m_primary>  (78) 
energy

$$$$
78:0
     RDKit          3D

 66 68  0  0  0  0  0  0  0  0999 V2000
   56.8360   31.2950   52.1990 C   0  0  0  0  0  0  0  0  0  0  0  0
   57.4010   32.6840   52.4720 C   0  0  0  0  0  0  0  0  0  0  0  0
   58.7940   32.7970   52.0100 N   0  0  0  0  0  0  0  0  0  0  0  0
   59.8770   32.8610   53.0070 C   0  0  0  0  0  0  0  0  0  0  0  0
   60.0680   31.5260   53.7480 C   0  0  0  0  0  0  0  0  0  0  0  0
   60.6390   30.4300   52.8420 C   0  0  0  0  0  0  0  0  0  0  0  0
   61.8500   30.9380   52.0530 C   0  0  0  0  0  0  0  0  0  0  0  0
   61.5380   31.0080   50.6230 N   0  0  0  0  0  0  0  0  0  0  0  0
   62.2780   31.7940   49.6580 C   0  0  0  0  0  0  0  0  0  0  0  0
   63.2360   32.7410   50.0860 C   0  0  0  0  0  0  0  0  0  0  0  0
   63.9940   33.4630   49.1650 C   0  0  0  0  0  0  0  0  0  0  0  0
   63.8140   33.2600   47.8010 C   0  0  0  0  0  0  0  0  0  0  0  0
   62.8640   32.3450   47.3500 C   0  0  0  0  0  0  0  0  0  0  0  0
   62.0740   31.6220   48.2600 C   0  0  0  0  0  0  0  0  0  0  0  0
   60.8620   30.4980   47.6160 S   0  0  0  0  0  0  0  0  0  0  0  0
   60.6930   29.3140   48.5260 O   0  0  0  0  0  0  0  0  0  0  0  0
   61.3220   30.0180   46.2670 O   0  0  0  0  0  0  0  0  0  0  0  0
   59.3170   31.2730   47.4270 N   0  0  0  0  0  0  0  0  0  0  0  0
   59.0640   32.3840   46.5360 C   0  0  0  0  0  0  0  0  0  0  0  0
   59.7260   33.6180   46.7100 C   0  0  0  0  0  0  0  0  0  0  0  0
   59.4430   34.7040   45.8820 C   0  0  0  0  0  0  0  0  0  0  0  0
   58.5000   34.5830   44.8640 C   0  0  0  0  0  0  0  0  0  0  0  0
   57.8480   33.3690   44.6600 C   0  0  0  0  0  0  0  0  0  0  0  0
   58.1240   32.2610   45.4790 C   0  0  0  0  0  0  0  0  0  0  0  0
   57.4500   30.9790   45.1760 C   0  0  0  0  0  0  0  0  0  0  0  0
   56.2490   31.0050   44.7930 O   0  0  0  0  0  0  0  0  0  0  0  0
   58.1370   29.6730   45.3480 C   0  0  0  0  0  0  0  0  0  0  0  0
   59.1970   29.3150   44.4930 C   0  0  0  0  0  0  0  0  0  0  0  0
   59.8520   28.0890   44.6520 C   0  0  0  0  0  0  0  0  0  0  0  0
   59.4650   27.2130   45.6680 C   0  0  0  0  0  0  0  0  0  0  0  0
   58.4210   27.5610   46.5280 C   0  0  0  0  0  0  0  0  0  0  0  0
   57.7610   28.7840   46.3740 C   0  0  0  0  0  0  0  0  0  0  0  0
   59.1150   32.6840   50.6060 C   0  0  0  0  0  0  0  0  0  0  0  0
   59.6540   33.8460   49.8290 C   0  0  0  0  0  0  0  0  0  0  0  0
   58.9200   31.5940   50.0030 O   0  0  0  0  0  0  0  0  0  0  0  0
   56.6301   30.7888   53.1536 H   0  0  0  0  0  0  0  0  0  0  0  0
   55.9031   31.3853   51.6232 H   0  0  0  0  0  0  0  0  0  0  0  0
   57.5670   30.7085   51.6232 H   0  0  0  0  0  0  0  0  0  0  0  0
   56.7876   33.4299   51.9453 H   0  0  0  0  0  0  0  0  0  0  0  0
   57.3809   32.8589   53.5578 H   0  0  0  0  0  0  0  0  0  0  0  0
   60.8154   33.1183   52.4940 H   0  0  0  0  0  0  0  0  0  0  0  0
   59.6043   33.6233   53.7517 H   0  0  0  0  0  0  0  0  0  0  0  0
   60.7593   31.6847   54.5888 H   0  0  0  0  0  0  0  0  0  0  0  0
   59.0794   31.1916   54.0957 H   0  0  0  0  0  0  0  0  0  0  0  0
   60.9479   29.5761   53.4629 H   0  0  0  0  0  0  0  0  0  0  0  0
   59.8594   30.1281   52.1271 H   0  0  0  0  0  0  0  0  0  0  0  0
   62.1223   31.9409   52.4137 H   0  0  0  0  0  0  0  0  0  0  0  0
   62.6885   30.2415   52.2006 H   0  0  0  0  0  0  0  0  0  0  0  0
   60.7330   30.4230   50.3160 H   0  0  0  0  0  0  0  0  0  0  0  0
   63.3859   32.9110   51.1624 H   0  0  0  0  0  0  0  0  0  0  0  0
   64.7358   34.1946   49.5179 H   0  0  0  0  0  0  0  0  0  0  0  0
   64.4221   33.8222   47.0771 H   0  0  0  0  0  0  0  0  0  0  0  0
   62.7312   32.1871   46.2695 H   0  0  0  0  0  0  0  0  0  0  0  0
   58.5680   30.9380   48.0710 H   0  0  0  0  0  0  0  0  0  0  0  0
   60.4747   33.7247   47.5088 H   0  0  0  0  0  0  0  0  0  0  0  0
   59.9664   35.6596   46.0334 H   0  0  0  0  0  0  0  0  0  0  0  0
   58.2702   35.4457   44.2214 H   0  0  0  0  0  0  0  0  0  0  0  0
   57.1098   33.2768   43.8497 H   0  0  0  0  0  0  0  0  0  0  0  0
   59.5120   30.0036   43.6951 H   0  0  0  0  0  0  0  0  0  0  0  0
   60.6741   27.8145   43.9747 H   0  0  0  0  0  0  0  0  0  0  0  0
   59.9818   26.2498   45.7910 H   0  0  0  0  0  0  0  0  0  0  0  0
   58.1171   26.8709   47.3289 H   0  0  0  0  0  0  0  0  0  0  0  0
   56.9431   29.0536   47.0583 H   0  0  0  0  0  0  0  0  0  0  0  0
   60.0122   34.6183   50.5255 H   0  0  0  0  0  0  0  0  0  0  0  0
   60.4875   33.5085   49.1955 H   0  0  0  0  0  0  0  0  0  0  0  0
   58.8580   34.2644   49.1955 H   0  0  0  0  0  0  0  0  0  0  0  0
  1  2  1  0
  2  3  1  0
  3  4  1  0
  4  5  1  0
  5  6  1  0
  6  7  1  0
  7  8  1  0
  8  9  1  0
  9 10  2  0
 10 11  1  0
 11 12  2  0
 12 13  1  0
 13 14  2  0
 14 15  1  0
 15 16  2  0
 15 17  2  0
 15 18  1  0
 18 19  1  0
 19 20  2  0
 20 21  1  0
 21 22  2  0
 22 23  1  0
 23 24  2  0
 24 25  1  0
 25 26  2  0
 25 27  1  0
 27 28  2  0
 28 29  1  0
 29 30  2  0
 30 31  1  0
 31 32  2  0
  3 33  1  0
 33 34  1  0
 33 35  2  0
 14  9  1  0
 24 19  1  0
 32 27  1  0
  1 36  1  0
  1 37  1  0
  1 38  1  0
  2 39  1  0
  2 40  1  0
  4 41  1  0
  4 42  1  0
  5 43  1  0
  5 44  1  0
  6 45  1  0
  6 46  1  0
  7 47  1  0
  7 48  1  0
  8 49  1  0
 10 50  1  0
 11 51  1  0
 12 52  1  0
 13 53  1  0
 18 54  1  0
 20 55  1  0
 21 56  1  0
 22 57  1  0
 23 58  1  0
 28 59  1  0
 29 60  1  0
 30 61  1  0
 31 62  1  0
 32 63  1  0
 34 64  1  0
 34 65  1  0
 34 66  1  0
M  END
>  <UniqueID>  (79) 
76

>  <SMILES>  (79) 
CCN(CCCCNc1ccccc1S(=O)(=O)Nc1ccccc1C(=O)c1ccccc1)C(C)=O

>  <Energy>  (79) 
72.7662659387569

>  <Genealogy>  (79) 
CCN(CCCCNc1ccccc1S(=O)(=O)Nc1ccccc1C(=O)c1ccccc1)C(C)=O (3D coordinates assigned)
CCN(CCCCNc1ccccc1S(=O)(=O)Nc1ccccc1C(=O)c1ccccc1)C(C)=O (optimized conformer: 72.7662659387569 kcal/mol)

>  <smiles>  (79) 
CCN(CCCCNc1ccccc1S(=O)(=O)Nc1ccccc1C(=O)c1ccccc1)C(C)=O

>  <score_type>  (79) 
oracle

>  <origin>  (79) 
adg

>  <m_score__min__energy>  (79) 
-9.9499999999999993

>  <m_primary>  (79) 
energy

$$$$
79:0
     RDKit          3D

 59 63  0  0  0  0  0  0  0  0999 V2000
   56.4390   29.4530   44.3940 C   0  0  0  0  0  0  0  0  0  0  0  0
   57.6300   29.0560   44.8680 C   0  0  0  0  0  0  0  0  0  0  0  0
   58.1350   27.7450   44.9140 C   0  0  0  0  0  0  0  0  0  0  0  0
   57.5440   26.5520   44.6990 C   0  0  0  0  0  0  0  0  0  0  0  0
   57.0070   25.6510   45.7310 C   0  0  0  0  0  0  0  0  0  0  0  0
   57.6110   24.5270   46.1570 N   0  0  0  0  0  0  0  0  0  0  0  0
   56.6870   23.9620   46.9650 C   0  0  0  0  0  0  0  0  0  0  0  0
   56.8920   22.8830   47.5780 O   0  0  0  0  0  0  0  0  0  0  0  0
   55.5220   24.6400   47.0530 N   0  0  0  0  0  0  0  0  0  0  0  0
   55.7370   25.6970   46.2530 C   0  0  0  0  0  0  0  0  0  0  0  0
   54.7880   26.6780   45.9980 O   0  0  0  0  0  0  0  0  0  0  0  0
   59.4760   27.8580   45.2430 C   0  0  0  0  0  0  0  0  0  0  0  0
   59.7270   29.1980   45.4480 C   0  0  0  0  0  0  0  0  0  0  0  0
   61.0670   29.7690   45.8020 C   0  0  0  0  0  0  0  0  0  0  0  0
   58.6120   29.9250   45.2210 N   0  0  0  0  0  0  0  0  0  0  0  0
   58.5450   31.3620   45.2340 C   0  0  0  0  0  0  0  0  0  0  0  0
   58.0090   32.0510   44.1370 C   0  0  0  0  0  0  0  0  0  0  0  0
   57.9980   33.4470   44.1230 C   0  0  0  0  0  0  0  0  0  0  0  0
   58.5440   34.1650   45.1910 C   0  0  0  0  0  0  0  0  0  0  0  0
   59.1030   33.4880   46.2900 C   0  0  0  0  0  0  0  0  0  0  0  0
   59.7070   34.2570   47.4050 C   0  0  0  0  0  0  0  0  0  0  0  0
   59.1890   35.3560   47.7460 O   0  0  0  0  0  0  0  0  0  0  0  0
   60.8500   33.7640   48.1290 N   0  0  0  0  0  0  0  0  0  0  0  0
   61.9860   33.1310   47.4470 C   0  0  0  0  0  0  0  0  0  0  0  0
   62.3510   31.8000   48.1380 C   0  0  0  0  0  0  0  0  0  0  0  0
   61.6380   31.6430   49.4270 N   0  0  0  0  0  0  0  0  0  0  0  0
   62.0700   30.4300   50.1500 C   0  0  0  0  0  0  0  0  0  0  0  0
   60.8830   29.4620   50.2360 C   0  0  0  0  0  0  0  0  0  0  0  0
   60.6000   28.7250   48.9350 C   0  0  0  0  0  0  0  0  0  0  0  0
   59.6480   29.8090   49.4180 C   0  0  0  0  0  0  0  0  0  0  0  0
   61.7610   32.8670   50.2400 C   0  0  0  0  0  0  0  0  0  0  0  0
   60.9500   33.9920   49.5760 C   0  0  0  0  0  0  0  0  0  0  0  0
   59.0660   32.0820   46.3180 C   0  0  0  0  0  0  0  0  0  0  0  0
   56.1651   30.5181   44.4171 H   0  0  0  0  0  0  0  0  0  0  0  0
   55.7366   28.7133   43.9824 H   0  0  0  0  0  0  0  0  0  0  0  0
   57.4550   26.2213   43.6537 H   0  0  0  0  0  0  0  0  0  0  0  0
   60.2019   27.0356   45.3250 H   0  0  0  0  0  0  0  0  0  0  0  0
   61.1695   29.8127   46.8963 H   0  0  0  0  0  0  0  0  0  0  0  0
   61.8595   29.1304   45.3847 H   0  0  0  0  0  0  0  0  0  0  0  0
   61.1554   30.7829   45.3847 H   0  0  0  0  0  0  0  0  0  0  0  0
   57.5962   31.4904   43.2853 H   0  0  0  0  0  0  0  0  0  0  0  0
   57.5585   33.9835   43.2692 H   0  0  0  0  0  0  0  0  0  0  0  0
   58.5364   35.2648   45.1719 H   0  0  0  0  0  0  0  0  0  0  0  0
   61.7161   32.9338   46.3990 H   0  0  0  0  0  0  0  0  0  0  0  0
   62.8525   33.8071   47.4919 H   0  0  0  0  0  0  0  0  0  0  0  0
   62.0775   30.9663   47.4746 H   0  0  0  0  0  0  0  0  0  0  0  0
   63.4323   31.8017   48.3401 H   0  0  0  0  0  0  0  0  0  0  0  0
   62.8996   29.9518   49.6087 H   0  0  0  0  0  0  0  0  0  0  0  0
   62.4110   30.6969   51.1612 H   0  0  0  0  0  0  0  0  0  0  0  0
   61.0458   29.1895   51.2892 H   0  0  0  0  0  0  0  0  0  0  0  0
   61.2335   28.9023   48.0534 H   0  0  0  0  0  0  0  0  0  0  0  0
   60.4941   27.6688   48.6465 H   0  0  0  0  0  0  0  0  0  0  0  0
   59.5932   30.7700   48.8855 H   0  0  0  0  0  0  0  0  0  0  0  0
   58.5686   29.8611   49.6233 H   0  0  0  0  0  0  0  0  0  0  0  0
   61.3713   32.6788   51.2513 H   0  0  0  0  0  0  0  0  0  0  0  0
   62.8183   33.1623   50.3099 H   0  0  0  0  0  0  0  0  0  0  0  0
   59.9396   34.0154   50.0101 H   0  0  0  0  0  0  0  0  0  0  0  0
   61.4589   34.9512   49.7522 H   0  0  0  0  0  0  0  0  0  0  0  0
   59.4489   31.5434   47.1974 H   0  0  0  0  0  0  0  0  0  0  0  0
  1  2  2  0
  2  3  1  0
  3  4  2  3
  4  5  1  0
  5  6  1  0
  6  7  1  0
  7  8  2  0
  7  9  1  0
  9 10  1  0
 10 11  1  0
  3 12  1  0
 12 13  2  0
 13 14  1  0
 13 15  1  0
 15 16  1  0
 16 17  2  0
 17 18  1  0
 18 19  2  0
 19 20  1  0
 20 21  1  0
 21 22  2  0
 21 23  1  0
 23 24  1  0
 24 25  1  0
 25 26  1  0
 26 27  1  0
 27 28  1  0
 28 29  1  0
 29 30  1  0
 26 31  1  0
 31 32  1  0
 20 33  2  0
 15  2  1  0
 33 16  1  0
 10  5  2  0
 32 23  1  0
 30 28  1  0
  1 34  1  0
  1 35  1  0
  4 36  1  0
 12 37  1  0
 14 38  1  0
 14 39  1  0
 14 40  1  0
 17 41  1  0
 18 42  1  0
 19 43  1  0
 24 44  1  0
 24 45  1  0
 25 46  1  0
 25 47  1  0
 27 48  1  0
 27 49  1  0
 28 50  1  0
 29 51  1  0
 29 52  1  0
 30 53  1  0
 30 54  1  0
 31 55  1  0
 31 56  1  0
 32 57  1  0
 32 58  1  0
 33 59  1  0
M  CHG  3   6  -1   9  -1  11  -1
M  END
>  <UniqueID>  (80) 
77

>  <SMILES>  (80) 
C=c1c(=Cc2[n-]c(=O)[n-]c2[O-])cc(C)n1-c1cccc(C(=O)N2CCN(CC3CC3)CC2)c1

>  <Energy>  (80) 
410.24855210611054

>  <Genealogy>  (80) 
C=c1c(=Cc2[n-]c(=O)[n-]c2[O-])cc(C)n1-c1cccc(C(=O)N2CCN(CC3CC3)CC2)c1 (protonated)
C=c1c(=Cc2[n-]c(=O)[n-]c2[O-])cc(C)n1-c1cccc(C(=O)N2CCN(CC3CC3)CC2)c1 (3D coordinates assigned)
C=c1c(=Cc2[n-]c(=O)[n-]c2[O-])cc(C)n1-c1cccc(C(=O)N2CCN(CC3CC3)CC2)c1 (nonaromatic ring conformer: 410.24855210611054 kcal/mol)

>  <smiles>  (80) 
C=c1c(=Cc2[nH]c(=O)[nH]c2O)cc(C)n1-c1cccc(C(=O)N2CCN(CC3CC3)CC2)c1

>  <score_type>  (80) 
oracle

>  <origin>  (80) 
adg

>  <m_score__min__energy>  (80) 
-17.260000000000002

>  <m_primary>  (80) 
energy

$$$$
80:0
     RDKit          3D

 55 59  0  0  0  0  0  0  0  0999 V2000
   54.4080   30.0640   43.9700 H   0  0  0  0  0  0  0  0  0  0  0  0
   55.4070   29.8590   43.7380 N   0  0  0  0  0  0  0  0  0  0  0  0
   56.2450   29.4320   44.6280 C   0  0  0  0  0  0  0  0  0  0  0  0
   57.3100   30.2040   44.9630 N   0  0  0  0  0  0  0  0  0  0  0  0
   58.2080   29.7990   45.8960 C   0  0  0  0  0  0  0  0  0  0  0  0
   59.2850   30.6250   46.2390 C   0  0  0  0  0  0  0  0  0  0  0  0
   59.4131   31.5954   45.7370 H   0  0  0  0  0  0  0  0  0  0  0  0
   60.1980   30.2210   47.2170 C   0  0  0  0  0  0  0  0  0  0  0  0
   61.0347   30.8803   47.4913 H   0  0  0  0  0  0  0  0  0  0  0  0
   60.0510   28.9760   47.8510 C   0  0  0  0  0  0  0  0  0  0  0  0
   60.9680   28.5780   48.9750 C   0  0  0  0  0  0  0  0  0  0  0  0
   60.7467   27.5441   49.2784 H   0  0  0  0  0  0  0  0  0  0  0  0
   62.0118   28.6487   48.6350 H   0  0  0  0  0  0  0  0  0  0  0  0
   60.7690   29.4740   50.1180 N   0  0  0  0  0  0  0  0  0  0  0  0
   61.1880   30.8390   50.0260 C   0  0  0  0  0  0  0  0  0  0  0  0
   62.4130   31.1200   50.1380 O   0  0  0  0  0  0  0  0  0  0  0  0
   60.1760   31.9150   49.7550 C   0  0  2  0  0  0  0  0  0  0  0  0
   59.6260   31.6436   48.8419 H   0  0  0  0  0  0  0  0  0  0  0  0
   60.8440   33.2020   49.5490 N   0  0  0  0  0  0  0  0  0  0  0  0
   61.0490   33.8140   48.2720 C   0  0  0  0  0  0  0  0  0  0  0  0
   62.1850   34.2840   47.9970 O   0  0  0  0  0  0  0  0  0  0  0  0
   59.9650   33.9230   47.2790 C   0  0  0  0  0  0  0  0  0  0  0  0
   58.6540   33.5520   47.6120 C   0  0  0  0  0  0  0  0  0  0  0  0
   58.4306   33.1762   48.6214 H   0  0  0  0  0  0  0  0  0  0  0  0
   57.6300   33.6580   46.6660 C   0  0  0  0  0  0  0  0  0  0  0  0
   56.6048   33.3595   46.9301 H   0  0  0  0  0  0  0  0  0  0  0  0
   57.9080   34.1430   45.3850 C   0  0  0  0  0  0  0  0  0  0  0  0
   57.0987   34.2436   44.6468 H   0  0  0  0  0  0  0  0  0  0  0  0
   59.2150   34.5000   45.0430 C   0  0  0  0  0  0  0  0  0  0  0  0
   59.4345   34.8764   44.0330 H   0  0  0  0  0  0  0  0  0  0  0  0
   60.2440   34.3800   45.9810 C   0  0  0  0  0  0  0  0  0  0  0  0
   61.2747   34.6441   45.7018 H   0  0  0  0  0  0  0  0  0  0  0  0
   59.1750   32.0290   50.9170 C   0  0  0  0  0  0  0  0  0  0  0  0
   59.7358   32.1529   51.8552 H   0  0  0  0  0  0  0  0  0  0  0  0
   58.5268   32.8949   50.7169 H   0  0  0  0  0  0  0  0  0  0  0  0
   58.2770   30.7920   51.0400 C   0  0  0  0  0  0  0  0  0  0  0  0
   57.3557   31.0771   51.5691 H   0  0  0  0  0  0  0  0  0  0  0  0
   58.0667   30.4316   50.0222 H   0  0  0  0  0  0  0  0  0  0  0  0
   58.9400   29.6620   51.7970 C   0  0  0  0  0  0  0  0  0  0  0  0
   58.3380   29.1860   52.9750 C   0  0  0  0  0  0  0  0  0  0  0  0
   57.4378   29.6829   53.3658 H   0  0  0  0  0  0  0  0  0  0  0  0
   58.8720   28.0880   53.6540 C   0  0  0  0  0  0  0  0  0  0  0  0
   58.3905   27.7246   54.5738 H   0  0  0  0  0  0  0  0  0  0  0  0
   60.0130   27.4520   53.1690 C   0  0  0  0  0  0  0  0  0  0  0  0
   60.4278   26.5831   53.7009 H   0  0  0  0  0  0  0  0  0  0  0  0
   60.6290   27.9200   52.0060 C   0  0  0  0  0  0  0  0  0  0  0  0
   61.5382   27.4246   51.6346 H   0  0  0  0  0  0  0  0  0  0  0  0
   60.1000   29.0160   51.3060 C   0  0  0  0  0  0  0  0  0  0  0  0
   58.9820   28.1390   47.4980 C   0  0  0  0  0  0  0  0  0  0  0  0
   58.8733   27.1567   47.9810 H   0  0  0  0  0  0  0  0  0  0  0  0
   58.0480   28.5500   46.5290 C   0  0  0  0  0  0  0  0  0  0  0  0
   56.9370   27.7680   46.1720 C   0  0  0  0  0  0  0  0  0  0  0  0
   56.7370   26.6470   46.7160 O   0  0  0  0  0  0  0  0  0  0  0  0
   56.0610   28.2230   45.2340 N   0  0  0  0  0  0  0  0  0  0  0  0
   55.2370   27.6330   44.9800 H   0  0  0  0  0  0  0  0  0  0  0  0
  1  2  1  0
  2  3  2  0
  3  4  1  0
  4  5  1  0
  5  6  2  0
  6  7  1  0
  6  8  1  0
  8  9  1  0
  8 10  2  0
 10 11  1  0
 11 12  1  0
 11 13  1  0
 11 14  1  0
 14 15  1  0
 15 16  2  0
 15 17  1  0
 17 18  1  6
 17 19  1  0
 19 20  1  0
 20 21  2  0
 20 22  1  0
 22 23  2  0
 23 24  1  0
 23 25  1  0
 25 26  1  0
 25 27  2  0
 27 28  1  0
 27 29  1  0
 29 30  1  0
 29 31  2  0
 31 32  1  0
 17 33  1  0
 33 34  1  0
 33 35  1  0
 33 36  1  0
 36 37  1  0
 36 38  1  0
 36 39  1  0
 39 40  2  0
 40 41  1  0
 40 42  1  0
 42 43  1  0
 42 44  2  0
 44 45  1  0
 44 46  1  0
 46 47  1  0
 46 48  2  0
 10 49  1  0
 49 50  1  0
 49 51  2  0
 51 52  1  0
 52 53  2  0
 52 54  1  0
 54 55  1  0
 54  3  1  0
 51  5  1  0
 48 14  1  0
 31 22  1  0
 48 39  1  0
M  CHG  2   4  -1  19  -1
M  END
>  <UniqueID>  (81) 
78

>  <SMILES>  (81) 
[H]/N=c1/[n-]c2ccc(CN3C(=O)[C@H]([N-]C(=O)c4ccccc4)CCc4ccccc43)cc2c(=O)[nH]1

>  <Energy>  (81) 
78.19149675043481

>  <Genealogy>  (81) 
N=c1[n-]c2ccc(CN3C(=O)C([N-]C(=O)c4ccccc4)CCc4ccccc43)cc2c(=O)[nH]1 (protonated)
N=c1[n-]c2ccc(CN3C(=O)[C@H]([N-]C(=O)c4ccccc4)CCc4ccccc43)cc2c(=O)[nH]1 (chirality)
[H]/N=c1/[n-]c2ccc(CN3C(=O)[C@H]([N-]C(=O)c4ccccc4)CCc4ccccc43)cc2c(=O)[nH]1 (cis-trans isomerization)
[H]/N=c1/[n-]c2ccc(CN3C(=O)[C@H]([N-]C(=O)c4ccccc4)CCc4ccccc43)cc2c(=O)[nH]1 (3D coordinates assigned)
[H]/N=c1/[n-]c2ccc(CN3C(=O)[C@H]([N-]C(=O)c4ccccc4)CCc4ccccc43)cc2c(=O)[nH]1 (nonaromatic ring conformer: 78.19149675043481 kcal/mol)

>  <smiles>  (81) 
N=c1[nH]c(=O)c2cc(CN3C(=O)C(NC(=O)c4ccccc4)CCc4ccccc43)ccc2[nH]1

>  <score_type>  (81) 
oracle

>  <origin>  (81) 
adg

>  <m_score__min__energy>  (81) 
-10.48

>  <m_primary>  (81) 
energy

$$$$
81:0
     RDKit          3D

 36 38  0  0  0  0  0  0  0  0999 V2000
   57.4480   26.2430   46.2150 O   0  0  0  0  0  0  0  0  0  0  0  0
   56.4440   26.9300   45.8940 C   0  0  0  0  0  0  0  0  0  0  0  0
   55.1430   26.3310   45.9740 N   0  0  0  0  0  0  0  0  0  0  0  0
   54.8650   24.8970   45.9790 C   0  0  0  0  0  0  0  0  0  0  0  0
   55.8850   24.1650   45.1640 C   0  0  0  0  0  0  0  0  0  0  0  0
   55.8780   24.0180   43.7830 C   0  0  0  0  0  0  0  0  0  0  0  0
   56.9290   23.2260   43.3080 C   0  0  0  0  0  0  0  0  0  0  0  0
   57.7590   22.7420   44.3110 C   0  0  0  0  0  0  0  0  0  0  0  0
   57.1810   23.2970   45.7900 S   0  0  0  0  0  0  0  0  0  0  0  0
   56.6450   28.3260   45.4740 C   0  0  0  0  0  0  0  0  0  0  0  0
   57.8250   29.0370   45.5200 C   0  0  0  0  0  0  0  0  0  0  0  0
   57.4760   30.2910   45.0560 C   0  0  0  0  0  0  0  0  0  0  0  0
   58.3910   31.4740   44.8490 C   0  0  0  0  0  0  0  0  0  0  0  0
   59.0450   31.9080   46.1740 C   0  0  0  0  0  0  0  0  0  0  0  0
   58.0840   32.6910   47.1000 C   0  0  0  0  0  0  0  0  0  0  0  0
   56.9860   33.3590   46.3800 N   0  0  0  0  0  0  0  0  0  0  0  0
   57.4080   33.8420   45.0640 C   0  0  0  0  0  0  0  0  0  0  0  0
   57.6850   32.6550   44.1300 C   0  0  0  0  0  0  0  0  0  0  0  0
   56.1610   30.3120   44.7640 N   0  0  0  0  0  0  0  0  0  0  0  0
   55.6520   29.1190   45.0310 N   0  0  0  0  0  0  0  0  0  0  0  0
   54.8938   24.5258   47.0141 H   0  0  0  0  0  0  0  0  0  0  0  0
   53.8697   24.7249   45.5433 H   0  0  0  0  0  0  0  0  0  0  0  0
   55.1226   24.4777   43.1288 H   0  0  0  0  0  0  0  0  0  0  0  0
   57.0834   23.0073   42.2411 H   0  0  0  0  0  0  0  0  0  0  0  0
   58.6433   22.1046   44.1634 H   0  0  0  0  0  0  0  0  0  0  0  0
   58.8146   28.6874   45.8495 H   0  0  0  0  0  0  0  0  0  0  0  0
   59.1951   31.1466   44.1736 H   0  0  0  0  0  0  0  0  0  0  0  0
   59.3875   31.0082   46.7061 H   0  0  0  0  0  0  0  0  0  0  0  0
   59.8777   32.5813   45.9225 H   0  0  0  0  0  0  0  0  0  0  0  0
   57.6477   31.9870   47.8239 H   0  0  0  0  0  0  0  0  0  0  0  0
   58.6764   33.4789   47.5881 H   0  0  0  0  0  0  0  0  0  0  0  0
   56.6730   34.1800   46.9470 H   0  0  0  0  0  0  0  0  0  0  0  0
   56.6113   34.4660   44.6328 H   0  0  0  0  0  0  0  0  0  0  0  0
   58.3281   34.4343   45.1760 H   0  0  0  0  0  0  0  0  0  0  0  0
   56.7276   32.2969   43.7237 H   0  0  0  0  0  0  0  0  0  0  0  0
   58.3590   33.0092   43.3362 H   0  0  0  0  0  0  0  0  0  0  0  0
  1  2  2  0
  2  3  1  0
  3  4  1  0
  4  5  1  0
  5  6  2  0
  6  7  1  0
  7  8  2  0
  8  9  1  0
  2 10  1  0
 10 11  1  0
 11 12  2  0
 12 13  1  0
 13 14  1  0
 14 15  1  0
 15 16  1  0
 16 17  1  0
 17 18  1  0
 12 19  1  0
 19 20  1  0
  9  5  1  0
 20 10  2  0
 18 13  1  0
  4 21  1  0
  4 22  1  0
  6 23  1  0
  7 24  1  0
  8 25  1  0
 11 26  1  0
 13 27  1  0
 14 28  1  0
 14 29  1  0
 15 30  1  0
 15 31  1  0
 16 32  1  0
 17 33  1  0
 17 34  1  0
 18 35  1  0
 18 36  1  0
M  CHG  2   3  -1  19  -1
M  END
>  <UniqueID>  (82) 
79

>  <SMILES>  (82) 
O=C([N-]Cc1cccs1)c1cc(C2CCNCC2)[n-]n1

>  <Energy>  (82) 
97.13673566613082

>  <Genealogy>  (82) 
O=C([N-]Cc1cccs1)c1cc(C2CCNCC2)[n-]n1 (protonated)
O=C([N-]Cc1cccs1)c1cc(C2CCNCC2)[n-]n1 (3D coordinates assigned)
O=C([N-]Cc1cccs1)c1cc(C2CCNCC2)[n-]n1 (nonaromatic ring conformer: 97.13673566613082 kcal/mol)

>  <smiles>  (82) 
O=C(NCc1cccs1)c1cc(C2CCNCC2)[nH]n1

>  <score_type>  (82) 
oracle

>  <origin>  (82) 
adg

>  <m_score__min__energy>  (82) 
-11.59

>  <m_primary>  (82) 
energy

$$$$
82:0
     RDKit          3D

 38 40  0  0  0  0  0  0  0  0999 V2000
   58.9030   35.2310   44.9310 O   0  0  0  0  0  0  0  0  0  0  0  0
   58.7900   34.6310   46.0340 C   0  0  0  0  0  0  0  0  0  0  0  0
   59.6070   35.0450   47.1320 N   0  0  0  0  0  0  0  0  0  0  0  0
   60.7080   34.3120   47.6890 C   0  0  0  0  0  0  0  0  0  0  0  0
   60.7070   34.0360   49.0610 C   0  0  0  0  0  0  0  0  0  0  0  0
   61.7510   33.3090   49.6400 C   0  0  0  0  0  0  0  0  0  0  0  0
   62.8090   32.8290   48.8490 C   0  0  0  0  0  0  0  0  0  0  0  0
   63.9120   32.0590   49.4640 C   0  0  0  0  0  0  0  0  0  0  0  0
   63.6790   30.9790   50.0690 O   0  0  0  0  0  0  0  0  0  0  0  0
   65.2220   32.5150   49.3810 O   0  0  0  0  0  0  0  0  0  0  0  0
   62.7940   33.0830   47.4660 C   0  0  0  0  0  0  0  0  0  0  0  0
   61.7490   33.8110   46.8890 C   0  0  0  0  0  0  0  0  0  0  0  0
   57.8770   33.5780   46.1870 O   0  0  0  0  0  0  0  0  0  0  0  0
   58.1250   32.2310   45.8800 C   0  0  0  0  0  0  0  0  0  0  0  0
   57.9460   31.8070   44.5600 C   0  0  0  0  0  0  0  0  0  0  0  0
   58.1690   30.4740   44.2050 C   0  0  0  0  0  0  0  0  0  0  0  0
   58.5750   29.5420   45.1740 C   0  0  0  0  0  0  0  0  0  0  0  0
   58.7780   28.0990   44.8040 C   0  0  0  0  0  0  0  0  0  0  0  0
   57.6200   27.2760   45.2770 C   0  0  0  0  0  0  0  0  0  0  0  0
   57.7100   25.6620   45.7540 S   0  0  0  0  0  0  0  0  0  0  0  0
   56.0860   25.6170   46.1890 C   0  0  0  0  0  0  0  0  0  0  0  0
   55.5040   24.6000   46.6470 O   0  0  0  0  0  0  0  0  0  0  0  0
   55.4620   26.7980   45.9990 N   0  0  0  0  0  0  0  0  0  0  0  0
   56.3200   27.7270   45.4980 C   0  0  0  0  0  0  0  0  0  0  0  0
   55.9170   29.0310   45.2300 O   0  0  0  0  0  0  0  0  0  0  0  0
   58.7250   29.9590   46.5060 C   0  0  0  0  0  0  0  0  0  0  0  0
   58.5010   31.2930   46.8590 C   0  0  0  0  0  0  0  0  0  0  0  0
   59.8778   34.3941   49.6889 H   0  0  0  0  0  0  0  0  0  0  0  0
   61.7445   33.1112   50.7220 H   0  0  0  0  0  0  0  0  0  0  0  0
   63.6109   32.7060   46.8331 H   0  0  0  0  0  0  0  0  0  0  0  0
   61.7417   33.9924   45.8041 H   0  0  0  0  0  0  0  0  0  0  0  0
   57.6268   32.5291   43.7940 H   0  0  0  0  0  0  0  0  0  0  0  0
   58.0260   30.1534   43.1625 H   0  0  0  0  0  0  0  0  0  0  0  0
   58.8626   28.0127   43.7107 H   0  0  0  0  0  0  0  0  0  0  0  0
   59.6982   27.7319   45.2820 H   0  0  0  0  0  0  0  0  0  0  0  0
   55.8130   29.7050   45.9780 H   0  0  0  0  0  0  0  0  0  0  0  0
   59.0205   29.2318   47.2766 H   0  0  0  0  0  0  0  0  0  0  0  0
   58.6191   31.6104   47.9056 H   0  0  0  0  0  0  0  0  0  0  0  0
  1  2  2  0
  2  3  1  0
  3  4  1  0
  4  5  2  0
  5  6  1  0
  6  7  2  0
  7  8  1  0
  8  9  2  0
  8 10  1  0
  7 11  1  0
 11 12  2  0
  2 13  1  0
 13 14  1  0
 14 15  2  0
 15 16  1  0
 16 17  2  0
 17 18  1  0
 18 19  1  0
 19 20  1  0
 20 21  1  0
 21 22  2  0
 21 23  1  0
 23 24  1  0
 24 25  1  0
 17 26  1  0
 26 27  2  0
 12  4  1  0
 27 14  1  0
 24 19  2  0
  5 28  1  0
  6 29  1  0
 11 30  1  0
 12 31  1  0
 15 32  1  0
 16 33  1  0
 18 34  1  0
 18 35  1  0
 25 36  1  0
 26 37  1  0
 27 38  1  0
M  CHG  3   3  -1  10  -1  23  -1
M  END
>  <UniqueID>  (83) 
80

>  <SMILES>  (83) 
O=C([N-]c1ccc(C(=O)[O-])cc1)Oc1ccc(Cc2sc(=O)[n-]c2O)cc1

>  <Energy>  (83) 
77.02682873784165

>  <Genealogy>  (83) 
O=C([N-]c1ccc(C(=O)[O-])cc1)Oc1ccc(Cc2sc(=O)[n-]c2O)cc1 (protonated)
O=C([N-]c1ccc(C(=O)[O-])cc1)Oc1ccc(Cc2sc(=O)[n-]c2O)cc1 (3D coordinates assigned)
O=C([N-]c1ccc(C(=O)[O-])cc1)Oc1ccc(Cc2sc(=O)[n-]c2O)cc1 (optimized conformer: 77.02682873784165 kcal/mol)

>  <smiles>  (83) 
O=C(Nc1ccc(C(=O)O)cc1)Oc1ccc(Cc2sc(=O)[nH]c2O)cc1

>  <score_type>  (83) 
oracle

>  <origin>  (83) 
adg

>  <m_score__min__energy>  (83) 
-12.68

>  <m_primary>  (83) 
energy

$$$$
83:0
     RDKit          3D

 45 47  0  0  0  0  0  0  0  0999 V2000
   61.7160   32.7340   50.9210 C   0  0  0  0  0  0  0  0  0  0  0  0
   61.9950   33.7720   49.9860 O   0  0  0  0  0  0  0  0  0  0  0  0
   61.3030   33.9620   48.7800 C   0  0  0  0  0  0  0  0  0  0  0  0
   59.9740   34.4280   48.7450 C   0  0  0  0  0  0  0  0  0  0  0  0
   59.3200   34.6040   47.5240 C   0  0  0  0  0  0  0  0  0  0  0  0
   59.9780   34.3220   46.3180 C   0  0  0  0  0  0  0  0  0  0  0  0
   59.2710   34.4940   45.0000 C   0  0  0  0  0  0  0  0  0  0  0  0
   58.0220   33.7000   44.9770 N   0  0  0  0  0  0  0  0  0  0  0  0
   56.8470   34.5890   44.9440 C   0  0  0  0  0  0  0  0  0  0  0  0
   57.9940   32.7930   43.8100 C   0  0  0  0  0  0  0  0  0  0  0  0
   57.5200   31.4370   44.2220 C   0  0  0  0  0  0  0  0  0  0  0  0
   58.2950   30.3360   44.2180 N   0  0  0  0  0  0  0  0  0  0  0  0
   57.4190   29.4000   44.6360 C   0  0  0  0  0  0  0  0  0  0  0  0
   57.7530   27.9470   44.7440 C   0  0  0  0  0  0  0  0  0  0  0  0
   58.6550   27.7160   45.9250 C   0  0  0  0  0  0  0  0  0  0  0  0
   59.5040   26.5980   45.9600 C   0  0  0  0  0  0  0  0  0  0  0  0
   60.3680   26.4030   47.0420 C   0  0  0  0  0  0  0  0  0  0  0  0
   60.3940   27.3250   48.0920 C   0  0  0  0  0  0  0  0  0  0  0  0
   59.5630   28.4480   48.0570 C   0  0  0  0  0  0  0  0  0  0  0  0
   58.7000   28.6480   46.9760 C   0  0  0  0  0  0  0  0  0  0  0  0
   56.1900   29.9010   44.8650 N   0  0  0  0  0  0  0  0  0  0  0  0
   56.2960   31.1670   44.6020 O   0  0  0  0  0  0  0  0  0  0  0  0
   61.3010   33.8540   46.3500 C   0  0  0  0  0  0  0  0  0  0  0  0
   61.9590   33.6760   47.5720 C   0  0  0  0  0  0  0  0  0  0  0  0
   63.6140   33.0900   47.5790 Cl  0  0  0  0  0  0  0  0  0  0  0  0
   61.8209   33.1242   51.9441 H   0  0  0  0  0  0  0  0  0  0  0  0
   60.6885   32.3713   50.7704 H   0  0  0  0  0  0  0  0  0  0  0  0
   62.4232   31.9050   50.7704 H   0  0  0  0  0  0  0  0  0  0  0  0
   59.4487   34.6544   49.6846 H   0  0  0  0  0  0  0  0  0  0  0  0
   58.2815   34.9663   47.5079 H   0  0  0  0  0  0  0  0  0  0  0  0
   59.0275   35.5569   44.8553 H   0  0  0  0  0  0  0  0  0  0  0  0
   59.9311   34.1442   44.1926 H   0  0  0  0  0  0  0  0  0  0  0  0
   56.5362   34.8242   45.9726 H   0  0  0  0  0  0  0  0  0  0  0  0
   57.1058   35.5194   44.4174 H   0  0  0  0  0  0  0  0  0  0  0  0
   56.0220   34.0869   44.4174 H   0  0  0  0  0  0  0  0  0  0  0  0
   57.3122   33.2007   43.0492 H   0  0  0  0  0  0  0  0  0  0  0  0
   59.0099   32.7081   43.3968 H   0  0  0  0  0  0  0  0  0  0  0  0
   56.8265   27.3684   44.8739 H   0  0  0  0  0  0  0  0  0  0  0  0
   58.2672   27.6243   43.8267 H   0  0  0  0  0  0  0  0  0  0  0  0
   59.4893   25.8728   45.1330 H   0  0  0  0  0  0  0  0  0  0  0  0
   61.0278   25.5232   47.0668 H   0  0  0  0  0  0  0  0  0  0  0  0
   61.0688   27.1667   48.9462 H   0  0  0  0  0  0  0  0  0  0  0  0
   59.5882   29.1757   48.8815 H   0  0  0  0  0  0  0  0  0  0  0  0
   58.0539   29.5378   46.9477 H   0  0  0  0  0  0  0  0  0  0  0  0
   61.8234   33.6259   45.4092 H   0  0  0  0  0  0  0  0  0  0  0  0
  1  2  1  0
  2  3  1  0
  3  4  2  0
  4  5  1  0
  5  6  2  0
  6  7  1  0
  7  8  1  0
  8  9  1  0
  8 10  1  0
 10 11  1  0
 11 12  2  0
 12 13  1  0
 13 14  1  0
 14 15  1  0
 15 16  2  0
 16 17  1  0
 17 18  2  0
 18 19  1  0
 19 20  2  0
 13 21  2  0
 21 22  1  0
  6 23  1  0
 23 24  2  0
 24 25  1  0
 24  3  1  0
 22 11  1  0
 20 15  1  0
  1 26  1  0
  1 27  1  0
  1 28  1  0
  4 29  1  0
  5 30  1  0
  7 31  1  0
  7 32  1  0
  9 33  1  0
  9 34  1  0
  9 35  1  0
 10 36  1  0
 10 37  1  0
 14 38  1  0
 14 39  1  0
 16 40  1  0
 17 41  1  0
 18 42  1  0
 19 43  1  0
 20 44  1  0
 23 45  1  0
M  END
>  <UniqueID>  (84) 
81

>  <SMILES>  (84) 
COc1ccc(CN(C)Cc2nc(Cc3ccccc3)no2)cc1Cl

>  <Energy>  (84) 
75.30811235916282

>  <Genealogy>  (84) 
COc1ccc(CN(C)Cc2nc(Cc3ccccc3)no2)cc1Cl (3D coordinates assigned)
COc1ccc(CN(C)Cc2nc(Cc3ccccc3)no2)cc1Cl (optimized conformer: 75.30811235916282 kcal/mol)

>  <smiles>  (84) 
COc1ccc(CN(C)Cc2nc(Cc3ccccc3)no2)cc1Cl

>  <score_type>  (84) 
oracle

>  <origin>  (84) 
adg

>  <m_score__min__energy>  (84) 
-8.8100000000000005

>  <m_primary>  (84) 
energy

$$$$
84:0
     RDKit          3D

 49 51  0  0  0  0  0  0  0  0999 V2000
   60.1230   26.6360   48.0940 C   0  0  0  0  0  0  0  0  0  0  0  0
   59.7620   27.8990   47.8110 C   0  0  0  0  0  0  0  0  0  0  0  0
   58.9510   28.3130   46.7460 C   0  0  0  0  0  0  0  0  0  0  0  0
   58.4000   27.5280   45.7930 C   0  0  0  0  0  0  0  0  0  0  0  0
   57.1780   26.7080   45.9500 C   0  0  0  0  0  0  0  0  0  0  0  0
   57.1250   25.4380   46.3890 N   0  0  0  0  0  0  0  0  0  0  0  0
   55.8050   25.1540   46.3890 C   0  0  0  0  0  0  0  0  0  0  0  0
   55.3520   24.0330   46.7390 O   0  0  0  0  0  0  0  0  0  0  0  0
   55.0100   26.1660   45.9850 N   0  0  0  0  0  0  0  0  0  0  0  0
   55.8930   27.1380   45.7090 C   0  0  0  0  0  0  0  0  0  0  0  0
   55.5330   28.3960   45.2430 O   0  0  0  0  0  0  0  0  0  0  0  0
   58.8180   29.6890   46.8810 C   0  0  0  0  0  0  0  0  0  0  0  0
   59.5550   30.0600   47.9880 C   0  0  0  0  0  0  0  0  0  0  0  0
   59.6170   31.4370   48.5190 C   0  0  0  0  0  0  0  0  0  0  0  0
   59.7600   31.5990   49.7610 O   0  0  0  0  0  0  0  0  0  0  0  0
   59.4900   32.5860   47.6540 N   0  0  0  0  0  0  0  0  0  0  0  0
   58.9430   33.8230   48.2460 C   0  0  0  0  0  0  0  0  0  0  0  0
   58.9010   35.0450   47.3060 C   0  0  0  0  0  0  0  0  0  0  0  0
   58.9190   34.7020   45.8790 N   0  0  0  0  0  0  0  0  0  0  0  0
   57.6220   34.4680   45.1970 C   0  0  0  0  0  0  0  0  0  0  0  0
   57.5260   33.1760   44.3670 C   0  0  0  0  0  0  0  0  0  0  0  0
   56.9560   32.1450   45.1420 O   0  0  0  0  0  0  0  0  0  0  0  0
   56.9950   30.9370   44.4200 C   0  0  0  0  0  0  0  0  0  0  0  0
   60.0170   33.7970   45.5330 C   0  0  0  0  0  0  0  0  0  0  0  0
   59.8910   32.4580   46.2440 C   0  0  0  0  0  0  0  0  0  0  0  0
   60.1360   28.9760   48.5510 N   0  0  0  0  0  0  0  0  0  0  0  0
   60.9960   28.9670   49.7400 C   0  0  0  0  0  0  0  0  0  0  0  0
   60.7671   26.4293   48.9614 H   0  0  0  0  0  0  0  0  0  0  0  0
   59.7744   25.8088   47.4582 H   0  0  0  0  0  0  0  0  0  0  0  0
   58.9039   27.4960   44.8157 H   0  0  0  0  0  0  0  0  0  0  0  0
   58.2356   30.3568   46.2292 H   0  0  0  0  0  0  0  0  0  0  0  0
   57.9151   33.6146   48.5775 H   0  0  0  0  0  0  0  0  0  0  0  0
   59.6257   34.0943   49.0647 H   0  0  0  0  0  0  0  0  0  0  0  0
   57.9804   35.6100   47.5143 H   0  0  0  0  0  0  0  0  0  0  0  0
   59.8113   35.6300   47.5040 H   0  0  0  0  0  0  0  0  0  0  0  0
   56.8371   34.4338   45.9669 H   0  0  0  0  0  0  0  0  0  0  0  0
   57.5085   35.2937   44.4791 H   0  0  0  0  0  0  0  0  0  0  0  0
   56.8971   33.3571   43.4829 H   0  0  0  0  0  0  0  0  0  0  0  0
   58.5357   32.8740   44.0517 H   0  0  0  0  0  0  0  0  0  0  0  0
   57.0223   30.0908   45.1223 H   0  0  0  0  0  0  0  0  0  0  0  0
   56.0989   30.8592   43.7868 H   0  0  0  0  0  0  0  0  0  0  0  0
   57.8943   30.9172   43.7868 H   0  0  0  0  0  0  0  0  0  0  0  0
   60.0080   33.6254   44.4465 H   0  0  0  0  0  0  0  0  0  0  0  0
   60.9597   34.2658   45.8515 H   0  0  0  0  0  0  0  0  0  0  0  0
   59.1366   31.8532   45.7195 H   0  0  0  0  0  0  0  0  0  0  0  0
   60.8838   31.9847   46.2281 H   0  0  0  0  0  0  0  0  0  0  0  0
   60.3706   28.9735   50.6449 H   0  0  0  0  0  0  0  0  0  0  0  0
   61.6216   28.0623   49.7332 H   0  0  0  0  0  0  0  0  0  0  0  0
   61.6404   29.8584   49.7332 H   0  0  0  0  0  0  0  0  0  0  0  0
  1  2  2  0
  2  3  1  0
  3  4  2  3
  4  5  1  0
  5  6  1  0
  6  7  1  0
  7  8  2  0
  7  9  1  0
  9 10  1  0
 10 11  1  0
  3 12  1  0
 12 13  2  0
 13 14  1  0
 14 15  2  0
 14 16  1  0
 16 17  1  0
 17 18  1  0
 18 19  1  0
 19 20  1  0
 20 21  1  0
 21 22  1  0
 22 23  1  0
 19 24  1  0
 24 25  1  0
 13 26  1  0
 26 27  1  0
 26  2  1  0
 10  5  2  0
 25 16  1  0
  1 28  1  0
  1 29  1  0
  4 30  1  0
 12 31  1  0
 17 32  1  0
 17 33  1  0
 18 34  1  0
 18 35  1  0
 20 36  1  0
 20 37  1  0
 21 38  1  0
 21 39  1  0
 23 40  1  0
 23 41  1  0
 23 42  1  0
 24 43  1  0
 24 44  1  0
 25 45  1  0
 25 46  1  0
 27 47  1  0
 27 48  1  0
 27 49  1  0
M  CHG  3   6  -1   9  -1  11  -1
M  END
>  <UniqueID>  (85) 
82

>  <SMILES>  (85) 
C=c1c(=Cc2[n-]c(=O)[n-]c2[O-])cc(C(=O)N2CCN(CCOC)CC2)n1C

>  <Energy>  (85) 
130.10929822330448

>  <Genealogy>  (85) 
C=c1c(=Cc2[n-]c(=O)[n-]c2[O-])cc(C(=O)N2CCN(CCOC)CC2)n1C (protonated)
C=c1c(=Cc2[n-]c(=O)[n-]c2[O-])cc(C(=O)N2CCN(CCOC)CC2)n1C (3D coordinates assigned)
C=c1c(=Cc2[n-]c(=O)[n-]c2[O-])cc(C(=O)N2CCN(CCOC)CC2)n1C (nonaromatic ring conformer: 130.10929822330448 kcal/mol)

>  <smiles>  (85) 
C=c1c(=Cc2[nH]c(=O)[nH]c2O)cc(C(=O)N2CCN(CCOC)CC2)n1C

>  <score_type>  (85) 
oracle

>  <origin>  (85) 
adg

>  <m_score__min__energy>  (85) 
-16.77

>  <m_primary>  (85) 
energy

$$$$
