0:0
     RDKit          3D

 64 67  0  0  0  0  0  0  0  0999 V2000
   62.4440   30.7010   52.9240 O   0  0  0  0  0  0  0  0  0  0  0  0
   62.7430   30.3510   51.7520 C   0  0  0  0  0  0  0  0  0  0  0  0
   64.1050   30.4890   51.3220 N   0  0  0  0  0  0  0  0  0  0  0  0
   64.8250   31.7510   51.1710 C   0  0  0  0  0  0  0  0  0  0  0  0
   64.8280   32.1780   49.7010 C   0  0  0  0  0  0  0  0  0  0  0  0
   63.4540   32.3450   49.1740 N   0  0  0  0  0  0  0  0  0  0  0  0
   62.8820   33.6650   49.5330 C   0  0  0  0  0  0  0  0  0  0  0  0
   61.7370   34.0460   48.5780 C   0  0  0  0  0  0  0  0  0  0  0  0
   62.1370   34.1570   47.2180 O   0  0  0  0  0  0  0  0  0  0  0  0
   63.2770   33.3740   46.8930 C   0  0  0  0  0  0  0  0  0  0  0  0
   63.3840   32.0750   47.7150 C   0  0  0  0  0  0  0  0  0  0  0  0
   61.6710   29.8570   50.8610 C   0  0  0  0  0  0  0  0  0  0  0  0
   61.4550   28.4840   50.6770 C   0  0  0  0  0  0  0  0  0  0  0  0
   60.4390   28.0380   49.8310 C   0  0  0  0  0  0  0  0  0  0  0  0
   59.6220   28.9570   49.1690 C   0  0  0  0  0  0  0  0  0  0  0  0
   59.7970   30.3380   49.3670 C   0  0  0  0  0  0  0  0  0  0  0  0
   58.9100   31.3140   48.6950 C   0  0  0  0  0  0  0  0  0  0  0  0
   58.2730   32.1600   49.3830 O   0  0  0  0  0  0  0  0  0  0  0  0
   58.7110   31.2450   47.2770 N   0  0  0  0  0  0  0  0  0  0  0  0
   58.6210   32.3520   46.3620 C   0  0  0  0  0  0  0  0  0  0  0  0
   59.2220   33.5870   46.6760 C   0  0  0  0  0  0  0  0  0  0  0  0
   59.1560   34.6560   45.7840 C   0  0  0  0  0  0  0  0  0  0  0  0
   58.5120   34.5060   44.5590 C   0  0  0  0  0  0  0  0  0  0  0  0
   57.9340   33.2850   44.2190 C   0  0  0  0  0  0  0  0  0  0  0  0
   57.9850   32.1860   45.1020 C   0  0  0  0  0  0  0  0  0  0  0  0
   57.3670   30.8940   44.6860 C   0  0  0  0  0  0  0  0  0  0  0  0
   56.1160   30.7420   44.6990 O   0  0  0  0  0  0  0  0  0  0  0  0
   58.2000   29.8010   44.2800 N   0  0  0  0  0  0  0  0  0  0  0  0
   59.0400   29.0360   45.1930 C   0  0  0  0  0  0  0  0  0  0  0  0
   58.2670   27.8960   45.7990 C   0  0  0  0  0  0  0  0  0  0  0  0
   58.9260   26.8850   46.5150 C   0  0  0  0  0  0  0  0  0  0  0  0
   58.2060   25.8110   47.0450 C   0  0  0  0  0  0  0  0  0  0  0  0
   56.8190   25.7380   46.8720 C   0  0  0  0  0  0  0  0  0  0  0  0
   56.1260   24.6480   47.3990 O   0  0  0  0  0  0  0  0  0  0  0  0
   56.1510   26.7520   46.1660 C   0  0  0  0  0  0  0  0  0  0  0  0
   54.7750   26.6970   45.9840 O   0  0  0  0  0  0  0  0  0  0  0  0
   56.8740   27.8260   45.6340 C   0  0  0  0  0  0  0  0  0  0  0  0
   60.8270   30.7790   50.2190 C   0  0  0  0  0  0  0  0  0  0  0  0
   64.3315   32.5267   51.7749 H   0  0  0  0  0  0  0  0  0  0  0  0
   65.8626   31.6182   51.5111 H   0  0  0  0  0  0  0  0  0  0  0  0
   65.3633   33.1346   49.6092 H   0  0  0  0  0  0  0  0  0  0  0  0
   65.3248   31.3893   49.1169 H   0  0  0  0  0  0  0  0  0  0  0  0
   62.4938   33.6215   50.5613 H   0  0  0  0  0  0  0  0  0  0  0  0
   63.6737   34.4244   49.4527 H   0  0  0  0  0  0  0  0  0  0  0  0
   60.9559   33.2747   48.6479 H   0  0  0  0  0  0  0  0  0  0  0  0
   61.3778   35.0383   48.8883 H   0  0  0  0  0  0  0  0  0  0  0  0
   63.2247   33.1083   45.8269 H   0  0  0  0  0  0  0  0  0  0  0  0
   64.1642   33.9803   47.1283 H   0  0  0  0  0  0  0  0  0  0  0  0
   62.5009   31.4517   47.5110 H   0  0  0  0  0  0  0  0  0  0  0  0
   64.3103   31.5607   47.4194 H   0  0  0  0  0  0  0  0  0  0  0  0
   62.0895   27.7549   51.2021 H   0  0  0  0  0  0  0  0  0  0  0  0
   60.2811   26.9592   49.6850 H   0  0  0  0  0  0  0  0  0  0  0  0
   58.8362   28.5980   48.4880 H   0  0  0  0  0  0  0  0  0  0  0  0
   59.7483   33.7087   47.6342 H   0  0  0  0  0  0  0  0  0  0  0  0
   59.6139   35.6205   46.0487 H   0  0  0  0  0  0  0  0  0  0  0  0
   58.4595   35.3526   43.8587 H   0  0  0  0  0  0  0  0  0  0  0  0
   57.4302   33.1761   43.2473 H   0  0  0  0  0  0  0  0  0  0  0  0
   59.9017   28.6341   44.6398 H   0  0  0  0  0  0  0  0  0  0  0  0
   59.3808   29.7006   46.0005 H   0  0  0  0  0  0  0  0  0  0  0  0
   60.0151   26.9382   46.6598 H   0  0  0  0  0  0  0  0  0  0  0  0
   58.7313   25.0200   47.6003 H   0  0  0  0  0  0  0  0  0  0  0  0
   55.1250   24.6710   47.5540 H   0  0  0  0  0  0  0  0  0  0  0  0
   56.3481   28.6199   45.0834 H   0  0  0  0  0  0  0  0  0  0  0  0
   60.9728   31.8567   50.3840 H   0  0  0  0  0  0  0  0  0  0  0  0
  1  2  2  0
  2  3  1  0
  3  4  1  0
  4  5  1  0
  5  6  1  0
  6  7  1  0
  7  8  1  0
  8  9  1  0
  9 10  1  0
 10 11  1  0
  2 12  1  0
 12 13  2  0
 13 14  1  0
 14 15  2  0
 15 16  1  0
 16 17  1  0
 17 18  2  0
 17 19  1  0
 19 20  1  0
 20 21  2  0
 21 22  1  0
 22 23  2  0
 23 24  1  0
 24 25  2  0
 25 26  1  0
 26 27  2  0
 26 28  1  0
 28 29  1  0
 29 30  1  0
 30 31  2  0
 31 32  1  0
 32 33  2  0
 33 34  1  0
 33 35  1  0
 35 36  1  0
 35 37  2  0
 16 38  2  0
 11  6  1  0
 38 12  1  0
 25 20  1  0
 37 30  1  0
  4 39  1  0
  4 40  1  0
  5 41  1  0
  5 42  1  0
  7 43  1  0
  7 44  1  0
  8 45  1  0
  8 46  1  0
 10 47  1  0
 10 48  1  0
 11 49  1  0
 11 50  1  0
 13 51  1  0
 14 52  1  0
 15 53  1  0
 21 54  1  0
 22 55  1  0
 23 56  1  0
 24 57  1  0
 29 58  1  0
 29 59  1  0
 31 60  1  0
 32 61  1  0
 34 62  1  0
 37 63  1  0
 38 64  1  0
M  CHG  4   3  -1  19  -1  28  -1  36  -1
M  END
>  <UniqueID>  (1) 
1

>  <SMILES>  (1) 
O=C([N-]CCN1CCOCC1)c1cccc(C(=O)[N-]c2ccccc2C(=O)[N-]Cc2ccc(O)c([O-])c2)c1

>  <Energy>  (1) 
90.4558681540577

>  <Genealogy>  (1) 
O=C([N-]CCN1CCOCC1)c1cccc(C(=O)[N-]c2ccccc2C(=O)[N-]Cc2ccc(O)c([O-])c2)c1 (protonated)
O=C([N-]CCN1CCOCC1)c1cccc(C(=O)[N-]c2ccccc2C(=O)[N-]Cc2ccc(O)c([O-])c2)c1 (3D coordinates assigned)
O=C([N-]CCN1CCOCC1)c1cccc(C(=O)[N-]c2ccccc2C(=O)[N-]Cc2ccc(O)c([O-])c2)c1 (nonaromatic ring conformer: 90.4558681540577 kcal/mol)

>  <smiles>  (1) 
O=C(NCCN1CCOCC1)c1cccc(C(=O)Nc2ccccc2C(=O)NCc2ccc(O)c(O)c2)c1

>  <score_type>  (1) 
oracle

>  <origin>  (1) 
adg

>  <m_score__min__energy>  (1) 
-17.16

>  <m_primary>  (1) 
energy

$$$$
1:0
     RDKit          3D

 42 44  0  0  0  0  0  0  0  0999 V2000
   56.4530   30.6670   44.8270 O   0  0  0  0  0  0  0  0  0  0  0  0
   56.6170   29.4620   45.1540 C   0  0  0  0  0  0  0  0  0  0  0  0
   55.5230   28.6060   45.2010 O   0  0  0  0  0  0  0  0  0  0  0  0
   57.9860   28.9470   45.4670 C   0  0  0  0  0  0  0  0  0  0  0  0
   58.0500   28.4690   46.8450 N   0  0  0  0  0  0  0  0  0  0  0  0
   58.7500   29.1210   47.9110 C   0  0  0  0  0  0  0  0  0  0  0  0
   59.3710   28.4190   48.7520 O   0  0  0  0  0  0  0  0  0  0  0  0
   58.7570   30.5900   48.0550 C   0  0  0  0  0  0  0  0  0  0  0  0
   59.0600   31.3780   46.9330 C   0  0  0  0  0  0  0  0  0  0  0  0
   59.1260   32.7670   47.0420 C   0  0  0  0  0  0  0  0  0  0  0  0
   58.8980   33.3830   48.2710 C   0  0  0  0  0  0  0  0  0  0  0  0
   58.6010   32.6130   49.3970 C   0  0  0  0  0  0  0  0  0  0  0  0
   58.5280   31.2090   49.3070 C   0  0  0  0  0  0  0  0  0  0  0  0
   58.1900   30.4160   50.4650 N   0  0  0  0  0  0  0  0  0  0  0  0
   57.7580   30.9880   51.7420 C   0  0  0  0  0  0  0  0  0  0  0  0
   56.4340   30.3890   52.1700 C   0  0  0  0  0  0  0  0  0  0  0  0
   55.2620   30.9400   51.6150 C   0  0  0  0  0  0  0  0  0  0  0  0
   53.9930   30.4200   51.9220 C   0  0  0  0  0  0  0  0  0  0  0  0
   52.7690   30.9980   51.3090 C   0  0  0  0  0  0  0  0  0  0  0  0
   52.0530   30.5180   50.2270 C   0  0  0  0  0  0  0  0  0  0  0  0
   51.0080   31.3320   49.9910 N   0  0  0  0  0  0  0  0  0  0  0  0
   51.0280   32.3150   50.8790 N   0  0  0  0  0  0  0  0  0  0  0  0
   52.0850   32.1370   51.6930 C   0  0  0  0  0  0  0  0  0  0  0  0
   53.9030   29.3400   52.8130 C   0  0  0  0  0  0  0  0  0  0  0  0
   55.0520   28.7990   53.3870 C   0  0  0  0  0  0  0  0  0  0  0  0
   56.3180   29.3110   53.0860 C   0  0  0  0  0  0  0  0  0  0  0  0
   57.4130   28.7230   53.7250 O   0  0  0  0  0  0  0  0  0  0  0  0
   58.2256   28.1180   44.7848 H   0  0  0  0  0  0  0  0  0  0  0  0
   58.7111   29.7644   45.3400 H   0  0  0  0  0  0  0  0  0  0  0  0
   59.2466   30.8967   45.9616 H   0  0  0  0  0  0  0  0  0  0  0  0
   59.3583   33.3770   46.1566 H   0  0  0  0  0  0  0  0  0  0  0  0
   58.9522   34.4785   48.3541 H   0  0  0  0  0  0  0  0  0  0  0  0
   58.4223   33.1071   50.3634 H   0  0  0  0  0  0  0  0  0  0  0  0
   58.3270   29.3810   50.4320 H   0  0  0  0  0  0  0  0  0  0  0  0
   58.5168   30.7750   52.5094 H   0  0  0  0  0  0  0  0  0  0  0  0
   57.6351   32.0745   51.6221 H   0  0  0  0  0  0  0  0  0  0  0  0
   55.3419   31.7948   50.9273 H   0  0  0  0  0  0  0  0  0  0  0  0
   52.2991   29.6139   49.6508 H   0  0  0  0  0  0  0  0  0  0  0  0
   52.3612   32.7937   52.5312 H   0  0  0  0  0  0  0  0  0  0  0  0
   52.9182   28.9171   53.0604 H   0  0  0  0  0  0  0  0  0  0  0  0
   54.9616   27.9560   54.0878 H   0  0  0  0  0  0  0  0  0  0  0  0
   57.3690   27.9010   54.3070 H   0  0  0  0  0  0  0  0  0  0  0  0
  1  2  2  0
  2  3  1  0
  2  4  1  0
  4  5  1  0
  5  6  1  0
  6  7  2  0
  6  8  1  0
  8  9  2  0
  9 10  1  0
 10 11  2  0
 11 12  1  0
 12 13  2  0
 13 14  1  0
 14 15  1  0
 15 16  1  0
 16 17  2  0
 17 18  1  0
 18 19  1  0
 19 20  1  0
 20 21  2  0
 21 22  1  0
 22 23  1  0
 18 24  2  0
 24 25  1  0
 25 26  2  0
 26 27  1  0
 13  8  1  0
 26 16  1  0
 23 19  2  0
  4 28  1  0
  4 29  1  0
  9 30  1  0
 10 31  1  0
 11 32  1  0
 12 33  1  0
 14 34  1  0
 15 35  1  0
 15 36  1  0
 17 37  1  0
 20 38  1  0
 23 39  1  0
 24 40  1  0
 25 41  1  0
 27 42  1  0
M  CHG  3   3  -1   5  -1  22  -1
M  END
>  <UniqueID>  (2) 
2

>  <SMILES>  (2) 
O=C([O-])C[N-]C(=O)c1ccccc1NCc1cc(-c2cn[n-]c2)ccc1O

>  <Energy>  (2) 
83.2246206734704

>  <Genealogy>  (2) 
O=C([O-])C[N-]C(=O)c1ccccc1NCc1cc(-c2cn[n-]c2)ccc1O (protonated)
O=C([O-])C[N-]C(=O)c1ccccc1NCc1cc(-c2cn[n-]c2)ccc1O (3D coordinates assigned)
O=C([O-])C[N-]C(=O)c1ccccc1NCc1cc(-c2cn[n-]c2)ccc1O (optimized conformer: 83.2246206734704 kcal/mol)

>  <smiles>  (2) 
O=C(O)CNC(=O)c1ccccc1NCc1cc(-c2cn[nH]c2)ccc1O

>  <score_type>  (2) 
oracle

>  <origin>  (2) 
adg

>  <m_score__min__energy>  (2) 
-13.68

>  <m_primary>  (2) 
energy

$$$$
2:0
     RDKit          3D

 52 55  0  0  0  0  0  0  0  0999 V2000
   63.0560   31.4380   51.6150 C   0  0  0  0  0  0  0  0  0  0  0  0
   63.5940   32.7810   51.1340 C   0  0  0  0  0  0  0  0  0  0  0  0
   63.4680   32.8970   49.6450 C   0  0  0  0  0  0  0  0  0  0  0  0
   64.4710   32.6190   48.7840 N   0  0  0  0  0  0  0  0  0  0  0  0
   63.9930   32.8550   47.5710 N   0  0  0  0  0  0  0  0  0  0  0  0
   62.7230   33.2760   47.7030 C   0  0  0  0  0  0  0  0  0  0  0  0
   62.3720   33.3350   48.9910 N   0  0  0  0  0  0  0  0  0  0  0  0
   61.0360   33.6480   49.4770 C   0  0  0  0  0  0  0  0  0  0  0  0
   60.3260   34.5600   48.4680 C   0  0  0  0  0  0  0  0  0  0  0  0
   60.4740   34.0570   47.0850 N   0  0  0  0  0  0  0  0  0  0  0  0
   59.4150   34.2400   46.1210 C   0  0  0  0  0  0  0  0  0  0  0  0
   59.6920   34.7130   44.9840 O   0  0  0  0  0  0  0  0  0  0  0  0
   57.9880   33.8380   46.4290 C   0  0  0  0  0  0  0  0  0  0  0  0
   57.7240   32.3170   46.2750 C   0  0  0  0  0  0  0  0  0  0  0  0
   57.4960   31.9040   44.8290 C   0  0  0  0  0  0  0  0  0  0  0  0
   56.7430   30.7580   44.5050 C   0  0  0  0  0  0  0  0  0  0  0  0
   56.5290   30.4060   43.1690 C   0  0  0  0  0  0  0  0  0  0  0  0
   57.0530   31.1940   42.1440 C   0  0  0  0  0  0  0  0  0  0  0  0
   57.7910   32.3400   42.4510 C   0  0  0  0  0  0  0  0  0  0  0  0
   58.0080   32.6970   43.7850 C   0  0  0  0  0  0  0  0  0  0  0  0
   58.8200   31.4610   46.8880 C   0  0  0  0  0  0  0  0  0  0  0  0
   59.7230   30.7240   46.0960 C   0  0  0  0  0  0  0  0  0  0  0  0
   60.6930   29.9120   46.6940 C   0  0  0  0  0  0  0  0  0  0  0  0
   60.7660   29.8170   48.0850 C   0  0  0  0  0  0  0  0  0  0  0  0
   59.8660   30.5270   48.8810 C   0  0  0  0  0  0  0  0  0  0  0  0
   58.8940   31.3390   48.2890 C   0  0  0  0  0  0  0  0  0  0  0  0
   61.7860   33.5990   46.5830 C   0  0  0  0  0  0  0  0  0  0  0  0
   63.0483   31.4187   52.7148 H   0  0  0  0  0  0  0  0  0  0  0  0
   62.0320   31.2971   51.2386 H   0  0  0  0  0  0  0  0  0  0  0  0
   63.6995   30.6292   51.2386 H   0  0  0  0  0  0  0  0  0  0  0  0
   63.0215   33.5910   51.6095 H   0  0  0  0  0  0  0  0  0  0  0  0
   64.6570   32.8555   51.4068 H   0  0  0  0  0  0  0  0  0  0  0  0
   64.5230   32.7160   46.6810 H   0  0  0  0  0  0  0  0  0  0  0  0
   60.4621   32.7173   49.5973 H   0  0  0  0  0  0  0  0  0  0  0  0
   61.1094   34.1612   50.4472 H   0  0  0  0  0  0  0  0  0  0  0  0
   59.2560   34.6060   48.7190 H   0  0  0  0  0  0  0  0  0  0  0  0
   60.7844   35.5584   48.5230 H   0  0  0  0  0  0  0  0  0  0  0  0
   57.7614   34.1270   47.4659 H   0  0  0  0  0  0  0  0  0  0  0  0
   57.3437   34.3525   45.7009 H   0  0  0  0  0  0  0  0  0  0  0  0
   56.7956   32.1346   46.8361 H   0  0  0  0  0  0  0  0  0  0  0  0
   56.3208   30.1363   45.3083 H   0  0  0  0  0  0  0  0  0  0  0  0
   55.9460   29.5055   42.9255 H   0  0  0  0  0  0  0  0  0  0  0  0
   56.8851   30.9130   41.0938 H   0  0  0  0  0  0  0  0  0  0  0  0
   58.2017   32.9620   41.6420 H   0  0  0  0  0  0  0  0  0  0  0  0
   58.5832   33.6045   44.0206 H   0  0  0  0  0  0  0  0  0  0  0  0
   59.6649   30.7875   44.9994 H   0  0  0  0  0  0  0  0  0  0  0  0
   61.3991   29.3476   46.0672 H   0  0  0  0  0  0  0  0  0  0  0  0
   61.5328   29.1826   48.5535 H   0  0  0  0  0  0  0  0  0  0  0  0
   59.9215   30.4475   49.9767 H   0  0  0  0  0  0  0  0  0  0  0  0
   58.1812   31.8871   48.9227 H   0  0  0  0  0  0  0  0  0  0  0  0
   61.6386   32.6976   45.9700 H   0  0  0  0  0  0  0  0  0  0  0  0
   62.2288   34.4113   45.9880 H   0  0  0  0  0  0  0  0  0  0  0  0
  1  2  1  0
  2  3  1  0
  3  4  2  0
  4  5  1  0
  5  6  2  0
  6  7  1  0
  7  8  1  0
  8  9  1  0
  9 10  1  0
 10 11  1  0
 11 12  2  0
 11 13  1  0
 13 14  1  0
 14 15  1  0
 15 16  2  0
 16 17  1  0
 17 18  2  0
 18 19  1  0
 19 20  2  0
 14 21  1  0
 21 22  2  0
 22 23  1  0
 23 24  2  0
 24 25  1  0
 25 26  2  0
 10 27  1  0
  7  3  1  0
 20 15  1  0
 26 21  1  0
 27  6  1  0
  1 28  1  0
  1 29  1  0
  1 30  1  0
  2 31  1  0
  2 32  1  0
  5 33  1  0
  8 34  1  0
  8 35  1  0
  9 36  1  0
  9 37  1  0
 13 38  1  0
 13 39  1  0
 14 40  1  0
 16 41  1  0
 17 42  1  0
 18 43  1  0
 19 44  1  0
 20 45  1  0
 22 46  1  0
 23 47  1  0
 24 48  1  0
 25 49  1  0
 26 50  1  0
 27 51  1  0
 27 52  1  0
M  CHG  1   5   1
M  END
>  <UniqueID>  (3) 
3

>  <SMILES>  (3) 
CCc1n[nH+]c2n1CCN(C(=O)CC(c1ccccc1)c1ccccc1)C2

>  <Energy>  (3) 
92.06143829110417

>  <Genealogy>  (3) 
CCc1n[nH+]c2n1CCN(C(=O)CC(c1ccccc1)c1ccccc1)C2 (protonated)
CCc1n[nH+]c2n1CCN(C(=O)CC(c1ccccc1)c1ccccc1)C2 (3D coordinates assigned)
CCc1n[nH+]c2n1CCN(C(=O)CC(c1ccccc1)c1ccccc1)C2 (nonaromatic ring conformer: 92.06143829110417 kcal/mol)

>  <smiles>  (3) 
CCc1nnc2n1CCN(C(=O)CC(c1ccccc1)c1ccccc1)C2

>  <score_type>  (3) 
oracle

>  <origin>  (3) 
adg

>  <m_score__min__energy>  (3) 
-7.29

>  <m_primary>  (3) 
energy

$$$$
3:0
     RDKit          3D

 42 44  0  0  0  0  0  0  0  0999 V2000
   59.4840   28.3840   46.7110 C   0  0  0  0  0  0  0  0  0  0  0  0
   58.2070   27.6430   46.4770 C   0  0  0  0  0  0  0  0  0  0  0  0
   57.7850   26.6270   47.2450 N   0  0  0  0  0  0  0  0  0  0  0  0
   56.6120   26.2780   46.6800 C   0  0  0  0  0  0  0  0  0  0  0  0
   55.8990   25.3430   47.1220 O   0  0  0  0  0  0  0  0  0  0  0  0
   56.2640   27.0100   45.6030 N   0  0  0  0  0  0  0  0  0  0  0  0
   57.2890   27.8720   45.4700 C   0  0  0  0  0  0  0  0  0  0  0  0
   57.3550   28.9360   44.4160 C   0  0  0  0  0  0  0  0  0  0  0  0
   56.1480   29.8310   44.4490 C   0  0  0  0  0  0  0  0  0  0  0  0
   55.0020   29.3140   44.4790 O   0  0  0  0  0  0  0  0  0  0  0  0
   56.2690   31.2570   44.5260 N   0  0  0  0  0  0  0  0  0  0  0  0
   57.3230   31.9680   45.1820 C   0  0  0  0  0  0  0  0  0  0  0  0
   57.7870   33.1950   44.6860 C   0  0  0  0  0  0  0  0  0  0  0  0
   58.8150   33.8760   45.3370 C   0  0  0  0  0  0  0  0  0  0  0  0
   59.3780   33.3570   46.5160 C   0  0  0  0  0  0  0  0  0  0  0  0
   60.4620   34.0830   47.2130 C   0  0  0  0  0  0  0  0  0  0  0  0
   60.3150   35.3010   47.5030 O   0  0  0  0  0  0  0  0  0  0  0  0
   61.6880   33.4260   47.5630 N   0  0  0  0  0  0  0  0  0  0  0  0
   62.9090   33.7540   46.8240 C   0  0  0  0  0  0  0  0  0  0  0  0
   64.1390   33.4510   47.6840 C   0  0  0  0  0  0  0  0  0  0  0  0
   64.0710   32.1450   48.2190 O   0  0  0  0  0  0  0  0  0  0  0  0
   62.9890   32.0570   49.1240 C   0  0  0  0  0  0  0  0  0  0  0  0
   61.6570   32.2120   48.3830 C   0  0  0  0  0  0  0  0  0  0  0  0
   58.8680   32.1590   47.0450 C   0  0  0  0  0  0  0  0  0  0  0  0
   57.8450   31.4730   46.3810 C   0  0  0  0  0  0  0  0  0  0  0  0
   59.6568   28.4843   47.7927 H   0  0  0  0  0  0  0  0  0  0  0  0
   60.3182   27.8297   46.2562 H   0  0  0  0  0  0  0  0  0  0  0  0
   59.4167   29.3833   46.2562 H   0  0  0  0  0  0  0  0  0  0  0  0
   58.2551   29.5461   44.5820 H   0  0  0  0  0  0  0  0  0  0  0  0
   57.3873   28.4421   43.4336 H   0  0  0  0  0  0  0  0  0  0  0  0
   57.3372   33.6228   43.7779 H   0  0  0  0  0  0  0  0  0  0  0  0
   59.1879   34.8255   44.9254 H   0  0  0  0  0  0  0  0  0  0  0  0
   62.9506   33.1525   45.9040 H   0  0  0  0  0  0  0  0  0  0  0  0
   62.9008   34.8242   46.5700 H   0  0  0  0  0  0  0  0  0  0  0  0
   65.0429   33.5393   47.0634 H   0  0  0  0  0  0  0  0  0  0  0  0
   64.1721   34.1702   48.5157 H   0  0  0  0  0  0  0  0  0  0  0  0
   63.0136   31.0774   49.6237 H   0  0  0  0  0  0  0  0  0  0  0  0
   63.0794   32.8634   49.8667 H   0  0  0  0  0  0  0  0  0  0  0  0
   61.4943   31.3374   47.7359 H   0  0  0  0  0  0  0  0  0  0  0  0
   60.8390   32.2866   49.1146 H   0  0  0  0  0  0  0  0  0  0  0  0
   59.2749   31.7588   47.9853 H   0  0  0  0  0  0  0  0  0  0  0  0
   57.4490   30.5384   46.8049 H   0  0  0  0  0  0  0  0  0  0  0  0
  1  2  1  0
  2  3  1  0
  3  4  1  0
  4  5  2  0
  4  6  1  0
  6  7  1  0
  7  8  1  0
  8  9  1  0
  9 10  2  0
  9 11  1  0
 11 12  1  0
 12 13  2  0
 13 14  1  0
 14 15  2  0
 15 16  1  0
 16 17  2  0
 16 18  1  0
 18 19  1  0
 19 20  1  0
 20 21  1  0
 21 22  1  0
 22 23  1  0
 15 24  1  0
 24 25  2  0
  7  2  2  0
 25 12  1  0
 23 18  1  0
  1 26  1  0
  1 27  1  0
  1 28  1  0
  8 29  1  0
  8 30  1  0
 13 31  1  0
 14 32  1  0
 19 33  1  0
 19 34  1  0
 20 35  1  0
 20 36  1  0
 22 37  1  0
 22 38  1  0
 23 39  1  0
 23 40  1  0
 24 41  1  0
 25 42  1  0
M  CHG  3   3  -1   6  -1  11  -1
M  END
>  <UniqueID>  (4) 
4

>  <SMILES>  (4) 
Cc1[n-]c(=O)[n-]c1CC(=O)[N-]c1ccc(C(=O)N2CCOCC2)cc1

>  <Energy>  (4) 
80.33485991646536

>  <Genealogy>  (4) 
Cc1[n-]c(=O)[n-]c1CC(=O)[N-]c1ccc(C(=O)N2CCOCC2)cc1 (protonated)
Cc1[n-]c(=O)[n-]c1CC(=O)[N-]c1ccc(C(=O)N2CCOCC2)cc1 (3D coordinates assigned)
Cc1[n-]c(=O)[n-]c1CC(=O)[N-]c1ccc(C(=O)N2CCOCC2)cc1 (nonaromatic ring conformer: 80.33485991646536 kcal/mol)

>  <smiles>  (4) 
Cc1[nH]c(=O)[nH]c1CC(=O)Nc1ccc(C(=O)N2CCOCC2)cc1

>  <score_type>  (4) 
oracle

>  <origin>  (4) 
adg

>  <m_score__min__energy>  (4) 
-13.619999999999999

>  <m_primary>  (4) 
energy

$$$$
4:0
     RDKit          3D

 48 50  0  0  0  0  0  0  0  0999 V2000
   59.4320   29.4600   48.5750 C   0  0  0  0  0  0  0  0  0  0  0  0
   58.5730   30.5820   48.7550 O   0  0  0  0  0  0  0  0  0  0  0  0
   58.9680   31.9260   48.6410 C   0  0  0  0  0  0  0  0  0  0  0  0
   59.5680   32.6010   49.7220 C   0  0  0  0  0  0  0  0  0  0  0  0
   59.9440   33.9350   49.6050 C   0  0  0  0  0  0  0  0  0  0  0  0
   59.7310   34.6230   48.4150 C   0  0  0  0  0  0  0  0  0  0  0  0
   59.1350   33.9800   47.3130 C   0  0  0  0  0  0  0  0  0  0  0  0
   58.9080   34.6680   46.1090 O   0  0  0  0  0  0  0  0  0  0  0  0
   59.6420   35.8050   45.6650 C   0  0  0  0  0  0  0  0  0  0  0  0
   58.7520   32.6180   47.4200 C   0  0  0  0  0  0  0  0  0  0  0  0
   58.1010   31.9370   46.2650 C   0  0  0  0  0  0  0  0  0  0  0  0
   58.5450   30.7990   45.6960 N   0  0  0  0  0  0  0  0  0  0  0  0
   57.6260   30.5980   44.7320 C   0  0  0  0  0  0  0  0  0  0  0  0
   57.6070   29.3920   43.8490 C   0  0  0  0  0  0  0  0  0  0  0  0
   57.2110   28.2170   44.6200 N   0  0  0  0  0  0  0  0  0  0  0  0
   58.0770   27.6020   45.5850 C   0  0  0  0  0  0  0  0  0  0  0  0
   59.2690   27.9970   45.7150 O   0  0  0  0  0  0  0  0  0  0  0  0
   57.5630   26.5120   46.4800 C   0  0  0  0  0  0  0  0  0  0  0  0
   57.5620   25.1460   45.7760 C   0  0  0  0  0  0  0  0  0  0  0  0
   56.1780   24.5370   45.6690 C   0  0  0  0  0  0  0  0  0  0  0  0
   56.0420   23.1480   45.4820 C   0  0  0  0  0  0  0  0  0  0  0  0
   54.7750   22.5640   45.3910 C   0  0  0  0  0  0  0  0  0  0  0  0
   53.6290   23.3590   45.4600 C   0  0  0  0  0  0  0  0  0  0  0  0
   53.7490   24.7410   45.6220 C   0  0  0  0  0  0  0  0  0  0  0  0
   55.0150   25.3340   45.7330 C   0  0  0  0  0  0  0  0  0  0  0  0
   55.1010   26.7120   45.9030 O   0  0  0  0  0  0  0  0  0  0  0  0
   56.6720   31.5450   44.7220 N   0  0  0  0  0  0  0  0  0  0  0  0
   57.0050   32.3570   45.6760 O   0  0  0  0  0  0  0  0  0  0  0  0
   59.7328   29.0671   49.5574 H   0  0  0  0  0  0  0  0  0  0  0  0
   58.9001   28.6772   48.0143 H   0  0  0  0  0  0  0  0  0  0  0  0
   60.3264   29.7692   48.0143 H   0  0  0  0  0  0  0  0  0  0  0  0
   59.7410   32.0677   50.6684 H   0  0  0  0  0  0  0  0  0  0  0  0
   60.4121   34.4485   50.4578 H   0  0  0  0  0  0  0  0  0  0  0  0
   60.0307   35.6783   48.3341 H   0  0  0  0  0  0  0  0  0  0  0  0
   60.0063   36.3693   46.5361 H   0  0  0  0  0  0  0  0  0  0  0  0
   60.4979   35.4748   45.0580 H   0  0  0  0  0  0  0  0  0  0  0  0
   58.9887   36.4490   45.0580 H   0  0  0  0  0  0  0  0  0  0  0  0
   56.8889   29.5503   43.0310 H   0  0  0  0  0  0  0  0  0  0  0  0
   58.6132   29.2308   43.4349 H   0  0  0  0  0  0  0  0  0  0  0  0
   56.2540   27.8220   44.4710 H   0  0  0  0  0  0  0  0  0  0  0  0
   58.2041   26.4521   47.3718 H   0  0  0  0  0  0  0  0  0  0  0  0
   56.5257   26.7557   46.7533 H   0  0  0  0  0  0  0  0  0  0  0  0
   57.9683   25.2738   44.7618 H   0  0  0  0  0  0  0  0  0  0  0  0
   58.1766   24.4631   46.3809 H   0  0  0  0  0  0  0  0  0  0  0  0
   56.9400   22.5172   45.4069 H   0  0  0  0  0  0  0  0  0  0  0  0
   54.6806   21.4754   45.2647 H   0  0  0  0  0  0  0  0  0  0  0  0
   52.6332   22.8974   45.3869 H   0  0  0  0  0  0  0  0  0  0  0  0
   52.8458   25.3676   45.6627 H   0  0  0  0  0  0  0  0  0  0  0  0
  1  2  1  0
  2  3  1  0
  3  4  2  0
  4  5  1  0
  5  6  2  0
  6  7  1  0
  7  8  1  0
  8  9  1  0
  7 10  2  0
 10 11  1  0
 11 12  2  0
 12 13  1  0
 13 14  1  0
 14 15  1  0
 15 16  1  0
 16 17  2  0
 16 18  1  0
 18 19  1  0
 19 20  1  0
 20 21  2  0
 21 22  1  0
 22 23  2  0
 23 24  1  0
 24 25  2  0
 25 26  1  0
 13 27  2  0
 27 28  1  0
 10  3  1  0
 28 11  1  0
 25 20  1  0
  1 29  1  0
  1 30  1  0
  1 31  1  0
  4 32  1  0
  5 33  1  0
  6 34  1  0
  9 35  1  0
  9 36  1  0
  9 37  1  0
 14 38  1  0
 14 39  1  0
 15 40  1  0
 18 41  1  0
 18 42  1  0
 19 43  1  0
 19 44  1  0
 21 45  1  0
 22 46  1  0
 23 47  1  0
 24 48  1  0
M  CHG  1  26  -1
M  END
>  <UniqueID>  (5) 
5

>  <SMILES>  (5) 
COc1cccc(OC)c1-c1nc(CNC(=O)CCc2ccccc2[O-])no1

>  <Energy>  (5) 
74.54272759902402

>  <Genealogy>  (5) 
COc1cccc(OC)c1-c1nc(CNC(=O)CCc2ccccc2[O-])no1 (protonated)
COc1cccc(OC)c1-c1nc(CNC(=O)CCc2ccccc2[O-])no1 (3D coordinates assigned)
COc1cccc(OC)c1-c1nc(CNC(=O)CCc2ccccc2[O-])no1 (optimized conformer: 74.54272759902402 kcal/mol)

>  <smiles>  (5) 
COc1cccc(OC)c1-c1nc(CNC(=O)CCc2ccccc2O)no1

>  <score_type>  (5) 
oracle

>  <origin>  (5) 
adg

>  <m_score__min__energy>  (5) 
-12.5

>  <m_primary>  (5) 
energy

$$$$
5:0
     RDKit          3D

 64 67  0  0  0  0  0  0  0  0999 V2000
   63.6840   30.3240   51.3270 C   0  0  0  0  0  0  0  0  0  0  0  0
   62.7410   29.3870   51.4340 C   0  0  0  0  0  0  0  0  0  0  0  0
   61.2970   29.6430   51.1960 C   0  0  0  0  0  0  0  0  0  0  0  0
   60.4250   30.0580   52.2220 C   0  0  0  0  0  0  0  0  0  0  0  0
   59.0690   30.2680   51.9540 C   0  0  0  0  0  0  0  0  0  0  0  0
   58.5670   30.0740   50.6670 C   0  0  0  0  0  0  0  0  0  0  0  0
   59.4330   29.7100   49.6180 C   0  0  0  0  0  0  0  0  0  0  0  0
   58.9250   29.4530   48.2530 C   0  0  0  0  0  0  0  0  0  0  0  0
   58.6240   28.2440   47.7500 C   0  0  0  0  0  0  0  0  0  0  0  0
   58.3430   27.9600   46.3190 C   0  0  0  0  0  0  0  0  0  0  0  0
   58.7180   26.8680   45.8100 O   0  0  0  0  0  0  0  0  0  0  0  0
   57.5880   28.9240   45.4810 C   0  0  0  0  0  0  0  0  0  0  0  0
   58.2010   30.0980   45.0080 C   0  0  0  0  0  0  0  0  0  0  0  0
   57.4840   31.0220   44.2280 C   0  0  0  0  0  0  0  0  0  0  0  0
   58.1540   32.2750   43.7250 C   0  0  0  0  0  0  0  0  0  0  0  0
   58.0720   33.4060   44.7330 C   0  0  0  0  0  0  0  0  0  0  0  0
   57.4660   34.4180   44.4040 O   0  0  0  0  0  0  0  0  0  0  0  0
   58.6370   33.3340   46.0730 N   0  0  0  0  0  0  0  0  0  0  0  0
   59.4420   34.5540   46.3460 C   0  0  0  0  0  0  0  0  0  0  0  0
   59.7210   34.7890   47.8480 C   0  0  0  0  0  0  0  0  0  0  0  0
   59.5420   33.5610   48.6310 N   0  0  0  0  0  0  0  0  0  0  0  0
   60.4050   33.2940   49.7450 C   0  0  0  0  0  0  0  0  0  0  0  0
   59.8980   33.1340   50.8880 O   0  0  0  0  0  0  0  0  0  0  0  0
   61.8730   33.1470   49.5580 C   0  0  0  0  0  0  0  0  0  0  0  0
   62.7690   33.6090   50.5430 C   0  0  0  0  0  0  0  0  0  0  0  0
   64.1530   33.4990   50.3500 C   0  0  0  0  0  0  0  0  0  0  0  0
   64.6560   32.9330   49.1750 C   0  0  0  0  0  0  0  0  0  0  0  0
   63.7760   32.4760   48.1890 C   0  0  0  0  0  0  0  0  0  0  0  0
   62.3920   32.5830   48.3760 C   0  0  0  0  0  0  0  0  0  0  0  0
   58.3330   32.7500   48.4540 C   0  0  0  0  0  0  0  0  0  0  0  0
   57.6320   33.0890   47.1320 C   0  0  0  0  0  0  0  0  0  0  0  0
   56.1480   30.7480   43.8900 C   0  0  0  0  0  0  0  0  0  0  0  0
   55.5240   29.5970   44.3710 C   0  0  0  0  0  0  0  0  0  0  0  0
   56.2320   28.6870   45.1630 C   0  0  0  0  0  0  0  0  0  0  0  0
   55.5840   27.5390   45.6120 O   0  0  0  0  0  0  0  0  0  0  0  0
   60.7910   29.4830   49.8950 C   0  0  0  0  0  0  0  0  0  0  0  0
   64.7370   30.0688   51.5168 H   0  0  0  0  0  0  0  0  0  0  0  0
   63.4088   31.3521   51.0489 H   0  0  0  0  0  0  0  0  0  0  0  0
   63.0492   28.3688   51.7138 H   0  0  0  0  0  0  0  0  0  0  0  0
   60.8130   30.2175   53.2388 H   0  0  0  0  0  0  0  0  0  0  0  0
   58.3946   30.5878   52.7620 H   0  0  0  0  0  0  0  0  0  0  0  0
   57.4926   30.2056   50.4712 H   0  0  0  0  0  0  0  0  0  0  0  0
   58.7818   30.3232   47.5955 H   0  0  0  0  0  0  0  0  0  0  0  0
   58.5824   27.3985   48.4525 H   0  0  0  0  0  0  0  0  0  0  0  0
   59.2553   30.2959   45.2515 H   0  0  0  0  0  0  0  0  0  0  0  0
   59.2127   32.0552   43.5229 H   0  0  0  0  0  0  0  0  0  0  0  0
   57.6332   32.5957   42.8107 H   0  0  0  0  0  0  0  0  0  0  0  0
   59.2890   32.5130   46.0710 H   0  0  0  0  0  0  0  0  0  0  0  0
   60.4057   34.4585   45.8242 H   0  0  0  0  0  0  0  0  0  0  0  0
   58.8557   35.4135   45.9889 H   0  0  0  0  0  0  0  0  0  0  0  0
   60.7564   35.1405   47.9677 H   0  0  0  0  0  0  0  0  0  0  0  0
   59.0055   35.5387   48.2169 H   0  0  0  0  0  0  0  0  0  0  0  0
   62.3800   34.0585   51.4685 H   0  0  0  0  0  0  0  0  0  0  0  0
   64.8452   33.8591   51.1253 H   0  0  0  0  0  0  0  0  0  0  0  0
   65.7425   32.8472   49.0262 H   0  0  0  0  0  0  0  0  0  0  0  0
   64.1718   32.0313   47.2640 H   0  0  0  0  0  0  0  0  0  0  0  0
   61.7058   32.2243   47.5947 H   0  0  0  0  0  0  0  0  0  0  0  0
   58.6110   31.6857   48.4511 H   0  0  0  0  0  0  0  0  0  0  0  0
   57.6421   32.9656   49.2823 H   0  0  0  0  0  0  0  0  0  0  0  0
   56.9881   32.2480   46.8353 H   0  0  0  0  0  0  0  0  0  0  0  0
   57.0237   33.9953   47.2685 H   0  0  0  0  0  0  0  0  0  0  0  0
   55.5923   31.4435   43.2439 H   0  0  0  0  0  0  0  0  0  0  0  0
   54.4691   29.4038   44.1261 H   0  0  0  0  0  0  0  0  0  0  0  0
   61.4670   29.1761   49.0833 H   0  0  0  0  0  0  0  0  0  0  0  0
  1  2  2  0
  2  3  1  0
  3  4  2  0
  4  5  1  0
  5  6  2  0
  6  7  1  0
  7  8  1  0
  8  9  2  3
  9 10  1  0
 10 11  2  0
 10 12  1  0
 12 13  2  0
 13 14  1  0
 14 15  1  0
 15 16  1  0
 16 17  2  0
 16 18  1  0
 18 19  1  0
 19 20  1  0
 20 21  1  0
 21 22  1  0
 22 23  2  0
 22 24  1  0
 24 25  2  0
 25 26  1  0
 26 27  2  0
 27 28  1  0
 28 29  2  0
 21 30  1  0
 30 31  1  0
 14 32  2  0
 32 33  1  0
 33 34  2  0
 34 35  1  0
  7 36  2  0
 36  3  1  0
 34 12  1  0
 31 18  1  0
 29 24  1  0
  1 37  1  0
  1 38  1  0
  2 39  1  0
  4 40  1  0
  5 41  1  0
  6 42  1  0
  8 43  1  0
  9 44  1  0
 13 45  1  0
 15 46  1  0
 15 47  1  0
 18 48  1  0
 19 49  1  0
 19 50  1  0
 20 51  1  0
 20 52  1  0
 25 53  1  0
 26 54  1  0
 27 55  1  0
 28 56  1  0
 29 57  1  0
 30 58  1  0
 30 59  1  0
 31 60  1  0
 31 61  1  0
 32 62  1  0
 33 63  1  0
 36 64  1  0
M  CHG  2  18   1  35  -1
M  END
>  <UniqueID>  (6) 
6

>  <SMILES>  (6) 
C=Cc1cccc(C=CC(=O)c2cc(CC(=O)[NH+]3CCN(C(=O)c4ccccc4)CC3)ccc2[O-])c1

>  <Energy>  (6) 
94.56186230213017

>  <Genealogy>  (6) 
C=Cc1cccc(C=CC(=O)c2cc(CC(=O)[NH+]3CCN(C(=O)c4ccccc4)CC3)ccc2[O-])c1 (protonated)
C=Cc1cccc(C=CC(=O)c2cc(CC(=O)[NH+]3CCN(C(=O)c4ccccc4)CC3)ccc2[O-])c1 (3D coordinates assigned)
C=Cc1cccc(C=CC(=O)c2cc(CC(=O)[NH+]3CCN(C(=O)c4ccccc4)CC3)ccc2[O-])c1 (nonaromatic ring conformer: 94.56186230213017 kcal/mol)

>  <smiles>  (6) 
C=Cc1cccc(C=CC(=O)c2cc(CC(=O)N3CCN(C(=O)c4ccccc4)CC3)ccc2O)c1

>  <score_type>  (6) 
oracle

>  <origin>  (6) 
adg

>  <m_score__min__energy>  (6) 
-12.390000000000001

>  <m_primary>  (6) 
energy

$$$$
6:0
     RDKit          3D

 43 46  0  0  0  0  0  0  0  0999 V2000
   64.7220   33.0910   48.3480 N   0  0  0  0  0  0  0  0  0  0  0  0
   64.0590   32.3340   49.7530 S   0  0  0  0  0  0  0  0  0  0  0  0
   63.6480   33.3870   50.7440 O   0  0  0  0  0  0  0  0  0  0  0  0
   65.1000   31.4550   50.3880 O   0  0  0  0  0  0  0  0  0  0  0  0
   62.6600   31.3660   49.2970 C   0  0  0  0  0  0  0  0  0  0  0  0
   61.9160   30.6970   50.2780 C   0  0  0  0  0  0  0  0  0  0  0  0
   60.7940   29.9430   49.9190 C   0  0  0  0  0  0  0  0  0  0  0  0
   60.4060   29.8490   48.5720 C   0  0  0  0  0  0  0  0  0  0  0  0
   59.1780   29.0700   48.1850 C   0  0  0  0  0  0  0  0  0  0  0  0
   58.6350   29.5640   46.8730 C   0  0  0  0  0  0  0  0  0  0  0  0
   58.3390   30.8650   46.6400 N   0  0  0  0  0  0  0  0  0  0  0  0
   57.8890   30.9250   45.3750 C   0  0  0  0  0  0  0  0  0  0  0  0
   57.4730   32.0590   44.6730 C   0  0  0  0  0  0  0  0  0  0  0  0
   57.4850   33.7970   45.4700 Br  0  0  0  0  0  0  0  0  0  0  0  0
   57.0410   31.8900   43.3450 C   0  0  0  0  0  0  0  0  0  0  0  0
   57.0340   30.6090   42.7520 C   0  0  0  0  0  0  0  0  0  0  0  0
   57.4580   29.4840   43.4810 C   0  0  0  0  0  0  0  0  0  0  0  0
   57.8810   29.6780   44.7970 C   0  0  0  0  0  0  0  0  0  0  0  0
   58.3480   28.7860   45.7480 C   0  0  0  0  0  0  0  0  0  0  0  0
   58.5340   27.3020   45.5830 C   0  0  0  0  0  0  0  0  0  0  0  0
   57.2850   26.5620   45.9530 C   0  0  0  0  0  0  0  0  0  0  0  0
   57.2720   25.3370   46.5100 N   0  0  0  0  0  0  0  0  0  0  0  0
   55.9550   25.0820   46.6680 C   0  0  0  0  0  0  0  0  0  0  0  0
   55.5280   24.0080   47.1660 O   0  0  0  0  0  0  0  0  0  0  0  0
   55.1310   26.0680   46.2510 N   0  0  0  0  0  0  0  0  0  0  0  0
   55.9900   26.9970   45.8030 C   0  0  0  0  0  0  0  0  0  0  0  0
   55.5970   28.2190   45.2700 O   0  0  0  0  0  0  0  0  0  0  0  0
   61.1440   30.5350   47.5950 C   0  0  0  0  0  0  0  0  0  0  0  0
   62.2650   31.2870   47.9550 C   0  0  0  0  0  0  0  0  0  0  0  0
   64.5210   32.4620   47.5390 H   0  0  0  0  0  0  0  0  0  0  0  0
   65.7600   33.1040   48.4690 H   0  0  0  0  0  0  0  0  0  0  0  0
   62.2154   30.7651   51.3343 H   0  0  0  0  0  0  0  0  0  0  0  0
   60.2132   29.4217   50.6942 H   0  0  0  0  0  0  0  0  0  0  0  0
   59.4388   28.0055   48.0914 H   0  0  0  0  0  0  0  0  0  0  0  0
   58.4109   29.2047   48.9618 H   0  0  0  0  0  0  0  0  0  0  0  0
   58.4490   31.6590   47.3090 H   0  0  0  0  0  0  0  0  0  0  0  0
   56.7062   32.7623   42.7645 H   0  0  0  0  0  0  0  0  0  0  0  0
   56.6945   30.4901   41.7125 H   0  0  0  0  0  0  0  0  0  0  0  0
   57.4564   28.4816   43.0281 H   0  0  0  0  0  0  0  0  0  0  0  0
   58.7838   27.0848   44.5340 H   0  0  0  0  0  0  0  0  0  0  0  0
   59.3468   26.9737   46.2476 H   0  0  0  0  0  0  0  0  0  0  0  0
   60.8380   30.4802   46.5398 H   0  0  0  0  0  0  0  0  0  0  0  0
   62.8395   31.8189   47.1823 H   0  0  0  0  0  0  0  0  0  0  0  0
  1  2  1  0
  2  3  2  0
  2  4  2  0
  2  5  1  0
  5  6  2  0
  6  7  1  0
  7  8  2  0
  8  9  1  0
  9 10  1  0
 10 11  1  0
 11 12  1  0
 12 13  2  0
 13 14  1  0
 13 15  1  0
 15 16  2  0
 16 17  1  0
 17 18  2  0
 18 19  1  0
 19 20  1  0
 20 21  1  0
 21 22  1  0
 22 23  1  0
 23 24  2  0
 23 25  1  0
 25 26  1  0
 26 27  1  0
  8 28  1  0
 28 29  2  0
 29  5  1  0
 19 10  2  0
 26 21  2  0
 18 12  1  0
  1 30  1  0
  1 31  1  0
  6 32  1  0
  7 33  1  0
  9 34  1  0
  9 35  1  0
 11 36  1  0
 15 37  1  0
 16 38  1  0
 17 39  1  0
 20 40  1  0
 20 41  1  0
 28 42  1  0
 29 43  1  0
M  CHG  3  22  -1  25  -1  27  -1
M  END
>  <UniqueID>  (7) 
7

>  <SMILES>  (7) 
NS(=O)(=O)c1ccc(Cc2[nH]c3c(Br)cccc3c2Cc2[n-]c(=O)[n-]c2[O-])cc1

>  <Energy>  (7) 
103.84500354910602

>  <Genealogy>  (7) 
NS(=O)(=O)c1ccc(Cc2[nH]c3c(Br)cccc3c2Cc2[n-]c(=O)[n-]c2[O-])cc1 (protonated)
NS(=O)(=O)c1ccc(Cc2[nH]c3c(Br)cccc3c2Cc2[n-]c(=O)[n-]c2[O-])cc1 (3D coordinates assigned)
NS(=O)(=O)c1ccc(Cc2[nH]c3c(Br)cccc3c2Cc2[n-]c(=O)[n-]c2[O-])cc1 (optimized conformer: 103.84500354910602 kcal/mol)

>  <smiles>  (7) 
NS(=O)(=O)c1ccc(Cc2[nH]c3c(Br)cccc3c2Cc2[nH]c(=O)[nH]c2O)cc1

>  <score_type>  (7) 
oracle

>  <origin>  (7) 
adg

>  <m_score__min__energy>  (7) 
-16.260000000000002

>  <m_primary>  (7) 
energy

$$$$
7:0
     RDKit          3D

 55 57  0  0  0  0  0  0  0  0999 V2000
   58.4910   32.0450   49.1870 C   0  0  0  0  0  0  0  0  0  0  0  0
   58.1630   32.1360   47.8050 O   0  0  0  0  0  0  0  0  0  0  0  0
   58.6340   33.1330   46.9370 C   0  0  0  0  0  0  0  0  0  0  0  0
   59.6960   33.9880   47.2990 C   0  0  0  0  0  0  0  0  0  0  0  0
   60.1530   34.9640   46.4110 C   0  0  0  0  0  0  0  0  0  0  0  0
   59.5740   35.0880   45.1490 C   0  0  0  0  0  0  0  0  0  0  0  0
   58.5240   34.2470   44.7760 C   0  0  0  0  0  0  0  0  0  0  0  0
   58.0290   33.2840   45.6710 C   0  0  0  0  0  0  0  0  0  0  0  0
   56.8900   32.3940   45.2400 C   0  0  0  0  0  0  0  0  0  0  0  0
   57.4110   31.1560   44.6690 N   0  0  0  0  0  0  0  0  0  0  0  0
   56.6160   29.9700   44.5270 C   0  0  0  0  0  0  0  0  0  0  0  0
   55.3680   30.0080   44.7030 O   0  0  0  0  0  0  0  0  0  0  0  0
   57.2740   28.6550   44.2280 C   0  0  0  0  0  0  0  0  0  0  0  0
   57.7290   28.0240   45.4710 N   0  0  0  0  0  0  0  0  0  0  0  0
   58.7190   28.6620   46.2940 C   0  0  0  0  0  0  0  0  0  0  0  0
   59.8020   29.3290   45.7030 C   0  0  0  0  0  0  0  0  0  0  0  0
   60.7840   29.9220   46.4980 C   0  0  0  0  0  0  0  0  0  0  0  0
   60.7000   29.8490   47.9020 C   0  0  0  0  0  0  0  0  0  0  0  0
   61.6840   30.4020   48.7350 O   0  0  0  0  0  0  0  0  0  0  0  0
   62.2740   31.6620   48.5570 C   0  0  0  0  0  0  0  0  0  0  0  0
   61.9770   32.6820   49.4700 C   0  0  0  0  0  0  0  0  0  0  0  0
   62.5420   33.9530   49.3160 C   0  0  0  0  0  0  0  0  0  0  0  0
   63.3930   34.2150   48.2400 C   0  0  0  0  0  0  0  0  0  0  0  0
   63.6750   33.2080   47.3110 C   0  0  0  0  0  0  0  0  0  0  0  0
   63.1170   31.9360   47.4650 C   0  0  0  0  0  0  0  0  0  0  0  0
   59.6320   29.1620   48.4890 C   0  0  0  0  0  0  0  0  0  0  0  0
   58.6440   28.5770   47.6920 C   0  0  0  0  0  0  0  0  0  0  0  0
   57.2150   26.4040   45.8420 S   0  0  0  0  0  0  0  0  0  0  0  0
   57.4600   25.3750   44.4110 C   0  0  0  0  0  0  0  0  0  0  0  0
   58.0070   25.8530   46.9950 O   0  0  0  0  0  0  0  0  0  0  0  0
   55.7570   26.4070   46.2160 O   0  0  0  0  0  0  0  0  0  0  0  0
   57.6052   32.2908   49.7911 H   0  0  0  0  0  0  0  0  0  0  0  0
   58.8206   31.0215   49.4190 H   0  0  0  0  0  0  0  0  0  0  0  0
   59.3008   32.7524   49.4190 H   0  0  0  0  0  0  0  0  0  0  0  0
   60.1674   33.8852   48.2876 H   0  0  0  0  0  0  0  0  0  0  0  0
   60.9715   35.6363   46.7079 H   0  0  0  0  0  0  0  0  0  0  0  0
   59.9447   35.8490   44.4466 H   0  0  0  0  0  0  0  0  0  0  0  0
   58.0808   34.3391   43.7735 H   0  0  0  0  0  0  0  0  0  0  0  0
   56.2630   32.1571   46.1122 H   0  0  0  0  0  0  0  0  0  0  0  0
   56.2909   32.9174   44.4803 H   0  0  0  0  0  0  0  0  0  0  0  0
   58.4420   31.0950   44.5000 H   0  0  0  0  0  0  0  0  0  0  0  0
   56.5524   27.9929   43.7270 H   0  0  0  0  0  0  0  0  0  0  0  0
   58.1413   28.8274   43.5738 H   0  0  0  0  0  0  0  0  0  0  0  0
   59.8779   29.3851   44.6071 H   0  0  0  0  0  0  0  0  0  0  0  0
   61.6268   30.4484   46.0262 H   0  0  0  0  0  0  0  0  0  0  0  0
   61.2969   32.4831   50.3114 H   0  0  0  0  0  0  0  0  0  0  0  0
   62.3156   34.7466   50.0433 H   0  0  0  0  0  0  0  0  0  0  0  0
   63.8412   35.2127   48.1232 H   0  0  0  0  0  0  0  0  0  0  0  0
   64.3370   33.4176   46.4579 H   0  0  0  0  0  0  0  0  0  0  0  0
   63.3376   31.1474   46.7306 H   0  0  0  0  0  0  0  0  0  0  0  0
   59.5694   29.0817   49.5843 H   0  0  0  0  0  0  0  0  0  0  0  0
   57.8032   28.0472   48.1636 H   0  0  0  0  0  0  0  0  0  0  0  0
   57.7036   24.3517   44.7326 H   0  0  0  0  0  0  0  0  0  0  0  0
   56.5402   25.3606   43.8079 H   0  0  0  0  0  0  0  0  0  0  0  0
   58.2876   25.7767   43.8079 H   0  0  0  0  0  0  0  0  0  0  0  0
  1  2  1  0
  2  3  1  0
  3  4  2  0
  4  5  1  0
  5  6  2  0
  6  7  1  0
  7  8  2  0
  8  9  1  0
  9 10  1  0
 10 11  1  0
 11 12  2  0
 11 13  1  0
 13 14  1  0
 14 15  1  0
 15 16  2  0
 16 17  1  0
 17 18  2  0
 18 19  1  0
 19 20  1  0
 20 21  2  0
 21 22  1  0
 22 23  2  0
 23 24  1  0
 24 25  2  0
 18 26  1  0
 26 27  2  0
 14 28  1  0
 28 29  1  0
 28 30  2  0
 28 31  2  0
  8  3  1  0
 27 15  1  0
 25 20  1  0
  1 32  1  0
  1 33  1  0
  1 34  1  0
  4 35  1  0
  5 36  1  0
  6 37  1  0
  7 38  1  0
  9 39  1  0
  9 40  1  0
 10 41  1  0
 13 42  1  0
 13 43  1  0
 16 44  1  0
 17 45  1  0
 21 46  1  0
 22 47  1  0
 23 48  1  0
 24 49  1  0
 25 50  1  0
 26 51  1  0
 27 52  1  0
 29 53  1  0
 29 54  1  0
 29 55  1  0
M  END
>  <UniqueID>  (8) 
8

>  <SMILES>  (8) 
COc1ccccc1CNC(=O)CN(c1ccc(Oc2ccccc2)cc1)S(C)(=O)=O

>  <Energy>  (8) 
54.853407235117515

>  <Genealogy>  (8) 
COc1ccccc1CNC(=O)CN(c1ccc(Oc2ccccc2)cc1)S(C)(=O)=O (3D coordinates assigned)
COc1ccccc1CNC(=O)CN(c1ccc(Oc2ccccc2)cc1)S(C)(=O)=O (optimized conformer: 54.853407235117515 kcal/mol)

>  <smiles>  (8) 
COc1ccccc1CNC(=O)CN(c1ccc(Oc2ccccc2)cc1)S(C)(=O)=O

>  <score_type>  (8) 
oracle

>  <origin>  (8) 
adg

>  <m_score__min__energy>  (8) 
-9.2699999999999996

>  <m_primary>  (8) 
energy

$$$$
8:0
     RDKit          3D

 57 61  0  0  0  0  0  0  0  0999 V2000
   54.8470   21.0680   44.5120 H   0  0  0  0  0  0  0  0  0  0  0  0
   55.8590   20.8550   44.6570 N   0  0  0  0  0  0  0  0  0  0  0  0
   56.7440   21.7870   43.5030 S   0  0  0  0  0  0  0  0  0  0  0  0
   55.9260   21.9430   42.2520 O   0  0  0  0  0  0  0  0  0  0  0  0
   58.0220   21.0750   43.1560 O   0  0  0  0  0  0  0  0  0  0  0  0
   57.1130   23.3710   44.1790 C   0  0  0  0  0  0  0  0  0  0  0  0
   57.2940   23.5200   45.5590 C   0  0  0  0  0  0  0  0  0  0  0  0
   57.2140   22.6441   46.2196 H   0  0  0  0  0  0  0  0  0  0  0  0
   57.5760   24.7770   46.1010 C   0  0  0  0  0  0  0  0  0  0  0  0
   57.7290   24.8810   47.1853 H   0  0  0  0  0  0  0  0  0  0  0  0
   57.6660   25.9100   45.2730 C   0  0  0  0  0  0  0  0  0  0  0  0
   57.9770   27.2350   45.8660 C   0  0  0  0  0  0  0  0  0  0  0  0
   57.4650   28.3600   45.2930 N   0  0  0  0  0  0  0  0  0  0  0  0
   57.6980   29.6080   45.7770 C   0  0  0  0  0  0  0  0  0  0  0  0
   57.1830   30.5960   45.1870 O   0  0  0  0  0  0  0  0  0  0  0  0
   58.5040   29.7860   46.9240 C   0  0  0  0  0  0  0  0  0  0  0  0
   58.7440   31.0870   47.4420 C   0  0  0  0  0  0  0  0  0  0  0  0
   58.2671   31.9277   46.9168 H   0  0  0  0  0  0  0  0  0  0  0  0
   59.5380   31.4040   48.5690 C   0  0  0  0  0  0  0  0  0  0  0  0
   59.6730   33.1450   49.0180 S   0  0  0  0  0  0  0  0  0  0  0  0
   59.1050   33.7100   47.4120 C   0  0  0  0  0  0  0  0  0  0  0  0
   57.7340   33.7540   47.1260 C   0  0  0  0  0  0  0  0  0  0  0  0
   57.0038   33.4377   47.8854 H   0  0  0  0  0  0  0  0  0  0  0  0
   57.2930   34.2000   45.8750 C   0  0  0  0  0  0  0  0  0  0  0  0
   56.2164   34.2367   45.6523 H   0  0  0  0  0  0  0  0  0  0  0  0
   58.2210   34.5990   44.9080 C   0  0  0  0  0  0  0  0  0  0  0  0
   57.8735   34.9542   43.9266 H   0  0  0  0  0  0  0  0  0  0  0  0
   59.5900   34.5470   45.1870 C   0  0  0  0  0  0  0  0  0  0  0  0
   60.3189   34.8568   44.4237 H   0  0  0  0  0  0  0  0  0  0  0  0
   60.0330   34.1010   46.4370 C   0  0  0  0  0  0  0  0  0  0  0  0
   61.1103   34.0572   46.6547 H   0  0  0  0  0  0  0  0  0  0  0  0
   60.2070   30.4390   49.3410 C   0  0  0  0  0  0  0  0  0  0  0  0
   60.9310   30.8110   50.3610 N   0  0  0  0  0  0  0  0  0  0  0  0
   62.1830   30.2820   50.8290 C   0  0  0  0  0  0  0  0  0  0  0  0
   62.2600   29.1510   51.3810 O   0  0  0  0  0  0  0  0  0  0  0  0
   63.4150   31.1190   50.6920 C   0  0  0  0  0  0  0  0  0  0  0  0
   63.5639   31.7024   51.6126 H   0  0  0  0  0  0  0  0  0  0  0  0
   64.2818   30.4631   50.5234 H   0  0  0  0  0  0  0  0  0  0  0  0
   63.2690   32.0570   49.5250 C   0  0  0  0  0  0  0  0  0  0  0  0
   63.0800   33.4320   49.7440 C   0  0  0  0  0  0  0  0  0  0  0  0
   63.0096   33.8190   50.7713 H   0  0  0  0  0  0  0  0  0  0  0  0
   62.9810   34.3110   48.6590 C   0  0  0  0  0  0  0  0  0  0  0  0
   62.8247   35.3857   48.8340 H   0  0  0  0  0  0  0  0  0  0  0  0
   63.0810   33.8220   47.3520 C   0  0  0  0  0  0  0  0  0  0  0  0
   63.0021   34.5127   46.4996 H   0  0  0  0  0  0  0  0  0  0  0  0
   63.2810   32.4570   47.1280 C   0  0  0  0  0  0  0  0  0  0  0  0
   63.3599   32.0749   46.0995 H   0  0  0  0  0  0  0  0  0  0  0  0
   63.3810   31.5760   48.2100 C   0  0  0  0  0  0  0  0  0  0  0  0
   63.5478   30.5036   48.0306 H   0  0  0  0  0  0  0  0  0  0  0  0
   60.0350   28.8170   48.8740 S   0  0  0  0  0  0  0  0  0  0  0  0
   59.0540   28.6320   47.5160 C   0  0  0  0  0  0  0  0  0  0  0  0
   58.7980   27.3620   46.9960 C   0  0  0  0  0  0  0  0  0  0  0  0
   59.2358   26.4699   47.4677 H   0  0  0  0  0  0  0  0  0  0  0  0
   57.4810   25.7520   43.8850 C   0  0  0  0  0  0  0  0  0  0  0  0
   57.5569   26.6258   43.2211 H   0  0  0  0  0  0  0  0  0  0  0  0
   57.2020   24.4940   43.3460 C   0  0  0  0  0  0  0  0  0  0  0  0
   57.0514   24.3844   42.2619 H   0  0  0  0  0  0  0  0  0  0  0  0
  1  2  1  0
  2  3  1  0
  3  4  2  0
  3  5  2  0
  3  6  1  0
  6  7  2  0
  7  8  1  0
  7  9  1  0
  9 10  1  0
  9 11  2  0
 11 12  1  0
 12 13  1  0
 13 14  1  0
 14 15  2  0
 14 16  1  0
 16 17  1  0
 17 18  1  0
 17 19  2  0
 19 20  1  0
 20 21  1  0
 21 22  2  0
 22 23  1  0
 22 24  1  0
 24 25  1  0
 24 26  2  0
 26 27  1  0
 26 28  1  0
 28 29  1  0
 28 30  2  0
 30 31  1  0
 19 32  1  0
 32 33  2  0
 33 34  1  0
 34 35  2  0
 34 36  1  0
 36 37  1  0
 36 38  1  0
 36 39  1  0
 39 40  2  0
 40 41  1  0
 40 42  1  0
 42 43  1  0
 42 44  2  0
 44 45  1  0
 44 46  1  0
 46 47  1  0
 46 48  2  0
 48 49  1  0
 32 50  1  0
 50 51  1  0
 51 52  1  0
 52 53  1  0
 11 54  1  0
 54 55  1  0
 54 56  2  0
 56 57  1  0
 56  6  1  0
 52 12  2  0
 51 16  2  0
 30 21  1  0
 48 39  1  0
M  CHG  2   2  -1  13  -1
M  END
>  <UniqueID>  (9) 
9

>  <SMILES>  (9) 
[NH-]S(=O)(=O)c1ccc(-c2cc3s/c(=N\C(=O)Cc4ccccc4)c(Sc4ccccc4)cc3c(=O)[n-]2)cc1

>  <Energy>  (9) 
72.13451243012688

>  <Genealogy>  (9) 
[NH-]S(=O)(=O)c1ccc(-c2cc3sc(=NC(=O)Cc4ccccc4)c(Sc4ccccc4)cc3c(=O)[n-]2)cc1 (protonated)
[NH-]S(=O)(=O)c1ccc(-c2cc3s/c(=N\C(=O)Cc4ccccc4)c(Sc4ccccc4)cc3c(=O)[n-]2)cc1 (cis-trans isomerization)
[NH-]S(=O)(=O)c1ccc(-c2cc3s/c(=N\C(=O)Cc4ccccc4)c(Sc4ccccc4)cc3c(=O)[n-]2)cc1 (3D coordinates assigned)
[NH-]S(=O)(=O)c1ccc(-c2cc3s/c(=N\C(=O)Cc4ccccc4)c(Sc4ccccc4)cc3c(=O)[n-]2)cc1 (optimized conformer: 72.13451243012688 kcal/mol)

>  <smiles>  (9) 
NS(=O)(=O)c1ccc(-c2cc3sc(=NC(=O)Cc4ccccc4)c(Sc4ccccc4)cc3c(=O)[nH]2)cc1

>  <score_type>  (9) 
oracle

>  <origin>  (9) 
adg

>  <m_score__min__energy>  (9) 
-13.18

>  <m_primary>  (9) 
energy

$$$$
9:0
     RDKit          3D

 71 75  0  0  0  0  0  0  0  0999 V2000
   57.0280   21.0780   42.9320 C   0  0  0  0  0  0  0  0  0  0  0  0
   56.2150   21.9260   43.8200 N   0  0  0  0  0  0  0  0  0  0  0  0
   55.8050   23.1930   43.1750 C   0  0  0  0  0  0  0  0  0  0  0  0
   56.9560   24.2040   43.0650 C   0  0  0  0  0  0  0  0  0  0  0  0
   57.6220   24.3510   44.3610 N   0  0  0  0  0  0  0  0  0  0  0  0
   58.1250   25.6340   44.7850 C   0  0  0  0  0  0  0  0  0  0  0  0
   58.7590   25.7670   46.0470 C   0  0  0  0  0  0  0  0  0  0  0  0
   59.2410   27.0120   46.4850 C   0  0  0  0  0  0  0  0  0  0  0  0
   59.0430   28.1210   45.6600 C   0  0  0  0  0  0  0  0  0  0  0  0
   59.3930   29.4570   45.7990 C   0  0  0  0  0  0  0  0  0  0  0  0
   60.0610   30.1310   46.9310 C   0  0  0  0  0  0  0  0  0  0  0  0
   61.3200   30.1470   46.9710 O   0  0  0  0  0  0  0  0  0  0  0  0
   59.2990   30.8190   47.9920 C   0  0  0  0  0  0  0  0  0  0  0  0
   58.1710   31.3120   47.7220 O   0  0  0  0  0  0  0  0  0  0  0  0
   59.8390   30.9130   49.3210 N   0  0  0  0  0  0  0  0  0  0  0  0
   59.0760   31.3640   50.4530 C   0  0  0  0  0  0  0  0  0  0  0  0
   59.1500   32.6920   50.9040 C   0  0  0  0  0  0  0  0  0  0  0  0
   58.3560   33.1180   51.9720 C   0  0  0  0  0  0  0  0  0  0  0  0
   57.4980   32.2200   52.6100 C   0  0  0  0  0  0  0  0  0  0  0  0
   57.4570   30.8730   52.2150 C   0  0  0  0  0  0  0  0  0  0  0  0
   56.5340   29.9170   52.8690 C   0  0  0  0  0  0  0  0  0  0  0  0
   57.0040   29.0590   53.6650 O   0  0  0  0  0  0  0  0  0  0  0  0
   55.1220   29.9330   52.6070 N   0  0  0  0  0  0  0  0  0  0  0  0
   54.3280   28.7200   52.5240 C   0  0  0  0  0  0  0  0  0  0  0  0
   52.8900   29.1800   52.6970 C   0  0  0  0  0  0  0  0  0  0  0  0
   52.8770   30.6710   52.2850 C   0  0  2  0  0  0  0  0  0  0  0  0
   52.6670   30.9070   50.8240 N   0  0  0  0  0  0  0  0  0  0  0  0
   52.1560   29.7230   50.1030 C   0  0  0  0  0  0  0  0  0  0  0  0
   51.7120   32.0160   50.6190 C   0  0  0  0  0  0  0  0  0  0  0  0
   54.2900   31.1270   52.6890 C   0  0  0  0  0  0  0  0  0  0  0  0
   58.2480   30.4560   51.1290 C   0  0  0  0  0  0  0  0  0  0  0  0
   59.0130   30.0680   44.6070 C   0  0  0  0  0  0  0  0  0  0  0  0
   58.4300   29.1710   43.7780 N   0  0  0  0  0  0  0  0  0  0  0  0
   58.4540   27.9950   44.4270 C   0  0  0  0  0  0  0  0  0  0  0  0
   57.9810   26.7700   43.9570 C   0  0  0  0  0  0  0  0  0  0  0  0
   58.0340   23.1270   45.0540 C   0  0  0  0  0  0  0  0  0  0  0  0
   56.8530   22.1510   45.1340 C   0  0  0  0  0  0  0  0  0  0  0  0
   57.6632   20.4154   43.5382 H   0  0  0  0  0  0  0  0  0  0  0  0
   56.3657   20.4710   42.2972 H   0  0  0  0  0  0  0  0  0  0  0  0
   57.6624   21.7141   42.2972 H   0  0  0  0  0  0  0  0  0  0  0  0
   55.4359   22.9691   42.1633 H   0  0  0  0  0  0  0  0  0  0  0  0
   55.0241   23.6469   43.8028 H   0  0  0  0  0  0  0  0  0  0  0  0
   57.6832   23.8478   42.3205 H   0  0  0  0  0  0  0  0  0  0  0  0
   56.5508   25.1788   42.7557 H   0  0  0  0  0  0  0  0  0  0  0  0
   58.8749   24.8832   46.6916 H   0  0  0  0  0  0  0  0  0  0  0  0
   59.7595   27.1102   47.4502 H   0  0  0  0  0  0  0  0  0  0  0  0
   60.7460   30.4300   49.5160 H   0  0  0  0  0  0  0  0  0  0  0  0
   59.8356   33.3994   50.4146 H   0  0  0  0  0  0  0  0  0  0  0  0
   58.4070   34.1632   52.3109 H   0  0  0  0  0  0  0  0  0  0  0  0
   56.8501   32.5699   53.4272 H   0  0  0  0  0  0  0  0  0  0  0  0
   54.4639   28.2348   51.5462 H   0  0  0  0  0  0  0  0  0  0  0  0
   54.6204   27.9814   53.2849 H   0  0  0  0  0  0  0  0  0  0  0  0
   52.2197   28.5967   52.0485 H   0  0  0  0  0  0  0  0  0  0  0  0
   52.5399   29.0405   53.7304 H   0  0  0  0  0  0  0  0  0  0  0  0
   52.0444   31.2107   52.7600 H   0  0  0  0  0  0  0  0  0  0  0  0
   51.8286   28.9645   50.8293 H   0  0  0  0  0  0  0  0  0  0  0  0
   51.3048   30.0174   49.4715 H   0  0  0  0  0  0  0  0  0  0  0  0
   52.9541   29.3056   49.4715 H   0  0  0  0  0  0  0  0  0  0  0  0
   51.3812   32.4002   51.5952 H   0  0  0  0  0  0  0  0  0  0  0  0
   52.2026   32.8227   50.0546 H   0  0  0  0  0  0  0  0  0  0  0  0
   50.8414   31.6506   50.0546 H   0  0  0  0  0  0  0  0  0  0  0  0
   54.6571   31.8998   51.9976 H   0  0  0  0  0  0  0  0  0  0  0  0
   54.3046   31.5665   53.6973 H   0  0  0  0  0  0  0  0  0  0  0  0
   58.2167   29.4049   50.8061 H   0  0  0  0  0  0  0  0  0  0  0  0
   59.1654   31.1317   44.3718 H   0  0  0  0  0  0  0  0  0  0  0  0
   58.0530   29.3570   42.8210 H   0  0  0  0  0  0  0  0  0  0  0  0
   57.5080   26.6902   42.9671 H   0  0  0  0  0  0  0  0  0  0  0  0
   58.8603   22.6555   44.5019 H   0  0  0  0  0  0  0  0  0  0  0  0
   58.3647   23.3804   46.0721 H   0  0  0  0  0  0  0  0  0  0  0  0
   57.2173   21.1871   45.5190 H   0  0  0  0  0  0  0  0  0  0  0  0
   56.0982   22.5934   45.8008 H   0  0  0  0  0  0  0  0  0  0  0  0
  1  2  1  0
  2  3  1  0
  3  4  1  0
  4  5  1  0
  5  6  1  0
  6  7  2  0
  7  8  1  0
  8  9  2  0
  9 10  1  0
 10 11  1  0
 11 12  2  0
 11 13  1  0
 13 14  2  0
 13 15  1  0
 15 16  1  0
 16 17  2  0
 17 18  1  0
 18 19  2  0
 19 20  1  0
 20 21  1  0
 21 22  2  0
 21 23  1  0
 23 24  1  0
 24 25  1  0
 25 26  1  0
 26 27  1  0
 27 28  1  0
 27 29  1  0
 26 30  1  0
 20 31  2  0
 10 32  2  0
 32 33  1  0
 33 34  1  0
 34 35  2  0
  5 36  1  0
 36 37  1  0
 37  2  1  0
 35  6  1  0
 34  9  1  0
 31 16  1  0
 30 23  1  0
  1 38  1  0
  1 39  1  0
  1 40  1  0
  3 41  1  0
  3 42  1  0
  4 43  1  0
  4 44  1  0
  7 45  1  0
  8 46  1  0
 15 47  1  0
 17 48  1  0
 18 49  1  0
 19 50  1  0
 24 51  1  0
 24 52  1  0
 25 53  1  0
 25 54  1  0
 26 55  1  1
 28 56  1  0
 28 57  1  0
 28 58  1  0
 29 59  1  0
 29 60  1  0
 29 61  1  0
 30 62  1  0
 30 63  1  0
 31 64  1  0
 32 65  1  0
 33 66  1  0
 35 67  1  0
 36 68  1  0
 36 69  1  0
 37 70  1  0
 37 71  1  0
M  END
>  <UniqueID>  (10) 
10

>  <SMILES>  (10) 
CN1CCN(c2ccc3c(C(=O)C(=O)Nc4cccc(C(=O)N5CC[C@H](N(C)C)C5)c4)c[nH]c3c2)CC1

>  <Energy>  (10) 
136.5448270488368

>  <Genealogy>  (10) 
CN1CCN(c2ccc3c(C(=O)C(=O)Nc4cccc(C(=O)N5CC[C@H](N(C)C)C5)c4)c[nH]c3c2)CC1 (chirality)
CN1CCN(c2ccc3c(C(=O)C(=O)Nc4cccc(C(=O)N5CC[C@H](N(C)C)C5)c4)c[nH]c3c2)CC1 (3D coordinates assigned)
CN1CCN(c2ccc3c(C(=O)C(=O)Nc4cccc(C(=O)N5CC[C@H](N(C)C)C5)c4)c[nH]c3c2)CC1 (nonaromatic ring conformer: 136.5448270488368 kcal/mol)

>  <smiles>  (10) 
CN1CCN(c2ccc3c(C(=O)C(=O)Nc4cccc(C(=O)N5CCC(N(C)C)C5)c4)c[nH]c3c2)CC1

>  <score_type>  (10) 
oracle

>  <origin>  (10) 
adg

>  <m_score__min__energy>  (10) 
-10.890000000000001

>  <m_primary>  (10) 
energy

$$$$
10:0
     RDKit          3D

 38 40  0  0  0  0  0  0  0  0999 V2000
   54.3305   29.5078   55.8624 H   0  0  0  0  0  0  0  0  0  0  0  0
   53.7160   29.6550   54.9620 C   0  0  0  0  0  0  0  0  0  0  0  0
   52.6337   29.4614   54.9971 H   0  0  0  0  0  0  0  0  0  0  0  0
   54.2870   30.0710   53.8200 C   0  0  0  0  0  0  0  0  0  0  0  0
   53.6490   30.3060   52.5910 C   0  0  0  0  0  0  0  0  0  0  0  0
   52.3420   30.3850   52.2730 C   0  0  0  0  0  0  0  0  0  0  0  0
   51.6176   30.0944   53.0481 H   0  0  0  0  0  0  0  0  0  0  0  0
   51.8000   30.8270   50.9770 C   0  0  0  0  0  0  0  0  0  0  0  0
   51.6910   30.0470   49.8850 N   0  0  0  0  0  0  0  0  0  0  0  0
   51.0190   30.8270   49.0100 C   0  0  0  0  0  0  0  0  0  0  0  0
   50.7330   30.4480   47.8460 O   0  0  0  0  0  0  0  0  0  0  0  0
   50.6690   32.0410   49.4870 N   0  0  0  0  0  0  0  0  0  0  0  0
   51.1570   32.0160   50.7380 C   0  0  0  0  0  0  0  0  0  0  0  0
   51.0150   33.0600   51.6440 O   0  0  0  0  0  0  0  0  0  0  0  0
   54.6580   30.4840   51.6600 C   0  0  0  0  0  0  0  0  0  0  0  0
   54.5307   30.6551   50.5809 H   0  0  0  0  0  0  0  0  0  0  0  0
   55.8520   30.4060   52.3430 C   0  0  0  0  0  0  0  0  0  0  0  0
   57.1740   30.5620   51.7070 C   0  0  0  0  0  0  0  0  0  0  0  0
   57.8060   29.5260   51.3670 O   0  0  0  0  0  0  0  0  0  0  0  0
   57.7730   31.8590   51.5180 N   0  0  0  0  0  0  0  0  0  0  0  0
   57.4100   33.0010   52.3650 C   0  0  0  0  0  0  0  0  0  0  0  0
   56.6568   33.6149   51.8494 H   0  0  0  0  0  0  0  0  0  0  0  0
   56.9966   32.6346   53.3162 H   0  0  0  0  0  0  0  0  0  0  0  0
   58.6550   33.8480   52.6430 C   0  0  0  0  0  0  0  0  0  0  0  0
   58.3569   34.7647   53.1730 H   0  0  0  0  0  0  0  0  0  0  0  0
   59.3519   33.2602   53.2585 H   0  0  0  0  0  0  0  0  0  0  0  0
   59.3020   34.2000   51.4340 O   0  0  0  0  0  0  0  0  0  0  0  0
   59.8020   33.0360   50.8020 C   0  0  0  0  0  0  0  0  0  0  0  0
   60.3797   33.3285   49.9128 H   0  0  0  0  0  0  0  0  0  0  0  0
   60.4426   32.4958   51.5146 H   0  0  0  0  0  0  0  0  0  0  0  0
   58.6560   32.1130   50.3750 C   0  0  0  0  0  0  0  0  0  0  0  0
   58.0815   32.5925   49.5688 H   0  0  0  0  0  0  0  0  0  0  0  0
   59.0709   31.1594   50.0166 H   0  0  0  0  0  0  0  0  0  0  0  0
   55.6300   30.1830   53.6600 N   0  0  0  0  0  0  0  0  0  0  0  0
   56.6440   30.0940   54.7170 C   0  0  0  0  0  0  0  0  0  0  0  0
   56.1532   30.1371   55.7005 H   0  0  0  0  0  0  0  0  0  0  0  0
   57.1909   29.1444   54.6214 H   0  0  0  0  0  0  0  0  0  0  0  0
   57.3480   30.9338   54.6214 H   0  0  0  0  0  0  0  0  0  0  0  0
  1  2  1  0
  2  3  1  0
  2  4  2  0
  4  5  1  0
  5  6  2  0
  6  7  1  0
  6  8  1  0
  8  9  1  0
  9 10  1  0
 10 11  2  0
 10 12  1  0
 12 13  1  0
 13 14  1  0
  5 15  1  0
 15 16  1  0
 15 17  2  0
 17 18  1  0
 18 19  2  0
 18 20  1  0
 20 21  1  0
 21 22  1  0
 21 23  1  0
 21 24  1  0
 24 25  1  0
 24 26  1  0
 24 27  1  0
 27 28  1  0
 28 29  1  0
 28 30  1  0
 28 31  1  0
 31 32  1  0
 31 33  1  0
 17 34  1  0
 34 35  1  0
 35 36  1  0
 35 37  1  0
 35 38  1  0
 34  4  1  0
 13  8  2  0
 31 20  1  0
M  CHG  3   9  -1  12  -1  14  -1
M  END
>  <UniqueID>  (11) 
11

>  <SMILES>  (11) 
C=c1/c(=C\c2[n-]c(=O)[n-]c2[O-])cc(C(=O)N2CCOCC2)n1C

>  <Energy>  (11) 
115.82229204998531

>  <Genealogy>  (11) 
C=c1c(=Cc2[n-]c(=O)[n-]c2[O-])cc(C(=O)N2CCOCC2)n1C (protonated)
C=c1/c(=C\c2[n-]c(=O)[n-]c2[O-])cc(C(=O)N2CCOCC2)n1C (cis-trans isomerization)
C=c1/c(=C\c2[n-]c(=O)[n-]c2[O-])cc(C(=O)N2CCOCC2)n1C (3D coordinates assigned)
C=c1/c(=C\c2[n-]c(=O)[n-]c2[O-])cc(C(=O)N2CCOCC2)n1C (nonaromatic ring conformer: 115.82229204998531 kcal/mol)

>  <smiles>  (11) 
C=c1c(=Cc2[nH]c(=O)[nH]c2O)cc(C(=O)N2CCOCC2)n1C

>  <score_type>  (11) 
oracle

>  <origin>  (11) 
adg

>  <m_score__min__energy>  (11) 
-16.77

>  <m_primary>  (11) 
energy

$$$$
11:0
     RDKit          3D

 38 40  0  0  0  0  0  0  0  0999 V2000
   55.1450   27.5000   45.4000 H   0  0  0  0  0  0  0  0  0  0  0  0
   55.0140   26.6930   45.9960 O   0  0  0  0  0  0  0  0  0  0  0  0
   56.0520   25.8120   46.2900 C   0  0  0  0  0  0  0  0  0  0  0  0
   55.9000   24.7550   47.1030 N   0  0  0  0  0  0  0  0  0  0  0  0
   57.1040   24.1490   47.0400 C   0  0  0  0  0  0  0  0  0  0  0  0
   57.3670   23.0940   47.6750 O   0  0  0  0  0  0  0  0  0  0  0  0
   58.0030   24.7610   46.2420 N   0  0  0  0  0  0  0  0  0  0  0  0
   57.3370   25.8320   45.7770 C   0  0  0  0  0  0  0  0  0  0  0  0
   57.9490   26.8130   44.8670 C   0  0  0  0  0  0  0  0  0  0  0  0
   58.8697   26.5357   44.3328 H   0  0  0  0  0  0  0  0  0  0  0  0
   57.4300   28.0280   44.6640 C   0  0  0  0  0  0  0  0  0  0  0  0
   57.0123   28.5822   45.5174 H   0  0  0  0  0  0  0  0  0  0  0  0
   57.4030   28.6550   43.3000 C   0  0  0  0  0  0  0  0  0  0  0  0
   57.0327   27.9140   42.5762 H   0  0  0  0  0  0  0  0  0  0  0  0
   58.4260   28.9760   43.0544 H   0  0  0  0  0  0  0  0  0  0  0  0
   56.4960   29.8900   43.2510 C   0  0  0  0  0  0  0  0  0  0  0  0
   55.5510   29.6644   43.7669 H   0  0  0  0  0  0  0  0  0  0  0  0
   56.3052   30.1464   42.1985 H   0  0  0  0  0  0  0  0  0  0  0  0
   57.1360   31.0270   43.9010 N   0  0  0  0  0  0  0  0  0  0  0  0
   57.5950   32.0900   43.2620 N   0  0  0  0  0  0  0  0  0  0  0  0
   58.1660   32.9010   44.1380 N   0  0  0  0  0  0  0  0  0  0  0  0
   58.0380   32.2770   45.3290 C   0  0  0  0  0  0  0  0  0  0  0  0
   58.5410   32.8110   46.6110 C   0  0  0  0  0  0  0  0  0  0  0  0
   59.0400   34.1220   46.6900 C   0  0  0  0  0  0  0  0  0  0  0  0
   59.0555   34.7552   45.7906 H   0  0  0  0  0  0  0  0  0  0  0  0
   59.5170   34.6280   47.9030 C   0  0  0  0  0  0  0  0  0  0  0  0
   59.9049   35.6561   47.9528 H   0  0  0  0  0  0  0  0  0  0  0  0
   59.5030   33.8280   49.0600 C   0  0  0  0  0  0  0  0  0  0  0  0
   59.9700   34.2890   50.3000 O   0  0  0  0  0  0  0  0  0  0  0  0
   59.4970   33.8210   51.5590 C   0  0  0  0  0  0  0  0  0  0  0  0
   60.0270   34.3454   52.3678 H   0  0  0  0  0  0  0  0  0  0  0  0
   58.4176   34.0165   51.6409 H   0  0  0  0  0  0  0  0  0  0  0  0
   59.6810   32.7396   51.6409 H   0  0  0  0  0  0  0  0  0  0  0  0
   59.0060   32.5230   48.9800 C   0  0  0  0  0  0  0  0  0  0  0  0
   58.9906   31.8899   49.8794 H   0  0  0  0  0  0  0  0  0  0  0  0
   58.5290   32.0160   47.7690 C   0  0  0  0  0  0  0  0  0  0  0  0
   58.1415   30.9876   47.7219 H   0  0  0  0  0  0  0  0  0  0  0  0
   57.3990   31.0960   45.1940 N   0  0  0  0  0  0  0  0  0  0  0  0
  1  2  1  0
  2  3  1  0
  3  4  1  0
  4  5  1  0
  5  6  2  0
  5  7  1  0
  7  8  1  0
  8  9  1  0
  9 10  1  0
  9 11  2  0
 11 12  1  0
 11 13  1  0
 13 14  1  0
 13 15  1  0
 13 16  1  0
 16 17  1  0
 16 18  1  0
 16 19  1  0
 19 20  1  0
 20 21  2  0
 21 22  1  0
 22 23  1  0
 23 24  2  0
 24 25  1  0
 24 26  1  0
 26 27  1  0
 26 28  2  0
 28 29  1  0
 29 30  1  0
 30 31  1  0
 30 32  1  0
 30 33  1  0
 28 34  1  0
 34 35  1  0
 34 36  2  0
 36 37  1  0
 22 38  2  0
  8  3  2  0
 38 19  1  0
 36 23  1  0
M  CHG  2   4  -1   7  -1
M  END
>  <UniqueID>  (12) 
12

>  <SMILES>  (12) 
COc1ccc(-c2nnn(CC/C=C/c3[n-]c(=O)[n-]c3O)n2)cc1

>  <Energy>  (12) 
105.42698852285068

>  <Genealogy>  (12) 
COc1ccc(-c2nnn(CCC=Cc3[n-]c(=O)[n-]c3O)n2)cc1 (protonated)
COc1ccc(-c2nnn(CC/C=C/c3[n-]c(=O)[n-]c3O)n2)cc1 (cis-trans isomerization)
COc1ccc(-c2nnn(CC/C=C/c3[n-]c(=O)[n-]c3O)n2)cc1 (3D coordinates assigned)
COc1ccc(-c2nnn(CC/C=C/c3[n-]c(=O)[n-]c3O)n2)cc1 (optimized conformer: 105.42698852285068 kcal/mol)

>  <smiles>  (12) 
COc1ccc(-c2nnn(CCC=Cc3[nH]c(=O)[nH]c3O)n2)cc1

>  <score_type>  (12) 
oracle

>  <origin>  (12) 
adg

>  <m_score__min__energy>  (12) 
-12.43

>  <m_primary>  (12) 
energy

$$$$
12:0
     RDKit          3D

 45 47  0  0  0  0  0  0  0  0999 V2000
   63.2280   33.2740   49.1870 C   0  0  0  0  0  0  0  0  0  0  0  0
   62.7690   32.9890   47.4890 S   0  0  0  0  0  0  0  0  0  0  0  0
   63.0210   31.5470   47.1470 O   0  0  0  0  0  0  0  0  0  0  0  0
   63.6330   33.8640   46.6240 O   0  0  0  0  0  0  0  0  0  0  0  0
   61.0700   33.3690   47.1910 C   0  0  0  0  0  0  0  0  0  0  0  0
   60.3770   32.7590   46.1330 C   0  0  0  0  0  0  0  0  0  0  0  0
   59.0260   33.0660   45.8870 C   0  0  0  0  0  0  0  0  0  0  0  0
   58.2960   32.4150   44.7690 C   0  0  0  0  0  0  0  0  0  0  0  0
   58.4610   32.8590   43.4460 C   0  0  0  0  0  0  0  0  0  0  0  0
   57.7930   32.2510   42.4300 N   0  0  0  0  0  0  0  0  0  0  0  0
   56.9420   31.2160   42.6490 C   0  0  0  0  0  0  0  0  0  0  0  0
   56.7240   30.7450   43.9500 C   0  0  0  0  0  0  0  0  0  0  0  0
   55.8070   29.6190   44.2070 C   0  0  0  0  0  0  0  0  0  0  0  0
   54.7850   29.4870   43.4850 O   0  0  0  0  0  0  0  0  0  0  0  0
   56.0560   28.6530   45.2370 N   0  0  0  0  0  0  0  0  0  0  0  0
   57.0810   27.6090   45.2030 C   0  0  1  0  0  0  0  0  0  0  0  0
   58.0590   27.8910   44.0450 C   0  0  0  0  0  0  0  0  0  0  0  0
   59.2430   28.7390   44.5120 C   0  0  0  0  0  0  0  0  0  0  0  0
   60.0140   28.0460   45.6570 C   0  0  0  0  0  0  0  0  0  0  0  0
   59.1990   27.0770   46.4160 N   0  0  0  0  0  0  0  0  0  0  0  0
   57.8110   27.5310   46.5680 C   0  0  0  0  0  0  0  0  0  0  0  0
   57.4230   31.3400   45.0080 C   0  0  0  0  0  0  0  0  0  0  0  0
   58.3780   34.0010   46.7120 C   0  0  0  0  0  0  0  0  0  0  0  0
   59.0670   34.6160   47.7590 C   0  0  0  0  0  0  0  0  0  0  0  0
   60.4080   34.3070   47.9990 C   0  0  0  0  0  0  0  0  0  0  0  0
   61.0600   34.9280   49.0140 F   0  0  0  0  0  0  0  0  0  0  0  0
   62.4829   32.8113   49.8509 H   0  0  0  0  0  0  0  0  0  0  0  0
   64.2160   32.8303   49.3792 H   0  0  0  0  0  0  0  0  0  0  0  0
   63.2685   34.3563   49.3792 H   0  0  0  0  0  0  0  0  0  0  0  0
   60.8959   32.0333   45.4895 H   0  0  0  0  0  0  0  0  0  0  0  0
   59.1338   33.7024   43.2315 H   0  0  0  0  0  0  0  0  0  0  0  0
   56.4218   30.7456   41.8016 H   0  0  0  0  0  0  0  0  0  0  0  0
   56.6122   26.6297   45.0261 H   0  0  0  0  0  0  0  0  0  0  0  0
   58.4356   26.9347   43.6530 H   0  0  0  0  0  0  0  0  0  0  0  0
   57.5206   28.4469   43.2632 H   0  0  0  0  0  0  0  0  0  0  0  0
   59.9263   28.8975   43.6647 H   0  0  0  0  0  0  0  0  0  0  0  0
   58.8563   29.6987   44.8855 H   0  0  0  0  0  0  0  0  0  0  0  0
   60.8743   27.5139   45.2249 H   0  0  0  0  0  0  0  0  0  0  0  0
   60.3202   28.8326   46.3623 H   0  0  0  0  0  0  0  0  0  0  0  0
   59.2000   26.1570   45.9150 H   0  0  0  0  0  0  0  0  0  0  0  0
   57.2744   26.8255   47.2195 H   0  0  0  0  0  0  0  0  0  0  0  0
   57.8261   28.5394   47.0071 H   0  0  0  0  0  0  0  0  0  0  0  0
   57.2877   30.9634   46.0326 H   0  0  0  0  0  0  0  0  0  0  0  0
   57.3218   34.2498   46.5318 H   0  0  0  0  0  0  0  0  0  0  0  0
   58.5512   35.3477   48.3982 H   0  0  0  0  0  0  0  0  0  0  0  0
  1  2  1  0
  2  3  2  0
  2  4  2  0
  2  5  1  0
  5  6  2  0
  6  7  1  0
  7  8  1  0
  8  9  2  0
  9 10  1  0
 10 11  2  0
 11 12  1  0
 12 13  1  0
 13 14  2  0
 13 15  1  0
 15 16  1  0
 16 17  1  0
 17 18  1  0
 18 19  1  0
 19 20  1  0
 20 21  1  0
 12 22  2  0
  7 23  2  0
 23 24  1  0
 24 25  2  0
 25 26  1  0
 25  5  1  0
 22  8  1  0
 21 16  1  0
  1 27  1  0
  1 28  1  0
  1 29  1  0
  6 30  1  0
  9 31  1  0
 11 32  1  0
 16 33  1  6
 17 34  1  0
 17 35  1  0
 18 36  1  0
 18 37  1  0
 19 38  1  0
 19 39  1  0
 20 40  1  0
 21 41  1  0
 21 42  1  0
 22 43  1  0
 23 44  1  0
 24 45  1  0
M  CHG  1  15  -1
M  END
>  <UniqueID>  (13) 
13

>  <SMILES>  (13) 
CS(=O)(=O)c1cc(-c2cncc(C(=O)[N-][C@H]3CCCNC3)c2)ccc1F

>  <Energy>  (13) 
59.093411916970275

>  <Genealogy>  (13) 
CS(=O)(=O)c1cc(-c2cncc(C(=O)[N-]C3CCCNC3)c2)ccc1F (protonated)
CS(=O)(=O)c1cc(-c2cncc(C(=O)[N-][C@H]3CCCNC3)c2)ccc1F (chirality)
CS(=O)(=O)c1cc(-c2cncc(C(=O)[N-][C@H]3CCCNC3)c2)ccc1F (3D coordinates assigned)
CS(=O)(=O)c1cc(-c2cncc(C(=O)[N-][C@H]3CCCNC3)c2)ccc1F (nonaromatic ring conformer: 59.093411916970275 kcal/mol)

>  <smiles>  (13) 
CS(=O)(=O)c1cc(-c2cncc(C(=O)NC3CCCNC3)c2)ccc1F

>  <score_type>  (13) 
oracle

>  <origin>  (13) 
adg

>  <m_score__min__energy>  (13) 
-11.18

>  <m_primary>  (13) 
energy

$$$$
13:0
     RDKit          3D

 47 48  0  0  0  0  0  0  0  0999 V2000
   59.2310   34.4510   44.8990 C   0  0  0  0  0  0  0  0  0  0  0  0
   58.3620   33.4320   44.8120 C   0  0  0  0  0  0  0  0  0  0  0  0
   58.1120   32.7900   43.4740 C   0  0  0  0  0  0  0  0  0  0  0  0
   57.6840   32.9000   46.0520 C   0  0  0  0  0  0  0  0  0  0  0  0
   58.1680   31.5150   46.4070 C   0  0  0  0  0  0  0  0  0  0  0  0
   57.8080   30.3840   45.7030 C   0  0  0  0  0  0  0  0  0  0  0  0
   58.4980   29.3230   46.2640 C   0  0  0  0  0  0  0  0  0  0  0  0
   58.4620   28.0420   45.8480 C   0  0  0  0  0  0  0  0  0  0  0  0
   57.2790   27.1710   45.9620 C   0  0  0  0  0  0  0  0  0  0  0  0
   57.3100   25.9590   46.5440 N   0  0  0  0  0  0  0  0  0  0  0  0
   56.0200   25.5600   46.5090 C   0  0  0  0  0  0  0  0  0  0  0  0
   55.6410   24.4470   46.9570 O   0  0  0  0  0  0  0  0  0  0  0  0
   55.1660   26.4530   45.9630 N   0  0  0  0  0  0  0  0  0  0  0  0
   55.9750   27.4720   45.6340 C   0  0  0  0  0  0  0  0  0  0  0  0
   55.5220   28.6690   45.0910 O   0  0  0  0  0  0  0  0  0  0  0  0
   59.2750   29.8620   47.2960 C   0  0  0  0  0  0  0  0  0  0  0  0
   60.1270   29.1750   48.0750 C   0  0  0  0  0  0  0  0  0  0  0  0
   59.0500   31.2020   47.3910 N   0  0  0  0  0  0  0  0  0  0  0  0
   59.6180   32.1440   48.3750 C   0  0  0  0  0  0  0  0  0  0  0  0
   60.7960   32.9410   47.7910 C   0  0  0  0  0  0  0  0  0  0  0  0
   61.8810   32.0420   47.1620 C   0  0  0  0  0  0  0  0  0  0  0  0
   63.2400   32.6290   47.1760 N   0  0  0  0  0  0  0  0  0  0  0  0
   63.3370   33.8790   46.4060 C   0  0  0  0  0  0  0  0  0  0  0  0
   63.7810   32.7960   48.5340 C   0  0  0  0  0  0  0  0  0  0  0  0
   59.4227   34.9289   45.8710 H   0  0  0  0  0  0  0  0  0  0  0  0
   59.7516   34.8083   43.9983 H   0  0  0  0  0  0  0  0  0  0  0  0
   57.7165   31.7744   43.6228 H   0  0  0  0  0  0  0  0  0  0  0  0
   57.3814   33.3891   42.9106 H   0  0  0  0  0  0  0  0  0  0  0  0
   59.0553   32.7373   42.9106 H   0  0  0  0  0  0  0  0  0  0  0  0
   57.8967   33.5774   46.8922 H   0  0  0  0  0  0  0  0  0  0  0  0
   56.6037   32.8433   45.8525 H   0  0  0  0  0  0  0  0  0  0  0  0
   57.1064   30.3349   44.8572 H   0  0  0  0  0  0  0  0  0  0  0  0
   59.3717   27.6205   45.3954 H   0  0  0  0  0  0  0  0  0  0  0  0
   60.6933   29.6944   48.8621 H   0  0  0  0  0  0  0  0  0  0  0  0
   60.2583   28.0931   47.9258 H   0  0  0  0  0  0  0  0  0  0  0  0
   58.8327   32.8478   48.6881 H   0  0  0  0  0  0  0  0  0  0  0  0
   59.9911   31.5607   49.2298 H   0  0  0  0  0  0  0  0  0  0  0  0
   60.4100   33.6190   47.0155 H   0  0  0  0  0  0  0  0  0  0  0  0
   61.2648   33.4899   48.6210 H   0  0  0  0  0  0  0  0  0  0  0  0
   61.9091   31.0941   47.7195 H   0  0  0  0  0  0  0  0  0  0  0  0
   61.6061   31.9077   46.1054 H   0  0  0  0  0  0  0  0  0  0  0  0
   63.4032   34.7316   47.0978 H   0  0  0  0  0  0  0  0  0  0  0  0
   64.2356   33.8505   45.7722 H   0  0  0  0  0  0  0  0  0  0  0  0
   62.4447   33.9894   45.7722 H   0  0  0  0  0  0  0  0  0  0  0  0
   63.0012   32.5553   49.2715 H   0  0  0  0  0  0  0  0  0  0  0  0
   64.6381   32.1206   48.6729 H   0  0  0  0  0  0  0  0  0  0  0  0
   64.1082   33.8370   48.6729 H   0  0  0  0  0  0  0  0  0  0  0  0
  1  2  2  0
  2  3  1  0
  2  4  1  0
  4  5  1  0
  5  6  2  0
  6  7  1  0
  7  8  2  3
  8  9  1  0
  9 10  1  0
 10 11  1  0
 11 12  2  0
 11 13  1  0
 13 14  1  0
 14 15  1  0
  7 16  1  0
 16 17  2  0
 16 18  1  0
 18 19  1  0
 19 20  1  0
 20 21  1  0
 21 22  1  0
 22 23  1  0
 22 24  1  0
 18  5  1  0
 14  9  2  0
  1 25  1  0
  1 26  1  0
  3 27  1  0
  3 28  1  0
  3 29  1  0
  4 30  1  0
  4 31  1  0
  6 32  1  0
  8 33  1  0
 17 34  1  0
 17 35  1  0
 19 36  1  0
 19 37  1  0
 20 38  1  0
 20 39  1  0
 21 40  1  0
 21 41  1  0
 23 42  1  0
 23 43  1  0
 23 44  1  0
 24 45  1  0
 24 46  1  0
 24 47  1  0
M  CHG  3  10  -1  13  -1  15  -1
M  END
>  <UniqueID>  (14) 
14

>  <SMILES>  (14) 
C=C(C)Cc1cc(=Cc2[n-]c(=O)[n-]c2[O-])c(=C)n1CCCN(C)C

>  <Energy>  (14) 
106.69811362792032

>  <Genealogy>  (14) 
C=C(C)Cc1cc(=Cc2[n-]c(=O)[n-]c2[O-])c(=C)n1CCCN(C)C (protonated)
C=C(C)Cc1cc(=Cc2[n-]c(=O)[n-]c2[O-])c(=C)n1CCCN(C)C (3D coordinates assigned)
C=C(C)Cc1cc(=Cc2[n-]c(=O)[n-]c2[O-])c(=C)n1CCCN(C)C (optimized conformer: 106.69811362792032 kcal/mol)

>  <smiles>  (14) 
C=C(C)Cc1cc(=Cc2[nH]c(=O)[nH]c2O)c(=C)n1CCCN(C)C

>  <score_type>  (14) 
oracle

>  <origin>  (14) 
adg

>  <m_score__min__energy>  (14) 
-14.75

>  <m_primary>  (14) 
energy

$$$$
14:0
     RDKit          3D

 42 44  0  0  0  0  0  0  0  0999 V2000
   60.4853   34.7510   48.9328 H   0  0  0  0  0  0  0  0  0  0  0  0
   59.8640   34.0020   48.4200 C   0  0  0  0  0  0  0  0  0  0  0  0
   59.6070   32.7770   49.0360 C   0  0  0  0  0  0  0  0  0  0  0  0
   60.0288   32.5633   50.0292 H   0  0  0  0  0  0  0  0  0  0  0  0
   58.8130   31.8180   48.3930 C   0  0  0  0  0  0  0  0  0  0  0  0
   58.5530   30.4840   49.0380 C   0  0  0  0  0  0  0  0  0  0  0  0
   57.5158   30.4531   49.4030 H   0  0  0  0  0  0  0  0  0  0  0  0
   59.2512   30.3494   49.8773 H   0  0  0  0  0  0  0  0  0  0  0  0
   58.7570   29.4050   48.0700 N   0  0  0  0  0  0  0  0  0  0  0  0
   59.6980   28.4310   48.1140 C   0  0  0  0  0  0  0  0  0  0  0  0
   60.7370   28.2770   49.1830 C   0  0  0  0  0  0  0  0  0  0  0  0
   60.2594   28.3478   50.1714 H   0  0  0  0  0  0  0  0  0  0  0  0
   61.2254   27.2967   49.0811 H   0  0  0  0  0  0  0  0  0  0  0  0
   61.4888   29.0735   49.0811 H   0  0  0  0  0  0  0  0  0  0  0  0
   59.6260   27.6990   46.9390 C   0  0  0  0  0  0  0  0  0  0  0  0
   60.7680   26.2700   46.3760 Br  0  0  0  0  0  0  0  0  0  0  0  0
   58.5920   28.2750   46.2250 C   0  0  0  0  0  0  0  0  0  0  0  0
   58.1650   27.9190   44.8370 C   0  0  0  0  0  0  0  0  0  0  0  0
   57.3208   27.2152   44.8822 H   0  0  0  0  0  0  0  0  0  0  0  0
   57.8549   28.8298   44.3038 H   0  0  0  0  0  0  0  0  0  0  0  0
   59.0052   27.4501   44.3038 H   0  0  0  0  0  0  0  0  0  0  0  0
   58.0970   29.3120   46.9260 N   0  0  0  0  0  0  0  0  0  0  0  0
   57.3440   29.9660   46.6160 H   0  0  0  0  0  0  0  0  0  0  0  0
   58.2840   32.1000   47.1240 C   0  0  0  0  0  0  0  0  0  0  0  0
   57.6621   31.3474   46.6172 H   0  0  0  0  0  0  0  0  0  0  0  0
   58.5370   33.3320   46.4890 C   0  0  0  0  0  0  0  0  0  0  0  0
   57.9640   33.5980   45.1430 C   0  0  0  0  0  0  0  0  0  0  0  0
   57.4660   34.7310   44.8930 O   0  0  0  0  0  0  0  0  0  0  0  0
   57.9780   32.5760   44.1330 N   0  0  0  0  0  0  0  0  0  0  0  0
   57.1480   31.5760   44.0310 C   0  0  0  0  0  0  0  0  0  0  0  0
   56.6730   30.8760   45.0870 N   0  0  0  0  0  0  0  0  0  0  0  0
   55.8870   29.9480   44.5040 C   0  0  0  0  0  0  0  0  0  0  0  0
   55.1820   28.9830   45.2110 O   0  0  0  0  0  0  0  0  0  0  0  0
   55.8920   30.0860   43.1360 C   0  0  0  0  0  0  0  0  0  0  0  0
   55.3480   29.4579   42.4152 H   0  0  0  0  0  0  0  0  0  0  0  0
   56.6850   31.1310   42.8430 N   0  0  0  0  0  0  0  0  0  0  0  0
   57.0490   31.6020   41.5110 C   0  0  0  0  0  0  0  0  0  0  0  0
   57.7195   32.4696   41.5994 H   0  0  0  0  0  0  0  0  0  0  0  0
   57.5616   30.7966   40.9647 H   0  0  0  0  0  0  0  0  0  0  0  0
   56.1403   31.8950   40.9647 H   0  0  0  0  0  0  0  0  0  0  0  0
   59.3380   34.2850   47.1560 C   0  0  0  0  0  0  0  0  0  0  0  0
   59.6190   35.4900   46.5980 F   0  0  0  0  0  0  0  0  0  0  0  0
  1  2  1  0
  2  3  2  0
  3  4  1  0
  3  5  1  0
  5  6  1  0
  6  7  1  0
  6  8  1  0
  6  9  1  0
  9 10  1  0
 10 11  1  0
 11 12  1  0
 11 13  1  0
 11 14  1  0
 10 15  2  0
 15 16  1  0
 15 17  1  0
 17 18  1  0
 18 19  1  0
 18 20  1  0
 18 21  1  0
 17 22  2  0
 22 23  1  0
  5 24  2  0
 24 25  1  0
 24 26  1  0
 26 27  1  0
 27 28  2  0
 27 29  1  0
 29 30  2  0
 30 31  1  0
 31 32  1  0
 32 33  1  0
 32 34  2  0
 34 35  1  0
 34 36  1  0
 36 37  1  0
 37 38  1  0
 37 39  1  0
 37 40  1  0
 26 41  2  0
 41 42  1  0
 41  2  1  0
 22  9  1  0
 36 30  1  0
M  CHG  3  22   1  31  -1  33  -1
M  END
>  <UniqueID>  (15) 
15

>  <SMILES>  (15) 
Cc1[nH+]n(Cc2ccc(F)c(C(=O)/N=c3\[n-]c([O-])cn3C)c2)c(C)c1Br

>  <Energy>  (15) 
105.65592838271422

>  <Genealogy>  (15) 
Cc1[nH+]n(Cc2ccc(F)c(C(=O)N=c3[n-]c([O-])cn3C)c2)c(C)c1Br (protonated)
Cc1[nH+]n(Cc2ccc(F)c(C(=O)/N=c3\[n-]c([O-])cn3C)c2)c(C)c1Br (cis-trans isomerization)
Cc1[nH+]n(Cc2ccc(F)c(C(=O)/N=c3\[n-]c([O-])cn3C)c2)c(C)c1Br (3D coordinates assigned)
Cc1[nH+]n(Cc2ccc(F)c(C(=O)/N=c3\[n-]c([O-])cn3C)c2)c(C)c1Br (optimized conformer: 105.65592838271422 kcal/mol)

>  <smiles>  (15) 
Cc1nn(Cc2ccc(F)c(C(=O)N=c3[nH]c(O)cn3C)c2)c(C)c1Br

>  <score_type>  (15) 
oracle

>  <origin>  (15) 
adg

>  <m_score__min__energy>  (15) 
-12.57

>  <m_primary>  (15) 
energy

$$$$
15:0
     RDKit          3D

 68 72  0  0  0  0  0  0  0  0999 V2000
   57.7660   26.3420   42.9800 C   0  0  0  0  0  0  0  0  0  0  0  0
   57.8650   26.2860   44.3190 C   0  0  0  0  0  0  0  0  0  0  0  0
   57.1760   25.4020   45.1660 C   0  0  0  0  0  0  0  0  0  0  0  0
   56.4870   24.2750   44.8970 C   0  0  0  0  0  0  0  0  0  0  0  0
   55.0380   24.0870   45.0870 C   0  0  0  0  0  0  0  0  0  0  0  0
   54.3880   22.9190   44.9410 N   0  0  0  0  0  0  0  0  0  0  0  0
   53.1260   23.2150   45.3230 C   0  0  0  0  0  0  0  0  0  0  0  0
   52.1960   22.3690   45.3030 O   0  0  0  0  0  0  0  0  0  0  0  0
   52.9390   24.4870   45.7330 N   0  0  0  0  0  0  0  0  0  0  0  0
   54.1650   25.0200   45.5910 C   0  0  0  0  0  0  0  0  0  0  0  0
   54.4810   26.3310   45.9240 O   0  0  0  0  0  0  0  0  0  0  0  0
   57.3500   25.8830   46.4490 C   0  0  0  0  0  0  0  0  0  0  0  0
   58.1980   26.9670   46.3600 C   0  0  0  0  0  0  0  0  0  0  0  0
   58.6070   27.8140   47.5290 C   0  0  0  0  0  0  0  0  0  0  0  0
   58.5260   27.2100   45.0690 N   0  0  0  0  0  0  0  0  0  0  0  0
   59.4250   28.2830   44.6090 C   0  0  0  0  0  0  0  0  0  0  0  0
   58.8270   29.6420   44.8630 C   0  0  0  0  0  0  0  0  0  0  0  0
   57.5800   29.9830   44.3160 C   0  0  0  0  0  0  0  0  0  0  0  0
   57.0390   31.2510   44.5390 C   0  0  0  0  0  0  0  0  0  0  0  0
   57.7360   32.1900   45.3050 C   0  0  0  0  0  0  0  0  0  0  0  0
   58.9910   31.8690   45.8510 C   0  0  0  0  0  0  0  0  0  0  0  0
   59.7350   32.8440   46.6810 C   0  0  0  0  0  0  0  0  0  0  0  0
   59.1140   33.8350   47.1570 O   0  0  0  0  0  0  0  0  0  0  0  0
   61.1410   32.6960   46.9590 N   0  0  0  0  0  0  0  0  0  0  0  0
   61.9420   33.9030   47.2140 C   0  0  0  0  0  0  0  0  0  0  0  0
   63.4170   33.5630   47.4530 C   0  0  0  0  0  0  0  0  0  0  0  0
   63.5920   32.4890   48.5510 C   0  0  0  0  0  0  0  0  0  0  0  0
   63.5960   33.1530   49.9230 C   0  0  0  0  0  0  0  0  0  0  0  0
   62.5020   33.5510   50.4140 O   0  0  0  0  0  0  0  0  0  0  0  0
   64.8280   33.4530   50.6260 N   0  0  0  0  0  0  0  0  0  0  0  0
   64.7900   34.5230   51.6410 C   0  0  0  0  0  0  0  0  0  0  0  0
   66.1600   34.8280   52.2710 C   0  0  0  0  0  0  0  0  0  0  0  0
   67.2150   34.5720   51.3710 O   0  0  0  0  0  0  0  0  0  0  0  0
   67.2580   33.1900   51.1140 C   0  0  0  0  0  0  0  0  0  0  0  0
   66.0840   32.7910   50.2260 C   0  0  0  0  0  0  0  0  0  0  0  0
   62.5480   31.3320   48.4420 C   0  0  0  0  0  0  0  0  0  0  0  0
   61.7520   31.3690   47.1330 C   0  0  0  0  0  0  0  0  0  0  0  0
   59.5240   30.5890   45.6320 C   0  0  0  0  0  0  0  0  0  0  0  0
   58.3560   27.0788   42.4152 H   0  0  0  0  0  0  0  0  0  0  0  0
   57.0950   25.6510   42.4487 H   0  0  0  0  0  0  0  0  0  0  0  0
   57.0563   23.4211   44.5010 H   0  0  0  0  0  0  0  0  0  0  0  0
   56.8983   25.4786   47.3668 H   0  0  0  0  0  0  0  0  0  0  0  0
   58.3556   27.2934   48.4648 H   0  0  0  0  0  0  0  0  0  0  0  0
   59.6914   27.9943   47.4896 H   0  0  0  0  0  0  0  0  0  0  0  0
   58.0738   28.7753   47.4896 H   0  0  0  0  0  0  0  0  0  0  0  0
   60.3810   28.2055   45.1476 H   0  0  0  0  0  0  0  0  0  0  0  0
   59.5791   28.1675   43.5260 H   0  0  0  0  0  0  0  0  0  0  0  0
   57.0276   29.2496   43.7102 H   0  0  0  0  0  0  0  0  0  0  0  0
   56.0603   31.5120   44.1101 H   0  0  0  0  0  0  0  0  0  0  0  0
   57.3004   33.1846   45.4813 H   0  0  0  0  0  0  0  0  0  0  0  0
   61.8665   34.5716   46.3438 H   0  0  0  0  0  0  0  0  0  0  0  0
   61.5507   34.3898   48.1195 H   0  0  0  0  0  0  0  0  0  0  0  0
   63.8513   33.1864   46.5152 H   0  0  0  0  0  0  0  0  0  0  0  0
   63.9272   34.4782   47.7878 H   0  0  0  0  0  0  0  0  0  0  0  0
   64.5665   32.0013   48.4008 H   0  0  0  0  0  0  0  0  0  0  0  0
   64.4152   35.4407   51.1641 H   0  0  0  0  0  0  0  0  0  0  0  0
   64.1344   34.1731   52.4520 H   0  0  0  0  0  0  0  0  0  0  0  0
   66.1901   35.8879   52.5637 H   0  0  0  0  0  0  0  0  0  0  0  0
   66.2888   34.1743   53.1463 H   0  0  0  0  0  0  0  0  0  0  0  0
   68.2012   32.9428   50.6048 H   0  0  0  0  0  0  0  0  0  0  0  0
   67.1950   32.6422   52.0658 H   0  0  0  0  0  0  0  0  0  0  0  0
   66.3155   33.0699   49.1874 H   0  0  0  0  0  0  0  0  0  0  0  0
   65.9391   31.7054   50.3282 H   0  0  0  0  0  0  0  0  0  0  0  0
   63.0808   30.3715   48.5018 H   0  0  0  0  0  0  0  0  0  0  0  0
   61.8317   31.4546   49.2677 H   0  0  0  0  0  0  0  0  0  0  0  0
   62.4272   31.1643   46.2891 H   0  0  0  0  0  0  0  0  0  0  0  0
   60.9602   30.6061   47.1675 H   0  0  0  0  0  0  0  0  0  0  0  0
   60.4988   30.3243   46.0676 H   0  0  0  0  0  0  0  0  0  0  0  0
  1  2  2  0
  2  3  1  0
  3  4  2  3
  4  5  1  0
  5  6  1  0
  6  7  1  0
  7  8  2  0
  7  9  1  0
  9 10  1  0
 10 11  1  0
  3 12  1  0
 12 13  2  0
 13 14  1  0
 13 15  1  0
 15 16  1  0
 16 17  1  0
 17 18  2  0
 18 19  1  0
 19 20  2  0
 20 21  1  0
 21 22  1  0
 22 23  2  0
 22 24  1  0
 24 25  1  0
 25 26  1  0
 26 27  1  0
 27 28  1  0
 28 29  2  0
 28 30  1  0
 30 31  1  0
 31 32  1  0
 32 33  1  0
 33 34  1  0
 34 35  1  0
 27 36  1  0
 36 37  1  0
 21 38  2  0
 15  2  1  0
 38 17  1  0
 10  5  2  0
 37 24  1  0
 35 30  1  0
  1 39  1  0
  1 40  1  0
  4 41  1  0
 12 42  1  0
 14 43  1  0
 14 44  1  0
 14 45  1  0
 16 46  1  0
 16 47  1  0
 18 48  1  0
 19 49  1  0
 20 50  1  0
 25 51  1  0
 25 52  1  0
 26 53  1  0
 26 54  1  0
 27 55  1  0
 31 56  1  0
 31 57  1  0
 32 58  1  0
 32 59  1  0
 34 60  1  0
 34 61  1  0
 35 62  1  0
 35 63  1  0
 36 64  1  0
 36 65  1  0
 37 66  1  0
 37 67  1  0
 38 68  1  0
M  CHG  3   6  -1   9  -1  11  -1
M  END
>  <UniqueID>  (16) 
16

>  <SMILES>  (16) 
C=c1c(=Cc2[n-]c(=O)[n-]c2[O-])cc(C)n1Cc1cccc(C(=O)N2CCC(C(=O)N3CCOCC3)CC2)c1

>  <Energy>  (16) 
153.37229530869604

>  <Genealogy>  (16) 
C=c1c(=Cc2[n-]c(=O)[n-]c2[O-])cc(C)n1Cc1cccc(C(=O)N2CCC(C(=O)N3CCOCC3)CC2)c1 (protonated)
C=c1c(=Cc2[n-]c(=O)[n-]c2[O-])cc(C)n1Cc1cccc(C(=O)N2CCC(C(=O)N3CCOCC3)CC2)c1 (3D coordinates assigned)
C=c1c(=Cc2[n-]c(=O)[n-]c2[O-])cc(C)n1Cc1cccc(C(=O)N2CCC(C(=O)N3CCOCC3)CC2)c1 (nonaromatic ring conformer: 153.37229530869604 kcal/mol)

>  <smiles>  (16) 
C=c1c(=Cc2[nH]c(=O)[nH]c2O)cc(C)n1Cc1cccc(C(=O)N2CCC(C(=O)N3CCOCC3)CC2)c1

>  <score_type>  (16) 
oracle

>  <origin>  (16) 
adg

>  <m_score__min__energy>  (16) 
-19.210000000000001

>  <m_primary>  (16) 
energy

$$$$
16:0
     RDKit          3D

 34 36  0  0  0  0  0  0  0  0999 V2000
   53.3643   24.8289   46.3436 H   0  0  0  0  0  0  0  0  0  0  0  0
   54.3090   24.5100   45.8790 C   0  0  0  0  0  0  0  0  0  0  0  0
   54.3440   23.3470   45.2200 C   0  0  0  0  0  0  0  0  0  0  0  0
   53.3957   22.8410   44.9863 H   0  0  0  0  0  0  0  0  0  0  0  0
   55.6100   22.7180   44.7950 C   0  0  0  0  0  0  0  0  0  0  0  0
   55.8550   22.6480   43.4570 N   0  0  0  0  0  0  0  0  0  0  0  0
   56.9910   22.1010   42.9530 C   0  0  0  0  0  0  0  0  0  0  0  0
   57.1479   22.0653   41.8648 H   0  0  0  0  0  0  0  0  0  0  0  0
   57.9580   21.5850   43.8130 C   0  0  0  0  0  0  0  0  0  0  0  0
   58.8894   21.1599   43.4109 H   0  0  0  0  0  0  0  0  0  0  0  0
   57.7330   21.6130   45.1880 C   0  0  0  0  0  0  0  0  0  0  0  0
   58.4913   21.2078   45.8742 H   0  0  0  0  0  0  0  0  0  0  0  0
   56.5450   22.1550   45.7030 C   0  0  0  0  0  0  0  0  0  0  0  0
   56.3110   22.1100   47.1900 C   0  0  0  0  0  0  0  0  0  0  0  0
   57.2596   22.2924   47.7161 H   0  0  0  0  0  0  0  0  0  0  0  0
   55.5816   22.8843   47.4700 H   0  0  0  0  0  0  0  0  0  0  0  0
   55.9208   21.1204   47.4700 H   0  0  0  0  0  0  0  0  0  0  0  0
   55.4910   25.3780   46.0040 C   0  0  0  0  0  0  0  0  0  0  0  0
   55.4720   26.6810   45.6250 N   0  0  0  0  0  0  0  0  0  0  0  0
   56.7210   27.0920   45.8920 C   0  0  0  0  0  0  0  0  0  0  0  0
   57.2700   28.3730   45.7260 C   0  0  0  0  0  0  0  0  0  0  0  0
   56.5020   29.5070   45.1620 C   0  0  0  0  0  0  0  0  0  0  0  0
   57.0310   30.6490   45.1060 O   0  0  0  0  0  0  0  0  0  0  0  0
   55.1790   29.3300   44.6500 N   0  0  0  0  0  0  0  0  0  0  0  0
   54.6340   30.1570   44.3200 H   0  0  0  0  0  0  0  0  0  0  0  0
   54.7750   28.3800   44.4990 H   0  0  0  0  0  0  0  0  0  0  0  0
   58.6080   28.5550   46.1520 C   0  0  0  0  0  0  0  0  0  0  0  0
   59.0782   29.5451   46.0590 H   0  0  0  0  0  0  0  0  0  0  0  0
   59.3460   27.4800   46.6950 C   0  0  0  0  0  0  0  0  0  0  0  0
   60.3876   27.6378   47.0114 H   0  0  0  0  0  0  0  0  0  0  0  0
   58.7600   26.2110   46.8340 C   0  0  0  0  0  0  0  0  0  0  0  0
   59.3254   25.3656   47.2530 H   0  0  0  0  0  0  0  0  0  0  0  0
   57.4390   26.0610   46.4230 C   0  0  0  0  0  0  0  0  0  0  0  0
   56.6830   24.9560   46.5020 N   0  0  0  0  0  0  0  0  0  0  0  0
  1  2  1  0
  2  3  2  0
  3  4  1  0
  3  5  1  0
  5  6  2  0
  6  7  1  0
  7  8  1  0
  7  9  2  0
  9 10  1  0
  9 11  1  0
 11 12  1  0
 11 13  2  0
 13 14  1  0
 14 15  1  0
 14 16  1  0
 14 17  1  0
  2 18  1  0
 18 19  2  0
 19 20  1  0
 20 21  2  0
 21 22  1  0
 22 23  2  0
 22 24  1  0
 24 25  1  0
 24 26  1  0
 21 27  1  0
 27 28  1  0
 27 29  2  0
 29 30  1  0
 29 31  1  0
 31 32  1  0
 31 33  2  0
 33 34  1  0
 13  5  1  0
 34 18  1  0
 33 20  1  0
M  CHG  1  34  -1
M  END
>  <UniqueID>  (17) 
17

>  <SMILES>  (17) 
Cc1cccnc1/C=C/c1nc2c(C(N)=O)cccc2[n-]1

>  <Energy>  (17) 
78.5219192184732

>  <Genealogy>  (17) 
Cc1cccnc1C=Cc1nc2c(C(N)=O)cccc2[n-]1 (protonated)
Cc1cccnc1/C=C/c1nc2c(C(N)=O)cccc2[n-]1 (cis-trans isomerization)
Cc1cccnc1/C=C/c1nc2c(C(N)=O)cccc2[n-]1 (3D coordinates assigned)
Cc1cccnc1/C=C/c1nc2c(C(N)=O)cccc2[n-]1 (optimized conformer: 78.5219192184732 kcal/mol)

>  <smiles>  (17) 
Cc1cccnc1C=Cc1nc2c(C(N)=O)cccc2[nH]1

>  <score_type>  (17) 
oracle

>  <origin>  (17) 
adg

>  <m_score__min__energy>  (17) 
-9.3800000000000008

>  <m_primary>  (17) 
energy

$$$$
17:0
     RDKit          3D

 66 70  0  0  0  0  0  0  0  0999 V2000
   57.5860   34.2150   44.8670 C   0  0  0  0  0  0  0  0  0  0  0  0
   57.8600   32.9140   44.9320 C   0  0  0  0  0  0  0  0  0  0  0  0
   57.5070   31.8190   43.7070 S   0  0  0  0  0  0  0  0  0  0  0  0
   58.0000   30.4430   44.5390 C   0  0  0  0  0  0  0  0  0  0  0  0
   57.8910   29.2000   44.0500 C   0  0  0  0  0  0  0  0  0  0  0  0
   57.3300   28.0430   44.7950 C   0  0  0  0  0  0  0  0  0  0  0  0
   56.0050   28.0310   45.2480 C   0  0  0  0  0  0  0  0  0  0  0  0
   55.1460   29.0960   44.9980 O   0  0  0  0  0  0  0  0  0  0  0  0
   55.5330   26.9500   45.9120 N   0  0  0  0  0  0  0  0  0  0  0  0
   56.2940   25.8460   46.1090 C   0  0  0  0  0  0  0  0  0  0  0  0
   55.7970   24.8720   46.7400 O   0  0  0  0  0  0  0  0  0  0  0  0
   57.5740   25.7860   45.6160 N   0  0  0  0  0  0  0  0  0  0  0  0
   58.3450   24.5280   45.7100 C   0  0  0  0  0  0  0  0  0  0  0  0
   57.8050   23.5110   44.7320 C   0  0  0  0  0  0  0  0  0  0  0  0
   56.8510   23.8850   43.7680 C   0  0  0  0  0  0  0  0  0  0  0  0
   56.3120   22.9290   42.8960 C   0  0  0  0  0  0  0  0  0  0  0  0
   56.7120   21.5930   42.9880 C   0  0  0  0  0  0  0  0  0  0  0  0
   57.6540   21.2110   43.9480 C   0  0  0  0  0  0  0  0  0  0  0  0
   58.2000   22.1650   44.8160 C   0  0  0  0  0  0  0  0  0  0  0  0
   58.0970   26.8760   44.9640 C   0  0  0  0  0  0  0  0  0  0  0  0
   59.2760   26.8410   44.5150 O   0  0  0  0  0  0  0  0  0  0  0  0
   58.4970   30.8310   45.7850 C   0  0  0  0  0  0  0  0  0  0  0  0
   58.4120   32.2130   46.0140 C   0  0  0  0  0  0  0  0  0  0  0  0
   58.7410   32.7920   47.3350 C   0  0  0  0  0  0  0  0  0  0  0  0
   57.7730   33.1250   48.0730 O   0  0  0  0  0  0  0  0  0  0  0  0
   60.0940   32.8840   47.8620 N   0  0  0  0  0  0  0  0  0  0  0  0
   60.1370   33.8490   48.9860 C   0  0  0  0  0  0  0  0  0  0  0  0
   61.5680   34.3100   49.3180 C   0  0  0  0  0  0  0  0  0  0  0  0
   62.5460   33.2720   48.9270 N   0  0  0  0  0  0  0  0  0  0  0  0
   63.9050   33.5800   49.4700 C   0  0  0  0  0  0  0  0  0  0  0  0
   63.7960   34.0700   50.9430 C   0  0  0  0  0  0  0  0  0  0  0  0
   65.0980   33.8730   51.7380 C   0  0  0  0  0  0  0  0  0  0  0  0
   66.2060   33.8640   50.8660 O   0  0  0  0  0  0  0  0  0  0  0  0
   66.2160   32.6610   50.1180 C   0  0  0  0  0  0  0  0  0  0  0  0
   64.8590   32.3570   49.4320 C   0  0  0  0  0  0  0  0  0  0  0  0
   62.5350   33.1200   47.4470 C   0  0  0  0  0  0  0  0  0  0  0  0
   61.1140   33.2120   46.8460 C   0  0  0  0  0  0  0  0  0  0  0  0
   57.8458   34.8745   45.7082 H   0  0  0  0  0  0  0  0  0  0  0  0
   57.0998   34.6306   43.9721 H   0  0  0  0  0  0  0  0  0  0  0  0
   58.2423   29.0234   43.0227 H   0  0  0  0  0  0  0  0  0  0  0  0
   59.4009   24.7307   45.4775 H   0  0  0  0  0  0  0  0  0  0  0  0
   58.2554   24.1274   46.7306 H   0  0  0  0  0  0  0  0  0  0  0  0
   56.5262   24.9336   43.6982 H   0  0  0  0  0  0  0  0  0  0  0  0
   55.5735   23.2306   42.1386 H   0  0  0  0  0  0  0  0  0  0  0  0
   56.2861   20.8426   42.3057 H   0  0  0  0  0  0  0  0  0  0  0  0
   57.9669   20.1590   44.0217 H   0  0  0  0  0  0  0  0  0  0  0  0
   58.9423   21.8589   45.5678 H   0  0  0  0  0  0  0  0  0  0  0  0
   58.9144   30.1226   46.5157 H   0  0  0  0  0  0  0  0  0  0  0  0
   60.3290   31.9350   48.2450 H   0  0  0  0  0  0  0  0  0  0  0  0
   59.5368   34.7305   48.7163 H   0  0  0  0  0  0  0  0  0  0  0  0
   59.7364   33.3412   49.8757 H   0  0  0  0  0  0  0  0  0  0  0  0
   61.7862   35.2387   48.7703 H   0  0  0  0  0  0  0  0  0  0  0  0
   61.6453   34.4840   50.4014 H   0  0  0  0  0  0  0  0  0  0  0  0
   64.3254   34.3649   48.8241 H   0  0  0  0  0  0  0  0  0  0  0  0
   63.5461   35.1412   50.9388 H   0  0  0  0  0  0  0  0  0  0  0  0
   63.0160   33.4692   51.4335 H   0  0  0  0  0  0  0  0  0  0  0  0
   65.2107   34.6954   52.4598 H   0  0  0  0  0  0  0  0  0  0  0  0
   65.0517   32.9105   52.2685 H   0  0  0  0  0  0  0  0  0  0  0  0
   66.9908   32.7388   49.3411 H   0  0  0  0  0  0  0  0  0  0  0  0
   66.4176   31.8401   50.8219 H   0  0  0  0  0  0  0  0  0  0  0  0
   65.0443   32.0829   48.3829 H   0  0  0  0  0  0  0  0  0  0  0  0
   64.3780   31.5322   49.9782 H   0  0  0  0  0  0  0  0  0  0  0  0
   63.1547   33.9154   47.0074 H   0  0  0  0  0  0  0  0  0  0  0  0
   62.9291   32.1198   47.2139 H   0  0  0  0  0  0  0  0  0  0  0  0
   60.9426   34.2350   46.4798 H   0  0  0  0  0  0  0  0  0  0  0  0
   61.0331   32.4913   46.0189 H   0  0  0  0  0  0  0  0  0  0  0  0
  1  2  2  0
  2  3  1  0
  3  4  1  0
  4  5  2  3
  5  6  1  0
  6  7  2  0
  7  8  1  0
  7  9  1  0
  9 10  1  0
 10 11  2  0
 10 12  1  0
 12 13  1  0
 13 14  1  0
 14 15  2  0
 15 16  1  0
 16 17  2  0
 17 18  1  0
 18 19  2  0
 12 20  1  0
 20 21  2  0
  4 22  1  0
 22 23  2  0
 23 24  1  0
 24 25  2  0
 24 26  1  0
 26 27  1  0
 27 28  1  0
 28 29  1  0
 29 30  1  0
 30 31  1  0
 31 32  1  0
 32 33  1  0
 33 34  1  0
 34 35  1  0
 29 36  1  0
 36 37  1  0
 23  2  1  0
 37 26  1  0
 20  6  1  0
 35 30  1  0
 19 14  1  0
  1 38  1  0
  1 39  1  0
  5 40  1  0
 13 41  1  0
 13 42  1  0
 15 43  1  0
 16 44  1  0
 17 45  1  0
 18 46  1  0
 19 47  1  0
 22 48  1  0
 26 49  1  0
 27 50  1  0
 27 51  1  0
 28 52  1  0
 28 53  1  0
 30 54  1  0
 31 55  1  0
 31 56  1  0
 32 57  1  0
 32 58  1  0
 34 59  1  0
 34 60  1  0
 35 61  1  0
 35 62  1  0
 36 63  1  0
 36 64  1  0
 37 65  1  0
 37 66  1  0
M  CHG  3   8  -1   9  -1  26   1
M  END
>  <UniqueID>  (18) 
18

>  <SMILES>  (18) 
C=c1sc(=Cc2c([O-])[n-]c(=O)n(Cc3ccccc3)c2=O)cc1C(=O)[NH+]1CCN(C2CCOCC2)CC1

>  <Energy>  (18) 
142.37455574867766

>  <Genealogy>  (18) 
C=c1sc(=Cc2c([O-])[n-]c(=O)n(Cc3ccccc3)c2=O)cc1C(=O)[NH+]1CCN(C2CCOCC2)CC1 (protonated)
C=c1sc(=Cc2c([O-])[n-]c(=O)n(Cc3ccccc3)c2=O)cc1C(=O)[NH+]1CCN(C2CCOCC2)CC1 (3D coordinates assigned)
C=c1sc(=Cc2c([O-])[n-]c(=O)n(Cc3ccccc3)c2=O)cc1C(=O)[NH+]1CCN(C2CCOCC2)CC1 (nonaromatic ring conformer: 142.37455574867766 kcal/mol)

>  <smiles>  (18) 
C=c1sc(=Cc2c(O)[nH]c(=O)n(Cc3ccccc3)c2=O)cc1C(=O)N1CCN(C2CCOCC2)CC1

>  <score_type>  (18) 
oracle

>  <origin>  (18) 
adg

>  <m_score__min__energy>  (18) 
-14.76

>  <m_primary>  (18) 
energy

$$$$
18:0
     RDKit          3D

 56 58  0  0  0  0  0  0  0  0999 V2000
   64.2500   33.0660   48.7380 C   0  0  0  0  0  0  0  0  0  0  0  0
   62.8270   32.7980   48.4930 N   0  0  0  0  0  0  0  0  0  0  0  0
   62.2140   31.5820   49.0580 C   0  0  0  0  0  0  0  0  0  0  0  0
   61.5210   30.7580   47.9600 C   0  0  0  0  0  0  0  0  0  0  0  0
   60.1060   30.9380   48.0030 O   0  0  0  0  0  0  0  0  0  0  0  0
   59.3220   30.9710   49.1650 C   0  0  0  0  0  0  0  0  0  0  0  0
   58.5950   32.1140   49.5600 C   0  0  0  0  0  0  0  0  0  0  0  0
   57.8350   32.0900   50.7320 C   0  0  0  0  0  0  0  0  0  0  0  0
   57.7850   30.9310   51.5120 C   0  0  0  0  0  0  0  0  0  0  0  0
   58.5030   29.7930   51.1260 C   0  0  0  0  0  0  0  0  0  0  0  0
   59.2720   29.8180   49.9600 C   0  0  0  0  0  0  0  0  0  0  0  0
   62.0690   33.7670   47.7300 C   0  0  0  0  0  0  0  0  0  0  0  0
   62.5570   34.2340   46.6660 O   0  0  0  0  0  0  0  0  0  0  0  0
   60.6870   34.2150   48.1230 C   0  0  0  0  0  0  0  0  0  0  0  0
   59.9650   35.2790   46.8310 S   0  0  0  0  0  0  0  0  0  0  0  0
   58.9550   33.9840   46.1040 C   0  0  0  0  0  0  0  0  0  0  0  0
   59.5190   32.7370   45.8120 C   0  0  0  0  0  0  0  0  0  0  0  0
   58.7400   31.7340   45.2280 C   0  0  0  0  0  0  0  0  0  0  0  0
   57.3980   31.9780   44.9050 C   0  0  0  0  0  0  0  0  0  0  0  0
   56.6230   30.9360   44.2970 N   0  0  0  0  0  0  0  0  0  0  0  0
   56.3510   29.6440   44.8640 C   0  0  0  0  0  0  0  0  0  0  0  0
   55.1530   29.3410   45.1230 O   0  0  0  0  0  0  0  0  0  0  0  0
   57.4670   28.6680   45.1950 C   0  0  0  0  0  0  0  0  0  0  0  0
   58.6220   28.7220   44.1890 C   0  0  0  0  0  0  0  0  0  0  0  0
   59.9050   28.4620   44.9860 C   0  0  0  0  0  0  0  0  0  0  0  0
   59.4800   28.2520   46.4340 C   0  0  0  0  0  0  0  0  0  0  0  0
   58.1240   28.9160   46.5500 C   0  0  0  0  0  0  0  0  0  0  0  0
   56.8240   33.2170   45.2350 C   0  0  0  0  0  0  0  0  0  0  0  0
   57.6040   34.2200   45.8200 C   0  0  0  0  0  0  0  0  0  0  0  0
   64.4353   33.1009   49.8217 H   0  0  0  0  0  0  0  0  0  0  0  0
   64.8565   32.2663   48.2879 H   0  0  0  0  0  0  0  0  0  0  0  0
   64.5241   34.0316   48.2879 H   0  0  0  0  0  0  0  0  0  0  0  0
   62.9968   30.9691   49.5288 H   0  0  0  0  0  0  0  0  0  0  0  0
   61.4612   31.8804   49.8025 H   0  0  0  0  0  0  0  0  0  0  0  0
   61.8952   31.0811   46.9773 H   0  0  0  0  0  0  0  0  0  0  0  0
   61.7445   29.6938   48.1261 H   0  0  0  0  0  0  0  0  0  0  0  0
   58.6267   33.0251   48.9444 H   0  0  0  0  0  0  0  0  0  0  0  0
   57.2749   32.9847   51.0416 H   0  0  0  0  0  0  0  0  0  0  0  0
   57.1804   30.9132   52.4307 H   0  0  0  0  0  0  0  0  0  0  0  0
   58.4618   28.8809   51.7395 H   0  0  0  0  0  0  0  0  0  0  0  0
   59.8428   28.9256   49.6636 H   0  0  0  0  0  0  0  0  0  0  0  0
   60.0468   33.3315   48.2630 H   0  0  0  0  0  0  0  0  0  0  0  0
   60.7534   34.7893   49.0588 H   0  0  0  0  0  0  0  0  0  0  0  0
   60.5774   32.5457   46.0425 H   0  0  0  0  0  0  0  0  0  0  0  0
   59.1823   30.7484   45.0209 H   0  0  0  0  0  0  0  0  0  0  0  0
   56.9482   27.6981   45.1793 H   0  0  0  0  0  0  0  0  0  0  0  0
   58.4906   27.9490   43.4175 H   0  0  0  0  0  0  0  0  0  0  0  0
   58.6606   29.6960   43.6792 H   0  0  0  0  0  0  0  0  0  0  0  0
   60.4135   27.5640   44.6052 H   0  0  0  0  0  0  0  0  0  0  0  0
   60.6068   29.3042   44.8957 H   0  0  0  0  0  0  0  0  0  0  0  0
   59.4046   27.1786   46.6621 H   0  0  0  0  0  0  0  0  0  0  0  0
   60.2074   28.6763   47.1417 H   0  0  0  0  0  0  0  0  0  0  0  0
   57.5343   28.4596   47.3586 H   0  0  0  0  0  0  0  0  0  0  0  0
   58.1990   29.9865   46.7917 H   0  0  0  0  0  0  0  0  0  0  0  0
   55.7582   33.3989   45.0328 H   0  0  0  0  0  0  0  0  0  0  0  0
   57.1555   35.1959   46.0574 H   0  0  0  0  0  0  0  0  0  0  0  0
  1  2  1  0
  2  3  1  0
  3  4  1  0
  4  5  1  0
  5  6  1  0
  6  7  2  0
  7  8  1  0
  8  9  2  0
  9 10  1  0
 10 11  2  0
  2 12  1  0
 12 13  2  0
 12 14  1  0
 14 15  1  0
 15 16  1  0
 16 17  2  0
 17 18  1  0
 18 19  2  0
 19 20  1  0
 20 21  1  0
 21 22  2  0
 21 23  1  0
 23 24  1  0
 24 25  1  0
 25 26  1  0
 26 27  1  0
 19 28  1  0
 28 29  2  0
 11  6  1  0
 29 16  1  0
 27 23  1  0
  1 30  1  0
  1 31  1  0
  1 32  1  0
  3 33  1  0
  3 34  1  0
  4 35  1  0
  4 36  1  0
  7 37  1  0
  8 38  1  0
  9 39  1  0
 10 40  1  0
 11 41  1  0
 14 42  1  0
 14 43  1  0
 17 44  1  0
 18 45  1  0
 23 46  1  0
 24 47  1  0
 24 48  1  0
 25 49  1  0
 25 50  1  0
 26 51  1  0
 26 52  1  0
 27 53  1  0
 27 54  1  0
 28 55  1  0
 29 56  1  0
M  CHG  1  20  -1
M  END
>  <UniqueID>  (19) 
19

>  <SMILES>  (19) 
CN(CCOc1ccccc1)C(=O)CSc1ccc([N-]C(=O)C2CCCC2)cc1

>  <Energy>  (19) 
54.79741265520178

>  <Genealogy>  (19) 
CN(CCOc1ccccc1)C(=O)CSc1ccc([N-]C(=O)C2CCCC2)cc1 (protonated)
CN(CCOc1ccccc1)C(=O)CSc1ccc([N-]C(=O)C2CCCC2)cc1 (3D coordinates assigned)
CN(CCOc1ccccc1)C(=O)CSc1ccc([N-]C(=O)C2CCCC2)cc1 (nonaromatic ring conformer: 54.79741265520178 kcal/mol)

>  <smiles>  (19) 
CN(CCOc1ccccc1)C(=O)CSc1ccc(NC(=O)C2CCCC2)cc1

>  <score_type>  (19) 
oracle

>  <origin>  (19) 
adg

>  <m_score__min__energy>  (19) 
-10.130000000000001

>  <m_primary>  (19) 
energy

$$$$
19:0
     RDKit          3D

 45 47  0  0  0  0  0  0  0  0999 V2000
   53.0780   27.9410   53.4240 C   0  0  0  0  0  0  0  0  0  0  0  0
   53.9590   28.8950   53.0950 C   0  0  0  0  0  0  0  0  0  0  0  0
   55.2100   28.7780   53.6170 N   0  0  0  0  0  0  0  0  0  0  0  0
   56.2290   29.5310   53.2070 N   0  0  0  0  0  0  0  0  0  0  0  0
   56.0850   30.4470   52.2180 C   0  0  0  0  0  0  0  0  0  0  0  0
   57.2650   31.2090   51.7620 C   0  0  0  0  0  0  0  0  0  0  0  0
   57.1060   32.1740   50.9670 O   0  0  0  0  0  0  0  0  0  0  0  0
   58.5890   30.8810   52.2110 N   0  0  0  0  0  0  0  0  0  0  0  0
   59.4240   31.9420   52.7900 C   0  0  0  0  0  0  0  0  0  0  0  0
   60.8720   31.4810   52.9870 C   0  0  0  0  0  0  0  0  0  0  0  0
   60.9080   30.1310   53.5700 N   0  0  0  0  0  0  0  0  0  0  0  0
   61.8720   29.7890   54.5830 C   0  0  0  0  0  0  0  0  0  0  0  0
   62.6990   30.6520   54.9910 O   0  0  0  0  0  0  0  0  0  0  0  0
   61.9010   28.4900   55.1040 O   0  0  0  0  0  0  0  0  0  0  0  0
   62.6630   27.4290   54.5320 C   0  0  0  0  0  0  0  0  0  0  0  0
   63.3300   27.8830   53.2380 C   0  0  0  0  0  0  0  0  0  0  0  0
   60.0400   29.0720   53.0360 C   0  0  0  0  0  0  0  0  0  0  0  0
   59.1690   29.5750   51.8800 C   0  0  0  0  0  0  0  0  0  0  0  0
   54.8240   30.6290   51.6430 C   0  0  0  0  0  0  0  0  0  0  0  0
   53.7100   29.9200   52.1310 C   0  0  0  0  0  0  0  0  0  0  0  0
   52.4900   30.2880   51.6600 C   0  0  0  0  0  0  0  0  0  0  0  0
   51.6110   31.3240   52.2350 C   0  0  0  0  0  0  0  0  0  0  0  0
   51.3870   31.5020   53.5500 N   0  0  0  0  0  0  0  0  0  0  0  0
   50.6210   32.6130   53.5870 C   0  0  0  0  0  0  0  0  0  0  0  0
   50.1850   33.0980   54.6630 O   0  0  0  0  0  0  0  0  0  0  0  0
   50.3650   33.1660   52.3830 N   0  0  0  0  0  0  0  0  0  0  0  0
   51.0100   32.3440   51.5410 C   0  0  0  0  0  0  0  0  0  0  0  0
   51.0520   32.5250   50.1640 O   0  0  0  0  0  0  0  0  0  0  0  0
   52.0509   27.9821   53.0323 H   0  0  0  0  0  0  0  0  0  0  0  0
   53.3817   27.1165   54.0858 H   0  0  0  0  0  0  0  0  0  0  0  0
   59.4153   32.8105   52.1150 H   0  0  0  0  0  0  0  0  0  0  0  0
   59.0108   32.2037   53.7753 H   0  0  0  0  0  0  0  0  0  0  0  0
   61.3836   31.4686   52.0133 H   0  0  0  0  0  0  0  0  0  0  0  0
   61.3772   32.1779   53.6719 H   0  0  0  0  0  0  0  0  0  0  0  0
   63.4377   27.1144   55.2468 H   0  0  0  0  0  0  0  0  0  0  0  0
   61.9885   26.5896   54.3073 H   0  0  0  0  0  0  0  0  0  0  0  0
   64.2179   28.4873   53.4756 H   0  0  0  0  0  0  0  0  0  0  0  0
   63.6320   27.0021   52.6525 H   0  0  0  0  0  0  0  0  0  0  0  0
   62.6213   28.4870   52.6525 H   0  0  0  0  0  0  0  0  0  0  0  0
   60.6692   28.2457   52.6736 H   0  0  0  0  0  0  0  0  0  0  0  0
   59.3732   28.7380   53.8446 H   0  0  0  0  0  0  0  0  0  0  0  0
   59.7870   29.6711   50.9751 H   0  0  0  0  0  0  0  0  0  0  0  0
   58.3552   28.8557   51.7057 H   0  0  0  0  0  0  0  0  0  0  0  0
   54.7014   31.3302   50.8044 H   0  0  0  0  0  0  0  0  0  0  0  0
   52.1228   29.7639   50.7653 H   0  0  0  0  0  0  0  0  0  0  0  0
  1  2  2  0
  2  3  1  0
  3  4  2  0
  4  5  1  0
  5  6  1  0
  6  7  2  0
  6  8  1  0
  8  9  1  0
  9 10  1  0
 10 11  1  0
 11 12  1  0
 12 13  2  0
 12 14  1  0
 14 15  1  0
 15 16  1  0
 11 17  1  0
 17 18  1  0
  5 19  2  0
 19 20  1  0
 20 21  2  3
 21 22  1  0
 22 23  1  0
 23 24  1  0
 24 25  2  0
 24 26  1  0
 26 27  1  0
 27 28  1  0
 20  2  1  0
 27 22  2  0
 18  8  1  0
  1 29  1  0
  1 30  1  0
  9 31  1  0
  9 32  1  0
 10 33  1  0
 10 34  1  0
 15 35  1  0
 15 36  1  0
 16 37  1  0
 16 38  1  0
 16 39  1  0
 17 40  1  0
 17 41  1  0
 18 42  1  0
 18 43  1  0
 19 44  1  0
 21 45  1  0
M  CHG  3  23  -1  26  -1  28  -1
M  END
>  <UniqueID>  (20) 
20

>  <SMILES>  (20) 
C=c1nnc(C(=O)N2CCN(C(=O)OCC)CC2)cc1=Cc1[n-]c(=O)[n-]c1[O-]

>  <Energy>  (20) 
94.94741319178797

>  <Genealogy>  (20) 
C=c1nnc(C(=O)N2CCN(C(=O)OCC)CC2)cc1=Cc1[n-]c(=O)[n-]c1[O-] (protonated)
C=c1nnc(C(=O)N2CCN(C(=O)OCC)CC2)cc1=Cc1[n-]c(=O)[n-]c1[O-] (3D coordinates assigned)
C=c1nnc(C(=O)N2CCN(C(=O)OCC)CC2)cc1=Cc1[n-]c(=O)[n-]c1[O-] (nonaromatic ring conformer: 94.94741319178797 kcal/mol)

>  <smiles>  (20) 
C=c1nnc(C(=O)N2CCN(C(=O)OCC)CC2)cc1=Cc1[nH]c(=O)[nH]c1O

>  <score_type>  (20) 
oracle

>  <origin>  (20) 
adg

>  <m_score__min__energy>  (20) 
-16.449999999999999

>  <m_primary>  (20) 
energy

$$$$
20:0
     RDKit          3D

 54 56  0  0  0  0  0  0  0  0999 V2000
   61.0630   31.1070   47.3320 C   0  0  0  0  0  0  0  0  0  0  0  0
   60.0560   31.4720   48.4190 C   0  0  0  0  0  0  0  0  0  0  0  0
   58.6500   31.5930   47.8580 C   0  0  0  0  0  0  0  0  0  0  0  0
   58.7240   32.4540   46.6490 C   0  0  0  0  0  0  0  0  0  0  0  0
   59.1710   33.7580   46.8540 C   0  0  0  0  0  0  0  0  0  0  0  0
   59.2500   34.5770   45.7560 C   0  0  0  0  0  0  0  0  0  0  0  0
   59.6470   35.7700   45.8720 O   0  0  0  0  0  0  0  0  0  0  0  0
   58.9010   34.1000   44.5370 N   0  0  0  0  0  0  0  0  0  0  0  0
   58.4730   32.8500   44.3330 C   0  0  0  0  0  0  0  0  0  0  0  0
   58.0180   32.1810   42.7520 S   0  0  0  0  0  0  0  0  0  0  0  0
   56.6440   31.0340   42.9370 C   0  0  0  0  0  0  0  0  0  0  0  0
   56.8500   30.0550   44.0130 C   0  0  0  0  0  0  0  0  0  0  0  0
   55.9380   29.8310   44.8150 O   0  0  0  0  0  0  0  0  0  0  0  0
   58.0870   29.3910   44.1110 N   0  0  0  0  0  0  0  0  0  0  0  0
   58.4610   28.4320   45.0640 C   0  0  0  0  0  0  0  0  0  0  0  0
   59.4270   28.5770   46.0250 C   0  0  0  0  0  0  0  0  0  0  0  0
   59.7320   27.5640   46.9330 C   0  0  0  0  0  0  0  0  0  0  0  0
   59.0670   26.3580   46.9050 C   0  0  0  0  0  0  0  0  0  0  0  0
   58.0940   26.2030   45.9440 C   0  0  0  0  0  0  0  0  0  0  0  0
   57.2320   24.6880   45.8790 S   0  0  0  0  0  0  0  0  0  0  0  0
   57.5430   23.8830   47.1120 O   0  0  0  0  0  0  0  0  0  0  0  0
   55.7660   24.9830   45.9210 O   0  0  0  0  0  0  0  0  0  0  0  0
   57.6210   23.8580   44.4440 N   0  0  0  0  0  0  0  0  0  0  0  0
   57.9580   22.4810   44.6290 C   0  0  0  0  0  0  0  0  0  0  0  0
   56.7090   21.6140   44.6320 C   0  0  0  0  0  0  0  0  0  0  0  0
   55.8910   21.8360   43.5460 O   0  0  0  0  0  0  0  0  0  0  0  0
   55.5370   23.1590   43.3450 C   0  0  0  0  0  0  0  0  0  0  0  0
   56.7290   24.0850   43.3510 C   0  0  0  0  0  0  0  0  0  0  0  0
   57.8000   27.2040   45.0540 C   0  0  0  0  0  0  0  0  0  0  0  0
   58.3980   32.0480   45.4280 N   0  0  0  0  0  0  0  0  0  0  0  0
   61.9994   30.7676   47.7987 H   0  0  0  0  0  0  0  0  0  0  0  0
   60.6516   30.3008   46.7069 H   0  0  0  0  0  0  0  0  0  0  0  0
   61.2638   31.9896   46.7069 H   0  0  0  0  0  0  0  0  0  0  0  0
   60.0660   30.6900   49.1925 H   0  0  0  0  0  0  0  0  0  0  0  0
   60.3434   32.4457   48.8424 H   0  0  0  0  0  0  0  0  0  0  0  0
   58.2666   30.5981   47.5876 H   0  0  0  0  0  0  0  0  0  0  0  0
   57.9713   32.0311   48.6047 H   0  0  0  0  0  0  0  0  0  0  0  0
   59.4494   34.1163   47.8561 H   0  0  0  0  0  0  0  0  0  0  0  0
   58.9740   34.7670   43.7440 H   0  0  0  0  0  0  0  0  0  0  0  0
   55.7340   31.6109   43.1584 H   0  0  0  0  0  0  0  0  0  0  0  0
   56.5573   30.4722   41.9953 H   0  0  0  0  0  0  0  0  0  0  0  0
   58.8080   29.6540   43.3730 H   0  0  0  0  0  0  0  0  0  0  0  0
   59.9810   29.5256   46.0820 H   0  0  0  0  0  0  0  0  0  0  0  0
   60.5174   27.7307   47.6849 H   0  0  0  0  0  0  0  0  0  0  0  0
   59.3030   25.5549   47.6187 H   0  0  0  0  0  0  0  0  0  0  0  0
   58.6186   22.1585   43.8107 H   0  0  0  0  0  0  0  0  0  0  0  0
   58.4660   22.3700   45.5983 H   0  0  0  0  0  0  0  0  0  0  0  0
   57.0166   20.5579   44.6277 H   0  0  0  0  0  0  0  0  0  0  0  0
   56.1335   21.8734   45.5328 H   0  0  0  0  0  0  0  0  0  0  0  0
   55.0293   23.2443   42.3729 H   0  0  0  0  0  0  0  0  0  0  0  0
   54.8782   23.4577   44.1737 H   0  0  0  0  0  0  0  0  0  0  0  0
   57.2850   23.9431   42.4125 H   0  0  0  0  0  0  0  0  0  0  0  0
   56.3426   25.1095   43.4559 H   0  0  0  0  0  0  0  0  0  0  0  0
   57.0136   27.0320   44.3044 H   0  0  0  0  0  0  0  0  0  0  0  0
  1  2  1  0
  2  3  1  0
  3  4  1  0
  4  5  2  0
  5  6  1  0
  6  7  2  0
  6  8  1  0
  8  9  1  0
  9 10  1  0
 10 11  1  0
 11 12  1  0
 12 13  2  0
 12 14  1  0
 14 15  1  0
 15 16  2  0
 16 17  1  0
 17 18  2  0
 18 19  1  0
 19 20  1  0
 20 21  2  0
 20 22  2  0
 20 23  1  0
 23 24  1  0
 24 25  1  0
 25 26  1  0
 26 27  1  0
 27 28  1  0
 19 29  2  0
  9 30  2  0
 30  4  1  0
 29 15  1  0
 28 23  1  0
  1 31  1  0
  1 32  1  0
  1 33  1  0
  2 34  1  0
  2 35  1  0
  3 36  1  0
  3 37  1  0
  5 38  1  0
  8 39  1  0
 11 40  1  0
 11 41  1  0
 14 42  1  0
 16 43  1  0
 17 44  1  0
 18 45  1  0
 24 46  1  0
 24 47  1  0
 25 48  1  0
 25 49  1  0
 27 50  1  0
 27 51  1  0
 28 52  1  0
 28 53  1  0
 29 54  1  0
M  END
>  <smiles>  (21) 
CCCc1cc(=O)[nH]c(SCC(=O)Nc2cccc(S(=O)(=O)N3CCOCC3)c2)n1

>  <score_type>  (21) 
oracle

>  <origin>  (21) 
adg

>  <m_score__min__energy>  (21) 
-10.26

>  <m_primary>  (21) 
energy

$$$$
21:0
     RDKit          3D

 72 76  0  0  0  0  0  0  0  0999 V2000
   53.5670   19.6110   46.5860 C   0  0  0  0  0  0  0  0  0  0  0  0
   54.4140   20.7200   46.0480 C   0  0  0  0  0  0  0  0  0  0  0  0
   55.5900   20.4350   45.3440 C   0  0  0  0  0  0  0  0  0  0  0  0
   56.3690   21.4850   44.8600 C   0  0  0  0  0  0  0  0  0  0  0  0
   55.9900   22.8160   45.0990 C   0  0  0  0  0  0  0  0  0  0  0  0
   56.8330   23.9200   44.5930 C   0  0  0  0  0  0  0  0  0  0  0  0
   57.3530   23.8190   43.4500 O   0  0  0  0  0  0  0  0  0  0  0  0
   57.1070   25.0790   45.4010 N   0  0  0  0  0  0  0  0  0  0  0  0
   57.4540   24.9010   46.8190 C   0  0  0  0  0  0  0  0  0  0  0  0
   58.2130   26.1220   47.3770 C   0  0  0  0  0  0  0  0  0  0  0  0
   59.3390   26.6610   46.4080 C   0  0  0  0  0  0  0  0  0  0  0  0
   60.4800   25.5940   46.4640 C   0  0  0  0  0  0  0  0  0  0  0  0
   59.8700   27.9940   46.8990 N   0  0  2  0  0  0  0  0  0  0  0  0
   58.8840   28.8230   47.6540 C   0  0  0  0  0  0  0  0  0  0  0  0
   59.5720   29.9940   48.3920 C   0  0  0  0  0  0  0  0  0  0  0  0
   60.7740   30.5580   47.6030 C   0  0  2  0  0  0  0  0  0  0  0  0
   61.0100   31.9860   47.8990 N   0  0  0  0  0  0  0  0  0  0  0  0
   62.0740   32.4140   48.7680 C   0  0  0  0  0  0  0  0  0  0  0  0
   63.3980   32.0500   48.4780 C   0  0  0  0  0  0  0  0  0  0  0  0
   64.4430   32.4810   49.3000 C   0  0  0  0  0  0  0  0  0  0  0  0
   64.1750   33.2930   50.4040 C   0  0  0  0  0  0  0  0  0  0  0  0
   62.8620   33.6830   50.6830 C   0  0  0  0  0  0  0  0  0  0  0  0
   61.8130   33.2520   49.8630 C   0  0  0  0  0  0  0  0  0  0  0  0
   60.2050   32.9960   47.2630 C   0  0  0  0  0  0  0  0  0  0  0  0
   58.8170   32.8210   47.1380 C   0  0  0  0  0  0  0  0  0  0  0  0
   58.0350   33.7990   46.5160 C   0  0  0  0  0  0  0  0  0  0  0  0
   58.6320   34.9610   46.0210 C   0  0  0  0  0  0  0  0  0  0  0  0
   60.0120   35.1480   46.1490 C   0  0  0  0  0  0  0  0  0  0  0  0
   60.7970   34.1700   46.7680 C   0  0  0  0  0  0  0  0  0  0  0  0
   60.5910   30.3150   46.1020 C   0  0  0  0  0  0  0  0  0  0  0  0
   60.5000   28.8040   45.8040 C   0  0  0  0  0  0  0  0  0  0  0  0
   58.8220   26.7470   44.9180 C   0  0  0  0  0  0  0  0  0  0  0  0
   57.3470   26.3760   44.7640 C   0  0  0  0  0  0  0  0  0  0  0  0
   54.7930   23.0580   45.8000 C   0  0  0  0  0  0  0  0  0  0  0  0
   54.3850   24.2350   45.9950 O   0  0  0  0  0  0  0  0  0  0  0  0
   54.0470   22.0150   46.2530 N   0  0  0  0  0  0  0  0  0  0  0  0
   53.5858   19.6356   47.6856 H   0  0  0  0  0  0  0  0  0  0  0  0
   52.5323   19.7360   46.2341 H   0  0  0  0  0  0  0  0  0  0  0  0
   53.9599   18.6457   46.2341 H   0  0  0  0  0  0  0  0  0  0  0  0
   55.8965   19.3923   45.1743 H   0  0  0  0  0  0  0  0  0  0  0  0
   57.2841   21.2701   44.2887 H   0  0  0  0  0  0  0  0  0  0  0  0
   56.5291   24.7610   47.3977 H   0  0  0  0  0  0  0  0  0  0  0  0
   58.1088   24.0212   46.9044 H   0  0  0  0  0  0  0  0  0  0  0  0
   57.4890   26.9311   47.5536 H   0  0  0  0  0  0  0  0  0  0  0  0
   58.7107   25.7981   48.3029 H   0  0  0  0  0  0  0  0  0  0  0  0
   60.7205   25.3691   47.5136 H   0  0  0  0  0  0  0  0  0  0  0  0
   60.1478   24.6750   45.9589 H   0  0  0  0  0  0  0  0  0  0  0  0
   61.3747   25.9870   45.9589 H   0  0  0  0  0  0  0  0  0  0  0  0
   60.6370   27.7650   47.5790 H   0  0  0  0  0  0  0  0  0  0  0  0
   58.1455   29.2306   46.9480 H   0  0  0  0  0  0  0  0  0  0  0  0
   58.3981   28.1817   48.4040 H   0  0  0  0  0  0  0  0  0  0  0  0
   58.8373   30.7990   48.5408 H   0  0  0  0  0  0  0  0  0  0  0  0
   59.9488   29.6120   49.3522 H   0  0  0  0  0  0  0  0  0  0  0  0
   61.6743   30.0178   47.9310 H   0  0  0  0  0  0  0  0  0  0  0  0
   63.6141   31.4231   47.6004 H   0  0  0  0  0  0  0  0  0  0  0  0
   65.4774   32.1803   49.0771 H   0  0  0  0  0  0  0  0  0  0  0  0
   64.9974   33.6258   51.0543 H   0  0  0  0  0  0  0  0  0  0  0  0
   62.6530   34.3294   51.5481 H   0  0  0  0  0  0  0  0  0  0  0  0
   60.7822   33.5706   50.0771 H   0  0  0  0  0  0  0  0  0  0  0  0
   58.3428   31.9098   47.5315 H   0  0  0  0  0  0  0  0  0  0  0  0
   56.9492   33.6534   46.4164 H   0  0  0  0  0  0  0  0  0  0  0  0
   58.0163   35.7292   45.5303 H   0  0  0  0  0  0  0  0  0  0  0  0
   60.4804   36.0651   45.7625 H   0  0  0  0  0  0  0  0  0  0  0  0
   61.8821   34.3205   46.8677 H   0  0  0  0  0  0  0  0  0  0  0  0
   59.6657   30.8061   45.7664 H   0  0  0  0  0  0  0  0  0  0  0  0
   61.4577   30.7305   45.5671 H   0  0  0  0  0  0  0  0  0  0  0  0
   59.9040   28.6688   44.8894 H   0  0  0  0  0  0  0  0  0  0  0  0
   61.5332   28.4414   45.6994 H   0  0  0  0  0  0  0  0  0  0  0  0
   58.9614   27.7776   44.5596 H   0  0  0  0  0  0  0  0  0  0  0  0
   59.4023   26.0201   44.3308 H   0  0  0  0  0  0  0  0  0  0  0  0
   56.7226   27.1432   45.2451 H   0  0  0  0  0  0  0  0  0  0  0  0
   57.0908   26.3159   43.6959 H   0  0  0  0  0  0  0  0  0  0  0  0
  1  2  1  0
  2  3  2  0
  3  4  1  0
  4  5  2  0
  5  6  1  0
  6  7  2  0
  6  8  1  0
  8  9  1  0
  9 10  1  0
 10 11  1  0
 11 12  1  0
 11 13  1  0
 13 14  1  0
 14 15  1  0
 15 16  1  0
 16 17  1  0
 17 18  1  0
 18 19  2  0
 19 20  1  0
 20 21  2  0
 21 22  1  0
 22 23  2  0
 17 24  1  0
 24 25  2  0
 25 26  1  0
 26 27  2  0
 27 28  1  0
 28 29  2  0
 16 30  1  0
 30 31  1  0
 11 32  1  0
 32 33  1  0
  5 34  1  0
 34 35  2  0
 34 36  1  0
 36  2  1  0
 33  8  1  0
 31 13  1  0
 23 18  1  0
 29 24  1  0
  1 37  1  0
  1 38  1  0
  1 39  1  0
  3 40  1  0
  4 41  1  0
  9 42  1  0
  9 43  1  0
 10 44  1  0
 10 45  1  0
 12 46  1  0
 12 47  1  0
 12 48  1  0
 13 49  1  1
 14 50  1  0
 14 51  1  0
 15 52  1  0
 15 53  1  0
 16 54  1  1
 19 55  1  0
 20 56  1  0
 21 57  1  0
 22 58  1  0
 23 59  1  0
 25 60  1  0
 26 61  1  0
 27 62  1  0
 28 63  1  0
 29 64  1  0
 30 65  1  0
 30 66  1  0
 31 67  1  0
 31 68  1  0
 32 69  1  0
 32 70  1  0
 33 71  1  0
 33 72  1  0
M  CHG  2  13   1  36  -1
M  END
>  <UniqueID>  (22) 
21

>  <SMILES>  (22) 
Cc1ccc(C(=O)N2CCC(C)([NH+]3CCC(N(c4ccccc4)c4ccccc4)CC3)CC2)c(=O)[n-]1

>  <Energy>  (22) 
119.58168122620962

>  <Genealogy>  (22) 
Cc1ccc(C(=O)N2CCC(C)([NH+]3CCC(N(c4ccccc4)c4ccccc4)CC3)CC2)c(=O)[n-]1 (protonated)
Cc1ccc(C(=O)N2CCC(C)([NH+]3CCC(N(c4ccccc4)c4ccccc4)CC3)CC2)c(=O)[n-]1 (3D coordinates assigned)
Cc1ccc(C(=O)N2CCC(C)([NH+]3CCC(N(c4ccccc4)c4ccccc4)CC3)CC2)c(=O)[n-]1 (nonaromatic ring conformer: 119.58168122620962 kcal/mol)

>  <smiles>  (22) 
Cc1ccc(C(=O)N2CCC(C)(N3CCC(N(c4ccccc4)c4ccccc4)CC3)CC2)c(=O)[nH]1

>  <score_type>  (22) 
oracle

>  <origin>  (22) 
adg

>  <m_score__min__energy>  (22) 
-8.7300000000000004

>  <m_primary>  (22) 
energy

$$$$
22:0
     RDKit          3D

 48 51  0  0  0  0  0  0  0  0999 V2000
   55.1360   27.4660   46.0330 H   0  0  0  0  0  0  0  0  0  0  0  0
   55.4960   26.4960   46.1830 N   0  0  0  0  0  0  0  0  0  0  0  0
   57.2150   26.5690   46.0370 S   0  0  0  0  0  0  0  0  0  0  0  0
   57.6430   25.8800   44.7710 O   0  0  0  0  0  0  0  0  0  0  0  0
   57.8440   25.8640   47.2070 O   0  0  0  0  0  0  0  0  0  0  0  0
   57.7300   28.2530   45.9930 C   0  0  0  0  0  0  0  0  0  0  0  0
   58.8190   28.6850   46.7610 C   0  0  0  0  0  0  0  0  0  0  0  0
   59.3630   27.9683   47.3938 H   0  0  0  0  0  0  0  0  0  0  0  0
   59.2160   30.0250   46.7250 C   0  0  0  0  0  0  0  0  0  0  0  0
   60.0818   30.3532   47.3189 H   0  0  0  0  0  0  0  0  0  0  0  0
   58.5190   30.9560   45.9370 C   0  0  0  0  0  0  0  0  0  0  0  0
   58.9630   32.3680   45.9070 C   0  0  0  0  0  0  0  0  0  0  0  0
   60.2300   32.6680   46.3080 N   0  0  0  0  0  0  0  0  0  0  0  0
   60.7110   33.9420   46.3330 C   0  0  0  0  0  0  0  0  0  0  0  0
   61.9260   34.1990   46.7210 N   0  0  0  0  0  0  0  0  0  0  0  0
   62.8220   33.3100   47.4080 C   0  0  0  0  0  0  0  0  0  0  0  0
   63.7080   32.6630   46.7860 O   0  0  0  0  0  0  0  0  0  0  0  0
   62.7160   33.1740   48.8940 C   0  0  0  0  0  0  0  0  0  0  0  0
   63.3134   32.3112   49.2238 H   0  0  0  0  0  0  0  0  0  0  0  0
   63.0923   34.0930   49.3671 H   0  0  0  0  0  0  0  0  0  0  0  0
   61.2870   32.9680   49.2920 C   0  0  0  0  0  0  0  0  0  0  0  0
   60.3020   33.9450   49.4070 C   0  0  0  0  0  0  0  0  0  0  0  0
   60.4651   35.0244   49.2720 H   0  0  0  0  0  0  0  0  0  0  0  0
   59.1430   33.3850   49.7020 O   0  0  0  0  0  0  0  0  0  0  0  0
   59.3290   32.0880   49.7710 C   0  0  0  0  0  0  0  0  0  0  0  0
   58.3810   31.1080   50.0390 C   0  0  0  0  0  0  0  0  0  0  0  0
   57.3334   31.3739   50.2434 H   0  0  0  0  0  0  0  0  0  0  0  0
   58.8020   29.7640   50.0410 C   0  0  0  0  0  0  0  0  0  0  0  0
   58.0718   28.9665   50.2431 H   0  0  0  0  0  0  0  0  0  0  0  0
   60.1590   29.4250   49.7850 C   0  0  0  0  0  0  0  0  0  0  0  0
   60.6070   28.0120   49.7760 C   0  0  0  0  0  0  0  0  0  0  0  0
   61.5480   27.6510   50.5360 O   0  0  0  0  0  0  0  0  0  0  0  0
   59.9870   27.0340   48.9370 N   0  0  0  0  0  0  0  0  0  0  0  0
   59.1040   27.2340   48.4190 H   0  0  0  0  0  0  0  0  0  0  0  0
   60.3520   26.0560   48.9200 H   0  0  0  0  0  0  0  0  0  0  0  0
   61.0900   30.4550   49.5120 C   0  0  0  0  0  0  0  0  0  0  0  0
   62.1436   30.2219   49.2984 H   0  0  0  0  0  0  0  0  0  0  0  0
   60.6360   31.7740   49.5210 C   0  0  0  0  0  0  0  0  0  0  0  0
   59.8820   34.9970   45.9400 C   0  0  0  0  0  0  0  0  0  0  0  0
   60.2569   36.0311   45.9521 H   0  0  0  0  0  0  0  0  0  0  0  0
   58.5740   34.7270   45.5320 C   0  0  0  0  0  0  0  0  0  0  0  0
   57.9133   35.5510   45.2244 H   0  0  0  0  0  0  0  0  0  0  0  0
   58.1040   33.4130   45.5140 C   0  0  0  0  0  0  0  0  0  0  0  0
   56.8130   33.1750   45.1720 F   0  0  0  0  0  0  0  0  0  0  0  0
   57.4310   30.5140   45.1610 C   0  0  0  0  0  0  0  0  0  0  0  0
   56.8872   31.2276   44.5245 H   0  0  0  0  0  0  0  0  0  0  0  0
   57.0380   29.1730   45.1950 C   0  0  0  0  0  0  0  0  0  0  0  0
   56.1810   28.8385   44.5920 H   0  0  0  0  0  0  0  0  0  0  0  0
  1  2  1  0
  2  3  1  0
  3  4  2  0
  3  5  2  0
  3  6  1  0
  6  7  2  0
  7  8  1  0
  7  9  1  0
  9 10  1  0
  9 11  2  0
 11 12  1  0
 12 13  1  0
 13 14  1  0
 14 15  2  0
 15 16  1  0
 16 17  2  0
 16 18  1  0
 18 19  1  0
 18 20  1  0
 18 21  1  0
 21 22  2  0
 22 23  1  0
 22 24  1  0
 24 25  1  0
 25 26  2  0
 26 27  1  0
 26 28  1  0
 28 29  1  0
 28 30  2  0
 30 31  1  0
 31 32  2  0
 31 33  1  0
 33 34  1  0
 33 35  1  0
 30 36  1  0
 36 37  1  0
 36 38  2  0
 14 39  1  0
 39 40  1  0
 39 41  2  0
 41 42  1  0
 41 43  1  0
 43 44  1  0
 11 45  1  0
 45 46  1  0
 45 47  2  0
 47 48  1  0
 47  6  1  0
 43 12  2  0
 38 21  1  0
 38 25  1  0
M  CHG  2   2  -1  13  -1
M  END
>  <UniqueID>  (23) 
22

>  <SMILES>  (23) 
[NH-]S(=O)(=O)c1ccc(-c2[n-]/c(=N\C(=O)Cc3coc4ccc(C(N)=O)cc34)ccc2F)cc1

>  <Energy>  (23) 
93.0216941870741

>  <Genealogy>  (23) 
[NH-]S(=O)(=O)c1ccc(-c2[n-]c(=NC(=O)Cc3coc4ccc(C(N)=O)cc34)ccc2F)cc1 (protonated)
[NH-]S(=O)(=O)c1ccc(-c2[n-]/c(=N\C(=O)Cc3coc4ccc(C(N)=O)cc34)ccc2F)cc1 (cis-trans isomerization)
[NH-]S(=O)(=O)c1ccc(-c2[n-]/c(=N\C(=O)Cc3coc4ccc(C(N)=O)cc34)ccc2F)cc1 (3D coordinates assigned)
[NH-]S(=O)(=O)c1ccc(-c2[n-]/c(=N\C(=O)Cc3coc4ccc(C(N)=O)cc34)ccc2F)cc1 (optimized conformer: 93.0216941870741 kcal/mol)

>  <smiles>  (23) 
NC(=O)c1ccc2occ(CC(=O)N=c3ccc(F)c(-c4ccc(S(N)(=O)=O)cc4)[nH]3)c2c1

>  <score_type>  (23) 
oracle

>  <origin>  (23) 
adg

>  <m_score__min__energy>  (23) 
-13.57

>  <m_primary>  (23) 
energy

$$$$
23:0
     RDKit          3D

 75 80  0  0  0  0  0  0  0  0999 V2000
   52.8345   31.6002   51.1944 H   0  0  0  0  0  0  0  0  0  0  0  0
   53.5780   30.9330   51.6550 C   0  0  0  0  0  0  0  0  0  0  0  0
   54.9030   31.2250   51.5620 N   0  0  0  0  0  0  0  0  0  0  0  0
   55.8630   30.4300   52.1130 C   0  0  0  0  0  0  0  0  0  0  0  0
   57.2930   30.8020   51.9930 C   0  0  0  0  0  0  0  0  0  0  0  0
   57.6440   31.9410   51.3380 N   0  0  0  0  0  0  0  0  0  0  0  0
   58.9450   32.3150   51.1940 C   0  0  0  0  0  0  0  0  0  0  0  0
   59.2660   33.3960   50.5460 N   0  0  0  0  0  0  0  0  0  0  0  0
   59.2950   33.5460   49.1170 C   0  0  0  0  0  0  0  0  0  0  0  0
   60.1940   34.4470   48.4830 C   0  0  0  0  0  0  0  0  0  0  0  0
   60.8669   35.0653   49.0953 H   0  0  0  0  0  0  0  0  0  0  0  0
   60.2320   34.5560   47.0820 C   0  0  0  0  0  0  0  0  0  0  0  0
   60.9182   35.2577   46.5853 H   0  0  0  0  0  0  0  0  0  0  0  0
   59.3730   33.7470   46.3440 C   0  0  0  0  0  0  0  0  0  0  0  0
   58.5230   32.8590   46.9470 C   0  0  0  0  0  0  0  0  0  0  0  0
   58.4660   32.7200   48.3320 C   0  0  0  0  0  0  0  0  0  0  0  0
   57.7929   31.9863   48.7996 H   0  0  0  0  0  0  0  0  0  0  0  0
   57.8400   32.1970   45.9500 C   0  0  0  0  0  0  0  0  0  0  0  0
   57.0822   31.4083   46.0668 H   0  0  0  0  0  0  0  0  0  0  0  0
   58.3190   32.7450   44.7610 C   0  0  0  0  0  0  0  0  0  0  0  0
   57.9200   32.3080   43.4110 C   0  0  0  0  0  0  0  0  0  0  0  0
   58.4520   32.8440   42.4060 O   0  0  0  0  0  0  0  0  0  0  0  0
   56.9260   31.3000   43.2100 N   0  0  0  0  0  0  0  0  0  0  0  0
   57.1390   29.8910   43.5140 C   0  0  0  0  0  0  0  0  0  0  0  0
   58.0245   29.7852   44.1579 H   0  0  0  0  0  0  0  0  0  0  0  0
   57.2959   29.3350   42.5779 H   0  0  0  0  0  0  0  0  0  0  0  0
   55.9370   29.3420   44.2240 C   0  0  0  0  0  0  0  0  0  0  0  0
   54.7930   29.7660   43.9150 O   0  0  0  0  0  0  0  0  0  0  0  0
   56.0530   28.3320   45.2320 N   0  0  0  0  0  0  0  0  0  0  0  0
   57.1510   27.3780   45.3230 C   0  0  0  0  0  0  0  0  0  0  0  0
   57.6356   27.2802   44.3403 H   0  0  0  0  0  0  0  0  0  0  0  0
   56.7632   26.3976   45.6366 H   0  0  0  0  0  0  0  0  0  0  0  0
   58.1500   27.8690   46.3280 C   0  0  0  0  0  0  0  0  0  0  0  0
   58.0880   29.1890   46.7960 C   0  0  0  0  0  0  0  0  0  0  0  0
   57.2803   29.8528   46.4541 H   0  0  0  0  0  0  0  0  0  0  0  0
   59.0470   29.6670   47.6950 C   0  0  0  0  0  0  0  0  0  0  0  0
   58.9804   30.7000   48.0670 H   0  0  0  0  0  0  0  0  0  0  0  0
   60.0950   28.8360   48.1260 C   0  0  0  0  0  0  0  0  0  0  0  0
   61.1170   29.3330   49.0730 C   0  0  0  0  0  0  0  0  0  0  0  0
   61.4870   28.5820   50.0170 O   0  0  0  0  0  0  0  0  0  0  0  0
   61.7030   30.6420   48.9400 N   0  0  0  0  0  0  0  0  0  0  0  0
   61.9050   31.2580   47.6220 C   0  0  0  0  0  0  0  0  0  0  0  0
   61.1314   32.0209   47.4500 H   0  0  0  0  0  0  0  0  0  0  0  0
   61.8361   30.4878   46.8396 H   0  0  0  0  0  0  0  0  0  0  0  0
   63.2890   31.9130   47.5790 C   0  0  0  0  0  0  0  0  0  0  0  0
   63.4243   32.3878   46.5960 H   0  0  0  0  0  0  0  0  0  0  0  0
   64.0371   31.1258   47.7541 H   0  0  0  0  0  0  0  0  0  0  0  0
   63.4630   32.9440   48.6340 N   0  0  0  0  0  0  0  0  0  0  0  0
   64.8810   33.0640   49.0120 C   0  0  0  0  0  0  0  0  0  0  0  0
   64.9688   33.0714   50.1085 H   0  0  0  0  0  0  0  0  0  0  0  0
   65.4425   32.2102   48.6050 H   0  0  0  0  0  0  0  0  0  0  0  0
   65.2910   34.0001   48.6050 H   0  0  0  0  0  0  0  0  0  0  0  0
   62.5980   32.7690   49.8280 C   0  0  0  0  0  0  0  0  0  0  0  0
   61.6541   33.3080   49.6591 H   0  0  0  0  0  0  0  0  0  0  0  0
   63.1480   33.1659   50.6940 H   0  0  0  0  0  0  0  0  0  0  0  0
   62.2750   31.2970   50.1240 C   0  0  0  0  0  0  0  0  0  0  0  0
   61.5507   31.2455   50.9503 H   0  0  0  0  0  0  0  0  0  0  0  0
   63.2058   30.7794   50.3991 H   0  0  0  0  0  0  0  0  0  0  0  0
   60.1490   27.5100   47.6640 C   0  0  0  0  0  0  0  0  0  0  0  0
   60.9503   26.8423   48.0133 H   0  0  0  0  0  0  0  0  0  0  0  0
   59.1910   27.0330   46.7630 C   0  0  0  0  0  0  0  0  0  0  0  0
   59.2535   25.9987   46.3938 H   0  0  0  0  0  0  0  0  0  0  0  0
   59.2660   33.6820   45.0070 N   0  0  0  0  0  0  0  0  0  0  0  0
   59.8370   34.2090   44.3100 H   0  0  0  0  0  0  0  0  0  0  0  0
   59.9280   31.5270   51.7030 N   0  0  0  0  0  0  0  0  0  0  0  0
   59.6340   30.3830   52.3710 C   0  0  0  0  0  0  0  0  0  0  0  0
   60.4436   29.7627   52.7830 H   0  0  0  0  0  0  0  0  0  0  0  0
   58.3040   29.9940   52.5350 C   0  0  0  0  0  0  0  0  0  0  0  0
   58.0529   29.0714   53.0789 H   0  0  0  0  0  0  0  0  0  0  0  0
   55.4740   29.2650   52.8010 C   0  0  0  0  0  0  0  0  0  0  0  0
   56.2327   28.6068   53.2494 H   0  0  0  0  0  0  0  0  0  0  0  0
   54.1160   28.9510   52.9100 C   0  0  0  0  0  0  0  0  0  0  0  0
   53.8015   28.0453   53.4492 H   0  0  0  0  0  0  0  0  0  0  0  0
   53.1610   29.7880   52.3340 C   0  0  0  0  0  0  0  0  0  0  0  0
   52.0905   29.5480   52.4142 H   0  0  0  0  0  0  0  0  0  0  0  0
  1  2  1  0
  2  3  2  0
  3  4  1  0
  4  5  1  0
  5  6  2  0
  6  7  1  0
  7  8  2  0
  8  9  1  0
  9 10  2  0
 10 11  1  0
 10 12  1  0
 12 13  1  0
 12 14  2  0
 14 15  1  0
 15 16  2  0
 16 17  1  0
 15 18  1  0
 18 19  1  0
 18 20  2  0
 20 21  1  0
 21 22  2  0
 21 23  1  0
 23 24  1  0
 24 25  1  0
 24 26  1  0
 24 27  1  0
 27 28  2  0
 27 29  1  0
 29 30  1  0
 30 31  1  0
 30 32  1  0
 30 33  1  0
 33 34  2  0
 34 35  1  0
 34 36  1  0
 36 37  1  0
 36 38  2  0
 38 39  1  0
 39 40  2  0
 39 41  1  0
 41 42  1  0
 42 43  1  0
 42 44  1  0
 42 45  1  0
 45 46  1  0
 45 47  1  0
 45 48  1  0
 48 49  1  0
 49 50  1  0
 49 51  1  0
 49 52  1  0
 48 53  1  0
 53 54  1  0
 53 55  1  0
 53 56  1  0
 56 57  1  0
 56 58  1  0
 38 59  1  0
 59 60  1  0
 59 61  2  0
 61 62  1  0
 20 63  1  0
 63 64  1  0
  7 65  1  0
 65 66  1  0
 66 67  1  0
 66 68  2  0
 68 69  1  0
  4 70  2  0
 70 71  1  0
 70 72  1  0
 72 73  1  0
 72 74  2  0
 74 75  1  0
 74  2  1  0
 68  5  1  0
 16  9  1  0
 61 33  1  0
 63 14  1  0
 56 41  1  0
M  CHG  3  23  -1  29  -1  65  -1
M  END
>  <UniqueID>  (24) 
23

>  <SMILES>  (24) 
CN1CCN(C(=O)c2ccc(C[N-]C(=O)C[N-]C(=O)c3cc4cc(/N=c5\nc(-c6ccccn6)cc[n-]5)ccc4[nH]3)cc2)CC1

>  <Energy>  (24) 
134.86451652626127

>  <Genealogy>  (24) 
CN1CCN(C(=O)c2ccc(C[N-]C(=O)C[N-]C(=O)c3cc4cc(N=c5nc(-c6ccccn6)cc[n-]5)ccc4[nH]3)cc2)CC1 (protonated)
CN1CCN(C(=O)c2ccc(C[N-]C(=O)C[N-]C(=O)c3cc4cc(/N=c5\nc(-c6ccccn6)cc[n-]5)ccc4[nH]3)cc2)CC1 (cis-trans isomerization)
CN1CCN(C(=O)c2ccc(C[N-]C(=O)C[N-]C(=O)c3cc4cc(/N=c5\nc(-c6ccccn6)cc[n-]5)ccc4[nH]3)cc2)CC1 (3D coordinates assigned)
CN1CCN(C(=O)c2ccc(C[N-]C(=O)C[N-]C(=O)c3cc4cc(/N=c5\nc(-c6ccccn6)cc[n-]5)ccc4[nH]3)cc2)CC1 (nonaromatic ring conformer: 134.86451652626127 kcal/mol)

>  <smiles>  (24) 
CN1CCN(C(=O)c2ccc(CNC(=O)CNC(=O)c3cc4cc(N=c5nc(-c6ccccn6)cc[nH]5)ccc4[nH]3)cc2)CC1

>  <score_type>  (24) 
oracle

>  <origin>  (24) 
adg

>  <m_score__min__energy>  (24) 
-14.029999999999999

>  <m_primary>  (24) 
energy

$$$$
24:0
     RDKit          3D

 45 47  0  0  0  0  0  0  0  0999 V2000
   58.4070   33.4590   45.6570 C   0  0  0  0  0  0  0  0  0  0  0  0
   57.8830   32.5780   44.5590 C   0  0  0  0  0  0  0  0  0  0  0  0
   58.2890   32.7730   43.2300 C   0  0  0  0  0  0  0  0  0  0  0  0
   57.8160   31.9320   42.2200 C   0  0  0  0  0  0  0  0  0  0  0  0
   56.9480   30.8820   42.5290 C   0  0  0  0  0  0  0  0  0  0  0  0
   56.5400   30.6620   43.8570 C   0  0  0  0  0  0  0  0  0  0  0  0
   55.6360   29.5370   44.1870 C   0  0  0  0  0  0  0  0  0  0  0  0
   54.5590   29.3850   43.5490 O   0  0  0  0  0  0  0  0  0  0  0  0
   55.9710   28.6230   45.2390 N   0  0  0  0  0  0  0  0  0  0  0  0
   57.1740   27.7980   45.2390 C   0  0  0  0  0  0  0  0  0  0  0  0
   58.3240   28.5590   45.8440 C   0  0  0  0  0  0  0  0  0  0  0  0
   58.1780   29.1740   47.0970 C   0  0  0  0  0  0  0  0  0  0  0  0
   59.2300   29.9100   47.6500 C   0  0  0  0  0  0  0  0  0  0  0  0
   60.4410   30.0560   46.9510 C   0  0  0  0  0  0  0  0  0  0  0  0
   61.5490   30.8450   47.5380 C   0  0  0  0  0  0  0  0  0  0  0  0
   62.4020   31.3780   46.7760 O   0  0  0  0  0  0  0  0  0  0  0  0
   61.6930   30.9550   48.9640 N   0  0  0  0  0  0  0  0  0  0  0  0
   62.4960   31.9570   49.6090 C   0  0  0  0  0  0  0  0  0  0  0  0
   61.9260   32.8930   50.4930 C   0  0  0  0  0  0  0  0  0  0  0  0
   62.7340   33.8420   51.1310 C   0  0  0  0  0  0  0  0  0  0  0  0
   64.1120   33.8580   50.9020 C   0  0  0  0  0  0  0  0  0  0  0  0
   64.8910   34.7780   51.5250 F   0  0  0  0  0  0  0  0  0  0  0  0
   64.6890   32.9200   50.0390 C   0  0  0  0  0  0  0  0  0  0  0  0
   66.0270   32.9300   49.8190 F   0  0  0  0  0  0  0  0  0  0  0  0
   63.8850   31.9700   49.4010 C   0  0  0  0  0  0  0  0  0  0  0  0
   60.5830   29.4390   45.6960 C   0  0  0  0  0  0  0  0  0  0  0  0
   59.5310   28.6990   45.1460 C   0  0  0  0  0  0  0  0  0  0  0  0
   57.0160   31.5190   44.8690 C   0  0  0  0  0  0  0  0  0  0  0  0
   58.1474   33.0225   46.6327 H   0  0  0  0  0  0  0  0  0  0  0  0
   59.5006   33.5407   45.5712 H   0  0  0  0  0  0  0  0  0  0  0  0
   57.9568   34.4590   45.5712 H   0  0  0  0  0  0  0  0  0  0  0  0
   58.9820   33.5907   42.9828 H   0  0  0  0  0  0  0  0  0  0  0  0
   58.1280   32.0970   41.1782 H   0  0  0  0  0  0  0  0  0  0  0  0
   56.5811   30.2228   41.7284 H   0  0  0  0  0  0  0  0  0  0  0  0
   56.9905   26.8873   45.8280 H   0  0  0  0  0  0  0  0  0  0  0  0
   57.4260   27.5293   44.2025 H   0  0  0  0  0  0  0  0  0  0  0  0
   57.2304   29.0763   47.6471 H   0  0  0  0  0  0  0  0  0  0  0  0
   59.1095   30.3778   48.6382 H   0  0  0  0  0  0  0  0  0  0  0  0
   61.2900   30.1960   49.5580 H   0  0  0  0  0  0  0  0  0  0  0  0
   60.8426   32.8787   50.6830 H   0  0  0  0  0  0  0  0  0  0  0  0
   62.2827   34.5766   51.8141 H   0  0  0  0  0  0  0  0  0  0  0  0
   64.3438   31.2276   48.7314 H   0  0  0  0  0  0  0  0  0  0  0  0
   61.5283   29.5388   45.1424 H   0  0  0  0  0  0  0  0  0  0  0  0
   59.6518   28.2247   44.1609 H   0  0  0  0  0  0  0  0  0  0  0  0
   56.7052   31.3565   45.9116 H   0  0  0  0  0  0  0  0  0  0  0  0
  1  2  1  0
  2  3  2  0
  3  4  1  0
  4  5  2  0
  5  6  1  0
  6  7  1  0
  7  8  2  0
  7  9  1  0
  9 10  1  0
 10 11  1  0
 11 12  2  0
 12 13  1  0
 13 14  2  0
 14 15  1  0
 15 16  2  0
 15 17  1  0
 17 18  1  0
 18 19  2  0
 19 20  1  0
 20 21  2  0
 21 22  1  0
 21 23  1  0
 23 24  1  0
 23 25  2  0
 14 26  1  0
 26 27  2  0
  6 28  2  0
 28  2  1  0
 27 11  1  0
 25 18  1  0
  1 29  1  0
  1 30  1  0
  1 31  1  0
  3 32  1  0
  4 33  1  0
  5 34  1  0
 10 35  1  0
 10 36  1  0
 12 37  1  0
 13 38  1  0
 17 39  1  0
 19 40  1  0
 20 41  1  0
 25 42  1  0
 26 43  1  0
 27 44  1  0
 28 45  1  0
M  CHG  1   9  -1
M  END
>  <UniqueID>  (25) 
24

>  <SMILES>  (25) 
Cc1cccc(C(=O)[N-]Cc2ccc(C(=O)Nc3ccc(F)c(F)c3)cc2)c1

>  <Energy>  (25) 
51.29443907770005

>  <Genealogy>  (25) 
Cc1cccc(C(=O)[N-]Cc2ccc(C(=O)Nc3ccc(F)c(F)c3)cc2)c1 (protonated)
Cc1cccc(C(=O)[N-]Cc2ccc(C(=O)Nc3ccc(F)c(F)c3)cc2)c1 (3D coordinates assigned)
Cc1cccc(C(=O)[N-]Cc2ccc(C(=O)Nc3ccc(F)c(F)c3)cc2)c1 (optimized conformer: 51.29443907770005 kcal/mol)

>  <smiles>  (25) 
Cc1cccc(C(=O)NCc2ccc(C(=O)Nc3ccc(F)c(F)c3)cc2)c1

>  <score_type>  (25) 
oracle

>  <origin>  (25) 
adg

>  <m_score__min__energy>  (25) 
-9.8100000000000005

>  <m_primary>  (25) 
energy

$$$$
25:0
     RDKit          3D

 39 41  0  0  0  0  0  0  0  0999 V2000
   55.1890   29.3260   44.5120 N   0  0  0  0  0  0  0  0  0  0  0  0
   56.6470   29.7980   43.7130 S   0  0  0  0  0  0  0  0  0  0  0  0
   56.2790   30.6060   42.5000 O   0  0  0  0  0  0  0  0  0  0  0  0
   57.3940   28.5650   43.2890 O   0  0  0  0  0  0  0  0  0  0  0  0
   57.6600   30.7590   44.8050 C   0  0  0  0  0  0  0  0  0  0  0  0
   57.6170   32.1590   44.7050 C   0  0  0  0  0  0  0  0  0  0  0  0
   58.4330   32.9550   45.5100 C   0  0  0  0  0  0  0  0  0  0  0  0
   59.3040   32.3640   46.4250 C   0  0  0  0  0  0  0  0  0  0  0  0
   59.3510   30.9740   46.5470 C   0  0  0  0  0  0  0  0  0  0  0  0
   58.5260   30.1590   45.7540 C   0  0  0  0  0  0  0  0  0  0  0  0
   58.5900   28.6960   45.9480 C   0  0  0  0  0  0  0  0  0  0  0  0
   57.4230   27.9620   46.1980 C   0  0  0  0  0  0  0  0  0  0  0  0
   57.4870   26.5780   46.3890 C   0  0  0  0  0  0  0  0  0  0  0  0
   58.7270   25.9150   46.3570 C   0  0  0  0  0  0  0  0  0  0  0  0
   58.8320   24.4930   46.5260 N   0  0  0  0  0  0  0  0  0  0  0  0
   58.7110   23.4990   45.5010 C   0  0  0  0  0  0  0  0  0  0  0  0
   59.5920   22.6100   45.3570 O   0  0  0  0  0  0  0  0  0  0  0  0
   57.5790   23.5830   44.5290 C   0  0  0  0  0  0  0  0  0  0  0  0
   56.3070   23.1370   45.1810 C   0  0  0  0  0  0  0  0  0  0  0  0
   55.0960   23.2390   44.6040 N   0  0  0  0  0  0  0  0  0  0  0  0
   54.2700   22.6720   45.5090 C   0  0  0  0  0  0  0  0  0  0  0  0
   53.0280   22.5800   45.3300 O   0  0  0  0  0  0  0  0  0  0  0  0
   54.8810   22.2080   46.6210 N   0  0  0  0  0  0  0  0  0  0  0  0
   56.1710   22.5030   46.3970 C   0  0  0  0  0  0  0  0  0  0  0  0
   57.1940   22.1890   47.2890 O   0  0  0  0  0  0  0  0  0  0  0  0
   59.8910   26.6520   46.0990 C   0  0  0  0  0  0  0  0  0  0  0  0
   61.0940   26.0270   46.0430 F   0  0  0  0  0  0  0  0  0  0  0  0
   59.8260   28.0350   45.9080 C   0  0  0  0  0  0  0  0  0  0  0  0
   55.1550   28.2810   44.4920 H   0  0  0  0  0  0  0  0  0  0  0  0
   56.9335   32.6329   43.9851 H   0  0  0  0  0  0  0  0  0  0  0  0
   58.3891   34.0507   45.4227 H   0  0  0  0  0  0  0  0  0  0  0  0
   59.9541   32.9932   47.0507 H   0  0  0  0  0  0  0  0  0  0  0  0
   60.0399   30.5130   47.2702 H   0  0  0  0  0  0  0  0  0  0  0  0
   56.4519   28.4767   46.2443 H   0  0  0  0  0  0  0  0  0  0  0  0
   56.5641   26.0059   46.5649 H   0  0  0  0  0  0  0  0  0  0  0  0
   57.4681   24.6231   44.1886 H   0  0  0  0  0  0  0  0  0  0  0  0
   57.7922   22.9290   43.6706 H   0  0  0  0  0  0  0  0  0  0  0  0
   58.1390   22.5240   47.1490 H   0  0  0  0  0  0  0  0  0  0  0  0
   60.7477   28.6070   45.7256 H   0  0  0  0  0  0  0  0  0  0  0  0
  1  2  1  0
  2  3  2  0
  2  4  2  0
  2  5  1  0
  5  6  2  0
  6  7  1  0
  7  8  2  0
  8  9  1  0
  9 10  2  0
 10 11  1  0
 11 12  2  0
 12 13  1  0
 13 14  2  0
 14 15  1  0
 15 16  1  0
 16 17  2  0
 16 18  1  0
 18 19  1  0
 19 20  1  0
 20 21  1  0
 21 22  2  0
 21 23  1  0
 23 24  1  0
 24 25  1  0
 14 26  1  0
 26 27  1  0
 26 28  2  0
 10  5  1  0
 28 11  1  0
 24 19  2  0
  1 29  1  0
  6 30  1  0
  7 31  1  0
  8 32  1  0
  9 33  1  0
 12 34  1  0
 13 35  1  0
 18 36  1  0
 18 37  1  0
 25 38  1  0
 28 39  1  0
M  CHG  4   1  -1  15  -1  20  -1  23  -1
M  END
>  <UniqueID>  (26) 
25

>  <SMILES>  (26) 
[NH-]S(=O)(=O)c1ccccc1-c1ccc([N-]C(=O)Cc2[n-]c(=O)[n-]c2O)c(F)c1

>  <Energy>  (26) 
79.97410307046762

>  <Genealogy>  (26) 
[NH-]S(=O)(=O)c1ccccc1-c1ccc([N-]C(=O)Cc2[n-]c(=O)[n-]c2O)c(F)c1 (protonated)
[NH-]S(=O)(=O)c1ccccc1-c1ccc([N-]C(=O)Cc2[n-]c(=O)[n-]c2O)c(F)c1 (3D coordinates assigned)
[NH-]S(=O)(=O)c1ccccc1-c1ccc([N-]C(=O)Cc2[n-]c(=O)[n-]c2O)c(F)c1 (optimized conformer: 79.97410307046762 kcal/mol)

>  <smiles>  (26) 
NS(=O)(=O)c1ccccc1-c1ccc(NC(=O)Cc2[nH]c(=O)[nH]c2O)c(F)c1

>  <score_type>  (26) 
oracle

>  <origin>  (26) 
adg

>  <m_score__min__energy>  (26) 
-15.789999999999999

>  <m_primary>  (26) 
energy

$$$$
26:0
     RDKit          3D

 59 62  0  0  1  0  0  0  0  0999 V2000
   55.2800   31.2130   51.6220 N   0  0  0  0  0  0  0  0  0  0  0  0
   56.8000   30.5880   52.0840 S   0  0  0  0  0  0  0  0  0  0  0  0
   56.8090   29.0830   52.1130 O   0  0  0  0  0  0  0  0  0  0  0  0
   57.1560   31.0180   53.5040 O   0  0  0  0  0  0  0  0  0  0  0  0
   58.0900   31.0810   51.0080 C   0  0  0  0  0  0  0  0  0  0  0  0
   58.2600   32.4340   50.7270 C   0  0  0  0  0  0  0  0  0  0  0  0
   59.2600   32.8170   49.8620 C   0  0  0  0  0  0  0  0  0  0  0  0
   60.0940   31.8990   49.2710 C   0  0  0  0  0  0  0  0  0  0  0  0
   59.8970   30.5480   49.5740 C   0  0  0  0  0  0  0  0  0  0  0  0
   60.7800   29.5930   48.8760 C   0  0  0  0  0  0  0  0  0  0  0  0
   60.5020   28.2140   49.0750 N   0  0  0  0  0  0  0  0  0  0  0  0
   60.0850   27.4000   48.1750 C   0  0  0  0  0  0  0  0  0  0  0  0
   58.7770   27.3370   47.7200 C   0  0  0  0  0  0  0  0  0  0  0  0
   58.7900   26.3940   46.7300 C   0  0  0  0  0  0  0  0  0  0  0  0
   57.6960   25.8730   45.8680 C   0  0  0  0  0  0  0  0  0  0  0  0
   56.6670   26.9190   45.6260 C   0  0  0  0  0  0  0  0  0  0  0  0
   55.4690   26.7430   45.9920 O   0  0  0  0  0  0  0  0  0  0  0  0
   57.1040   28.1070   44.9670 N   0  0  0  0  0  0  0  0  0  0  0  0
   58.4330   28.3470   44.5020 C   0  0  0  0  0  0  0  0  0  0  0  0
   58.8190   29.7300   44.9820 C   0  0  0  0  0  0  0  0  0  0  0  0
   58.0090   30.7370   44.1920 C   0  0  0  0  0  0  0  0  0  0  0  0
   58.1010   32.0530   44.8690 C   0  0  0  0  0  0  0  0  0  0  0  0
   57.9330   32.1280   46.2430 C   0  0  0  0  0  0  0  0  0  0  0  0
   58.0180   33.3360   46.9240 C   0  0  0  0  0  0  0  0  0  0  0  0
   58.2800   34.5060   46.2170 C   0  0  0  0  0  0  0  0  0  0  0  0
   58.4470   34.4340   44.8460 C   0  0  0  0  0  0  0  0  0  0  0  0
   58.3580   33.2240   44.1870 C   0  0  0  0  0  0  0  0  0  0  0  0
   56.6140   30.2780   43.9150 C   0  0  0  0  0  0  0  0  0  0  0  0
   56.1160   29.1500   44.7450 C   0  0  0  0  0  0  0  0  0  0  0  0
   60.0580   25.9210   46.6090 N   0  0  0  0  0  0  0  0  0  0  0  0
   60.8330   26.5350   47.4870 N   0  0  0  0  0  0  0  0  0  0  0  0
   58.9170   30.1160   50.4280 C   0  0  0  0  0  0  0  0  0  0  0  0
   55.1970   31.2270   50.6040 H   0  0  0  0  0  0  0  0  0  0  0  0
   55.2520   32.2070   51.9420 H   0  0  0  0  0  0  0  0  0  0  0  0
   57.6044   33.1864   51.1897 H   0  0  0  0  0  0  0  0  0  0  0  0
   59.3948   33.8855   49.6382 H   0  0  0  0  0  0  0  0  0  0  0  0
   60.8906   32.2163   48.5820 H   0  0  0  0  0  0  0  0  0  0  0  0
   60.7073   29.7968   47.7975 H   0  0  0  0  0  0  0  0  0  0  0  0
   61.7806   29.7540   49.3036 H   0  0  0  0  0  0  0  0  0  0  0  0
   57.9153   27.9195   48.0779 H   0  0  0  0  0  0  0  0  0  0  0  0
   58.1183   25.5534   44.9039 H   0  0  0  0  0  0  0  0  0  0  0  0
   57.2199   25.0235   46.3795 H   0  0  0  0  0  0  0  0  0  0  0  0
   59.1212   27.5959   44.9170 H   0  0  0  0  0  0  0  0  0  0  0  0
   58.4866   28.2796   43.4054 H   0  0  0  0  0  0  0  0  0  0  0  0
   58.5964   29.8295   46.0546 H   0  0  0  0  0  0  0  0  0  0  0  0
   59.8954   29.9016   44.8339 H   0  0  0  0  0  0  0  0  0  0  0  0
   58.4369   30.8443   43.1843 H   0  0  0  0  0  0  0  0  0  0  0  0
   57.7271   31.2073   46.8087 H   0  0  0  0  0  0  0  0  0  0  0  0
   57.8792   33.3676   48.0147 H   0  0  0  0  0  0  0  0  0  0  0  0
   58.3530   35.4712   46.7396 H   0  0  0  0  0  0  0  0  0  0  0  0
   58.6530   35.3509   44.2743 H   0  0  0  0  0  0  0  0  0  0  0  0
   58.4948   33.1933   43.0960 H   0  0  0  0  0  0  0  0  0  0  0  0
   55.9415   31.1339   44.0741 H   0  0  0  0  0  0  0  0  0  0  0  0
   56.6290   29.8988   42.8825 H   0  0  0  0  0  0  0  0  0  0  0  0
   55.8060   29.5484   45.7223 H   0  0  0  0  0  0  0  0  0  0  0  0
   55.2814   28.6904   44.1952 H   0  0  0  0  0  0  0  0  0  0  0  0
   60.3760   25.1880   45.9360 H   0  0  0  0  0  0  0  0  0  0  0  0
   61.8620   26.3150   47.5610 H   0  0  0  0  0  0  0  0  0  0  0  0
   58.7858   29.0465   50.6494 H   0  0  0  0  0  0  0  0  0  0  0  0
  1  2  1  0
  2  3  2  0
  2  4  2  0
  2  5  1  0
  5  6  2  0
  6  7  1  0
  7  8  2  0
  8  9  1  0
  9 10  1  0
 10 11  1  0
 11 12  2  0
 12 13  1  0
 13 14  2  0
 14 15  1  0
 15 16  1  0
 16 17  2  0
 16 18  1  0
 18 19  1  0
 19 20  1  0
 20 21  1  0
 21 22  1  0
 22 23  2  0
 23 24  1  0
 24 25  2  0
 25 26  1  0
 26 27  2  0
 21 28  1  0
 28 29  1  0
 14 30  1  0
 30 31  1  0
  9 32  2  0
 32  5  1  0
 31 12  1  0
 29 18  1  0
 27 22  1  0
  1 33  1  0
  1 34  1  0
  6 35  1  0
  7 36  1  0
  8 37  1  0
 10 38  1  0
 10 39  1  0
 13 40  1  0
 15 41  1  0
 15 42  1  0
 19 43  1  0
 19 44  1  0
 20 45  1  0
 20 46  1  0
 21 47  1  0
 23 48  1  0
 24 49  1  0
 25 50  1  0
 26 51  1  0
 27 52  1  0
 28 53  1  0
 28 54  1  0
 29 55  1  0
 29 56  1  0
 30 57  1  0
 31 58  1  0
 32 59  1  0
M  END
>  <smiles>  (27) 
NS(=O)(=O)c1cccc(CN=c2cc(CC(=O)N3CCC(c4ccccc4)CC3)[nH][nH]2)c1

>  <score_type>  (27) 
oracle

>  <origin>  (27) 
adg

>  <m_score__min__energy>  (27) 
-10.33

>  <m_primary>  (27) 
energy

$$$$
27:0
     RDKit          3D

 42 45  0  0  0  0  0  0  0  0999 V2000
   59.5980   29.5080   49.7650 H   0  0  0  0  0  0  0  0  0  0  0  0
   58.8630   29.9020   49.1900 O   0  0  0  0  0  0  0  0  0  0  0  0
   59.0610   31.1010   48.5130 C   0  0  0  0  0  0  0  0  0  0  0  0
   58.9740   32.3130   49.1140 N   0  0  0  0  0  0  0  0  0  0  0  0
   59.2420   33.1870   48.1260 C   0  0  0  0  0  0  0  0  0  0  0  0
   59.2850   34.5770   48.2370 C   0  0  0  0  0  0  0  0  0  0  0  0
   59.0795   35.0754   49.1958 H   0  0  0  0  0  0  0  0  0  0  0  0
   59.5990   35.3220   47.0860 C   0  0  0  0  0  0  0  0  0  0  0  0
   59.6390   36.4199   47.1406 H   0  0  0  0  0  0  0  0  0  0  0  0
   59.8630   34.6720   45.8620 C   0  0  0  0  0  0  0  0  0  0  0  0
   60.1079   35.2662   44.9693 H   0  0  0  0  0  0  0  0  0  0  0  0
   59.8150   33.2690   45.7760 C   0  0  0  0  0  0  0  0  0  0  0  0
   60.0237   32.7509   44.8284 H   0  0  0  0  0  0  0  0  0  0  0  0
   59.4940   32.5550   46.9320 C   0  0  0  0  0  0  0  0  0  0  0  0
   59.3710   31.2020   47.1620 C   0  0  0  0  0  0  0  0  0  0  0  0
   59.5630   30.0790   46.1830 C   0  0  0  0  0  0  0  0  0  0  0  0
   59.9882   29.2122   46.7101 H   0  0  0  0  0  0  0  0  0  0  0  0
   60.2426   30.4216   45.3888 H   0  0  0  0  0  0  0  0  0  0  0  0
   58.2480   29.6750   45.5480 C   0  0  0  0  0  0  0  0  0  0  0  0
   57.6580   30.3420   44.4740 C   0  0  0  0  0  0  0  0  0  0  0  0
   58.1290   31.6240   43.8490 C   0  0  0  0  0  0  0  0  0  0  0  0
   58.3928   32.3420   44.6395 H   0  0  0  0  0  0  0  0  0  0  0  0
   59.0126   31.4247   43.2249 H   0  0  0  0  0  0  0  0  0  0  0  0
   57.3265   32.0442   43.2249 H   0  0  0  0  0  0  0  0  0  0  0  0
   56.6300   29.5290   44.0170 C   0  0  0  0  0  0  0  0  0  0  0  0
   55.8410   29.7590   42.9660 C   0  0  0  0  0  0  0  0  0  0  0  0
   55.9645   30.6795   42.3766 H   0  0  0  0  0  0  0  0  0  0  0  0
   55.0670   29.0281   42.6889 H   0  0  0  0  0  0  0  0  0  0  0  0
   56.5360   28.4270   44.7820 N   0  0  0  0  0  0  0  0  0  0  0  0
   55.8370   27.6570   44.6640 H   0  0  0  0  0  0  0  0  0  0  0  0
   57.4880   28.5040   45.7350 C   0  0  0  0  0  0  0  0  0  0  0  0
   57.5990   27.5500   46.6790 C   0  0  0  0  0  0  0  0  0  0  0  0
   58.0037   27.8566   47.6548 H   0  0  0  0  0  0  0  0  0  0  0  0
   57.2270   26.1310   46.5230 C   0  0  0  0  0  0  0  0  0  0  0  0
   55.8990   25.7490   46.2680 C   0  0  0  0  0  0  0  0  0  0  0  0
   54.8880   26.7000   46.1890 O   0  0  0  0  0  0  0  0  0  0  0  0
   55.5940   24.4370   46.0930 N   0  0  0  0  0  0  0  0  0  0  0  0
   56.5550   23.4810   46.1430 C   0  0  0  0  0  0  0  0  0  0  0  0
   56.2480   22.2720   45.9820 O   0  0  0  0  0  0  0  0  0  0  0  0
   57.8500   23.8280   46.3590 N   0  0  0  0  0  0  0  0  0  0  0  0
   58.2070   25.1260   46.5400 C   0  0  0  0  0  0  0  0  0  0  0  0
   59.4190   25.4130   46.7320 O   0  0  0  0  0  0  0  0  0  0  0  0
  1  2  1  0
  2  3  1  0
  3  4  1  0
  4  5  1  0
  5  6  2  0
  6  7  1  0
  6  8  1  0
  8  9  1  0
  8 10  2  0
 10 11  1  0
 10 12  1  0
 12 13  1  0
 12 14  2  0
 14 15  1  0
 15 16  1  0
 16 17  1  0
 16 18  1  0
 16 19  1  0
 19 20  2  0
 20 21  1  0
 21 22  1  0
 21 23  1  0
 21 24  1  0
 20 25  1  0
 25 26  2  0
 26 27  1  0
 26 28  1  0
 25 29  1  0
 29 30  1  0
 29 31  1  0
 31 32  2  0
 32 33  1  0
 32 34  1  0
 34 35  2  0
 35 36  1  0
 35 37  1  0
 37 38  1  0
 38 39  2  0
 38 40  1  0
 40 41  1  0
 41 42  2  0
 15  3  2  0
 31 19  1  0
 41 34  1  0
 14  5  1  0
M  CHG  4   4  -1  36  -1  37  -1  40  -1
M  END
>  <UniqueID>  (28) 
26

>  <SMILES>  (28) 
C=c1[nH]/c(=C/c2c([O-])[n-]c(=O)[n-]c2=O)c(Cc2c(O)[n-]c3ccccc23)c1C

>  <Energy>  (28) 
117.17132390536828

>  <Genealogy>  (28) 
C=c1[nH]c(=Cc2c([O-])[n-]c(=O)[n-]c2=O)c(Cc2c(O)[n-]c3ccccc23)c1C (protonated)
C=c1[nH]/c(=C/c2c([O-])[n-]c(=O)[n-]c2=O)c(Cc2c(O)[n-]c3ccccc23)c1C (cis-trans isomerization)
C=c1[nH]/c(=C/c2c([O-])[n-]c(=O)[n-]c2=O)c(Cc2c(O)[n-]c3ccccc23)c1C (3D coordinates assigned)
C=c1[nH]/c(=C/c2c([O-])[n-]c(=O)[n-]c2=O)c(Cc2c(O)[n-]c3ccccc23)c1C (optimized conformer: 117.17132390536828 kcal/mol)

>  <smiles>  (28) 
C=c1[nH]c(=Cc2c(O)[nH]c(=O)[nH]c2=O)c(Cc2c(O)[nH]c3ccccc23)c1C

>  <score_type>  (28) 
oracle

>  <origin>  (28) 
adg

>  <m_score__min__energy>  (28) 
-16.52

>  <m_primary>  (28) 
energy

$$$$
28:0
     RDKit          3D

 66 69  0  0  0  0  0  0  0  0999 V2000
   54.4260   29.8080   52.4290 C   0  0  0  0  0  0  0  0  0  0  0  0
   55.8060   29.6480   52.9120 N   0  0  0  0  0  0  0  0  0  0  0  0
   56.0660   28.7160   54.0160 C   0  0  0  0  0  0  0  0  0  0  0  0
   56.9050   30.2990   52.2240 C   0  0  0  0  0  0  0  0  0  0  0  0
   58.1870   29.7120   52.2010 C   0  0  0  0  0  0  0  0  0  0  0  0
   59.2360   30.3550   51.5430 C   0  0  0  0  0  0  0  0  0  0  0  0
   59.0140   31.5760   50.9050 C   0  0  0  0  0  0  0  0  0  0  0  0
   60.0830   32.2500   50.2270 N   0  0  0  0  0  0  0  0  0  0  0  0
   60.5350   33.5340   50.7830 C   0  0  0  0  0  0  0  0  0  0  0  0
   61.7240   34.1400   50.0220 C   0  0  0  0  0  0  0  0  0  0  0  0
   61.6430   33.9290   48.5630 N   0  0  0  0  0  0  0  0  0  0  0  0
   60.4770   34.5840   47.9220 C   0  0  0  0  0  0  0  0  0  0  0  0
   60.5660   34.5450   46.3900 C   0  0  0  0  0  0  0  0  0  0  0  0
   59.4800   33.6610   45.8350 C   0  0  0  0  0  0  0  0  0  0  0  0
   59.0480   33.8350   44.5110 C   0  0  0  0  0  0  0  0  0  0  0  0
   57.9920   33.0740   44.0080 C   0  0  0  0  0  0  0  0  0  0  0  0
   57.3450   32.1310   44.8260 C   0  0  0  0  0  0  0  0  0  0  0  0
   56.2700   31.3260   44.3270 N   0  0  0  0  0  0  0  0  0  0  0  0
   56.2180   29.8960   44.4080 C   0  0  0  0  0  0  0  0  0  0  0  0
   55.2020   29.3270   44.8980 O   0  0  0  0  0  0  0  0  0  0  0  0
   57.4040   29.0800   43.9970 C   0  0  0  0  0  0  0  0  0  0  0  0
   58.3870   28.9760   45.1340 C   0  0  0  0  0  0  0  0  0  0  0  0
   57.9930   28.4240   46.3660 C   0  0  0  0  0  0  0  0  0  0  0  0
   58.9240   28.2790   47.4020 C   0  0  0  0  0  0  0  0  0  0  0  0
   60.2480   28.6890   47.2180 C   0  0  0  0  0  0  0  0  0  0  0  0
   60.6470   29.2340   45.9940 C   0  0  0  0  0  0  0  0  0  0  0  0
   59.7230   29.3700   44.9500 C   0  0  0  0  0  0  0  0  0  0  0  0
   57.7930   31.9370   46.1390 C   0  0  0  0  0  0  0  0  0  0  0  0
   58.8440   32.7080   46.6480 C   0  0  0  0  0  0  0  0  0  0  0  0
   61.6690   32.4810   48.2920 C   0  0  0  0  0  0  0  0  0  0  0  0
   60.4640   31.7460   48.8980 C   0  0  0  0  0  0  0  0  0  0  0  0
   57.7280   32.1260   50.9240 C   0  0  0  0  0  0  0  0  0  0  0  0
   56.7150   31.4920   51.5750 N   0  0  0  0  0  0  0  0  0  0  0  0
   53.7437   29.8871   53.2882 H   0  0  0  0  0  0  0  0  0  0  0  0
   54.3546   30.7204   51.8188 H   0  0  0  0  0  0  0  0  0  0  0  0
   54.1477   28.9361   51.8188 H   0  0  0  0  0  0  0  0  0  0  0  0
   55.9214   29.2345   54.9753 H   0  0  0  0  0  0  0  0  0  0  0  0
   55.3706   27.8662   53.9500 H   0  0  0  0  0  0  0  0  0  0  0  0
   57.1008   28.3489   53.9500 H   0  0  0  0  0  0  0  0  0  0  0  0
   58.3599   28.7478   52.7015 H   0  0  0  0  0  0  0  0  0  0  0  0
   60.2372   29.8998   51.5272 H   0  0  0  0  0  0  0  0  0  0  0  0
   59.6969   34.2454   50.7451 H   0  0  0  0  0  0  0  0  0  0  0  0
   60.8702   33.3434   51.8132 H   0  0  0  0  0  0  0  0  0  0  0  0
   61.7514   35.2219   50.2187 H   0  0  0  0  0  0  0  0  0  0  0  0
   62.6342   33.6348   50.3775 H   0  0  0  0  0  0  0  0  0  0  0  0
   59.5601   34.0649   48.2378 H   0  0  0  0  0  0  0  0  0  0  0  0
   60.4651   35.6385   48.2350 H   0  0  0  0  0  0  0  0  0  0  0  0
   60.4463   35.5634   45.9918 H   0  0  0  0  0  0  0  0  0  0  0  0
   61.5463   34.1427   46.0946 H   0  0  0  0  0  0  0  0  0  0  0  0
   59.5445   34.5752   43.8664 H   0  0  0  0  0  0  0  0  0  0  0  0
   57.6643   33.2125   42.9671 H   0  0  0  0  0  0  0  0  0  0  0  0
   57.0696   28.0713   43.7131 H   0  0  0  0  0  0  0  0  0  0  0  0
   57.8956   29.5685   43.1428 H   0  0  0  0  0  0  0  0  0  0  0  0
   56.9509   28.1053   46.5162 H   0  0  0  0  0  0  0  0  0  0  0  0
   58.6131   27.8417   48.3623 H   0  0  0  0  0  0  0  0  0  0  0  0
   60.9755   28.5828   48.0362 H   0  0  0  0  0  0  0  0  0  0  0  0
   61.6887   29.5567   45.8504 H   0  0  0  0  0  0  0  0  0  0  0  0
   60.0442   29.7863   43.9838 H   0  0  0  0  0  0  0  0  0  0  0  0
   57.3163   31.1749   46.7730 H   0  0  0  0  0  0  0  0  0  0  0  0
   59.1733   32.5674   47.6881 H   0  0  0  0  0  0  0  0  0  0  0  0
   61.6652   32.3261   47.2030 H   0  0  0  0  0  0  0  0  0  0  0  0
   62.5780   32.0709   48.7564 H   0  0  0  0  0  0  0  0  0  0  0  0
   59.6057   31.8647   48.2203 H   0  0  0  0  0  0  0  0  0  0  0  0
   60.7531   30.6917   49.0199 H   0  0  0  0  0  0  0  0  0  0  0  0
   57.5340   33.0783   50.4088 H   0  0  0  0  0  0  0  0  0  0  0  0
   55.7790   31.9520   51.5660 H   0  0  0  0  0  0  0  0  0  0  0  0
  1  2  1  0
  2  3  1  0
  2  4  1  0
  4  5  2  0
  5  6  1  0
  6  7  2  0
  7  8  1  0
  8  9  1  0
  9 10  1  0
 10 11  1  0
 11 12  1  0
 12 13  1  0
 13 14  1  0
 14 15  2  0
 15 16  1  0
 16 17  2  0
 17 18  1  0
 18 19  1  0
 19 20  2  0
 19 21  1  0
 21 22  1  0
 22 23  2  0
 23 24  1  0
 24 25  2  0
 25 26  1  0
 26 27  2  0
 17 28  1  0
 28 29  2  0
 11 30  1  0
 30 31  1  0
  7 32  1  0
 32 33  2  0
 33  4  1  0
 31  8  1  0
 29 14  1  0
 27 22  1  0
  1 34  1  0
  1 35  1  0
  1 36  1  0
  3 37  1  0
  3 38  1  0
  3 39  1  0
  5 40  1  0
  6 41  1  0
  9 42  1  0
  9 43  1  0
 10 44  1  0
 10 45  1  0
 12 46  1  0
 12 47  1  0
 13 48  1  0
 13 49  1  0
 15 50  1  0
 16 51  1  0
 21 52  1  0
 21 53  1  0
 23 54  1  0
 24 55  1  0
 25 56  1  0
 26 57  1  0
 27 58  1  0
 28 59  1  0
 29 60  1  0
 30 61  1  0
 30 62  1  0
 31 63  1  0
 31 64  1  0
 32 65  1  0
 33 66  1  0
M  CHG  2  18  -1  33   1
M  END
>  <UniqueID>  (29) 
27

>  <SMILES>  (29) 
CN(C)c1ccc(N2CCN(CCc3ccc([N-]C(=O)Cc4ccccc4)cc3)CC2)c[nH+]1

>  <Energy>  (29) 
82.04826718407816

>  <Genealogy>  (29) 
CN(C)c1ccc(N2CCN(CCc3ccc([N-]C(=O)Cc4ccccc4)cc3)CC2)c[nH+]1 (protonated)
CN(C)c1ccc(N2CCN(CCc3ccc([N-]C(=O)Cc4ccccc4)cc3)CC2)c[nH+]1 (3D coordinates assigned)
CN(C)c1ccc(N2CCN(CCc3ccc([N-]C(=O)Cc4ccccc4)cc3)CC2)c[nH+]1 (nonaromatic ring conformer: 82.04826718407816 kcal/mol)

>  <smiles>  (29) 
CN(C)c1ccc(N2CCN(CCc3ccc(NC(=O)Cc4ccccc4)cc3)CC2)cn1

>  <score_type>  (29) 
oracle

>  <origin>  (29) 
adg

>  <m_score__min__energy>  (29) 
-11.050000000000001

>  <m_primary>  (29) 
energy

$$$$
29:0
     RDKit          3D

 41 43  0  0  0  0  0  0  0  0999 V2000
   58.0810   25.9130   46.7930 O   0  0  0  0  0  0  0  0  0  0  0  0
   57.9240   26.9920   46.1600 C   0  0  0  0  0  0  0  0  0  0  0  0
   56.6330   27.4080   45.8590 C   0  0  0  0  0  0  0  0  0  0  0  0
   56.4490   28.5990   45.1730 C   0  0  0  0  0  0  0  0  0  0  0  0
   55.1500   29.0050   44.8790 O   0  0  0  0  0  0  0  0  0  0  0  0
   57.5270   29.3570   44.7990 N   0  0  0  0  0  0  0  0  0  0  0  0
   57.3250   30.6090   44.0440 C   0  0  0  0  0  0  0  0  0  0  0  0
   57.6830   31.8010   44.8950 C   0  0  0  0  0  0  0  0  0  0  0  0
   57.7800   31.6770   46.2920 C   0  0  0  0  0  0  0  0  0  0  0  0
   58.1400   32.7780   47.0740 C   0  0  0  0  0  0  0  0  0  0  0  0
   58.4090   34.0090   46.4710 C   0  0  0  0  0  0  0  0  0  0  0  0
   58.3180   34.1410   45.0830 C   0  0  0  0  0  0  0  0  0  0  0  0
   58.5800   35.3360   44.4980 F   0  0  0  0  0  0  0  0  0  0  0  0
   57.9590   33.0420   44.2960 C   0  0  0  0  0  0  0  0  0  0  0  0
   58.7990   28.9290   45.1010 C   0  0  0  0  0  0  0  0  0  0  0  0
   59.7920   29.6300   44.7560 O   0  0  0  0  0  0  0  0  0  0  0  0
   59.0000   27.7500   45.7790 N   0  0  0  0  0  0  0  0  0  0  0  0
   60.3740   27.3270   46.1300 C   0  0  0  0  0  0  0  0  0  0  0  0
   60.6130   27.4070   47.6450 C   0  0  0  0  0  0  0  0  0  0  0  0
   60.3200   28.7830   48.1840 C   0  0  0  0  0  0  0  0  0  0  0  0
   59.3570   28.9580   49.1930 C   0  0  0  0  0  0  0  0  0  0  0  0
   59.1210   30.2290   49.7260 C   0  0  0  0  0  0  0  0  0  0  0  0
   59.8440   31.3300   49.2590 C   0  0  0  0  0  0  0  0  0  0  0  0
   60.8080   31.1620   48.2620 C   0  0  0  0  0  0  0  0  0  0  0  0
   61.0490   29.8930   47.7260 C   0  0  0  0  0  0  0  0  0  0  0  0
   55.7675   26.8001   46.1611 H   0  0  0  0  0  0  0  0  0  0  0  0
   57.9632   30.5987   43.1481 H   0  0  0  0  0  0  0  0  0  0  0  0
   56.2665   30.6833   43.7540 H   0  0  0  0  0  0  0  0  0  0  0  0
   57.5717   30.7093   46.7717 H   0  0  0  0  0  0  0  0  0  0  0  0
   58.2117   32.6750   48.1668 H   0  0  0  0  0  0  0  0  0  0  0  0
   58.6923   34.8740   47.0886 H   0  0  0  0  0  0  0  0  0  0  0  0
   57.8924   33.1495   43.2033 H   0  0  0  0  0  0  0  0  0  0  0  0
   60.5253   26.2893   45.7977 H   0  0  0  0  0  0  0  0  0  0  0  0
   61.0835   28.0031   45.6306 H   0  0  0  0  0  0  0  0  0  0  0  0
   59.9580   26.6803   48.1480 H   0  0  0  0  0  0  0  0  0  0  0  0
   61.6725   27.1822   47.8371 H   0  0  0  0  0  0  0  0  0  0  0  0
   58.7877   28.0930   49.5641 H   0  0  0  0  0  0  0  0  0  0  0  0
   58.3652   30.3624   50.5140 H   0  0  0  0  0  0  0  0  0  0  0  0
   59.6539   32.3297   49.6768 H   0  0  0  0  0  0  0  0  0  0  0  0
   61.3784   32.0292   47.8980 H   0  0  0  0  0  0  0  0  0  0  0  0
   61.8114   29.7637   46.9437 H   0  0  0  0  0  0  0  0  0  0  0  0
  1  2  2  0
  2  3  1  0
  3  4  2  0
  4  5  1  0
  4  6  1  0
  6  7  1  0
  7  8  1  0
  8  9  2  0
  9 10  1  0
 10 11  2  0
 11 12  1  0
 12 13  1  0
 12 14  2  0
  6 15  1  0
 15 16  2  0
 15 17  1  0
 17 18  1  0
 18 19  1  0
 19 20  1  0
 20 21  2  0
 21 22  1  0
 22 23  2  0
 23 24  1  0
 24 25  2  0
 17  2  1  0
 25 20  1  0
 14  8  1  0
  3 26  1  0
  7 27  1  0
  7 28  1  0
  9 29  1  0
 10 30  1  0
 11 31  1  0
 14 32  1  0
 18 33  1  0
 18 34  1  0
 19 35  1  0
 19 36  1  0
 21 37  1  0
 22 38  1  0
 23 39  1  0
 24 40  1  0
 25 41  1  0
M  CHG  1   5  -1
M  END
>  <UniqueID>  (30) 
28

>  <SMILES>  (30) 
O=c1cc([O-])n(Cc2cccc(F)c2)c(=O)n1CCc1ccccc1

>  <Energy>  (30) 
46.85615977597856

>  <Genealogy>  (30) 
O=c1cc([O-])n(Cc2cccc(F)c2)c(=O)n1CCc1ccccc1 (protonated)
O=c1cc([O-])n(Cc2cccc(F)c2)c(=O)n1CCc1ccccc1 (3D coordinates assigned)
O=c1cc([O-])n(Cc2cccc(F)c2)c(=O)n1CCc1ccccc1 (optimized conformer: 46.85615977597856 kcal/mol)

>  <smiles>  (30) 
O=c1cc(O)n(Cc2cccc(F)c2)c(=O)n1CCc1ccccc1

>  <score_type>  (30) 
oracle

>  <origin>  (30) 
adg

>  <m_score__min__energy>  (30) 
-10.210000000000001

>  <m_primary>  (30) 
energy

$$$$
30:0
     RDKit          3D

 34 36  0  0  0  0  0  0  0  0999 V2000
   61.1250   28.1450   50.9480 C   0  0  0  0  0  0  0  0  0  0  0  0
   60.3420   28.2580   49.8740 C   0  0  0  0  0  0  0  0  0  0  0  0
   60.0630   29.5360   49.1730 C   0  0  0  0  0  0  0  0  0  0  0  0
   58.9240   30.3210   49.4410 C   0  0  0  0  0  0  0  0  0  0  0  0
   58.7140   31.5210   48.7560 C   0  0  0  0  0  0  0  0  0  0  0  0
   59.6430   31.9740   47.8080 C   0  0  0  0  0  0  0  0  0  0  0  0
   59.3990   33.2380   47.0800 C   0  0  0  0  0  0  0  0  0  0  0  0
   59.5420   34.3980   47.6470 N   0  0  0  0  0  0  0  0  0  0  0  0
   59.2100   35.3960   46.7580 O   0  0  0  0  0  0  0  0  0  0  0  0
   58.8360   34.8320   45.5550 C   0  0  0  0  0  0  0  0  0  0  0  0
   58.5620   35.4920   44.5190 O   0  0  0  0  0  0  0  0  0  0  0  0
   58.9390   33.3850   45.6860 C   0  0  0  0  0  0  0  0  0  0  0  0
   58.8650   32.4340   44.7400 C   0  0  0  0  0  0  0  0  0  0  0  0
   58.0000   31.2420   44.8300 C   0  0  0  0  0  0  0  0  0  0  0  0
   56.7020   31.2410   44.2920 C   0  0  0  0  0  0  0  0  0  0  0  0
   55.8830   30.1180   44.4290 C   0  0  0  0  0  0  0  0  0  0  0  0
   56.3430   28.9930   45.1220 C   0  0  0  0  0  0  0  0  0  0  0  0
   55.5190   27.8810   45.2510 O   0  0  0  0  0  0  0  0  0  0  0  0
   57.6260   28.9960   45.6870 C   0  0  0  0  0  0  0  0  0  0  0  0
   58.2700   27.4770   46.6540 Br  0  0  0  0  0  0  0  0  0  0  0  0
   58.4460   30.1220   45.5490 C   0  0  0  0  0  0  0  0  0  0  0  0
   60.7740   31.1910   47.5340 C   0  0  0  0  0  0  0  0  0  0  0  0
   60.9860   29.9910   48.2160 C   0  0  0  0  0  0  0  0  0  0  0  0
   61.2831   27.1604   51.4122 H   0  0  0  0  0  0  0  0  0  0  0  0
   61.6126   29.0364   51.3694 H   0  0  0  0  0  0  0  0  0  0  0  0
   59.8722   27.3438   49.4821 H   0  0  0  0  0  0  0  0  0  0  0  0
   58.1953   29.9872   50.1943 H   0  0  0  0  0  0  0  0  0  0  0  0
   57.8118   32.1156   48.9623 H   0  0  0  0  0  0  0  0  0  0  0  0
   59.4887   32.5514   43.8415 H   0  0  0  0  0  0  0  0  0  0  0  0
   56.3291   32.1289   43.7604 H   0  0  0  0  0  0  0  0  0  0  0  0
   54.8739   30.1180   43.9910 H   0  0  0  0  0  0  0  0  0  0  0  0
   59.4462   30.1292   46.0069 H   0  0  0  0  0  0  0  0  0  0  0  0
   61.4989   31.5244   46.7768 H   0  0  0  0  0  0  0  0  0  0  0  0
   61.8855   29.3952   48.0017 H   0  0  0  0  0  0  0  0  0  0  0  0
  1  2  2  0
  2  3  1  0
  3  4  2  0
  4  5  1  0
  5  6  2  0
  6  7  1  0
  7  8  2  0
  8  9  1  0
  9 10  1  0
 10 11  2  0
 10 12  1  0
 12 13  2  3
 13 14  1  0
 14 15  2  0
 15 16  1  0
 16 17  2  0
 17 18  1  0
 17 19  1  0
 19 20  1  0
 19 21  2  0
  6 22  1  0
 22 23  2  0
 23  3  1  0
 12  7  1  0
 21 14  1  0
  1 24  1  0
  1 25  1  0
  2 26  1  0
  4 27  1  0
  5 28  1  0
 13 29  1  0
 15 30  1  0
 16 31  1  0
 21 32  1  0
 22 33  1  0
 23 34  1  0
M  CHG  1  18  -1
M  END
>  <UniqueID>  (31) 
29

>  <SMILES>  (31) 
C=Cc1ccc(C2=NOC(=O)C2=Cc2ccc([O-])c(Br)c2)cc1

>  <Energy>  (31) 
79.81854629944749

>  <Genealogy>  (31) 
C=Cc1ccc(C2=NOC(=O)C2=Cc2ccc([O-])c(Br)c2)cc1 (protonated)
C=Cc1ccc(C2=NOC(=O)C2=Cc2ccc([O-])c(Br)c2)cc1 (3D coordinates assigned)
C=Cc1ccc(C2=NOC(=O)C2=Cc2ccc([O-])c(Br)c2)cc1 (nonaromatic ring conformer: 79.81854629944749 kcal/mol)

>  <smiles>  (31) 
C=Cc1ccc(C2=NOC(=O)C2=Cc2ccc(O)c(Br)c2)cc1

>  <score_type>  (31) 
oracle

>  <origin>  (31) 
adg

>  <m_score__min__energy>  (31) 
-10.68

>  <m_primary>  (31) 
energy

$$$$
31:0
     RDKit          3D

 59 62  0  0  0  0  0  0  0  0999 V2000
   55.5210   28.8760   44.9840 N   0  0  0  0  0  0  0  0  0  0  0  0
   56.6400   29.6340   44.5320 C   0  0  0  0  0  0  0  0  0  0  0  0
   56.5770   30.2490   43.4340 O   0  0  0  0  0  0  0  0  0  0  0  0
   57.8650   29.6940   45.3400 C   0  0  0  0  0  0  0  0  0  0  0  0
   59.0370   30.3530   45.0150 C   0  0  0  0  0  0  0  0  0  0  0  0
   59.9400   30.1850   45.9980 N   0  0  0  0  0  0  0  0  0  0  0  0
   59.3510   29.4350   46.9490 C   0  0  0  0  0  0  0  0  0  0  0  0
   60.0360   28.9760   48.2010 C   0  0  0  0  0  0  0  0  0  0  0  0
   60.0500   30.0760   49.2820 C   0  0  2  0  0  0  0  0  0  0  0  0
   58.8240   30.8820   49.2560 N   0  0  0  0  0  0  0  0  0  0  0  0
   61.2570   30.9590   49.1020 C   0  0  0  0  0  0  0  0  0  0  0  0
   61.5990   31.3100   47.9410 O   0  0  0  0  0  0  0  0  0  0  0  0
   62.0070   31.4260   50.2360 N   0  0  0  0  0  0  0  0  0  0  0  0
   62.6010   30.4280   51.1330 C   0  0  0  0  0  0  0  0  0  0  0  0
   64.1140   30.4600   51.0590 C   0  0  0  0  0  0  0  0  0  0  0  0
   64.8470   29.4280   51.6650 C   0  0  0  0  0  0  0  0  0  0  0  0
   66.2430   29.4570   51.6690 C   0  0  0  0  0  0  0  0  0  0  0  0
   66.9220   30.5220   51.0760 C   0  0  0  0  0  0  0  0  0  0  0  0
   66.2100   31.5620   50.4760 C   0  0  0  0  0  0  0  0  0  0  0  0
   64.8050   31.5540   50.4750 C   0  0  0  0  0  0  0  0  0  0  0  0
   64.0650   32.6610   49.7580 C   0  0  0  0  0  0  0  0  0  0  0  0
   62.6190   32.7630   50.2650 C   0  0  1  0  0  0  0  0  0  0  0  0
   61.7810   33.8070   49.5560 C   0  0  0  0  0  0  0  0  0  0  0  0
   62.2950   34.9370   49.3290 O   0  0  0  0  0  0  0  0  0  0  0  0
   60.4170   33.5600   49.1790 N   0  0  0  0  0  0  0  0  0  0  0  0
   59.5630   34.5940   48.5950 C   0  0  0  0  0  0  0  0  0  0  0  0
   59.0520   34.1670   47.2450 C   0  0  0  0  0  0  0  0  0  0  0  0
   59.7610   34.5100   46.0810 C   0  0  0  0  0  0  0  0  0  0  0  0
   59.2830   34.1190   44.8250 C   0  0  0  0  0  0  0  0  0  0  0  0
   58.0970   33.3850   44.7240 C   0  0  0  0  0  0  0  0  0  0  0  0
   57.3840   33.0410   45.8780 C   0  0  0  0  0  0  0  0  0  0  0  0
   57.8600   33.4280   47.1350 C   0  0  0  0  0  0  0  0  0  0  0  0
   58.0620   29.1040   46.5750 C   0  0  0  0  0  0  0  0  0  0  0  0
   54.6200   29.3440   45.2310 H   0  0  0  0  0  0  0  0  0  0  0  0
   59.2052   30.9276   44.0922 H   0  0  0  0  0  0  0  0  0  0  0  0
   60.9130   30.5630   46.0140 H   0  0  0  0  0  0  0  0  0  0  0  0
   59.5059   28.0963   48.5949 H   0  0  0  0  0  0  0  0  0  0  0  0
   61.0783   28.7297   47.9500 H   0  0  0  0  0  0  0  0  0  0  0  0
   60.1006   29.5816   50.2633 H   0  0  0  0  0  0  0  0  0  0  0  0
   58.6690   31.3210   50.1930 H   0  0  0  0  0  0  0  0  0  0  0  0
   58.9390   31.6550   48.5610 H   0  0  0  0  0  0  0  0  0  0  0  0
   62.2872   30.6410   52.1656 H   0  0  0  0  0  0  0  0  0  0  0  0
   62.2570   29.4304   50.8224 H   0  0  0  0  0  0  0  0  0  0  0  0
   64.3174   28.5894   52.1407 H   0  0  0  0  0  0  0  0  0  0  0  0
   66.8081   28.6393   52.1402 H   0  0  0  0  0  0  0  0  0  0  0  0
   68.0218   30.5421   51.0813 H   0  0  0  0  0  0  0  0  0  0  0  0
   66.7522   32.3929   50.0011 H   0  0  0  0  0  0  0  0  0  0  0  0
   64.5797   33.6161   49.9394 H   0  0  0  0  0  0  0  0  0  0  0  0
   64.0477   32.4358   48.6814 H   0  0  0  0  0  0  0  0  0  0  0  0
   62.6542   33.1263   51.3027 H   0  0  0  0  0  0  0  0  0  0  0  0
   59.9800   32.6350   49.3710 H   0  0  0  0  0  0  0  0  0  0  0  0
   58.7082   34.7753   49.2632 H   0  0  0  0  0  0  0  0  0  0  0  0
   60.1556   35.5126   48.4728 H   0  0  0  0  0  0  0  0  0  0  0  0
   60.6942   35.0874   46.1573 H   0  0  0  0  0  0  0  0  0  0  0  0
   59.8409   34.3894   43.9163 H   0  0  0  0  0  0  0  0  0  0  0  0
   57.7239   33.0775   43.7359 H   0  0  0  0  0  0  0  0  0  0  0  0
   56.4495   32.4664   45.7966 H   0  0  0  0  0  0  0  0  0  0  0  0
   57.3001   33.1534   48.0411 H   0  0  0  0  0  0  0  0  0  0  0  0
   57.3417   28.4966   47.1427 H   0  0  0  0  0  0  0  0  0  0  0  0
  1  2  1  0
  2  3  2  0
  2  4  1  0
  4  5  2  0
  5  6  1  0
  6  7  1  0
  7  8  1  0
  8  9  1  0
  9 10  1  0
  9 11  1  0
 11 12  2  0
 11 13  1  0
 13 14  1  0
 14 15  1  0
 15 16  2  0
 16 17  1  0
 17 18  2  0
 18 19  1  0
 19 20  2  0
 20 21  1  0
 21 22  1  0
 22 23  1  0
 23 24  2  0
 23 25  1  0
 25 26  1  0
 26 27  1  0
 27 28  2  0
 28 29  1  0
 29 30  2  0
 30 31  1  0
 31 32  2  0
  7 33  2  0
 33  4  1  0
 22 13  1  0
 32 27  1  0
 20 15  1  0
  1 34  1  0
  5 35  1  0
  6 36  1  0
  8 37  1  0
  8 38  1  0
  9 39  1  1
 10 40  1  0
 10 41  1  0
 14 42  1  0
 14 43  1  0
 16 44  1  0
 17 45  1  0
 18 46  1  0
 19 47  1  0
 21 48  1  0
 21 49  1  0
 22 50  1  1
 25 51  1  0
 26 52  1  0
 26 53  1  0
 28 54  1  0
 29 55  1  0
 30 56  1  0
 31 57  1  0
 32 58  1  0
 33 59  1  0
M  CHG  1   1  -1
M  END
>  <UniqueID>  (32) 
30

>  <SMILES>  (32) 
[NH-]C(=O)c1c[nH]c(C[C@H](N)C(=O)N2Cc3ccccc3C[C@H]2C(=O)NCc2ccccc2)c1

>  <Energy>  (32) 
90.84575945191396

>  <Genealogy>  (32) 
[NH-]C(=O)c1c[nH]c(CC(N)C(=O)N2Cc3ccccc3CC2C(=O)NCc2ccccc2)c1 (protonated)
[NH-]C(=O)c1c[nH]c(C[C@H](N)C(=O)N2Cc3ccccc3C[C@H]2C(=O)NCc2ccccc2)c1 (chirality)
[NH-]C(=O)c1c[nH]c(C[C@H](N)C(=O)N2Cc3ccccc3C[C@H]2C(=O)NCc2ccccc2)c1 (3D coordinates assigned)
[NH-]C(=O)c1c[nH]c(C[C@H](N)C(=O)N2Cc3ccccc3C[C@H]2C(=O)NCc2ccccc2)c1 (nonaromatic ring conformer: 90.84575945191396 kcal/mol)

>  <smiles>  (32) 
NC(=O)c1c[nH]c(CC(N)C(=O)N2Cc3ccccc3CC2C(=O)NCc2ccccc2)c1

>  <score_type>  (32) 
oracle

>  <origin>  (32) 
adg

>  <m_score__min__energy>  (32) 
-11.77

>  <m_primary>  (32) 
energy

$$$$
32:0
     RDKit          3D

 52 55  0  0  0  0  0  0  0  0999 V2000
   60.7080   30.6180   49.4320 C   0  0  0  0  0  0  0  0  0  0  0  0
   59.4970   30.1900   48.6580 C   0  0  0  0  0  0  0  0  0  0  0  0
   58.5310   30.9960   48.5620 O   0  0  0  0  0  0  0  0  0  0  0  0
   59.4170   28.8600   48.0000 C   0  0  0  0  0  0  0  0  0  0  0  0
   60.4630   27.9230   48.1120 C   0  0  0  0  0  0  0  0  0  0  0  0
   60.3700   26.6780   47.4820 C   0  0  0  0  0  0  0  0  0  0  0  0
   59.2390   26.3510   46.7330 C   0  0  0  0  0  0  0  0  0  0  0  0
   58.1900   27.2690   46.6090 C   0  0  0  0  0  0  0  0  0  0  0  0
   56.7610   26.8590   45.6640 S   0  0  0  0  0  0  0  0  0  0  0  0
   57.1480   26.1370   44.4030 O   0  0  0  0  0  0  0  0  0  0  0  0
   55.8760   25.9670   46.4890 O   0  0  0  0  0  0  0  0  0  0  0  0
   55.8850   28.2980   45.2500 N   0  0  0  0  0  0  0  0  0  0  0  0
   56.4080   29.3900   44.4840 C   0  0  0  0  0  0  0  0  0  0  0  0
   56.0900   29.5700   43.1270 C   0  0  0  0  0  0  0  0  0  0  0  0
   56.6500   30.6280   42.4090 C   0  0  0  0  0  0  0  0  0  0  0  0
   57.5310   31.5140   43.0340 C   0  0  0  0  0  0  0  0  0  0  0  0
   57.8530   31.3540   44.3930 C   0  0  0  0  0  0  0  0  0  0  0  0
   58.8010   32.2750   45.0580 C   0  0  0  0  0  0  0  0  0  0  0  0
   59.5060   31.8700   46.0220 O   0  0  0  0  0  0  0  0  0  0  0  0
   58.9090   33.5990   44.6180 O   0  0  0  0  0  0  0  0  0  0  0  0
   58.9640   34.7160   45.5030 C   0  0  0  0  0  0  0  0  0  0  0  0
   59.8870   34.4220   46.6460 C   0  0  0  0  0  0  0  0  0  0  0  0
   59.4070   34.4490   47.9700 C   0  0  0  0  0  0  0  0  0  0  0  0
   60.2840   34.1320   49.0160 C   0  0  0  0  0  0  0  0  0  0  0  0
   59.8800   34.1500   50.2100 O   0  0  0  0  0  0  0  0  0  0  0  0
   61.5720   33.8060   48.7170 N   0  0  0  0  0  0  0  0  0  0  0  0
   62.5540   33.4770   49.6010 C   0  0  0  0  0  0  0  0  0  0  0  0
   63.7760   33.1840   48.9940 C   0  0  0  0  0  0  0  0  0  0  0  0
   65.0430   32.8590   49.7130 C   0  0  0  0  0  0  0  0  0  0  0  0
   63.6270   33.3680   47.3180 S   0  0  0  0  0  0  0  0  0  0  0  0
   62.0050   33.7860   47.4360 C   0  0  0  0  0  0  0  0  0  0  0  0
   61.1850   34.0860   46.4010 N   0  0  0  0  0  0  0  0  0  0  0  0
   57.2790   30.2900   45.1100 C   0  0  0  0  0  0  0  0  0  0  0  0
   58.2790   28.5160   47.2450 C   0  0  0  0  0  0  0  0  0  0  0  0
   60.4994   30.5443   50.5095 H   0  0  0  0  0  0  0  0  0  0  0  0
   61.5557   29.9650   49.1771 H   0  0  0  0  0  0  0  0  0  0  0  0
   60.9572   31.6586   49.1771 H   0  0  0  0  0  0  0  0  0  0  0  0
   61.3592   28.1724   48.6991 H   0  0  0  0  0  0  0  0  0  0  0  0
   61.1920   25.9533   47.5773 H   0  0  0  0  0  0  0  0  0  0  0  0
   59.1718   25.3703   46.2393 H   0  0  0  0  0  0  0  0  0  0  0  0
   55.3977   28.8751   42.6292 H   0  0  0  0  0  0  0  0  0  0  0  0
   56.3967   30.7646   41.3473 H   0  0  0  0  0  0  0  0  0  0  0  0
   57.9748   32.3407   42.4600 H   0  0  0  0  0  0  0  0  0  0  0  0
   59.3318   35.5963   44.9554 H   0  0  0  0  0  0  0  0  0  0  0  0
   57.9559   34.9141   45.8960 H   0  0  0  0  0  0  0  0  0  0  0  0
   58.3603   34.7147   48.1795 H   0  0  0  0  0  0  0  0  0  0  0  0
   62.3989   33.4452   50.6896 H   0  0  0  0  0  0  0  0  0  0  0  0
   64.8703   32.9033   50.7985 H   0  0  0  0  0  0  0  0  0  0  0  0
   65.3730   31.8471   49.4352 H   0  0  0  0  0  0  0  0  0  0  0  0
   65.8194   33.5871   49.4352 H   0  0  0  0  0  0  0  0  0  0  0  0
   57.5171   30.1628   46.1764 H   0  0  0  0  0  0  0  0  0  0  0  0
   57.4504   29.2336   47.1530 H   0  0  0  0  0  0  0  0  0  0  0  0
  1  2  1  0
  2  3  2  0
  2  4  1  0
  4  5  2  0
  5  6  1  0
  6  7  2  0
  7  8  1  0
  8  9  1  0
  9 10  2  0
  9 11  2  0
  9 12  1  0
 12 13  1  0
 13 14  2  0
 14 15  1  0
 15 16  2  0
 16 17  1  0
 17 18  1  0
 18 19  2  0
 18 20  1  0
 20 21  1  0
 21 22  1  0
 22 23  2  0
 23 24  1  0
 24 25  2  0
 24 26  1  0
 26 27  1  0
 27 28  2  0
 28 29  1  0
 28 30  1  0
 30 31  1  0
 31 32  2  0
 17 33  2  0
  8 34  2  0
 34  4  1  0
 33 13  1  0
 32 22  1  0
 31 26  1  0
  1 35  1  0
  1 36  1  0
  1 37  1  0
  5 38  1  0
  6 39  1  0
  7 40  1  0
 14 41  1  0
 15 42  1  0
 16 43  1  0
 21 44  1  0
 21 45  1  0
 23 46  1  0
 27 47  1  0
 29 48  1  0
 29 49  1  0
 29 50  1  0
 33 51  1  0
 34 52  1  0
M  CHG  1  12  -1
M  END
>  <UniqueID>  (33) 
31

>  <SMILES>  (33) 
CC(=O)c1cccc(S(=O)(=O)[N-]c2cccc(C(=O)OCc3cc(=O)n4cc(C)sc4n3)c2)c1

>  <Energy>  (33) 
91.78087288259512

>  <Genealogy>  (33) 
CC(=O)c1cccc(S(=O)(=O)[N-]c2cccc(C(=O)OCc3cc(=O)n4cc(C)sc4n3)c2)c1 (protonated)
CC(=O)c1cccc(S(=O)(=O)[N-]c2cccc(C(=O)OCc3cc(=O)n4cc(C)sc4n3)c2)c1 (3D coordinates assigned)
CC(=O)c1cccc(S(=O)(=O)[N-]c2cccc(C(=O)OCc3cc(=O)n4cc(C)sc4n3)c2)c1 (optimized conformer: 91.78087288259512 kcal/mol)

>  <smiles>  (33) 
CC(=O)c1cccc(S(=O)(=O)Nc2cccc(C(=O)OCc3cc(=O)n4cc(C)sc4n3)c2)c1

>  <score_type>  (33) 
oracle

>  <origin>  (33) 
adg

>  <m_score__min__energy>  (33) 
-11.84

>  <m_primary>  (33) 
energy

$$$$
33:0
     RDKit          3D

 46 48  0  0  0  0  0  0  0  0999 V2000
   57.1070   31.9760   41.5750 C   0  0  0  0  0  0  0  0  0  0  0  0
   57.9430   31.7580   42.8090 C   0  0  0  0  0  0  0  0  0  0  0  0
   57.1010   31.6660   44.0150 N   0  0  0  0  0  0  0  0  0  0  0  0
   57.0930   32.8210   44.8700 C   0  0  0  0  0  0  0  0  0  0  0  0
   58.3760   33.0440   45.5760 C   0  0  0  0  0  0  0  0  0  0  0  0
   59.0580   31.9430   46.1060 C   0  0  0  0  0  0  0  0  0  0  0  0
   60.2570   32.0780   46.7720 C   0  0  0  0  0  0  0  0  0  0  0  0
   60.8430   33.3110   46.9460 C   0  0  0  0  0  0  0  0  0  0  0  0
   62.1110   33.3980   47.6560 C   0  0  0  0  0  0  0  0  0  0  0  0
   62.3330   33.7740   48.9650 C   0  0  0  0  0  0  0  0  0  0  0  0
   63.7190   33.6810   49.1190 C   0  0  0  0  0  0  0  0  0  0  0  0
   64.2720   33.2730   47.9590 N   0  0  0  0  0  0  0  0  0  0  0  0
   63.2940   33.1070   47.0860 N   0  0  0  0  0  0  0  0  0  0  0  0
   60.1900   34.4060   46.4320 C   0  0  0  0  0  0  0  0  0  0  0  0
   58.9730   34.2630   45.7580 C   0  0  0  0  0  0  0  0  0  0  0  0
   56.4210   30.4590   44.2080 C   0  0  0  0  0  0  0  0  0  0  0  0
   55.1560   30.4950   44.1330 O   0  0  0  0  0  0  0  0  0  0  0  0
   57.0200   29.1710   44.4890 C   0  0  0  0  0  0  0  0  0  0  0  0
   56.5860   28.3570   45.3480 O   0  0  0  0  0  0  0  0  0  0  0  0
   58.1880   28.7360   43.7740 N   0  0  0  0  0  0  0  0  0  0  0  0
   58.7350   27.4450   44.1010 C   0  0  0  0  0  0  0  0  0  0  0  0
   59.3180   27.4060   45.4410 C   0  0  0  0  0  0  0  0  0  0  0  0
   59.9410   28.3800   46.1640 C   0  0  0  0  0  0  0  0  0  0  0  0
   60.4070   28.1320   47.3880 C   0  0  0  0  0  0  0  0  0  0  0  0
   60.2210   26.8350   47.8780 C   0  0  0  0  0  0  0  0  0  0  0  0
   59.3470   25.9420   46.5310 S   0  0  0  0  0  0  0  0  0  0  0  0
   56.0814   32.2434   41.8694 H   0  0  0  0  0  0  0  0  0  0  0  0
   57.5412   32.7910   40.9772 H   0  0  0  0  0  0  0  0  0  0  0  0
   57.0879   31.0528   40.9772 H   0  0  0  0  0  0  0  0  0  0  0  0
   58.5116   30.8231   42.6964 H   0  0  0  0  0  0  0  0  0  0  0  0
   58.6232   32.6148   42.9242 H   0  0  0  0  0  0  0  0  0  0  0  0
   56.8753   33.7071   44.2557 H   0  0  0  0  0  0  0  0  0  0  0  0
   56.3266   32.6477   45.6398 H   0  0  0  0  0  0  0  0  0  0  0  0
   58.6239   30.9393   45.9874 H   0  0  0  0  0  0  0  0  0  0  0  0
   60.7553   31.1828   47.1723 H   0  0  0  0  0  0  0  0  0  0  0  0
   61.5888   34.0777   49.7160 H   0  0  0  0  0  0  0  0  0  0  0  0
   64.2725   33.9057   50.0427 H   0  0  0  0  0  0  0  0  0  0  0  0
   65.2990   33.1180   47.7870 H   0  0  0  0  0  0  0  0  0  0  0  0
   60.6301   35.4069   46.5523 H   0  0  0  0  0  0  0  0  0  0  0  0
   58.4779   35.1611   45.3601 H   0  0  0  0  0  0  0  0  0  0  0  0
   58.6410   29.3110   43.0440 H   0  0  0  0  0  0  0  0  0  0  0  0
   57.9307   26.6967   44.0445 H   0  0  0  0  0  0  0  0  0  0  0  0
   59.5386   27.2309   43.3810 H   0  0  0  0  0  0  0  0  0  0  0  0
   60.0606   29.3842   45.7312 H   0  0  0  0  0  0  0  0  0  0  0  0
   60.9120   28.9076   47.9824 H   0  0  0  0  0  0  0  0  0  0  0  0
   60.5303   26.4369   48.8557 H   0  0  0  0  0  0  0  0  0  0  0  0
  1  2  1  0
  2  3  1  0
  3  4  1  0
  4  5  1  0
  5  6  2  0
  6  7  1  0
  7  8  2  0
  8  9  1  0
  9 10  1  0
 10 11  2  0
 11 12  1  0
 12 13  1  0
  8 14  1  0
 14 15  2  0
  3 16  1  0
 16 17  2  0
 16 18  1  0
 18 19  2  0
 18 20  1  0
 20 21  1  0
 21 22  1  0
 22 23  2  0
 23 24  1  0
 24 25  2  0
 25 26  1  0
 15  5  1  0
 26 22  1  0
 13  9  2  0
  1 27  1  0
  1 28  1  0
  1 29  1  0
  2 30  1  0
  2 31  1  0
  4 32  1  0
  4 33  1  0
  6 34  1  0
  7 35  1  0
 10 36  1  0
 11 37  1  0
 12 38  1  0
 14 39  1  0
 15 40  1  0
 20 41  1  0
 21 42  1  0
 21 43  1  0
 23 44  1  0
 24 45  1  0
 25 46  1  0
M  END
>  <smiles>  (34) 
CCN(Cc1ccc(-c2cc[nH]n2)cc1)C(=O)C(=O)NCc1cccs1

>  <score_type>  (34) 
oracle

>  <origin>  (34) 
adg

>  <m_score__min__energy>  (34) 
-8.5999999999999996

>  <m_primary>  (34) 
energy

$$$$
34:0
     RDKit          3D

 50 53  0  0  0  0  0  0  0  0999 V2000
   55.1410   26.7060   45.9970 O   0  0  0  0  0  0  0  0  0  0  0  0
   54.9590   25.5110   45.6440 C   0  0  0  0  0  0  0  0  0  0  0  0
   53.6670   25.0030   45.6300 O   0  0  0  0  0  0  0  0  0  0  0  0
   56.1190   24.6660   45.2880 C   0  0  0  0  0  0  0  0  0  0  0  0
   56.0390   23.5290   44.5030 C   0  0  0  0  0  0  0  0  0  0  0  0
   57.3230   23.0450   44.3730 C   0  0  0  0  0  0  0  0  0  0  0  0
   58.1380   23.8920   45.0920 C   0  0  0  0  0  0  0  0  0  0  0  0
   57.4060   24.8740   45.6560 N   0  0  0  0  0  0  0  0  0  0  0  0
   57.9400   25.8910   46.5640 C   0  0  0  0  0  0  0  0  0  0  0  0
   59.2960   26.8400   45.7880 S   0  0  0  0  0  0  0  0  0  0  0  0
   58.2380   28.1230   45.1050 C   0  0  0  0  0  0  0  0  0  0  0  0
   57.0200   27.8910   44.5900 N   0  0  0  0  0  0  0  0  0  0  0  0
   56.5300   29.0410   44.1600 N   0  0  0  0  0  0  0  0  0  0  0  0
   57.4790   29.9710   44.3980 C   0  0  0  0  0  0  0  0  0  0  0  0
   57.2890   31.4210   44.0500 C   0  0  0  0  0  0  0  0  0  0  0  0
   57.0150   32.1860   45.2230 O   0  0  0  0  0  0  0  0  0  0  0  0
   57.8860   33.1280   45.7960 C   0  0  0  0  0  0  0  0  0  0  0  0
   58.0330   33.1340   47.1900 C   0  0  0  0  0  0  0  0  0  0  0  0
   58.8850   34.0520   47.8100 C   0  0  0  0  0  0  0  0  0  0  0  0
   59.5980   34.9750   47.0400 C   0  0  0  0  0  0  0  0  0  0  0  0
   59.4630   34.9770   45.6500 C   0  0  0  0  0  0  0  0  0  0  0  0
   58.6130   34.0590   45.0260 C   0  0  0  0  0  0  0  0  0  0  0  0
   58.5690   29.4260   44.9970 N   0  0  0  0  0  0  0  0  0  0  0  0
   59.8740   30.0340   45.2810 C   0  0  0  0  0  0  0  0  0  0  0  0
   60.0080   30.4130   46.7310 C   0  0  0  0  0  0  0  0  0  0  0  0
   61.1090   31.1660   47.1700 C   0  0  0  0  0  0  0  0  0  0  0  0
   61.2850   31.4320   48.5320 C   0  0  0  0  0  0  0  0  0  0  0  0
   60.3680   30.9430   49.4660 C   0  0  0  0  0  0  0  0  0  0  0  0
   59.2670   30.1970   49.0370 C   0  0  0  0  0  0  0  0  0  0  0  0
   59.0850   29.9330   47.6770 C   0  0  0  0  0  0  0  0  0  0  0  0
   55.1269   23.0953   44.0670 H   0  0  0  0  0  0  0  0  0  0  0  0
   57.6360   22.1560   43.8059 H   0  0  0  0  0  0  0  0  0  0  0  0
   59.2280   23.7829   45.1915 H   0  0  0  0  0  0  0  0  0  0  0  0
   57.1313   26.5839   46.8393 H   0  0  0  0  0  0  0  0  0  0  0  0
   58.3408   25.3823   47.4531 H   0  0  0  0  0  0  0  0  0  0  0  0
   56.5240   26.9740   44.5290 H   0  0  0  0  0  0  0  0  0  0  0  0
   58.2052   31.8022   43.5754 H   0  0  0  0  0  0  0  0  0  0  0  0
   56.4374   31.5120   43.3597 H   0  0  0  0  0  0  0  0  0  0  0  0
   57.4733   32.4104   47.8008 H   0  0  0  0  0  0  0  0  0  0  0  0
   58.9945   34.0481   48.9045 H   0  0  0  0  0  0  0  0  0  0  0  0
   60.2655   35.6999   47.5288 H   0  0  0  0  0  0  0  0  0  0  0  0
   60.0266   35.7024   45.0449 H   0  0  0  0  0  0  0  0  0  0  0  0
   58.5110   34.0630   43.9307 H   0  0  0  0  0  0  0  0  0  0  0  0
   60.6657   29.3141   45.0261 H   0  0  0  0  0  0  0  0  0  0  0  0
   59.9643   30.9494   44.6777 H   0  0  0  0  0  0  0  0  0  0  0  0
   61.8367   31.5486   46.4392 H   0  0  0  0  0  0  0  0  0  0  0  0
   62.1468   32.0272   48.8683 H   0  0  0  0  0  0  0  0  0  0  0  0
   60.5126   31.1450   50.5376 H   0  0  0  0  0  0  0  0  0  0  0  0
   58.5419   29.8167   49.7716 H   0  0  0  0  0  0  0  0  0  0  0  0
   58.2155   29.3468   47.3448 H   0  0  0  0  0  0  0  0  0  0  0  0
  1  2  2  0
  2  3  1  0
  2  4  1  0
  4  5  2  0
  5  6  1  0
  6  7  2  0
  7  8  1  0
  8  9  1  0
  9 10  1  0
 10 11  1  0
 11 12  2  0
 12 13  1  0
 13 14  2  0
 14 15  1  0
 15 16  1  0
 16 17  1  0
 17 18  2  0
 18 19  1  0
 19 20  2  0
 20 21  1  0
 21 22  2  0
 14 23  1  0
 23 24  1  0
 24 25  1  0
 25 26  2  0
 26 27  1  0
 27 28  2  0
 28 29  1  0
 29 30  2  0
  8  4  1  0
 23 11  1  0
 30 25  1  0
 22 17  1  0
  5 31  1  0
  6 32  1  0
  7 33  1  0
  9 34  1  0
  9 35  1  0
 12 36  1  0
 15 37  1  0
 15 38  1  0
 18 39  1  0
 19 40  1  0
 20 41  1  0
 21 42  1  0
 22 43  1  0
 24 44  1  0
 24 45  1  0
 26 46  1  0
 27 47  1  0
 28 48  1  0
 29 49  1  0
 30 50  1  0
M  CHG  2   3  -1  12   1
M  END
>  <UniqueID>  (35) 
32

>  <SMILES>  (35) 
O=C([O-])c1cccn1CSc1[nH+]nc(COc2ccccc2)n1Cc1ccccc1

>  <Energy>  (35) 
109.40288504519924

>  <Genealogy>  (35) 
O=C([O-])c1cccn1CSc1[nH+]nc(COc2ccccc2)n1Cc1ccccc1 (protonated)
O=C([O-])c1cccn1CSc1[nH+]nc(COc2ccccc2)n1Cc1ccccc1 (3D coordinates assigned)
O=C([O-])c1cccn1CSc1[nH+]nc(COc2ccccc2)n1Cc1ccccc1 (optimized conformer: 109.40288504519924 kcal/mol)

>  <smiles>  (35) 
O=C(O)c1cccn1CSc1nnc(COc2ccccc2)n1Cc1ccccc1

>  <score_type>  (35) 
oracle

>  <origin>  (35) 
adg

>  <m_score__min__energy>  (35) 
-10.19

>  <m_primary>  (35) 
energy

$$$$
35:0
     RDKit          3D

 40 42  0  0  0  0  0  0  0  0999 V2000
   55.2530   28.9870   44.4810 O   0  0  0  0  0  0  0  0  0  0  0  0
   55.7650   30.2450   44.1430 C   0  0  0  0  0  0  0  0  0  0  0  0
   57.1800   30.3520   44.6160 C   0  0  0  0  0  0  0  0  0  0  0  0
   58.0980   29.3760   44.4660 N   0  0  0  0  0  0  0  0  0  0  0  0
   59.2060   29.8830   44.9830 N   0  0  0  0  0  0  0  0  0  0  0  0
   59.0040   31.1130   45.4260 N   0  0  0  0  0  0  0  0  0  0  0  0
   57.7380   31.4280   45.2150 N   0  0  0  0  0  0  0  0  0  0  0  0
   57.1290   32.7360   45.4980 C   0  0  0  0  0  0  0  0  0  0  0  0
   57.6260   33.7910   44.4930 C   0  0  0  0  0  0  0  0  0  0  0  0
   59.1060   34.1790   44.7080 C   0  0  0  0  0  0  0  0  0  0  0  0
   59.5890   33.8390   46.0640 N   0  0  0  0  0  0  0  0  0  0  0  0
   60.9320   34.3860   46.3620 C   0  0  0  0  0  0  0  0  0  0  0  0
   61.8220   33.4410   47.1440 C   0  0  0  0  0  0  0  0  0  0  0  0
   63.1300   33.8200   47.4940 C   0  0  0  0  0  0  0  0  0  0  0  0
   63.9480   32.9460   48.2180 C   0  0  0  0  0  0  0  0  0  0  0  0
   63.4660   31.6930   48.6040 C   0  0  0  0  0  0  0  0  0  0  0  0
   62.1630   31.3130   48.2730 C   0  0  0  0  0  0  0  0  0  0  0  0
   61.3410   32.1830   47.5490 C   0  0  0  0  0  0  0  0  0  0  0  0
   58.5870   34.1310   47.1020 C   0  0  0  0  0  0  0  0  0  0  0  0
   57.3880   33.1770   46.9600 C   0  0  0  0  0  0  0  0  0  0  0  0
   55.9990   28.3450   44.3530 H   0  0  0  0  0  0  0  0  0  0  0  0
   55.7330   30.3723   43.0509 H   0  0  0  0  0  0  0  0  0  0  0  0
   55.1586   31.0279   44.6218 H   0  0  0  0  0  0  0  0  0  0  0  0
   60.1210   29.3830   45.0260 H   0  0  0  0  0  0  0  0  0  0  0  0
   56.0397   32.6391   45.3792 H   0  0  0  0  0  0  0  0  0  0  0  0
   57.5137   33.3868   43.4761 H   0  0  0  0  0  0  0  0  0  0  0  0
   57.0227   34.6985   44.6430 H   0  0  0  0  0  0  0  0  0  0  0  0
   59.7218   33.6444   43.9698 H   0  0  0  0  0  0  0  0  0  0  0  0
   59.1867   35.2694   44.5879 H   0  0  0  0  0  0  0  0  0  0  0  0
   61.4292   34.6208   45.4093 H   0  0  0  0  0  0  0  0  0  0  0  0
   60.7812   35.2756   46.9912 H   0  0  0  0  0  0  0  0  0  0  0  0
   63.5118   34.8080   47.1973 H   0  0  0  0  0  0  0  0  0  0  0  0
   64.9724   33.2460   48.4837 H   0  0  0  0  0  0  0  0  0  0  0  0
   64.1126   31.0053   49.1688 H   0  0  0  0  0  0  0  0  0  0  0  0
   61.7829   30.3282   48.5822 H   0  0  0  0  0  0  0  0  0  0  0  0
   60.3139   31.8819   47.2953 H   0  0  0  0  0  0  0  0  0  0  0  0
   59.0419   33.9989   48.0948 H   0  0  0  0  0  0  0  0  0  0  0  0
   58.2388   35.1680   46.9859 H   0  0  0  0  0  0  0  0  0  0  0  0
   57.5811   32.2800   47.5667 H   0  0  0  0  0  0  0  0  0  0  0  0
   56.4949   33.7216   47.3003 H   0  0  0  0  0  0  0  0  0  0  0  0
  1  2  1  0
  2  3  1  0
  3  4  2  0
  4  5  1  0
  5  6  2  0
  6  7  1  0
  7  8  1  0
  8  9  1  0
  9 10  1  0
 10 11  1  0
 11 12  1  0
 12 13  1  0
 13 14  2  0
 14 15  1  0
 15 16  2  0
 16 17  1  0
 17 18  2  0
 11 19  1  0
 19 20  1  0
  7  3  1  0
 20  8  1  0
 18 13  1  0
  1 21  1  0
  2 22  1  0
  2 23  1  0
  5 24  1  0
  8 25  1  0
  9 26  1  0
  9 27  1  0
 10 28  1  0
 10 29  1  0
 12 30  1  0
 12 31  1  0
 14 32  1  0
 15 33  1  0
 16 34  1  0
 17 35  1  0
 18 36  1  0
 19 37  1  0
 19 38  1  0
 20 39  1  0
 20 40  1  0
M  CHG  1   5   1
M  END
>  <UniqueID>  (36) 
33

>  <SMILES>  (36) 
OCc1n[nH+]nn1C1CCN(Cc2ccccc2)CC1

>  <Energy>  (36) 
88.68075293266472

>  <Genealogy>  (36) 
OCc1n[nH+]nn1C1CCN(Cc2ccccc2)CC1 (protonated)
OCc1n[nH+]nn1C1CCN(Cc2ccccc2)CC1 (3D coordinates assigned)
OCc1n[nH+]nn1C1CCN(Cc2ccccc2)CC1 (nonaromatic ring conformer: 88.68075293266472 kcal/mol)

>  <smiles>  (36) 
OCc1nnnn1C1CCN(Cc2ccccc2)CC1

>  <score_type>  (36) 
oracle

>  <origin>  (36) 
adg

>  <m_score__min__energy>  (36) 
-6.6299999999999999

>  <m_primary>  (36) 
energy

$$$$
36:0
     RDKit          3D

 42 44  0  0  0  0  0  0  0  0999 V2000
   55.1450   28.9940   44.5740 N   0  0  0  0  0  0  0  0  0  0  0  0
   56.6670   29.7970   44.4130 S   0  0  0  0  0  0  0  0  0  0  0  0
   56.5080   31.2360   44.8150 O   0  0  0  0  0  0  0  0  0  0  0  0
   57.1200   29.7400   42.9810 O   0  0  0  0  0  0  0  0  0  0  0  0
   57.8600   29.0060   45.4380 C   0  0  0  0  0  0  0  0  0  0  0  0
   59.1460   29.5440   45.5850 C   0  0  0  0  0  0  0  0  0  0  0  0
   60.0760   28.9220   46.4230 C   0  0  0  0  0  0  0  0  0  0  0  0
   59.7360   27.7570   47.1200 C   0  0  0  0  0  0  0  0  0  0  0  0
   60.6890   27.2010   48.0380 N   0  0  0  0  0  0  0  0  0  0  0  0
   60.6700   27.3430   49.4640 C   0  0  0  0  0  0  0  0  0  0  0  0
   60.7190   26.3280   50.2100 O   0  0  0  0  0  0  0  0  0  0  0  0
   60.6660   28.7110   50.0730 C   0  0  0  0  0  0  0  0  0  0  0  0
   61.1510   29.7010   49.1120 N   0  0  0  0  0  0  0  0  0  0  0  0
   60.7390   31.0760   49.1580 C   0  0  0  0  0  0  0  0  0  0  0  0
   60.1090   31.5100   50.1610 O   0  0  0  0  0  0  0  0  0  0  0  0
   61.0180   31.9580   48.0550 N   0  0  0  0  0  0  0  0  0  0  0  0
   62.3880   32.0180   47.5210 C   0  0  0  0  0  0  0  0  0  0  0  0
   62.7010   33.3790   46.9690 C   0  0  0  0  0  0  0  0  0  0  0  0
   63.8970   33.7590   46.8750 O   0  0  0  0  0  0  0  0  0  0  0  0
   61.6520   34.2160   46.4810 N   0  0  0  0  0  0  0  0  0  0  0  0
   60.2850   33.8380   46.6420 C   0  0  0  0  0  0  0  0  0  0  0  0
   59.2780   34.5930   46.0290 C   0  0  0  0  0  0  0  0  0  0  0  0
   57.9400   34.2170   46.1650 C   0  0  0  0  0  0  0  0  0  0  0  0
   57.6040   33.0860   46.9140 C   0  0  0  0  0  0  0  0  0  0  0  0
   58.6050   32.3350   47.5380 C   0  0  0  0  0  0  0  0  0  0  0  0
   59.9580   32.7110   47.4190 C   0  0  0  0  0  0  0  0  0  0  0  0
   58.4400   27.2260   46.9800 C   0  0  0  0  0  0  0  0  0  0  0  0
   57.5120   27.8470   46.1390 C   0  0  0  0  0  0  0  0  0  0  0  0
   54.6360   29.4620   45.3550 H   0  0  0  0  0  0  0  0  0  0  0  0
   59.4240   30.4579   45.0396 H   0  0  0  0  0  0  0  0  0  0  0  0
   61.0825   29.3514   46.5354 H   0  0  0  0  0  0  0  0  0  0  0  0
   59.6401   28.9705   50.3734 H   0  0  0  0  0  0  0  0  0  0  0  0
   61.3298   28.7118   50.9502 H   0  0  0  0  0  0  0  0  0  0  0  0
   61.7360   29.3670   48.3130 H   0  0  0  0  0  0  0  0  0  0  0  0
   63.0977   31.7876   48.3292 H   0  0  0  0  0  0  0  0  0  0  0  0
   62.4744   31.2850   46.7054 H   0  0  0  0  0  0  0  0  0  0  0  0
   59.5411   35.4836   45.4394 H   0  0  0  0  0  0  0  0  0  0  0  0
   57.1502   34.8113   45.6824 H   0  0  0  0  0  0  0  0  0  0  0  0
   56.5503   32.7860   47.0129 H   0  0  0  0  0  0  0  0  0  0  0  0
   58.3347   31.4451   48.1254 H   0  0  0  0  0  0  0  0  0  0  0  0
   58.1564   26.3192   47.5343 H   0  0  0  0  0  0  0  0  0  0  0  0
   56.5035   27.4221   46.0281 H   0  0  0  0  0  0  0  0  0  0  0  0
  1  2  1  0
  2  3  2  0
  2  4  2  0
  2  5  1  0
  5  6  2  0
  6  7  1  0
  7  8  2  0
  8  9  1  0
  9 10  1  0
 10 11  2  0
 10 12  1  0
 12 13  1  0
 13 14  1  0
 14 15  2  0
 14 16  1  0
 16 17  1  0
 17 18  1  0
 18 19  2  0
 18 20  1  0
 20 21  1  0
 21 22  2  0
 22 23  1  0
 23 24  2  0
 24 25  1  0
 25 26  2  0
  8 27  1  0
 27 28  2  0
 28  5  1  0
 26 16  1  0
 26 21  1  0
  1 29  1  0
  6 30  1  0
  7 31  1  0
 12 32  1  0
 12 33  1  0
 13 34  1  0
 17 35  1  0
 17 36  1  0
 22 37  1  0
 23 38  1  0
 24 39  1  0
 25 40  1  0
 27 41  1  0
 28 42  1  0
M  CHG  3   1  -1   9  -1  20  -1
M  END
>  <UniqueID>  (37) 
34

>  <SMILES>  (37) 
[NH-]S(=O)(=O)c1ccc([N-]C(=O)CNC(=O)N2CC(=O)[N-]c3ccccc32)cc1

>  <Energy>  (37) 
49.47053031133286

>  <Genealogy>  (37) 
[NH-]S(=O)(=O)c1ccc([N-]C(=O)CNC(=O)N2CC(=O)[N-]c3ccccc32)cc1 (protonated)
[NH-]S(=O)(=O)c1ccc([N-]C(=O)CNC(=O)N2CC(=O)[N-]c3ccccc32)cc1 (3D coordinates assigned)
[NH-]S(=O)(=O)c1ccc([N-]C(=O)CNC(=O)N2CC(=O)[N-]c3ccccc32)cc1 (nonaromatic ring conformer: 49.47053031133286 kcal/mol)

>  <smiles>  (37) 
NS(=O)(=O)c1ccc(NC(=O)CNC(=O)N2CC(=O)Nc3ccccc32)cc1

>  <score_type>  (37) 
oracle

>  <origin>  (37) 
adg

>  <m_score__min__energy>  (37) 
-13.01

>  <m_primary>  (37) 
energy

$$$$
37:0
     RDKit          3D

 40 41  0  0  0  0  0  0  0  0999 V2000
   56.8530   30.7560   42.6100 O   0  0  0  0  0  0  0  0  0  0  0  0
   57.0740   31.2130   43.7640 C   0  0  0  0  0  0  0  0  0  0  0  0
   57.8200   32.4990   43.9300 C   0  0  0  0  0  0  0  0  0  0  0  0
   57.1180   33.3610   44.8750 N   0  0  0  0  0  0  0  0  0  0  0  0
   57.6090   33.6600   46.1870 C   0  0  0  0  0  0  0  0  0  0  0  0
   57.0210   33.2060   47.2060 O   0  0  0  0  0  0  0  0  0  0  0  0
   58.7900   34.5140   46.3490 C   0  0  0  0  0  0  0  0  0  0  0  0
   59.2820   35.0990   45.3480 O   0  0  0  0  0  0  0  0  0  0  0  0
   59.3640   34.6910   47.6480 N   0  0  0  0  0  0  0  0  0  0  0  0
   60.5410   33.9660   48.1150 C   0  0  0  0  0  0  0  0  0  0  0  0
   60.2880   32.4820   48.0650 C   0  0  0  0  0  0  0  0  0  0  0  0
   59.1550   31.9520   48.7050 C   0  0  0  0  0  0  0  0  0  0  0  0
   58.9170   30.5740   48.6950 C   0  0  0  0  0  0  0  0  0  0  0  0
   59.8110   29.7150   48.0520 C   0  0  0  0  0  0  0  0  0  0  0  0
   60.9440   30.2310   47.4170 C   0  0  0  0  0  0  0  0  0  0  0  0
   61.1870   31.6090   47.4220 C   0  0  0  0  0  0  0  0  0  0  0  0
   62.2950   32.0850   46.8020 F   0  0  0  0  0  0  0  0  0  0  0  0
   56.5870   30.5270   44.9190 N   0  0  0  0  0  0  0  0  0  0  0  0
   55.9420   29.2240   44.8620 C   0  0  0  0  0  0  0  0  0  0  0  0
   56.9140   28.1730   45.3220 C   0  0  0  0  0  0  0  0  0  0  0  0
   58.2970   28.4090   45.2450 C   0  0  0  0  0  0  0  0  0  0  0  0
   59.2040   27.4470   45.6990 C   0  0  0  0  0  0  0  0  0  0  0  0
   58.7380   26.2460   46.2410 C   0  0  0  0  0  0  0  0  0  0  0  0
   57.3650   26.0060   46.3320 C   0  0  0  0  0  0  0  0  0  0  0  0
   56.4510   26.9640   45.8790 C   0  0  0  0  0  0  0  0  0  0  0  0
   55.0880   26.7120   45.9910 O   0  0  0  0  0  0  0  0  0  0  0  0
   58.8306   32.2882   44.3097 H   0  0  0  0  0  0  0  0  0  0  0  0
   57.8874   33.0072   42.9568 H   0  0  0  0  0  0  0  0  0  0  0  0
   61.3985   34.2109   47.4710 H   0  0  0  0  0  0  0  0  0  0  0  0
   60.7567   34.2598   49.1529 H   0  0  0  0  0  0  0  0  0  0  0  0
   58.4512   32.6248   49.2168 H   0  0  0  0  0  0  0  0  0  0  0  0
   58.0253   30.1665   49.1938 H   0  0  0  0  0  0  0  0  0  0  0  0
   59.6232   28.6312   48.0454 H   0  0  0  0  0  0  0  0  0  0  0  0
   61.6467   29.5520   46.9119 H   0  0  0  0  0  0  0  0  0  0  0  0
   55.0589   29.2212   45.5178 H   0  0  0  0  0  0  0  0  0  0  0  0
   55.6274   29.0112   43.8297 H   0  0  0  0  0  0  0  0  0  0  0  0
   58.6679   29.3557   44.8253 H   0  0  0  0  0  0  0  0  0  0  0  0
   60.2855   27.6355   45.6296 H   0  0  0  0  0  0  0  0  0  0  0  0
   59.4530   25.4892   46.5962 H   0  0  0  0  0  0  0  0  0  0  0  0
   57.0010   25.0608   46.7612 H   0  0  0  0  0  0  0  0  0  0  0  0
  1  2  2  0
  2  3  1  0
  3  4  1  0
  4  5  1  0
  5  6  2  0
  5  7  1  0
  7  8  2  0
  7  9  1  0
  9 10  1  0
 10 11  1  0
 11 12  2  0
 12 13  1  0
 13 14  2  0
 14 15  1  0
 15 16  2  0
 16 17  1  0
  2 18  1  0
 18 19  1  0
 19 20  1  0
 20 21  2  0
 21 22  1  0
 22 23  2  0
 23 24  1  0
 24 25  2  0
 25 26  1  0
 16 11  1  0
 25 20  1  0
  3 27  1  0
  3 28  1  0
 10 29  1  0
 10 30  1  0
 12 31  1  0
 13 32  1  0
 14 33  1  0
 15 34  1  0
 19 35  1  0
 19 36  1  0
 21 37  1  0
 22 38  1  0
 23 39  1  0
 24 40  1  0
M  CHG  4   4  -1   9  -1  18  -1  26  -1
M  END
>  <UniqueID>  (38) 
35

>  <SMILES>  (38) 
O=C(C[N-]C(=O)C(=O)[N-]Cc1ccccc1F)[N-]Cc1ccccc1[O-]

>  <Energy>  (38) 
30.498377561530138

>  <Genealogy>  (38) 
O=C(C[N-]C(=O)C(=O)[N-]Cc1ccccc1F)[N-]Cc1ccccc1[O-] (protonated)
O=C(C[N-]C(=O)C(=O)[N-]Cc1ccccc1F)[N-]Cc1ccccc1[O-] (3D coordinates assigned)
O=C(C[N-]C(=O)C(=O)[N-]Cc1ccccc1F)[N-]Cc1ccccc1[O-] (optimized conformer: 30.498377561530138 kcal/mol)

>  <smiles>  (38) 
O=C(CNC(=O)C(=O)NCc1ccccc1F)NCc1ccccc1O

>  <score_type>  (38) 
oracle

>  <origin>  (38) 
adg

>  <m_score__min__energy>  (38) 
-15.25

>  <m_primary>  (38) 
energy

$$$$
38:0
     RDKit          3D

 47 50  0  0  0  0  0  0  0  0999 V2000
   57.3750   29.7570   51.7250 O   0  0  0  0  0  0  0  0  0  0  0  0
   58.1660   30.2830   50.8980 C   0  0  0  0  0  0  0  0  0  0  0  0
   58.4230   31.7560   50.9350 C   0  0  0  0  0  0  0  0  0  0  0  0
   59.8650   32.0710   50.5180 C   0  0  0  0  0  0  0  0  0  0  0  0
   60.2960   31.3370   49.2570 C   0  0  0  0  0  0  0  0  0  0  0  0
   61.3260   31.8360   48.4120 C   0  0  0  0  0  0  0  0  0  0  0  0
   62.0470   33.1420   48.6990 C   0  0  0  0  0  0  0  0  0  0  0  0
   61.3590   34.2780   48.0920 N   0  0  0  0  0  0  0  0  0  0  0  0
   59.9340   34.3700   47.9870 C   0  0  0  0  0  0  0  0  0  0  0  0
   59.2860   35.0400   48.8370 O   0  0  0  0  0  0  0  0  0  0  0  0
   59.2210   33.6760   46.8900 C   0  0  0  0  0  0  0  0  0  0  0  0
   59.3040   34.1520   45.5690 C   0  0  0  0  0  0  0  0  0  0  0  0
   58.6280   33.4980   44.5360 C   0  0  0  0  0  0  0  0  0  0  0  0
   57.8560   32.3600   44.7970 C   0  0  0  0  0  0  0  0  0  0  0  0
   57.1760   31.7300   43.7020 N   0  0  0  0  0  0  0  0  0  0  0  0
   56.4410   30.1580   43.7180 S   0  0  0  0  0  0  0  0  0  0  0  0
   55.1590   30.2550   44.4950 O   0  0  0  0  0  0  0  0  0  0  0  0
   56.1190   29.7200   42.3170 O   0  0  0  0  0  0  0  0  0  0  0  0
   57.4880   28.9920   44.5070 C   0  0  0  0  0  0  0  0  0  0  0  0
   58.8550   28.8600   44.2860 C   0  0  0  0  0  0  0  0  0  0  0  0
   59.4320   27.8250   45.0310 C   0  0  0  0  0  0  0  0  0  0  0  0
   58.5250   27.1450   45.8370 C   0  0  0  0  0  0  0  0  0  0  0  0
   57.0020   27.8300   45.6210 S   0  0  0  0  0  0  0  0  0  0  0  0
   57.7710   31.8770   46.1150 C   0  0  0  0  0  0  0  0  0  0  0  0
   58.4440   32.5330   47.1510 C   0  0  0  0  0  0  0  0  0  0  0  0
   61.6490   31.1280   47.2380 C   0  0  0  0  0  0  0  0  0  0  0  0
   61.0520   29.9010   46.9560 C   0  0  0  0  0  0  0  0  0  0  0  0
   60.1160   29.3620   47.8330 C   0  0  0  0  0  0  0  0  0  0  0  0
   59.7320   30.0680   48.9790 C   0  0  0  0  0  0  0  0  0  0  0  0
   58.7620   29.4940   49.8680 N   0  0  0  0  0  0  0  0  0  0  0  0
   57.7303   32.2598   50.2448 H   0  0  0  0  0  0  0  0  0  0  0  0
   58.2687   32.1138   51.9637 H   0  0  0  0  0  0  0  0  0  0  0  0
   59.9492   33.1531   50.3392 H   0  0  0  0  0  0  0  0  0  0  0  0
   60.5227   31.7357   51.3335 H   0  0  0  0  0  0  0  0  0  0  0  0
   62.0938   33.2926   49.7876 H   0  0  0  0  0  0  0  0  0  0  0  0
   63.0573   33.0802   48.2683 H   0  0  0  0  0  0  0  0  0  0  0  0
   59.9057   35.0459   45.3476 H   0  0  0  0  0  0  0  0  0  0  0  0
   58.7032   33.8811   43.5076 H   0  0  0  0  0  0  0  0  0  0  0  0
   59.4235   29.5023   43.5973 H   0  0  0  0  0  0  0  0  0  0  0  0
   60.5017   27.5732   44.9835 H   0  0  0  0  0  0  0  0  0  0  0  0
   58.7625   26.3023   46.5029 H   0  0  0  0  0  0  0  0  0  0  0  0
   57.1729   30.9797   46.3321 H   0  0  0  0  0  0  0  0  0  0  0  0
   58.3648   32.1513   48.1796 H   0  0  0  0  0  0  0  0  0  0  0  0
   62.3822   31.5493   46.5345 H   0  0  0  0  0  0  0  0  0  0  0  0
   61.3212   29.3575   46.0383 H   0  0  0  0  0  0  0  0  0  0  0  0
   59.6754   28.3758   47.6247 H   0  0  0  0  0  0  0  0  0  0  0  0
   58.4740   28.4940   49.7590 H   0  0  0  0  0  0  0  0  0  0  0  0
  1  2  2  0
  2  3  1  0
  3  4  1  0
  4  5  1  0
  5  6  2  0
  6  7  1  0
  7  8  1  0
  8  9  1  0
  9 10  2  0
  9 11  1  0
 11 12  2  0
 12 13  1  0
 13 14  2  0
 14 15  1  0
 15 16  1  0
 16 17  2  0
 16 18  2  0
 16 19  1  0
 19 20  2  0
 20 21  1  0
 21 22  2  0
 22 23  1  0
 14 24  1  0
 24 25  2  0
  6 26  1  0
 26 27  2  0
 27 28  1  0
 28 29  2  0
 29 30  1  0
 30  2  1  0
 29  5  1  0
 25 11  1  0
 23 19  1  0
  3 31  1  0
  3 32  1  0
  4 33  1  0
  4 34  1  0
  7 35  1  0
  7 36  1  0
 12 37  1  0
 13 38  1  0
 20 39  1  0
 21 40  1  0
 22 41  1  0
 24 42  1  0
 25 43  1  0
 26 44  1  0
 27 45  1  0
 28 46  1  0
 30 47  1  0
M  CHG  2   8  -1  15  -1
M  END
>  <UniqueID>  (39) 
36

>  <SMILES>  (39) 
O=C1CCc2c(C[N-]C(=O)c3ccc([N-]S(=O)(=O)c4cccs4)cc3)cccc2N1

>  <Energy>  (39) 
83.57134472793521

>  <Genealogy>  (39) 
O=C1CCc2c(C[N-]C(=O)c3ccc([N-]S(=O)(=O)c4cccs4)cc3)cccc2N1 (protonated)
O=C1CCc2c(C[N-]C(=O)c3ccc([N-]S(=O)(=O)c4cccs4)cc3)cccc2N1 (3D coordinates assigned)
O=C1CCc2c(C[N-]C(=O)c3ccc([N-]S(=O)(=O)c4cccs4)cc3)cccc2N1 (nonaromatic ring conformer: 83.57134472793521 kcal/mol)

>  <smiles>  (39) 
O=C1CCc2c(CNC(=O)c3ccc(NS(=O)(=O)c4cccs4)cc3)cccc2N1

>  <score_type>  (39) 
oracle

>  <origin>  (39) 
adg

>  <m_score__min__energy>  (39) 
-11.630000000000001

>  <m_primary>  (39) 
energy

$$$$
39:0
     RDKit          3D

 48 51  0  0  0  0  0  0  0  0999 V2000
   57.3270   25.2960   47.5540 C   0  0  0  0  0  0  0  0  0  0  0  0
   57.8780   25.8700   46.4730 C   0  0  0  0  0  0  0  0  0  0  0  0
   57.5280   25.6410   45.1310 C   0  0  0  0  0  0  0  0  0  0  0  0
   56.7460   24.7010   44.5670 C   0  0  0  0  0  0  0  0  0  0  0  0
   55.4840   24.1880   45.1270 C   0  0  0  0  0  0  0  0  0  0  0  0
   55.0840   22.9050   45.0510 N   0  0  0  0  0  0  0  0  0  0  0  0
   53.8350   22.9360   45.5610 C   0  0  0  0  0  0  0  0  0  0  0  0
   53.1240   21.9040   45.6750 O   0  0  0  0  0  0  0  0  0  0  0  0
   53.4050   24.1610   45.9300 N   0  0  0  0  0  0  0  0  0  0  0  0
   54.4530   24.9460   45.6380 C   0  0  0  0  0  0  0  0  0  0  0  0
   54.4600   26.3230   45.8360 O   0  0  0  0  0  0  0  0  0  0  0  0
   58.1840   26.6080   44.3920 C   0  0  0  0  0  0  0  0  0  0  0  0
   58.9550   27.3390   45.2720 C   0  0  0  0  0  0  0  0  0  0  0  0
   59.8150   28.4750   44.8720 C   0  0  0  0  0  0  0  0  0  0  0  0
   60.8240   28.2570   44.1480 O   0  0  0  0  0  0  0  0  0  0  0  0
   59.5480   29.8190   45.3260 N   0  0  0  0  0  0  0  0  0  0  0  0
   60.2970   30.3830   46.4610 C   0  0  0  0  0  0  0  0  0  0  0  0
   59.3880   31.2490   47.3280 C   0  0  0  0  0  0  0  0  0  0  0  0
   58.7360   32.3040   46.4850 C   0  0  0  0  0  0  0  0  0  0  0  0
   58.4720   33.5760   47.0160 C   0  0  0  0  0  0  0  0  0  0  0  0
   57.8410   34.5470   46.2340 C   0  0  0  0  0  0  0  0  0  0  0  0
   57.4590   34.2510   44.9250 C   0  0  0  0  0  0  0  0  0  0  0  0
   57.7020   32.9820   44.3930 C   0  0  0  0  0  0  0  0  0  0  0  0
   58.3470   32.0020   45.1650 C   0  0  0  0  0  0  0  0  0  0  0  0
   58.5490   30.6180   44.5930 C   0  0  0  0  0  0  0  0  0  0  0  0
   58.7790   26.8890   46.5390 N   0  0  0  0  0  0  0  0  0  0  0  0
   59.4140   27.4330   47.7480 C   0  0  0  0  0  0  0  0  0  0  0  0
   60.7880   26.8030   47.9680 C   0  0  0  0  0  0  0  0  0  0  0  0
   57.6879   25.5574   48.5597 H   0  0  0  0  0  0  0  0  0  0  0  0
   56.5145   24.5642   47.4342 H   0  0  0  0  0  0  0  0  0  0  0  0
   57.0779   24.2805   43.6063 H   0  0  0  0  0  0  0  0  0  0  0  0
   54.3490   26.7240   46.7600 H   0  0  0  0  0  0  0  0  0  0  0  0
   58.1058   26.7650   43.3061 H   0  0  0  0  0  0  0  0  0  0  0  0
   60.7024   29.5618   47.0703 H   0  0  0  0  0  0  0  0  0  0  0  0
   61.1144   31.0072   46.0710 H   0  0  0  0  0  0  0  0  0  0  0  0
   58.6128   30.6183   47.7878 H   0  0  0  0  0  0  0  0  0  0  0  0
   59.9877   31.7315   48.1138 H   0  0  0  0  0  0  0  0  0  0  0  0
   58.7627   33.8093   48.0509 H   0  0  0  0  0  0  0  0  0  0  0  0
   57.6452   35.5460   46.6508 H   0  0  0  0  0  0  0  0  0  0  0  0
   56.9655   35.0184   44.3105 H   0  0  0  0  0  0  0  0  0  0  0  0
   57.3867   32.7496   43.3651 H   0  0  0  0  0  0  0  0  0  0  0  0
   57.5871   30.0851   44.6227 H   0  0  0  0  0  0  0  0  0  0  0  0
   58.9247   30.7436   43.5668 H   0  0  0  0  0  0  0  0  0  0  0  0
   59.5297   28.5212   47.6363 H   0  0  0  0  0  0  0  0  0  0  0  0
   58.7773   27.2032   48.6151 H   0  0  0  0  0  0  0  0  0  0  0  0
   60.9820   26.7140   49.0471 H   0  0  0  0  0  0  0  0  0  0  0  0
   60.8114   25.8042   47.5077 H   0  0  0  0  0  0  0  0  0  0  0  0
   61.5601   27.4371   47.5077 H   0  0  0  0  0  0  0  0  0  0  0  0
  1  2  2  0
  2  3  1  0
  3  4  2  3
  4  5  1  0
  5  6  1  0
  6  7  1  0
  7  8  2  0
  7  9  1  0
  9 10  1  0
 10 11  1  0
  3 12  1  0
 12 13  2  0
 13 14  1  0
 14 15  2  0
 14 16  1  0
 16 17  1  0
 17 18  1  0
 18 19  1  0
 19 20  2  0
 20 21  1  0
 21 22  2  0
 22 23  1  0
 23 24  2  0
 24 25  1  0
 13 26  1  0
 26 27  1  0
 27 28  1  0
 26  2  1  0
 10  5  2  0
 25 16  1  0
 24 19  1  0
  1 29  1  0
  1 30  1  0
  4 31  1  0
 11 32  1  0
 12 33  1  0
 17 34  1  0
 17 35  1  0
 18 36  1  0
 18 37  1  0
 20 38  1  0
 21 39  1  0
 22 40  1  0
 23 41  1  0
 25 42  1  0
 25 43  1  0
 27 44  1  0
 27 45  1  0
 28 46  1  0
 28 47  1  0
 28 48  1  0
M  CHG  2   6  -1   9  -1
M  END
>  <UniqueID>  (40) 
37

>  <SMILES>  (40) 
C=c1c(=Cc2[n-]c(=O)[n-]c2O)cc(C(=O)N2CCc3ccccc3C2)n1CC

>  <Energy>  (40) 
124.41723700970233

>  <Genealogy>  (40) 
C=c1c(=Cc2[n-]c(=O)[n-]c2O)cc(C(=O)N2CCc3ccccc3C2)n1CC (protonated)
C=c1c(=Cc2[n-]c(=O)[n-]c2O)cc(C(=O)N2CCc3ccccc3C2)n1CC (3D coordinates assigned)
C=c1c(=Cc2[n-]c(=O)[n-]c2O)cc(C(=O)N2CCc3ccccc3C2)n1CC (nonaromatic ring conformer: 124.41723700970233 kcal/mol)

>  <smiles>  (40) 
C=c1c(=Cc2[nH]c(=O)[nH]c2O)cc(C(=O)N2CCc3ccccc3C2)n1CC

>  <score_type>  (40) 
oracle

>  <origin>  (40) 
adg

>  <m_score__min__energy>  (40) 
-13.050000000000001

>  <m_primary>  (40) 
energy

$$$$
40:0
     RDKit          3D

 58 60  0  0  0  0  0  0  0  0999 V2000
   64.9000   33.0510   49.0820 C   0  0  0  0  0  0  0  0  0  0  0  0
   63.5780   32.8320   48.4620 N   0  0  0  0  0  0  0  0  0  0  0  0
   63.5870   33.4230   47.1050 C   0  0  0  0  0  0  0  0  0  0  0  0
   63.3880   31.4820   48.3490 O   0  0  0  0  0  0  0  0  0  0  0  0
   62.4960   33.4470   49.2850 C   0  0  0  0  0  0  0  0  0  0  0  0
   61.3040   34.0020   48.4440 C   0  0  0  0  0  0  0  0  0  0  0  0
   60.0410   33.0720   48.3900 C   0  0  0  0  0  0  0  0  0  0  0  0
   60.5020   31.6360   48.1630 C   0  0  0  0  0  0  0  0  0  0  0  0
   60.7250   30.8810   49.1530 O   0  0  0  0  0  0  0  0  0  0  0  0
   60.6160   31.1150   46.8290 N   0  0  0  0  0  0  0  0  0  0  0  0
   59.8030   30.0810   46.2650 C   0  0  0  0  0  0  0  0  0  0  0  0
   60.1380   28.7230   46.4080 C   0  0  0  0  0  0  0  0  0  0  0  0
   59.3060   27.7350   45.8730 C   0  0  0  0  0  0  0  0  0  0  0  0
   58.1350   28.0920   45.1940 C   0  0  0  0  0  0  0  0  0  0  0  0
   57.7720   29.4430   45.0760 C   0  0  0  0  0  0  0  0  0  0  0  0
   56.5230   29.8290   44.3350 C   0  0  0  0  0  0  0  0  0  0  0  0
   55.3890   29.4570   45.0720 O   0  0  0  0  0  0  0  0  0  0  0  0
   58.6130   30.4340   45.6130 C   0  0  0  0  0  0  0  0  0  0  0  0
   59.1810   33.5560   47.1950 C   0  0  0  0  0  0  0  0  0  0  0  0
   59.7380   34.2630   46.1010 C   0  0  0  0  0  0  0  0  0  0  0  0
   58.9480   34.6360   45.0090 C   0  0  0  0  0  0  0  0  0  0  0  0
   57.5990   34.2850   44.9660 C   0  0  0  0  0  0  0  0  0  0  0  0
   57.0390   33.5460   46.0080 C   0  0  0  0  0  0  0  0  0  0  0  0
   57.8220   33.1710   47.1020 C   0  0  0  0  0  0  0  0  0  0  0  0
   59.2470   33.0120   49.7150 C   0  0  0  0  0  0  0  0  0  0  0  0
   59.5600   33.8260   50.8340 C   0  0  0  0  0  0  0  0  0  0  0  0
   58.8800   33.6720   52.0450 C   0  0  0  0  0  0  0  0  0  0  0  0
   57.9010   32.6880   52.1820 C   0  0  0  0  0  0  0  0  0  0  0  0
   57.6110   31.8400   51.1120 C   0  0  0  0  0  0  0  0  0  0  0  0
   58.2890   31.9860   49.8990 C   0  0  0  0  0  0  0  0  0  0  0  0
   64.7987   33.0342   50.1772 H   0  0  0  0  0  0  0  0  0  0  0  0
   65.5899   32.2549   48.7654 H   0  0  0  0  0  0  0  0  0  0  0  0
   65.2963   34.0270   48.7654 H   0  0  0  0  0  0  0  0  0  0  0  0
   63.6037   34.5201   47.1830 H   0  0  0  0  0  0  0  0  0  0  0  0
   64.4800   33.0804   46.5618 H   0  0  0  0  0  0  0  0  0  0  0  0
   62.6840   33.1077   46.5618 H   0  0  0  0  0  0  0  0  0  0  0  0
   62.4890   31.3270   47.9590 H   0  0  0  0  0  0  0  0  0  0  0  0
   62.1079   32.6830   49.9747 H   0  0  0  0  0  0  0  0  0  0  0  0
   62.9419   34.3028   49.8130 H   0  0  0  0  0  0  0  0  0  0  0  0
   60.9998   34.9659   48.8779 H   0  0  0  0  0  0  0  0  0  0  0  0
   61.6695   34.0847   47.4098 H   0  0  0  0  0  0  0  0  0  0  0  0
   61.0564   28.4374   46.9418 H   0  0  0  0  0  0  0  0  0  0  0  0
   59.5724   26.6737   45.9860 H   0  0  0  0  0  0  0  0  0  0  0  0
   57.4977   27.3120   44.7518 H   0  0  0  0  0  0  0  0  0  0  0  0
   56.5144   30.9179   44.1796 H   0  0  0  0  0  0  0  0  0  0  0  0
   56.5065   29.3114   43.3645 H   0  0  0  0  0  0  0  0  0  0  0  0
   55.5690   29.7170   46.0130 H   0  0  0  0  0  0  0  0  0  0  0  0
   58.3350   31.4943   45.5208 H   0  0  0  0  0  0  0  0  0  0  0  0
   60.8070   34.5222   46.1106 H   0  0  0  0  0  0  0  0  0  0  0  0
   59.3922   35.2082   44.1812 H   0  0  0  0  0  0  0  0  0  0  0  0
   56.9774   34.5905   44.1114 H   0  0  0  0  0  0  0  0  0  0  0  0
   55.9782   33.2579   45.9680 H   0  0  0  0  0  0  0  0  0  0  0  0
   57.3751   32.5663   47.9049 H   0  0  0  0  0  0  0  0  0  0  0  0
   60.3483   34.5883   50.7472 H   0  0  0  0  0  0  0  0  0  0  0  0
   59.1178   34.3297   52.8940 H   0  0  0  0  0  0  0  0  0  0  0  0
   57.3579   32.5804   53.1325 H   0  0  0  0  0  0  0  0  0  0  0  0
   56.8478   31.0558   51.2238 H   0  0  0  0  0  0  0  0  0  0  0  0
   58.0748   31.2919   49.0730 H   0  0  0  0  0  0  0  0  0  0  0  0
  1  2  1  0
  2  3  1  0
  2  4  1  0
  2  5  1  0
  5  6  1  0
  6  7  1  0
  7  8  1  0
  8  9  2  0
  8 10  1  0
 10 11  1  0
 11 12  2  0
 12 13  1  0
 13 14  2  0
 14 15  1  0
 15 16  1  0
 16 17  1  0
 15 18  2  0
  7 19  1  0
 19 20  2  0
 20 21  1  0
 21 22  2  0
 22 23  1  0
 23 24  2  0
  7 25  1  0
 25 26  2  0
 26 27  1  0
 27 28  2  0
 28 29  1  0
 29 30  2  0
 18 11  1  0
 24 19  1  0
 30 25  1  0
  1 31  1  0
  1 32  1  0
  1 33  1  0
  3 34  1  0
  3 35  1  0
  3 36  1  0
  4 37  1  0
  5 38  1  0
  5 39  1  0
  6 40  1  0
  6 41  1  0
 12 42  1  0
 13 43  1  0
 14 44  1  0
 16 45  1  0
 16 46  1  0
 17 47  1  0
 18 48  1  0
 20 49  1  0
 21 50  1  0
 22 51  1  0
 23 52  1  0
 24 53  1  0
 26 54  1  0
 27 55  1  0
 28 56  1  0
 29 57  1  0
 30 58  1  0
M  CHG  2   2   1  10  -1
M  END
>  <UniqueID>  (41) 
38

>  <SMILES>  (41) 
C[N+](C)(O)CCC(C(=O)[N-]c1cccc(CO)c1)(c1ccccc1)c1ccccc1

>  <Energy>  (41) 
82.70846547156816

>  <Genealogy>  (41) 
C[N+](C)(O)CCC(C(=O)[N-]c1cccc(CO)c1)(c1ccccc1)c1ccccc1 (protonated)
C[N+](C)(O)CCC(C(=O)[N-]c1cccc(CO)c1)(c1ccccc1)c1ccccc1 (3D coordinates assigned)
C[N+](C)(O)CCC(C(=O)[N-]c1cccc(CO)c1)(c1ccccc1)c1ccccc1 (optimized conformer: 82.70846547156816 kcal/mol)

>  <smiles>  (41) 
C[N+](C)([O-])CCC(C(=O)Nc1cccc(CO)c1)(c1ccccc1)c1ccccc1

>  <score_type>  (41) 
oracle

>  <origin>  (41) 
adg

>  <m_score__min__energy>  (41) 
-8.6600000000000001

>  <m_primary>  (41) 
energy

$$$$
41:0
     RDKit          3D

 65 69  0  0  0  0  0  0  0  0999 V2000
   57.4470   32.3320   50.6250 N   0  0  0  0  0  0  0  0  0  0  0  0
   58.3330   30.9010   51.0270 S   0  0  0  0  0  0  0  0  0  0  0  0
   59.3160   31.2210   52.1200 O   0  0  0  0  0  0  0  0  0  0  0  0
   57.3870   29.8420   51.5230 O   0  0  0  0  0  0  0  0  0  0  0  0
   59.1760   30.3060   49.6010 C   0  0  0  0  0  0  0  0  0  0  0  0
   60.4730   30.7460   49.2990 C   0  0  0  0  0  0  0  0  0  0  0  0
   61.1350   30.2580   48.1690 C   0  0  0  0  0  0  0  0  0  0  0  0
   60.5090   29.3290   47.3340 C   0  0  0  0  0  0  0  0  0  0  0  0
   59.2140   28.8760   47.6300 C   0  0  0  0  0  0  0  0  0  0  0  0
   58.5580   27.8860   46.7530 C   0  0  0  0  0  0  0  0  0  0  0  0
   58.7880   26.5250   47.0040 C   0  0  0  0  0  0  0  0  0  0  0  0
   58.2300   25.5530   46.1780 C   0  0  0  0  0  0  0  0  0  0  0  0
   57.4380   25.9470   45.1030 C   0  0  0  0  0  0  0  0  0  0  0  0
   57.2110   27.2650   44.8710 N   0  0  0  0  0  0  0  0  0  0  0  0
   57.7350   28.2500   45.6530 C   0  0  0  0  0  0  0  0  0  0  0  0
   57.3930   29.6510   45.3080 C   0  0  0  0  0  0  0  0  0  0  0  0
   56.1920   30.0280   45.2330 O   0  0  0  0  0  0  0  0  0  0  0  0
   58.4560   30.5900   45.0880 N   0  0  0  0  0  0  0  0  0  0  0  0
   58.6850   31.8100   45.8070 C   0  0  0  0  0  0  0  0  0  0  0  0
   57.6350   32.6500   46.2170 C   0  0  0  0  0  0  0  0  0  0  0  0
   57.9120   33.8390   46.8980 C   0  0  0  0  0  0  0  0  0  0  0  0
   59.2330   34.2020   47.1720 C   0  0  0  0  0  0  0  0  0  0  0  0
   60.2920   33.3780   46.7600 C   0  0  0  0  0  0  0  0  0  0  0  0
   61.6970   33.7700   47.0120 C   0  0  0  0  0  0  0  0  0  0  0  0
   62.4030   34.2110   46.0660 O   0  0  0  0  0  0  0  0  0  0  0  0
   62.2870   33.5980   48.3090 N   0  0  0  0  0  0  0  0  0  0  0  0
   61.7000   34.2450   49.4900 C   0  0  0  0  0  0  0  0  0  0  0  0
   61.5850   33.2390   50.6420 C   0  0  0  0  0  0  0  0  0  0  0  0
   62.7700   32.3670   50.7240 N   0  0  0  0  0  0  0  0  0  0  0  0
   62.8050   31.2980   51.6900 C   0  0  0  0  0  0  0  0  0  0  0  0
   62.4640   31.5380   53.0330 C   0  0  0  0  0  0  0  0  0  0  0  0
   62.4630   30.4930   53.9600 C   0  0  0  0  0  0  0  0  0  0  0  0
   62.8050   29.1980   53.5570 C   0  0  0  0  0  0  0  0  0  0  0  0
   63.1500   28.9490   52.2260 C   0  0  0  0  0  0  0  0  0  0  0  0
   63.1500   29.9940   51.2950 C   0  0  0  0  0  0  0  0  0  0  0  0
   63.9460   32.6500   49.8900 C   0  0  0  0  0  0  0  0  0  0  0  0
   63.5230   32.8170   48.4270 C   0  0  0  0  0  0  0  0  0  0  0  0
   60.0060   32.1980   46.0550 C   0  0  0  0  0  0  0  0  0  0  0  0
   58.5440   29.3800   48.7580 C   0  0  0  0  0  0  0  0  0  0  0  0
   57.1190   32.2190   49.6400 H   0  0  0  0  0  0  0  0  0  0  0  0
   56.5940   32.3430   51.2290 H   0  0  0  0  0  0  0  0  0  0  0  0
   60.9705   31.4771   49.9532 H   0  0  0  0  0  0  0  0  0  0  0  0
   62.1521   30.6064   47.9363 H   0  0  0  0  0  0  0  0  0  0  0  0
   61.0321   28.9519   46.4429 H   0  0  0  0  0  0  0  0  0  0  0  0
   59.4126   26.2242   47.8581 H   0  0  0  0  0  0  0  0  0  0  0  0
   58.4128   24.4859   46.3726 H   0  0  0  0  0  0  0  0  0  0  0  0
   56.9953   25.1888   44.4403 H   0  0  0  0  0  0  0  0  0  0  0  0
   56.5930   32.3711   46.0015 H   0  0  0  0  0  0  0  0  0  0  0  0
   57.0867   34.4913   47.2194 H   0  0  0  0  0  0  0  0  0  0  0  0
   59.4439   35.1366   47.7124 H   0  0  0  0  0  0  0  0  0  0  0  0
   62.3410   35.0828   49.8017 H   0  0  0  0  0  0  0  0  0  0  0  0
   60.6961   34.6153   49.2349 H   0  0  0  0  0  0  0  0  0  0  0  0
   61.4821   33.7906   51.5881 H   0  0  0  0  0  0  0  0  0  0  0  0
   60.7049   32.6054   50.4575 H   0  0  0  0  0  0  0  0  0  0  0  0
   62.1964   32.5550   53.3556 H   0  0  0  0  0  0  0  0  0  0  0  0
   62.1929   30.6888   55.0082 H   0  0  0  0  0  0  0  0  0  0  0  0
   62.8024   28.3757   54.2877 H   0  0  0  0  0  0  0  0  0  0  0  0
   63.4217   27.9311   51.9098 H   0  0  0  0  0  0  0  0  0  0  0  0
   63.4216   29.7936   50.2481 H   0  0  0  0  0  0  0  0  0  0  0  0
   64.4253   33.5767   50.2386 H   0  0  0  0  0  0  0  0  0  0  0  0
   64.6539   31.8117   49.9677 H   0  0  0  0  0  0  0  0  0  0  0  0
   64.3255   33.3335   47.8799 H   0  0  0  0  0  0  0  0  0  0  0  0
   63.3406   31.8177   48.0049 H   0  0  0  0  0  0  0  0  0  0  0  0
   60.8327   31.5694   45.6924 H   0  0  0  0  0  0  0  0  0  0  0  0
   57.5196   29.0469   48.9807 H   0  0  0  0  0  0  0  0  0  0  0  0
  1  2  1  0
  2  3  2  0
  2  4  2  0
  2  5  1  0
  5  6  2  0
  6  7  1  0
  7  8  2  0
  8  9  1  0
  9 10  1  0
 10 11  2  0
 11 12  1  0
 12 13  2  0
 13 14  1  0
 14 15  2  0
 15 16  1  0
 16 17  2  0
 16 18  1  0
 18 19  1  0
 19 20  2  0
 20 21  1  0
 21 22  2  0
 22 23  1  0
 23 24  1  0
 24 25  2  0
 24 26  1  0
 26 27  1  0
 27 28  1  0
 28 29  1  0
 29 30  1  0
 30 31  2  0
 31 32  1  0
 32 33  2  0
 33 34  1  0
 34 35  2  0
 29 36  1  0
 36 37  1  0
 23 38  2  0
  9 39  2  0
 39  5  1  0
 15 10  1  0
 38 19  1  0
 37 26  1  0
 35 30  1  0
  1 40  1  0
  1 41  1  0
  6 42  1  0
  7 43  1  0
  8 44  1  0
 11 45  1  0
 12 46  1  0
 13 47  1  0
 20 48  1  0
 21 49  1  0
 22 50  1  0
 27 51  1  0
 27 52  1  0
 28 53  1  0
 28 54  1  0
 31 55  1  0
 32 56  1  0
 33 57  1  0
 34 58  1  0
 35 59  1  0
 36 60  1  0
 36 61  1  0
 37 62  1  0
 37 63  1  0
 38 64  1  0
 39 65  1  0
M  CHG  1  18  -1
M  END
>  <UniqueID>  (42) 
39

>  <SMILES>  (42) 
NS(=O)(=O)c1cccc(-c2cccnc2C(=O)[N-]c2cccc(C(=O)N3CCN(c4ccccc4)CC3)c2)c1

>  <Energy>  (42) 
93.17556515649365

>  <Genealogy>  (42) 
NS(=O)(=O)c1cccc(-c2cccnc2C(=O)[N-]c2cccc(C(=O)N3CCN(c4ccccc4)CC3)c2)c1 (protonated)
NS(=O)(=O)c1cccc(-c2cccnc2C(=O)[N-]c2cccc(C(=O)N3CCN(c4ccccc4)CC3)c2)c1 (3D coordinates assigned)
NS(=O)(=O)c1cccc(-c2cccnc2C(=O)[N-]c2cccc(C(=O)N3CCN(c4ccccc4)CC3)c2)c1 (nonaromatic ring conformer: 93.17556515649365 kcal/mol)

>  <smiles>  (42) 
NS(=O)(=O)c1cccc(-c2cccnc2C(=O)Nc2cccc(C(=O)N3CCN(c4ccccc4)CC3)c2)c1

>  <score_type>  (42) 
oracle

>  <origin>  (42) 
adg

>  <m_score__min__energy>  (42) 
-13.699999999999999

>  <m_primary>  (42) 
energy

$$$$
42:0
     RDKit          3D

 56 59  0  0  0  0  0  0  0  0999 V2000
   55.2270   30.4160   44.4840 O   0  0  0  0  0  0  0  0  0  0  0  0
   56.0730   29.4820   44.4510 C   0  0  0  0  0  0  0  0  0  0  0  0
   57.2570   29.5920   43.5430 C   0  0  0  0  0  0  0  0  0  0  0  0
   57.8230   30.9010   43.6090 O   0  0  0  0  0  0  0  0  0  0  0  0
   57.8490   31.7290   44.7470 C   0  0  0  0  0  0  0  0  0  0  0  0
   57.0180   32.8610   44.8610 C   0  0  0  0  0  0  0  0  0  0  0  0
   57.0660   33.6630   45.9990 C   0  0  0  0  0  0  0  0  0  0  0  0
   57.9410   33.3590   47.0420 C   0  0  0  0  0  0  0  0  0  0  0  0
   58.7840   32.2360   46.9560 C   0  0  0  0  0  0  0  0  0  0  0  0
   59.6800   31.9100   47.9960 C   0  0  0  0  0  0  0  0  0  0  0  0
   59.7420   32.6430   49.0230 O   0  0  0  0  0  0  0  0  0  0  0  0
   60.4870   30.8050   47.8940 N   0  0  0  0  0  0  0  0  0  0  0  0
   61.4440   30.4690   48.9630 C   0  0  0  0  0  0  0  0  0  0  0  0
   60.7940   29.6530   50.0450 C   0  0  0  0  0  0  0  0  0  0  0  0
   61.2390   28.5060   50.3300 O   0  0  0  0  0  0  0  0  0  0  0  0
   59.6350   30.1640   50.7170 N   0  0  0  0  0  0  0  0  0  0  0  0
   58.9620   29.3930   51.7670 C   0  0  0  0  0  0  0  0  0  0  0  0
   57.9580   30.2490   52.5580 C   0  0  2  0  0  0  0  0  0  0  0  0
   56.5240   29.7520   52.4220 C   0  0  0  0  0  0  0  0  0  0  0  0
   55.7320   31.0190   52.4940 C   0  0  0  0  0  0  0  0  0  0  0  0
   56.7050   32.0630   51.9820 C   0  0  0  0  0  0  0  0  0  0  0  0
   58.0260   31.5990   52.1500 O   0  0  0  0  0  0  0  0  0  0  0  0
   60.4510   30.0190   46.7750 C   0  0  0  0  0  0  0  0  0  0  0  0
   59.5830   30.3060   45.7250 C   0  0  0  0  0  0  0  0  0  0  0  0
   58.7360   31.4190   45.8010 C   0  0  0  0  0  0  0  0  0  0  0  0
   55.8950   28.2980   45.2390 N   0  0  0  0  0  0  0  0  0  0  0  0
   56.9260   27.4470   45.7620 C   0  0  0  0  0  0  0  0  0  0  0  0
   57.1180   26.1890   45.1750 C   0  0  0  0  0  0  0  0  0  0  0  0
   58.1210   25.3340   45.6430 C   0  0  0  0  0  0  0  0  0  0  0  0
   58.9480   25.7360   46.6940 C   0  0  0  0  0  0  0  0  0  0  0  0
   58.7820   26.9990   47.2690 C   0  0  0  0  0  0  0  0  0  0  0  0
   59.6010   27.3950   48.2760 F   0  0  0  0  0  0  0  0  0  0  0  0
   57.7810   27.8570   46.8030 C   0  0  0  0  0  0  0  0  0  0  0  0
   58.0149   28.8550   43.8469 H   0  0  0  0  0  0  0  0  0  0  0  0
   56.9302   29.3994   42.5105 H   0  0  0  0  0  0  0  0  0  0  0  0
   56.3255   33.1136   44.0445 H   0  0  0  0  0  0  0  0  0  0  0  0
   56.4093   34.5421   46.0757 H   0  0  0  0  0  0  0  0  0  0  0  0
   57.9720   34.0000   47.9354 H   0  0  0  0  0  0  0  0  0  0  0  0
   62.2754   29.8928   48.5308 H   0  0  0  0  0  0  0  0  0  0  0  0
   61.8085   31.4065   49.4083 H   0  0  0  0  0  0  0  0  0  0  0  0
   59.2720   31.1040   50.4390 H   0  0  0  0  0  0  0  0  0  0  0  0
   58.4239   28.5539   51.3017 H   0  0  0  0  0  0  0  0  0  0  0  0
   59.7291   29.0341   52.4690 H   0  0  0  0  0  0  0  0  0  0  0  0
   58.2431   30.1618   53.6168 H   0  0  0  0  0  0  0  0  0  0  0  0
   56.3701   29.2415   51.4599 H   0  0  0  0  0  0  0  0  0  0  0  0
   56.2416   29.0151   53.1883 H   0  0  0  0  0  0  0  0  0  0  0  0
   54.8394   30.9635   51.8536 H   0  0  0  0  0  0  0  0  0  0  0  0
   55.3564   31.2370   53.5047 H   0  0  0  0  0  0  0  0  0  0  0  0
   56.5149   32.2488   50.9146 H   0  0  0  0  0  0  0  0  0  0  0  0
   56.5705   32.9971   52.5472 H   0  0  0  0  0  0  0  0  0  0  0  0
   61.1179   29.1471   46.7037 H   0  0  0  0  0  0  0  0  0  0  0  0
   59.5624   29.6588   44.8358 H   0  0  0  0  0  0  0  0  0  0  0  0
   56.4754   25.8719   44.3404 H   0  0  0  0  0  0  0  0  0  0  0  0
   58.2585   24.3443   45.1830 H   0  0  0  0  0  0  0  0  0  0  0  0
   59.7296   25.0590   47.0691 H   0  0  0  0  0  0  0  0  0  0  0  0
   57.6612   28.8546   47.2507 H   0  0  0  0  0  0  0  0  0  0  0  0
  1  2  2  0
  2  3  1  0
  3  4  1  0
  4  5  1  0
  5  6  2  0
  6  7  1  0
  7  8  2  0
  8  9  1  0
  9 10  1  0
 10 11  2  0
 10 12  1  0
 12 13  1  0
 13 14  1  0
 14 15  2  0
 14 16  1  0
 16 17  1  0
 17 18  1  0
 18 19  1  0
 19 20  1  0
 20 21  1  0
 21 22  1  0
 12 23  1  0
 23 24  2  0
 24 25  1  0
  2 26  1  0
 26 27  1  0
 27 28  2  0
 28 29  1  0
 29 30  2  0
 30 31  1  0
 31 32  1  0
 31 33  2  0
 25  5  1  0
 33 27  1  0
 25  9  2  0
 22 18  1  0
  3 34  1  0
  3 35  1  0
  6 36  1  0
  7 37  1  0
  8 38  1  0
 13 39  1  0
 13 40  1  0
 16 41  1  0
 17 42  1  0
 17 43  1  0
 18 44  1  1
 19 45  1  0
 19 46  1  0
 20 47  1  0
 20 48  1  0
 21 49  1  0
 21 50  1  0
 23 51  1  0
 24 52  1  0
 28 53  1  0
 29 54  1  0
 30 55  1  0
 33 56  1  0
M  CHG  1  26  -1
M  END
>  <UniqueID>  (43) 
40

>  <SMILES>  (43) 
O=C(COc1cccc2c(=O)n(CC(=O)NC[C@@H]3CCCO3)ccc12)[N-]c1cccc(F)c1

>  <Energy>  (43) 
65.48646482606736

>  <Genealogy>  (43) 
O=C(COc1cccc2c(=O)n(CC(=O)NCC3CCCO3)ccc12)[N-]c1cccc(F)c1 (protonated)
O=C(COc1cccc2c(=O)n(CC(=O)NC[C@@H]3CCCO3)ccc12)[N-]c1cccc(F)c1 (chirality)
O=C(COc1cccc2c(=O)n(CC(=O)NC[C@@H]3CCCO3)ccc12)[N-]c1cccc(F)c1 (3D coordinates assigned)
O=C(COc1cccc2c(=O)n(CC(=O)NC[C@@H]3CCCO3)ccc12)[N-]c1cccc(F)c1 (nonaromatic ring conformer: 65.48646482606736 kcal/mol)

>  <smiles>  (43) 
O=C(Cn1ccc2c(OCC(=O)Nc3cccc(F)c3)cccc2c1=O)NCC1CCCO1

>  <score_type>  (43) 
oracle

>  <origin>  (43) 
adg

>  <m_score__min__energy>  (43) 
-10.27

>  <m_primary>  (43) 
energy

$$$$
43:0
     RDKit          3D

 45 47  0  0  0  0  0  0  0  0999 V2000
   59.6430   35.3290   45.5020 C   0  0  0  0  0  0  0  0  0  0  0  0
   59.2280   34.5140   46.6860 C   0  0  0  0  0  0  0  0  0  0  0  0
   60.1000   34.3400   47.7350 N   0  0  0  0  0  0  0  0  0  0  0  0
   59.6130   33.4460   48.6440 C   0  0  0  0  0  0  0  0  0  0  0  0
   58.2110   32.7530   48.0750 S   0  0  0  0  0  0  0  0  0  0  0  0
   58.0540   33.7560   46.7490 C   0  0  0  0  0  0  0  0  0  0  0  0
   57.0910   33.3800   45.6450 C   0  0  0  0  0  0  0  0  0  0  0  0
   57.7820   33.0860   44.3730 N   0  0  0  0  0  0  0  0  0  0  0  0
   58.0690   31.6470   44.1830 C   0  0  0  0  0  0  0  0  0  0  0  0
   56.7730   30.8060   44.0630 C   0  0  0  0  0  0  0  0  0  0  0  0
   57.1460   29.3320   43.8380 C   0  0  0  0  0  0  0  0  0  0  0  0
   58.0420   28.8870   44.9280 N   0  0  0  0  0  0  0  0  0  0  0  0
   57.7180   27.7330   45.7190 C   0  0  0  0  0  0  0  0  0  0  0  0
   58.1360   27.6760   46.9180 O   0  0  0  0  0  0  0  0  0  0  0  0
   56.9830   26.6480   45.1510 N   0  0  0  0  0  0  0  0  0  0  0  0
   56.5850   25.5210   45.9230 C   0  0  0  0  0  0  0  0  0  0  0  0
   55.3920   24.8380   45.6240 C   0  0  0  0  0  0  0  0  0  0  0  0
   55.0030   23.7380   46.4000 C   0  0  0  0  0  0  0  0  0  0  0  0
   55.8120   23.3130   47.4650 C   0  0  0  0  0  0  0  0  0  0  0  0
   55.4350   22.2570   48.2300 F   0  0  0  0  0  0  0  0  0  0  0  0
   57.0230   23.9670   47.7250 C   0  0  0  0  0  0  0  0  0  0  0  0
   57.4110   25.0650   46.9560 C   0  0  0  0  0  0  0  0  0  0  0  0
   59.2660   29.6500   45.1670 C   0  0  0  0  0  0  0  0  0  0  0  0
   58.9160   31.1240   45.3740 C   0  0  0  0  0  0  0  0  0  0  0  0
   60.1171   36.2601   45.8458 H   0  0  0  0  0  0  0  0  0  0  0  0
   60.3589   34.7555   44.8948 H   0  0  0  0  0  0  0  0  0  0  0  0
   58.7581   35.5706   44.8948 H   0  0  0  0  0  0  0  0  0  0  0  0
   60.0799   33.2165   49.6132 H   0  0  0  0  0  0  0  0  0  0  0  0
   56.5278   32.4877   45.9558 H   0  0  0  0  0  0  0  0  0  0  0  0
   56.4237   34.2377   45.4745 H   0  0  0  0  0  0  0  0  0  0  0  0
   57.1140   33.3610   43.6080 H   0  0  0  0  0  0  0  0  0  0  0  0
   58.6269   31.5400   43.2410 H   0  0  0  0  0  0  0  0  0  0  0  0
   56.1865   30.8999   44.9888 H   0  0  0  0  0  0  0  0  0  0  0  0
   56.1740   31.1692   43.2149 H   0  0  0  0  0  0  0  0  0  0  0  0
   56.2338   28.7173   43.8371 H   0  0  0  0  0  0  0  0  0  0  0  0
   57.6575   29.2230   42.8703 H   0  0  0  0  0  0  0  0  0  0  0  0
   56.9170   26.5690   44.1080 H   0  0  0  0  0  0  0  0  0  0  0  0
   54.7653   25.1671   44.7820 H   0  0  0  0  0  0  0  0  0  0  0  0
   54.0654   23.2087   46.1748 H   0  0  0  0  0  0  0  0  0  0  0  0
   57.6718   23.6132   48.5398 H   0  0  0  0  0  0  0  0  0  0  0  0
   58.3655   25.5715   47.1619 H   0  0  0  0  0  0  0  0  0  0  0  0
   59.7696   29.2632   46.0652 H   0  0  0  0  0  0  0  0  0  0  0  0
   59.9352   29.5505   44.2996 H   0  0  0  0  0  0  0  0  0  0  0  0
   58.3402   31.2333   46.3049 H   0  0  0  0  0  0  0  0  0  0  0  0
   59.8460   31.7081   45.4364 H   0  0  0  0  0  0  0  0  0  0  0  0
  1  2  1  0
  2  3  1  0
  3  4  2  0
  4  5  1  0
  5  6  1  0
  6  7  1  0
  7  8  1  0
  8  9  1  0
  9 10  1  0
 10 11  1  0
 11 12  1  0
 12 13  1  0
 13 14  2  0
 13 15  1  0
 15 16  1  0
 16 17  2  0
 17 18  1  0
 18 19  2  0
 19 20  1  0
 19 21  1  0
 21 22  2  0
 12 23  1  0
 23 24  1  0
  6  2  2  0
 24  9  1  0
 22 16  1  0
  1 25  1  0
  1 26  1  0
  1 27  1  0
  4 28  1  0
  7 29  1  0
  7 30  1  0
  8 31  1  0
  9 32  1  0
 10 33  1  0
 10 34  1  0
 11 35  1  0
 11 36  1  0
 15 37  1  0
 17 38  1  0
 18 39  1  0
 21 40  1  0
 22 41  1  0
 23 42  1  0
 23 43  1  0
 24 44  1  0
 24 45  1  0
M  END
>  <UniqueID>  (44) 
41

>  <SMILES>  (44) 
Cc1ncsc1CNC1CCN(C(=O)Nc2ccc(F)cc2)CC1

>  <Energy>  (44) 
89.01732711576962

>  <Genealogy>  (44) 
Cc1ncsc1CNC1CCN(C(=O)Nc2ccc(F)cc2)CC1 (3D coordinates assigned)
Cc1ncsc1CNC1CCN(C(=O)Nc2ccc(F)cc2)CC1 (nonaromatic ring conformer: 89.01732711576962 kcal/mol)

>  <smiles>  (44) 
Cc1ncsc1CNC1CCN(C(=O)Nc2ccc(F)cc2)CC1

>  <score_type>  (44) 
oracle

>  <origin>  (44) 
adg

>  <m_score__min__energy>  (44) 
-7.3899999999999997

>  <m_primary>  (44) 
energy

$$$$
44:0
     RDKit          3D

 33 34  0  0  0  0  0  0  0  0999 V2000
   52.1234   32.4800   50.2687 H   0  0  0  0  0  0  0  0  0  0  0  0
   52.2100   31.9560   51.2320 C   0  0  0  0  0  0  0  0  0  0  0  0
   53.2690   31.0730   51.4490 C   0  0  0  0  0  0  0  0  0  0  0  0
   54.0160   30.9091   50.6584 H   0  0  0  0  0  0  0  0  0  0  0  0
   53.3850   30.3930   52.6720 C   0  0  0  0  0  0  0  0  0  0  0  0
   54.5340   29.4490   52.9160 C   0  0  0  0  0  0  0  0  0  0  0  0
   54.1669   28.4135   52.8615 H   0  0  0  0  0  0  0  0  0  0  0  0
   54.9535   29.6566   53.9114 H   0  0  0  0  0  0  0  0  0  0  0  0
   55.5870   29.6370   51.9170 N   0  0  0  0  0  0  0  0  0  0  0  0
   56.5630   30.5020   51.9510 C   0  0  0  0  0  0  0  0  0  0  0  0
   56.3950   31.8160   52.4270 C   0  0  0  0  0  0  0  0  0  0  0  0
   55.4136   32.1508   52.7941 H   0  0  0  0  0  0  0  0  0  0  0  0
   57.4820   32.6910   52.4300 C   0  0  0  0  0  0  0  0  0  0  0  0
   57.3554   33.7195   52.7991 H   0  0  0  0  0  0  0  0  0  0  0  0
   58.6970   32.2790   51.9790 N   0  0  0  0  0  0  0  0  0  0  0  0
   59.4940   32.9530   51.9920 H   0  0  0  0  0  0  0  0  0  0  0  0
   58.9000   31.0140   51.5150 C   0  0  0  0  0  0  0  0  0  0  0  0
   60.1830   30.6630   51.0670 O   0  0  0  0  0  0  0  0  0  0  0  0
   60.4700   30.1290   49.7790 C   0  0  0  0  0  0  0  0  0  0  0  0
   60.9882   29.1649   49.8889 H   0  0  0  0  0  0  0  0  0  0  0  0
   59.5307   29.9795   49.2264 H   0  0  0  0  0  0  0  0  0  0  0  0
   61.1129   30.8299   49.2264 H   0  0  0  0  0  0  0  0  0  0  0  0
   57.8260   30.1050   51.4980 C   0  0  0  0  0  0  0  0  0  0  0  0
   57.9796   29.0806   51.1280 H   0  0  0  0  0  0  0  0  0  0  0  0
   52.4360   30.6260   53.6810 C   0  0  0  0  0  0  0  0  0  0  0  0
   52.5329   30.1135   54.6495 H   0  0  0  0  0  0  0  0  0  0  0  0
   51.3640   31.5080   53.4640 C   0  0  0  0  0  0  0  0  0  0  0  0
   50.3560   31.7560   54.5500 C   0  0  0  0  0  0  0  0  0  0  0  0
   50.8380   31.6374   55.5317 H   0  0  0  0  0  0  0  0  0  0  0  0
   49.9606   32.7782   54.4568 H   0  0  0  0  0  0  0  0  0  0  0  0
   49.5314   31.0339   54.4568 H   0  0  0  0  0  0  0  0  0  0  0  0
   51.2590   32.1780   52.2320 C   0  0  0  0  0  0  0  0  0  0  0  0
   50.2150   33.0650   51.9970 O   0  0  0  0  0  0  0  0  0  0  0  0
  1  2  1  0
  2  3  2  0
  3  4  1  0
  3  5  1  0
  5  6  1  0
  6  7  1  0
  6  8  1  0
  6  9  1  0
  9 10  2  0
 10 11  1  0
 11 12  1  0
 11 13  2  0
 13 14  1  0
 13 15  1  0
 15 16  1  0
 15 17  1  0
 17 18  1  0
 18 19  1  0
 19 20  1  0
 19 21  1  0
 19 22  1  0
 17 23  2  0
 23 24  1  0
  5 25  2  0
 25 26  1  0
 25 27  1  0
 27 28  1  0
 28 29  1  0
 28 30  1  0
 28 31  1  0
 27 32  2  0
 32 33  1  0
 32  2  1  0
 23 10  1  0
M  CHG  1  33  -1
M  END
>  <UniqueID>  (45) 
42

>  <SMILES>  (45) 
COc1c/c(=N/Cc2ccc([O-])c(C)c2)cc[nH]1

>  <Energy>  (45) 
34.32933177191738

>  <Genealogy>  (45) 
COc1cc(=NCc2ccc([O-])c(C)c2)cc[nH]1 (protonated)
COc1c/c(=N/Cc2ccc([O-])c(C)c2)cc[nH]1 (cis-trans isomerization)
COc1c/c(=N/Cc2ccc([O-])c(C)c2)cc[nH]1 (3D coordinates assigned)
COc1c/c(=N/Cc2ccc([O-])c(C)c2)cc[nH]1 (optimized conformer: 34.32933177191738 kcal/mol)

>  <smiles>  (45) 
COc1cc(=NCc2ccc(O)c(C)c2)cc[nH]1

>  <score_type>  (45) 
oracle

>  <origin>  (45) 
adg

>  <m_score__min__energy>  (45) 
-9.3399999999999999

>  <m_primary>  (45) 
energy

$$$$
45:0
     RDKit          3D

 55 58  0  0  0  0  0  0  0  0999 V2000
   59.2260   35.7150   47.2230 O   0  0  0  0  0  0  0  0  0  0  0  0
   59.8850   34.7810   46.6940 C   0  0  0  0  0  0  0  0  0  0  0  0
   59.5670   34.3510   45.3630 N   0  0  0  0  0  0  0  0  0  0  0  0
   58.8770   33.1440   45.0120 C   0  0  0  0  0  0  0  0  0  0  0  0
   58.4660   32.8840   43.6930 C   0  0  0  0  0  0  0  0  0  0  0  0
   57.7500   31.7180   43.3940 C   0  0  0  0  0  0  0  0  0  0  0  0
   57.4190   30.8090   44.4110 C   0  0  0  0  0  0  0  0  0  0  0  0
   56.4900   29.3560   44.0380 S   0  0  0  0  0  0  0  0  0  0  0  0
   55.2300   29.3520   44.8620 O   0  0  0  0  0  0  0  0  0  0  0  0
   56.0920   29.3850   42.5870 O   0  0  0  0  0  0  0  0  0  0  0  0
   57.3930   27.8930   44.3620 N   0  0  0  0  0  0  0  0  0  0  0  0
   58.8230   28.0830   44.0960 C   0  0  0  0  0  0  0  0  0  0  0  0
   59.5320   28.3320   45.4180 C   0  0  0  0  0  0  0  0  0  0  0  0
   58.5170   28.0160   46.4990 C   0  0  0  0  0  0  0  0  0  0  0  0
   57.2860   27.5060   45.7710 C   0  0  0  0  0  0  0  0  0  0  0  0
   57.8210   31.0730   45.7270 C   0  0  0  0  0  0  0  0  0  0  0  0
   58.5360   32.2390   46.0260 C   0  0  0  0  0  0  0  0  0  0  0  0
   60.9720   34.1610   47.4090 N   0  0  0  0  0  0  0  0  0  0  0  0
   61.2820   34.5370   48.8010 C   0  0  0  0  0  0  0  0  0  0  0  0
   61.2250   33.2910   49.6950 C   0  0  0  0  0  0  0  0  0  0  0  0
   61.8740   32.1430   49.0440 N   0  0  0  0  0  0  0  0  0  0  0  0
   61.6070   30.8190   49.5250 C   0  0  0  0  0  0  0  0  0  0  0  0
   62.2000   30.3750   50.7150 C   0  0  0  0  0  0  0  0  0  0  0  0
   61.9490   29.0780   51.1840 C   0  0  0  0  0  0  0  0  0  0  0  0
   61.1090   28.2230   50.4620 C   0  0  0  0  0  0  0  0  0  0  0  0
   60.5260   28.6570   49.2670 C   0  0  0  0  0  0  0  0  0  0  0  0
   60.7730   29.9540   48.7920 C   0  0  0  0  0  0  0  0  0  0  0  0
   60.2040   30.3870   47.5950 O   0  0  0  0  0  0  0  0  0  0  0  0
   62.6110   32.3290   47.7880 C   0  0  0  0  0  0  0  0  0  0  0  0
   61.7170   33.0580   46.7760 C   0  0  0  0  0  0  0  0  0  0  0  0
   58.7076   33.5990   42.8928 H   0  0  0  0  0  0  0  0  0  0  0  0
   57.4455   31.5136   42.3569 H   0  0  0  0  0  0  0  0  0  0  0  0
   59.2344   27.1814   43.6186 H   0  0  0  0  0  0  0  0  0  0  0  0
   58.9699   28.9404   43.4227 H   0  0  0  0  0  0  0  0  0  0  0  0
   60.4086   27.6742   45.5120 H   0  0  0  0  0  0  0  0  0  0  0  0
   59.8938   29.3680   45.4937 H   0  0  0  0  0  0  0  0  0  0  0  0
   58.9080   27.2442   47.1783 H   0  0  0  0  0  0  0  0  0  0  0  0
   58.2886   28.9002   47.1122 H   0  0  0  0  0  0  0  0  0  0  0  0
   57.2324   26.4104   45.8530 H   0  0  0  0  0  0  0  0  0  0  0  0
   56.3767   27.9372   46.2150 H   0  0  0  0  0  0  0  0  0  0  0  0
   57.5738   30.3613   46.5285 H   0  0  0  0  0  0  0  0  0  0  0  0
   58.8323   32.4462   47.0649 H   0  0  0  0  0  0  0  0  0  0  0  0
   62.2903   34.9744   48.8463 H   0  0  0  0  0  0  0  0  0  0  0  0
   60.5452   35.2738   49.1534 H   0  0  0  0  0  0  0  0  0  0  0  0
   61.7401   33.5050   50.6431 H   0  0  0  0  0  0  0  0  0  0  0  0
   60.1698   33.0392   49.8771 H   0  0  0  0  0  0  0  0  0  0  0  0
   62.8632   31.0452   51.2816 H   0  0  0  0  0  0  0  0  0  0  0  0
   62.4125   28.7323   52.1198 H   0  0  0  0  0  0  0  0  0  0  0  0
   60.9069   27.2080   50.8348 H   0  0  0  0  0  0  0  0  0  0  0  0
   59.8721   27.9797   48.6980 H   0  0  0  0  0  0  0  0  0  0  0  0
   60.2610   31.3530   47.2980 H   0  0  0  0  0  0  0  0  0  0  0  0
   63.5143   32.9274   47.9776 H   0  0  0  0  0  0  0  0  0  0  0  0
   62.9005   31.3481   47.3830 H   0  0  0  0  0  0  0  0  0  0  0  0
   62.3469   33.4671   45.9724 H   0  0  0  0  0  0  0  0  0  0  0  0
   60.9902   32.3362   46.3751 H   0  0  0  0  0  0  0  0  0  0  0  0
  1  2  2  0
  2  3  1  0
  3  4  1  0
  4  5  2  0
  5  6  1  0
  6  7  2  0
  7  8  1  0
  8  9  2  0
  8 10  2  0
  8 11  1  0
 11 12  1  0
 12 13  1  0
 13 14  1  0
 14 15  1  0
  7 16  1  0
 16 17  2  0
  2 18  1  0
 18 19  1  0
 19 20  1  0
 20 21  1  0
 21 22  1  0
 22 23  2  0
 23 24  1  0
 24 25  2  0
 25 26  1  0
 26 27  2  0
 27 28  1  0
 21 29  1  0
 29 30  1  0
 17  4  1  0
 30 18  1  0
 15 11  1  0
 27 22  1  0
  5 31  1  0
  6 32  1  0
 12 33  1  0
 12 34  1  0
 13 35  1  0
 13 36  1  0
 14 37  1  0
 14 38  1  0
 15 39  1  0
 15 40  1  0
 16 41  1  0
 17 42  1  0
 19 43  1  0
 19 44  1  0
 20 45  1  0
 20 46  1  0
 23 47  1  0
 24 48  1  0
 25 49  1  0
 26 50  1  0
 28 51  1  0
 29 52  1  0
 29 53  1  0
 30 54  1  0
 30 55  1  0
M  CHG  1   3  -1
M  END
>  <UniqueID>  (46) 
43

>  <SMILES>  (46) 
O=C([N-]c1ccc(S(=O)(=O)N2CCCC2)cc1)N1CCN(c2ccccc2O)CC1

>  <Energy>  (46) 
67.27664014285146

>  <Genealogy>  (46) 
O=C([N-]c1ccc(S(=O)(=O)N2CCCC2)cc1)N1CCN(c2ccccc2O)CC1 (protonated)
O=C([N-]c1ccc(S(=O)(=O)N2CCCC2)cc1)N1CCN(c2ccccc2O)CC1 (3D coordinates assigned)
O=C([N-]c1ccc(S(=O)(=O)N2CCCC2)cc1)N1CCN(c2ccccc2O)CC1 (nonaromatic ring conformer: 67.27664014285146 kcal/mol)

>  <smiles>  (46) 
O=C(Nc1ccc(S(=O)(=O)N2CCCC2)cc1)N1CCN(c2ccccc2O)CC1

>  <score_type>  (46) 
oracle

>  <origin>  (46) 
adg

>  <m_score__min__energy>  (46) 
-11.01

>  <m_primary>  (46) 
energy

$$$$
46:0
     RDKit          3D

 36 38  0  0  0  0  0  0  0  0999 V2000
   55.1430   26.5290   46.0970 O   0  0  0  0  0  0  0  0  0  0  0  0
   55.8190   25.5230   45.7480 C   0  0  0  0  0  0  0  0  0  0  0  0
   57.2340   25.6440   45.5180 N   0  0  0  0  0  0  0  0  0  0  0  0
   57.9230   26.9040   45.4360 C   0  0  0  0  0  0  0  0  0  0  0  0
   59.2810   27.0180   45.7850 C   0  0  0  0  0  0  0  0  0  0  0  0
   59.9310   28.2500   45.6900 C   0  0  0  0  0  0  0  0  0  0  0  0
   59.2330   29.3810   45.2600 C   0  0  0  0  0  0  0  0  0  0  0  0
   57.8720   29.2880   44.9400 C   0  0  0  0  0  0  0  0  0  0  0  0
   56.9710   30.7060   44.4160 S   0  0  0  0  0  0  0  0  0  0  0  0
   55.5360   30.3130   44.1950 O   0  0  0  0  0  0  0  0  0  0  0  0
   57.5200   31.2540   43.1280 O   0  0  0  0  0  0  0  0  0  0  0  0
   57.0400   31.9300   45.6410 N   0  0  0  0  0  0  0  0  0  0  0  0
   58.0430   32.9510   45.7450 C   0  0  0  0  0  0  0  0  0  0  0  0
   58.1350   33.9980   44.8070 C   0  0  0  0  0  0  0  0  0  0  0  0
   59.1190   34.9820   44.9410 C   0  0  0  0  0  0  0  0  0  0  0  0
   60.0250   34.9270   46.0020 C   0  0  0  0  0  0  0  0  0  0  0  0
   59.9450   33.8930   46.9360 C   0  0  0  0  0  0  0  0  0  0  0  0
   58.9570   32.9080   46.8140 C   0  0  0  0  0  0  0  0  0  0  0  0
   58.8800   31.6240   48.0120 Cl  0  0  0  0  0  0  0  0  0  0  0  0
   57.2200   28.0520   45.0390 C   0  0  0  0  0  0  0  0  0  0  0  0
   55.1520   24.2160   45.6180 C   0  0  0  0  0  0  0  0  0  0  0  0
   53.8200   24.0080   45.3420 C   0  0  0  0  0  0  0  0  0  0  0  0
   53.5840   22.6850   45.3100 N   0  0  0  0  0  0  0  0  0  0  0  0
   54.7870   22.1280   45.5640 C   0  0  0  0  0  0  0  0  0  0  0  0
   55.7710   23.0300   45.7600 N   0  0  0  0  0  0  0  0  0  0  0  0
   57.8090   24.7700   45.5240 H   0  0  0  0  0  0  0  0  0  0  0  0
   59.8330   26.1329   46.1342 H   0  0  0  0  0  0  0  0  0  0  0  0
   60.9957   28.3302   45.9545 H   0  0  0  0  0  0  0  0  0  0  0  0
   59.7528   30.3465   45.1724 H   0  0  0  0  0  0  0  0  0  0  0  0
   57.4289   34.0415   43.9647 H   0  0  0  0  0  0  0  0  0  0  0  0
   59.1796   35.8011   44.2092 H   0  0  0  0  0  0  0  0  0  0  0  0
   60.8022   35.6990   46.1018 H   0  0  0  0  0  0  0  0  0  0  0  0
   60.6603   33.8516   47.7707 H   0  0  0  0  0  0  0  0  0  0  0  0
   56.1479   27.9807   44.8036 H   0  0  0  0  0  0  0  0  0  0  0  0
   53.0707   24.7958   45.1748 H   0  0  0  0  0  0  0  0  0  0  0  0
   54.9498   21.0410   45.6071 H   0  0  0  0  0  0  0  0  0  0  0  0
  1  2  2  0
  2  3  1  0
  3  4  1  0
  4  5  2  0
  5  6  1  0
  6  7  2  0
  7  8  1  0
  8  9  1  0
  9 10  2  0
  9 11  2  0
  9 12  1  0
 12 13  1  0
 13 14  2  0
 14 15  1  0
 15 16  2  0
 16 17  1  0
 17 18  2  0
 18 19  1  0
  8 20  2  0
  2 21  1  0
 21 22  2  0
 22 23  1  0
 23 24  1  0
 24 25  2  0
 20  4  1  0
 25 21  1  0
 18 13  1  0
  3 26  1  0
  5 27  1  0
  6 28  1  0
  7 29  1  0
 14 30  1  0
 15 31  1  0
 16 32  1  0
 17 33  1  0
 20 34  1  0
 22 35  1  0
 24 36  1  0
M  CHG  2  12  -1  23  -1
M  END
>  <UniqueID>  (47) 
44

>  <SMILES>  (47) 
O=C(Nc1cccc(S(=O)(=O)[N-]c2ccccc2Cl)c1)c1c[n-]cn1

>  <Energy>  (47) 
72.74666306360989

>  <Genealogy>  (47) 
O=C(Nc1cccc(S(=O)(=O)[N-]c2ccccc2Cl)c1)c1c[n-]cn1 (protonated)
O=C(Nc1cccc(S(=O)(=O)[N-]c2ccccc2Cl)c1)c1c[n-]cn1 (3D coordinates assigned)
O=C(Nc1cccc(S(=O)(=O)[N-]c2ccccc2Cl)c1)c1c[n-]cn1 (optimized conformer: 72.74666306360989 kcal/mol)

>  <smiles>  (47) 
O=C(Nc1cccc(S(=O)(=O)Nc2ccccc2Cl)c1)c1c[nH]cn1

>  <score_type>  (47) 
oracle

>  <origin>  (47) 
adg

>  <m_score__min__energy>  (47) 
-11.869999999999999

>  <m_primary>  (47) 
energy

$$$$
47:0
     RDKit          3D

 58 61  0  0  0  0  0  0  0  0999 V2000
   55.3940   26.7210   45.9990 O   0  0  0  0  0  0  0  0  0  0  0  0
   56.6240   26.4960   45.8280 C   0  0  0  0  0  0  0  0  0  0  0  0
   57.2440   25.2390   46.3620 C   0  0  0  0  0  0  0  0  0  0  0  0
   58.3680   25.5290   47.2480 N   0  0  0  0  0  0  0  0  0  0  0  0
   59.3520   26.5500   47.0330 C   0  0  0  0  0  0  0  0  0  0  0  0
   60.1350   26.4420   46.0530 O   0  0  0  0  0  0  0  0  0  0  0  0
   59.4680   27.7300   47.9120 C   0  0  0  0  0  0  0  0  0  0  0  0
   58.7870   28.9110   47.5900 C   0  0  0  0  0  0  0  0  0  0  0  0
   58.9280   30.0470   48.3910 C   0  0  0  0  0  0  0  0  0  0  0  0
   59.7810   30.0320   49.5060 C   0  0  0  0  0  0  0  0  0  0  0  0
   59.9750   31.2460   50.3300 C   0  0  0  0  0  0  0  0  0  0  0  0
   59.7430   31.1960   51.5680 O   0  0  0  0  0  0  0  0  0  0  0  0
   60.4760   32.4630   49.7550 N   0  0  0  0  0  0  0  0  0  0  0  0
   59.7020   33.7090   49.7090 C   0  0  0  0  0  0  0  0  0  0  0  0
   60.3430   34.5830   48.6070 C   0  0  0  0  0  0  0  0  0  0  0  0
   61.4530   33.7320   48.1000 C   0  0  0  0  0  0  0  0  0  0  0  0
   62.3750   34.0340   47.0960 C   0  0  0  0  0  0  0  0  0  0  0  0
   63.3620   33.0830   46.7820 C   0  0  0  0  0  0  0  0  0  0  0  0
   63.4100   31.8600   47.4750 C   0  0  0  0  0  0  0  0  0  0  0  0
   62.4740   31.5830   48.4840 C   0  0  0  0  0  0  0  0  0  0  0  0
   61.4920   32.5400   48.7650 C   0  0  0  0  0  0  0  0  0  0  0  0
   60.4500   28.8400   49.8350 C   0  0  0  0  0  0  0  0  0  0  0  0
   60.2970   27.7000   49.0420 C   0  0  0  0  0  0  0  0  0  0  0  0
   57.4500   27.4360   45.1220 N   0  0  0  0  0  0  0  0  0  0  0  0
   56.9980   28.7140   44.6490 C   0  0  0  0  0  0  0  0  0  0  0  0
   55.8450   29.1370   44.9380 O   0  0  0  0  0  0  0  0  0  0  0  0
   57.8580   29.5090   43.8130 N   0  0  0  0  0  0  0  0  0  0  0  0
   57.2270   30.7940   43.4780 C   0  0  0  0  0  0  0  0  0  0  0  0
   57.7350   31.9130   44.3570 C   0  0  0  0  0  0  0  0  0  0  0  0
   57.7660   31.7540   45.7520 C   0  0  0  0  0  0  0  0  0  0  0  0
   58.2080   32.7970   46.5720 C   0  0  0  0  0  0  0  0  0  0  0  0
   58.6160   34.0090   46.0050 C   0  0  0  0  0  0  0  0  0  0  0  0
   58.5800   34.1780   44.6190 C   0  0  0  0  0  0  0  0  0  0  0  0
   58.1370   33.1360   43.7960 C   0  0  0  0  0  0  0  0  0  0  0  0
   56.4834   24.6760   46.9227 H   0  0  0  0  0  0  0  0  0  0  0  0
   57.6191   24.6516   45.5109 H   0  0  0  0  0  0  0  0  0  0  0  0
   58.1382   28.9442   46.7023 H   0  0  0  0  0  0  0  0  0  0  0  0
   58.3662   30.9605   48.1461 H   0  0  0  0  0  0  0  0  0  0  0  0
   58.6517   33.4951   49.4616 H   0  0  0  0  0  0  0  0  0  0  0  0
   59.7156   34.2220   50.6819 H   0  0  0  0  0  0  0  0  0  0  0  0
   59.6195   34.8043   47.8086 H   0  0  0  0  0  0  0  0  0  0  0  0
   60.6840   35.5613   48.9766 H   0  0  0  0  0  0  0  0  0  0  0  0
   62.3303   34.9948   46.5623 H   0  0  0  0  0  0  0  0  0  0  0  0
   64.0981   33.2959   45.9928 H   0  0  0  0  0  0  0  0  0  0  0  0
   64.1832   31.1184   47.2257 H   0  0  0  0  0  0  0  0  0  0  0  0
   62.5115   30.6353   49.0412 H   0  0  0  0  0  0  0  0  0  0  0  0
   61.0984   28.8047   50.7229 H   0  0  0  0  0  0  0  0  0  0  0  0
   60.8297   26.7744   49.3056 H   0  0  0  0  0  0  0  0  0  0  0  0
   58.4410   27.1670   44.9350 H   0  0  0  0  0  0  0  0  0  0  0  0
   58.7770   29.6640   44.2850 H   0  0  0  0  0  0  0  0  0  0  0  0
   58.0360   28.9810   42.9270 H   0  0  0  0  0  0  0  0  0  0  0  0
   57.4486   31.0369   42.4283 H   0  0  0  0  0  0  0  0  0  0  0  0
   56.1434   30.6961   43.6401 H   0  0  0  0  0  0  0  0  0  0  0  0
   57.4410   30.8043   46.2019 H   0  0  0  0  0  0  0  0  0  0  0  0
   58.2349   32.6643   47.6636 H   0  0  0  0  0  0  0  0  0  0  0  0
   58.9650   34.8285   46.6504 H   0  0  0  0  0  0  0  0  0  0  0  0
   58.9003   35.1314   44.1735 H   0  0  0  0  0  0  0  0  0  0  0  0
   58.1036   33.2757   42.7054 H   0  0  0  0  0  0  0  0  0  0  0  0
  1  2  2  0
  2  3  1  0
  3  4  1  0
  4  5  1  0
  5  6  2  0
  5  7  1  0
  7  8  2  0
  8  9  1  0
  9 10  2  0
 10 11  1  0
 11 12  2  0
 11 13  1  0
 13 14  1  0
 14 15  1  0
 15 16  1  0
 16 17  2  0
 17 18  1  0
 18 19  2  0
 19 20  1  0
 20 21  2  0
 10 22  1  0
 22 23  2  0
  2 24  1  0
 24 25  1  0
 25 26  2  0
 25 27  1  0
 27 28  1  0
 28 29  1  0
 29 30  2  0
 30 31  1  0
 31 32  2  0
 32 33  1  0
 33 34  2  0
 23  7  1  0
 34 29  1  0
 21 13  1  0
 21 16  1  0
  3 35  1  0
  3 36  1  0
  8 37  1  0
  9 38  1  0
 14 39  1  0
 14 40  1  0
 15 41  1  0
 15 42  1  0
 17 43  1  0
 18 44  1  0
 19 45  1  0
 20 46  1  0
 22 47  1  0
 23 48  1  0
 24 49  1  0
 27 50  1  0
 27 51  1  0
 28 52  1  0
 28 53  1  0
 30 54  1  0
 31 55  1  0
 32 56  1  0
 33 57  1  0
 34 58  1  0
M  CHG  2   4  -1  27   1
M  END
>  <UniqueID>  (48) 
45

>  <SMILES>  (48) 
O=C(C[N-]C(=O)c1ccc(C(=O)N2CCc3ccccc32)cc1)NC(=O)[NH2+]Cc1ccccc1

>  <Energy>  (48) 
87.57173364055943

>  <Genealogy>  (48) 
O=C(C[N-]C(=O)c1ccc(C(=O)N2CCc3ccccc32)cc1)NC(=O)[NH2+]Cc1ccccc1 (protonated)
O=C(C[N-]C(=O)c1ccc(C(=O)N2CCc3ccccc32)cc1)NC(=O)[NH2+]Cc1ccccc1 (3D coordinates assigned)
O=C(C[N-]C(=O)c1ccc(C(=O)N2CCc3ccccc32)cc1)NC(=O)[NH2+]Cc1ccccc1 (nonaromatic ring conformer: 87.57173364055943 kcal/mol)

>  <smiles>  (48) 
O=C(CNC(=O)c1ccc(C(=O)N2CCc3ccccc32)cc1)NC(=O)NCc1ccccc1

>  <score_type>  (48) 
oracle

>  <origin>  (48) 
adg

>  <m_score__min__energy>  (48) 
-10.06

>  <m_primary>  (48) 
energy

$$$$
48:0
     RDKit          3D

 42 44  0  0  0  0  0  0  0  0999 V2000
   57.2640   32.0510   41.0940 C   0  0  0  0  0  0  0  0  0  0  0  0
   57.1750   31.6330   42.3430 C   0  0  0  0  0  0  0  0  0  0  0  0
   56.3040   30.6750   42.8840 N   0  0  0  0  0  0  0  0  0  0  0  0
   56.5830   30.5580   44.2960 C   0  0  0  0  0  0  0  0  0  0  0  0
   55.8190   29.6420   45.0260 O   0  0  0  0  0  0  0  0  0  0  0  0
   57.5490   31.3550   44.6940 C   0  0  0  0  0  0  0  0  0  0  0  0
   58.1790   31.6120   45.9560 C   0  0  0  0  0  0  0  0  0  0  0  0
   57.7680   30.8280   46.9230 O   0  0  0  0  0  0  0  0  0  0  0  0
   59.1640   32.5440   46.4040 C   0  0  0  0  0  0  0  0  0  0  0  0
   59.1200   33.9010   46.3620 C   0  0  0  0  0  0  0  0  0  0  0  0
   60.1660   34.7520   46.7300 C   0  0  0  0  0  0  0  0  0  0  0  0
   61.3360   34.2080   47.1690 C   0  0  0  0  0  0  0  0  0  0  0  0
   61.4350   32.8500   47.2290 C   0  0  0  0  0  0  0  0  0  0  0  0
   60.3770   31.9960   46.8580 C   0  0  0  0  0  0  0  0  0  0  0  0
   60.6470   30.6330   47.0330 N   0  0  0  0  0  0  0  0  0  0  0  0
   61.1900   29.7480   46.0170 C   0  0  0  0  0  0  0  0  0  0  0  0
   60.0030   28.8800   45.5480 C   0  0  0  0  0  0  0  0  0  0  0  0
   59.0390   28.7600   46.6500 N   0  0  0  0  0  0  0  0  0  0  0  0
   58.1440   27.6700   46.4100 C   0  0  0  0  0  0  0  0  0  0  0  0
   59.7040   28.6370   47.9390 C   0  0  0  0  0  0  0  0  0  0  0  0
   60.3520   29.9770   48.3210 C   0  0  0  0  0  0  0  0  0  0  0  0
   57.9810   32.0870   43.4670 C   0  0  0  0  0  0  0  0  0  0  0  0
   58.8730   32.9540   43.3370 O   0  0  0  0  0  0  0  0  0  0  0  0
   58.0057   32.8163   40.8217 H   0  0  0  0  0  0  0  0  0  0  0  0
   56.5964   31.6340   40.3256 H   0  0  0  0  0  0  0  0  0  0  0  0
   55.5930   30.1610   42.3200 H   0  0  0  0  0  0  0  0  0  0  0  0
   55.8110   29.7150   46.0300 H   0  0  0  0  0  0  0  0  0  0  0  0
   58.1876   34.3670   46.0106 H   0  0  0  0  0  0  0  0  0  0  0  0
   60.0467   35.8437   46.6663 H   0  0  0  0  0  0  0  0  0  0  0  0
   62.1789   34.8487   47.4673 H   0  0  0  0  0  0  0  0  0  0  0  0
   62.3768   32.4034   47.5805 H   0  0  0  0  0  0  0  0  0  0  0  0
   61.5956   30.3307   45.1768 H   0  0  0  0  0  0  0  0  0  0  0  0
   62.0142   29.1341   46.4092 H   0  0  0  0  0  0  0  0  0  0  0  0
   59.5176   29.3543   44.6823 H   0  0  0  0  0  0  0  0  0  0  0  0
   60.3624   27.8823   45.2558 H   0  0  0  0  0  0  0  0  0  0  0  0
   57.8042   27.2562   47.3709 H   0  0  0  0  0  0  0  0  0  0  0  0
   57.2757   28.0278   45.8373 H   0  0  0  0  0  0  0  0  0  0  0  0
   58.6639   26.8879   45.8373 H   0  0  0  0  0  0  0  0  0  0  0  0
   58.9662   28.3567   48.7052 H   0  0  0  0  0  0  0  0  0  0  0  0
   60.4828   27.8629   47.8733 H   0  0  0  0  0  0  0  0  0  0  0  0
   59.6575   30.5875   48.9168 H   0  0  0  0  0  0  0  0  0  0  0  0
   61.2548   29.8419   48.9348 H   0  0  0  0  0  0  0  0  0  0  0  0
  1  2  2  0
  2  3  1  0
  3  4  1  0
  4  5  1  0
  4  6  2  0
  6  7  1  0
  7  8  2  0
  7  9  1  0
  9 10  2  0
 10 11  1  0
 11 12  2  0
 12 13  1  0
 13 14  2  0
 14 15  1  0
 15 16  1  0
 16 17  1  0
 17 18  1  0
 18 19  1  0
 18 20  1  0
 20 21  1  0
  6 22  1  0
 22 23  2  0
 22  2  1  0
 14  9  1  0
 21 15  1  0
  1 24  1  0
  1 25  1  0
  3 26  1  0
  5 27  1  0
 10 28  1  0
 11 29  1  0
 12 30  1  0
 13 31  1  0
 16 32  1  0
 16 33  1  0
 17 34  1  0
 17 35  1  0
 19 36  1  0
 19 37  1  0
 19 38  1  0
 20 39  1  0
 20 40  1  0
 21 41  1  0
 21 42  1  0
M  END
>  <smiles>  (49) 
C=C1NC(O)=C(C(=O)c2ccccc2N2CCN(C)CC2)C1=O

>  <score_type>  (49) 
oracle

>  <origin>  (49) 
adg

>  <m_score__min__energy>  (49) 
-9.0700000000000003

>  <m_primary>  (49) 
energy

$$$$
49:0
     RDKit          3D

 43 45  0  0  0  0  0  0  0  0999 V2000
   58.4050   30.2220   47.6080 O   0  0  0  0  0  0  0  0  0  0  0  0
   59.4840   29.9150   47.1220 C   0  0  0  0  0  0  0  0  0  0  0  0
   59.4880   28.9540   45.9560 C   0  0  0  0  0  0  0  0  0  0  0  0
   58.1920   28.2020   45.8850 C   0  0  0  0  0  0  0  0  0  0  0  0
   58.0040   26.5530   46.1870 S   0  0  0  0  0  0  0  0  0  0  0  0
   56.3440   26.6100   45.9280 C   0  0  0  0  0  0  0  0  0  0  0  0
   55.5800   25.6150   46.0090 O   0  0  0  0  0  0  0  0  0  0  0  0
   55.9070   27.8490   45.6230 N   0  0  0  0  0  0  0  0  0  0  0  0
   56.9350   28.7390   45.6020 C   0  0  0  0  0  0  0  0  0  0  0  0
   56.7350   30.0860   45.3200 O   0  0  0  0  0  0  0  0  0  0  0  0
   60.7480   30.4590   47.7740 C   0  0  1  0  0  0  0  0  0  0  0  0
   61.6730   31.2580   46.8310 C   0  0  0  0  0  0  0  0  0  0  0  0
   62.9780   31.6160   47.5410 C   0  0  0  0  0  0  0  0  0  0  0  0
   62.7290   32.3010   48.8560 C   0  0  0  0  0  0  0  0  0  0  0  0
   61.6320   32.0690   49.5930 C   0  0  0  0  0  0  0  0  0  0  0  0
   60.4800   31.2030   49.1300 C   0  0  1  0  0  0  0  0  0  0  0  0
   59.1960   31.9420   49.2230 N   0  0  0  0  0  0  0  0  0  0  0  0
   59.2340   33.3830   48.9240 C   0  0  0  0  0  0  0  0  0  0  0  0
   58.8510   33.6620   47.4940 C   0  0  0  0  0  0  0  0  0  0  0  0
   57.6850   33.0960   46.9520 C   0  0  0  0  0  0  0  0  0  0  0  0
   57.3210   33.3620   45.6300 C   0  0  0  0  0  0  0  0  0  0  0  0
   58.1230   34.1860   44.8350 C   0  0  0  0  0  0  0  0  0  0  0  0
   59.2930   34.7410   45.3610 C   0  0  0  0  0  0  0  0  0  0  0  0
   59.6610   34.4770   46.6830 C   0  0  0  0  0  0  0  0  0  0  0  0
   59.6294   29.5189   45.0228 H   0  0  0  0  0  0  0  0  0  0  0  0
   60.3080   28.2338   46.0938 H   0  0  0  0  0  0  0  0  0  0  0  0
   57.0060   30.7990   45.9850 H   0  0  0  0  0  0  0  0  0  0  0  0
   61.3211   29.5540   48.0240 H   0  0  0  0  0  0  0  0  0  0  0  0
   61.8988   30.6489   45.9433 H   0  0  0  0  0  0  0  0  0  0  0  0
   61.1629   32.1860   46.5334 H   0  0  0  0  0  0  0  0  0  0  0  0
   63.5491   30.6936   47.7227 H   0  0  0  0  0  0  0  0  0  0  0  0
   63.5392   32.3082   46.8960 H   0  0  0  0  0  0  0  0  0  0  0  0
   63.4743   33.0195   49.2279 H   0  0  0  0  0  0  0  0  0  0  0  0
   61.5662   32.5335   50.5880 H   0  0  0  0  0  0  0  0  0  0  0  0
   60.3856   30.3602   49.8305 H   0  0  0  0  0  0  0  0  0  0  0  0
   58.4820   31.4860   48.6090 H   0  0  0  0  0  0  0  0  0  0  0  0
   58.5312   33.9047   49.5903 H   0  0  0  0  0  0  0  0  0  0  0  0
   60.2624   33.7404   49.0812 H   0  0  0  0  0  0  0  0  0  0  0  0
   57.0557   32.4402   47.5717 H   0  0  0  0  0  0  0  0  0  0  0  0
   56.4023   32.9227   45.2140 H   0  0  0  0  0  0  0  0  0  0  0  0
   57.8332   34.3977   43.7952 H   0  0  0  0  0  0  0  0  0  0  0  0
   59.9250   35.3865   44.7334 H   0  0  0  0  0  0  0  0  0  0  0  0
   60.5873   34.9081   47.0907 H   0  0  0  0  0  0  0  0  0  0  0  0
  1  2  2  0
  2  3  1  0
  3  4  1  0
  4  5  1  0
  5  6  1  0
  6  7  2  0
  6  8  1  0
  8  9  1  0
  9 10  1  0
  2 11  1  0
 11 12  1  0
 12 13  1  0
 13 14  1  0
 14 15  2  0
 15 16  1  0
 16 17  1  0
 17 18  1  0
 18 19  1  0
 19 20  2  0
 20 21  1  0
 21 22  2  0
 22 23  1  0
 23 24  2  0
  9  4  2  0
 16 11  1  0
 24 19  1  0
  3 25  1  0
  3 26  1  0
 10 27  1  0
 11 28  1  1
 12 29  1  0
 12 30  1  0
 13 31  1  0
 13 32  1  0
 14 33  1  0
 15 34  1  0
 16 35  1  1
 17 36  1  0
 18 37  1  0
 18 38  1  0
 20 39  1  0
 21 40  1  0
 22 41  1  0
 23 42  1  0
 24 43  1  0
M  CHG  1   8  -1
M  END
>  <UniqueID>  (50) 
46

>  <SMILES>  (50) 
O=C(Cc1sc(=O)[n-]c1O)[C@H]1CCC=C[C@H]1NCc1ccccc1

>  <Energy>  (50) 
80.52103227455491

>  <Genealogy>  (50) 
O=C(Cc1sc(=O)[n-]c1O)C1CCC=CC1NCc1ccccc1 (protonated)
O=C(Cc1sc(=O)[n-]c1O)[C@H]1CCC=C[C@H]1NCc1ccccc1 (chirality)
O=C(Cc1sc(=O)[n-]c1O)[C@H]1CCC=C[C@H]1NCc1ccccc1 (3D coordinates assigned)
O=C(Cc1sc(=O)[n-]c1O)[C@H]1CCC=C[C@H]1NCc1ccccc1 (nonaromatic ring conformer: 80.52103227455491 kcal/mol)

>  <smiles>  (50) 
O=C(Cc1sc(=O)[nH]c1O)C1CCC=CC1NCc1ccccc1

>  <score_type>  (50) 
oracle

>  <origin>  (50) 
adg

>  <m_score__min__energy>  (50) 
-10.32

>  <m_primary>  (50) 
energy

$$$$
50:0
     RDKit          3D

 43 46  0  0  0  0  0  0  0  0999 V2000
   56.7380   31.2150   42.3230 O   0  0  0  0  0  0  0  0  0  0  0  0
   57.1410   31.1860   43.5160 C   0  0  0  0  0  0  0  0  0  0  0  0
   57.3440   32.4280   44.2030 N   0  0  0  0  0  0  0  0  0  0  0  0
   58.3990   32.7250   45.1280 C   0  0  0  0  0  0  0  0  0  0  0  0
   58.9220   34.0210   45.1610 C   0  0  0  0  0  0  0  0  0  0  0  0
   59.9640   34.3390   46.0360 C   0  0  0  0  0  0  0  0  0  0  0  0
   60.5060   33.3600   46.8780 C   0  0  0  0  0  0  0  0  0  0  0  0
   61.5740   33.7170   47.7670 N   0  0  0  0  0  0  0  0  0  0  0  0
   62.9430   33.8020   47.2610 C   0  0  0  0  0  0  0  0  0  0  0  0
   63.9240   33.4330   48.3780 C   0  0  0  0  0  0  0  0  0  0  0  0
   63.6630   34.1830   49.5500 O   0  0  0  0  0  0  0  0  0  0  0  0
   62.3890   33.8420   50.0650 C   0  0  0  0  0  0  0  0  0  0  0  0
   61.2820   34.2600   49.0940 C   0  0  0  0  0  0  0  0  0  0  0  0
   59.9940   32.0510   46.8410 C   0  0  0  0  0  0  0  0  0  0  0  0
   60.6070   30.7960   47.9100 Cl  0  0  0  0  0  0  0  0  0  0  0  0
   58.9510   31.7360   45.9610 C   0  0  0  0  0  0  0  0  0  0  0  0
   57.3250   29.8810   44.1800 C   0  0  0  0  0  0  0  0  0  0  0  0
   56.3150   29.1000   44.7400 C   0  0  0  0  0  0  0  0  0  0  0  0
   56.9500   27.9670   45.2070 C   0  0  0  0  0  0  0  0  0  0  0  0
   56.4530   26.8350   45.8630 C   0  0  0  0  0  0  0  0  0  0  0  0
   55.1010   26.6870   46.1680 O   0  0  0  0  0  0  0  0  0  0  0  0
   57.3710   25.8280   46.2190 C   0  0  0  0  0  0  0  0  0  0  0  0
   58.7430   25.9700   45.9160 C   0  0  0  0  0  0  0  0  0  0  0  0
   59.2130   27.1170   45.2530 C   0  0  0  0  0  0  0  0  0  0  0  0
   58.2830   28.0990   44.9110 C   0  0  0  0  0  0  0  0  0  0  0  0
   58.5230   29.2580   44.2780 N   0  0  0  0  0  0  0  0  0  0  0  0
   58.5113   34.7941   44.4950 H   0  0  0  0  0  0  0  0  0  0  0  0
   60.3609   35.3645   46.0636 H   0  0  0  0  0  0  0  0  0  0  0  0
   63.0667   33.1048   46.4192 H   0  0  0  0  0  0  0  0  0  0  0  0
   63.1448   34.8281   46.9199 H   0  0  0  0  0  0  0  0  0  0  0  0
   63.8228   32.3617   48.6064 H   0  0  0  0  0  0  0  0  0  0  0  0
   64.9450   33.6593   48.0369 H   0  0  0  0  0  0  0  0  0  0  0  0
   62.3416   32.7539   50.2195 H   0  0  0  0  0  0  0  0  0  0  0  0
   62.2405   34.3703   51.0184 H   0  0  0  0  0  0  0  0  0  0  0  0
   60.3163   33.8689   49.4470 H   0  0  0  0  0  0  0  0  0  0  0  0
   61.2327   35.3576   49.0409 H   0  0  0  0  0  0  0  0  0  0  0  0
   58.5612   30.7082   45.9213 H   0  0  0  0  0  0  0  0  0  0  0  0
   55.2422   29.3361   44.7974 H   0  0  0  0  0  0  0  0  0  0  0  0
   54.7580   26.7200   47.1200 H   0  0  0  0  0  0  0  0  0  0  0  0
   57.0168   24.9244   46.7368 H   0  0  0  0  0  0  0  0  0  0  0  0
   59.4496   25.1766   46.2011 H   0  0  0  0  0  0  0  0  0  0  0  0
   60.2795   27.2364   45.0117 H   0  0  0  0  0  0  0  0  0  0  0  0
   59.4480   29.6070   43.9370 H   0  0  0  0  0  0  0  0  0  0  0  0
  1  2  2  0
  2  3  1  0
  3  4  1  0
  4  5  2  0
  5  6  1  0
  6  7  2  0
  7  8  1  0
  8  9  1  0
  9 10  1  0
 10 11  1  0
 11 12  1  0
 12 13  1  0
  7 14  1  0
 14 15  1  0
 14 16  2  0
  2 17  1  0
 17 18  2  0
 18 19  1  0
 19 20  2  0
 20 21  1  0
 20 22  1  0
 22 23  2  0
 23 24  1  0
 24 25  2  0
 25 26  1  0
 16  4  1  0
 26 17  1  0
 13  8  1  0
 25 19  1  0
  5 27  1  0
  6 28  1  0
  9 29  1  0
  9 30  1  0
 10 31  1  0
 10 32  1  0
 12 33  1  0
 12 34  1  0
 13 35  1  0
 13 36  1  0
 16 37  1  0
 18 38  1  0
 21 39  1  0
 22 40  1  0
 23 41  1  0
 24 42  1  0
 26 43  1  0
M  CHG  1   3  -1
M  END
>  <UniqueID>  (51) 
47

>  <SMILES>  (51) 
O=C([N-]c1ccc(N2CCOCC2)c(Cl)c1)c1cc2c(O)cccc2[nH]1

>  <Energy>  (51) 
91.15911090551708

>  <Genealogy>  (51) 
O=C([N-]c1ccc(N2CCOCC2)c(Cl)c1)c1cc2c(O)cccc2[nH]1 (protonated)
O=C([N-]c1ccc(N2CCOCC2)c(Cl)c1)c1cc2c(O)cccc2[nH]1 (3D coordinates assigned)
O=C([N-]c1ccc(N2CCOCC2)c(Cl)c1)c1cc2c(O)cccc2[nH]1 (nonaromatic ring conformer: 91.15911090551708 kcal/mol)

>  <smiles>  (51) 
O=C(Nc1ccc(N2CCOCC2)c(Cl)c1)c1cc2c(O)cccc2[nH]1

>  <score_type>  (51) 
oracle

>  <origin>  (51) 
adg

>  <m_score__min__energy>  (51) 
-10.369999999999999

>  <m_primary>  (51) 
energy

$$$$
51:0
     RDKit          3D

 64 68  0  0  0  0  0  0  0  0999 V2000
   57.7250   32.0400   41.6250 C   0  0  0  0  0  0  0  0  0  0  0  0
   57.8010   32.1930   43.0770 N   0  0  0  0  0  0  0  0  0  0  0  0
   58.4500   33.1800   43.7220 C   0  0  0  0  0  0  0  0  0  0  0  0
   58.2760   33.0360   45.0840 C   0  0  0  0  0  0  0  0  0  0  0  0
   58.7520   33.9530   46.1300 C   0  0  0  0  0  0  0  0  0  0  0  0
   59.3130   35.0360   45.8060 O   0  0  0  0  0  0  0  0  0  0  0  0
   58.5610   33.6190   47.5090 N   0  0  0  0  0  0  0  0  0  0  0  0
   59.4800   33.9950   48.5790 C   0  0  0  0  0  0  0  0  0  0  0  0
   59.2890   33.1360   49.7970 C   0  0  0  0  0  0  0  0  0  0  0  0
   59.9240   33.4720   51.0050 C   0  0  0  0  0  0  0  0  0  0  0  0
   59.7620   32.6670   52.1320 C   0  0  0  0  0  0  0  0  0  0  0  0
   58.9530   31.5300   52.0690 C   0  0  0  0  0  0  0  0  0  0  0  0
   58.3080   31.1930   50.8780 C   0  0  0  0  0  0  0  0  0  0  0  0
   58.4800   31.9920   49.7390 C   0  0  0  0  0  0  0  0  0  0  0  0
   57.4890   31.9180   45.2780 C   0  0  0  0  0  0  0  0  0  0  0  0
   57.1990   31.4280   44.0190 C   0  0  0  0  0  0  0  0  0  0  0  0
   56.2730   30.3090   43.7640 C   0  0  0  0  0  0  0  0  0  0  0  0
   55.8930   30.0530   42.5900 O   0  0  0  0  0  0  0  0  0  0  0  0
   55.7800   29.5370   44.8640 N   0  0  0  0  0  0  0  0  0  0  0  0
   56.3500   28.2600   45.2710 C   0  0  0  0  0  0  0  0  0  0  0  0
   57.8400   28.3730   45.4490 C   0  0  0  0  0  0  0  0  0  0  0  0
   58.7090   28.1350   44.3680 C   0  0  0  0  0  0  0  0  0  0  0  0
   60.0910   28.2250   44.5440 C   0  0  0  0  0  0  0  0  0  0  0  0
   60.6170   28.5490   45.7980 C   0  0  0  0  0  0  0  0  0  0  0  0
   59.7620   28.7890   46.8870 C   0  0  0  0  0  0  0  0  0  0  0  0
   60.3130   29.1230   48.2120 C   0  0  0  0  0  0  0  0  0  0  0  0
   60.0510   28.3730   49.1890 O   0  0  0  0  0  0  0  0  0  0  0  0
   61.1290   30.2900   48.4080 N   0  0  0  0  0  0  0  0  0  0  0  0
   61.6270   30.6150   49.7530 C   0  0  0  0  0  0  0  0  0  0  0  0
   63.0420   31.1920   49.6640 C   0  0  0  0  0  0  0  0  0  0  0  0
   63.0920   32.2160   48.6280 N   0  0  0  0  0  0  0  0  0  0  0  0
   63.9900   33.2040   48.4950 C   0  0  0  0  0  0  0  0  0  0  0  0
   63.7130   33.9220   47.3460 C   0  0  0  0  0  0  0  0  0  0  0  0
   62.6120   33.3340   46.7570 C   0  0  0  0  0  0  0  0  0  0  0  0
   62.2700   32.2770   47.5730 C   0  0  0  0  0  0  0  0  0  0  0  0
   61.1260   31.3360   47.3740 C   0  0  0  0  0  0  0  0  0  0  0  0
   58.3720   28.7170   46.7000 C   0  0  0  0  0  0  0  0  0  0  0  0
   57.2477   31.0792   41.3820 H   0  0  0  0  0  0  0  0  0  0  0  0
   57.1307   32.8624   41.2003 H   0  0  0  0  0  0  0  0  0  0  0  0
   58.7394   32.0633   41.2003 H   0  0  0  0  0  0  0  0  0  0  0  0
   59.0304   33.9793   43.2379 H   0  0  0  0  0  0  0  0  0  0  0  0
   60.5132   33.8804   48.2194 H   0  0  0  0  0  0  0  0  0  0  0  0
   59.2757   35.0392   48.8580 H   0  0  0  0  0  0  0  0  0  0  0  0
   60.5514   34.3738   51.0616 H   0  0  0  0  0  0  0  0  0  0  0  0
   60.2717   32.9275   53.0714 H   0  0  0  0  0  0  0  0  0  0  0  0
   58.8239   30.8986   52.9604 H   0  0  0  0  0  0  0  0  0  0  0  0
   57.6654   30.3014   50.8331 H   0  0  0  0  0  0  0  0  0  0  0  0
   57.9793   31.7210   48.7978 H   0  0  0  0  0  0  0  0  0  0  0  0
   57.1593   31.5013   46.2411 H   0  0  0  0  0  0  0  0  0  0  0  0
   55.8955   27.9492   46.2233 H   0  0  0  0  0  0  0  0  0  0  0  0
   56.1437   27.5158   44.4877 H   0  0  0  0  0  0  0  0  0  0  0  0
   58.2979   27.8771   43.3808 H   0  0  0  0  0  0  0  0  0  0  0  0
   60.7664   28.0409   43.6955 H   0  0  0  0  0  0  0  0  0  0  0  0
   61.7066   28.6165   45.9331 H   0  0  0  0  0  0  0  0  0  0  0  0
   60.9605   31.3559   50.2187 H   0  0  0  0  0  0  0  0  0  0  0  0
   61.6493   29.6981   50.3603 H   0  0  0  0  0  0  0  0  0  0  0  0
   63.3165   31.6374   50.6316 H   0  0  0  0  0  0  0  0  0  0  0  0
   63.7482   30.3866   49.4138 H   0  0  0  0  0  0  0  0  0  0  0  0
   64.8167   33.4105   49.1906 H   0  0  0  0  0  0  0  0  0  0  0  0
   64.2657   34.7965   46.9721 H   0  0  0  0  0  0  0  0  0  0  0  0
   62.1110   33.6447   45.8283 H   0  0  0  0  0  0  0  0  0  0  0  0
   60.1820   31.8977   47.4310 H   0  0  0  0  0  0  0  0  0  0  0  0
   61.2268   30.8594   46.3877 H   0  0  0  0  0  0  0  0  0  0  0  0
   57.6959   28.9319   47.5407 H   0  0  0  0  0  0  0  0  0  0  0  0
  1  2  1  0
  2  3  1  0
  3  4  2  0
  4  5  1  0
  5  6  2  0
  5  7  1  0
  7  8  1  0
  8  9  1  0
  9 10  2  0
 10 11  1  0
 11 12  2  0
 12 13  1  0
 13 14  2  0
  4 15  1  0
 15 16  2  0
 16 17  1  0
 17 18  2  0
 17 19  1  0
 19 20  1  0
 20 21  1  0
 21 22  2  0
 22 23  1  0
 23 24  2  0
 24 25  1  0
 25 26  1  0
 26 27  2  0
 26 28  1  0
 28 29  1  0
 29 30  1  0
 30 31  1  0
 31 32  1  0
 32 33  2  0
 33 34  1  0
 34 35  2  0
 35 36  1  0
 25 37  2  0
 16  2  1  0
 37 21  1  0
 14  9  1  0
 36 28  1  0
 35 31  1  0
  1 38  1  0
  1 39  1  0
  1 40  1  0
  3 41  1  0
  8 42  1  0
  8 43  1  0
 10 44  1  0
 11 45  1  0
 12 46  1  0
 13 47  1  0
 14 48  1  0
 15 49  1  0
 20 50  1  0
 20 51  1  0
 22 52  1  0
 23 53  1  0
 24 54  1  0
 29 55  1  0
 29 56  1  0
 30 57  1  0
 30 58  1  0
 32 59  1  0
 33 60  1  0
 34 61  1  0
 36 62  1  0
 36 63  1  0
 37 64  1  0
M  CHG  2   7  -1  19  -1
M  END
>  <UniqueID>  (52) 
48

>  <SMILES>  (52) 
Cn1cc(C(=O)[N-]Cc2ccccc2)cc1C(=O)[N-]Cc1cccc(C(=O)N2CCn3cccc3C2)c1

>  <Energy>  (52) 
123.33032637430016

>  <Genealogy>  (52) 
Cn1cc(C(=O)[N-]Cc2ccccc2)cc1C(=O)[N-]Cc1cccc(C(=O)N2CCn3cccc3C2)c1 (protonated)
Cn1cc(C(=O)[N-]Cc2ccccc2)cc1C(=O)[N-]Cc1cccc(C(=O)N2CCn3cccc3C2)c1 (3D coordinates assigned)
Cn1cc(C(=O)[N-]Cc2ccccc2)cc1C(=O)[N-]Cc1cccc(C(=O)N2CCn3cccc3C2)c1 (nonaromatic ring conformer: 123.33032637430016 kcal/mol)

>  <smiles>  (52) 
Cn1cc(C(=O)NCc2ccccc2)cc1C(=O)NCc1cccc(C(=O)N2CCn3cccc3C2)c1

>  <score_type>  (52) 
oracle

>  <origin>  (52) 
adg

>  <m_score__min__energy>  (52) 
-13.85

>  <m_primary>  (52) 
energy

$$$$
52:0
     RDKit          3D

 22 23  0  0  0  0  0  0  0  0999 V2000
   59.8720   28.3907   46.3330 H   0  0  0  0  0  0  0  0  0  0  0  0
   59.3120   29.1820   45.8130 C   0  0  0  0  0  0  0  0  0  0  0  0
   59.8096   30.1280   45.5531 H   0  0  0  0  0  0  0  0  0  0  0  0
   58.0270   28.9940   45.4970 C   0  0  0  0  0  0  0  0  0  0  0  0
   57.2370   29.9240   44.8450 C   0  0  0  0  0  0  0  0  0  0  0  0
   57.5357   30.9241   44.4978 H   0  0  0  0  0  0  0  0  0  0  0  0
   56.0000   29.3360   44.7220 C   0  0  0  0  0  0  0  0  0  0  0  0
   54.8910   29.9340   44.1360 O   0  0  0  0  0  0  0  0  0  0  0  0
   55.9840   28.1010   45.2530 N   0  0  0  0  0  0  0  0  0  0  0  0
   55.1400   27.4920   45.3120 H   0  0  0  0  0  0  0  0  0  0  0  0
   57.2280   27.8690   45.7330 C   0  0  0  0  0  0  0  0  0  0  0  0
   57.6110   26.7450   46.3740 C   0  0  0  0  0  0  0  0  0  0  0  0
   58.6129   26.7358   46.8281 H   0  0  0  0  0  0  0  0  0  0  0  0
   56.7870   25.5240   46.5130 C   0  0  0  0  0  0  0  0  0  0  0  0
   55.5200   25.4730   46.0190 N   0  0  0  0  0  0  0  0  0  0  0  0
   54.7760   24.3380   46.0990 C   0  0  0  0  0  0  0  0  0  0  0  0
   53.6030   24.3230   45.6450 O   0  0  0  0  0  0  0  0  0  0  0  0
   55.3000   23.2210   46.6660 N   0  0  0  0  0  0  0  0  0  0  0  0
   56.5660   23.2160   47.1540 C   0  0  0  0  0  0  0  0  0  0  0  0
   57.0350   22.1680   47.6700 O   0  0  0  0  0  0  0  0  0  0  0  0
   57.3460   24.3720   47.0800 C   0  0  0  0  0  0  0  0  0  0  0  0
   58.3785   24.3776   47.4594 H   0  0  0  0  0  0  0  0  0  0  0  0
  1  2  1  0
  2  3  1  0
  2  4  2  0
  4  5  1  0
  5  6  1  0
  5  7  2  0
  7  8  1  0
  7  9  1  0
  9 10  1  0
  9 11  1  0
 11 12  2  0
 12 13  1  0
 12 14  1  0
 14 15  1  0
 15 16  1  0
 16 17  2  0
 16 18  1  0
 18 19  1  0
 19 20  2  0
 19 21  1  0
 21 22  1  0
 11  4  1  0
 21 14  2  0
M  CHG  3   8  -1  15  -1  18  -1
M  END
>  <UniqueID>  (53) 
49

>  <SMILES>  (53) 
C=c1cc([O-])[nH]/c1=C\c1cc(=O)[n-]c(=O)[n-]1

>  <Energy>  (53) 
57.242165174987086

>  <Genealogy>  (53) 
C=c1cc([O-])[nH]c1=Cc1cc(=O)[n-]c(=O)[n-]1 (protonated)
C=c1cc([O-])[nH]/c1=C\c1cc(=O)[n-]c(=O)[n-]1 (cis-trans isomerization)
C=c1cc([O-])[nH]/c1=C\c1cc(=O)[n-]c(=O)[n-]1 (3D coordinates assigned)
C=c1cc([O-])[nH]/c1=C\c1cc(=O)[n-]c(=O)[n-]1 (optimized conformer: 57.242165174987086 kcal/mol)

>  <smiles>  (53) 
C=c1cc(O)[nH]c1=Cc1cc(=O)[nH]c(=O)[nH]1

>  <score_type>  (53) 
oracle

>  <origin>  (53) 
adg

>  <m_score__min__energy>  (53) 
-12.029999999999999

>  <m_primary>  (53) 
energy

$$$$
53:0
     RDKit          3D

 48 51  0  0  0  0  0  0  0  0999 V2000
   57.5610   33.6420   44.8310 C   0  0  0  0  0  0  0  0  0  0  0  0
   57.5330   32.3760   45.2540 C   0  0  0  0  0  0  0  0  0  0  0  0
   56.9660   31.3870   44.5270 N   0  0  0  0  0  0  0  0  0  0  0  0
   57.1570   30.2650   45.2540 C   0  0  0  0  0  0  0  0  0  0  0  0
   56.7300   29.0630   44.8310 C   0  0  0  0  0  0  0  0  0  0  0  0
   57.2600   27.7520   45.2500 C   0  0  0  0  0  0  0  0  0  0  0  0
   58.5660   27.4060   45.2790 N   0  0  0  0  0  0  0  0  0  0  0  0
   58.5630   26.1690   45.8220 C   0  0  0  0  0  0  0  0  0  0  0  0
   59.6140   25.4960   45.9930 O   0  0  0  0  0  0  0  0  0  0  0  0
   57.3330   25.7300   46.1610 N   0  0  0  0  0  0  0  0  0  0  0  0
   56.9620   24.4280   46.7140 C   0  0  0  0  0  0  0  0  0  0  0  0
   56.9160   23.3980   45.6200 C   0  0  0  0  0  0  0  0  0  0  0  0
   57.1520   22.0440   45.9110 C   0  0  0  0  0  0  0  0  0  0  0  0
   57.0760   21.0820   44.8980 C   0  0  0  0  0  0  0  0  0  0  0  0
   56.7570   21.4640   43.5930 C   0  0  0  0  0  0  0  0  0  0  0  0
   56.5080   22.8070   43.2980 C   0  0  0  0  0  0  0  0  0  0  0  0
   56.5820   23.7720   44.3070 C   0  0  0  0  0  0  0  0  0  0  0  0
   56.5140   26.7310   45.8010 C   0  0  0  0  0  0  0  0  0  0  0  0
   55.1330   26.7210   45.9650 O   0  0  0  0  0  0  0  0  0  0  0  0
   57.8560   30.6040   46.4040 C   0  0  0  0  0  0  0  0  0  0  0  0
   58.2400   29.8220   47.3130 O   0  0  0  0  0  0  0  0  0  0  0  0
   58.0890   31.9300   46.4080 N   0  0  0  0  0  0  0  0  0  0  0  0
   58.7450   32.6920   47.4370 C   0  0  0  0  0  0  0  0  0  0  0  0
   58.6080   32.3610   48.6470 O   0  0  0  0  0  0  0  0  0  0  0  0
   59.5970   33.8810   47.0960 C   0  0  0  0  0  0  0  0  0  0  0  0
   61.0420   33.5890   47.3980 C   0  0  0  0  0  0  0  0  0  0  0  0
   61.4290   33.1610   48.6790 C   0  0  0  0  0  0  0  0  0  0  0  0
   62.7780   32.9240   48.9640 C   0  0  0  0  0  0  0  0  0  0  0  0
   63.7480   33.1230   47.9780 C   0  0  0  0  0  0  0  0  0  0  0  0
   63.3720   33.5620   46.7050 C   0  0  0  0  0  0  0  0  0  0  0  0
   62.0250   33.7990   46.4150 C   0  0  0  0  0  0  0  0  0  0  0  0
   58.0318   34.4189   45.4513 H   0  0  0  0  0  0  0  0  0  0  0  0
   57.1133   33.9082   43.8621 H   0  0  0  0  0  0  0  0  0  0  0  0
   55.9060   29.0563   44.1023 H   0  0  0  0  0  0  0  0  0  0  0  0
   57.7055   24.1268   47.4666 H   0  0  0  0  0  0  0  0  0  0  0  0
   55.9685   24.5039   47.1800 H   0  0  0  0  0  0  0  0  0  0  0  0
   57.3974   21.7391   46.9390 H   0  0  0  0  0  0  0  0  0  0  0  0
   57.2677   20.0239   45.1295 H   0  0  0  0  0  0  0  0  0  0  0  0
   56.7017   20.7071   42.7968 H   0  0  0  0  0  0  0  0  0  0  0  0
   56.2534   23.1054   42.2703 H   0  0  0  0  0  0  0  0  0  0  0  0
   56.3782   24.8272   44.0725 H   0  0  0  0  0  0  0  0  0  0  0  0
   59.4887   34.1105   46.0257 H   0  0  0  0  0  0  0  0  0  0  0  0
   59.2710   34.7409   47.6995 H   0  0  0  0  0  0  0  0  0  0  0  0
   60.6691   33.0118   49.4602 H   0  0  0  0  0  0  0  0  0  0  0  0
   63.0756   32.5805   49.9657 H   0  0  0  0  0  0  0  0  0  0  0  0
   64.8079   32.9342   48.2035 H   0  0  0  0  0  0  0  0  0  0  0  0
   64.1369   33.7211   45.9306 H   0  0  0  0  0  0  0  0  0  0  0  0
   61.7333   34.1509   45.4145 H   0  0  0  0  0  0  0  0  0  0  0  0
  1  2  2  0
  2  3  1  0
  3  4  1  0
  4  5  2  3
  5  6  1  0
  6  7  1  0
  7  8  1  0
  8  9  2  0
  8 10  1  0
 10 11  1  0
 11 12  1  0
 12 13  2  0
 13 14  1  0
 14 15  2  0
 15 16  1  0
 16 17  2  0
 10 18  1  0
 18 19  1  0
  4 20  1  0
 20 21  2  0
 20 22  1  0
 22 23  1  0
 23 24  2  0
 23 25  1  0
 25 26  1  0
 26 27  2  0
 27 28  1  0
 28 29  2  0
 29 30  1  0
 30 31  2  0
 22  2  1  0
 31 26  1  0
 18  6  2  0
 17 12  1  0
  1 32  1  0
  1 33  1  0
  5 34  1  0
 11 35  1  0
 11 36  1  0
 13 37  1  0
 14 38  1  0
 15 39  1  0
 16 40  1  0
 17 41  1  0
 25 42  1  0
 25 43  1  0
 27 44  1  0
 28 45  1  0
 29 46  1  0
 30 47  1  0
 31 48  1  0
M  CHG  3   3  -1   7  -1  19  -1
M  END
>  <UniqueID>  (54) 
50

>  <SMILES>  (54) 
C=c1[n-]c(=Cc2[n-]c(=O)n(Cc3ccccc3)c2[O-])c(=O)n1C(=O)Cc1ccccc1

>  <Energy>  (54) 
125.66358498853745

>  <Genealogy>  (54) 
C=c1[n-]c(=Cc2[n-]c(=O)n(Cc3ccccc3)c2[O-])c(=O)n1C(=O)Cc1ccccc1 (protonated)
C=c1[n-]c(=Cc2[n-]c(=O)n(Cc3ccccc3)c2[O-])c(=O)n1C(=O)Cc1ccccc1 (3D coordinates assigned)
C=c1[n-]c(=Cc2[n-]c(=O)n(Cc3ccccc3)c2[O-])c(=O)n1C(=O)Cc1ccccc1 (optimized conformer: 125.66358498853745 kcal/mol)

>  <smiles>  (54) 
C=c1[nH]c(=Cc2[nH]c(=O)n(Cc3ccccc3)c2O)c(=O)n1C(=O)Cc1ccccc1

>  <score_type>  (54) 
oracle

>  <origin>  (54) 
adg

>  <m_score__min__energy>  (54) 
-15.49

>  <m_primary>  (54) 
energy

$$$$
54:0
     RDKit          3D

 51 54  0  0  0  0  0  0  0  0999 V2000
   62.0110   29.2470   50.6640 O   0  0  0  0  0  0  0  0  0  0  0  0
   61.4900   29.8640   49.6970 C   0  0  0  0  0  0  0  0  0  0  0  0
   60.1590   29.5090   49.2960 N   0  0  0  0  0  0  0  0  0  0  0  0
   59.7350   29.4300   48.0680 C   0  0  0  0  0  0  0  0  0  0  0  0
   58.7590   30.2310   47.5940 N   0  0  0  0  0  0  0  0  0  0  0  0
   58.4490   29.9420   46.3010 C   0  0  0  0  0  0  0  0  0  0  0  0
   57.4260   30.7160   45.5700 C   0  0  0  0  0  0  0  0  0  0  0  0
   56.5760   30.0990   44.8760 O   0  0  0  0  0  0  0  0  0  0  0  0
   57.3320   32.1430   45.6670 N   0  0  0  0  0  0  0  0  0  0  0  0
   58.2420   33.0090   46.3620 C   0  0  0  0  0  0  0  0  0  0  0  0
   58.8930   34.0720   45.7110 C   0  0  0  0  0  0  0  0  0  0  0  0
   59.7730   34.8950   46.4190 C   0  0  0  0  0  0  0  0  0  0  0  0
   59.9970   34.6770   47.7800 C   0  0  0  0  0  0  0  0  0  0  0  0
   59.3260   33.6410   48.4460 C   0  0  0  0  0  0  0  0  0  0  0  0
   59.6140   33.3620   50.1620 S   0  0  0  0  0  0  0  0  0  0  0  0
   59.0420   34.5010   50.9610 O   0  0  0  0  0  0  0  0  0  0  0  0
   61.0970   33.3080   50.4070 O   0  0  0  0  0  0  0  0  0  0  0  0
   58.8830   31.8530   50.6510 N   0  0  0  0  0  0  0  0  0  0  0  0
   59.6690   31.2410   51.7390 C   0  0  0  0  0  0  0  0  0  0  0  0
   58.9090   30.0670   52.3920 C   0  0  0  0  0  0  0  0  0  0  0  0
   57.7850   29.6910   51.6210 O   0  0  0  0  0  0  0  0  0  0  0  0
   56.8540   30.7580   51.5840 C   0  0  0  0  0  0  0  0  0  0  0  0
   57.4890   32.0710   51.0740 C   0  0  0  0  0  0  0  0  0  0  0  0
   58.4460   32.8140   47.7330 C   0  0  0  0  0  0  0  0  0  0  0  0
   59.1960   28.9050   45.7360 C   0  0  0  0  0  0  0  0  0  0  0  0
   60.2540   28.3230   46.9070 S   0  0  0  0  0  0  0  0  0  0  0  0
   62.2380   30.9690   49.0490 C   0  0  0  0  0  0  0  0  0  0  0  0
   63.3210   31.5760   49.7120 C   0  0  0  0  0  0  0  0  0  0  0  0
   64.0190   32.6280   49.1130 C   0  0  0  0  0  0  0  0  0  0  0  0
   63.6410   33.0890   47.8490 C   0  0  0  0  0  0  0  0  0  0  0  0
   62.5660   32.4960   47.1820 C   0  0  0  0  0  0  0  0  0  0  0  0
   61.8610   31.4470   47.7790 C   0  0  0  0  0  0  0  0  0  0  0  0
   58.7092   34.2561   44.6422 H   0  0  0  0  0  0  0  0  0  0  0  0
   60.2907   35.7169   45.9027 H   0  0  0  0  0  0  0  0  0  0  0  0
   60.7007   35.3187   48.3305 H   0  0  0  0  0  0  0  0  0  0  0  0
   58.8940   31.2150   49.8190 H   0  0  0  0  0  0  0  0  0  0  0  0
   60.6188   30.8680   51.3281 H   0  0  0  0  0  0  0  0  0  0  0  0
   59.8498   32.0065   52.5080 H   0  0  0  0  0  0  0  0  0  0  0  0
   59.5875   29.2057   52.4802 H   0  0  0  0  0  0  0  0  0  0  0  0
   58.5582   30.3889   53.3836 H   0  0  0  0  0  0  0  0  0  0  0  0
   56.0257   30.4821   50.9148 H   0  0  0  0  0  0  0  0  0  0  0  0
   56.4993   30.9316   52.6107 H   0  0  0  0  0  0  0  0  0  0  0  0
   56.9072   32.4433   50.2179 H   0  0  0  0  0  0  0  0  0  0  0  0
   57.4818   32.8053   51.8930 H   0  0  0  0  0  0  0  0  0  0  0  0
   57.9122   32.0062   48.2550 H   0  0  0  0  0  0  0  0  0  0  0  0
   59.1075   28.5337   44.7044 H   0  0  0  0  0  0  0  0  0  0  0  0
   63.6201   31.2198   50.7088 H   0  0  0  0  0  0  0  0  0  0  0  0
   64.8668   33.0937   49.6369 H   0  0  0  0  0  0  0  0  0  0  0  0
   64.1897   33.9186   47.3793 H   0  0  0  0  0  0  0  0  0  0  0  0
   62.2737   32.8556   46.1844 H   0  0  0  0  0  0  0  0  0  0  0  0
   61.0076   30.9926   47.2543 H   0  0  0  0  0  0  0  0  0  0  0  0
  1  2  2  0
  2  3  1  0
  3  4  2  3
  4  5  1  0
  5  6  1  0
  6  7  1  0
  7  8  2  0
  7  9  1  0
  9 10  1  0
 10 11  2  0
 11 12  1  0
 12 13  2  0
 13 14  1  0
 14 15  1  0
 15 16  2  0
 15 17  2  0
 15 18  1  0
 18 19  1  0
 19 20  1  0
 20 21  1  0
 21 22  1  0
 22 23  1  0
 14 24  2  0
  6 25  2  0
 25 26  1  0
  2 27  1  0
 27 28  2  0
 28 29  1  0
 29 30  2  0
 30 31  1  0
 31 32  2  0
 26  4  1  0
 32 27  1  0
 24 10  1  0
 23 18  1  0
 11 33  1  0
 12 34  1  0
 13 35  1  0
 18 36  1  0
 19 37  1  0
 19 38  1  0
 20 39  1  0
 20 40  1  0
 22 41  1  0
 22 42  1  0
 23 43  1  0
 23 44  1  0
 24 45  1  0
 25 46  1  0
 28 47  1  0
 29 48  1  0
 30 49  1  0
 31 50  1  0
 32 51  1  0
M  CHG  3   5  -1   9  -1  18   1
M  END
>  <UniqueID>  (55) 
51

>  <SMILES>  (55) 
O=C(N=c1[n-]c(C(=O)[N-]c2cccc(S(=O)(=O)[NH+]3CCOCC3)c2)cs1)c1ccccc1

>  <Energy>  (55) 
105.67577419167745

>  <Genealogy>  (55) 
O=C(N=c1[n-]c(C(=O)[N-]c2cccc(S(=O)(=O)[NH+]3CCOCC3)c2)cs1)c1ccccc1 (protonated)
O=C(N=c1[n-]c(C(=O)[N-]c2cccc(S(=O)(=O)[NH+]3CCOCC3)c2)cs1)c1ccccc1 (3D coordinates assigned)
O=C(N=c1[n-]c(C(=O)[N-]c2cccc(S(=O)(=O)[NH+]3CCOCC3)c2)cs1)c1ccccc1 (nonaromatic ring conformer: 105.67577419167745 kcal/mol)

>  <smiles>  (55) 
O=C(N=c1[nH]c(C(=O)Nc2cccc(S(=O)(=O)N3CCOCC3)c2)cs1)c1ccccc1

>  <score_type>  (55) 
oracle

>  <origin>  (55) 
adg

>  <m_score__min__energy>  (55) 
-12.74

>  <m_primary>  (55) 
energy

$$$$
55:0
     RDKit          3D

 44 47  0  0  0  0  0  0  0  0999 V2000
   63.7490   31.8640   47.1250 N   0  0  0  0  0  0  0  0  0  0  0  0
   62.9860   33.4140   47.1800 S   0  0  0  0  0  0  0  0  0  0  0  0
   63.1020   33.9650   48.5760 O   0  0  0  0  0  0  0  0  0  0  0  0
   63.6780   34.3520   46.2330 O   0  0  0  0  0  0  0  0  0  0  0  0
   61.2850   33.2580   46.7230 C   0  0  0  0  0  0  0  0  0  0  0  0
   60.5650   34.4040   46.3510 C   0  0  0  0  0  0  0  0  0  0  0  0
   59.2130   34.3140   46.0230 C   0  0  0  0  0  0  0  0  0  0  0  0
   58.5690   33.0780   46.0350 C   0  0  0  0  0  0  0  0  0  0  0  0
   59.2730   31.9120   46.3800 C   0  0  0  0  0  0  0  0  0  0  0  0
   58.5860   30.6080   46.2860 C   0  0  0  0  0  0  0  0  0  0  0  0
   57.3780   30.5180   45.6700 N   0  0  0  0  0  0  0  0  0  0  0  0
   56.7190   29.3350   45.5720 C   0  0  0  0  0  0  0  0  0  0  0  0
   55.6050   29.3020   44.9850 O   0  0  0  0  0  0  0  0  0  0  0  0
   57.2910   28.1660   46.1140 C   0  0  0  0  0  0  0  0  0  0  0  0
   56.6470   26.8370   45.9960 C   0  0  0  0  0  0  0  0  0  0  0  0
   55.3410   26.5890   46.2160 N   0  0  0  0  0  0  0  0  0  0  0  0
   55.1970   25.2970   45.9780 N   0  0  0  0  0  0  0  0  0  0  0  0
   56.3610   24.7740   45.6260 N   0  0  0  0  0  0  0  0  0  0  0  0
   57.2910   25.7130   45.6260 N   0  0  0  0  0  0  0  0  0  0  0  0
   58.5290   28.2920   46.7610 C   0  0  0  0  0  0  0  0  0  0  0  0
   59.1440   29.4990   46.8360 N   0  0  0  0  0  0  0  0  0  0  0  0
   60.6320   32.0050   46.7600 C   0  0  0  0  0  0  0  0  0  0  0  0
   61.3260   30.8460   47.2450 N   0  0  0  0  0  0  0  0  0  0  0  0
   61.1420   30.3740   48.6170 C   0  0  0  0  0  0  0  0  0  0  0  0
   60.4590   31.4240   49.4530 C   0  0  0  0  0  0  0  0  0  0  0  0
   61.2030   32.4720   50.0240 C   0  0  0  0  0  0  0  0  0  0  0  0
   60.5670   33.4450   50.8040 C   0  0  0  0  0  0  0  0  0  0  0  0
   59.1870   33.3850   51.0110 C   0  0  0  0  0  0  0  0  0  0  0  0
   58.4400   32.3540   50.4400 C   0  0  0  0  0  0  0  0  0  0  0  0
   59.0710   31.3770   49.6610 C   0  0  0  0  0  0  0  0  0  0  0  0
   64.4740   31.9060   46.3750 H   0  0  0  0  0  0  0  0  0  0  0  0
   64.2560   31.7410   48.0290 H   0  0  0  0  0  0  0  0  0  0  0  0
   61.0711   35.3801   46.3180 H   0  0  0  0  0  0  0  0  0  0  0  0
   58.6526   35.2215   45.7538 H   0  0  0  0  0  0  0  0  0  0  0  0
   57.5026   33.0149   45.7727 H   0  0  0  0  0  0  0  0  0  0  0  0
   59.0040   27.4073   47.2101 H   0  0  0  0  0  0  0  0  0  0  0  0
   62.1410   30.4840   46.7010 H   0  0  0  0  0  0  0  0  0  0  0  0
   60.5252   29.4633   48.6061 H   0  0  0  0  0  0  0  0  0  0  0  0
   62.1289   30.1607   49.0534 H   0  0  0  0  0  0  0  0  0  0  0  0
   62.2888   32.5273   49.8570 H   0  0  0  0  0  0  0  0  0  0  0  0
   61.1550   34.2581   51.2546 H   0  0  0  0  0  0  0  0  0  0  0  0
   58.6890   34.1505   51.6242 H   0  0  0  0  0  0  0  0  0  0  0  0
   57.3530   32.3089   50.6023 H   0  0  0  0  0  0  0  0  0  0  0  0
   58.4769   30.5687   49.2097 H   0  0  0  0  0  0  0  0  0  0  0  0
  1  2  1  0
  2  3  2  0
  2  4  2  0
  2  5  1  0
  5  6  2  0
  6  7  1  0
  7  8  2  0
  8  9  1  0
  9 10  1  0
 10 11  2  0
 11 12  1  0
 12 13  2  0
 12 14  1  0
 14 15  1  0
 15 16  1  0
 16 17  2  0
 17 18  1  0
 18 19  1  0
 14 20  2  0
 20 21  1  0
  9 22  2  0
 22 23  1  0
 23 24  1  0
 24 25  1  0
 25 26  2  0
 26 27  1  0
 27 28  2  0
 28 29  1  0
 29 30  2  0
 22  5  1  0
 30 25  1  0
 21 10  1  0
 19 15  2  0
  1 31  1  0
  1 32  1  0
  6 33  1  0
  7 34  1  0
  8 35  1  0
 20 36  1  0
 23 37  1  0
 24 38  1  0
 24 39  1  0
 26 40  1  0
 27 41  1  0
 28 42  1  0
 29 43  1  0
 30 44  1  0
M  CHG  2  18  -1  21  -1
M  END
>  <UniqueID>  (56) 
52

>  <SMILES>  (56) 
NS(=O)(=O)c1cccc(-c2nc(=O)c(-c3nn[n-]n3)c[n-]2)c1NCc1ccccc1

>  <Energy>  (56) 
95.3157779893071

>  <Genealogy>  (56) 
NS(=O)(=O)c1cccc(-c2nc(=O)c(-c3nn[n-]n3)c[n-]2)c1NCc1ccccc1 (protonated)
NS(=O)(=O)c1cccc(-c2nc(=O)c(-c3nn[n-]n3)c[n-]2)c1NCc1ccccc1 (3D coordinates assigned)
NS(=O)(=O)c1cccc(-c2nc(=O)c(-c3nn[n-]n3)c[n-]2)c1NCc1ccccc1 (optimized conformer: 95.3157779893071 kcal/mol)

>  <smiles>  (56) 
NS(=O)(=O)c1cccc(-c2nc(=O)c(-c3nn[nH]n3)c[nH]2)c1NCc1ccccc1

>  <score_type>  (56) 
oracle

>  <origin>  (56) 
adg

>  <m_score__min__energy>  (56) 
-12.800000000000001

>  <m_primary>  (56) 
energy

$$$$
56:0
     RDKit          3D

 37 39  0  0  0  0  0  0  0  0999 V2000
   60.3613   27.9597   44.6522 H   0  0  0  0  0  0  0  0  0  0  0  0
   59.2830   27.8140   44.4910 C   0  0  0  0  0  0  0  0  0  0  0  0
   58.8929   26.8138   44.2512 H   0  0  0  0  0  0  0  0  0  0  0  0
   58.4510   28.8470   44.5860 C   0  0  0  0  0  0  0  0  0  0  0  0
   58.9140   30.4210   44.9580 S   0  0  0  0  0  0  0  0  0  0  0  0
   57.3440   31.0330   44.8660 C   0  0  0  0  0  0  0  0  0  0  0  0
   57.0380   32.3220   45.0790 C   0  0  0  0  0  0  0  0  0  0  0  0
   56.0175   32.6542   44.8375 H   0  0  0  0  0  0  0  0  0  0  0  0
   57.9800   33.3240   45.6160 C   0  0  0  0  0  0  0  0  0  0  0  0
   58.6730   34.1650   44.7370 C   0  0  0  0  0  0  0  0  0  0  0  0
   58.5210   34.0704   43.6517 H   0  0  0  0  0  0  0  0  0  0  0  0
   59.5580   35.1250   45.2370 C   0  0  0  0  0  0  0  0  0  0  0  0
   60.1073   35.7792   44.5439 H   0  0  0  0  0  0  0  0  0  0  0  0
   59.7460   35.2550   46.6160 C   0  0  0  0  0  0  0  0  0  0  0  0
   60.4539   36.0032   47.0021 H   0  0  0  0  0  0  0  0  0  0  0  0
   59.0400   34.4400   47.5100 C   0  0  0  0  0  0  0  0  0  0  0  0
   59.2750   34.5980   48.8860 O   0  0  0  0  0  0  0  0  0  0  0  0
   60.1500   33.7850   49.6720 C   0  0  0  0  0  0  0  0  0  0  0  0
   60.6438   34.4147   50.4268 H   0  0  0  0  0  0  0  0  0  0  0  0
   59.5538   32.9969   50.1552 H   0  0  0  0  0  0  0  0  0  0  0  0
   61.2020   33.1300   48.8130 C   0  0  0  0  0  0  0  0  0  0  0  0
   62.4030   33.8010   48.5290 C   0  0  0  0  0  0  0  0  0  0  0  0
   62.5797   34.8062   48.9394 H   0  0  0  0  0  0  0  0  0  0  0  0
   63.3750   33.1950   47.7260 C   0  0  0  0  0  0  0  0  0  0  0  0
   64.3097   33.7285   47.4986 H   0  0  0  0  0  0  0  0  0  0  0  0
   63.1610   31.9130   47.2120 C   0  0  0  0  0  0  0  0  0  0  0  0
   64.1030   31.3310   46.4290 F   0  0  0  0  0  0  0  0  0  0  0  0
   61.9770   31.2320   47.5060 C   0  0  0  0  0  0  0  0  0  0  0  0
   61.8117   30.2205   47.1066 H   0  0  0  0  0  0  0  0  0  0  0  0
   61.0020   31.8340   48.3070 C   0  0  0  0  0  0  0  0  0  0  0  0
   60.0746   31.2912   48.5422 H   0  0  0  0  0  0  0  0  0  0  0  0
   58.1310   33.4940   47.0000 C   0  0  0  0  0  0  0  0  0  0  0  0
   57.5340   32.8828   47.6928 H   0  0  0  0  0  0  0  0  0  0  0  0
   56.4920   29.9570   44.5690 C   0  0  0  0  0  0  0  0  0  0  0  0
   55.2380   30.0550   44.5000 O   0  0  0  0  0  0  0  0  0  0  0  0
   57.1140   28.7600   44.4040 N   0  0  0  0  0  0  0  0  0  0  0  0
   56.6080   27.8730   44.1800 H   0  0  0  0  0  0  0  0  0  0  0  0
  1  2  1  0
  2  3  1  0
  2  4  2  0
  4  5  1  0
  5  6  1  0
  6  7  2  0
  7  8  1  0
  7  9  1  0
  9 10  2  0
 10 11  1  0
 10 12  1  0
 12 13  1  0
 12 14  2  0
 14 15  1  0
 14 16  1  0
 16 17  1  0
 17 18  1  0
 18 19  1  0
 18 20  1  0
 18 21  1  0
 21 22  2  0
 22 23  1  0
 22 24  1  0
 24 25  1  0
 24 26  2  0
 26 27  1  0
 26 28  1  0
 28 29  1  0
 28 30  2  0
 30 31  1  0
 16 32  2  0
 32 33  1  0
  6 34  1  0
 34 35  2  0
 34 36  1  0
 36 37  1  0
 36  4  1  0
 32  9  1  0
 30 21  1  0
M  END
>  <UniqueID>  (57) 
53

>  <SMILES>  (57) 
C=c1[nH]c(=O)/c(=C\c2cccc(OCc3ccc(F)cc3)c2)s1

>  <Energy>  (57) 
75.25002221932326

>  <Genealogy>  (57) 
C=c1[nH]c(=O)/c(=C\c2cccc(OCc3ccc(F)cc3)c2)s1 (cis-trans isomerization)
C=c1[nH]c(=O)/c(=C\c2cccc(OCc3ccc(F)cc3)c2)s1 (3D coordinates assigned)
C=c1[nH]c(=O)/c(=C\c2cccc(OCc3ccc(F)cc3)c2)s1 (optimized conformer: 75.25002221932326 kcal/mol)

>  <smiles>  (57) 
C=c1[nH]c(=O)c(=Cc2cccc(OCc3ccc(F)cc3)c2)s1

>  <score_type>  (57) 
oracle

>  <origin>  (57) 
adg

>  <m_score__min__energy>  (57) 
-8.1400000000000006

>  <m_primary>  (57) 
energy

$$$$
57:0
     RDKit          3D

 63 66  0  0  0  0  0  0  0  0999 V2000
   54.1740   26.3240   45.2830 H   0  0  0  0  0  0  0  0  0  0  0  0
   54.8180   25.7610   45.8860 N   0  0  0  0  0  0  0  0  0  0  0  0
   54.6620   24.1120   45.3850 S   0  0  0  0  0  0  0  0  0  0  0  0
   53.6650   23.4400   46.2920 O   0  0  0  0  0  0  0  0  0  0  0  0
   54.1640   24.0680   43.9650 O   0  0  0  0  0  0  0  0  0  0  0  0
   56.2370   23.3020   45.4840 C   0  0  0  0  0  0  0  0  0  0  0  0
   56.2650   21.9040   45.6220 C   0  0  0  0  0  0  0  0  0  0  0  0
   55.3207   21.3442   45.6922 H   0  0  0  0  0  0  0  0  0  0  0  0
   57.4840   21.2170   45.6710 C   0  0  0  0  0  0  0  0  0  0  0  0
   57.4924   20.1219   45.7745 H   0  0  0  0  0  0  0  0  0  0  0  0
   58.6880   21.9170   45.5890 C   0  0  0  0  0  0  0  0  0  0  0  0
   59.6443   21.3744   45.6235 H   0  0  0  0  0  0  0  0  0  0  0  0
   58.6770   23.3080   45.4630 C   0  0  0  0  0  0  0  0  0  0  0  0
   59.6282   23.8562   45.3952 H   0  0  0  0  0  0  0  0  0  0  0  0
   57.4610   24.0150   45.4220 C   0  0  0  0  0  0  0  0  0  0  0  0
   57.5110   25.4860   45.3210 C   0  0  0  0  0  0  0  0  0  0  0  0
   57.7230   26.1000   44.0780 C   0  0  0  0  0  0  0  0  0  0  0  0
   57.8505   25.4822   43.1769 H   0  0  0  0  0  0  0  0  0  0  0  0
   57.7730   27.4930   43.9790 C   0  0  0  0  0  0  0  0  0  0  0  0
   57.9347   27.9655   42.9989 H   0  0  0  0  0  0  0  0  0  0  0  0
   57.6180   28.2950   45.1240 C   0  0  0  0  0  0  0  0  0  0  0  0
   57.6590   29.7750   45.0210 C   0  0  0  0  0  0  0  0  0  0  0  0
   58.1510   30.5580   46.0790 C   0  0  0  0  0  0  0  0  0  0  0  0
   58.4794   30.0748   47.0110 H   0  0  0  0  0  0  0  0  0  0  0  0
   58.2230   31.9100   45.9560 N   0  0  0  0  0  0  0  0  0  0  0  0
   57.8110   32.5640   44.8370 C   0  0  0  0  0  0  0  0  0  0  0  0
   57.9520   33.8590   44.7890 N   0  0  0  0  0  0  0  0  0  0  0  0
   59.1860   34.5880   44.8860 C   0  0  0  0  0  0  0  0  0  0  0  0
   60.0020   34.5950   43.9260 O   0  0  0  0  0  0  0  0  0  0  0  0
   59.5080   35.3300   46.1450 C   0  0  0  0  0  0  0  0  0  0  0  0
   58.6045   35.8385   46.5125 H   0  0  0  0  0  0  0  0  0  0  0  0
   60.2906   36.0758   45.9419 H   0  0  0  0  0  0  0  0  0  0  0  0
   59.9970   34.3590   47.1870 C   0  0  0  0  0  0  0  0  0  0  0  0
   59.3090   34.2140   48.4040 C   0  0  0  0  0  0  0  0  0  0  0  0
   58.4302   34.8411   48.6149 H   0  0  0  0  0  0  0  0  0  0  0  0
   59.7380   33.2750   49.3480 C   0  0  0  0  0  0  0  0  0  0  0  0
   59.2021   33.1744   50.3034 H   0  0  0  0  0  0  0  0  0  0  0  0
   60.8450   32.4640   49.0820 C   0  0  0  0  0  0  0  0  0  0  0  0
   61.1792   31.7293   49.8294 H   0  0  0  0  0  0  0  0  0  0  0  0
   61.5320   32.5850   47.8620 C   0  0  0  0  0  0  0  0  0  0  0  0
   62.7320   31.7130   47.5680 C   0  0  0  0  0  0  0  0  0  0  0  0
   62.8044   31.5609   46.4810 H   0  0  0  0  0  0  0  0  0  0  0  0
   62.5966   30.7553   48.0918 H   0  0  0  0  0  0  0  0  0  0  0  0
   63.9910   32.3310   48.0520 N   0  0  0  0  0  0  0  0  0  0  0  0
   64.8000   31.9600   47.4970 H   0  0  0  0  0  0  0  0  0  0  0  0
   63.9560   33.7980   47.9110 C   0  0  0  0  0  0  0  0  0  0  0  0
   63.9449   34.2620   48.9083 H   0  0  0  0  0  0  0  0  0  0  0  0
   64.8464   34.1347   47.3598 H   0  0  0  0  0  0  0  0  0  0  0  0
   63.0506   34.0919   47.3598 H   0  0  0  0  0  0  0  0  0  0  0  0
   64.2180   31.9740   49.4640 C   0  0  0  0  0  0  0  0  0  0  0  0
   63.7414   32.7235   50.1129 H   0  0  0  0  0  0  0  0  0  0  0  0
   63.7831   30.9841   49.6664 H   0  0  0  0  0  0  0  0  0  0  0  0
   65.2989   31.9479   49.6664 H   0  0  0  0  0  0  0  0  0  0  0  0
   61.1020   33.5350   46.9190 C   0  0  0  0  0  0  0  0  0  0  0  0
   61.6361   33.6337   45.9624 H   0  0  0  0  0  0  0  0  0  0  0  0
   57.3030   31.8150   43.7550 C   0  0  0  0  0  0  0  0  0  0  0  0
   56.9667   32.3232   42.8393 H   0  0  0  0  0  0  0  0  0  0  0  0
   57.2300   30.4260   43.8540 C   0  0  0  0  0  0  0  0  0  0  0  0
   56.8342   29.8375   43.0132 H   0  0  0  0  0  0  0  0  0  0  0  0
   57.4190   27.6740   46.3710 C   0  0  0  0  0  0  0  0  0  0  0  0
   57.2996   28.2895   47.2748 H   0  0  0  0  0  0  0  0  0  0  0  0
   57.3720   26.2810   46.4690 C   0  0  0  0  0  0  0  0  0  0  0  0
   57.2254   25.8056   47.4501 H   0  0  0  0  0  0  0  0  0  0  0  0
  1  2  1  0
  2  3  1  0
  3  4  2  0
  3  5  2  0
  3  6  1  0
  6  7  2  0
  7  8  1  0
  7  9  1  0
  9 10  1  0
  9 11  2  0
 11 12  1  0
 11 13  1  0
 13 14  1  0
 13 15  2  0
 15 16  1  0
 16 17  2  0
 17 18  1  0
 17 19  1  0
 19 20  1  0
 19 21  2  0
 21 22  1  0
 22 23  2  0
 23 24  1  0
 23 25  1  0
 25 26  1  0
 26 27  2  0
 27 28  1  0
 28 29  2  0
 28 30  1  0
 30 31  1  0
 30 32  1  0
 30 33  1  0
 33 34  2  0
 34 35  1  0
 34 36  1  0
 36 37  1  0
 36 38  2  0
 38 39  1  0
 38 40  1  0
 40 41  1  0
 41 42  1  0
 41 43  1  0
 41 44  1  0
 44 45  1  0
 44 46  1  0
 46 47  1  0
 46 48  1  0
 46 49  1  0
 44 50  1  0
 50 51  1  0
 50 52  1  0
 50 53  1  0
 40 54  2  0
 54 55  1  0
 26 56  1  0
 56 57  1  0
 56 58  2  0
 58 59  1  0
 21 60  1  0
 60 61  1  0
 60 62  2  0
 62 63  1  0
 15  6  1  0
 62 16  1  0
 58 22  1  0
 54 33  1  0
M  CHG  3   2  -1  25  -1  44   1
M  END
>  <UniqueID>  (58) 
54

>  <SMILES>  (58) 
C[NH+](C)Cc1cccc(CC(=O)/N=c2\ccc(-c3ccc(-c4ccccc4S([NH-])(=O)=O)cc3)c[n-]2)c1

>  <Energy>  (58) 
87.62512443290638

>  <Genealogy>  (58) 
C[NH+](C)Cc1cccc(CC(=O)N=c2ccc(-c3ccc(-c4ccccc4S([NH-])(=O)=O)cc3)c[n-]2)c1 (protonated)
C[NH+](C)Cc1cccc(CC(=O)/N=c2\ccc(-c3ccc(-c4ccccc4S([NH-])(=O)=O)cc3)c[n-]2)c1 (cis-trans isomerization)
C[NH+](C)Cc1cccc(CC(=O)/N=c2\ccc(-c3ccc(-c4ccccc4S([NH-])(=O)=O)cc3)c[n-]2)c1 (3D coordinates assigned)
C[NH+](C)Cc1cccc(CC(=O)/N=c2\ccc(-c3ccc(-c4ccccc4S([NH-])(=O)=O)cc3)c[n-]2)c1 (optimized conformer: 87.62512443290638 kcal/mol)

>  <smiles>  (58) 
CN(C)Cc1cccc(CC(=O)N=c2ccc(-c3ccc(-c4ccccc4S(N)(=O)=O)cc3)c[nH]2)c1

>  <score_type>  (58) 
oracle

>  <origin>  (58) 
adg

>  <m_score__min__energy>  (58) 
-12.33

>  <m_primary>  (58) 
energy

$$$$
58:0
     RDKit          3D

 55 58  0  0  0  0  0  0  0  0999 V2000
   56.6780   27.5740   54.1980 C   0  0  0  0  0  0  0  0  0  0  0  0
   56.9700   28.8650   53.9550 C   0  0  0  0  0  0  0  0  0  0  0  0
   58.1470   29.3180   54.4550 N   0  0  0  0  0  0  0  0  0  0  0  0
   58.5520   30.5990   54.3420 C   0  0  0  0  0  0  0  0  0  0  0  0
   59.6520   30.9400   54.8550 O   0  0  0  0  0  0  0  0  0  0  0  0
   57.7750   31.5090   53.6870 N   0  0  0  0  0  0  0  0  0  0  0  0
   58.2030   32.9220   53.6260 C   0  0  0  0  0  0  0  0  0  0  0  0
   59.3640   33.0700   52.6730 C   0  0  0  0  0  0  0  0  0  0  0  0
   59.7550   34.2010   52.4070 O   0  0  0  0  0  0  0  0  0  0  0  0
   59.9910   31.9050   52.0710 N   0  0  0  0  0  0  0  0  0  0  0  0
   59.0600   31.0990   51.2680 C   0  0  0  0  0  0  0  0  0  0  0  0
   58.5850   31.7950   49.9840 C   0  0  0  0  0  0  0  0  0  0  0  0
   59.5850   32.6750   49.3400 N   0  0  0  0  0  0  0  0  0  0  0  0
   59.2430   33.3260   48.0740 C   0  0  0  0  0  0  0  0  0  0  0  0
   58.1350   32.8980   47.2990 C   0  0  0  0  0  0  0  0  0  0  0  0
   57.8080   33.5280   46.0930 C   0  0  0  0  0  0  0  0  0  0  0  0
   58.5770   34.5920   45.6250 C   0  0  0  0  0  0  0  0  0  0  0  0
   58.2580   35.1970   44.4530 F   0  0  0  0  0  0  0  0  0  0  0  0
   59.6790   35.0250   46.3600 C   0  0  0  0  0  0  0  0  0  0  0  0
   60.0140   34.4030   47.5670 C   0  0  0  0  0  0  0  0  0  0  0  0
   60.8550   33.0400   50.0070 C   0  0  0  0  0  0  0  0  0  0  0  0
   61.1760   32.2420   51.2750 C   0  0  0  0  0  0  0  0  0  0  0  0
   56.5770   31.1220   53.1390 C   0  0  0  0  0  0  0  0  0  0  0  0
   55.9050   31.9710   52.4920 O   0  0  0  0  0  0  0  0  0  0  0  0
   56.1120   29.7770   53.2630 C   0  0  0  0  0  0  0  0  0  0  0  0
   54.9310   29.3650   52.7090 C   0  0  0  0  0  0  0  0  0  0  0  0
   53.7620   30.2150   52.4110 C   0  0  0  0  0  0  0  0  0  0  0  0
   52.8550   30.5250   53.4330 C   0  0  0  0  0  0  0  0  0  0  0  0
   51.7590   31.3520   53.1730 C   0  0  0  0  0  0  0  0  0  0  0  0
   51.5750   31.8900   51.8950 C   0  0  0  0  0  0  0  0  0  0  0  0
   50.4860   32.7110   51.6380 O   0  0  0  0  0  0  0  0  0  0  0  0
   52.4900   31.6070   50.8780 C   0  0  0  0  0  0  0  0  0  0  0  0
   53.5900   30.7860   51.1360 C   0  0  0  0  0  0  0  0  0  0  0  0
   55.7392   27.1421   53.8211 H   0  0  0  0  0  0  0  0  0  0  0  0
   57.3782   26.9506   54.7735 H   0  0  0  0  0  0  0  0  0  0  0  0
   57.3640   33.5418   53.2768 H   0  0  0  0  0  0  0  0  0  0  0  0
   58.5159   33.2477   54.6290 H   0  0  0  0  0  0  0  0  0  0  0  0
   60.3260   31.2810   52.8400 H   0  0  0  0  0  0  0  0  0  0  0  0
   59.5646   30.1625   50.9883 H   0  0  0  0  0  0  0  0  0  0  0  0
   58.1678   30.9280   51.8882 H   0  0  0  0  0  0  0  0  0  0  0  0
   58.2994   31.0172   49.2605 H   0  0  0  0  0  0  0  0  0  0  0  0
   57.7494   32.4463   50.2799 H   0  0  0  0  0  0  0  0  0  0  0  0
   57.5218   32.0558   47.6522 H   0  0  0  0  0  0  0  0  0  0  0  0
   56.9404   33.1820   45.5120 H   0  0  0  0  0  0  0  0  0  0  0  0
   60.2893   35.8614   45.9884 H   0  0  0  0  0  0  0  0  0  0  0  0
   60.8896   34.7548   48.1322 H   0  0  0  0  0  0  0  0  0  0  0  0
   61.6740   32.8836   49.2895 H   0  0  0  0  0  0  0  0  0  0  0  0
   60.7444   34.0875   50.3241 H   0  0  0  0  0  0  0  0  0  0  0  0
   61.6750   31.3069   50.9807 H   0  0  0  0  0  0  0  0  0  0  0  0
   61.8172   32.8778   51.9033 H   0  0  0  0  0  0  0  0  0  0  0  0
   54.8443   28.2967   52.4617 H   0  0  0  0  0  0  0  0  0  0  0  0
   53.0061   30.1162   54.4430 H   0  0  0  0  0  0  0  0  0  0  0  0
   51.0404   31.5801   53.9740 H   0  0  0  0  0  0  0  0  0  0  0  0
   52.3440   32.0310   49.8735 H   0  0  0  0  0  0  0  0  0  0  0  0
   54.3234   30.5852   50.3412 H   0  0  0  0  0  0  0  0  0  0  0  0
  1  2  2  0
  2  3  1  0
  3  4  1  0
  4  5  2  0
  4  6  1  0
  6  7  1  0
  7  8  1  0
  8  9  2  0
  8 10  1  0
 10 11  1  0
 11 12  1  0
 12 13  1  0
 13 14  1  0
 14 15  2  0
 15 16  1  0
 16 17  2  0
 17 18  1  0
 17 19  1  0
 19 20  2  0
 13 21  1  0
 21 22  1  0
  6 23  1  0
 23 24  2  0
 23 25  1  0
 25 26  2  3
 26 27  1  0
 27 28  2  0
 28 29  1  0
 29 30  2  0
 30 31  1  0
 30 32  1  0
 32 33  2  0
 25  2  1  0
 33 27  1  0
 22 10  1  0
 20 14  1  0
  1 34  1  0
  1 35  1  0
  7 36  1  0
  7 37  1  0
 10 38  1  0
 11 39  1  0
 11 40  1  0
 12 41  1  0
 12 42  1  0
 15 43  1  0
 16 44  1  0
 19 45  1  0
 20 46  1  0
 21 47  1  0
 21 48  1  0
 22 49  1  0
 22 50  1  0
 26 51  1  0
 28 52  1  0
 29 53  1  0
 32 54  1  0
 33 55  1  0
M  CHG  3   3  -1  10   1  31  -1
M  END
>  <UniqueID>  (59) 
55

>  <SMILES>  (59) 
C=c1[n-]c(=O)n(CC(=O)[NH+]2CCN(c3ccc(F)cc3)CC2)c(=O)c1=Cc1ccc([O-])cc1

>  <Energy>  (59) 
95.99302324532373

>  <Genealogy>  (59) 
C=c1[n-]c(=O)n(CC(=O)[NH+]2CCN(c3ccc(F)cc3)CC2)c(=O)c1=Cc1ccc([O-])cc1 (protonated)
C=c1[n-]c(=O)n(CC(=O)[NH+]2CCN(c3ccc(F)cc3)CC2)c(=O)c1=Cc1ccc([O-])cc1 (3D coordinates assigned)
C=c1[n-]c(=O)n(CC(=O)[NH+]2CCN(c3ccc(F)cc3)CC2)c(=O)c1=Cc1ccc([O-])cc1 (nonaromatic ring conformer: 95.99302324532373 kcal/mol)

>  <smiles>  (59) 
C=c1[nH]c(=O)n(CC(=O)N2CCN(c3ccc(F)cc3)CC2)c(=O)c1=Cc1ccc(O)cc1

>  <score_type>  (59) 
oracle

>  <origin>  (59) 
adg

>  <m_score__min__energy>  (59) 
-12.25

>  <m_primary>  (59) 
energy

$$$$
59:0
     RDKit          3D

 30 32  0  0  0  0  0  0  0  0999 V2000
   54.2320   25.4800   45.7080 O   0  0  0  0  0  0  0  0  0  0  0  0
   55.4290   25.1000   45.8180 C   0  0  0  0  0  0  0  0  0  0  0  0
   56.2920   25.7050   46.8790 C   0  0  0  0  0  0  0  0  0  0  0  0
   57.7380   25.9040   46.3960 C   0  0  2  0  0  0  0  0  0  0  0  0
   57.9020   27.1970   45.5930 C   0  0  0  0  0  0  0  0  0  0  0  0
   59.2090   27.5820   45.2260 C   0  0  0  0  0  0  0  0  0  0  0  0
   59.4400   28.7650   44.5200 C   0  0  0  0  0  0  0  0  0  0  0  0
   58.3740   29.5930   44.1770 C   0  0  0  0  0  0  0  0  0  0  0  0
   57.0750   29.2440   44.5450 C   0  0  0  0  0  0  0  0  0  0  0  0
   56.8300   28.0610   45.2520 C   0  0  0  0  0  0  0  0  0  0  0  0
   55.5190   27.7700   45.6000 O   0  0  0  0  0  0  0  0  0  0  0  0
   58.3340   24.6350   45.7350 C   0  0  0  0  0  0  0  0  0  0  0  0
   57.3670   23.8120   44.9080 C   0  0  0  0  0  0  0  0  0  0  0  0
   57.8660   22.8230   44.1120 N   0  0  0  0  0  0  0  0  0  0  0  0
   57.0480   22.0540   43.3470 C   0  0  0  0  0  0  0  0  0  0  0  0
   57.5310   21.1510   42.6140 O   0  0  0  0  0  0  0  0  0  0  0  0
   55.7080   22.2550   43.3700 N   0  0  0  0  0  0  0  0  0  0  0  0
   55.1520   23.2160   44.1500 C   0  0  0  0  0  0  0  0  0  0  0  0
   53.9010   23.3590   44.1440 O   0  0  0  0  0  0  0  0  0  0  0  0
   55.9740   24.0270   44.9570 C   0  0  0  0  0  0  0  0  0  0  0  0
   55.8742   26.6820   47.1633 H   0  0  0  0  0  0  0  0  0  0  0  0
   56.3104   25.0173   47.7373 H   0  0  0  0  0  0  0  0  0  0  0  0
   58.3662   26.0489   47.2873 H   0  0  0  0  0  0  0  0  0  0  0  0
   60.0594   26.9404   45.5002 H   0  0  0  0  0  0  0  0  0  0  0  0
   60.4653   29.0430   44.2346 H   0  0  0  0  0  0  0  0  0  0  0  0
   58.5566   30.5216   43.6162 H   0  0  0  0  0  0  0  0  0  0  0  0
   56.2363   29.9035   44.2776 H   0  0  0  0  0  0  0  0  0  0  0  0
   59.1577   24.9508   45.0778 H   0  0  0  0  0  0  0  0  0  0  0  0
   58.6506   23.9845   46.5636 H   0  0  0  0  0  0  0  0  0  0  0  0
   58.8980   22.6540   44.0830 H   0  0  0  0  0  0  0  0  0  0  0  0
  1  2  2  0
  2  3  1  0
  3  4  1  0
  4  5  1  0
  5  6  2  0
  6  7  1  0
  7  8  2  0
  8  9  1  0
  9 10  2  0
 10 11  1  0
  4 12  1  0
 12 13  1  0
 13 14  1  0
 14 15  1  0
 15 16  2  0
 15 17  1  0
 17 18  1  0
 18 19  2  0
 18 20  1  0
 20  2  1  0
 10  5  1  0
 20 13  2  0
  3 21  1  0
  3 22  1  0
  4 23  1  1
  6 24  1  0
  7 25  1  0
  8 26  1  0
  9 27  1  0
 12 28  1  0
 12 29  1  0
 14 30  1  0
M  CHG  2  11  -1  17  -1
M  END
>  <UniqueID>  (60) 
56

>  <SMILES>  (60) 
O=C1C[C@H](c2ccccc2[O-])Cc2[nH]c(=O)[n-]c(=O)c21

>  <Energy>  (60) 
43.8118824837634

>  <Genealogy>  (60) 
O=C1CC(c2ccccc2[O-])Cc2[nH]c(=O)[n-]c(=O)c21 (protonated)
O=C1C[C@H](c2ccccc2[O-])Cc2[nH]c(=O)[n-]c(=O)c21 (chirality)
O=C1C[C@H](c2ccccc2[O-])Cc2[nH]c(=O)[n-]c(=O)c21 (3D coordinates assigned)
O=C1C[C@H](c2ccccc2[O-])Cc2[nH]c(=O)[n-]c(=O)c21 (nonaromatic ring conformer: 43.8118824837634 kcal/mol)

>  <smiles>  (60) 
O=C1CC(c2ccccc2O)Cc2[nH]c(=O)[nH]c(=O)c21

>  <score_type>  (60) 
oracle

>  <origin>  (60) 
adg

>  <m_score__min__energy>  (60) 
-11.92

>  <m_primary>  (60) 
energy

$$$$
60:0
     RDKit          3D

 38 40  0  0  0  0  0  0  0  0999 V2000
   56.7560   19.5590   43.0670 H   0  0  0  0  0  0  0  0  0  0  0  0
   56.2560   20.4380   43.0020 O   0  0  0  0  0  0  0  0  0  0  0  0
   56.7060   21.5810   43.6590 C   0  0  0  0  0  0  0  0  0  0  0  0
   56.2840   22.8530   43.2500 C   0  0  0  0  0  0  0  0  0  0  0  0
   55.5893   22.9553   42.4033 H   0  0  0  0  0  0  0  0  0  0  0  0
   56.7450   23.9930   43.9170 C   0  0  0  0  0  0  0  0  0  0  0  0
   56.3960   24.9886   43.6057 H   0  0  0  0  0  0  0  0  0  0  0  0
   57.6520   23.8710   44.9830 C   0  0  0  0  0  0  0  0  0  0  0  0
   58.1060   25.0590   45.7360 C   0  0  0  0  0  0  0  0  0  0  0  0
   58.7393   24.8862   46.6186 H   0  0  0  0  0  0  0  0  0  0  0  0
   57.8070   26.3370   45.4290 C   0  0  0  0  0  0  0  0  0  0  0  0
   56.5110   26.9840   45.7050 C   0  0  0  0  0  0  0  0  0  0  0  0
   55.4780   26.3220   45.9900 O   0  0  0  0  0  0  0  0  0  0  0  0
   56.4210   28.3600   45.5610 O   0  0  0  0  0  0  0  0  0  0  0  0
   57.5620   29.1430   45.2110 C   0  0  1  0  0  0  0  0  0  0  0  0
   58.4010   28.4500   44.2920 O   0  0  0  0  0  0  0  0  0  0  0  0
   58.8660   27.1940   44.7740 C   0  0  0  0  0  0  0  0  0  0  0  0
   59.2825   26.6338   43.9239 H   0  0  0  0  0  0  0  0  0  0  0  0
   59.6106   27.4165   45.5525 H   0  0  0  0  0  0  0  0  0  0  0  0
   57.0950   30.4020   44.5550 C   0  0  0  0  0  0  0  0  0  0  0  0
   56.2880   30.4170   43.4870 C   0  0  0  0  0  0  0  0  0  0  0  0
   55.9034   29.4724   43.0749 H   0  0  0  0  0  0  0  0  0  0  0  0
   56.0095   31.3739   43.0215 H   0  0  0  0  0  0  0  0  0  0  0  0
   57.6770   31.5720   45.2050 C   0  0  0  0  0  0  0  0  0  0  0  0
   57.4730   32.8520   44.8760 C   0  0  0  0  0  0  0  0  0  0  0  0
   57.9707   33.6519   45.4439 H   0  0  0  0  0  0  0  0  0  0  0  0
   56.8075   33.1050   44.0375 H   0  0  0  0  0  0  0  0  0  0  0  0
   58.5740   31.1470   46.3140 C   0  0  2  0  0  0  0  0  0  0  0  0
   58.3755   31.6982   47.2450 H   0  0  0  0  0  0  0  0  0  0  0  0
   59.9210   31.4040   45.9960 O   0  0  0  0  0  0  0  0  0  0  0  0
   60.2470   30.6570   45.4260 H   0  0  0  0  0  0  0  0  0  0  0  0
   58.3120   29.6370   46.4790 C   0  0  0  0  0  0  0  0  0  0  0  0
   57.6943   29.4599   47.3718 H   0  0  0  0  0  0  0  0  0  0  0  0
   59.2608   29.0937   46.6000 H   0  0  0  0  0  0  0  0  0  0  0  0
   58.0480   22.5950   45.4070 C   0  0  0  0  0  0  0  0  0  0  0  0
   58.7248   22.4894   46.2677 H   0  0  0  0  0  0  0  0  0  0  0  0
   57.5860   21.4550   44.7400 C   0  0  0  0  0  0  0  0  0  0  0  0
   57.9152   20.4574   45.0661 H   0  0  0  0  0  0  0  0  0  0  0  0
  1  2  1  0
  2  3  1  0
  3  4  2  0
  4  5  1  0
  4  6  1  0
  6  7  1  0
  6  8  2  0
  8  9  1  0
  9 10  1  0
  9 11  2  0
 11 12  1  0
 12 13  2  0
 12 14  1  0
 15 14  1  1
 15 16  1  0
 16 17  1  0
 17 18  1  0
 17 19  1  0
 15 20  1  0
 20 21  2  0
 21 22  1  0
 21 23  1  0
 20 24  1  0
 24 25  2  0
 25 26  1  0
 25 27  1  0
 24 28  1  0
 28 29  1  1
 28 30  1  0
 30 31  1  0
 28 32  1  0
 32 33  1  0
 32 34  1  0
  8 35  1  0
 35 36  1  0
 35 37  2  0
 37 38  1  0
 37  3  1  0
 17 11  1  0
 32 15  1  0
M  END
>  <UniqueID>  (61) 
57

>  <SMILES>  (61) 
C=C1C(=C)[C@]2(C[C@H]1O)OC/C(=C/c1ccc(O)cc1)C(=O)O2

>  <Energy>  (61) 
63.084764353933494

>  <Genealogy>  (61) 
C=C1C(=C)[C@]2(C[C@H]1O)OCC(=Cc1ccc(O)cc1)C(=O)O2 (chirality)
C=C1C(=C)[C@]2(C[C@H]1O)OC/C(=C/c1ccc(O)cc1)C(=O)O2 (cis-trans isomerization)
C=C1C(=C)[C@]2(C[C@H]1O)OC/C(=C/c1ccc(O)cc1)C(=O)O2 (3D coordinates assigned)
C=C1C(=C)[C@]2(C[C@H]1O)OC/C(=C/c1ccc(O)cc1)C(=O)O2 (nonaromatic ring conformer: 63.084764353933494 kcal/mol)

>  <smiles>  (61) 
C=C1C(=C)C2(CC1O)OCC(=Cc1ccc(O)cc1)C(=O)O2

>  <score_type>  (61) 
oracle

>  <origin>  (61) 
adg

>  <m_score__min__energy>  (61) 
-8.3300000000000001

>  <m_primary>  (61) 
energy

$$$$
61:0
     RDKit          3D

 53 56  0  0  0  0  0  0  0  0999 V2000
   55.3399   30.5106   44.1769 H   0  0  0  0  0  0  0  0  0  0  0  0
   56.1980   29.9790   44.6140 C   0  0  0  0  0  0  0  0  0  0  0  0
   56.0390   28.7260   45.1120 N   0  0  0  0  0  0  0  0  0  0  0  0
   57.0710   28.0210   45.6600 C   0  0  0  0  0  0  0  0  0  0  0  0
   56.8680   26.8370   46.1670 N   0  0  0  0  0  0  0  0  0  0  0  0
   56.5130   25.6380   45.4560 C   0  0  0  0  0  0  0  0  0  0  0  0
   57.3480   25.1980   44.4210 C   0  0  0  0  0  0  0  0  0  0  0  0
   58.2666   25.7554   44.1854 H   0  0  0  0  0  0  0  0  0  0  0  0
   57.0210   24.0540   43.6850 C   0  0  0  0  0  0  0  0  0  0  0  0
   57.6914   23.7047   42.8859 H   0  0  0  0  0  0  0  0  0  0  0  0
   55.8430   23.3540   43.9640 C   0  0  0  0  0  0  0  0  0  0  0  0
   55.5190   22.2190   43.2330 O   0  0  0  0  0  0  0  0  0  0  0  0
   54.9880   23.8040   44.9740 C   0  0  0  0  0  0  0  0  0  0  0  0
   54.0571   23.2585   45.1882 H   0  0  0  0  0  0  0  0  0  0  0  0
   55.3130   24.9460   45.7130 C   0  0  0  0  0  0  0  0  0  0  0  0
   54.6299   25.3049   46.4970 H   0  0  0  0  0  0  0  0  0  0  0  0
   58.3530   28.6130   45.7370 C   0  0  0  0  0  0  0  0  0  0  0  0
   59.5140   27.8980   46.3270 C   0  0  0  0  0  0  0  0  0  0  0  0
   60.0630   26.9660   45.6810 O   0  0  0  0  0  0  0  0  0  0  0  0
   60.0780   28.2830   47.5880 N   0  0  0  0  0  0  0  0  0  0  0  0
   59.6270   29.3580   48.4240 C   0  0  0  0  0  0  0  0  0  0  0  0
   58.8970   29.1210   49.6020 C   0  0  0  0  0  0  0  0  0  0  0  0
   58.6505   28.0903   49.8967 H   0  0  0  0  0  0  0  0  0  0  0  0
   58.4840   30.1910   50.3990 C   0  0  0  0  0  0  0  0  0  0  0  0
   57.9037   30.0015   51.3141 H   0  0  0  0  0  0  0  0  0  0  0  0
   58.8060   31.5010   50.0370 C   0  0  0  0  0  0  0  0  0  0  0  0
   58.4717   32.3414   50.6631 H   0  0  0  0  0  0  0  0  0  0  0  0
   59.5540   31.7470   48.8780 C   0  0  0  0  0  0  0  0  0  0  0  0
   59.9730   33.4030   48.4290 S   0  0  0  0  0  0  0  0  0  0  0  0
   59.6600   34.3230   49.5760 O   0  0  0  0  0  0  0  0  0  0  0  0
   61.4500   33.4820   48.1610 O   0  0  0  0  0  0  0  0  0  0  0  0
   59.0990   33.9260   47.0090 N   0  0  0  0  0  0  0  0  0  0  0  0
   57.7380   33.3530   47.0090 C   0  0  0  0  0  0  0  0  0  0  0  0
   57.8085   32.2738   47.2100 H   0  0  0  0  0  0  0  0  0  0  0  0
   57.1555   33.8692   47.7863 H   0  0  0  0  0  0  0  0  0  0  0  0
   57.0140   33.5610   45.6590 C   0  0  0  0  0  0  0  0  0  0  0  0
   56.9838   32.6026   45.1200 H   0  0  0  0  0  0  0  0  0  0  0  0
   55.9989   33.9292   45.8690 H   0  0  0  0  0  0  0  0  0  0  0  0
   57.7250   34.5990   44.7850 C   0  0  0  0  0  0  0  0  0  0  0  0
   57.2129   34.6624   43.8135 H   0  0  0  0  0  0  0  0  0  0  0  0
   57.6955   35.5702   45.3007 H   0  0  0  0  0  0  0  0  0  0  0  0
   59.1950   34.2120   44.5540 C   0  0  0  0  0  0  0  0  0  0  0  0
   59.2465   33.5103   43.7084 H   0  0  0  0  0  0  0  0  0  0  0  0
   59.7555   35.1357   44.3474 H   0  0  0  0  0  0  0  0  0  0  0  0
   59.8300   33.5450   45.7890 C   0  0  0  0  0  0  0  0  0  0  0  0
   59.7929   32.4521   45.6703 H   0  0  0  0  0  0  0  0  0  0  0  0
   60.8741   33.8794   45.8787 H   0  0  0  0  0  0  0  0  0  0  0  0
   59.9670   30.6720   48.0790 C   0  0  0  0  0  0  0  0  0  0  0  0
   60.5628   30.8619   47.1740 H   0  0  0  0  0  0  0  0  0  0  0  0
   58.5260   29.9070   45.2160 C   0  0  0  0  0  0  0  0  0  0  0  0
   59.5175   30.3822   45.2499 H   0  0  0  0  0  0  0  0  0  0  0  0
   57.4490   30.5910   44.6570 C   0  0  0  0  0  0  0  0  0  0  0  0
   57.5849   31.6051   44.2532 H   0  0  0  0  0  0  0  0  0  0  0  0
  1  2  1  0
  2  3  1  0
  3  4  1  0
  4  5  2  0
  5  6  1  0
  6  7  2  0
  7  8  1  0
  7  9  1  0
  9 10  1  0
  9 11  2  0
 11 12  1  0
 11 13  1  0
 13 14  1  0
 13 15  2  0
 15 16  1  0
  4 17  1  0
 17 18  1  0
 18 19  2  0
 18 20  1  0
 20 21  1  0
 21 22  2  0
 22 23  1  0
 22 24  1  0
 24 25  1  0
 24 26  2  0
 26 27  1  0
 26 28  1  0
 28 29  1  0
 29 30  2  0
 29 31  2  0
 29 32  1  0
 32 33  1  0
 33 34  1  0
 33 35  1  0
 33 36  1  0
 36 37  1  0
 36 38  1  0
 36 39  1  0
 39 40  1  0
 39 41  1  0
 39 42  1  0
 42 43  1  0
 42 44  1  0
 42 45  1  0
 45 46  1  0
 45 47  1  0
 28 48  2  0
 48 49  1  0
 17 50  2  0
 50 51  1  0
 50 52  1  0
 52 53  1  0
 52  2  2  0
 15  6  1  0
 48 21  1  0
 45 32  1  0
M  CHG  3   3  -1  12  -1  20  -1
M  END
>  <UniqueID>  (62) 
58

>  <SMILES>  (62) 
O=C([N-]c1cccc(S(=O)(=O)N2CCCCC2)c1)c1ccc[n-]/c1=N\c1ccc([O-])cc1

>  <Energy>  (62) 
74.64284654881683

>  <Genealogy>  (62) 
O=C([N-]c1cccc(S(=O)(=O)N2CCCCC2)c1)c1ccc[n-]c1=Nc1ccc([O-])cc1 (protonated)
O=C([N-]c1cccc(S(=O)(=O)N2CCCCC2)c1)c1ccc[n-]/c1=N\c1ccc([O-])cc1 (cis-trans isomerization)
O=C([N-]c1cccc(S(=O)(=O)N2CCCCC2)c1)c1ccc[n-]/c1=N\c1ccc([O-])cc1 (3D coordinates assigned)
O=C([N-]c1cccc(S(=O)(=O)N2CCCCC2)c1)c1ccc[n-]/c1=N\c1ccc([O-])cc1 (nonaromatic ring conformer: 74.64284654881683 kcal/mol)

>  <smiles>  (62) 
O=C(Nc1cccc(S(=O)(=O)N2CCCCC2)c1)c1ccc[nH]c1=Nc1ccc(O)cc1

>  <score_type>  (62) 
oracle

>  <origin>  (62) 
adg

>  <m_score__min__energy>  (62) 
-14.960000000000001

>  <m_primary>  (62) 
energy

$$$$
62:0
     RDKit          3D

 34 36  0  0  0  0  0  0  0  0999 V2000
   59.2650   35.3010   45.1570 C   0  0  0  0  0  0  0  0  0  0  0  0
   58.8930   34.0200   45.2010 C   0  0  0  0  0  0  0  0  0  0  0  0
   57.8010   33.3390   44.1170 S   0  0  0  0  0  0  0  0  0  0  0  0
   57.8200   31.8200   44.8530 C   0  0  0  0  0  0  0  0  0  0  0  0
   57.1590   30.7210   44.4520 C   0  0  0  0  0  0  0  0  0  0  0  0
   57.5600   29.3380   44.7870 C   0  0  0  0  0  0  0  0  0  0  0  0
   58.8500   28.8580   44.5040 C   0  0  0  0  0  0  0  0  0  0  0  0
   59.1900   27.5370   44.8010 C   0  0  0  0  0  0  0  0  0  0  0  0
   58.2460   26.6780   45.3640 C   0  0  0  0  0  0  0  0  0  0  0  0
   56.9400   27.1300   45.6290 C   0  0  0  0  0  0  0  0  0  0  0  0
   55.9310   26.2190   46.2140 C   0  0  0  0  0  0  0  0  0  0  0  0
   54.7140   26.3320   45.9090 O   0  0  0  0  0  0  0  0  0  0  0  0
   56.3130   25.2260   47.1080 O   0  0  0  0  0  0  0  0  0  0  0  0
   56.6050   28.4630   45.3260 C   0  0  0  0  0  0  0  0  0  0  0  0
   58.7070   31.8870   45.9310 C   0  0  0  0  0  0  0  0  0  0  0  0
   58.9640   30.8910   46.6620 O   0  0  0  0  0  0  0  0  0  0  0  0
   59.2970   33.1070   46.1290 N   0  0  0  0  0  0  0  0  0  0  0  0
   60.2590   33.3590   47.1700 C   0  0  0  0  0  0  0  0  0  0  0  0
   61.6290   33.1560   46.9410 C   0  0  0  0  0  0  0  0  0  0  0  0
   62.5420   33.4180   47.9650 C   0  0  0  0  0  0  0  0  0  0  0  0
   62.0860   33.8780   49.2010 C   0  0  0  0  0  0  0  0  0  0  0  0
   60.7160   34.0720   49.3950 C   0  0  0  0  0  0  0  0  0  0  0  0
   59.8430   33.8120   48.3860 N   0  0  0  0  0  0  0  0  0  0  0  0
   59.9835   35.6907   45.8932 H   0  0  0  0  0  0  0  0  0  0  0  0
   58.8531   35.9671   44.3846 H   0  0  0  0  0  0  0  0  0  0  0  0
   56.2600   30.8595   43.8335 H   0  0  0  0  0  0  0  0  0  0  0  0
   59.5949   29.5258   44.0466 H   0  0  0  0  0  0  0  0  0  0  0  0
   60.2061   27.1721   44.5903 H   0  0  0  0  0  0  0  0  0  0  0  0
   58.5243   25.6408   45.6023 H   0  0  0  0  0  0  0  0  0  0  0  0
   55.5827   28.8229   45.5140 H   0  0  0  0  0  0  0  0  0  0  0  0
   61.9804   32.7937   45.9636 H   0  0  0  0  0  0  0  0  0  0  0  0
   63.6179   33.2621   47.7975 H   0  0  0  0  0  0  0  0  0  0  0  0
   62.7975   34.0856   50.0138 H   0  0  0  0  0  0  0  0  0  0  0  0
   60.3438   34.4352   50.3643 H   0  0  0  0  0  0  0  0  0  0  0  0
  1  2  2  0
  2  3  1  0
  3  4  1  0
  4  5  2  3
  5  6  1  0
  6  7  2  0
  7  8  1  0
  8  9  2  0
  9 10  1  0
 10 11  1  0
 11 12  2  0
 11 13  1  0
 10 14  2  0
  4 15  1  0
 15 16  2  0
 15 17  1  0
 17 18  1  0
 18 19  2  0
 19 20  1  0
 20 21  2  0
 21 22  1  0
 22 23  2  0
 17  2  1  0
 23 18  1  0
 14  6  1  0
  1 24  1  0
  1 25  1  0
  5 26  1  0
  7 27  1  0
  8 28  1  0
  9 29  1  0
 14 30  1  0
 19 31  1  0
 20 32  1  0
 21 33  1  0
 22 34  1  0
M  CHG  1  13  -1
M  END
>  <UniqueID>  (63) 
59

>  <SMILES>  (63) 
C=c1sc(=Cc2cccc(C(=O)[O-])c2)c(=O)n1-c1ccccn1

>  <Energy>  (63) 
83.11511041354717

>  <Genealogy>  (63) 
C=c1sc(=Cc2cccc(C(=O)[O-])c2)c(=O)n1-c1ccccn1 (protonated)
C=c1sc(=Cc2cccc(C(=O)[O-])c2)c(=O)n1-c1ccccn1 (3D coordinates assigned)
C=c1sc(=Cc2cccc(C(=O)[O-])c2)c(=O)n1-c1ccccn1 (optimized conformer: 83.11511041354717 kcal/mol)

>  <smiles>  (63) 
C=c1sc(=Cc2cccc(C(=O)O)c2)c(=O)n1-c1ccccn1

>  <score_type>  (63) 
oracle

>  <origin>  (63) 
adg

>  <m_score__min__energy>  (63) 
-11.01

>  <m_primary>  (63) 
energy

$$$$
63:0
     RDKit          3D

 52 54  0  0  0  0  0  0  0  0999 V2000
   62.0330   33.8400   48.2080 C   0  0  0  0  0  0  0  0  0  0  0  0
   60.5710   33.7080   48.2040 N   0  0  0  0  0  0  0  0  0  0  0  0
   59.7910   34.3190   47.1190 C   0  0  0  0  0  0  0  0  0  0  0  0
   59.0100   33.2610   46.3920 C   0  0  0  0  0  0  0  0  0  0  0  0
   59.6290   32.0660   45.9930 C   0  0  0  0  0  0  0  0  0  0  0  0
   58.9080   31.1020   45.2800 C   0  0  0  0  0  0  0  0  0  0  0  0
   57.5650   31.3230   44.9540 C   0  0  0  0  0  0  0  0  0  0  0  0
   56.6710   30.1110   44.0410 S   0  0  0  0  0  0  0  0  0  0  0  0
   55.2620   29.6450   44.9260 N   0  0  0  0  0  0  0  0  0  0  0  0
   57.5340   28.9030   43.8050 O   0  0  0  0  0  0  0  0  0  0  0  0
   56.2660   30.6800   42.7100 O   0  0  0  0  0  0  0  0  0  0  0  0
   56.9480   32.5240   45.3350 C   0  0  0  0  0  0  0  0  0  0  0  0
   57.6680   33.4870   46.0490 C   0  0  0  0  0  0  0  0  0  0  0  0
   59.9020   32.9470   49.2340 C   0  0  0  0  0  0  0  0  0  0  0  0
   58.9030   33.4440   49.8260 O   0  0  0  0  0  0  0  0  0  0  0  0
   60.4020   31.5820   49.6410 C   0  0  0  0  0  0  0  0  0  0  0  0
   60.0630   30.5180   48.6270 C   0  0  0  0  0  0  0  0  0  0  0  0
   58.7460   30.0450   48.5160 C   0  0  0  0  0  0  0  0  0  0  0  0
   58.4340   29.0360   47.6010 C   0  0  0  0  0  0  0  0  0  0  0  0
   59.4280   28.4960   46.7710 C   0  0  0  0  0  0  0  0  0  0  0  0
   59.0850   27.4480   45.8510 N   0  0  0  0  0  0  0  0  0  0  0  0
   59.1390   26.0510   46.1770 C   0  0  0  0  0  0  0  0  0  0  0  0
   59.7160   25.6570   47.2270 O   0  0  0  0  0  0  0  0  0  0  0  0
   58.4960   25.0460   45.2710 C   0  0  0  0  0  0  0  0  0  0  0  0
   57.0230   25.0120   45.5200 C   0  0  0  0  0  0  0  0  0  0  0  0
   56.2330   26.0870   45.9100 C   0  0  0  0  0  0  0  0  0  0  0  0
   54.9040   25.8140   45.9900 N   0  0  0  0  0  0  0  0  0  0  0  0
   54.6230   24.5340   45.6580 C   0  0  0  0  0  0  0  0  0  0  0  0
   56.0190   23.6920   45.2430 S   0  0  0  0  0  0  0  0  0  0  0  0
   60.7510   28.9490   46.9050 C   0  0  0  0  0  0  0  0  0  0  0  0
   61.0670   29.9510   47.8270 C   0  0  0  0  0  0  0  0  0  0  0  0
   62.3954   33.8727   49.2461 H   0  0  0  0  0  0  0  0  0  0  0  0
   62.4804   32.9786   47.6905 H   0  0  0  0  0  0  0  0  0  0  0  0
   62.3188   34.7676   47.6905 H   0  0  0  0  0  0  0  0  0  0  0  0
   59.0961   35.0595   47.5417 H   0  0  0  0  0  0  0  0  0  0  0  0
   60.4762   34.8121   46.4138 H   0  0  0  0  0  0  0  0  0  0  0  0
   60.6854   31.8867   46.2419 H   0  0  0  0  0  0  0  0  0  0  0  0
   59.3989   30.1663   44.9743 H   0  0  0  0  0  0  0  0  0  0  0  0
   55.1650   28.6110   44.8200 H   0  0  0  0  0  0  0  0  0  0  0  0
   55.8960   32.7085   45.0716 H   0  0  0  0  0  0  0  0  0  0  0  0
   57.1795   34.4275   46.3436 H   0  0  0  0  0  0  0  0  0  0  0  0
   61.4952   31.6259   49.7545 H   0  0  0  0  0  0  0  0  0  0  0  0
   59.9083   31.3128   50.5864 H   0  0  0  0  0  0  0  0  0  0  0  0
   57.9560   30.4706   49.1522 H   0  0  0  0  0  0  0  0  0  0  0  0
   57.4017   28.6624   47.5310 H   0  0  0  0  0  0  0  0  0  0  0  0
   58.8400   27.7140   44.8720 H   0  0  0  0  0  0  0  0  0  0  0  0
   58.6833   25.3255   44.2237 H   0  0  0  0  0  0  0  0  0  0  0  0
   58.9218   24.0515   45.4702 H   0  0  0  0  0  0  0  0  0  0  0  0
   56.6501   27.0795   46.1359 H   0  0  0  0  0  0  0  0  0  0  0  0
   53.6125   24.0994   45.6591 H   0  0  0  0  0  0  0  0  0  0  0  0
   61.5438   28.5122   46.2800 H   0  0  0  0  0  0  0  0  0  0  0  0
   62.1067   30.2964   47.9259 H   0  0  0  0  0  0  0  0  0  0  0  0
  1  2  1  0
  2  3  1  0
  3  4  1  0
  4  5  2  0
  5  6  1  0
  6  7  2  0
  7  8  1  0
  8  9  1  0
  8 10  2  0
  8 11  2  0
  7 12  1  0
 12 13  2  0
  2 14  1  0
 14 15  2  0
 14 16  1  0
 16 17  1  0
 17 18  2  0
 18 19  1  0
 19 20  2  0
 20 21  1  0
 21 22  1  0
 22 23  2  0
 22 24  1  0
 24 25  1  0
 25 26  2  0
 26 27  1  0
 27 28  2  0
 28 29  1  0
 20 30  1  0
 30 31  2  0
 13  4  1  0
 31 17  1  0
 29 25  1  0
  1 32  1  0
  1 33  1  0
  1 34  1  0
  3 35  1  0
  3 36  1  0
  5 37  1  0
  6 38  1  0
  9 39  1  0
 12 40  1  0
 13 41  1  0
 16 42  1  0
 16 43  1  0
 18 44  1  0
 19 45  1  0
 21 46  1  0
 24 47  1  0
 24 48  1  0
 26 49  1  0
 28 50  1  0
 30 51  1  0
 31 52  1  0
M  CHG  1   9  -1
M  END
>  <UniqueID>  (64) 
60

>  <SMILES>  (64) 
CN(Cc1ccc(S([NH-])(=O)=O)cc1)C(=O)Cc1ccc(NC(=O)Cc2cncs2)cc1

>  <Energy>  (64) 
81.61347680336102

>  <Genealogy>  (64) 
CN(Cc1ccc(S([NH-])(=O)=O)cc1)C(=O)Cc1ccc(NC(=O)Cc2cncs2)cc1 (protonated)
CN(Cc1ccc(S([NH-])(=O)=O)cc1)C(=O)Cc1ccc(NC(=O)Cc2cncs2)cc1 (3D coordinates assigned)
CN(Cc1ccc(S([NH-])(=O)=O)cc1)C(=O)Cc1ccc(NC(=O)Cc2cncs2)cc1 (optimized conformer: 81.61347680336102 kcal/mol)

>  <smiles>  (64) 
CN(Cc1ccc(S(N)(=O)=O)cc1)C(=O)Cc1ccc(NC(=O)Cc2cncs2)cc1

>  <score_type>  (64) 
oracle

>  <origin>  (64) 
adg

>  <m_score__min__energy>  (64) 
-11.859999999999999

>  <m_primary>  (64) 
energy

$$$$
64:0
     RDKit          3D

 53 55  0  0  0  0  0  0  0  0999 V2000
   64.0530   32.8880   48.8110 C   0  0  0  0  0  0  0  0  0  0  0  0
   63.3310   33.4500   47.6340 C   0  0  0  0  0  0  0  0  0  0  0  0
   63.8020   33.2760   46.4770 O   0  0  0  0  0  0  0  0  0  0  0  0
   62.0860   34.0630   47.8240 O   0  0  0  0  0  0  0  0  0  0  0  0
   60.9020   33.7230   47.1510 C   0  0  0  0  0  0  0  0  0  0  0  0
   60.4300   34.5860   46.1580 C   0  0  0  0  0  0  0  0  0  0  0  0
   59.2630   34.2840   45.4520 C   0  0  0  0  0  0  0  0  0  0  0  0
   58.5600   33.0970   45.7060 C   0  0  0  0  0  0  0  0  0  0  0  0
   57.3290   32.8310   44.9290 C   0  0  0  0  0  0  0  0  0  0  0  0
   57.3500   32.3610   43.6740 C   0  0  0  0  0  0  0  0  0  0  0  0
   57.2770   30.9200   43.3520 C   0  0  0  0  0  0  0  0  0  0  0  0
   56.8110   30.5780   42.2320 O   0  0  0  0  0  0  0  0  0  0  0  0
   57.6890   29.8660   44.3060 C   0  0  0  0  0  0  0  0  0  0  0  0
   59.0570   29.6500   44.5360 C   0  0  0  0  0  0  0  0  0  0  0  0
   59.4800   28.6960   45.4630 C   0  0  0  0  0  0  0  0  0  0  0  0
   58.5470   27.9380   46.1760 C   0  0  0  0  0  0  0  0  0  0  0  0
   59.0200   27.0020   47.1080 O   0  0  0  0  0  0  0  0  0  0  0  0
   60.0690   27.2180   48.0140 C   0  0  0  0  0  0  0  0  0  0  0  0
   61.1150   26.5150   47.9540 O   0  0  0  0  0  0  0  0  0  0  0  0
   59.9660   28.2840   48.9770 N   0  0  0  0  0  0  0  0  0  0  0  0
   61.0400   28.5330   49.9510 C   0  0  0  0  0  0  0  0  0  0  0  0
   61.3110   30.0400   50.1090 C   0  0  0  0  0  0  0  0  0  0  0  0
   60.0380   30.9180   50.0340 C   0  0  0  0  0  0  0  0  0  0  0  0
   60.0750   32.1900   51.2890 Cl  0  0  0  0  0  0  0  0  0  0  0  0
   58.7500   30.0990   50.1670 C   0  0  0  0  0  0  0  0  0  0  0  0
   58.6980   29.0240   49.0750 C   0  0  0  0  0  0  0  0  0  0  0  0
   57.1750   28.1650   45.9680 C   0  0  0  0  0  0  0  0  0  0  0  0
   56.7400   29.1130   45.0340 C   0  0  0  0  0  0  0  0  0  0  0  0
   55.3650   29.2690   44.8430 O   0  0  0  0  0  0  0  0  0  0  0  0
   59.0280   32.2280   46.7160 C   0  0  0  0  0  0  0  0  0  0  0  0
   58.3270   31.0740   47.0520 O   0  0  0  0  0  0  0  0  0  0  0  0
   60.2000   32.5330   47.4180 C   0  0  0  0  0  0  0  0  0  0  0  0
   63.5845   33.2527   49.7370 H   0  0  0  0  0  0  0  0  0  0  0  0
   64.0020   31.7896   48.7822 H   0  0  0  0  0  0  0  0  0  0  0  0
   65.1053   33.2070   48.7822 H   0  0  0  0  0  0  0  0  0  0  0  0
   60.9817   35.5101   45.9307 H   0  0  0  0  0  0  0  0  0  0  0  0
   58.8916   34.9841   44.6892 H   0  0  0  0  0  0  0  0  0  0  0  0
   56.3553   33.0274   45.4015 H   0  0  0  0  0  0  0  0  0  0  0  0
   57.4250   33.0806   42.8454 H   0  0  0  0  0  0  0  0  0  0  0  0
   59.8024   30.2380   43.9805 H   0  0  0  0  0  0  0  0  0  0  0  0
   60.5554   28.5396   45.6336 H   0  0  0  0  0  0  0  0  0  0  0  0
   60.7437   28.1178   50.9256 H   0  0  0  0  0  0  0  0  0  0  0  0
   61.9589   28.0506   49.5866 H   0  0  0  0  0  0  0  0  0  0  0  0
   61.7886   30.2054   51.0860 H   0  0  0  0  0  0  0  0  0  0  0  0
   61.9544   30.3384   49.2682 H   0  0  0  0  0  0  0  0  0  0  0  0
   60.0353   31.3823   49.0368 H   0  0  0  0  0  0  0  0  0  0  0  0
   58.7255   29.6162   51.1551 H   0  0  0  0  0  0  0  0  0  0  0  0
   57.8835   30.7677   50.0574 H   0  0  0  0  0  0  0  0  0  0  0  0
   57.8897   28.3160   49.3103 H   0  0  0  0  0  0  0  0  0  0  0  0
   58.5177   29.5233   48.1115 H   0  0  0  0  0  0  0  0  0  0  0  0
   56.4352   27.5914   46.5456 H   0  0  0  0  0  0  0  0  0  0  0  0
   54.7690   28.5270   44.4990 H   0  0  0  0  0  0  0  0  0  0  0  0
   60.5748   31.8377   48.1836 H   0  0  0  0  0  0  0  0  0  0  0  0
  1  2  1  0
  2  3  2  0
  2  4  1  0
  4  5  1  0
  5  6  2  0
  6  7  1  0
  7  8  2  0
  8  9  1  0
  9 10  2  3
 10 11  1  0
 11 12  2  0
 11 13  1  0
 13 14  2  0
 14 15  1  0
 15 16  2  0
 16 17  1  0
 17 18  1  0
 18 19  2  0
 18 20  1  0
 20 21  1  0
 21 22  1  0
 22 23  1  0
 23 24  1  0
 23 25  1  0
 25 26  1  0
 16 27  1  0
 27 28  2  0
 28 29  1  0
  8 30  1  0
 30 31  1  0
 30 32  2  0
 32  5  1  0
 28 13  1  0
 26 20  1  0
  1 33  1  0
  1 34  1  0
  1 35  1  0
  6 36  1  0
  7 37  1  0
  9 38  1  0
 10 39  1  0
 14 40  1  0
 15 41  1  0
 21 42  1  0
 21 43  1  0
 22 44  1  0
 22 45  1  0
 23 46  1  0
 25 47  1  0
 25 48  1  0
 26 49  1  0
 26 50  1  0
 27 51  1  0
 29 52  1  0
 32 53  1  0
M  CHG  1  31  -1
M  END
>  <UniqueID>  (65) 
61

>  <SMILES>  (65) 
CC(=O)Oc1ccc(C=CC(=O)c2ccc(OC(=O)N3CCC(Cl)CC3)cc2O)c([O-])c1

>  <Energy>  (65) 
73.94616163943192

>  <Genealogy>  (65) 
CC(=O)Oc1ccc(C=CC(=O)c2ccc(OC(=O)N3CCC(Cl)CC3)cc2O)c([O-])c1 (protonated)
CC(=O)Oc1ccc(C=CC(=O)c2ccc(OC(=O)N3CCC(Cl)CC3)cc2O)c([O-])c1 (3D coordinates assigned)
CC(=O)Oc1ccc(C=CC(=O)c2ccc(OC(=O)N3CCC(Cl)CC3)cc2O)c([O-])c1 (nonaromatic ring conformer: 73.94616163943192 kcal/mol)

>  <smiles>  (65) 
CC(=O)Oc1ccc(C=CC(=O)c2ccc(OC(=O)N3CCC(Cl)CC3)cc2O)c(O)c1

>  <score_type>  (65) 
oracle

>  <origin>  (65) 
adg

>  <m_score__min__energy>  (65) 
-13.48

>  <m_primary>  (65) 
energy

$$$$
65:0
     RDKit          3D

 35 37  0  0  0  0  0  0  0  0999 V2000
   55.1620   26.5640   46.0970 N   0  0  0  0  0  0  0  0  0  0  0  0
   56.8150   26.0580   46.0890 S   0  0  0  0  0  0  0  0  0  0  0  0
   57.0210   25.0400   45.0030 O   0  0  0  0  0  0  0  0  0  0  0  0
   57.1580   25.4290   47.4100 O   0  0  0  0  0  0  0  0  0  0  0  0
   57.8520   27.4520   45.8080 C   0  0  0  0  0  0  0  0  0  0  0  0
   59.2470   27.3120   45.8300 C   0  0  0  0  0  0  0  0  0  0  0  0
   60.0650   28.4190   45.6010 C   0  0  0  0  0  0  0  0  0  0  0  0
   59.5000   29.6690   45.3360 C   0  0  0  0  0  0  0  0  0  0  0  0
   58.1050   29.8200   45.2860 C   0  0  0  0  0  0  0  0  0  0  0  0
   57.4990   31.1420   45.0100 C   0  0  0  0  0  0  0  0  0  0  0  0
   56.3080   31.2020   44.6000 O   0  0  0  0  0  0  0  0  0  0  0  0
   58.2560   32.3520   45.1740 N   0  0  0  0  0  0  0  0  0  0  0  0
   58.3010   33.4210   44.1710 C   0  0  0  0  0  0  0  0  0  0  0  0
   58.8260   34.6810   44.9010 C   0  0  0  0  0  0  0  0  0  0  0  0
   59.0290   34.2090   46.2970 C   0  0  0  0  0  0  0  0  0  0  0  0
   59.5050   34.9370   47.3880 C   0  0  0  0  0  0  0  0  0  0  0  0
   59.6390   34.2830   48.6240 C   0  0  0  0  0  0  0  0  0  0  0  0
   59.3060   32.9210   48.7430 C   0  0  0  0  0  0  0  0  0  0  0  0
   58.8300   32.2090   47.6290 C   0  0  0  0  0  0  0  0  0  0  0  0
   58.6900   32.8890   46.4140 C   0  0  0  0  0  0  0  0  0  0  0  0
   57.2860   28.7050   45.5350 C   0  0  0  0  0  0  0  0  0  0  0  0
   54.9000   26.7380   47.0920 H   0  0  0  0  0  0  0  0  0  0  0  0
   55.1240   27.4870   45.6080 H   0  0  0  0  0  0  0  0  0  0  0  0
   59.6972   26.3281   46.0281 H   0  0  0  0  0  0  0  0  0  0  0  0
   61.1589   28.3071   45.6292 H   0  0  0  0  0  0  0  0  0  0  0  0
   60.1512   30.5390   45.1657 H   0  0  0  0  0  0  0  0  0  0  0  0
   58.9803   33.1453   43.3509 H   0  0  0  0  0  0  0  0  0  0  0  0
   57.3083   33.5985   43.7315 H   0  0  0  0  0  0  0  0  0  0  0  0
   59.7730   35.0258   44.4601 H   0  0  0  0  0  0  0  0  0  0  0  0
   58.1377   35.5363   44.8319 H   0  0  0  0  0  0  0  0  0  0  0  0
   59.7695   35.9995   47.2826 H   0  0  0  0  0  0  0  0  0  0  0  0
   60.0051   34.8369   49.5010 H   0  0  0  0  0  0  0  0  0  0  0  0
   59.4187   32.4119   49.7115 H   0  0  0  0  0  0  0  0  0  0  0  0
   58.5735   31.1424   47.7101 H   0  0  0  0  0  0  0  0  0  0  0  0
   56.1919   28.8167   45.5155 H   0  0  0  0  0  0  0  0  0  0  0  0
  1  2  1  0
  2  3  2  0
  2  4  2  0
  2  5  1  0
  5  6  2  0
  6  7  1  0
  7  8  2  0
  8  9  1  0
  9 10  1  0
 10 11  2  0
 10 12  1  0
 12 13  1  0
 13 14  1  0
 14 15  1  0
 15 16  2  0
 16 17  1  0
 17 18  2  0
 18 19  1  0
 19 20  2  0
  9 21  2  0
 21  5  1  0
 20 12  1  0
 20 15  1  0
  1 22  1  0
  1 23  1  0
  6 24  1  0
  7 25  1  0
  8 26  1  0
 13 27  1  0
 13 28  1  0
 14 29  1  0
 14 30  1  0
 16 31  1  0
 17 32  1  0
 18 33  1  0
 19 34  1  0
 21 35  1  0
M  END
>  <UniqueID>  (66) 
62

>  <SMILES>  (66) 
NS(=O)(=O)c1cccc(C(=O)N2CCc3ccccc32)c1

>  <Energy>  (66) 
56.034296472223986

>  <Genealogy>  (66) 
NS(=O)(=O)c1cccc(C(=O)N2CCc3ccccc32)c1 (3D coordinates assigned)
NS(=O)(=O)c1cccc(C(=O)N2CCc3ccccc32)c1 (nonaromatic ring conformer: 56.034296472223986 kcal/mol)

>  <smiles>  (66) 
NS(=O)(=O)c1cccc(C(=O)N2CCc3ccccc32)c1

>  <score_type>  (66) 
oracle

>  <origin>  (66) 
adg

>  <m_score__min__energy>  (66) 
-8.9700000000000006

>  <m_primary>  (66) 
energy

$$$$
66:0
     RDKit          3D

 45 48  0  0  0  0  0  0  0  0999 V2000
   57.1161   30.0731   42.0792 H   0  0  0  0  0  0  0  0  0  0  0  0
   56.9770   31.0560   42.5530 C   0  0  0  0  0  0  0  0  0  0  0  0
   56.5405   31.8865   41.9788 H   0  0  0  0  0  0  0  0  0  0  0  0
   57.3380   31.2410   43.8250 C   0  0  0  0  0  0  0  0  0  0  0  0
   57.1840   32.4040   44.4180 O   0  0  0  0  0  0  0  0  0  0  0  0
   57.7040   32.3510   45.6210 C   0  0  0  0  0  0  0  0  0  0  0  0
   57.7091   33.1778   46.3466 H   0  0  0  0  0  0  0  0  0  0  0  0
   58.2430   31.1010   45.8370 C   0  0  0  0  0  0  0  0  0  0  0  0
   58.9000   30.6750   47.0890 C   0  0  0  0  0  0  0  0  0  0  0  0
   58.2420   29.9930   47.9200 O   0  0  0  0  0  0  0  0  0  0  0  0
   60.2530   31.0610   47.3960 N   0  0  0  0  0  0  0  0  0  0  0  0
   61.1450   30.1250   48.0890 C   0  0  0  0  0  0  0  0  0  0  0  0
   60.5556   29.2846   48.4843 H   0  0  0  0  0  0  0  0  0  0  0  0
   61.8980   29.7505   47.3800 H   0  0  0  0  0  0  0  0  0  0  0  0
   61.8520   30.8370   49.2450 C   0  0  0  0  0  0  0  0  0  0  0  0
   61.1170   31.0545   50.0340 H   0  0  0  0  0  0  0  0  0  0  0  0
   62.6473   30.1773   49.6222 H   0  0  0  0  0  0  0  0  0  0  0  0
   62.4690   32.1000   48.8040 N   0  0  0  0  0  0  0  0  0  0  0  0
   63.4660   32.7310   49.6370 C   0  0  0  0  0  0  0  0  0  0  0  0
   64.8290   32.4110   49.4890 C   0  0  0  0  0  0  0  0  0  0  0  0
   65.1377   31.6713   48.7357 H   0  0  0  0  0  0  0  0  0  0  0  0
   65.7930   33.0270   50.2930 C   0  0  0  0  0  0  0  0  0  0  0  0
   66.8553   32.7687   50.1711 H   0  0  0  0  0  0  0  0  0  0  0  0
   65.4110   33.9690   51.2500 C   0  0  0  0  0  0  0  0  0  0  0  0
   66.3730   34.5780   52.0480 O   0  0  0  0  0  0  0  0  0  0  0  0
   64.0620   34.2980   51.4050 C   0  0  0  0  0  0  0  0  0  0  0  0
   63.7612   35.0403   52.1590 H   0  0  0  0  0  0  0  0  0  0  0  0
   63.0940   33.6860   50.6040 C   0  0  0  0  0  0  0  0  0  0  0  0
   62.0340   33.9518   50.7293 H   0  0  0  0  0  0  0  0  0  0  0  0
   62.1840   32.6280   47.4600 C   0  0  0  0  0  0  0  0  0  0  0  0
   62.4184   33.7025   47.4375 H   0  0  0  0  0  0  0  0  0  0  0  0
   62.8026   32.0857   46.7298 H   0  0  0  0  0  0  0  0  0  0  0  0
   60.7080   32.4280   47.0980 C   0  0  0  0  0  0  0  0  0  0  0  0
   60.1000   33.1396   47.6759 H   0  0  0  0  0  0  0  0  0  0  0  0
   60.5948   32.5982   46.0171 H   0  0  0  0  0  0  0  0  0  0  0  0
   57.9650   30.3430   44.7010 C   0  0  0  0  0  0  0  0  0  0  0  0
   58.2170   29.0230   44.5720 C   0  0  0  0  0  0  0  0  0  0  0  0
   59.1098   28.7350   43.9976 H   0  0  0  0  0  0  0  0  0  0  0  0
   57.4010   27.9390   45.1330 C   0  0  0  0  0  0  0  0  0  0  0  0
   58.0260   26.5770   45.8990 S   0  0  0  0  0  0  0  0  0  0  0  0
   56.5010   26.0380   46.3600 C   0  0  0  0  0  0  0  0  0  0  0  0
   56.2890   24.9750   47.0000 O   0  0  0  0  0  0  0  0  0  0  0  0
   55.5150   26.8770   45.9830 N   0  0  0  0  0  0  0  0  0  0  0  0
   56.0180   27.9470   45.3130 C   0  0  0  0  0  0  0  0  0  0  0  0
   55.2000   28.9760   44.8650 O   0  0  0  0  0  0  0  0  0  0  0  0
  1  2  1  0
  2  3  1  0
  2  4  2  0
  4  5  1  0
  5  6  1  0
  6  7  1  0
  6  8  2  0
  8  9  1  0
  9 10  2  0
  9 11  1  0
 11 12  1  0
 12 13  1  0
 12 14  1  0
 12 15  1  0
 15 16  1  0
 15 17  1  0
 15 18  1  0
 18 19  1  0
 19 20  2  0
 20 21  1  0
 20 22  1  0
 22 23  1  0
 22 24  2  0
 24 25  1  0
 24 26  1  0
 26 27  1  0
 26 28  2  0
 28 29  1  0
 18 30  1  0
 30 31  1  0
 30 32  1  0
 30 33  1  0
 33 34  1  0
 33 35  1  0
  8 36  1  0
 36 37  2  0
 37 38  1  0
 37 39  1  0
 39 40  1  0
 40 41  1  0
 41 42  2  0
 41 43  1  0
 43 44  1  0
 44 45  1  0
 36  4  1  0
 44 39  2  0
 33 11  1  0
 28 19  1  0
M  CHG  3  25  -1  43  -1  45  -1
M  END
>  <UniqueID>  (67) 
63

>  <SMILES>  (67) 
C=c1occ(C(=O)N2CCN(c3ccc([O-])cc3)CC2)/c1=C/c1sc(=O)[n-]c1[O-]

>  <Energy>  (67) 
129.07730090346203

>  <Genealogy>  (67) 
C=c1occ(C(=O)N2CCN(c3ccc([O-])cc3)CC2)c1=Cc1sc(=O)[n-]c1[O-] (protonated)
C=c1occ(C(=O)N2CCN(c3ccc([O-])cc3)CC2)/c1=C/c1sc(=O)[n-]c1[O-] (cis-trans isomerization)
C=c1occ(C(=O)N2CCN(c3ccc([O-])cc3)CC2)/c1=C/c1sc(=O)[n-]c1[O-] (3D coordinates assigned)
C=c1occ(C(=O)N2CCN(c3ccc([O-])cc3)CC2)/c1=C/c1sc(=O)[n-]c1[O-] (nonaromatic ring conformer: 129.07730090346203 kcal/mol)

>  <smiles>  (67) 
C=c1occ(C(=O)N2CCN(c3ccc(O)cc3)CC2)c1=Cc1sc(=O)[nH]c1O

>  <score_type>  (67) 
oracle

>  <origin>  (67) 
adg

>  <m_score__min__energy>  (67) 
-15.5

>  <m_primary>  (67) 
energy

$$$$
67:0
     RDKit          3D

 56 59  0  0  0  0  0  0  0  0999 V2000
   67.4720   33.4250   50.5060 C   0  0  0  0  0  0  0  0  0  0  0  0
   67.0540   32.4030   51.5580 C   0  0  0  0  0  0  0  0  0  0  0  0
   65.6370   32.3990   51.7190 O   0  0  0  0  0  0  0  0  0  0  0  0
   64.7660   31.6940   50.8770 C   0  0  0  0  0  0  0  0  0  0  0  0
   64.7730   30.4310   50.8770 O   0  0  0  0  0  0  0  0  0  0  0  0
   63.8600   32.4080   50.0160 N   0  0  0  0  0  0  0  0  0  0  0  0
   63.7900   33.8740   50.0620 C   0  0  0  0  0  0  0  0  0  0  0  0
   62.3390   34.3410   49.9040 C   0  0  0  0  0  0  0  0  0  0  0  0
   61.6650   33.6710   48.7820 N   0  0  0  0  0  0  0  0  0  0  0  0
   60.3280   34.0880   48.4290 C   0  0  0  0  0  0  0  0  0  0  0  0
   59.6360   34.7300   49.2640 O   0  0  0  0  0  0  0  0  0  0  0  0
   59.7530   33.8160   47.0940 C   0  0  0  0  0  0  0  0  0  0  0  0
   59.6720   34.8650   46.1600 C   0  0  0  0  0  0  0  0  0  0  0  0
   59.0360   34.6740   44.9330 C   0  0  0  0  0  0  0  0  0  0  0  0
   58.4560   33.4410   44.6300 C   0  0  0  0  0  0  0  0  0  0  0  0
   58.5250   32.3920   45.5480 C   0  0  0  0  0  0  0  0  0  0  0  0
   59.1880   32.5590   46.7710 C   0  0  0  0  0  0  0  0  0  0  0  0
   59.2700   31.4360   47.6540 N   0  0  0  0  0  0  0  0  0  0  0  0
   60.2210   30.0260   47.3160 S   0  0  0  0  0  0  0  0  0  0  0  0
   60.6950   29.4200   48.6070 O   0  0  0  0  0  0  0  0  0  0  0  0
   61.4070   30.3870   46.4670 O   0  0  0  0  0  0  0  0  0  0  0  0
   59.2340   28.8720   46.4430 C   0  0  0  0  0  0  0  0  0  0  0  0
   59.2770   28.6350   45.0770 C   0  0  0  0  0  0  0  0  0  0  0  0
   58.3610   27.6600   44.6630 C   0  0  0  0  0  0  0  0  0  0  0  0
   57.5980   27.1350   45.7040 C   0  0  0  0  0  0  0  0  0  0  0  0
   56.5580   26.0950   45.5650 C   0  0  0  0  0  0  0  0  0  0  0  0
   56.8410   24.8450   44.9980 C   0  0  0  0  0  0  0  0  0  0  0  0
   55.8230   23.8990   44.8890 C   0  0  0  0  0  0  0  0  0  0  0  0
   54.5460   24.2190   45.3470 C   0  0  0  0  0  0  0  0  0  0  0  0
   53.6090   23.3850   45.2600 O   0  0  0  0  0  0  0  0  0  0  0  0
   54.3180   25.4430   45.8890 N   0  0  0  0  0  0  0  0  0  0  0  0
   55.2920   26.3500   45.9940 N   0  0  0  0  0  0  0  0  0  0  0  0
   58.0670   27.8870   47.1410 S   0  0  0  0  0  0  0  0  0  0  0  0
   62.3550   32.6010   48.0460 C   0  0  0  0  0  0  0  0  0  0  0  0
   63.0730   31.6630   49.0210 C   0  0  0  0  0  0  0  0  0  0  0  0
   67.8433   34.3328   51.0039 H   0  0  0  0  0  0  0  0  0  0  0  0
   68.2684   32.9996   49.8776 H   0  0  0  0  0  0  0  0  0  0  0  0
   66.6058   33.6796   49.8776 H   0  0  0  0  0  0  0  0  0  0  0  0
   67.3847   31.4027   51.2417 H   0  0  0  0  0  0  0  0  0  0  0  0
   67.5191   32.6718   52.5179 H   0  0  0  0  0  0  0  0  0  0  0  0
   64.1817   34.2261   51.0277 H   0  0  0  0  0  0  0  0  0  0  0  0
   64.3912   34.2875   49.2389 H   0  0  0  0  0  0  0  0  0  0  0  0
   61.7911   34.1187   50.8316 H   0  0  0  0  0  0  0  0  0  0  0  0
   62.3498   35.4215   49.6982 H   0  0  0  0  0  0  0  0  0  0  0  0
   60.1137   35.8437   46.3991 H   0  0  0  0  0  0  0  0  0  0  0  0
   58.9916   35.4961   44.2035 H   0  0  0  0  0  0  0  0  0  0  0  0
   57.9443   33.2960   43.6671 H   0  0  0  0  0  0  0  0  0  0  0  0
   58.0551   31.4264   45.3095 H   0  0  0  0  0  0  0  0  0  0  0  0
   59.9592   29.1581   44.3908 H   0  0  0  0  0  0  0  0  0  0  0  0
   58.2541   27.3393   43.6162 H   0  0  0  0  0  0  0  0  0  0  0  0
   57.8558   24.6128   44.6427 H   0  0  0  0  0  0  0  0  0  0  0  0
   56.0249   22.9122   44.4470 H   0  0  0  0  0  0  0  0  0  0  0  0
   61.6182   32.0263   47.4656 H   0  0  0  0  0  0  0  0  0  0  0  0
   63.0973   33.0521   47.3711 H   0  0  0  0  0  0  0  0  0  0  0  0
   62.3231   31.0521   49.5450 H   0  0  0  0  0  0  0  0  0  0  0  0
   63.7631   31.0313   48.4424 H   0  0  0  0  0  0  0  0  0  0  0  0
  1  2  1  0
  2  3  1  0
  3  4  1  0
  4  5  2  0
  4  6  1  0
  6  7  1  0
  7  8  1  0
  8  9  1  0
  9 10  1  0
 10 11  2  0
 10 12  1  0
 12 13  2  0
 13 14  1  0
 14 15  2  0
 15 16  1  0
 16 17  2  0
 17 18  1  0
 18 19  1  0
 19 20  2  0
 19 21  2  0
 19 22  1  0
 22 23  2  0
 23 24  1  0
 24 25  2  0
 25 26  1  0
 26 27  1  0
 27 28  2  0
 28 29  1  0
 29 30  2  0
 29 31  1  0
 31 32  1  0
 25 33  1  0
  9 34  1  0
 34 35  1  0
 35  6  1  0
 17 12  1  0
 33 22  1  0
 32 26  2  0
  1 36  1  0
  1 37  1  0
  1 38  1  0
  2 39  1  0
  2 40  1  0
  7 41  1  0
  7 42  1  0
  8 43  1  0
  8 44  1  0
 13 45  1  0
 14 46  1  0
 15 47  1  0
 16 48  1  0
 23 49  1  0
 24 50  1  0
 27 51  1  0
 28 52  1  0
 34 53  1  0
 34 54  1  0
 35 55  1  0
 35 56  1  0
M  CHG  2  18  -1  31  -1
M  END
>  <UniqueID>  (68) 
64

>  <SMILES>  (68) 
CCOC(=O)N1CCN(C(=O)c2ccccc2[N-]S(=O)(=O)c2ccc(-c3ccc(=O)[n-]n3)s2)CC1

>  <Energy>  (68) 
97.06927582041192

>  <Genealogy>  (68) 
CCOC(=O)N1CCN(C(=O)c2ccccc2[N-]S(=O)(=O)c2ccc(-c3ccc(=O)[n-]n3)s2)CC1 (protonated)
CCOC(=O)N1CCN(C(=O)c2ccccc2[N-]S(=O)(=O)c2ccc(-c3ccc(=O)[n-]n3)s2)CC1 (3D coordinates assigned)
CCOC(=O)N1CCN(C(=O)c2ccccc2[N-]S(=O)(=O)c2ccc(-c3ccc(=O)[n-]n3)s2)CC1 (nonaromatic ring conformer: 97.06927582041192 kcal/mol)

>  <smiles>  (68) 
CCOC(=O)N1CCN(C(=O)c2ccccc2NS(=O)(=O)c2ccc(-c3ccc(=O)[nH]n3)s2)CC1

>  <score_type>  (68) 
oracle

>  <origin>  (68) 
adg

>  <m_score__min__energy>  (68) 
-13.199999999999999

>  <m_primary>  (68) 
energy

$$$$
68:0
     RDKit          3D

 49 52  0  0  0  0  0  0  0  0999 V2000
   61.1587   27.7407   48.0236 H   0  0  0  0  0  0  0  0  0  0  0  0
   60.7740   26.9120   47.4110 C   0  0  0  0  0  0  0  0  0  0  0  0
   61.3315   25.9655   47.3536 H   0  0  0  0  0  0  0  0  0  0  0  0
   59.6300   27.0550   46.7370 C   0  0  0  0  0  0  0  0  0  0  0  0
   58.8460   28.1980   46.6590 C   0  0  0  0  0  0  0  0  0  0  0  0
   59.0890   29.4880   47.3420 C   0  0  0  0  0  0  0  0  0  0  0  0
   58.5010   29.7360   48.4290 O   0  0  0  0  0  0  0  0  0  0  0  0
   60.0290   30.4270   46.7990 N   0  0  0  0  0  0  0  0  0  0  0  0
   60.7550   30.0610   46.1410 H   0  0  0  0  0  0  0  0  0  0  0  0
   60.1060   31.8070   47.1950 C   0  0  0  0  0  0  0  0  0  0  0  0
   58.9230   32.5150   47.4580 C   0  0  0  0  0  0  0  0  0  0  0  0
   57.9498   32.0158   47.3411 H   0  0  0  0  0  0  0  0  0  0  0  0
   58.9740   33.8520   47.8680 C   0  0  0  0  0  0  0  0  0  0  0  0
   58.0422   34.4034   48.0621 H   0  0  0  0  0  0  0  0  0  0  0  0
   60.2080   34.4870   48.0310 C   0  0  0  0  0  0  0  0  0  0  0  0
   60.2473   35.5400   48.3468 H   0  0  0  0  0  0  0  0  0  0  0  0
   61.3910   33.7850   47.7930 C   0  0  0  0  0  0  0  0  0  0  0  0
   62.3618   34.2843   47.9281 H   0  0  0  0  0  0  0  0  0  0  0  0
   61.3450   32.4480   47.3830 C   0  0  0  0  0  0  0  0  0  0  0  0
   62.2801   31.8961   47.2070 H   0  0  0  0  0  0  0  0  0  0  0  0
   57.7930   27.8980   45.7940 C   0  0  0  0  0  0  0  0  0  0  0  0
   56.6710   28.8470   45.4350 C   0  0  0  0  0  0  0  0  0  0  0  0
   55.8605   28.2669   44.9695 H   0  0  0  0  0  0  0  0  0  0  0  0
   56.3530   29.3374   46.3669 H   0  0  0  0  0  0  0  0  0  0  0  0
   57.0860   29.9410   44.4780 C   0  0  0  0  0  0  0  0  0  0  0  0
   57.8180   31.0660   44.9070 C   0  0  0  0  0  0  0  0  0  0  0  0
   58.1260   31.1493   45.9597 H   0  0  0  0  0  0  0  0  0  0  0  0
   58.1550   32.0770   44.0020 C   0  0  0  0  0  0  0  0  0  0  0  0
   58.7416   32.9438   44.3404 H   0  0  0  0  0  0  0  0  0  0  0  0
   57.7480   31.9880   42.6690 C   0  0  0  0  0  0  0  0  0  0  0  0
   58.0227   32.7791   41.9558 H   0  0  0  0  0  0  0  0  0  0  0  0
   56.9920   30.8940   42.2420 C   0  0  0  0  0  0  0  0  0  0  0  0
   56.6634   30.8291   41.1942 H   0  0  0  0  0  0  0  0  0  0  0  0
   56.6520   29.8810   43.1440 C   0  0  0  0  0  0  0  0  0  0  0  0
   56.0404   29.0314   42.8062 H   0  0  0  0  0  0  0  0  0  0  0  0
   57.9970   26.5700   45.3800 C   0  0  0  0  0  0  0  0  0  0  0  0
   57.2800   25.8200   44.5210 C   0  0  0  0  0  0  0  0  0  0  0  0
   57.5404   25.8932   43.4548 H   0  0  0  0  0  0  0  0  0  0  0  0
   56.1790   24.9110   44.8810 C   0  0  0  0  0  0  0  0  0  0  0  0
   55.0580   25.3960   45.5700 C   0  0  0  0  0  0  0  0  0  0  0  0
   55.0110   26.7150   46.0080 O   0  0  0  0  0  0  0  0  0  0  0  0
   54.0080   24.5730   45.8220 N   0  0  0  0  0  0  0  0  0  0  0  0
   54.0140   23.2820   45.3990 C   0  0  0  0  0  0  0  0  0  0  0  0
   53.0350   22.5340   45.6520 O   0  0  0  0  0  0  0  0  0  0  0  0
   55.0730   22.8000   44.6990 N   0  0  0  0  0  0  0  0  0  0  0  0
   56.1450   23.5860   44.4200 C   0  0  0  0  0  0  0  0  0  0  0  0
   57.1020   23.1150   43.7480 O   0  0  0  0  0  0  0  0  0  0  0  0
   59.1070   26.0800   45.9710 N   0  0  0  0  0  0  0  0  0  0  0  0
   59.5080   25.1230   45.8370 H   0  0  0  0  0  0  0  0  0  0  0  0
  1  2  1  0
  2  3  1  0
  2  4  2  0
  4  5  1  0
  5  6  1  0
  6  7  2  0
  6  8  1  0
  8  9  1  0
  8 10  1  0
 10 11  2  0
 11 12  1  0
 11 13  1  0
 13 14  1  0
 13 15  2  0
 15 16  1  0
 15 17  1  0
 17 18  1  0
 17 19  2  0
 19 20  1  0
  5 21  2  0
 21 22  1  0
 22 23  1  0
 22 24  1  0
 22 25  1  0
 25 26  2  0
 26 27  1  0
 26 28  1  0
 28 29  1  0
 28 30  2  0
 30 31  1  0
 30 32  1  0
 32 33  1  0
 32 34  2  0
 34 35  1  0
 21 36  1  0
 36 37  2  0
 37 38  1  0
 37 39  1  0
 39 40  2  0
 40 41  1  0
 40 42  1  0
 42 43  1  0
 43 44  2  0
 43 45  1  0
 45 46  1  0
 46 47  2  0
 36 48  1  0
 48 49  1  0
 48  4  1  0
 19 10  1  0
 34 25  1  0
 46 39  1  0
M  CHG  3  41  -1  42  -1  45  -1
M  END
>  <UniqueID>  (69) 
65

>  <SMILES>  (69) 
C=c1[nH]/c(=C/c2c([O-])[n-]c(=O)[n-]c2=O)c(Cc2ccccc2)c1C(=O)Nc1ccccc1

>  <Energy>  (69) 
100.2333973983386

>  <Genealogy>  (69) 
C=c1[nH]c(=Cc2c([O-])[n-]c(=O)[n-]c2=O)c(Cc2ccccc2)c1C(=O)Nc1ccccc1 (protonated)
C=c1[nH]/c(=C/c2c([O-])[n-]c(=O)[n-]c2=O)c(Cc2ccccc2)c1C(=O)Nc1ccccc1 (cis-trans isomerization)
C=c1[nH]/c(=C/c2c([O-])[n-]c(=O)[n-]c2=O)c(Cc2ccccc2)c1C(=O)Nc1ccccc1 (3D coordinates assigned)
C=c1[nH]/c(=C/c2c([O-])[n-]c(=O)[n-]c2=O)c(Cc2ccccc2)c1C(=O)Nc1ccccc1 (optimized conformer: 100.2333973983386 kcal/mol)

>  <smiles>  (69) 
C=c1[nH]c(=Cc2c(O)[nH]c(=O)[nH]c2=O)c(Cc2ccccc2)c1C(=O)Nc1ccccc1

>  <score_type>  (69) 
oracle

>  <origin>  (69) 
adg

>  <m_score__min__energy>  (69) 
-16.449999999999999

>  <m_primary>  (69) 
energy

$$$$
69:0
     RDKit          3D

 40 41  0  0  0  0  0  0  0  0999 V2000
   57.2425   32.0830   40.8924 H   0  0  0  0  0  0  0  0  0  0  0  0
   57.3850   31.9020   41.9680 C   0  0  0  0  0  0  0  0  0  0  0  0
   58.1540   32.7860   42.7260 C   0  0  0  0  0  0  0  0  0  0  0  0
   58.6216   33.6565   42.2427 H   0  0  0  0  0  0  0  0  0  0  0  0
   58.3340   32.5720   44.0970 C   0  0  0  0  0  0  0  0  0  0  0  0
   59.1220   33.4830   44.8150 O   0  0  0  0  0  0  0  0  0  0  0  0
   58.8930   33.8820   46.1410 C   0  0  0  0  0  0  0  0  0  0  0  0
   57.8910   34.5940   46.4250 O   0  0  0  0  0  0  0  0  0  0  0  0
   59.9180   33.5700   47.2140 C   0  0  0  0  0  0  0  0  0  0  0  0
   61.3250   33.8450   46.6540 C   0  0  0  0  0  0  0  0  0  0  0  0
   62.0305   33.9829   47.4866 H   0  0  0  0  0  0  0  0  0  0  0  0
   61.6473   32.9929   46.0376 H   0  0  0  0  0  0  0  0  0  0  0  0
   61.3027   34.7558   46.0376 H   0  0  0  0  0  0  0  0  0  0  0  0
   59.6700   34.4610   48.4470 C   0  0  0  0  0  0  0  0  0  0  0  0
   59.8335   33.8737   49.3626 H   0  0  0  0  0  0  0  0  0  0  0  0
   60.3650   35.3134   48.4292 H   0  0  0  0  0  0  0  0  0  0  0  0
   58.6345   34.8318   48.4292 H   0  0  0  0  0  0  0  0  0  0  0  0
   59.8180   32.0910   47.6410 C   0  0  0  0  0  0  0  0  0  0  0  0
   59.8136   32.0259   48.7391 H   0  0  0  0  0  0  0  0  0  0  0  0
   58.8885   31.6568   47.2442 H   0  0  0  0  0  0  0  0  0  0  0  0
   60.6806   31.5357   47.2442 H   0  0  0  0  0  0  0  0  0  0  0  0
   57.7580   31.4380   44.6980 C   0  0  0  0  0  0  0  0  0  0  0  0
   57.9186   31.2493   45.7697 H   0  0  0  0  0  0  0  0  0  0  0  0
   56.9780   30.5420   43.9420 C   0  0  0  0  0  0  0  0  0  0  0  0
   56.3700   29.3500   44.5810 C   0  0  0  0  0  0  0  0  0  0  0  0
   55.2270   29.4330   45.1090 O   0  0  0  0  0  0  0  0  0  0  0  0
   57.0260   28.0760   44.4970 N   0  0  0  0  0  0  0  0  0  0  0  0
   57.3090   27.2260   45.4510 C   0  0  0  0  0  0  0  0  0  0  0  0
   56.3250   26.5040   46.1760 C   0  0  0  0  0  0  0  0  0  0  0  0
   54.9620   26.7080   45.9940 O   0  0  0  0  0  0  0  0  0  0  0  0
   56.7310   25.5900   47.1520 C   0  0  0  0  0  0  0  0  0  0  0  0
   55.9791   25.0027   47.6995 H   0  0  0  0  0  0  0  0  0  0  0  0
   58.0840   25.4200   47.4340 C   0  0  0  0  0  0  0  0  0  0  0  0
   58.4067   24.6954   48.1961 H   0  0  0  0  0  0  0  0  0  0  0  0
   59.0240   26.1780   46.7400 C   0  0  0  0  0  0  0  0  0  0  0  0
   60.0944   26.0645   46.9667 H   0  0  0  0  0  0  0  0  0  0  0  0
   58.6240   27.0580   45.7830 N   0  0  0  0  0  0  0  0  0  0  0  0
   59.3580   27.6040   45.2790 H   0  0  0  0  0  0  0  0  0  0  0  0
   56.7960   30.7890   42.5700 C   0  0  0  0  0  0  0  0  0  0  0  0
   56.1855   30.1007   41.9671 H   0  0  0  0  0  0  0  0  0  0  0  0
  1  2  1  0
  2  3  2  0
  3  4  1  0
  3  5  1  0
  5  6  1  0
  6  7  1  0
  7  8  2  0
  7  9  1  0
  9 10  1  0
 10 11  1  0
 10 12  1  0
 10 13  1  0
  9 14  1  0
 14 15  1  0
 14 16  1  0
 14 17  1  0
  9 18  1  0
 18 19  1  0
 18 20  1  0
 18 21  1  0
  5 22  2  0
 22 23  1  0
 22 24  1  0
 24 25  1  0
 25 26  2  0
 25 27  1  0
 27 28  2  0
 28 29  1  0
 29 30  1  0
 29 31  2  0
 31 32  1  0
 31 33  1  0
 33 34  1  0
 33 35  2  0
 35 36  1  0
 35 37  1  0
 37 38  1  0
 24 39  2  0
 39 40  1  0
 39  2  1  0
 37 28  1  0
M  CHG  1  30  -1
M  END
>  <UniqueID>  (70) 
66

>  <SMILES>  (70) 
CC(C)(C)C(=O)Oc1cccc(C(=O)/N=c2/[nH]cccc2[O-])c1

>  <Energy>  (70) 
53.56948293551112

>  <Genealogy>  (70) 
CC(C)(C)C(=O)Oc1cccc(C(=O)N=c2[nH]cccc2[O-])c1 (protonated)
CC(C)(C)C(=O)Oc1cccc(C(=O)/N=c2/[nH]cccc2[O-])c1 (cis-trans isomerization)
CC(C)(C)C(=O)Oc1cccc(C(=O)/N=c2/[nH]cccc2[O-])c1 (3D coordinates assigned)
CC(C)(C)C(=O)Oc1cccc(C(=O)/N=c2/[nH]cccc2[O-])c1 (optimized conformer: 53.56948293551112 kcal/mol)

>  <smiles>  (70) 
CC(C)(C)C(=O)Oc1cccc(C(=O)N=c2[nH]cccc2O)c1

>  <score_type>  (70) 
oracle

>  <origin>  (70) 
adg

>  <m_score__min__energy>  (70) 
-11.66

>  <m_primary>  (70) 
energy

$$$$
70:0
     RDKit          3D

 62 66  0  0  0  0  0  0  0  0999 V2000
   65.2316   33.6699   47.8713 H   0  0  0  0  0  0  0  0  0  0  0  0
   64.2020   33.3210   48.0390 C   0  0  0  0  0  0  0  0  0  0  0  0
   63.9620   32.2290   48.8930 C   0  0  0  0  0  0  0  0  0  0  0  0
   64.8072   31.7140   49.3730 H   0  0  0  0  0  0  0  0  0  0  0  0
   62.6500   31.7930   49.1360 C   0  0  0  0  0  0  0  0  0  0  0  0
   62.4623   30.9130   49.7687 H   0  0  0  0  0  0  0  0  0  0  0  0
   61.5840   32.4950   48.5610 C   0  0  0  0  0  0  0  0  0  0  0  0
   61.8370   33.5280   47.6740 C   0  0  0  0  0  0  0  0  0  0  0  0
   63.1330   33.9660   47.4010 C   0  0  0  0  0  0  0  0  0  0  0  0
   63.3118   34.7968   46.7025 H   0  0  0  0  0  0  0  0  0  0  0  0
   60.5990   33.8790   47.0200 C   0  0  0  0  0  0  0  0  0  0  0  0
   60.3660   34.8000   45.9990 C   0  0  0  0  0  0  0  0  0  0  0  0
   61.1786   35.4355   45.6171 H   0  0  0  0  0  0  0  0  0  0  0  0
   59.0700   34.8960   45.4710 C   0  0  0  0  0  0  0  0  0  0  0  0
   58.8542   35.6340   44.6844 H   0  0  0  0  0  0  0  0  0  0  0  0
   58.0400   34.0520   45.9420 C   0  0  0  0  0  0  0  0  0  0  0  0
   56.6530   34.1850   45.3880 C   0  0  0  0  0  0  0  0  0  0  0  0
   55.9324   34.2541   46.2162 H   0  0  0  0  0  0  0  0  0  0  0  0
   56.5903   35.0933   44.7707 H   0  0  0  0  0  0  0  0  0  0  0  0
   56.4188   33.3052   44.7707 H   0  0  0  0  0  0  0  0  0  0  0  0
   58.3060   33.1290   46.9750 C   0  0  0  0  0  0  0  0  0  0  0  0
   57.5086   32.4753   47.3581 H   0  0  0  0  0  0  0  0  0  0  0  0
   59.5980   33.0570   47.5050 C   0  0  0  0  0  0  0  0  0  0  0  0
   60.1030   32.1590   48.6250 C   0  0  2  0  0  0  0  0  0  0  0  0
   59.9084   31.0799   48.5373 H   0  0  0  0  0  0  0  0  0  0  0  0
   59.4140   32.4920   49.9260 N   0  0  0  0  0  0  0  0  0  0  0  0
   59.1430   33.5050   49.8940 H   0  0  0  0  0  0  0  0  0  0  0  0
   58.1410   31.7530   50.0850 C   0  0  0  0  0  0  0  0  0  0  0  0
   57.5173   31.9269   49.1957 H   0  0  0  0  0  0  0  0  0  0  0  0
   57.6496   32.1208   50.9978 H   0  0  0  0  0  0  0  0  0  0  0  0
   58.3620   30.2400   50.2460 C   0  0  0  0  0  0  0  0  0  0  0  0
   58.3277   29.7676   49.2532 H   0  0  0  0  0  0  0  0  0  0  0  0
   57.5691   29.8464   50.8990 H   0  0  0  0  0  0  0  0  0  0  0  0
   59.6570   29.9410   50.8700 N   0  0  0  0  0  0  0  0  0  0  0  0
   60.1690   28.5930   50.8110 C   0  0  0  0  0  0  0  0  0  0  0  0
   60.0170   27.9130   49.7080 N   0  0  0  0  0  0  0  0  0  0  0  0
   59.8130   28.4380   48.3880 C   0  0  0  0  0  0  0  0  0  0  0  0
   60.7700   29.2680   47.7810 C   0  0  0  0  0  0  0  0  0  0  0  0
   61.6812   29.5478   48.3301 H   0  0  0  0  0  0  0  0  0  0  0  0
   60.5670   29.7390   46.4810 C   0  0  0  0  0  0  0  0  0  0  0  0
   61.3139   30.3968   46.0126 H   0  0  0  0  0  0  0  0  0  0  0  0
   59.4170   29.3760   45.7750 C   0  0  0  0  0  0  0  0  0  0  0  0
   59.2612   29.7490   44.7520 H   0  0  0  0  0  0  0  0  0  0  0  0
   58.4600   28.5370   46.3670 C   0  0  0  0  0  0  0  0  0  0  0  0
   57.2490   28.1100   45.5920 C   0  0  0  0  0  0  0  0  0  0  0  0
   56.4476   27.8274   46.2904 H   0  0  0  0  0  0  0  0  0  0  0  0
   56.9070   28.9417   44.9586 H   0  0  0  0  0  0  0  0  0  0  0  0
   57.5043   27.2477   44.9586 H   0  0  0  0  0  0  0  0  0  0  0  0
   58.6790   28.0470   47.6650 C   0  0  0  0  0  0  0  0  0  0  0  0
   57.9556   27.3521   48.1164 H   0  0  0  0  0  0  0  0  0  0  0  0
   60.9010   28.0390   51.9780 C   0  0  0  0  0  0  0  0  0  0  0  0
   60.2500   27.6090   52.9660 O   0  0  0  0  0  0  0  0  0  0  0  0
   62.3980   28.0230   52.0310 C   0  0  0  0  0  0  0  0  0  0  0  0
   62.7277   28.0195   53.0804 H   0  0  0  0  0  0  0  0  0  0  0  0
   62.7732   27.1208   51.5257 H   0  0  0  0  0  0  0  0  0  0  0  0
   62.7924   28.9170   51.5257 H   0  0  0  0  0  0  0  0  0  0  0  0
   60.2890   30.9370   51.7480 C   0  0  0  0  0  0  0  0  0  0  0  0
   61.3469   30.6672   51.8825 H   0  0  0  0  0  0  0  0  0  0  0  0
   59.7441   30.9320   52.7035 H   0  0  0  0  0  0  0  0  0  0  0  0
   60.2130   32.3690   51.1740 C   0  0  0  0  0  0  0  0  0  0  0  0
   61.2374   32.7084   50.9608 H   0  0  0  0  0  0  0  0  0  0  0  0
   59.7051   32.9832   51.9322 H   0  0  0  0  0  0  0  0  0  0  0  0
  1  2  1  0
  2  3  2  0
  3  4  1  0
  3  5  1  0
  5  6  1  0
  5  7  2  0
  7  8  1  0
  8  9  2  0
  9 10  1  0
  8 11  1  0
 11 12  2  0
 12 13  1  0
 12 14  1  0
 14 15  1  0
 14 16  2  0
 16 17  1  0
 17 18  1  0
 17 19  1  0
 17 20  1  0
 16 21  1  0
 21 22  1  0
 21 23  2  0
 23 24  1  0
 24 25  1  6
 24 26  1  0
 26 27  1  0
 26 28  1  0
 28 29  1  0
 28 30  1  0
 28 31  1  0
 31 32  1  0
 31 33  1  0
 31 34  1  0
 34 35  1  0
 35 36  2  0
 36 37  1  0
 37 38  2  0
 38 39  1  0
 38 40  1  0
 40 41  1  0
 40 42  2  0
 42 43  1  0
 42 44  1  0
 44 45  1  0
 45 46  1  0
 45 47  1  0
 45 48  1  0
 44 49  2  0
 49 50  1  0
 35 51  1  0
 51 52  2  0
 51 53  1  0
 53 54  1  0
 53 55  1  0
 53 56  1  0
 34 57  1  0
 57 58  1  0
 57 59  1  0
 57 60  1  0
 60 61  1  0
 60 62  1  0
  9  2  1  0
 23 11  1  0
 60 26  1  0
 24  7  1  0
 49 37  1  0
M  CHG  1  26   1
M  END
>  <UniqueID>  (71) 
67

>  <SMILES>  (71) 
CC(=O)/C(=N\c1cccc(C)c1)N1CC[NH+]([C@@H]2c3ccccc3-c3ccc(C)cc32)CC1

>  <Energy>  (71) 
118.97545963971018

>  <Genealogy>  (71) 
CC(=O)C(=Nc1cccc(C)c1)N1CC[NH+](C2c3ccccc3-c3ccc(C)cc32)CC1 (protonated)
CC(=O)C(=Nc1cccc(C)c1)N1CC[NH+]([C@@H]2c3ccccc3-c3ccc(C)cc32)CC1 (chirality)
CC(=O)/C(=N\c1cccc(C)c1)N1CC[NH+]([C@@H]2c3ccccc3-c3ccc(C)cc32)CC1 (cis-trans isomerization)
CC(=O)/C(=N\c1cccc(C)c1)N1CC[NH+]([C@@H]2c3ccccc3-c3ccc(C)cc32)CC1 (3D coordinates assigned)
CC(=O)/C(=N\c1cccc(C)c1)N1CC[NH+]([C@@H]2c3ccccc3-c3ccc(C)cc32)CC1 (nonaromatic ring conformer: 118.97545963971018 kcal/mol)

>  <smiles>  (71) 
CC(=O)C(=Nc1cccc(C)c1)N1CCN(C2c3ccccc3-c3ccc(C)cc32)CC1

>  <score_type>  (71) 
oracle

>  <origin>  (71) 
adg

>  <m_score__min__energy>  (71) 
-7.9100000000000001

>  <m_primary>  (71) 
energy

$$$$
71:0
     RDKit          3D

 51 54  0  0  0  0  0  0  0  0999 V2000
   60.7233   28.9606   48.4664 H   0  0  0  0  0  0  0  0  0  0  0  0
   60.0140   29.0230   47.6280 C   0  0  0  0  0  0  0  0  0  0  0  0
   59.6702   28.1050   47.1289 H   0  0  0  0  0  0  0  0  0  0  0  0
   59.5670   30.2220   47.2130 C   0  0  0  0  0  0  0  0  0  0  0  0
   58.6650   30.4570   46.1620 C   0  0  0  0  0  0  0  0  0  0  0  0
   58.1710   29.6360   45.2150 C   0  0  0  0  0  0  0  0  0  0  0  0
   58.3226   29.9321   44.1665 H   0  0  0  0  0  0  0  0  0  0  0  0
   57.4470   28.3790   45.4580 C   0  0  0  0  0  0  0  0  0  0  0  0
   58.0140   27.2910   46.0300 N   0  0  0  0  0  0  0  0  0  0  0  0
   56.9800   26.4330   46.1810 C   0  0  0  0  0  0  0  0  0  0  0  0
   57.1040   25.2850   46.6840 O   0  0  0  0  0  0  0  0  0  0  0  0
   55.8080   26.9350   45.7580 N   0  0  0  0  0  0  0  0  0  0  0  0
   54.5720   26.3370   45.8270 O   0  0  0  0  0  0  0  0  0  0  0  0
   56.0880   28.1670   45.3230 C   0  0  0  0  0  0  0  0  0  0  0  0
   55.1430   29.0740   44.8570 O   0  0  0  0  0  0  0  0  0  0  0  0
   58.3220   31.7940   46.2380 C   0  0  0  0  0  0  0  0  0  0  0  0
   57.5944   32.3201   45.6026 H   0  0  0  0  0  0  0  0  0  0  0  0
   59.0640   32.3420   47.2600 C   0  0  0  0  0  0  0  0  0  0  0  0
   58.9690   33.7740   47.6950 C   0  0  0  0  0  0  0  0  0  0  0  0
   58.9657   33.8240   48.7939 H   0  0  0  0  0  0  0  0  0  0  0  0
   59.8320   34.3337   47.3051 H   0  0  0  0  0  0  0  0  0  0  0  0
   58.0396   34.2148   47.3051 H   0  0  0  0  0  0  0  0  0  0  0  0
   59.8270   31.3940   47.8570 N   0  0  0  0  0  0  0  0  0  0  0  0
   60.6910   31.6210   49.0300 C   0  0  0  0  0  0  0  0  0  0  0  0
   60.1742   32.2892   49.7346 H   0  0  0  0  0  0  0  0  0  0  0  0
   60.9014   30.6518   49.5057 H   0  0  0  0  0  0  0  0  0  0  0  0
   61.9970   32.2510   48.6190 C   0  0  0  0  0  0  0  0  0  0  0  0
   62.1660   32.7540   47.3190 C   0  0  0  0  0  0  0  0  0  0  0  0
   61.3419   32.6838   46.5937 H   0  0  0  0  0  0  0  0  0  0  0  0
   63.3750   33.3430   46.9420 C   0  0  0  0  0  0  0  0  0  0  0  0
   63.5010   33.7308   45.9204 H   0  0  0  0  0  0  0  0  0  0  0  0
   64.4240   33.4410   47.8580 C   0  0  0  0  0  0  0  0  0  0  0  0
   65.3764   33.8995   47.5535 H   0  0  0  0  0  0  0  0  0  0  0  0
   64.2680   32.9570   49.1650 C   0  0  0  0  0  0  0  0  0  0  0  0
   65.3760   33.0470   50.1390 C   0  0  0  0  0  0  0  0  0  0  0  0
   66.3130   32.2060   50.0730 O   0  0  0  0  0  0  0  0  0  0  0  0
   65.3960   34.0520   51.1690 N   0  0  0  0  0  0  0  0  0  0  0  0
   64.2060   34.7100   51.6850 C   0  0  0  0  0  0  0  0  0  0  0  0
   63.8694   35.4943   50.9910 H   0  0  0  0  0  0  0  0  0  0  0  0
   63.3700   34.0050   51.8034 H   0  0  0  0  0  0  0  0  0  0  0  0
   64.6210   35.3210   53.0170 C   0  0  0  0  0  0  0  0  0  0  0  0
   64.2069   36.3349   53.1197 H   0  0  0  0  0  0  0  0  0  0  0  0
   64.2474   34.7325   53.8680 H   0  0  0  0  0  0  0  0  0  0  0  0
   66.1460   35.3690   52.9910 C   0  0  0  0  0  0  0  0  0  0  0  0
   66.4935   36.3643   52.6768 H   0  0  0  0  0  0  0  0  0  0  0  0
   66.5761   35.1770   53.9851 H   0  0  0  0  0  0  0  0  0  0  0  0
   66.5720   34.3140   51.9800 C   0  0  0  0  0  0  0  0  0  0  0  0
   67.3937   34.6920   51.3539 H   0  0  0  0  0  0  0  0  0  0  0  0
   66.9371   33.4014   52.4738 H   0  0  0  0  0  0  0  0  0  0  0  0
   63.0600   32.3450   49.5340 C   0  0  0  0  0  0  0  0  0  0  0  0
   62.9440   31.9353   50.5482 H   0  0  0  0  0  0  0  0  0  0  0  0
  1  2  1  0
  2  3  1  0
  2  4  2  0
  4  5  1  0
  5  6  2  0
  6  7  1  0
  6  8  1  0
  8  9  1  0
  9 10  1  0
 10 11  2  0
 10 12  1  0
 12 13  1  0
 12 14  1  0
 14 15  1  0
  5 16  1  0
 16 17  1  0
 16 18  2  0
 18 19  1  0
 19 20  1  0
 19 21  1  0
 19 22  1  0
 18 23  1  0
 23 24  1  0
 24 25  1  0
 24 26  1  0
 24 27  1  0
 27 28  2  0
 28 29  1  0
 28 30  1  0
 30 31  1  0
 30 32  2  0
 32 33  1  0
 32 34  1  0
 34 35  1  0
 35 36  2  0
 35 37  1  0
 37 38  1  0
 38 39  1  0
 38 40  1  0
 38 41  1  0
 41 42  1  0
 41 43  1  0
 41 44  1  0
 44 45  1  0
 44 46  1  0
 44 47  1  0
 47 48  1  0
 47 49  1  0
 34 50  2  0
 50 51  1  0
 23  4  1  0
 50 27  1  0
 14  8  2  0
 47 37  1  0
M  CHG  3   9  -1  13  -1  15  -1
M  END
>  <UniqueID>  (72) 
68

>  <SMILES>  (72) 
C=c1/c(=C\c2[n-]c(=O)n([O-])c2[O-])cc(C)n1Cc1cccc(C(=O)N2CCCC2)c1

>  <Energy>  (72) 
131.43943894712

>  <Genealogy>  (72) 
C=c1c(=Cc2[n-]c(=O)n([O-])c2[O-])cc(C)n1Cc1cccc(C(=O)N2CCCC2)c1 (protonated)
C=c1/c(=C\c2[n-]c(=O)n([O-])c2[O-])cc(C)n1Cc1cccc(C(=O)N2CCCC2)c1 (cis-trans isomerization)
C=c1/c(=C\c2[n-]c(=O)n([O-])c2[O-])cc(C)n1Cc1cccc(C(=O)N2CCCC2)c1 (3D coordinates assigned)
C=c1/c(=C\c2[n-]c(=O)n([O-])c2[O-])cc(C)n1Cc1cccc(C(=O)N2CCCC2)c1 (nonaromatic ring conformer: 131.43943894712 kcal/mol)

>  <smiles>  (72) 
C=c1c(=Cc2[nH]c(=O)n(O)c2O)cc(C)n1Cc1cccc(C(=O)N2CCCC2)c1

>  <score_type>  (72) 
oracle

>  <origin>  (72) 
adg

>  <m_score__min__energy>  (72) 
-19.010000000000002

>  <m_primary>  (72) 
energy

$$$$
72:0
     RDKit          3D

 53 56  0  0  0  0  0  0  0  0999 V2000
   54.6746   28.7524   55.2825 H   0  0  0  0  0  0  0  0  0  0  0  0
   54.0180   29.1900   54.5160 C   0  0  0  0  0  0  0  0  0  0  0  0
   52.9281   29.0582   54.5851 H   0  0  0  0  0  0  0  0  0  0  0  0
   54.5470   29.8850   53.4960 C   0  0  0  0  0  0  0  0  0  0  0  0
   53.8340   30.4930   52.4560 C   0  0  0  0  0  0  0  0  0  0  0  0
   52.5070   30.4360   52.2330 C   0  0  0  0  0  0  0  0  0  0  0  0
   51.8647   30.0402   53.0335 H   0  0  0  0  0  0  0  0  0  0  0  0
   51.8640   30.8720   50.9810 C   0  0  0  0  0  0  0  0  0  0  0  0
   51.7510   30.0860   49.8960 N   0  0  0  0  0  0  0  0  0  0  0  0
   51.0490   30.8440   49.0290 C   0  0  0  0  0  0  0  0  0  0  0  0
   50.7480   30.4500   47.8710 O   0  0  0  0  0  0  0  0  0  0  0  0
   50.6850   32.0550   49.5010 N   0  0  0  0  0  0  0  0  0  0  0  0
   51.1980   32.0550   50.7420 C   0  0  0  0  0  0  0  0  0  0  0  0
   51.0210   33.0940   51.6480 O   0  0  0  0  0  0  0  0  0  0  0  0
   54.7760   31.1220   51.6570 C   0  0  0  0  0  0  0  0  0  0  0  0
   54.5796   31.6900   50.7357 H   0  0  0  0  0  0  0  0  0  0  0  0
   56.0080   30.8990   52.2390 C   0  0  0  0  0  0  0  0  0  0  0  0
   57.2760   31.4290   51.6970 C   0  0  0  0  0  0  0  0  0  0  0  0
   57.6760   32.5620   52.0800 O   0  0  0  0  0  0  0  0  0  0  0  0
   58.1270   30.6320   50.7930 C   0  0  0  0  0  0  0  0  0  0  0  0
   57.9730   29.3820   50.7480 O   0  0  0  0  0  0  0  0  0  0  0  0
   59.1620   31.2490   50.0020 N   0  0  0  0  0  0  0  0  0  0  0  0
   58.9490   32.5510   49.3550 C   0  0  0  0  0  0  0  0  0  0  0  0
   58.7896   32.4015   48.2769 H   0  0  0  0  0  0  0  0  0  0  0  0
   58.0657   33.0359   49.7962 H   0  0  0  0  0  0  0  0  0  0  0  0
   60.1760   33.4430   49.5690 C   0  0  0  0  0  0  0  0  0  0  0  0
   60.1301   34.2885   48.8668 H   0  0  0  0  0  0  0  0  0  0  0  0
   60.1675   33.7978   50.6102 H   0  0  0  0  0  0  0  0  0  0  0  0
   61.4270   32.7020   49.3440 N   0  0  0  0  0  0  0  0  0  0  0  0
   62.6760   33.4160   49.3880 C   0  0  0  0  0  0  0  0  0  0  0  0
   62.7330   34.5900   48.9270 O   0  0  0  0  0  0  0  0  0  0  0  0
   63.8890   32.8190   49.9920 C   0  0  0  0  0  0  0  0  0  0  0  0
   65.1640   33.1620   49.5070 C   0  0  0  0  0  0  0  0  0  0  0  0
   65.2591   33.8663   48.6674 H   0  0  0  0  0  0  0  0  0  0  0  0
   66.3110   32.6120   50.0870 C   0  0  0  0  0  0  0  0  0  0  0  0
   67.3045   32.8758   49.6954 H   0  0  0  0  0  0  0  0  0  0  0  0
   66.1980   31.7280   51.1630 C   0  0  0  0  0  0  0  0  0  0  0  0
   67.1016   31.2955   51.6174 H   0  0  0  0  0  0  0  0  0  0  0  0
   64.9370   31.3940   51.6610 C   0  0  0  0  0  0  0  0  0  0  0  0
   64.8487   30.7004   52.5102 H   0  0  0  0  0  0  0  0  0  0  0  0
   63.7860   31.9390   51.0830 C   0  0  0  0  0  0  0  0  0  0  0  0
   62.7956   31.6777   51.4841 H   0  0  0  0  0  0  0  0  0  0  0  0
   61.3800   31.3080   48.8770 C   0  0  0  0  0  0  0  0  0  0  0  0
   61.0551   31.2880   47.8263 H   0  0  0  0  0  0  0  0  0  0  0  0
   62.3828   30.8654   48.9697 H   0  0  0  0  0  0  0  0  0  0  0  0
   60.3950   30.4950   49.7270 C   0  0  0  0  0  0  0  0  0  0  0  0
   60.1356   29.5723   49.1872 H   0  0  0  0  0  0  0  0  0  0  0  0
   60.8789   30.2669   50.6882 H   0  0  0  0  0  0  0  0  0  0  0  0
   55.8760   30.1190   53.3400 N   0  0  0  0  0  0  0  0  0  0  0  0
   56.9610   29.5860   54.1740 C   0  0  0  0  0  0  0  0  0  0  0  0
   56.7033   29.7126   55.2359 H   0  0  0  0  0  0  0  0  0  0  0  0
   57.1002   28.5170   53.9554 H   0  0  0  0  0  0  0  0  0  0  0  0
   57.8922   30.1292   53.9554 H   0  0  0  0  0  0  0  0  0  0  0  0
  1  2  1  0
  2  3  1  0
  2  4  2  0
  4  5  1  0
  5  6  2  0
  6  7  1  0
  6  8  1  0
  8  9  1  0
  9 10  1  0
 10 11  2  0
 10 12  1  0
 12 13  1  0
 13 14  1  0
  5 15  1  0
 15 16  1  0
 15 17  2  0
 17 18  1  0
 18 19  2  0
 18 20  1  0
 20 21  2  0
 20 22  1  0
 22 23  1  0
 23 24  1  0
 23 25  1  0
 23 26  1  0
 26 27  1  0
 26 28  1  0
 26 29  1  0
 29 30  1  0
 30 31  2  0
 30 32  1  0
 32 33  2  0
 33 34  1  0
 33 35  1  0
 35 36  1  0
 35 37  2  0
 37 38  1  0
 37 39  1  0
 39 40  1  0
 39 41  2  0
 41 42  1  0
 29 43  1  0
 43 44  1  0
 43 45  1  0
 43 46  1  0
 46 47  1  0
 46 48  1  0
 17 49  1  0
 49 50  1  0
 50 51  1  0
 50 52  1  0
 50 53  1  0
 49  4  1  0
 13  8  2  0
 46 22  1  0
 41 32  1  0
M  CHG  3   9  -1  12  -1  14  -1
M  END
>  <UniqueID>  (73) 
69

>  <SMILES>  (73) 
C=c1/c(=C/c2[n-]c(=O)[n-]c2[O-])cc(C(=O)C(=O)N2CCN(C(=O)c3ccccc3)CC2)n1C

>  <Energy>  (73) 
134.69160674878407

>  <Genealogy>  (73) 
C=c1c(=Cc2[n-]c(=O)[n-]c2[O-])cc(C(=O)C(=O)N2CCN(C(=O)c3ccccc3)CC2)n1C (protonated)
C=c1/c(=C/c2[n-]c(=O)[n-]c2[O-])cc(C(=O)C(=O)N2CCN(C(=O)c3ccccc3)CC2)n1C (cis-trans isomerization)
C=c1/c(=C/c2[n-]c(=O)[n-]c2[O-])cc(C(=O)C(=O)N2CCN(C(=O)c3ccccc3)CC2)n1C (3D coordinates assigned)
C=c1/c(=C/c2[n-]c(=O)[n-]c2[O-])cc(C(=O)C(=O)N2CCN(C(=O)c3ccccc3)CC2)n1C (nonaromatic ring conformer: 134.69160674878407 kcal/mol)

>  <smiles>  (73) 
C=c1c(=Cc2[nH]c(=O)[nH]c2O)cc(C(=O)C(=O)N2CCN(C(=O)c3ccccc3)CC2)n1C

>  <score_type>  (73) 
oracle

>  <origin>  (73) 
adg

>  <m_score__min__energy>  (73) 
-18.82

>  <m_primary>  (73) 
energy

$$$$
73:0
     RDKit          3D

 53 55  0  0  0  0  0  0  0  0999 V2000
   59.6080   28.9350   48.6860 C   0  0  0  0  0  0  0  0  0  0  0  0
   59.5210   29.2580   47.2160 C   0  0  0  0  0  0  0  0  0  0  0  0
   59.0220   30.5150   46.8300 C   0  0  0  0  0  0  0  0  0  0  0  0
   58.9550   30.8920   45.4700 C   0  0  0  0  0  0  0  0  0  0  0  0
   58.3680   32.2380   45.0010 C   0  0  0  0  0  0  0  0  0  0  0  0
   58.1250   32.1430   43.4770 C   0  0  0  0  0  0  0  0  0  0  0  0
   57.0220   32.5840   45.6800 C   0  0  0  0  0  0  0  0  0  0  0  0
   59.3410   33.3610   45.3550 C   0  0  0  0  0  0  0  0  0  0  0  0
   59.6250   34.2230   44.4840 O   0  0  0  0  0  0  0  0  0  0  0  0
   60.0090   33.4140   46.6240 N   0  0  0  0  0  0  0  0  0  0  0  0
   59.4700   34.3070   47.6560 C   0  0  0  0  0  0  0  0  0  0  0  0
   60.3240   34.2830   48.9200 C   0  0  0  0  0  0  0  0  0  0  0  0
   60.7410   32.9650   49.1830 O   0  0  0  0  0  0  0  0  0  0  0  0
   61.7500   32.6140   48.2620 C   0  0  0  0  0  0  0  0  0  0  0  0
   61.2430   32.6300   46.8000 C   0  0  0  0  0  0  0  0  0  0  0  0
   59.3890   29.9590   44.5040 C   0  0  0  0  0  0  0  0  0  0  0  0
   59.8960   28.7170   44.8810 C   0  0  0  0  0  0  0  0  0  0  0  0
   59.9930   28.3660   46.2300 C   0  0  0  0  0  0  0  0  0  0  0  0
   60.7350   26.7780   46.6450 S   0  0  0  0  0  0  0  0  0  0  0  0
   59.2180   25.8840   46.3050 C   0  0  0  0  0  0  0  0  0  0  0  0
   57.9930   26.4430   46.3520 N   0  0  0  0  0  0  0  0  0  0  0  0
   57.1290   25.4380   46.0950 C   0  0  0  0  0  0  0  0  0  0  0  0
   55.6660   25.6100   46.0750 C   0  0  0  0  0  0  0  0  0  0  0  0
   55.1540   26.7560   46.0000 O   0  0  0  0  0  0  0  0  0  0  0  0
   54.8390   24.4950   46.1440 O   0  0  0  0  0  0  0  0  0  0  0  0
   57.8530   24.2730   45.8810 C   0  0  0  0  0  0  0  0  0  0  0  0
   57.3200   22.9070   45.5900 C   0  0  0  0  0  0  0  0  0  0  0  0
   59.1580   24.5740   46.0140 N   0  0  0  0  0  0  0  0  0  0  0  0
   60.2230   23.7130   45.8940 O   0  0  0  0  0  0  0  0  0  0  0  0
   59.3662   29.8329   49.2736 H   0  0  0  0  0  0  0  0  0  0  0  0
   58.8934   28.1346   48.9285 H   0  0  0  0  0  0  0  0  0  0  0  0
   60.6279   28.6018   48.9285 H   0  0  0  0  0  0  0  0  0  0  0  0
   58.6771   31.2185   47.6021 H   0  0  0  0  0  0  0  0  0  0  0  0
   57.1153   31.7483   43.2906 H   0  0  0  0  0  0  0  0  0  0  0  0
   58.2164   33.1431   43.0281 H   0  0  0  0  0  0  0  0  0  0  0  0
   58.8704   31.4701   43.0281 H   0  0  0  0  0  0  0  0  0  0  0  0
   57.1439   32.5527   46.7728 H   0  0  0  0  0  0  0  0  0  0  0  0
   56.7061   33.5926   45.3750 H   0  0  0  0  0  0  0  0  0  0  0  0
   56.2589   31.8528   45.3750 H   0  0  0  0  0  0  0  0  0  0  0  0
   59.4441   35.3337   47.2619 H   0  0  0  0  0  0  0  0  0  0  0  0
   58.4589   33.9612   47.9168 H   0  0  0  0  0  0  0  0  0  0  0  0
   61.2061   34.9246   48.7780 H   0  0  0  0  0  0  0  0  0  0  0  0
   59.7310   34.6547   49.7686 H   0  0  0  0  0  0  0  0  0  0  0  0
   62.5796   33.3301   48.3564 H   0  0  0  0  0  0  0  0  0  0  0  0
   62.0752   31.5891   48.4939 H   0  0  0  0  0  0  0  0  0  0  0  0
   62.0273   33.0641   46.1624 H   0  0  0  0  0  0  0  0  0  0  0  0
   61.0134   31.5909   46.5216 H   0  0  0  0  0  0  0  0  0  0  0  0
   59.3260   30.2164   43.4364 H   0  0  0  0  0  0  0  0  0  0  0  0
   60.2233   28.0055   44.1086 H   0  0  0  0  0  0  0  0  0  0  0  0
   57.7640   27.4420   46.5490 H   0  0  0  0  0  0  0  0  0  0  0  0
   57.1159   22.3839   46.5359 H   0  0  0  0  0  0  0  0  0  0  0  0
   56.3893   22.9925   45.0100 H   0  0  0  0  0  0  0  0  0  0  0  0
   58.0627   22.3395   45.0100 H   0  0  0  0  0  0  0  0  0  0  0  0
  1  2  1  0
  2  3  2  0
  3  4  1  0
  4  5  1  0
  5  6  1  0
  5  7  1  0
  5  8  1  0
  8  9  2  0
  8 10  1  0
 10 11  1  0
 11 12  1  0
 12 13  1  0
 13 14  1  0
 14 15  1  0
  4 16  2  0
 16 17  1  0
 17 18  2  0
 18 19  1  0
 19 20  1  0
 20 21  2  0
 21 22  1  0
 22 23  1  0
 23 24  2  0
 23 25  1  0
 22 26  2  0
 26 27  1  0
 26 28  1  0
 28 29  1  0
 18  2  1  0
 28 20  1  0
 15 10  1  0
  1 30  1  0
  1 31  1  0
  1 32  1  0
  3 33  1  0
  6 34  1  0
  6 35  1  0
  6 36  1  0
  7 37  1  0
  7 38  1  0
  7 39  1  0
 11 40  1  0
 11 41  1  0
 12 42  1  0
 12 43  1  0
 14 44  1  0
 14 45  1  0
 15 46  1  0
 15 47  1  0
 16 48  1  0
 17 49  1  0
 21 50  1  0
 27 51  1  0
 27 52  1  0
 27 53  1  0
M  CHG  3  21   1  25  -1  29  -1
M  END
>  <UniqueID>  (74) 
70

>  <SMILES>  (74) 
Cc1cc(C(C)(C)C(=O)N2CCOCC2)ccc1Sc1[nH+]c(C(=O)[O-])c(C)n1[O-]

>  <Energy>  (74) 
94.89432028059791

>  <Genealogy>  (74) 
Cc1cc(C(C)(C)C(=O)N2CCOCC2)ccc1Sc1[nH+]c(C(=O)[O-])c(C)n1[O-] (protonated)
Cc1cc(C(C)(C)C(=O)N2CCOCC2)ccc1Sc1[nH+]c(C(=O)[O-])c(C)n1[O-] (3D coordinates assigned)
Cc1cc(C(C)(C)C(=O)N2CCOCC2)ccc1Sc1[nH+]c(C(=O)[O-])c(C)n1[O-] (nonaromatic ring conformer: 94.89432028059791 kcal/mol)

>  <smiles>  (74) 
Cc1cc(C(C)(C)C(=O)N2CCOCC2)ccc1Sc1nc(C(=O)O)c(C)n1O

>  <score_type>  (74) 
oracle

>  <origin>  (74) 
adg

>  <m_score__min__energy>  (74) 
-10.789999999999999

>  <m_primary>  (74) 
energy

$$$$
74:0
     RDKit          3D

 38 41  0  0  0  0  0  0  0  0999 V2000
   55.1814   23.2822   44.0167 H   0  0  0  0  0  0  0  0  0  0  0  0
   56.0920   23.8750   44.1880 C   0  0  0  0  0  0  0  0  0  0  0  0
   57.0398   23.5757   43.7168 H   0  0  0  0  0  0  0  0  0  0  0  0
   56.0470   24.9540   44.9650 C   0  0  0  0  0  0  0  0  0  0  0  0
   57.1100   25.7350   45.2280 N   0  0  0  0  0  0  0  0  0  0  0  0
   56.6120   26.6920   46.0480 C   0  0  0  0  0  0  0  0  0  0  0  0
   57.3660   27.6920   46.5180 C   0  0  0  0  0  0  0  0  0  0  0  0
   58.0771   27.4729   47.3281 H   0  0  0  0  0  0  0  0  0  0  0  0
   57.2930   29.0730   46.0060 C   0  0  0  0  0  0  0  0  0  0  0  0
   56.2830   29.5950   45.2100 C   0  0  0  0  0  0  0  0  0  0  0  0
   55.1570   28.8920   44.8040 O   0  0  0  0  0  0  0  0  0  0  0  0
   56.5100   30.8850   44.8690 N   0  0  0  0  0  0  0  0  0  0  0  0
   57.6920   31.1730   45.4480 C   0  0  0  0  0  0  0  0  0  0  0  0
   58.3780   32.3820   45.3620 C   0  0  0  0  0  0  0  0  0  0  0  0
   57.9465   33.2377   44.8221 H   0  0  0  0  0  0  0  0  0  0  0  0
   59.6410   32.4820   45.9850 C   0  0  0  0  0  0  0  0  0  0  0  0
   60.3970   33.7820   45.9550 C   0  0  0  0  0  0  0  0  0  0  0  0
   60.8872   33.8950   44.9768 H   0  0  0  0  0  0  0  0  0  0  0  0
   59.6931   34.6111   46.1196 H   0  0  0  0  0  0  0  0  0  0  0  0
   61.4400   33.8000   47.0390 C   0  0  0  0  0  0  0  0  0  0  0  0
   61.0940   34.1740   48.3480 C   0  0  0  0  0  0  0  0  0  0  0  0
   60.0508   34.4268   48.5884 H   0  0  0  0  0  0  0  0  0  0  0  0
   62.0720   34.2260   49.3470 C   0  0  0  0  0  0  0  0  0  0  0  0
   61.7960   34.5141   50.3721 H   0  0  0  0  0  0  0  0  0  0  0  0
   63.4000   33.9120   49.0430 C   0  0  0  0  0  0  0  0  0  0  0  0
   64.1673   33.9500   49.8303 H   0  0  0  0  0  0  0  0  0  0  0  0
   63.7540   33.5500   47.7410 C   0  0  0  0  0  0  0  0  0  0  0  0
   64.7998   33.3059   47.5029 H   0  0  0  0  0  0  0  0  0  0  0  0
   62.7780   33.4980   46.7400 C   0  0  0  0  0  0  0  0  0  0  0  0
   63.0603   33.2192   45.7140 H   0  0  0  0  0  0  0  0  0  0  0  0
   60.1740   31.3650   46.6760 C   0  0  0  0  0  0  0  0  0  0  0  0
   61.1559   31.4458   47.1651 H   0  0  0  0  0  0  0  0  0  0  0  0
   59.4620   30.1560   46.7430 C   0  0  0  0  0  0  0  0  0  0  0  0
   59.8808   29.2794   47.2589 H   0  0  0  0  0  0  0  0  0  0  0  0
   58.2070   30.1010   46.1350 C   0  0  0  0  0  0  0  0  0  0  0  0
   55.2880   26.5610   46.3070 N   0  0  0  0  0  0  0  0  0  0  0  0
   54.9510   25.4580   45.6200 C   0  0  0  0  0  0  0  0  0  0  0  0
   53.7860   24.9790   45.5960 O   0  0  0  0  0  0  0  0  0  0  0  0
  1  2  1  0
  2  3  1  0
  2  4  2  0
  4  5  1  0
  5  6  1  0
  6  7  2  0
  7  8  1  0
  7  9  1  0
  9 10  2  0
 10 11  1  0
 10 12  1  0
 12 13  1  0
 13 14  2  0
 14 15  1  0
 14 16  1  0
 16 17  1  0
 17 18  1  0
 17 19  1  0
 17 20  1  0
 20 21  2  0
 21 22  1  0
 21 23  1  0
 23 24  1  0
 23 25  2  0
 25 26  1  0
 25 27  1  0
 27 28  1  0
 27 29  2  0
 29 30  1  0
 16 31  2  0
 31 32  1  0
 31 33  1  0
 33 34  1  0
 33 35  2  0
  6 36  1  0
 36 37  1  0
 37 38  2  0
 37  4  1  0
 35  9  1  0
 35 13  1  0
 29 20  1  0
M  CHG  4   5  -1  11  -1  12  -1  36  -1
M  END
>  <UniqueID>  (75) 
71

>  <SMILES>  (75) 
C=c1[n-]/c(=C/c2c([O-])[n-]c3cc(Cc4ccccc4)ccc23)[n-]c1=O

>  <Energy>  (75) 
108.13436162619867

>  <Genealogy>  (75) 
C=c1[n-]c(=Cc2c([O-])[n-]c3cc(Cc4ccccc4)ccc23)[n-]c1=O (protonated)
C=c1[n-]/c(=C/c2c([O-])[n-]c3cc(Cc4ccccc4)ccc23)[n-]c1=O (cis-trans isomerization)
C=c1[n-]/c(=C/c2c([O-])[n-]c3cc(Cc4ccccc4)ccc23)[n-]c1=O (3D coordinates assigned)
C=c1[n-]/c(=C/c2c([O-])[n-]c3cc(Cc4ccccc4)ccc23)[n-]c1=O (optimized conformer: 108.13436162619867 kcal/mol)

>  <smiles>  (75) 
C=c1[nH]c(=Cc2c(O)[nH]c3cc(Cc4ccccc4)ccc23)[nH]c1=O

>  <score_type>  (75) 
oracle

>  <origin>  (75) 
adg

>  <m_score__min__energy>  (75) 
-17

>  <m_primary>  (75) 
energy

$$$$
75:0
     RDKit          3D

 44 46  0  0  0  0  0  0  0  0999 V2000
   56.7800   25.7200   46.3460 C   0  0  0  0  0  0  0  0  0  0  0  0
   57.9790   25.2930   45.9360 C   0  0  0  0  0  0  0  0  0  0  0  0
   59.2300   25.5790   46.7180 C   0  0  0  0  0  0  0  0  0  0  0  0
   59.5650   27.0460   46.6690 C   0  0  0  0  0  0  0  0  0  0  0  0
   60.2610   27.5790   45.5740 C   0  0  0  0  0  0  0  0  0  0  0  0
   60.5300   28.9480   45.5040 C   0  0  0  0  0  0  0  0  0  0  0  0
   60.0960   29.8050   46.5260 C   0  0  0  0  0  0  0  0  0  0  0  0
   60.3200   31.1850   46.4420 C   0  0  0  0  0  0  0  0  0  0  0  0
   59.8350   32.0580   47.4320 C   0  0  0  0  0  0  0  0  0  0  0  0
   59.8800   33.5430   47.1340 C   0  0  0  0  0  0  0  0  0  0  0  0
   58.2290   34.1740   46.6450 S   0  0  0  0  0  0  0  0  0  0  0  0
   57.9780   32.9890   45.3170 C   0  0  0  0  0  0  0  0  0  0  0  0
   58.2710   33.3390   43.9960 C   0  0  0  0  0  0  0  0  0  0  0  0
   58.0190   32.4340   42.9630 C   0  0  0  0  0  0  0  0  0  0  0  0
   57.4670   31.1800   43.2440 C   0  0  0  0  0  0  0  0  0  0  0  0
   57.1710   30.8140   44.5700 C   0  0  0  0  0  0  0  0  0  0  0  0
   56.5430   29.5050   44.8690 C   0  0  0  0  0  0  0  0  0  0  0  0
   55.1250   29.3560   44.8370 N   0  0  0  0  0  0  0  0  0  0  0  0
   57.2600   28.5040   45.1430 O   0  0  0  0  0  0  0  0  0  0  0  0
   57.4550   31.7210   45.6050 C   0  0  0  0  0  0  0  0  0  0  0  0
   59.1780   31.5180   48.5710 C   0  0  0  0  0  0  0  0  0  0  0  0
   58.6990   32.3500   49.6950 C   0  0  0  0  0  0  0  0  0  0  0  0
   57.6870   32.0100   50.3630 O   0  0  0  0  0  0  0  0  0  0  0  0
   59.3170   33.5640   49.9730 O   0  0  0  0  0  0  0  0  0  0  0  0
   58.9520   30.1340   48.6450 C   0  0  0  0  0  0  0  0  0  0  0  0
   59.3930   29.2770   47.6300 C   0  0  0  0  0  0  0  0  0  0  0  0
   59.1320   27.9000   47.6960 C   0  0  0  0  0  0  0  0  0  0  0  0
   55.8828   25.4942   45.7510 H   0  0  0  0  0  0  0  0  0  0  0  0
   56.6909   26.2970   47.2783 H   0  0  0  0  0  0  0  0  0  0  0  0
   58.0515   24.7171   45.0016 H   0  0  0  0  0  0  0  0  0  0  0  0
   59.0779   25.2782   47.7651 H   0  0  0  0  0  0  0  0  0  0  0  0
   60.0615   25.0115   46.2746 H   0  0  0  0  0  0  0  0  0  0  0  0
   60.5974   26.9143   44.7647 H   0  0  0  0  0  0  0  0  0  0  0  0
   61.0837   29.3550   44.6451 H   0  0  0  0  0  0  0  0  0  0  0  0
   60.8834   31.5918   45.5893 H   0  0  0  0  0  0  0  0  0  0  0  0
   60.2166   34.0791   48.0336 H   0  0  0  0  0  0  0  0  0  0  0  0
   60.5767   33.7089   46.2991 H   0  0  0  0  0  0  0  0  0  0  0  0
   58.6997   34.3265   43.7703 H   0  0  0  0  0  0  0  0  0  0  0  0
   58.2555   32.7083   41.9243 H   0  0  0  0  0  0  0  0  0  0  0  0
   57.2631   30.4759   42.4238 H   0  0  0  0  0  0  0  0  0  0  0  0
   54.6640   28.7330   44.1370 H   0  0  0  0  0  0  0  0  0  0  0  0
   57.2653   31.4335   46.6497 H   0  0  0  0  0  0  0  0  0  0  0  0
   58.4206   29.7173   49.5133 H   0  0  0  0  0  0  0  0  0  0  0  0
   58.5853   27.4873   48.5567 H   0  0  0  0  0  0  0  0  0  0  0  0
  1  2  2  0
  2  3  1  0
  3  4  1  0
  4  5  2  0
  5  6  1  0
  6  7  2  0
  7  8  1  0
  8  9  2  0
  9 10  1  0
 10 11  1  0
 11 12  1  0
 12 13  2  0
 13 14  1  0
 14 15  2  0
 15 16  1  0
 16 17  1  0
 17 18  1  0
 17 19  2  0
 16 20  2  0
  9 21  1  0
 21 22  1  0
 22 23  2  0
 22 24  1  0
 21 25  2  0
 25 26  1  0
 26 27  2  0
 27  4  1  0
 26  7  1  0
 20 12  1  0
  1 28  1  0
  1 29  1  0
  2 30  1  0
  3 31  1  0
  3 32  1  0
  5 33  1  0
  6 34  1  0
  8 35  1  0
 10 36  1  0
 10 37  1  0
 13 38  1  0
 14 39  1  0
 15 40  1  0
 18 41  1  0
 20 42  1  0
 25 43  1  0
 27 44  1  0
M  CHG  2  18  -1  24  -1
M  END
>  <UniqueID>  (76) 
72

>  <SMILES>  (76) 
C=CCc1ccc2cc(CSc3cccc(C([NH-])=O)c3)c(C(=O)[O-])cc2c1

>  <Energy>  (76) 
46.1229774470849

>  <Genealogy>  (76) 
C=CCc1ccc2cc(CSc3cccc(C([NH-])=O)c3)c(C(=O)[O-])cc2c1 (protonated)
C=CCc1ccc2cc(CSc3cccc(C([NH-])=O)c3)c(C(=O)[O-])cc2c1 (3D coordinates assigned)
C=CCc1ccc2cc(CSc3cccc(C([NH-])=O)c3)c(C(=O)[O-])cc2c1 (optimized conformer: 46.1229774470849 kcal/mol)

>  <smiles>  (76) 
C=CCc1ccc2cc(CSc3cccc(C(N)=O)c3)c(C(=O)O)cc2c1

>  <score_type>  (76) 
oracle

>  <origin>  (76) 
adg

>  <m_score__min__energy>  (76) 
-13.24

>  <m_primary>  (76) 
energy

$$$$
76:0
     RDKit          3D

 86 89  0  0  0  0  0  0  0  0999 V2000
   59.4830   35.1400   46.5580 C   0  0  0  0  0  0  0  0  0  0  0  0
   59.8410   34.0640   47.6180 C   0  0  0  0  0  0  0  0  0  0  0  0
   59.4460   34.5790   49.0140 C   0  0  0  0  0  0  0  0  0  0  0  0
   58.9670   32.8250   47.2810 C   0  0  0  0  0  0  0  0  0  0  0  0
   61.3490   33.6850   47.6180 C   0  0  0  0  0  0  0  0  0  0  0  0
   62.0670   33.7540   46.4060 C   0  0  0  0  0  0  0  0  0  0  0  0
   63.4310   33.5040   46.3600 C   0  0  0  0  0  0  0  0  0  0  0  0
   64.1310   33.2130   47.5210 C   0  0  0  0  0  0  0  0  0  0  0  0
   63.4750   33.1080   48.7680 C   0  0  0  0  0  0  0  0  0  0  0  0
   64.2950   32.8270   50.0600 C   0  0  0  0  0  0  0  0  0  0  0  0
   64.0850   31.3740   50.5650 C   0  0  0  0  0  0  0  0  0  0  0  0
   63.8650   33.7560   51.2300 C   0  0  0  0  0  0  0  0  0  0  0  0
   65.7930   33.0690   49.7920 C   0  0  0  0  0  0  0  0  0  0  0  0
   62.0500   33.1990   48.7650 C   0  0  0  0  0  0  0  0  0  0  0  0
   61.3350   32.7520   49.8750 O   0  0  0  0  0  0  0  0  0  0  0  0
   60.9700   31.4110   50.0400 C   0  0  0  0  0  0  0  0  0  0  0  0
   60.9140   30.9070   51.1980 O   0  0  0  0  0  0  0  0  0  0  0  0
   60.6430   30.6300   48.8830 N   0  0  0  0  0  0  0  0  0  0  0  0
   60.1500   29.2790   48.9420 C   0  0  0  0  0  0  0  0  0  0  0  0
   60.2140   28.6350   50.0250 O   0  0  0  0  0  0  0  0  0  0  0  0
   59.5780   28.6150   47.7410 C   0  0  0  0  0  0  0  0  0  0  0  0
   58.5420   29.2060   46.9980 C   0  0  0  0  0  0  0  0  0  0  0  0
   58.0100   28.5580   45.8800 C   0  0  0  0  0  0  0  0  0  0  0  0
   58.4870   27.2970   45.4810 C   0  0  0  0  0  0  0  0  0  0  0  0
   57.8770   26.6170   44.3000 C   0  0  0  0  0  0  0  0  0  0  0  0
   58.0700   27.1120   43.1530 O   0  0  0  0  0  0  0  0  0  0  0  0
   57.0300   25.4430   44.4350 N   0  0  1  0  0  0  0  0  0  0  0  0
   57.8080   24.2200   44.0940 C   0  0  0  0  0  0  0  0  0  0  0  0
   57.3210   22.9860   44.8590 C   0  0  0  0  0  0  0  0  0  0  0  0
   57.5670   23.1920   46.3640 C   0  0  2  0  0  0  0  0  0  0  0  0
   56.9590   22.0910   47.1570 N   0  0  0  0  0  0  0  0  0  0  0  0
   56.5740   20.8780   46.3910 C   0  0  0  0  0  0  0  0  0  0  0  0
   55.3680   20.1500   46.9940 C   0  0  0  0  0  0  0  0  0  0  0  0
   54.1810   21.1070   47.0900 C   0  0  0  0  0  0  0  0  0  0  0  0
   54.5350   22.4200   47.8140 C   0  0  0  0  0  0  0  0  0  0  0  0
   56.0170   22.5310   48.2170 C   0  0  0  0  0  0  0  0  0  0  0  0
   57.1490   24.6150   46.8350 C   0  0  0  0  0  0  0  0  0  0  0  0
   56.3630   25.4040   45.7670 C   0  0  0  0  0  0  0  0  0  0  0  0
   59.5090   26.6970   46.2410 C   0  0  0  0  0  0  0  0  0  0  0  0
   60.0490   27.3500   47.3520 C   0  0  0  0  0  0  0  0  0  0  0  0
   59.1749   36.0661   47.0652 H   0  0  0  0  0  0  0  0  0  0  0  0
   60.3624   35.3417   45.9288 H   0  0  0  0  0  0  0  0  0  0  0  0
   58.6580   34.7746   45.9288 H   0  0  0  0  0  0  0  0  0  0  0  0
   59.9243   33.9554   49.7837 H   0  0  0  0  0  0  0  0  0  0  0  0
   59.7784   35.6214   49.1279 H   0  0  0  0  0  0  0  0  0  0  0  0
   58.3531   34.5282   49.1279 H   0  0  0  0  0  0  0  0  0  0  0  0
   58.6310   32.3486   48.2138 H   0  0  0  0  0  0  0  0  0  0  0  0
   58.0916   33.1422   46.6952 H   0  0  0  0  0  0  0  0  0  0  0  0
   59.5594   32.1067   46.6952 H   0  0  0  0  0  0  0  0  0  0  0  0
   61.5348   34.0112   45.4783 H   0  0  0  0  0  0  0  0  0  0  0  0
   63.9604   33.5369   45.3964 H   0  0  0  0  0  0  0  0  0  0  0  0
   65.2192   33.0608   47.4702 H   0  0  0  0  0  0  0  0  0  0  0  0
   64.0837   31.3647   51.6650 H   0  0  0  0  0  0  0  0  0  0  0  0
   63.1224   30.9924   50.1939 H   0  0  0  0  0  0  0  0  0  0  0  0
   64.9002   30.7354   50.1939 H   0  0  0  0  0  0  0  0  0  0  0  0
   64.0914   33.2668   52.1889 H   0  0  0  0  0  0  0  0  0  0  0  0
   64.4147   34.7065   51.1645 H   0  0  0  0  0  0  0  0  0  0  0  0
   62.7846   33.9520   51.1645 H   0  0  0  0  0  0  0  0  0  0  0  0
   66.3275   33.1554   50.7495 H   0  0  0  0  0  0  0  0  0  0  0  0
   66.2037   32.2256   49.2176 H   0  0  0  0  0  0  0  0  0  0  0  0
   65.9172   33.9989   49.2176 H   0  0  0  0  0  0  0  0  0  0  0  0
   60.7890   31.0850   47.9550 H   0  0  0  0  0  0  0  0  0  0  0  0
   58.1463   30.1872   47.2990 H   0  0  0  0  0  0  0  0  0  0  0  0
   57.2069   29.0412   45.3041 H   0  0  0  0  0  0  0  0  0  0  0  0
   56.2460   25.5250   43.7480 H   0  0  0  0  0  0  0  0  0  0  0  0
   58.8657   24.3940   44.3408 H   0  0  0  0  0  0  0  0  0  0  0  0
   57.6716   24.0243   43.0202 H   0  0  0  0  0  0  0  0  0  0  0  0
   57.8723   22.0986   44.5145 H   0  0  0  0  0  0  0  0  0  0  0  0
   56.2459   22.8400   44.6775 H   0  0  0  0  0  0  0  0  0  0  0  0
   58.6503   23.1401   46.5477 H   0  0  0  0  0  0  0  0  0  0  0  0
   56.3251   21.1769   45.3621 H   0  0  0  0  0  0  0  0  0  0  0  0
   57.4271   20.1842   46.4206 H   0  0  0  0  0  0  0  0  0  0  0  0
   55.0986   19.2971   46.3537 H   0  0  0  0  0  0  0  0  0  0  0  0
   55.6270   19.7903   48.0007 H   0  0  0  0  0  0  0  0  0  0  0  0
   53.8389   21.3470   46.0725 H   0  0  0  0  0  0  0  0  0  0  0  0
   53.3956   20.6057   47.6747 H   0  0  0  0  0  0  0  0  0  0  0  0
   54.2941   23.2598   47.1456 H   0  0  0  0  0  0  0  0  0  0  0  0
   53.9490   22.4391   48.7447 H   0  0  0  0  0  0  0  0  0  0  0  0
   56.2331   23.5820   48.4591 H   0  0  0  0  0  0  0  0  0  0  0  0
   56.1668   21.8624   49.0775 H   0  0  0  0  0  0  0  0  0  0  0  0
   58.0581   25.1802   47.0882 H   0  0  0  0  0  0  0  0  0  0  0  0
   56.4845   24.4894   47.7026 H   0  0  0  0  0  0  0  0  0  0  0  0
   56.2373   26.4375   46.1221 H   0  0  0  0  0  0  0  0  0  0  0  0
   55.4024   24.8861   45.6289 H   0  0  0  0  0  0  0  0  0  0  0  0
   59.8864   25.7035   45.9571 H   0  0  0  0  0  0  0  0  0  0  0  0
   60.8522   26.8680   47.9287 H   0  0  0  0  0  0  0  0  0  0  0  0
  1  2  1  0
  2  3  1  0
  2  4  1  0
  2  5  1  0
  5  6  2  0
  6  7  1  0
  7  8  2  0
  8  9  1  0
  9 10  1  0
 10 11  1  0
 10 12  1  0
 10 13  1  0
  9 14  2  0
 14 15  1  0
 15 16  1  0
 16 17  2  0
 16 18  1  0
 18 19  1  0
 19 20  2  0
 19 21  1  0
 21 22  2  0
 22 23  1  0
 23 24  2  0
 24 25  1  0
 25 26  2  0
 25 27  1  0
 27 28  1  0
 28 29  1  0
 29 30  1  0
 30 31  1  0
 31 32  1  0
 32 33  1  0
 33 34  1  0
 34 35  1  0
 35 36  1  0
 30 37  1  0
 37 38  1  0
 24 39  1  0
 39 40  2  0
 14  5  1  0
 40 21  1  0
 38 27  1  0
 36 31  1  0
  1 41  1  0
  1 42  1  0
  1 43  1  0
  3 44  1  0
  3 45  1  0
  3 46  1  0
  4 47  1  0
  4 48  1  0
  4 49  1  0
  6 50  1  0
  7 51  1  0
  8 52  1  0
 11 53  1  0
 11 54  1  0
 11 55  1  0
 12 56  1  0
 12 57  1  0
 12 58  1  0
 13 59  1  0
 13 60  1  0
 13 61  1  0
 18 62  1  0
 22 63  1  0
 23 64  1  0
 27 65  1  6
 28 66  1  0
 28 67  1  0
 29 68  1  0
 29 69  1  0
 30 70  1  6
 32 71  1  0
 32 72  1  0
 33 73  1  0
 33 74  1  0
 34 75  1  0
 34 76  1  0
 35 77  1  0
 35 78  1  0
 36 79  1  0
 36 80  1  0
 37 81  1  0
 37 82  1  0
 38 83  1  0
 38 84  1  0
 39 85  1  0
 40 86  1  0
M  CHG  1  27   1
M  END
>  <UniqueID>  (77) 
73

>  <SMILES>  (77) 
CC(C)(C)c1cccc(C(C)(C)C)c1OC(=O)NC(=O)c1ccc(C(=O)[NH+]2CCC(N3CCCCC3)CC2)cc1

>  <Energy>  (77) 
139.3305536193875

>  <Genealogy>  (77) 
CC(C)(C)c1cccc(C(C)(C)C)c1OC(=O)NC(=O)c1ccc(C(=O)[NH+]2CCC(N3CCCCC3)CC2)cc1 (protonated)
CC(C)(C)c1cccc(C(C)(C)C)c1OC(=O)NC(=O)c1ccc(C(=O)[NH+]2CCC(N3CCCCC3)CC2)cc1 (3D coordinates assigned)
CC(C)(C)c1cccc(C(C)(C)C)c1OC(=O)NC(=O)c1ccc(C(=O)[NH+]2CCC(N3CCCCC3)CC2)cc1 (nonaromatic ring conformer: 139.3305536193875 kcal/mol)

>  <smiles>  (77) 
CC(C)(C)c1cccc(C(C)(C)C)c1OC(=O)NC(=O)c1ccc(C(=O)N2CCC(N3CCCCC3)CC2)cc1

>  <score_type>  (77) 
oracle

>  <origin>  (77) 
adg

>  <m_score__min__energy>  (77) 
-8.2100000000000009

>  <m_primary>  (77) 
energy

$$$$
77:0
     RDKit          3D

 41 42  0  0  0  0  0  0  0  0999 V2000
   59.5180   34.9650   46.4880 C   0  0  0  0  0  0  0  0  0  0  0  0
   58.2430   34.2100   46.8430 C   0  0  0  0  0  0  0  0  0  0  0  0
   57.9280   33.2360   45.8030 N   0  0  0  0  0  0  0  0  0  0  0  0
   57.9570   33.4600   44.4760 C   0  0  0  0  0  0  0  0  0  0  0  0
   57.6440   32.2820   43.8340 C   0  0  0  0  0  0  0  0  0  0  0  0
   57.4020   32.0600   41.9510 Br  0  0  0  0  0  0  0  0  0  0  0  0
   57.4470   31.3640   44.8560 C   0  0  0  0  0  0  0  0  0  0  0  0
   57.0570   29.9500   44.7220 C   0  0  0  0  0  0  0  0  0  0  0  0
   55.8340   29.6570   44.6370 O   0  0  0  0  0  0  0  0  0  0  0  0
   58.0400   28.9040   44.7100 N   0  0  0  0  0  0  0  0  0  0  0  0
   59.0680   28.9150   45.7690 C   0  0  0  0  0  0  0  0  0  0  0  0
   58.5900   28.3210   47.1070 C   0  0  0  0  0  0  0  0  0  0  0  0
   58.3030   26.8010   47.0880 C   0  0  0  0  0  0  0  0  0  0  0  0
   57.5300   26.3800   45.9090 N   0  0  0  0  0  0  0  0  0  0  0  0
   56.1740   25.9110   46.0740 C   0  0  0  0  0  0  0  0  0  0  0  0
   55.2260   26.7440   46.0800 O   0  0  0  0  0  0  0  0  0  0  0  0
   55.8610   24.4390   46.1920 C   0  0  0  0  0  0  0  0  0  0  0  0
   54.4340   24.1940   46.3980 N   0  0  0  0  0  0  0  0  0  0  0  0
   58.1570   26.4360   44.5770 C   0  0  0  0  0  0  0  0  0  0  0  0
   57.8120   27.7370   43.8440 C   0  0  0  0  0  0  0  0  0  0  0  0
   57.6230   31.9710   46.0460 N   0  0  0  0  0  0  0  0  0  0  0  0
   60.0327   35.2698   47.4111 H   0  0  0  0  0  0  0  0  0  0  0  0
   60.1785   34.3123   45.8983 H   0  0  0  0  0  0  0  0  0  0  0  0
   59.2632   35.8579   45.8983 H   0  0  0  0  0  0  0  0  0  0  0  0
   58.3852   33.6866   47.8000 H   0  0  0  0  0  0  0  0  0  0  0  0
   57.4129   34.9268   46.9267 H   0  0  0  0  0  0  0  0  0  0  0  0
   58.1903   34.4181   43.9885 H   0  0  0  0  0  0  0  0  0  0  0  0
   59.9320   28.3308   45.4194 H   0  0  0  0  0  0  0  0  0  0  0  0
   59.3204   29.9687   45.9588 H   0  0  0  0  0  0  0  0  0  0  0  0
   59.3681   28.5109   47.8609 H   0  0  0  0  0  0  0  0  0  0  0  0
   57.6308   28.8099   47.3326 H   0  0  0  0  0  0  0  0  0  0  0  0
   59.2622   26.2625   47.0897 H   0  0  0  0  0  0  0  0  0  0  0  0
   57.7012   26.5671   47.9786 H   0  0  0  0  0  0  0  0  0  0  0  0
   56.1776   23.9340   45.2675 H   0  0  0  0  0  0  0  0  0  0  0  0
   56.4013   24.0472   47.0664 H   0  0  0  0  0  0  0  0  0  0  0  0
   53.9190   25.1010   46.3210 H   0  0  0  0  0  0  0  0  0  0  0  0
   54.0840   23.5580   45.6450 H   0  0  0  0  0  0  0  0  0  0  0  0
   59.2489   26.3710   44.6936 H   0  0  0  0  0  0  0  0  0  0  0  0
   57.7741   25.5942   43.9814 H   0  0  0  0  0  0  0  0  0  0  0  0
   58.4445   27.8242   42.9482 H   0  0  0  0  0  0  0  0  0  0  0  0
   56.7489   27.7105   43.5628 H   0  0  0  0  0  0  0  0  0  0  0  0
  1  2  1  0
  2  3  1  0
  3  4  1  0
  4  5  2  0
  5  6  1  0
  5  7  1  0
  7  8  1  0
  8  9  2  0
  8 10  1  0
 10 11  1  0
 11 12  1  0
 12 13  1  0
 13 14  1  0
 14 15  1  0
 15 16  2  0
 15 17  1  0
 17 18  1  0
 14 19  1  0
 19 20  1  0
  7 21  2  0
 21  3  1  0
 20 10  1  0
  1 22  1  0
  1 23  1  0
  1 24  1  0
  2 25  1  0
  2 26  1  0
  4 27  1  0
 11 28  1  0
 11 29  1  0
 12 30  1  0
 12 31  1  0
 13 32  1  0
 13 33  1  0
 17 34  1  0
 17 35  1  0
 18 36  1  0
 18 37  1  0
 19 38  1  0
 19 39  1  0
 20 40  1  0
 20 41  1  0
M  END
>  <UniqueID>  (78) 
74

>  <SMILES>  (78) 
CCn1cc(Br)c(C(=O)N2CCCN(C(=O)CN)CC2)n1

>  <Energy>  (78) 
77.12979945051525

>  <Genealogy>  (78) 
CCn1cc(Br)c(C(=O)N2CCCN(C(=O)CN)CC2)n1 (3D coordinates assigned)
CCn1cc(Br)c(C(=O)N2CCCN(C(=O)CN)CC2)n1 (nonaromatic ring conformer: 77.12979945051525 kcal/mol)

>  <smiles>  (78) 
CCn1cc(Br)c(C(=O)N2CCCN(C(=O)CN)CC2)n1

>  <score_type>  (78) 
oracle

>  <origin>  (78) 
adg

>  <m_score__min__energy>  (78) 
-5.8799999999999999

>  <m_primary>  (78) 
energy

$$$$
78:0
     RDKit          3D

 52 55  0  0  0  0  0  0  0  0999 V2000
   56.2760   30.5510   44.7690 O   0  0  0  0  0  0  0  0  0  0  0  0
   57.1910   30.5340   43.9200 C   0  0  0  0  0  0  0  0  0  0  0  0
   57.3950   31.5290   42.8500 C   0  0  0  0  0  0  0  0  0  0  0  0
   58.1130   32.7250   43.3860 C   0  0  0  0  0  0  0  0  0  0  0  0
   57.4140   33.3320   44.5550 C   0  0  0  0  0  0  0  0  0  0  0  0
   58.3350   33.4750   45.7050 C   0  0  0  0  0  0  0  0  0  0  0  0
   59.6550   33.3700   45.8330 N   0  0  0  0  0  0  0  0  0  0  0  0
   60.0490   33.5960   47.0960 C   0  0  0  0  0  0  0  0  0  0  0  0
   61.3880   33.5900   47.6760 C   0  0  0  0  0  0  0  0  0  0  0  0
   62.4600   33.0100   46.9880 C   0  0  0  0  0  0  0  0  0  0  0  0
   63.7350   32.9860   47.5150 C   0  0  0  0  0  0  0  0  0  0  0  0
   63.9600   33.5530   48.7620 C   0  0  0  0  0  0  0  0  0  0  0  0
   62.9040   34.1250   49.4390 C   0  0  0  0  0  0  0  0  0  0  0  0
   63.1930   34.6640   50.6590 F   0  0  0  0  0  0  0  0  0  0  0  0
   61.6130   34.1630   48.9340 C   0  0  0  0  0  0  0  0  0  0  0  0
   58.8940   33.8640   47.8160 C   0  0  0  0  0  0  0  0  0  0  0  0
   57.8670   33.7840   46.9520 N   0  0  0  0  0  0  0  0  0  0  0  0
   58.1180   29.4550   43.9910 N   0  0  0  0  0  0  0  0  0  0  0  0
   58.0780   28.4000   44.9650 C   0  0  0  0  0  0  0  0  0  0  0  0
   58.6870   28.8530   46.2350 C   0  0  0  0  0  0  0  0  0  0  0  0
   59.5990   29.9060   46.1340 C   0  0  0  0  0  0  0  0  0  0  0  0
   60.2540   30.4360   47.2200 C   0  0  0  0  0  0  0  0  0  0  0  0
   59.9700   29.8700   48.4630 C   0  0  0  0  0  0  0  0  0  0  0  0
   60.6560   30.4240   49.6030 N   0  0  0  0  0  0  0  0  0  0  0  0
   61.7970   29.9420   50.1390 C   0  0  0  0  0  0  0  0  0  0  0  0
   62.1800   30.7170   51.2260 C   0  0  0  0  0  0  0  0  0  0  0  0
   61.1850   31.6970   51.2990 C   0  0  0  0  0  0  0  0  0  0  0  0
   60.2850   31.4910   50.3100 N   0  0  0  0  0  0  0  0  0  0  0  0
   59.0740   28.8300   48.5810 C   0  0  0  0  0  0  0  0  0  0  0  0
   58.4190   28.3070   47.4650 C   0  0  0  0  0  0  0  0  0  0  0  0
   57.9922   31.0780   42.0438 H   0  0  0  0  0  0  0  0  0  0  0  0
   56.4152   31.8435   42.4614 H   0  0  0  0  0  0  0  0  0  0  0  0
   59.1229   32.4202   43.6977 H   0  0  0  0  0  0  0  0  0  0  0  0
   58.1481   33.4805   42.5873 H   0  0  0  0  0  0  0  0  0  0  0  0
   57.0344   34.3249   44.2719 H   0  0  0  0  0  0  0  0  0  0  0  0
   56.5839   32.6730   44.8493 H   0  0  0  0  0  0  0  0  0  0  0  0
   62.2812   32.5609   45.9999 H   0  0  0  0  0  0  0  0  0  0  0  0
   64.5614   32.5241   46.9549 H   0  0  0  0  0  0  0  0  0  0  0  0
   64.9673   33.5460   49.2040 H   0  0  0  0  0  0  0  0  0  0  0  0
   60.7935   34.6274   49.5022 H   0  0  0  0  0  0  0  0  0  0  0  0
   58.8305   34.0974   48.8891 H   0  0  0  0  0  0  0  0  0  0  0  0
   56.8650   33.9450   47.2340 H   0  0  0  0  0  0  0  0  0  0  0  0
   58.9080   29.4090   43.2800 H   0  0  0  0  0  0  0  0  0  0  0  0
   57.0319   28.1123   45.1461 H   0  0  0  0  0  0  0  0  0  0  0  0
   58.6442   27.5377   44.5832 H   0  0  0  0  0  0  0  0  0  0  0  0
   59.8024   30.3306   45.1398 H   0  0  0  0  0  0  0  0  0  0  0  0
   60.9677   31.2663   47.1141 H   0  0  0  0  0  0  0  0  0  0  0  0
   62.3443   29.0627   49.7686 H   0  0  0  0  0  0  0  0  0  0  0  0
   63.0584   30.5900   51.8759 H   0  0  0  0  0  0  0  0  0  0  0  0
   61.1411   32.5066   52.0423 H   0  0  0  0  0  0  0  0  0  0  0  0
   58.8709   28.4035   49.5744 H   0  0  0  0  0  0  0  0  0  0  0  0
   57.7049   27.4768   47.5690 H   0  0  0  0  0  0  0  0  0  0  0  0
  1  2  2  0
  2  3  1  0
  3  4  1  0
  4  5  1  0
  5  6  1  0
  6  7  2  0
  7  8  1  0
  8  9  1  0
  9 10  2  0
 10 11  1  0
 11 12  2  0
 12 13  1  0
 13 14  1  0
 13 15  2  0
  8 16  2  0
 16 17  1  0
  2 18  1  0
 18 19  1  0
 19 20  1  0
 20 21  2  0
 21 22  1  0
 22 23  2  0
 23 24  1  0
 24 25  1  0
 25 26  2  0
 26 27  1  0
 27 28  2  0
 23 29  1  0
 29 30  2  0
 17  6  1  0
 30 20  1  0
 15  9  1  0
 28 24  1  0
  3 31  1  0
  3 32  1  0
  4 33  1  0
  4 34  1  0
  5 35  1  0
  5 36  1  0
 10 37  1  0
 11 38  1  0
 12 39  1  0
 15 40  1  0
 16 41  1  0
 17 42  1  0
 18 43  1  0
 19 44  1  0
 19 45  1  0
 21 46  1  0
 22 47  1  0
 25 48  1  0
 26 49  1  0
 27 50  1  0
 29 51  1  0
 30 52  1  0
M  END
>  <smiles>  (79) 
O=C(CCCc1nc(-c2cccc(F)c2)c[nH]1)NCc1ccc(-n2cccn2)cc1

>  <score_type>  (79) 
oracle

>  <origin>  (79) 
adg

>  <m_score__min__energy>  (79) 
-8.3100000000000005

>  <m_primary>  (79) 
energy

$$$$
79:0
     RDKit          3D

 43 45  0  0  0  0  0  0  0  0999 V2000
   55.8250   24.7120   47.5570 O   0  0  0  0  0  0  0  0  0  0  0  0
   55.9130   25.0850   46.3560 C   0  0  0  0  0  0  0  0  0  0  0  0
   55.6030   26.4380   45.9950 N   0  0  0  0  0  0  0  0  0  0  0  0
   56.5330   27.4530   45.5940 C   0  0  0  0  0  0  0  0  0  0  0  0
   57.8940   27.2610   45.4800 C   0  0  0  0  0  0  0  0  0  0  0  0
   58.4110   28.4640   45.0390 C   0  0  0  0  0  0  0  0  0  0  0  0
   57.4150   29.3610   44.8770 N   0  0  0  0  0  0  0  0  0  0  0  0
   57.5620   30.7140   44.4220 C   0  0  0  0  0  0  0  0  0  0  0  0
   58.4020   30.9880   43.5230 O   0  0  0  0  0  0  0  0  0  0  0  0
   56.7510   31.7500   44.9890 N   0  0  0  0  0  0  0  0  0  0  0  0
   57.0640   33.1710   44.8800 C   0  0  0  0  0  0  0  0  0  0  0  0
   58.0980   33.5570   45.9020 C   0  0  0  0  0  0  0  0  0  0  0  0
   58.1160   32.9470   47.1680 C   0  0  0  0  0  0  0  0  0  0  0  0
   59.0690   33.3280   48.1190 C   0  0  0  0  0  0  0  0  0  0  0  0
   60.0050   34.3200   47.8140 C   0  0  0  0  0  0  0  0  0  0  0  0
   59.9900   34.9350   46.5590 C   0  0  0  0  0  0  0  0  0  0  0  0
   59.0390   34.5570   45.6060 C   0  0  0  0  0  0  0  0  0  0  0  0
   56.2600   28.7540   45.2100 C   0  0  0  0  0  0  0  0  0  0  0  0
   56.3630   24.1260   45.3180 C   0  0  0  0  0  0  0  0  0  0  0  0
   55.5680   23.8780   44.1830 C   0  0  0  0  0  0  0  0  0  0  0  0
   55.9960   22.9810   43.2020 C   0  0  0  0  0  0  0  0  0  0  0  0
   57.2160   22.3170   43.3410 C   0  0  0  0  0  0  0  0  0  0  0  0
   58.0150   22.5370   44.4720 C   0  0  0  0  0  0  0  0  0  0  0  0
   59.3460   21.8490   44.6020 C   0  0  0  0  0  0  0  0  0  0  0  0
   60.2450   22.6670   45.3030 O   0  0  0  0  0  0  0  0  0  0  0  0
   57.5910   23.4520   45.4500 C   0  0  0  0  0  0  0  0  0  0  0  0
   58.4534   26.3388   45.6960 H   0  0  0  0  0  0  0  0  0  0  0  0
   59.4761   28.6616   44.8482 H   0  0  0  0  0  0  0  0  0  0  0  0
   57.4532   33.3808   43.8728 H   0  0  0  0  0  0  0  0  0  0  0  0
   56.1486   33.7541   45.0589 H   0  0  0  0  0  0  0  0  0  0  0  0
   57.3788   32.1679   47.4119 H   0  0  0  0  0  0  0  0  0  0  0  0
   59.0815   32.8462   49.1078 H   0  0  0  0  0  0  0  0  0  0  0  0
   60.7543   34.6171   48.5625 H   0  0  0  0  0  0  0  0  0  0  0  0
   60.7265   35.7166   46.3209 H   0  0  0  0  0  0  0  0  0  0  0  0
   59.0278   35.0449   44.6202 H   0  0  0  0  0  0  0  0  0  0  0  0
   55.2625   29.2168   45.1814 H   0  0  0  0  0  0  0  0  0  0  0  0
   54.6034   24.3941   44.0681 H   0  0  0  0  0  0  0  0  0  0  0  0
   55.3696   22.7970   42.3167 H   0  0  0  0  0  0  0  0  0  0  0  0
   57.5518   21.6186   42.5603 H   0  0  0  0  0  0  0  0  0  0  0  0
   59.2146   20.9024   45.1467 H   0  0  0  0  0  0  0  0  0  0  0  0
   59.7481   21.6501   43.5977 H   0  0  0  0  0  0  0  0  0  0  0  0
   61.1420   22.2570   45.1940 H   0  0  0  0  0  0  0  0  0  0  0  0
   58.2255   23.6435   46.3279 H   0  0  0  0  0  0  0  0  0  0  0  0
  1  2  2  0
  2  3  1  0
  3  4  1  0
  4  5  1  0
  5  6  2  0
  6  7  1  0
  7  8  1  0
  8  9  2  0
  8 10  1  0
 10 11  1  0
 11 12  1  0
 12 13  2  0
 13 14  1  0
 14 15  2  0
 15 16  1  0
 16 17  2  0
  7 18  1  0
  2 19  1  0
 19 20  2  0
 20 21  1  0
 21 22  2  0
 22 23  1  0
 23 24  1  0
 24 25  1  0
 23 26  2  0
 18  4  2  0
 26 19  1  0
 17 12  1  0
  5 27  1  0
  6 28  1  0
 11 29  1  0
 11 30  1  0
 13 31  1  0
 14 32  1  0
 15 33  1  0
 16 34  1  0
 17 35  1  0
 18 36  1  0
 20 37  1  0
 21 38  1  0
 22 39  1  0
 24 40  1  0
 24 41  1  0
 25 42  1  0
 26 43  1  0
M  CHG  2   3  -1  10  -1
M  END
>  <UniqueID>  (80) 
75

>  <SMILES>  (80) 
O=C([N-]c1ccn(C(=O)[N-]Cc2ccccc2)c1)c1cccc(CO)c1

>  <Energy>  (80) 
71.61584010722585

>  <Genealogy>  (80) 
O=C([N-]c1ccn(C(=O)[N-]Cc2ccccc2)c1)c1cccc(CO)c1 (protonated)
O=C([N-]c1ccn(C(=O)[N-]Cc2ccccc2)c1)c1cccc(CO)c1 (3D coordinates assigned)
O=C([N-]c1ccn(C(=O)[N-]Cc2ccccc2)c1)c1cccc(CO)c1 (optimized conformer: 71.61584010722585 kcal/mol)

>  <smiles>  (80) 
O=C(Nc1ccn(C(=O)NCc2ccccc2)c1)c1cccc(CO)c1

>  <score_type>  (80) 
oracle

>  <origin>  (80) 
adg

>  <m_score__min__energy>  (80) 
-12.33

>  <m_primary>  (80) 
energy

$$$$
80:0
     RDKit          3D

 58 62  0  0  0  0  0  0  0  0999 V2000
   56.6407   29.0818   42.5890 H   0  0  0  0  0  0  0  0  0  0  0  0
   56.6070   29.6730   43.5160 C   0  0  0  0  0  0  0  0  0  0  0  0
   57.0210   31.0850   43.4400 C   0  0  0  0  0  0  0  0  0  0  0  0
   57.4520   31.5300   42.3440 O   0  0  0  0  0  0  0  0  0  0  0  0
   56.8570   31.9700   44.5600 N   0  0  0  0  0  0  0  0  0  0  0  0
   56.3320   31.6410   45.4010 H   0  0  0  0  0  0  0  0  0  0  0  0
   57.3910   33.3300   44.5760 C   0  0  0  0  0  0  0  0  0  0  0  0
   57.9060   33.5305   43.6249 H   0  0  0  0  0  0  0  0  0  0  0  0
   56.5630   34.0419   44.7087 H   0  0  0  0  0  0  0  0  0  0  0  0
   58.3630   33.4860   45.7110 C   0  0  0  0  0  0  0  0  0  0  0  0
   59.2270   34.5890   45.7540 C   0  0  0  0  0  0  0  0  0  0  0  0
   59.2059   35.3332   44.9442 H   0  0  0  0  0  0  0  0  0  0  0  0
   60.1140   34.7470   46.8200 C   0  0  0  0  0  0  0  0  0  0  0  0
   60.8004   35.6063   46.8400 H   0  0  0  0  0  0  0  0  0  0  0  0
   60.1320   33.8160   47.8620 C   0  0  0  0  0  0  0  0  0  0  0  0
   60.8338   33.9471   48.6989 H   0  0  0  0  0  0  0  0  0  0  0  0
   59.2600   32.7130   47.8490 C   0  0  0  0  0  0  0  0  0  0  0  0
   59.2740   31.7260   48.9570 C   0  0  0  0  0  0  0  0  0  0  0  0
   60.4100   31.0270   49.2400 N   0  0  0  0  0  0  0  0  0  0  0  0
   60.4580   30.1250   50.2550 C   0  0  0  0  0  0  0  0  0  0  0  0
   61.5290   29.5010   50.4800 O   0  0  0  0  0  0  0  0  0  0  0  0
   59.3170   29.9050   51.0370 C   0  0  0  0  0  0  0  0  0  0  0  0
   59.2760   29.0060   52.1090 C   0  0  0  0  0  0  0  0  0  0  0  0
   60.1685   28.4200   52.3736 H   0  0  0  0  0  0  0  0  0  0  0  0
   58.1280   28.8610   52.8210 N   0  0  0  0  0  0  0  0  0  0  0  0
   57.0040   29.5680   52.5150 C   0  0  0  0  0  0  0  0  0  0  0  0
   55.8000   29.3950   53.2910 N   0  0  0  0  0  0  0  0  0  0  0  0
   54.5470   30.0110   52.8380 C   0  0  0  0  0  0  0  0  0  0  0  0
   54.5287   31.0659   53.1492 H   0  0  0  0  0  0  0  0  0  0  0  0
   54.4902   29.9388   51.7418 H   0  0  0  0  0  0  0  0  0  0  0  0
   53.3440   29.2850   53.4460 C   0  0  0  0  0  0  0  0  0  0  0  0
   52.4279   29.8487   53.2156 H   0  0  0  0  0  0  0  0  0  0  0  0
   53.2878   28.2735   53.0174 H   0  0  0  0  0  0  0  0  0  0  0  0
   53.4820   29.1770   54.8490 O   0  0  0  0  0  0  0  0  0  0  0  0
   54.5750   28.3340   55.1500 C   0  0  0  0  0  0  0  0  0  0  0  0
   54.6132   28.1685   56.2368 H   0  0  0  0  0  0  0  0  0  0  0  0
   54.4385   27.3799   54.6199 H   0  0  0  0  0  0  0  0  0  0  0  0
   55.8950   28.9630   54.6920 C   0  0  0  0  0  0  0  0  0  0  0  0
   56.1198   29.8341   55.3250 H   0  0  0  0  0  0  0  0  0  0  0  0
   56.6956   28.2138   54.7799 H   0  0  0  0  0  0  0  0  0  0  0  0
   57.0280   30.4430   51.4700 N   0  0  0  0  0  0  0  0  0  0  0  0
   58.1530   30.6280   50.7330 C   0  0  0  0  0  0  0  0  0  0  0  0
   58.1560   31.5170   49.7070 N   0  0  0  0  0  0  0  0  0  0  0  0
   58.3770   32.5580   46.7640 C   0  0  0  0  0  0  0  0  0  0  0  0
   57.6897   31.6994   46.7410 H   0  0  0  0  0  0  0  0  0  0  0  0
   56.1920   29.0550   44.6320 C   0  0  0  0  0  0  0  0  0  0  0  0
   55.1421   29.1925   44.9299 H   0  0  0  0  0  0  0  0  0  0  0  0
   57.0420   28.2020   45.4920 C   0  0  0  0  0  0  0  0  0  0  0  0
   58.4160   28.4690   45.6380 C   0  0  0  0  0  0  0  0  0  0  0  0
   58.8586   29.3471   45.1450 H   0  0  0  0  0  0  0  0  0  0  0  0
   59.2210   27.6230   46.4070 C   0  0  0  0  0  0  0  0  0  0  0  0
   60.2949   27.8355   46.5147 H   0  0  0  0  0  0  0  0  0  0  0  0
   58.6640   26.5080   47.0390 C   0  0  0  0  0  0  0  0  0  0  0  0
   59.2961   25.8525   47.6560 H   0  0  0  0  0  0  0  0  0  0  0  0
   57.3040   26.2260   46.8870 C   0  0  0  0  0  0  0  0  0  0  0  0
   56.8678   25.3456   47.3815 H   0  0  0  0  0  0  0  0  0  0  0  0
   56.4950   27.0610   46.1070 C   0  0  0  0  0  0  0  0  0  0  0  0
   55.1460   26.7580   45.9580 O   0  0  0  0  0  0  0  0  0  0  0  0
  1  2  1  0
  2  3  1  0
  3  4  2  0
  3  5  1  0
  5  6  1  0
  5  7  1  0
  7  8  1  0
  7  9  1  0
  7 10  1  0
 10 11  2  0
 11 12  1  0
 11 13  1  0
 13 14  1  0
 13 15  2  0
 15 16  1  0
 15 17  1  0
 17 18  1  0
 18 19  2  0
 19 20  1  0
 20 21  2  0
 20 22  1  0
 22 23  2  0
 23 24  1  0
 23 25  1  0
 25 26  2  0
 26 27  1  0
 27 28  1  0
 28 29  1  0
 28 30  1  0
 28 31  1  0
 31 32  1  0
 31 33  1  0
 31 34  1  0
 34 35  1  0
 35 36  1  0
 35 37  1  0
 35 38  1  0
 38 39  1  0
 38 40  1  0
 26 41  1  0
 41 42  2  0
 42 43  1  0
 17 44  2  0
 44 45  1  0
  2 46  2  0
 46 47  1  0
 46 48  1  0
 48 49  2  0
 49 50  1  0
 49 51  1  0
 51 52  1  0
 51 53  2  0
 53 54  1  0
 53 55  1  0
 55 56  1  0
 55 57  2  0
 57 58  1  0
 44 10  1  0
 57 48  1  0
 43 18  1  0
 42 22  1  0
 38 27  1  0
M  CHG  2  43  -1  58  -1
M  END
>  <UniqueID>  (81) 
76

>  <SMILES>  (81) 
O=C(/C=C\c1ccccc1[O-])NCc1cccc(-c2nc(=O)c3cnc(N4CCOCC4)nc3[n-]2)c1

>  <Energy>  (81) 
76.15981930053559

>  <Genealogy>  (81) 
O=C(C=Cc1ccccc1[O-])NCc1cccc(-c2nc(=O)c3cnc(N4CCOCC4)nc3[n-]2)c1 (protonated)
O=C(/C=C\c1ccccc1[O-])NCc1cccc(-c2nc(=O)c3cnc(N4CCOCC4)nc3[n-]2)c1 (cis-trans isomerization)
O=C(/C=C\c1ccccc1[O-])NCc1cccc(-c2nc(=O)c3cnc(N4CCOCC4)nc3[n-]2)c1 (3D coordinates assigned)
O=C(/C=C\c1ccccc1[O-])NCc1cccc(-c2nc(=O)c3cnc(N4CCOCC4)nc3[n-]2)c1 (nonaromatic ring conformer: 76.15981930053559 kcal/mol)

>  <smiles>  (81) 
O=C(C=Cc1ccccc1O)NCc1cccc(-c2nc(=O)c3cnc(N4CCOCC4)nc3[nH]2)c1

>  <score_type>  (81) 
oracle

>  <origin>  (81) 
adg

>  <m_score__min__energy>  (81) 
-14.609999999999999

>  <m_primary>  (81) 
energy

$$$$
81:0
     RDKit          3D

 54 56  0  0  0  0  0  0  0  0999 V2000
   57.3360   34.3670   45.2290 C   0  0  0  0  0  0  0  0  0  0  0  0
   59.1130   34.4510   45.3000 S   0  0  0  0  0  0  0  0  0  0  0  0
   59.6550   34.2070   43.9210 O   0  0  0  0  0  0  0  0  0  0  0  0
   59.5580   35.8110   45.7650 O   0  0  0  0  0  0  0  0  0  0  0  0
   59.7240   33.2280   46.3690 N   0  0  0  0  0  0  0  0  0  0  0  0
   60.9850   33.3320   47.0620 C   0  0  0  0  0  0  0  0  0  0  0  0
   62.1510   33.7320   46.3820 C   0  0  0  0  0  0  0  0  0  0  0  0
   63.3700   33.8350   47.0590 C   0  0  0  0  0  0  0  0  0  0  0  0
   63.4450   33.5350   48.4180 C   0  0  0  0  0  0  0  0  0  0  0  0
   62.3000   33.1290   49.1070 C   0  0  0  0  0  0  0  0  0  0  0  0
   61.0720   33.0200   48.4390 C   0  0  0  0  0  0  0  0  0  0  0  0
   59.8790   32.6410   49.2110 C   0  0  0  0  0  0  0  0  0  0  0  0
   58.7360   32.8560   48.7280 O   0  0  0  0  0  0  0  0  0  0  0  0
   59.9960   32.0530   50.5120 N   0  0  0  0  0  0  0  0  0  0  0  0
   58.8500   31.5930   51.2890 C   0  0  0  0  0  0  0  0  0  0  0  0
   58.9100   30.0790   51.4730 C   0  0  0  0  0  0  0  0  0  0  0  0
   59.3080   29.4020   50.1950 C   0  0  0  0  0  0  0  0  0  0  0  0
   60.4690   28.6440   50.0630 C   0  0  0  0  0  0  0  0  0  0  0  0
   60.5140   28.0410   48.4930 S   0  0  0  0  0  0  0  0  0  0  0  0
   59.0490   28.7480   48.0620 C   0  0  0  0  0  0  0  0  0  0  0  0
   58.4370   28.6910   46.7030 C   0  0  0  0  0  0  0  0  0  0  0  0
   58.6450   30.2480   45.8540 S   0  0  0  0  0  0  0  0  0  0  0  0
   60.0880   30.6580   45.9400 O   0  0  0  0  0  0  0  0  0  0  0  0
   57.7980   31.2950   46.5230 O   0  0  0  0  0  0  0  0  0  0  0  0
   58.1500   30.1050   44.1340 C   0  0  0  0  0  0  0  0  0  0  0  0
   56.7810   29.4690   43.9730 C   0  0  0  0  0  0  0  0  0  0  0  0
   56.3030   29.9270   42.6040 C   0  0  0  0  0  0  0  0  0  0  0  0
   57.0190   31.2470   42.3170 C   0  0  0  0  0  0  0  0  0  0  0  0
   58.0280   31.4560   43.4420 C   0  0  0  0  0  0  0  0  0  0  0  0
   58.5230   29.4540   49.0840 N   0  0  0  0  0  0  0  0  0  0  0  0
   56.9287   34.3477   46.2506 H   0  0  0  0  0  0  0  0  0  0  0  0
   56.9483   35.2478   44.6962 H   0  0  0  0  0  0  0  0  0  0  0  0
   57.0331   33.4535   44.6962 H   0  0  0  0  0  0  0  0  0  0  0  0
   59.0670   32.4480   46.6020 H   0  0  0  0  0  0  0  0  0  0  0  0
   62.1026   33.9656   45.3082 H   0  0  0  0  0  0  0  0  0  0  0  0
   64.2727   34.1538   46.5173 H   0  0  0  0  0  0  0  0  0  0  0  0
   64.4055   33.6180   48.9476 H   0  0  0  0  0  0  0  0  0  0  0  0
   62.3619   32.8934   50.1797 H   0  0  0  0  0  0  0  0  0  0  0  0
   58.8613   32.0794   52.2755 H   0  0  0  0  0  0  0  0  0  0  0  0
   57.9256   31.8525   50.7523 H   0  0  0  0  0  0  0  0  0  0  0  0
   59.6479   29.8395   52.2528 H   0  0  0  0  0  0  0  0  0  0  0  0
   57.9125   29.7199   51.7662 H   0  0  0  0  0  0  0  0  0  0  0  0
   61.2222   28.4705   50.8457 H   0  0  0  0  0  0  0  0  0  0  0  0
   58.9229   27.8941   46.1209 H   0  0  0  0  0  0  0  0  0  0  0  0
   57.3615   28.4847   46.8069 H   0  0  0  0  0  0  0  0  0  0  0  0
   58.9442   29.4889   43.6870 H   0  0  0  0  0  0  0  0  0  0  0  0
   56.8556   28.3722   44.0112 H   0  0  0  0  0  0  0  0  0  0  0  0
   56.0883   29.7618   44.7758 H   0  0  0  0  0  0  0  0  0  0  0  0
   56.5629   29.1792   41.8403 H   0  0  0  0  0  0  0  0  0  0  0  0
   55.2104   30.0531   42.5844 H   0  0  0  0  0  0  0  0  0  0  0  0
   57.5377   31.1935   41.3485 H   0  0  0  0  0  0  0  0  0  0  0  0
   56.3036   32.0812   42.2689 H   0  0  0  0  0  0  0  0  0  0  0  0
   59.0005   31.7680   43.0334 H   0  0  0  0  0  0  0  0  0  0  0  0
   57.7058   32.2441   44.1385 H   0  0  0  0  0  0  0  0  0  0  0  0
  1  2  1  0
  2  3  2  0
  2  4  2  0
  2  5  1  0
  5  6  1  0
  6  7  2  0
  7  8  1  0
  8  9  2  0
  9 10  1  0
 10 11  2  0
 11 12  1  0
 12 13  2  0
 12 14  1  0
 14 15  1  0
 15 16  1  0
 16 17  1  0
 17 18  2  0
 18 19  1  0
 19 20  1  0
 20 21  1  0
 21 22  1  0
 22 23  2  0
 22 24  2  0
 22 25  1  0
 25 26  1  0
 26 27  1  0
 27 28  1  0
 28 29  1  0
 20 30  2  0
 11  6  1  0
 30 17  1  0
 29 25  1  0
  1 31  1  0
  1 32  1  0
  1 33  1  0
  5 34  1  0
  7 35  1  0
  8 36  1  0
  9 37  1  0
 10 38  1  0
 15 39  1  0
 15 40  1  0
 16 41  1  0
 16 42  1  0
 18 43  1  0
 21 44  1  0
 21 45  1  0
 25 46  1  0
 26 47  1  0
 26 48  1  0
 27 49  1  0
 27 50  1  0
 28 51  1  0
 28 52  1  0
 29 53  1  0
 29 54  1  0
M  CHG  1  14  -1
M  END
>  <UniqueID>  (82) 
77

>  <SMILES>  (82) 
CS(=O)(=O)Nc1ccccc1C(=O)[N-]CCc1csc(CS(=O)(=O)C2CCCC2)n1

>  <Energy>  (82) 
75.04409031464624

>  <Genealogy>  (82) 
CS(=O)(=O)Nc1ccccc1C(=O)[N-]CCc1csc(CS(=O)(=O)C2CCCC2)n1 (protonated)
CS(=O)(=O)Nc1ccccc1C(=O)[N-]CCc1csc(CS(=O)(=O)C2CCCC2)n1 (3D coordinates assigned)
CS(=O)(=O)Nc1ccccc1C(=O)[N-]CCc1csc(CS(=O)(=O)C2CCCC2)n1 (nonaromatic ring conformer: 75.04409031464624 kcal/mol)

>  <smiles>  (82) 
CS(=O)(=O)Nc1ccccc1C(=O)NCCc1csc(CS(=O)(=O)C2CCCC2)n1

>  <score_type>  (82) 
oracle

>  <origin>  (82) 
adg

>  <m_score__min__energy>  (82) 
-11.58

>  <m_primary>  (82) 
energy

$$$$
82:0
     RDKit          3D

 54 56  0  0  1  0  0  0  0  0999 V2000
   56.2780   29.5330   42.5280 C   0  0  0  0  0  0  0  0  0  0  0  0
   56.8980   30.4050   43.5070 N   0  0  0  0  0  0  0  0  0  0  0  0
   56.9390   30.0390   44.8000 C   0  0  0  0  0  0  0  0  0  0  0  0
   56.3370   28.7440   45.1620 C   0  0  0  0  0  0  0  0  0  0  0  0
   57.2030   27.6090   45.0710 N   0  0  0  0  0  0  0  0  0  0  0  0
   56.7650   26.3330   45.5230 C   0  0  0  0  0  0  0  0  0  0  0  0
   55.6040   26.2600   45.9970 O   0  0  0  0  0  0  0  0  0  0  0  0
   57.6080   25.1450   45.4520 C   0  0  0  0  0  0  0  0  0  0  0  0
   58.9580   25.1540   45.7350 C   0  0  0  0  0  0  0  0  0  0  0  0
   59.7240   24.0060   45.6580 C   0  0  0  0  0  0  0  0  0  0  0  0
   59.1310   22.8170   45.2860 C   0  0  0  0  0  0  0  0  0  0  0  0
   57.7840   22.7770   44.9970 C   0  0  0  0  0  0  0  0  0  0  0  0
   57.1200   21.5150   44.5980 C   0  0  0  0  0  0  0  0  0  0  0  0
   57.3990   20.3700   45.3140 O   0  0  0  0  0  0  0  0  0  0  0  0
   56.2900   21.5000   43.5860 N   0  0  0  0  0  0  0  0  0  0  0  0
   55.9800   20.3110   43.0060 O   0  0  0  0  0  0  0  0  0  0  0  0
   57.0470   23.9400   45.0850 C   0  0  0  0  0  0  0  0  0  0  0  0
   57.5120   30.8240   45.7590 N   0  0  0  0  0  0  0  0  0  0  0  0
   58.0750   32.0250   45.4610 C   0  0  0  0  0  0  0  0  0  0  0  0
   58.6460   32.7670   46.5540 C   0  0  0  0  0  0  0  0  0  0  0  0
   58.5280   32.2410   47.7140 O   0  0  0  0  0  0  0  0  0  0  0  0
   59.3140   33.9970   46.4970 N   0  0  0  0  0  0  0  0  0  0  0  0
   59.8690   34.6930   47.6470 C   0  0  0  0  0  0  0  0  0  0  0  0
   61.1850   34.2080   48.0680 C   0  0  0  0  0  0  0  0  0  0  0  0
   61.6630   34.1760   49.3420 C   0  0  0  0  0  0  0  0  0  0  0  0
   62.9240   33.6940   49.6580 C   0  0  0  0  0  0  0  0  0  0  0  0
   63.7280   33.2300   48.6390 C   0  0  0  0  0  0  0  0  0  0  0  0
   64.9650   32.7620   48.9800 F   0  0  0  0  0  0  0  0  0  0  0  0
   63.2910   33.2410   47.3330 C   0  0  0  0  0  0  0  0  0  0  0  0
   62.0340   33.7270   47.0660 C   0  0  0  0  0  0  0  0  0  0  0  0
   58.0340   32.3990   44.1470 C   0  0  0  0  0  0  0  0  0  0  0  0
   58.5710   33.5840   43.7430 O   0  0  0  0  0  0  0  0  0  0  0  0
   57.4490   31.5900   43.1860 C   0  0  0  0  0  0  0  0  0  0  0  0
   57.4290   31.9700   41.9700 O   0  0  0  0  0  0  0  0  0  0  0  0
   55.7156   28.7420   43.0456 H   0  0  0  0  0  0  0  0  0  0  0  0
   55.5921   30.1183   41.8979 H   0  0  0  0  0  0  0  0  0  0  0  0
   57.0561   29.0774   41.8979 H   0  0  0  0  0  0  0  0  0  0  0  0
   55.9817   28.8153   46.2006 H   0  0  0  0  0  0  0  0  0  0  0  0
   55.5372   28.5699   44.4271 H   0  0  0  0  0  0  0  0  0  0  0  0
   58.1570   27.7360   44.6670 H   0  0  0  0  0  0  0  0  0  0  0  0
   59.4374   26.0992   46.0296 H   0  0  0  0  0  0  0  0  0  0  0  0
   60.7984   24.0401   45.8916 H   0  0  0  0  0  0  0  0  0  0  0  0
   59.7343   21.8996   45.2200 H   0  0  0  0  0  0  0  0  0  0  0  0
   57.4040   19.4960   44.7690 H   0  0  0  0  0  0  0  0  0  0  0  0
   56.5240   19.4800   43.2220 H   0  0  0  0  0  0  0  0  0  0  0  0
   55.9721   23.9047   44.8538 H   0  0  0  0  0  0  0  0  0  0  0  0
   59.4360   34.4650   45.5810 H   0  0  0  0  0  0  0  0  0  0  0  0
   59.9600   35.7594   47.3932 H   0  0  0  0  0  0  0  0  0  0  0  0
   59.1826   34.5102   48.4869 H   0  0  0  0  0  0  0  0  0  0  0  0
   61.0221   34.5481   50.1549 H   0  0  0  0  0  0  0  0  0  0  0  0
   63.2756   33.6821   50.7002 H   0  0  0  0  0  0  0  0  0  0  0  0
   63.9340   32.8690   46.5218 H   0  0  0  0  0  0  0  0  0  0  0  0
   61.6817   33.7383   46.0240 H   0  0  0  0  0  0  0  0  0  0  0  0
   58.8090   33.8460   42.7970 H   0  0  0  0  0  0  0  0  0  0  0  0
  1  2  1  0
  2  3  1  0
  3  4  1  0
  4  5  1  0
  5  6  1  0
  6  7  2  0
  6  8  1  0
  8  9  2  0
  9 10  1  0
 10 11  2  0
 11 12  1  0
 12 13  1  0
 13 14  1  0
 13 15  2  0
 15 16  1  0
 12 17  2  0
  3 18  2  0
 18 19  1  0
 19 20  1  0
 20 21  2  0
 20 22  1  0
 22 23  1  0
 23 24  1  0
 24 25  2  0
 25 26  1  0
 26 27  2  0
 27 28  1  0
 27 29  1  0
 29 30  2  0
 19 31  2  0
 31 32  1  0
 31 33  1  0
 33 34  2  0
 33  2  1  0
 17  8  1  0
 30 24  1  0
  1 35  1  0
  1 36  1  0
  1 37  1  0
  4 38  1  0
  4 39  1  0
  5 40  1  0
  9 41  1  0
 10 42  1  0
 11 43  1  0
 14 44  1  0
 16 45  1  0
 17 46  1  0
 22 47  1  0
 23 48  1  0
 23 49  1  0
 25 50  1  0
 26 51  1  0
 29 52  1  0
 30 53  1  0
 32 54  1  0
M  END
>  <smiles>  (83) 
Cn1c(CNC(=O)c2cccc(C(O)=NO)c2)nc(C(=O)NCc2ccc(F)cc2)c(O)c1=O

>  <score_type>  (83) 
oracle

>  <origin>  (83) 
adg

>  <m_score__min__energy>  (83) 
-9.2599999999999998

>  <m_primary>  (83) 
energy

$$$$
83:0
     RDKit          3D

 57 59  0  0  0  0  0  0  0  0999 V2000
   62.9850   34.2250   49.7490 C   0  0  0  0  0  0  0  0  0  0  0  0
   63.0540   32.7120   49.5740 C   0  0  0  0  0  0  0  0  0  0  0  0
   61.7360   32.1750   49.1990 N   0  0  0  0  0  0  0  0  0  0  0  0
   61.0560   32.6260   48.0070 C   0  0  0  0  0  0  0  0  0  0  0  0
   61.7350   32.9650   46.9980 O   0  0  0  0  0  0  0  0  0  0  0  0
   59.6230   32.7270   47.9650 N   0  0  0  0  0  0  0  0  0  0  0  0
   58.8660   32.8390   46.7480 C   0  0  0  0  0  0  0  0  0  0  0  0
   58.6600   34.0840   46.1270 C   0  0  0  0  0  0  0  0  0  0  0  0
   57.9360   34.1650   44.9340 C   0  0  0  0  0  0  0  0  0  0  0  0
   57.4220   33.0080   44.3440 C   0  0  0  0  0  0  0  0  0  0  0  0
   57.6410   31.7600   44.9390 C   0  0  0  0  0  0  0  0  0  0  0  0
   56.9800   30.3110   44.1850 S   0  0  0  0  0  0  0  0  0  0  0  0
   56.9120   30.4860   42.6920 O   0  0  0  0  0  0  0  0  0  0  0  0
   55.5890   30.0890   44.7100 O   0  0  0  0  0  0  0  0  0  0  0  0
   57.9900   28.9400   44.5740 N   0  0  0  0  0  0  0  0  0  0  0  0
   57.5850   28.3230   45.8630 C   0  0  0  0  0  0  0  0  0  0  0  0
   58.5100   28.7020   47.0270 C   0  0  0  0  0  0  0  0  0  0  0  0
   59.9620   28.2820   46.7410 C   0  0  0  0  0  0  0  0  0  0  0  0
   60.3110   28.3350   45.2420 C   0  0  0  0  0  0  0  0  0  0  0  0
   59.4150   29.3330   44.5010 C   0  0  0  0  0  0  0  0  0  0  0  0
   58.3680   31.6780   46.1360 C   0  0  0  0  0  0  0  0  0  0  0  0
   61.1530   31.1260   49.9940 C   0  0  0  0  0  0  0  0  0  0  0  0
   61.8410   29.9210   50.1990 C   0  0  0  0  0  0  0  0  0  0  0  0
   61.2650   28.9040   50.9620 C   0  0  0  0  0  0  0  0  0  0  0  0
   60.0000   29.0790   51.5260 C   0  0  0  0  0  0  0  0  0  0  0  0
   59.2920   30.2810   51.3400 C   0  0  0  0  0  0  0  0  0  0  0  0
   57.9460   30.4540   51.9530 C   0  0  0  0  0  0  0  0  0  0  0  0
   57.7740   30.9170   53.3690 C   0  0  0  0  0  0  0  0  0  0  0  0
   56.9130   30.2090   51.2730 O   0  0  0  0  0  0  0  0  0  0  0  0
   59.8820   31.3000   50.5680 C   0  0  0  0  0  0  0  0  0  0  0  0
   62.9738   34.4699   50.8213 H   0  0  0  0  0  0  0  0  0  0  0  0
   63.8629   34.6892   49.2760 H   0  0  0  0  0  0  0  0  0  0  0  0
   62.0685   34.6074   49.2760 H   0  0  0  0  0  0  0  0  0  0  0  0
   63.7807   32.4719   48.7839 H   0  0  0  0  0  0  0  0  0  0  0  0
   63.3649   32.2579   50.5264 H   0  0  0  0  0  0  0  0  0  0  0  0
   59.1090   32.8490   48.8660 H   0  0  0  0  0  0  0  0  0  0  0  0
   59.0703   34.9976   46.5819 H   0  0  0  0  0  0  0  0  0  0  0  0
   57.7705   35.1430   44.4584 H   0  0  0  0  0  0  0  0  0  0  0  0
   56.8443   33.0776   43.4105 H   0  0  0  0  0  0  0  0  0  0  0  0
   56.5642   28.6542   46.1045 H   0  0  0  0  0  0  0  0  0  0  0  0
   57.6444   27.2317   45.7380 H   0  0  0  0  0  0  0  0  0  0  0  0
   58.4737   29.7915   47.1745 H   0  0  0  0  0  0  0  0  0  0  0  0
   58.1665   28.1775   47.9308 H   0  0  0  0  0  0  0  0  0  0  0  0
   60.6378   28.9591   47.2839 H   0  0  0  0  0  0  0  0  0  0  0  0
   60.0782   27.2397   47.0728 H   0  0  0  0  0  0  0  0  0  0  0  0
   61.3611   28.6422   45.1284 H   0  0  0  0  0  0  0  0  0  0  0  0
   60.1512   27.3357   44.8109 H   0  0  0  0  0  0  0  0  0  0  0  0
   59.5353   30.3274   44.9555 H   0  0  0  0  0  0  0  0  0  0  0  0
   59.7155   29.3473   43.4429 H   0  0  0  0  0  0  0  0  0  0  0  0
   58.5492   30.6965   46.5985 H   0  0  0  0  0  0  0  0  0  0  0  0
   62.8379   29.7770   49.7569 H   0  0  0  0  0  0  0  0  0  0  0  0
   61.8097   27.9614   51.1195 H   0  0  0  0  0  0  0  0  0  0  0  0
   59.5524   28.2697   52.1215 H   0  0  0  0  0  0  0  0  0  0  0  0
   58.0730   30.1123   54.0568 H   0  0  0  0  0  0  0  0  0  0  0  0
   58.4034   31.8019   53.5444 H   0  0  0  0  0  0  0  0  0  0  0  0
   56.7195   31.1764   53.5444 H   0  0  0  0  0  0  0  0  0  0  0  0
   59.3409   32.2449   50.4120 H   0  0  0  0  0  0  0  0  0  0  0  0
  1  2  1  0
  2  3  1  0
  3  4  1  0
  4  5  2  0
  4  6  1  0
  6  7  1  0
  7  8  2  0
  8  9  1  0
  9 10  2  0
 10 11  1  0
 11 12  1  0
 12 13  2  0
 12 14  2  0
 12 15  1  0
 15 16  1  0
 16 17  1  0
 17 18  1  0
 18 19  1  0
 19 20  1  0
 11 21  2  0
  3 22  1  0
 22 23  2  0
 23 24  1  0
 24 25  2  0
 25 26  1  0
 26 27  1  0
 27 28  1  0
 27 29  2  0
 26 30  2  0
 21  7  1  0
 30 22  1  0
 20 15  1  0
  1 31  1  0
  1 32  1  0
  1 33  1  0
  2 34  1  0
  2 35  1  0
  6 36  1  0
  8 37  1  0
  9 38  1  0
 10 39  1  0
 16 40  1  0
 16 41  1  0
 17 42  1  0
 17 43  1  0
 18 44  1  0
 18 45  1  0
 19 46  1  0
 19 47  1  0
 20 48  1  0
 20 49  1  0
 21 50  1  0
 23 51  1  0
 24 52  1  0
 25 53  1  0
 28 54  1  0
 28 55  1  0
 28 56  1  0
 30 57  1  0
M  END
>  <UniqueID>  (84) 
78

>  <SMILES>  (84) 
CCN(C(=O)Nc1cccc(S(=O)(=O)N2CCCCC2)c1)c1cccc(C(C)=O)c1

>  <Energy>  (84) 
70.30859098320437

>  <Genealogy>  (84) 
CCN(C(=O)Nc1cccc(S(=O)(=O)N2CCCCC2)c1)c1cccc(C(C)=O)c1 (3D coordinates assigned)
CCN(C(=O)Nc1cccc(S(=O)(=O)N2CCCCC2)c1)c1cccc(C(C)=O)c1 (nonaromatic ring conformer: 70.30859098320437 kcal/mol)

>  <smiles>  (84) 
CCN(C(=O)Nc1cccc(S(=O)(=O)N2CCCCC2)c1)c1cccc(C(C)=O)c1

>  <score_type>  (84) 
oracle

>  <origin>  (84) 
adg

>  <m_score__min__energy>  (84) 
-10.19

>  <m_primary>  (84) 
energy

$$$$
84:0
     RDKit          3D

 62 66  0  0  0  0  0  0  0  0999 V2000
   59.3050   28.7260   49.6820 O   0  0  0  0  0  0  0  0  0  0  0  0
   60.3440   29.0190   49.0340 C   0  0  0  0  0  0  0  0  0  0  0  0
   60.4480   28.5830   47.5980 C   0  0  0  0  0  0  0  0  0  0  0  0
   59.1050   28.4430   47.0170 N   0  0  0  0  0  0  0  0  0  0  0  0
   58.4160   27.1830   47.0880 C   0  0  0  0  0  0  0  0  0  0  0  0
   58.9200   26.2110   47.7170 O   0  0  0  0  0  0  0  0  0  0  0  0
   57.0500   27.0560   46.4800 C   0  0  2  0  0  0  0  0  0  0  0  0
   56.7650   25.6580   46.1490 N   0  0  0  0  0  0  0  0  0  0  0  0
   55.4300   25.1640   45.9540 C   0  0  0  0  0  0  0  0  0  0  0  0
   54.4590   25.9640   45.9020 O   0  0  0  0  0  0  0  0  0  0  0  0
   55.1890   23.7660   45.7550 N   0  0  0  0  0  0  0  0  0  0  0  0
   55.9070   22.9120   44.8530 C   0  0  0  0  0  0  0  0  0  0  0  0
   56.8160   21.9830   45.3770 C   0  0  0  0  0  0  0  0  0  0  0  0
   57.5460   21.1510   44.5230 C   0  0  0  0  0  0  0  0  0  0  0  0
   57.3850   21.2540   43.1380 C   0  0  0  0  0  0  0  0  0  0  0  0
   56.5010   22.1970   42.6060 C   0  0  0  0  0  0  0  0  0  0  0  0
   55.7710   23.0320   43.4580 C   0  0  0  0  0  0  0  0  0  0  0  0
   56.9700   27.9130   45.2100 C   0  0  0  0  0  0  0  0  0  0  0  0
   57.4260   29.2960   45.4530 N   0  0  0  0  0  0  0  0  0  0  0  0
   58.4970   29.5280   46.2830 C   0  0  0  0  0  0  0  0  0  0  0  0
   58.9790   30.7910   46.4290 N   0  0  0  0  0  0  0  0  0  0  0  0
   58.4490   31.8490   45.7680 C   0  0  0  0  0  0  0  0  0  0  0  0
   58.9960   33.1610   45.9840 N   0  0  0  0  0  0  0  0  0  0  0  0
   60.1920   33.4400   46.7720 C   0  0  0  0  0  0  0  0  0  0  0  0
   60.3990   34.9700   46.6760 C   0  0  0  0  0  0  0  0  0  0  0  0
   59.3830   35.4400   45.7970 O   0  0  0  0  0  0  0  0  0  0  0  0
   58.5890   34.3880   45.4070 C   0  0  0  0  0  0  0  0  0  0  0  0
   57.6510   34.5050   44.5750 O   0  0  0  0  0  0  0  0  0  0  0  0
   57.3610   31.6370   44.9180 C   0  0  0  0  0  0  0  0  0  0  0  0
   56.8680   30.3410   44.7600 C   0  0  0  0  0  0  0  0  0  0  0  0
   55.9050   30.1500   43.9670 O   0  0  0  0  0  0  0  0  0  0  0  0
   61.3880   29.7420   49.7040 N   0  0  0  0  0  0  0  0  0  0  0  0
   61.3430   31.1440   50.1100 C   0  0  0  0  0  0  0  0  0  0  0  0
   62.1720   31.9950   49.1850 C   0  0  0  0  0  0  0  0  0  0  0  0
   62.4240   33.3410   49.4980 C   0  0  0  0  0  0  0  0  0  0  0  0
   63.1840   34.1350   48.6370 C   0  0  0  0  0  0  0  0  0  0  0  0
   63.6880   33.5980   47.4510 C   0  0  0  0  0  0  0  0  0  0  0  0
   63.4300   32.2660   47.1220 C   0  0  0  0  0  0  0  0  0  0  0  0
   62.6720   31.4650   47.9820 C   0  0  0  0  0  0  0  0  0  0  0  0
   61.0146   29.3349   47.0291 H   0  0  0  0  0  0  0  0  0  0  0  0
   60.9647   27.6130   47.5515 H   0  0  0  0  0  0  0  0  0  0  0  0
   56.3042   27.4058   47.2090 H   0  0  0  0  0  0  0  0  0  0  0  0
   57.5660   25.0330   45.9050 H   0  0  0  0  0  0  0  0  0  0  0  0
   56.9558   21.9081   46.4655 H   0  0  0  0  0  0  0  0  0  0  0  0
   58.2479   20.4145   44.9412 H   0  0  0  0  0  0  0  0  0  0  0  0
   57.9538   20.5932   42.4673 H   0  0  0  0  0  0  0  0  0  0  0  0
   56.3793   22.2825   41.5161 H   0  0  0  0  0  0  0  0  0  0  0  0
   55.0886   23.7846   43.0361 H   0  0  0  0  0  0  0  0  0  0  0  0
   57.6045   27.4599   44.4340 H   0  0  0  0  0  0  0  0  0  0  0  0
   55.9188   27.9508   44.8883 H   0  0  0  0  0  0  0  0  0  0  0  0
   60.0427   33.1367   47.8188 H   0  0  0  0  0  0  0  0  0  0  0  0
   61.0658   32.8847   46.4003 H   0  0  0  0  0  0  0  0  0  0  0  0
   60.2938   35.4345   47.6675 H   0  0  0  0  0  0  0  0  0  0  0  0
   61.4043   35.2221   46.3074 H   0  0  0  0  0  0  0  0  0  0  0  0
   56.8997   32.4790   44.3812 H   0  0  0  0  0  0  0  0  0  0  0  0
   60.3004   31.4936   50.0844 H   0  0  0  0  0  0  0  0  0  0  0  0
   61.7505   31.2296   51.1282 H   0  0  0  0  0  0  0  0  0  0  0  0
   62.0205   33.7717   50.4263 H   0  0  0  0  0  0  0  0  0  0  0  0
   63.3860   35.1854   48.8936 H   0  0  0  0  0  0  0  0  0  0  0  0
   64.2887   34.2247   46.7754 H   0  0  0  0  0  0  0  0  0  0  0  0
   63.8236   31.8458   46.1847 H   0  0  0  0  0  0  0  0  0  0  0  0
   62.4663   30.4175   47.7168 H   0  0  0  0  0  0  0  0  0  0  0  0
  1  2  2  0
  2  3  1  0
  3  4  1  0
  4  5  1  0
  5  6  2  0
  5  7  1  0
  7  8  1  0
  8  9  1  0
  9 10  2  0
  9 11  1  0
 11 12  1  0
 12 13  2  0
 13 14  1  0
 14 15  2  0
 15 16  1  0
 16 17  2  0
  7 18  1  0
 18 19  1  0
 19 20  1  0
 20 21  2  0
 21 22  1  0
 22 23  1  0
 23 24  1  0
 24 25  1  0
 25 26  1  0
 26 27  1  0
 27 28  2  0
 22 29  2  0
 29 30  1  0
 30 31  2  0
  2 32  1  0
 32 33  1  0
 33 34  1  0
 34 35  2  0
 35 36  1  0
 36 37  2  0
 37 38  1  0
 38 39  2  0
 20  4  1  0
 27 23  1  0
 39 34  1  0
 17 12  1  0
 30 19  1  0
  3 40  1  0
  3 41  1  0
  7 42  1  1
  8 43  1  0
 13 44  1  0
 14 45  1  0
 15 46  1  0
 16 47  1  0
 17 48  1  0
 18 49  1  0
 18 50  1  0
 24 51  1  0
 24 52  1  0
 25 53  1  0
 25 54  1  0
 29 55  1  0
 33 56  1  0
 33 57  1  0
 35 58  1  0
 36 59  1  0
 37 60  1  0
 38 61  1  0
 39 62  1  0
M  CHG  2  11  -1  32  -1
M  END
>  <UniqueID>  (85) 
79

>  <SMILES>  (85) 
O=C(CN1C(=O)[C@H](NC(=O)[N-]c2ccccc2)Cn2c1nc(N1CCOC1=O)cc2=O)[N-]Cc1ccccc1

>  <Energy>  (85) 
89.66132680134106

>  <Genealogy>  (85) 
O=C(CN1C(=O)C(NC(=O)[N-]c2ccccc2)Cn2c1nc(N1CCOC1=O)cc2=O)[N-]Cc1ccccc1 (protonated)
O=C(CN1C(=O)[C@H](NC(=O)[N-]c2ccccc2)Cn2c1nc(N1CCOC1=O)cc2=O)[N-]Cc1ccccc1 (chirality)
O=C(CN1C(=O)[C@H](NC(=O)[N-]c2ccccc2)Cn2c1nc(N1CCOC1=O)cc2=O)[N-]Cc1ccccc1 (3D coordinates assigned)
O=C(CN1C(=O)[C@H](NC(=O)[N-]c2ccccc2)Cn2c1nc(N1CCOC1=O)cc2=O)[N-]Cc1ccccc1 (nonaromatic ring conformer: 89.66132680134106 kcal/mol)

>  <smiles>  (85) 
O=C(CN1C(=O)C(NC(=O)Nc2ccccc2)Cn2c1nc(N1CCOC1=O)cc2=O)NCc1ccccc1

>  <score_type>  (85) 
oracle

>  <origin>  (85) 
adg

>  <m_score__min__energy>  (85) 
-12.9

>  <m_primary>  (85) 
energy

$$$$
85:0
     RDKit          3D

 51 54  0  0  0  0  0  0  0  0999 V2000
   61.0910   27.9160   50.7180 C   0  0  0  0  0  0  0  0  0  0  0  0
   60.4910   29.1550   50.1200 C   0  0  0  0  0  0  0  0  0  0  0  0
   59.6120   29.9480   50.8720 C   0  0  0  0  0  0  0  0  0  0  0  0
   59.0740   31.1220   50.3290 C   0  0  0  0  0  0  0  0  0  0  0  0
   58.0840   31.9300   51.1140 C   0  0  0  0  0  0  0  0  0  0  0  0
   59.4130   31.4980   49.0210 C   0  0  0  0  0  0  0  0  0  0  0  0
   60.3320   30.7420   48.2700 C   0  0  0  0  0  0  0  0  0  0  0  0
   60.6750   31.1240   46.9190 N   0  0  0  0  0  0  0  0  0  0  0  0
   59.5180   31.6080   46.2060 C   0  0  0  0  0  0  0  0  0  0  0  0
   59.1360   32.9410   46.0020 C   0  0  0  0  0  0  0  0  0  0  0  0
   59.8820   34.1300   46.4710 C   0  0  0  0  0  0  0  0  0  0  0  0
   59.2570   35.1770   46.7820 O   0  0  0  0  0  0  0  0  0  0  0  0
   61.3120   34.0970   46.5410 N   0  0  0  0  0  0  0  0  0  0  0  0
   62.1070   33.8120   47.7000 C   0  0  0  0  0  0  0  0  0  0  0  0
   61.6690   34.1210   49.0010 C   0  0  0  0  0  0  0  0  0  0  0  0
   62.4670   33.8050   50.1060 C   0  0  0  0  0  0  0  0  0  0  0  0
   63.6980   33.1690   49.9220 C   0  0  0  0  0  0  0  0  0  0  0  0
   64.1280   32.8390   48.6340 C   0  0  0  0  0  0  0  0  0  0  0  0
   63.3320   33.1520   47.5290 C   0  0  0  0  0  0  0  0  0  0  0  0
   58.0030   32.9840   45.2460 N   0  0  0  0  0  0  0  0  0  0  0  0
   57.2740   34.1790   44.8130 C   0  0  0  0  0  0  0  0  0  0  0  0
   57.6960   31.7000   44.9470 C   0  0  0  0  0  0  0  0  0  0  0  0
   56.6450   31.2260   44.1510 C   0  0  0  0  0  0  0  0  0  0  0  0
   56.5280   29.8360   43.9660 C   0  0  0  0  0  0  0  0  0  0  0  0
   57.4530   28.9550   44.5610 C   0  0  0  0  0  0  0  0  0  0  0  0
   58.5060   29.4530   45.3460 C   0  0  0  0  0  0  0  0  0  0  0  0
   58.5960   30.8360   45.5210 C   0  0  0  0  0  0  0  0  0  0  0  0
   60.8530   29.5590   48.8270 C   0  0  0  0  0  0  0  0  0  0  0  0
   61.0575   27.9852   51.8153 H   0  0  0  0  0  0  0  0  0  0  0  0
   60.5193   27.0359   50.3885 H   0  0  0  0  0  0  0  0  0  0  0  0
   62.1360   27.8188   50.3885 H   0  0  0  0  0  0  0  0  0  0  0  0
   59.3432   29.6461   51.8950 H   0  0  0  0  0  0  0  0  0  0  0  0
   58.2625   31.7843   52.1896 H   0  0  0  0  0  0  0  0  0  0  0  0
   58.1996   32.9950   50.8641 H   0  0  0  0  0  0  0  0  0  0  0  0
   57.0638   31.6034   50.8641 H   0  0  0  0  0  0  0  0  0  0  0  0
   58.9552   32.3943   48.5771 H   0  0  0  0  0  0  0  0  0  0  0  0
   61.4090   31.8690   46.9090 H   0  0  0  0  0  0  0  0  0  0  0  0
   61.0780   30.2930   46.4300 H   0  0  0  0  0  0  0  0  0  0  0  0
   60.6962   34.6125   49.1498 H   0  0  0  0  0  0  0  0  0  0  0  0
   62.1252   34.0574   51.1206 H   0  0  0  0  0  0  0  0  0  0  0  0
   64.3282   32.9283   50.7909 H   0  0  0  0  0  0  0  0  0  0  0  0
   65.0938   32.3325   48.4899 H   0  0  0  0  0  0  0  0  0  0  0  0
   63.6688   32.8787   46.5181 H   0  0  0  0  0  0  0  0  0  0  0  0
   56.9320   34.7397   45.6954 H   0  0  0  0  0  0  0  0  0  0  0  0
   57.9381   34.8150   44.2093 H   0  0  0  0  0  0  0  0  0  0  0  0
   56.4046   33.8795   44.2093 H   0  0  0  0  0  0  0  0  0  0  0  0
   55.9315   31.9208   43.6839 H   0  0  0  0  0  0  0  0  0  0  0  0
   55.7083   29.4341   43.3523 H   0  0  0  0  0  0  0  0  0  0  0  0
   57.3498   27.8704   44.4097 H   0  0  0  0  0  0  0  0  0  0  0  0
   59.2376   28.7745   45.8089 H   0  0  0  0  0  0  0  0  0  0  0  0
   61.5522   28.9443   48.2412 H   0  0  0  0  0  0  0  0  0  0  0  0
  1  2  1  0
  2  3  2  0
  3  4  1  0
  4  5  1  0
  4  6  2  0
  6  7  1  0
  7  8  1  0
  8  9  1  0
  9 10  2  0
 10 11  1  0
 11 12  2  0
 11 13  1  0
 13 14  1  0
 14 15  2  0
 15 16  1  0
 16 17  2  0
 17 18  1  0
 18 19  2  0
 10 20  1  0
 20 21  1  0
 20 22  1  0
 22 23  2  0
 23 24  1  0
 24 25  2  0
 25 26  1  0
 26 27  2  0
  7 28  2  0
 28  2  1  0
 27  9  1  0
 19 14  1  0
 27 22  1  0
  1 29  1  0
  1 30  1  0
  1 31  1  0
  3 32  1  0
  5 33  1  0
  5 34  1  0
  5 35  1  0
  6 36  1  0
  8 37  1  0
  8 38  1  0
 15 39  1  0
 16 40  1  0
 17 41  1  0
 18 42  1  0
 19 43  1  0
 21 44  1  0
 21 45  1  0
 21 46  1  0
 23 47  1  0
 24 48  1  0
 25 49  1  0
 26 50  1  0
 28 51  1  0
M  CHG  2   8   1  13  -1
M  END
>  <UniqueID>  (86) 
80

>  <SMILES>  (86) 
Cc1cc(C)cc([NH2+]c2c(C(=O)[N-]c3ccccc3)n(C)c3ccccc23)c1

>  <Energy>  (86) 
97.96011571907809

>  <Genealogy>  (86) 
Cc1cc(C)cc([NH2+]c2c(C(=O)[N-]c3ccccc3)n(C)c3ccccc23)c1 (protonated)
Cc1cc(C)cc([NH2+]c2c(C(=O)[N-]c3ccccc3)n(C)c3ccccc23)c1 (3D coordinates assigned)
Cc1cc(C)cc([NH2+]c2c(C(=O)[N-]c3ccccc3)n(C)c3ccccc23)c1 (optimized conformer: 97.96011571907809 kcal/mol)

>  <smiles>  (86) 
Cc1cc(C)cc(Nc2c(C(=O)Nc3ccccc3)n(C)c3ccccc23)c1

>  <score_type>  (86) 
oracle

>  <origin>  (86) 
adg

>  <m_score__min__energy>  (86) 
-7.3700000000000001

>  <m_primary>  (86) 
energy

$$$$
86:0
     RDKit          3D

 43 45  0  0  0  0  0  0  0  0999 V2000
   56.3030   29.7270   42.7710 C   0  0  0  0  0  0  0  0  0  0  0  0
   56.8970   30.8450   43.5580 C   0  0  0  0  0  0  0  0  0  0  0  0
   57.7460   31.8180   43.0650 C   0  0  0  0  0  0  0  0  0  0  0  0
   58.0420   32.5950   44.1650 C   0  0  0  0  0  0  0  0  0  0  0  0
   58.8750   33.8400   44.1410 C   0  0  0  0  0  0  0  0  0  0  0  0
   57.3860   32.0980   45.2400 N   0  0  0  0  0  0  0  0  0  0  0  0
   57.4120   32.6040   46.6140 C   0  0  0  0  0  0  0  0  0  0  0  0
   58.5110   31.9200   47.4470 C   0  0  2  0  0  0  0  0  0  0  0  0
   59.0250   32.8760   48.5220 C   0  0  0  0  0  0  0  0  0  0  0  0
   59.6360   31.5300   46.5940 N   0  0  0  0  0  0  0  0  0  0  0  0
   60.3120   30.2640   46.5890 C   0  0  0  0  0  0  0  0  0  0  0  0
   61.5600   30.2520   46.4210 O   0  0  0  0  0  0  0  0  0  0  0  0
   59.6050   28.9810   46.7820 C   0  0  0  0  0  0  0  0  0  0  0  0
   60.1480   28.0070   47.6340 C   0  0  0  0  0  0  0  0  0  0  0  0
   59.5090   26.7780   47.8050 C   0  0  0  0  0  0  0  0  0  0  0  0
   58.2900   26.5180   47.1640 C   0  0  0  0  0  0  0  0  0  0  0  0
   57.7130   27.5110   46.3420 C   0  0  0  0  0  0  0  0  0  0  0  0
   58.3650   28.7390   46.1710 C   0  0  0  0  0  0  0  0  0  0  0  0
   56.4510   27.2740   45.7050 N   0  0  0  0  0  0  0  0  0  0  0  0
   55.6860   26.1240   46.0600 C   0  0  0  0  0  0  0  0  0  0  0  0
   54.5160   25.9770   45.6220 O   0  0  0  0  0  0  0  0  0  0  0  0
   56.2440   25.1580   46.9500 N   0  0  0  0  0  0  0  0  0  0  0  0
   57.6700   25.1450   47.2660 C   0  0  0  0  0  0  0  0  0  0  0  0
   56.6970   31.0270   44.8780 N   0  0  0  0  0  0  0  0  0  0  0  0
   55.9000   28.9685   43.4582 H   0  0  0  0  0  0  0  0  0  0  0  0
   55.4922   30.1152   42.1370 H   0  0  0  0  0  0  0  0  0  0  0  0
   57.0785   29.2724   42.1370 H   0  0  0  0  0  0  0  0  0  0  0  0
   58.1034   31.9436   42.0323 H   0  0  0  0  0  0  0  0  0  0  0  0
   59.0881   34.1585   45.1721 H   0  0  0  0  0  0  0  0  0  0  0  0
   59.8207   33.6384   43.6166 H   0  0  0  0  0  0  0  0  0  0  0  0
   58.3278   34.6372   43.6166 H   0  0  0  0  0  0  0  0  0  0  0  0
   57.6021   33.6872   46.5923 H   0  0  0  0  0  0  0  0  0  0  0  0
   56.4398   32.3860   47.0803 H   0  0  0  0  0  0  0  0  0  0  0  0
   58.0759   31.0245   47.9147 H   0  0  0  0  0  0  0  0  0  0  0  0
   58.8028   32.4627   49.5169 H   0  0  0  0  0  0  0  0  0  0  0  0
   60.1122   33.0015   48.4116 H   0  0  0  0  0  0  0  0  0  0  0  0
   58.5301   33.8522   48.4116 H   0  0  0  0  0  0  0  0  0  0  0  0
   61.0851   28.2139   48.1716 H   0  0  0  0  0  0  0  0  0  0  0  0
   59.9646   26.0092   48.4464 H   0  0  0  0  0  0  0  0  0  0  0  0
   57.9007   29.5209   45.5520 H   0  0  0  0  0  0  0  0  0  0  0  0
   56.0460   27.9820   45.0510 H   0  0  0  0  0  0  0  0  0  0  0  0
   57.8019   24.7723   48.2925 H   0  0  0  0  0  0  0  0  0  0  0  0
   58.1715   24.4932   46.5355 H   0  0  0  0  0  0  0  0  0  0  0  0
  1  2  1  0
  2  3  1  0
  3  4  2  0
  4  5  1  0
  4  6  1  0
  6  7  1  0
  7  8  1  0
  8  9  1  0
  8 10  1  0
 10 11  1  0
 11 12  2  0
 11 13  1  0
 13 14  2  0
 14 15  1  0
 15 16  2  0
 16 17  1  0
 17 18  2  0
 17 19  1  0
 19 20  1  0
 20 21  2  0
 20 22  1  0
 22 23  1  0
  6 24  1  0
 24  2  2  0
 18 13  1  0
 23 16  1  0
  1 25  1  0
  1 26  1  0
  1 27  1  0
  3 28  1  0
  5 29  1  0
  5 30  1  0
  5 31  1  0
  7 32  1  0
  7 33  1  0
  8 34  1  1
  9 35  1  0
  9 36  1  0
  9 37  1  0
 14 38  1  0
 15 39  1  0
 18 40  1  0
 19 41  1  0
 23 42  1  0
 23 43  1  0
M  CHG  2  10  -1  22  -1
M  END
>  <UniqueID>  (87) 
81

>  <SMILES>  (87) 
Cc1cc(C)n(C[C@H](C)[N-]C(=O)c2ccc3c(c2)NC(=O)[N-]C3)n1

>  <Energy>  (87) 
69.17222083218017

>  <Genealogy>  (87) 
Cc1cc(C)n(CC(C)[N-]C(=O)c2ccc3c(c2)NC(=O)[N-]C3)n1 (protonated)
Cc1cc(C)n(C[C@H](C)[N-]C(=O)c2ccc3c(c2)NC(=O)[N-]C3)n1 (chirality)
Cc1cc(C)n(C[C@H](C)[N-]C(=O)c2ccc3c(c2)NC(=O)[N-]C3)n1 (3D coordinates assigned)
Cc1cc(C)n(C[C@H](C)[N-]C(=O)c2ccc3c(c2)NC(=O)[N-]C3)n1 (nonaromatic ring conformer: 69.17222083218017 kcal/mol)

>  <smiles>  (87) 
Cc1cc(C)n(CC(C)NC(=O)c2ccc3c(c2)NC(=O)NC3)n1

>  <score_type>  (87) 
oracle

>  <origin>  (87) 
adg

>  <m_score__min__energy>  (87) 
-11.17

>  <m_primary>  (87) 
energy

$$$$
87:0
     RDKit          3D

 52 55  0  0  0  0  0  0  0  0999 V2000
   56.1090   30.0490   43.5980 C   0  0  0  0  0  0  0  0  0  0  0  0
   56.8940   29.5810   44.5720 C   0  0  0  0  0  0  0  0  0  0  0  0
   57.0620   28.2690   44.8230 N   0  0  0  0  0  0  0  0  0  0  0  0
   57.8740   28.1690   45.8980 C   0  0  0  0  0  0  0  0  0  0  0  0
   58.2710   26.9840   46.3960 C   0  0  0  0  0  0  0  0  0  0  0  0
   57.3900   25.8210   46.6570 C   0  0  0  0  0  0  0  0  0  0  0  0
   57.7900   24.6500   47.1830 N   0  0  0  0  0  0  0  0  0  0  0  0
   56.6540   23.9240   47.2480 C   0  0  0  0  0  0  0  0  0  0  0  0
   56.6260   22.7470   47.6950 O   0  0  0  0  0  0  0  0  0  0  0  0
   55.5490   24.5620   46.8080 N   0  0  0  0  0  0  0  0  0  0  0  0
   56.0270   25.7620   46.4390 C   0  0  0  0  0  0  0  0  0  0  0  0
   55.2220   26.7640   45.8990 O   0  0  0  0  0  0  0  0  0  0  0  0
   58.2280   29.4400   46.3410 C   0  0  0  0  0  0  0  0  0  0  0  0
   57.6140   30.3350   45.4870 C   0  0  0  0  0  0  0  0  0  0  0  0
   57.7330   31.8010   45.5680 C   0  0  0  0  0  0  0  0  0  0  0  0
   56.6780   32.4940   45.5990 O   0  0  0  0  0  0  0  0  0  0  0  0
   59.0180   32.4440   45.6720 N   0  0  0  0  0  0  0  0  0  0  0  0
   60.0910   31.7870   46.4370 C   0  0  0  0  0  0  0  0  0  0  0  0
   61.2740   32.7350   46.7040 C   0  0  0  0  0  0  0  0  0  0  0  0
   60.8330   34.1390   47.1930 C   0  0  0  0  0  0  0  0  0  0  0  0
   60.6210   34.1730   48.6930 C   0  0  0  0  0  0  0  0  0  0  0  0
   59.5280   34.6030   49.1530 O   0  0  0  0  0  0  0  0  0  0  0  0
   61.6700   33.8040   49.6100 N   0  0  0  0  0  0  0  0  0  0  0  0
   61.5090   33.8850   51.0520 C   0  0  0  0  0  0  0  0  0  0  0  0
   62.7950   33.3230   51.6460 C   0  0  0  0  0  0  0  0  0  0  0  0
   63.8110   33.3070   50.5060 C   0  0  0  0  0  0  0  0  0  0  0  0
   63.0010   33.3730   49.2170 C   0  0  0  0  0  0  0  0  0  0  0  0
   59.5800   34.6880   46.4590 C   0  0  0  0  0  0  0  0  0  0  0  0
   59.1890   33.8390   45.2480 C   0  0  0  0  0  0  0  0  0  0  0  0
   56.0128   31.1337   43.4425 H   0  0  0  0  0  0  0  0  0  0  0  0
   55.5587   29.3497   42.9513 H   0  0  0  0  0  0  0  0  0  0  0  0
   56.6370   27.4760   44.2880 H   0  0  0  0  0  0  0  0  0  0  0  0
   59.3398   26.8684   46.6292 H   0  0  0  0  0  0  0  0  0  0  0  0
   54.3870   27.0940   46.3680 H   0  0  0  0  0  0  0  0  0  0  0  0
   58.8695   29.6834   47.2008 H   0  0  0  0  0  0  0  0  0  0  0  0
   59.6833   31.4480   47.4008 H   0  0  0  0  0  0  0  0  0  0  0  0
   60.4626   30.9401   45.8415 H   0  0  0  0  0  0  0  0  0  0  0  0
   61.9176   32.2830   47.4731 H   0  0  0  0  0  0  0  0  0  0  0  0
   61.8045   32.8726   45.7503 H   0  0  0  0  0  0  0  0  0  0  0  0
   61.6691   34.8069   46.9384 H   0  0  0  0  0  0  0  0  0  0  0  0
   61.3682   34.9305   51.3635 H   0  0  0  0  0  0  0  0  0  0  0  0
   60.6266   33.3235   51.3929 H   0  0  0  0  0  0  0  0  0  0  0  0
   63.1500   33.9647   52.4659 H   0  0  0  0  0  0  0  0  0  0  0  0
   62.6409   32.3171   52.0636 H   0  0  0  0  0  0  0  0  0  0  0  0
   64.4818   34.1756   50.5802 H   0  0  0  0  0  0  0  0  0  0  0  0
   64.4391   32.4046   50.5401 H   0  0  0  0  0  0  0  0  0  0  0  0
   63.4482   34.0968   48.5198 H   0  0  0  0  0  0  0  0  0  0  0  0
   62.9774   32.4011   48.7024 H   0  0  0  0  0  0  0  0  0  0  0  0
   58.7368   34.7040   47.1652 H   0  0  0  0  0  0  0  0  0  0  0  0
   59.8227   35.6970   46.0943 H   0  0  0  0  0  0  0  0  0  0  0  0
   58.2450   34.2135   44.8254 H   0  0  0  0  0  0  0  0  0  0  0  0
   59.9781   33.8992   44.4840 H   0  0  0  0  0  0  0  0  0  0  0  0
  1  2  2  0
  2  3  1  0
  3  4  1  0
  4  5  2  3
  5  6  1  0
  6  7  1  0
  7  8  1  0
  8  9  2  0
  8 10  1  0
 10 11  1  0
 11 12  1  0
  4 13  1  0
 13 14  2  0
 14 15  1  0
 15 16  2  0
 15 17  1  0
 17 18  1  0
 18 19  1  0
 19 20  1  0
 20 21  1  0
 21 22  2  0
 21 23  1  0
 23 24  1  0
 24 25  1  0
 25 26  1  0
 26 27  1  0
 20 28  1  0
 28 29  1  0
 14  2  1  0
 29 17  1  0
 11  6  2  0
 27 23  1  0
  1 30  1  0
  1 31  1  0
  3 32  1  0
  5 33  1  0
 12 34  1  0
 13 35  1  0
 18 36  1  0
 18 37  1  0
 19 38  1  0
 19 39  1  0
 20 40  1  0
 24 41  1  0
 24 42  1  0
 25 43  1  0
 25 44  1  0
 26 45  1  0
 26 46  1  0
 27 47  1  0
 27 48  1  0
 28 49  1  0
 28 50  1  0
 29 51  1  0
 29 52  1  0
M  CHG  2   7  -1  10  -1
M  END
>  <UniqueID>  (88) 
82

>  <SMILES>  (88) 
C=c1[nH]c(=Cc2[n-]c(=O)[n-]c2O)cc1C(=O)N1CCC(C(=O)N2CCCC2)CC1

>  <Energy>  (88) 
120.52007840177977

>  <Genealogy>  (88) 
C=c1[nH]c(=Cc2[n-]c(=O)[n-]c2O)cc1C(=O)N1CCC(C(=O)N2CCCC2)CC1 (protonated)
C=c1[nH]c(=Cc2[n-]c(=O)[n-]c2O)cc1C(=O)N1CCC(C(=O)N2CCCC2)CC1 (3D coordinates assigned)
C=c1[nH]c(=Cc2[n-]c(=O)[n-]c2O)cc1C(=O)N1CCC(C(=O)N2CCCC2)CC1 (nonaromatic ring conformer: 120.52007840177977 kcal/mol)

>  <smiles>  (88) 
C=c1[nH]c(=Cc2[nH]c(=O)[nH]c2O)cc1C(=O)N1CCC(C(=O)N2CCCC2)CC1

>  <score_type>  (88) 
oracle

>  <origin>  (88) 
adg

>  <m_score__min__energy>  (88) 
-14.32

>  <m_primary>  (88) 
energy

$$$$
