0:0
     RDKit          3D

 55 58  0  0  0  0  0  0  0  0999 V2000
   59.6390   35.5570   46.3900 C   0  0  0  0  0  0  0  0  0  0  0  0
   59.0270   34.2460   45.9900 C   0  0  0  0  0  0  0  0  0  0  0  0
   59.0810   33.8230   44.6530 C   0  0  0  0  0  0  0  0  0  0  0  0
   58.4830   32.6180   44.2700 C   0  0  0  0  0  0  0  0  0  0  0  0
   57.8110   31.8320   45.2140 C   0  0  0  0  0  0  0  0  0  0  0  0
   57.0860   30.3060   44.7150 S   0  0  0  0  0  0  0  0  0  0  0  0
   57.5300   30.0010   43.3120 O   0  0  0  0  0  0  0  0  0  0  0  0
   55.5850   30.4170   44.7280 O   0  0  0  0  0  0  0  0  0  0  0  0
   57.6020   29.0460   45.8110 N   0  0  1  0  0  0  0  0  0  0  0  0
   56.9520   27.7610   45.4810 C   0  0  0  0  0  0  0  0  0  0  0  0
   58.0020   26.8990   44.7750 C   0  0  0  0  0  0  0  0  0  0  0  0
   59.2560   27.6260   45.0550 C   0  0  0  0  0  0  0  0  0  0  0  0
   59.0000   28.7830   45.6370 C   0  0  0  0  0  0  0  0  0  0  0  0
   60.0550   29.6650   46.1780 C   0  0  0  0  0  0  0  0  0  0  0  0
   61.1810   29.7060   45.6140 O   0  0  0  0  0  0  0  0  0  0  0  0
   59.8040   30.4520   47.3510 N   0  0  0  0  0  0  0  0  0  0  0  0
   60.6740   31.4540   47.8960 C   0  0  0  0  0  0  0  0  0  0  0  0
   61.6730   32.0650   47.1140 C   0  0  0  0  0  0  0  0  0  0  0  0
   62.4730   33.0750   47.6540 C   0  0  0  0  0  0  0  0  0  0  0  0
   62.2760   33.4960   48.9700 C   0  0  0  0  0  0  0  0  0  0  0  0
   61.2740   32.9140   49.7470 C   0  0  0  0  0  0  0  0  0  0  0  0
   60.4670   31.8960   49.2140 C   0  0  0  0  0  0  0  0  0  0  0  0
   59.4480   31.2940   50.0220 N   0  0  0  0  0  0  0  0  0  0  0  0
   58.1490   31.9550   50.1310 C   0  0  0  0  0  0  0  0  0  0  0  0
   57.4460   31.5000   51.4130 C   0  0  0  0  0  0  0  0  0  0  0  0
   57.3980   30.0870   51.4860 O   0  0  0  0  0  0  0  0  0  0  0  0
   58.7090   29.5690   51.5940 C   0  0  0  0  0  0  0  0  0  0  0  0
   59.5220   29.8640   50.3280 C   0  0  0  0  0  0  0  0  0  0  0  0
   57.7450   32.2570   46.5480 C   0  0  0  0  0  0  0  0  0  0  0  0
   58.3420   33.4630   46.9330 C   0  0  0  0  0  0  0  0  0  0  0  0
   59.6716   35.6268   47.4873 H   0  0  0  0  0  0  0  0  0  0  0  0
   60.6608   35.6225   45.9879 H   0  0  0  0  0  0  0  0  0  0  0  0
   59.0331   36.3824   45.9879 H   0  0  0  0  0  0  0  0  0  0  0  0
   59.5957   34.4417   43.9031 H   0  0  0  0  0  0  0  0  0  0  0  0
   58.5409   32.2864   43.2228 H   0  0  0  0  0  0  0  0  0  0  0  0
   57.3990   29.3220   46.8000 H   0  0  0  0  0  0  0  0  0  0  0  0
   56.6101   27.2631   46.4003 H   0  0  0  0  0  0  0  0  0  0  0  0
   56.0742   27.9181   44.8369 H   0  0  0  0  0  0  0  0  0  0  0  0
   58.0296   25.8829   45.1954 H   0  0  0  0  0  0  0  0  0  0  0  0
   57.8059   26.7621   43.7013 H   0  0  0  0  0  0  0  0  0  0  0  0
   60.2629   27.2555   44.8126 H   0  0  0  0  0  0  0  0  0  0  0  0
   61.8243   31.7453   46.0724 H   0  0  0  0  0  0  0  0  0  0  0  0
   63.2595   33.5392   47.0409 H   0  0  0  0  0  0  0  0  0  0  0  0
   62.9112   34.2872   49.3949 H   0  0  0  0  0  0  0  0  0  0  0  0
   61.1156   33.2539   50.7811 H   0  0  0  0  0  0  0  0  0  0  0  0
   58.2944   33.0449   50.1605 H   0  0  0  0  0  0  0  0  0  0  0  0
   57.5301   31.6890   49.2614 H   0  0  0  0  0  0  0  0  0  0  0  0
   57.9964   31.8875   52.2830 H   0  0  0  0  0  0  0  0  0  0  0  0
   56.4166   31.8878   51.4071 H   0  0  0  0  0  0  0  0  0  0  0  0
   59.2085   30.0313   52.4582 H   0  0  0  0  0  0  0  0  0  0  0  0
   58.6455   28.4785   51.7237 H   0  0  0  0  0  0  0  0  0  0  0  0
   60.5715   29.5779   50.4914 H   0  0  0  0  0  0  0  0  0  0  0  0
   59.1113   29.2874   49.4861 H   0  0  0  0  0  0  0  0  0  0  0  0
   57.2225   31.6409   47.2946 H   0  0  0  0  0  0  0  0  0  0  0  0
   58.2743   33.7987   47.9783 H   0  0  0  0  0  0  0  0  0  0  0  0
  1  2  1  0
  2  3  2  0
  3  4  1  0
  4  5  2  0
  5  6  1  0
  6  7  2  0
  6  8  2  0
  6  9  1  0
  9 10  1  0
 10 11  1  0
 11 12  1  0
 12 13  2  0
 13 14  1  0
 14 15  2  0
 14 16  1  0
 16 17  1  0
 17 18  2  0
 18 19  1  0
 19 20  2  0
 20 21  1  0
 21 22  2  0
 22 23  1  0
 23 24  1  0
 24 25  1  0
 25 26  1  0
 26 27  1  0
 27 28  1  0
  5 29  1  0
 29 30  2  0
 30  2  1  0
 13  9  1  0
 22 17  1  0
 28 23  1  0
  1 31  1  0
  1 32  1  0
  1 33  1  0
  3 34  1  0
  4 35  1  0
  9 36  1  1
 10 37  1  0
 10 38  1  0
 11 39  1  0
 11 40  1  0
 12 41  1  0
 18 42  1  0
 19 43  1  0
 20 44  1  0
 21 45  1  0
 24 46  1  0
 24 47  1  0
 25 48  1  0
 25 49  1  0
 27 50  1  0
 27 51  1  0
 28 52  1  0
 28 53  1  0
 29 54  1  0
 30 55  1  0
M  CHG  2   9   1  16  -1
M  END
>  <UniqueID>  (1) 
1

>  <SMILES>  (1) 
Cc1ccc(S(=O)(=O)[N@H+]2CCC=C2C(=O)[N-]c2ccccc2N2CCOCC2)cc1

>  <Energy>  (1) 
71.38880780977937

>  <Genealogy>  (1) 
Cc1ccc(S(=O)(=O)[NH+]2CCC=C2C(=O)[N-]c2ccccc2N2CCOCC2)cc1 (protonated)
Cc1ccc(S(=O)(=O)[N@H+]2CCC=C2C(=O)[N-]c2ccccc2N2CCOCC2)cc1 (chirality)
Cc1ccc(S(=O)(=O)[N@H+]2CCC=C2C(=O)[N-]c2ccccc2N2CCOCC2)cc1 (3D coordinates assigned)
Cc1ccc(S(=O)(=O)[N@H+]2CCC=C2C(=O)[N-]c2ccccc2N2CCOCC2)cc1 (nonaromatic ring conformer: 71.38880780977937 kcal/mol)

>  <smiles>  (1) 
Cc1ccc(S(=O)(=O)N2CCC=C2C(=O)Nc2ccccc2N2CCOCC2)cc1

>  <score_type>  (1) 
oracle

>  <origin>  (1) 
adg

>  <m_score__min__energy>  (1) 
-10.16

>  <m_primary>  (1) 
energy

$$$$
1:0
     RDKit          3D

 37 38  0  0  0  0  0  0  0  0999 V2000
   55.8370   28.9470   45.1190 O   0  0  0  0  0  0  0  0  0  0  0  0
   57.0810   28.9030   45.3190 C   0  0  0  0  0  0  0  0  0  0  0  0
   57.9320   29.9110   44.7660 N   0  0  0  0  0  0  0  0  0  0  0  0
   57.3730   31.5100   44.4140 S   0  0  0  0  0  0  0  0  0  0  0  0
   55.8820   31.5750   44.6010 O   0  0  0  0  0  0  0  0  0  0  0  0
   57.6890   31.8430   42.9840 O   0  0  0  0  0  0  0  0  0  0  0  0
   58.1830   32.6610   45.4720 C   0  0  0  0  0  0  0  0  0  0  0  0
   58.8700   33.7510   44.9180 C   0  0  0  0  0  0  0  0  0  0  0  0
   59.5310   34.6600   45.7510 C   0  0  0  0  0  0  0  0  0  0  0  0
   59.5140   34.4810   47.1370 C   0  0  0  0  0  0  0  0  0  0  0  0
   58.8350   33.3920   47.6930 C   0  0  0  0  0  0  0  0  0  0  0  0
   58.1710   32.4820   46.8630 C   0  0  0  0  0  0  0  0  0  0  0  0
   57.6660   27.7600   46.1090 C   0  0  1  0  0  0  0  0  0  0  0  0
   57.0350   26.4170   45.6810 C   0  0  0  0  0  0  0  0  0  0  0  0
   55.2780   26.3300   45.9990 S   0  0  0  0  0  0  0  0  0  0  0  0
   59.2110   27.7700   46.0380 C   0  0  0  0  0  0  0  0  0  0  0  0
   59.8110   28.8510   46.9030 C   0  0  0  0  0  0  0  0  0  0  0  0
   59.4970   28.9160   48.2710 C   0  0  0  0  0  0  0  0  0  0  0  0
   60.0730   29.9010   49.0800 C   0  0  0  0  0  0  0  0  0  0  0  0
   60.9660   30.8240   48.5300 C   0  0  0  0  0  0  0  0  0  0  0  0
   61.2860   30.7640   47.1710 C   0  0  0  0  0  0  0  0  0  0  0  0
   60.7130   29.7810   46.3590 C   0  0  0  0  0  0  0  0  0  0  0  0
   58.8891   33.8913   43.8272 H   0  0  0  0  0  0  0  0  0  0  0  0
   60.0649   35.5169   45.3145 H   0  0  0  0  0  0  0  0  0  0  0  0
   60.0346   35.1965   47.7905 H   0  0  0  0  0  0  0  0  0  0  0  0
   58.8229   33.2508   48.7838 H   0  0  0  0  0  0  0  0  0  0  0  0
   57.6389   31.6252   47.3020 H   0  0  0  0  0  0  0  0  0  0  0  0
   57.4123   27.8917   47.1712 H   0  0  0  0  0  0  0  0  0  0  0  0
   57.2020   26.2805   44.6024 H   0  0  0  0  0  0  0  0  0  0  0  0
   57.5142   25.6265   46.2772 H   0  0  0  0  0  0  0  0  0  0  0  0
   59.5882   26.7939   46.3772 H   0  0  0  0  0  0  0  0  0  0  0  0
   59.5013   27.9693   44.9959 H   0  0  0  0  0  0  0  0  0  0  0  0
   58.7956   28.1896   48.7074 H   0  0  0  0  0  0  0  0  0  0  0  0
   59.8227   29.9489   50.1501 H   0  0  0  0  0  0  0  0  0  0  0  0
   61.4176   31.5986   49.1672 H   0  0  0  0  0  0  0  0  0  0  0  0
   61.9897   31.4912   46.7397 H   0  0  0  0  0  0  0  0  0  0  0  0
   60.9692   29.7353   45.2902 H   0  0  0  0  0  0  0  0  0  0  0  0
  1  2  2  0
  2  3  1  0
  3  4  1  0
  4  5  2  0
  4  6  2  0
  4  7  1  0
  7  8  2  0
  8  9  1  0
  9 10  2  0
 10 11  1  0
 11 12  2  0
  2 13  1  0
 13 14  1  0
 14 15  1  0
 13 16  1  0
 16 17  1  0
 17 18  2  0
 18 19  1  0
 19 20  2  0
 20 21  1  0
 21 22  2  0
 12  7  1  0
 22 17  1  0
  8 23  1  0
  9 24  1  0
 10 25  1  0
 11 26  1  0
 12 27  1  0
 13 28  1  1
 14 29  1  0
 14 30  1  0
 16 31  1  0
 16 32  1  0
 18 33  1  0
 19 34  1  0
 20 35  1  0
 21 36  1  0
 22 37  1  0
M  CHG  2   3  -1  15  -1
M  END
>  <UniqueID>  (2) 
2

>  <SMILES>  (2) 
O=C([N-]S(=O)(=O)c1ccccc1)[C@@H](C[S-])Cc1ccccc1

>  <Energy>  (2) 
36.63417964693341

>  <Genealogy>  (2) 
O=C([N-]S(=O)(=O)c1ccccc1)C(C[S-])Cc1ccccc1 (protonated)
O=C([N-]S(=O)(=O)c1ccccc1)[C@@H](C[S-])Cc1ccccc1 (chirality)
O=C([N-]S(=O)(=O)c1ccccc1)[C@@H](C[S-])Cc1ccccc1 (3D coordinates assigned)
O=C([N-]S(=O)(=O)c1ccccc1)[C@@H](C[S-])Cc1ccccc1 (optimized conformer: 36.63417964693341 kcal/mol)

>  <smiles>  (2) 
O=C(NS(=O)(=O)c1ccccc1)C(CS)Cc1ccccc1

>  <score_type>  (2) 
oracle

>  <origin>  (2) 
adg

>  <m_score__min__energy>  (2) 
-11.06

>  <m_primary>  (2) 
energy

$$$$
2:0
     RDKit          3D

 54 57  0  0  0  0  0  0  0  0999 V2000
   62.3270   32.4740   48.6540 C   0  0  0  0  0  0  0  0  0  0  0  0
   60.9870   33.0460   48.5160 N   0  0  0  0  0  0  0  0  0  0  0  0
   60.0090   32.8720   49.5640 C   0  0  0  0  0  0  0  0  0  0  0  0
   59.0890   31.8080   49.5200 C   0  0  0  0  0  0  0  0  0  0  0  0
   58.1330   31.6530   50.5290 C   0  0  0  0  0  0  0  0  0  0  0  0
   58.0810   32.5590   51.5890 C   0  0  0  0  0  0  0  0  0  0  0  0
   58.9840   33.6220   51.6430 C   0  0  0  0  0  0  0  0  0  0  0  0
   59.9400   33.7820   50.6360 C   0  0  0  0  0  0  0  0  0  0  0  0
   60.5820   33.9070   47.0560 S   0  0  0  0  0  0  0  0  0  0  0  0
   61.7480   33.8890   46.1080 O   0  0  0  0  0  0  0  0  0  0  0  0
   60.2510   35.3340   47.3940 O   0  0  0  0  0  0  0  0  0  0  0  0
   59.2140   33.1370   46.2530 C   0  0  0  0  0  0  0  0  0  0  0  0
   58.1020   33.8930   45.8560 C   0  0  0  0  0  0  0  0  0  0  0  0
   57.0110   33.2670   45.2500 C   0  0  0  0  0  0  0  0  0  0  0  0
   57.0230   31.8870   45.0270 C   0  0  0  0  0  0  0  0  0  0  0  0
   55.9060   31.2770   44.4690 O   0  0  0  0  0  0  0  0  0  0  0  0
   58.1510   31.1270   45.3910 C   0  0  0  0  0  0  0  0  0  0  0  0
   58.1960   29.7080   45.1900 N   0  0  0  0  0  0  0  0  0  0  0  0
   57.2200   28.7660   45.6490 C   0  0  0  0  0  0  0  0  0  0  0  0
   56.0470   28.8380   45.1960 O   0  0  0  0  0  0  0  0  0  0  0  0
   57.5160   27.7830   46.7490 C   0  0  0  0  0  0  0  0  0  0  0  0
   57.1890   26.4310   46.3040 N   0  0  0  0  0  0  0  0  0  0  0  0
   58.0390   25.3830   46.2140 C   0  0  0  0  0  0  0  0  0  0  0  0
   59.4010   25.4570   46.4740 O   0  0  0  0  0  0  0  0  0  0  0  0
   57.3560   24.2430   45.8390 C   0  0  0  0  0  0  0  0  0  0  0  0
   56.0400   24.6130   45.6680 C   0  0  0  0  0  0  0  0  0  0  0  0
   55.9640   25.9530   45.9910 C   0  0  0  0  0  0  0  0  0  0  0  0
   54.8000   26.7110   46.0100 O   0  0  0  0  0  0  0  0  0  0  0  0
   54.9360   23.6530   45.3440 C   0  0  0  0  0  0  0  0  0  0  0  0
   55.5160   22.3550   44.7450 C   0  0  0  0  0  0  0  0  0  0  0  0
   56.7310   21.8460   45.5500 C   0  0  0  0  0  0  0  0  0  0  0  0
   57.8840   22.8700   45.5590 C   0  0  0  0  0  0  0  0  0  0  0  0
   59.2260   31.7540   46.0320 C   0  0  0  0  0  0  0  0  0  0  0  0
   62.5728   32.3691   49.7210 H   0  0  0  0  0  0  0  0  0  0  0  0
   62.3551   31.4855   48.1723 H   0  0  0  0  0  0  0  0  0  0  0  0
   63.0603   33.1375   48.1723 H   0  0  0  0  0  0  0  0  0  0  0  0
   59.1221   31.0924   48.6852 H   0  0  0  0  0  0  0  0  0  0  0  0
   57.4210   30.8156   50.4869 H   0  0  0  0  0  0  0  0  0  0  0  0
   57.3286   32.4355   52.3818 H   0  0  0  0  0  0  0  0  0  0  0  0
   58.9432   34.3351   52.4796 H   0  0  0  0  0  0  0  0  0  0  0  0
   60.6442   34.6258   50.6814 H   0  0  0  0  0  0  0  0  0  0  0  0
   58.0891   34.9803   46.0221 H   0  0  0  0  0  0  0  0  0  0  0  0
   56.1375   33.8627   44.9465 H   0  0  0  0  0  0  0  0  0  0  0  0
   58.5840   27.8344   47.0073 H   0  0  0  0  0  0  0  0  0  0  0  0
   56.9093   28.0319   47.6321 H   0  0  0  0  0  0  0  0  0  0  0  0
   54.3821   23.4128   46.2635 H   0  0  0  0  0  0  0  0  0  0  0  0
   54.2617   24.1169   44.6091 H   0  0  0  0  0  0  0  0  0  0  0  0
   54.7352   21.5802   44.7505 H   0  0  0  0  0  0  0  0  0  0  0  0
   55.8509   22.5710   43.7197 H   0  0  0  0  0  0  0  0  0  0  0  0
   56.4163   21.6555   46.5867 H   0  0  0  0  0  0  0  0  0  0  0  0
   57.0961   20.9254   45.0712 H   0  0  0  0  0  0  0  0  0  0  0  0
   58.6089   22.5937   46.3389 H   0  0  0  0  0  0  0  0  0  0  0  0
   58.3726   22.8681   44.5735 H   0  0  0  0  0  0  0  0  0  0  0  0
   60.0870   31.1557   46.3648 H   0  0  0  0  0  0  0  0  0  0  0  0
  1  2  1  0
  2  3  1  0
  3  4  2  0
  4  5  1  0
  5  6  2  0
  6  7  1  0
  7  8  2  0
  2  9  1  0
  9 10  2  0
  9 11  2  0
  9 12  1  0
 12 13  2  0
 13 14  1  0
 14 15  2  0
 15 16  1  0
 15 17  1  0
 17 18  1  0
 18 19  1  0
 19 20  2  0
 19 21  1  0
 21 22  1  0
 22 23  1  0
 23 24  1  0
 23 25  2  0
 25 26  1  0
 26 27  2  0
 27 28  1  0
 26 29  1  0
 29 30  1  0
 30 31  1  0
 31 32  1  0
 17 33  2  0
  8  3  1  0
 33 12  1  0
 27 22  1  0
 32 25  1  0
  1 34  1  0
  1 35  1  0
  1 36  1  0
  4 37  1  0
  5 38  1  0
  6 39  1  0
  7 40  1  0
  8 41  1  0
 13 42  1  0
 14 43  1  0
 21 44  1  0
 21 45  1  0
 29 46  1  0
 29 47  1  0
 30 48  1  0
 30 49  1  0
 31 50  1  0
 31 51  1  0
 32 52  1  0
 32 53  1  0
 33 54  1  0
M  CHG  4  16  -1  18  -1  24  -1  28  -1
M  END
>  <UniqueID>  (3) 
3

>  <SMILES>  (3) 
CN(c1ccccc1)S(=O)(=O)c1ccc([O-])c([N-]C(=O)Cn2c([O-])c3c(c2[O-])CCCC3)c1

>  <Energy>  (3) 
95.72235595850807

>  <Genealogy>  (3) 
CN(c1ccccc1)S(=O)(=O)c1ccc([O-])c([N-]C(=O)Cn2c([O-])c3c(c2[O-])CCCC3)c1 (protonated)
CN(c1ccccc1)S(=O)(=O)c1ccc([O-])c([N-]C(=O)Cn2c([O-])c3c(c2[O-])CCCC3)c1 (3D coordinates assigned)
CN(c1ccccc1)S(=O)(=O)c1ccc([O-])c([N-]C(=O)Cn2c([O-])c3c(c2[O-])CCCC3)c1 (nonaromatic ring conformer: 95.72235595850807 kcal/mol)

>  <smiles>  (3) 
CN(c1ccccc1)S(=O)(=O)c1ccc(O)c(NC(=O)Cn2c(O)c3c(c2O)CCCC3)c1

>  <score_type>  (3) 
oracle

>  <origin>  (3) 
adg

>  <m_score__min__energy>  (3) 
-17.18

>  <m_primary>  (3) 
energy

$$$$
3:0
     RDKit          3D

 62 66  0  0  0  0  0  0  0  0999 V2000
   64.2630   33.0990   48.8810 C   0  0  0  0  0  0  0  0  0  0  0  0
   62.9810   33.2040   47.6440 S   0  0  0  0  0  0  0  0  0  0  0  0
   62.6120   31.8140   47.1980 O   0  0  0  0  0  0  0  0  0  0  0  0
   63.4920   33.9800   46.4610 O   0  0  0  0  0  0  0  0  0  0  0  0
   61.5320   34.0150   48.3010 C   0  0  0  0  0  0  0  0  0  0  0  0
   60.3680   33.8680   47.3610 C   0  0  0  0  0  0  0  0  0  0  0  0
   60.0690   34.8790   46.4350 C   0  0  0  0  0  0  0  0  0  0  0  0
   59.0120   34.7190   45.5330 C   0  0  0  0  0  0  0  0  0  0  0  0
   58.2510   33.5460   45.5430 C   0  0  0  0  0  0  0  0  0  0  0  0
   58.5500   32.5190   46.4530 C   0  0  0  0  0  0  0  0  0  0  0  0
   57.7730   31.3110   46.4910 N   0  0  0  0  0  0  0  0  0  0  0  0
   57.4970   30.5690   45.4590 C   0  0  0  0  0  0  0  0  0  0  0  0
   58.0090   29.3090   45.3420 N   0  0  0  0  0  0  0  0  0  0  0  0
   57.6980   28.5040   44.2950 C   0  0  0  0  0  0  0  0  0  0  0  0
   58.2590   27.2170   44.2510 O   0  0  0  0  0  0  0  0  0  0  0  0
   57.8920   26.1560   45.0880 C   0  0  0  0  0  0  0  0  0  0  0  0
   58.0900   26.3080   46.4600 C   0  0  0  0  0  0  0  0  0  0  0  0
   57.7640   25.2830   47.3450 C   0  0  0  0  0  0  0  0  0  0  0  0
   57.2530   24.0660   46.8690 C   0  0  0  0  0  0  0  0  0  0  0  0
   57.0420   22.9690   47.7730 N   0  0  0  0  0  0  0  0  0  0  0  0
   55.7560   22.4640   48.1620 C   0  0  0  0  0  0  0  0  0  0  0  0
   55.3420   22.6750   49.3290 O   0  0  0  0  0  0  0  0  0  0  0  0
   54.9080   21.7610   47.2400 N   0  0  0  0  0  0  0  0  0  0  0  0
   53.5970   22.1850   46.8400 C   0  0  0  0  0  0  0  0  0  0  0  0
   52.4730   21.9430   47.6490 C   0  0  0  0  0  0  0  0  0  0  0  0
   51.2150   22.4130   47.2610 C   0  0  0  0  0  0  0  0  0  0  0  0
   51.0670   23.1210   46.0660 C   0  0  0  0  0  0  0  0  0  0  0  0
   52.1840   23.3550   45.2460 C   0  0  0  0  0  0  0  0  0  0  0  0
   52.0540   24.0680   44.0560 O   0  0  0  0  0  0  0  0  0  0  0  0
   53.4400   22.8710   45.6280 C   0  0  0  0  0  0  0  0  0  0  0  0
   57.0120   23.9040   45.4860 C   0  0  0  0  0  0  0  0  0  0  0  0
   56.4680   22.7080   44.9800 C   0  0  0  0  0  0  0  0  0  0  0  0
   56.2850   22.5400   43.6060 C   0  0  0  0  0  0  0  0  0  0  0  0
   56.6590   23.5470   42.7190 C   0  0  0  0  0  0  0  0  0  0  0  0
   57.2030   24.7390   43.1980 C   0  0  0  0  0  0  0  0  0  0  0  0
   57.3630   24.9450   44.5830 C   0  0  0  0  0  0  0  0  0  0  0  0
   56.8130   28.9770   43.3120 C   0  0  0  0  0  0  0  0  0  0  0  0
   56.2980   30.2690   43.4430 C   0  0  0  0  0  0  0  0  0  0  0  0
   56.6440   31.0350   44.5110 N   0  0  0  0  0  0  0  0  0  0  0  0
   59.5990   32.6910   47.3680 C   0  0  0  0  0  0  0  0  0  0  0  0
   63.8099   33.1361   49.8827 H   0  0  0  0  0  0  0  0  0  0  0  0
   64.8113   32.1529   48.7614 H   0  0  0  0  0  0  0  0  0  0  0  0
   64.9580   33.9432   48.7614 H   0  0  0  0  0  0  0  0  0  0  0  0
   61.2731   33.5626   49.2697 H   0  0  0  0  0  0  0  0  0  0  0  0
   61.7523   35.0854   48.4261 H   0  0  0  0  0  0  0  0  0  0  0  0
   60.6684   35.8012   46.4184 H   0  0  0  0  0  0  0  0  0  0  0  0
   58.7788   35.5181   44.8139 H   0  0  0  0  0  0  0  0  0  0  0  0
   57.4163   33.4274   44.8365 H   0  0  0  0  0  0  0  0  0  0  0  0
   58.5085   27.2484   46.8479 H   0  0  0  0  0  0  0  0  0  0  0  0
   57.9083   25.4288   48.4257 H   0  0  0  0  0  0  0  0  0  0  0  0
   52.5837   21.3827   48.5891 H   0  0  0  0  0  0  0  0  0  0  0  0
   50.3388   22.2247   47.8988 H   0  0  0  0  0  0  0  0  0  0  0  0
   50.0767   23.4951   45.7670 H   0  0  0  0  0  0  0  0  0  0  0  0
   51.9300   25.0760   44.0530 H   0  0  0  0  0  0  0  0  0  0  0  0
   54.3094   23.0299   44.9731 H   0  0  0  0  0  0  0  0  0  0  0  0
   56.1853   21.9007   45.6716 H   0  0  0  0  0  0  0  0  0  0  0  0
   55.8436   21.6084   43.2222 H   0  0  0  0  0  0  0  0  0  0  0  0
   56.5249   23.4017   41.6369 H   0  0  0  0  0  0  0  0  0  0  0  0
   57.5091   25.5233   42.4900 H   0  0  0  0  0  0  0  0  0  0  0  0
   56.5316   28.3438   42.4576 H   0  0  0  0  0  0  0  0  0  0  0  0
   55.6117   30.6668   42.6809 H   0  0  0  0  0  0  0  0  0  0  0  0
   59.8219   31.8983   48.0973 H   0  0  0  0  0  0  0  0  0  0  0  0
  1  2  1  0
  2  3  2  0
  2  4  2  0
  2  5  1  0
  5  6  1  0
  6  7  2  0
  7  8  1  0
  8  9  2  0
  9 10  1  0
 10 11  1  0
 11 12  2  3
 12 13  1  0
 13 14  2  0
 14 15  1  0
 15 16  1  0
 16 17  2  0
 17 18  1  0
 18 19  2  0
 19 20  1  0
 20 21  1  0
 21 22  2  0
 21 23  1  0
 23 24  1  0
 24 25  2  0
 25 26  1  0
 26 27  2  0
 27 28  1  0
 28 29  1  0
 28 30  2  0
 19 31  1  0
 31 32  2  0
 32 33  1  0
 33 34  2  0
 34 35  1  0
 35 36  2  0
 14 37  1  0
 37 38  2  0
 38 39  1  0
 10 40  2  0
 40  6  1  0
 39 12  1  0
 36 16  1  0
 30 24  1  0
 36 31  1  0
  1 41  1  0
  1 42  1  0
  1 43  1  0
  5 44  1  0
  5 45  1  0
  7 46  1  0
  8 47  1  0
  9 48  1  0
 17 49  1  0
 18 50  1  0
 25 51  1  0
 26 52  1  0
 27 53  1  0
 29 54  1  0
 30 55  1  0
 32 56  1  0
 33 57  1  0
 34 58  1  0
 35 59  1  0
 37 60  1  0
 38 61  1  0
 40 62  1  0
M  CHG  3  20  -1  23  -1  39  -1
M  END
>  <UniqueID>  (4) 
4

>  <SMILES>  (4) 
CS(=O)(=O)Cc1cccc(N=c2nc(Oc3ccc([N-]C(=O)[N-]c4cccc(O)c4)c4ccccc34)cc[n-]2)c1

>  <Energy>  (4) 
88.65473983092853

>  <Genealogy>  (4) 
CS(=O)(=O)Cc1cccc(N=c2nc(Oc3ccc([N-]C(=O)[N-]c4cccc(O)c4)c4ccccc34)cc[n-]2)c1 (protonated)
CS(=O)(=O)Cc1cccc(N=c2nc(Oc3ccc([N-]C(=O)[N-]c4cccc(O)c4)c4ccccc34)cc[n-]2)c1 (3D coordinates assigned)
CS(=O)(=O)Cc1cccc(N=c2nc(Oc3ccc([N-]C(=O)[N-]c4cccc(O)c4)c4ccccc34)cc[n-]2)c1 (optimized conformer: 88.65473983092853 kcal/mol)

>  <smiles>  (4) 
CS(=O)(=O)Cc1cccc(N=c2nc(Oc3ccc(NC(=O)Nc4cccc(O)c4)c4ccccc34)cc[nH]2)c1

>  <score_type>  (4) 
oracle

>  <origin>  (4) 
adg

>  <m_score__min__energy>  (4) 
-15.550000000000001

>  <m_primary>  (4) 
energy

$$$$
4:0
     RDKit          3D

 42 44  0  0  0  0  0  0  0  0999 V2000
   64.2571   33.0555   46.6173 H   0  0  0  0  0  0  0  0  0  0  0  0
   63.4450   33.3810   47.2840 C   0  0  0  0  0  0  0  0  0  0  0  0
   62.1970   33.7170   46.7510 C   0  0  0  0  0  0  0  0  0  0  0  0
   62.0336   33.6670   45.6644 H   0  0  0  0  0  0  0  0  0  0  0  0
   61.1490   34.1190   47.6000 C   0  0  0  0  0  0  0  0  0  0  0  0
   59.8590   34.4950   47.0940 N   0  0  0  0  0  0  0  0  0  0  0  0
   59.6000   35.3770   45.9970 C   0  0  0  0  0  0  0  0  0  0  0  0
   60.0200   36.5660   46.0190 O   0  0  0  0  0  0  0  0  0  0  0  0
   58.9480   34.8590   44.8320 N   0  0  0  0  0  0  0  0  0  0  0  0
   58.3750   33.5520   44.6850 C   0  0  0  0  0  0  0  0  0  0  0  0
   58.1400   33.0630   43.3940 C   0  0  0  0  0  0  0  0  0  0  0  0
   58.3801   33.6881   42.5213 H   0  0  0  0  0  0  0  0  0  0  0  0
   57.6020   31.7850   43.2060 C   0  0  0  0  0  0  0  0  0  0  0  0
   57.4120   31.4136   42.1882 H   0  0  0  0  0  0  0  0  0  0  0  0
   57.3050   30.9780   44.3110 C   0  0  0  0  0  0  0  0  0  0  0  0
   56.6520   29.3570   44.0900 S   0  0  0  0  0  0  0  0  0  0  0  0
   56.8910   28.8740   42.6860 O   0  0  0  0  0  0  0  0  0  0  0  0
   55.1720   29.3860   44.3420 O   0  0  0  0  0  0  0  0  0  0  0  0
   57.4020   28.2700   45.2090 N   0  0  0  0  0  0  0  0  0  0  0  0
   56.8020   27.2120   45.6570 C   0  0  0  0  0  0  0  0  0  0  0  0
   55.5040   27.0970   45.8170 O   0  0  0  0  0  0  0  0  0  0  0  0
   55.2030   25.9250   46.2990 N   0  0  0  0  0  0  0  0  0  0  0  0
   56.3620   25.2530   46.4600 C   0  0  0  0  0  0  0  0  0  0  0  0
   56.4530   23.8630   47.0010 C   0  0  0  0  0  0  0  0  0  0  0  0
   56.4508   23.8966   48.1005 H   0  0  0  0  0  0  0  0  0  0  0  0
   55.5914   23.2759   46.6504 H   0  0  0  0  0  0  0  0  0  0  0  0
   57.3838   23.3933   46.6504 H   0  0  0  0  0  0  0  0  0  0  0  0
   57.4170   26.0420   46.0390 C   0  0  0  0  0  0  0  0  0  0  0  0
   58.8820   25.7450   46.1080 C   0  0  0  0  0  0  0  0  0  0  0  0
   59.1941   25.6817   47.1609 H   0  0  0  0  0  0  0  0  0  0  0  0
   59.0860   24.7872   45.6069 H   0  0  0  0  0  0  0  0  0  0  0  0
   59.4429   26.5477   45.6069 H   0  0  0  0  0  0  0  0  0  0  0  0
   57.5650   31.4500   45.6030 C   0  0  0  0  0  0  0  0  0  0  0  0
   57.3453   30.8139   46.4731 H   0  0  0  0  0  0  0  0  0  0  0  0
   58.1030   32.7270   45.7920 C   0  0  0  0  0  0  0  0  0  0  0  0
   58.3142   33.0877   46.8095 H   0  0  0  0  0  0  0  0  0  0  0  0
   61.3840   34.2150   48.9780 C   0  0  0  0  0  0  0  0  0  0  0  0
   60.5806   34.5580   49.6465 H   0  0  0  0  0  0  0  0  0  0  0  0
   62.6320   33.8780   49.5090 C   0  0  0  0  0  0  0  0  0  0  0  0
   62.8031   33.9434   50.5936 H   0  0  0  0  0  0  0  0  0  0  0  0
   63.6630   33.4580   48.6640 C   0  0  0  0  0  0  0  0  0  0  0  0
   64.9030   33.1220   49.1910 O   0  0  0  0  0  0  0  0  0  0  0  0
  1  2  1  0
  2  3  2  0
  3  4  1  0
  3  5  1  0
  5  6  1  0
  6  7  1  0
  7  8  2  0
  7  9  1  0
  9 10  1  0
 10 11  2  0
 11 12  1  0
 11 13  1  0
 13 14  1  0
 13 15  2  0
 15 16  1  0
 16 17  2  0
 16 18  2  0
 16 19  1  0
 19 20  2  0
 20 21  1  0
 21 22  1  0
 22 23  1  0
 23 24  1  0
 24 25  1  0
 24 26  1  0
 24 27  1  0
 23 28  2  0
 28 29  1  0
 29 30  1  0
 29 31  1  0
 29 32  1  0
 15 33  1  0
 33 34  1  0
 33 35  2  0
 35 36  1  0
  5 37  2  0
 37 38  1  0
 37 39  1  0
 39 40  1  0
 39 41  2  0
 41 42  1  0
 41  2  1  0
 35 10  1  0
 28 20  1  0
M  CHG  4   6  -1   9  -1  22  -1  42  -1
M  END
>  <UniqueID>  (5) 
5

>  <SMILES>  (5) 
Cc1[n-]o/c(=N\S(=O)(=O)c2ccc([N-]C(=O)[N-]c3ccc([O-])cc3)cc2)c1C

>  <Energy>  (5) 
83.56033932235135

>  <Genealogy>  (5) 
Cc1[n-]oc(=NS(=O)(=O)c2ccc([N-]C(=O)[N-]c3ccc([O-])cc3)cc2)c1C (protonated)
Cc1[n-]o/c(=N\S(=O)(=O)c2ccc([N-]C(=O)[N-]c3ccc([O-])cc3)cc2)c1C (cis-trans isomerization)
Cc1[n-]o/c(=N\S(=O)(=O)c2ccc([N-]C(=O)[N-]c3ccc([O-])cc3)cc2)c1C (3D coordinates assigned)
Cc1[n-]o/c(=N\S(=O)(=O)c2ccc([N-]C(=O)[N-]c3ccc([O-])cc3)cc2)c1C (optimized conformer: 83.56033932235135 kcal/mol)

>  <smiles>  (5) 
Cc1[nH]oc(=NS(=O)(=O)c2ccc(NC(=O)Nc3ccc(O)cc3)cc2)c1C

>  <score_type>  (5) 
oracle

>  <origin>  (5) 
adg

>  <m_score__min__energy>  (5) 
-15.460000000000001

>  <m_primary>  (5) 
energy

$$$$
5:0
     RDKit          3D

 42 44  0  0  0  0  0  0  0  0999 V2000
   60.0010   30.9630   45.2830 H   0  0  0  0  0  0  0  0  0  0  0  0
   59.8470   30.0040   45.5620 O   0  0  0  0  0  0  0  0  0  0  0  0
   58.5960   29.3900   45.4960 C   0  0  0  0  0  0  0  0  0  0  0  0
   57.4080   29.9340   45.0270 C   0  0  0  0  0  0  0  0  0  0  0  0
   57.1180   31.2690   44.4770 C   0  0  0  0  0  0  0  0  0  0  0  0
   56.0873   31.5242   44.1898 H   0  0  0  0  0  0  0  0  0  0  0  0
   58.0600   32.1490   44.3260 N   0  0  0  0  0  0  0  0  0  0  0  0
   58.5920   33.0010   45.3550 C   0  0  0  0  0  0  0  0  0  0  0  0
   59.0500   34.2730   44.9910 C   0  0  0  0  0  0  0  0  0  0  0  0
   58.9967   34.5925   43.9398 H   0  0  0  0  0  0  0  0  0  0  0  0
   59.5740   35.1390   45.9530 C   0  0  0  0  0  0  0  0  0  0  0  0
   59.9308   36.1366   45.6573 H   0  0  0  0  0  0  0  0  0  0  0  0
   59.6460   34.7410   47.2900 C   0  0  0  0  0  0  0  0  0  0  0  0
   60.0590   35.4268   48.0444 H   0  0  0  0  0  0  0  0  0  0  0  0
   59.1940   33.4710   47.6740 C   0  0  0  0  0  0  0  0  0  0  0  0
   59.2920   33.0550   49.0850 C   0  0  0  0  0  0  0  0  0  0  0  0
   59.2400   33.9330   49.9860 O   0  0  0  0  0  0  0  0  0  0  0  0
   59.4930   31.6850   49.4660 N   0  0  0  0  0  0  0  0  0  0  0  0
   60.6960   30.8920   49.2220 C   0  0  0  0  0  0  0  0  0  0  0  0
   60.9673   30.3578   50.1445 H   0  0  0  0  0  0  0  0  0  0  0  0
   60.4862   30.1801   48.4101 H   0  0  0  0  0  0  0  0  0  0  0  0
   61.8480   31.7680   48.8040 C   0  0  0  0  0  0  0  0  0  0  0  0
   62.2280   31.8520   47.4530 C   0  0  0  0  0  0  0  0  0  0  0  0
   61.6978   31.2551   46.6963 H   0  0  0  0  0  0  0  0  0  0  0  0
   63.2780   32.6920   47.0680 C   0  0  0  0  0  0  0  0  0  0  0  0
   63.5656   32.7614   46.0085 H   0  0  0  0  0  0  0  0  0  0  0  0
   63.9620   33.4430   48.0270 C   0  0  0  0  0  0  0  0  0  0  0  0
   64.7867   34.1039   47.7220 H   0  0  0  0  0  0  0  0  0  0  0  0
   63.5990   33.3550   49.3740 C   0  0  0  0  0  0  0  0  0  0  0  0
   64.1410   33.9436   50.1288 H   0  0  0  0  0  0  0  0  0  0  0  0
   62.5470   32.5190   49.7630 C   0  0  0  0  0  0  0  0  0  0  0  0
   62.2662   32.4496   50.8243 H   0  0  0  0  0  0  0  0  0  0  0  0
   58.6400   32.6140   46.7100 C   0  0  0  0  0  0  0  0  0  0  0  0
   58.2410   31.6349   47.0135 H   0  0  0  0  0  0  0  0  0  0  0  0
   56.4970   28.9080   45.1950 C   0  0  0  0  0  0  0  0  0  0  0  0
   55.1470   28.9640   44.8720 O   0  0  0  0  0  0  0  0  0  0  0  0
   57.0900   27.8220   45.7270 N   0  0  0  0  0  0  0  0  0  0  0  0
   58.3670   28.1260   45.9000 N   0  0  0  0  0  0  0  0  0  0  0  0
   59.3470   27.2190   46.4840 C   0  0  0  0  0  0  0  0  0  0  0  0
   59.2886   27.2731   47.5811 H   0  0  0  0  0  0  0  0  0  0  0  0
   59.1360   26.1905   46.1558 H   0  0  0  0  0  0  0  0  0  0  0  0
   60.3561   27.5088   46.1558 H   0  0  0  0  0  0  0  0  0  0  0  0
  1  2  1  0
  2  3  1  0
  3  4  2  0
  4  5  1  0
  5  6  1  0
  5  7  2  0
  7  8  1  0
  8  9  2  0
  9 10  1  0
  9 11  1  0
 11 12  1  0
 11 13  2  0
 13 14  1  0
 13 15  1  0
 15 16  1  0
 16 17  2  0
 16 18  1  0
 18 19  1  0
 19 20  1  0
 19 21  1  0
 19 22  1  0
 22 23  2  0
 23 24  1  0
 23 25  1  0
 25 26  1  0
 25 27  2  0
 27 28  1  0
 27 29  1  0
 29 30  1  0
 29 31  2  0
 31 32  1  0
 15 33  2  0
 33 34  1  0
  4 35  1  0
 35 36  1  0
 35 37  2  0
 37 38  1  0
 38 39  1  0
 39 40  1  0
 39 41  1  0
 39 42  1  0
 38  3  1  0
 33  8  1  0
 31 22  1  0
M  CHG  2  18  -1  36  -1
M  END
>  <UniqueID>  (6) 
6

>  <SMILES>  (6) 
Cn1nc([O-])c(/C=N/c2cccc(C(=O)[N-]Cc3ccccc3)c2)c1O

>  <Energy>  (6) 
80.69833267759262

>  <Genealogy>  (6) 
Cn1nc([O-])c(C=Nc2cccc(C(=O)[N-]Cc3ccccc3)c2)c1O (protonated)
Cn1nc([O-])c(/C=N/c2cccc(C(=O)[N-]Cc3ccccc3)c2)c1O (cis-trans isomerization)
Cn1nc([O-])c(/C=N/c2cccc(C(=O)[N-]Cc3ccccc3)c2)c1O (3D coordinates assigned)
Cn1nc([O-])c(/C=N/c2cccc(C(=O)[N-]Cc3ccccc3)c2)c1O (optimized conformer: 80.69833267759262 kcal/mol)

>  <smiles>  (6) 
Cn1nc(O)c(C=Nc2cccc(C(=O)NCc3ccccc3)c2)c1O

>  <score_type>  (6) 
oracle

>  <origin>  (6) 
adg

>  <m_score__min__energy>  (6) 
-13.619999999999999

>  <m_primary>  (6) 
energy

$$$$
6:0
     RDKit          3D

 43 43  0  0  0  0  0  0  0  0999 V2000
   62.0230   33.8230   46.8270 C   0  0  0  0  0  0  0  0  0  0  0  0
   60.6760   33.1800   46.4980 C   0  0  0  0  0  0  0  0  0  0  0  0
   59.5900   34.1830   46.4350 N   0  0  0  0  0  0  0  0  0  0  0  0
   58.5410   33.9370   47.4490 C   0  0  0  0  0  0  0  0  0  0  0  0
   58.5270   32.4610   47.8280 C   0  0  0  0  0  0  0  0  0  0  0  0
   59.0610   34.4730   45.0760 C   0  0  0  0  0  0  0  0  0  0  0  0
   57.6780   33.8670   44.7420 C   0  0  0  0  0  0  0  0  0  0  0  0
   57.7280   32.3830   44.3620 C   0  0  0  0  0  0  0  0  0  0  0  0
   56.5570   31.6670   44.8730 N   0  0  0  0  0  0  0  0  0  0  0  0
   56.5310   30.0030   44.3550 S   0  0  0  0  0  0  0  0  0  0  0  0
   55.2670   29.3660   44.8600 O   0  0  0  0  0  0  0  0  0  0  0  0
   56.5110   29.9480   42.8540 O   0  0  0  0  0  0  0  0  0  0  0  0
   57.9040   29.1060   45.0250 C   0  0  0  0  0  0  0  0  0  0  0  0
   59.1910   29.6180   44.8070 C   0  0  0  0  0  0  0  0  0  0  0  0
   60.3130   28.9480   45.2980 C   0  0  0  0  0  0  0  0  0  0  0  0
   60.1600   27.7630   46.0130 C   0  0  0  0  0  0  0  0  0  0  0  0
   58.8850   27.2390   46.2380 C   0  0  0  0  0  0  0  0  0  0  0  0
   57.7410   27.9000   45.7450 C   0  0  0  0  0  0  0  0  0  0  0  0
   56.4470   27.3900   45.9480 O   0  0  0  0  0  0  0  0  0  0  0  0
   56.0960   26.0090   45.9950 C   0  0  0  0  0  0  0  0  0  0  0  0
   56.4650   25.4950   47.2220 F   0  0  0  0  0  0  0  0  0  0  0  0
   56.7630   25.3140   45.0020 F   0  0  0  0  0  0  0  0  0  0  0  0
   54.7300   25.8540   45.8410 F   0  0  0  0  0  0  0  0  0  0  0  0
   62.1447   33.8811   47.9187 H   0  0  0  0  0  0  0  0  0  0  0  0
   62.8338   33.2148   46.3995 H   0  0  0  0  0  0  0  0  0  0  0  0
   62.0600   34.8359   46.3995 H   0  0  0  0  0  0  0  0  0  0  0  0
   60.7510   32.6746   45.5239 H   0  0  0  0  0  0  0  0  0  0  0  0
   60.4344   32.4637   47.2971 H   0  0  0  0  0  0  0  0  0  0  0  0
   58.7487   34.5421   48.3438 H   0  0  0  0  0  0  0  0  0  0  0  0
   57.5612   34.2151   47.0335 H   0  0  0  0  0  0  0  0  0  0  0  0
   58.5261   32.3638   48.9237 H   0  0  0  0  0  0  0  0  0  0  0  0
   57.6243   31.9854   47.4169 H   0  0  0  0  0  0  0  0  0  0  0  0
   59.4205   31.9684   47.4169 H   0  0  0  0  0  0  0  0  0  0  0  0
   58.9838   35.5653   44.9712 H   0  0  0  0  0  0  0  0  0  0  0  0
   59.7673   34.0018   44.3766 H   0  0  0  0  0  0  0  0  0  0  0  0
   57.0290   33.9776   45.6232 H   0  0  0  0  0  0  0  0  0  0  0  0
   57.2940   34.4093   43.8654 H   0  0  0  0  0  0  0  0  0  0  0  0
   57.7534   32.2937   43.2659 H   0  0  0  0  0  0  0  0  0  0  0  0
   58.6303   31.9390   44.8076 H   0  0  0  0  0  0  0  0  0  0  0  0
   59.3176   30.5549   44.2447 H   0  0  0  0  0  0  0  0  0  0  0  0
   61.3187   29.3565   45.1199 H   0  0  0  0  0  0  0  0  0  0  0  0
   61.0453   27.2383   46.4015 H   0  0  0  0  0  0  0  0  0  0  0  0
   58.7723   26.3029   46.8045 H   0  0  0  0  0  0  0  0  0  0  0  0
  1  2  1  0
  2  3  1  0
  3  4  1  0
  4  5  1  0
  3  6  1  0
  6  7  1  0
  7  8  1  0
  8  9  1  0
  9 10  1  0
 10 11  2  0
 10 12  2  0
 10 13  1  0
 13 14  2  0
 14 15  1  0
 15 16  2  0
 16 17  1  0
 17 18  2  0
 18 19  1  0
 19 20  1  0
 20 21  1  0
 20 22  1  0
 20 23  1  0
 18 13  1  0
  1 24  1  0
  1 25  1  0
  1 26  1  0
  2 27  1  0
  2 28  1  0
  4 29  1  0
  4 30  1  0
  5 31  1  0
  5 32  1  0
  5 33  1  0
  6 34  1  0
  6 35  1  0
  7 36  1  0
  7 37  1  0
  8 38  1  0
  8 39  1  0
 14 40  1  0
 15 41  1  0
 16 42  1  0
 17 43  1  0
M  CHG  1   9  -1
M  END
>  <UniqueID>  (7) 
7

>  <SMILES>  (7) 
CCN(CC)CCC[N-]S(=O)(=O)c1ccccc1OC(F)(F)F

>  <Energy>  (7) 
40.69873459187495

>  <Genealogy>  (7) 
CCN(CC)CCC[N-]S(=O)(=O)c1ccccc1OC(F)(F)F (protonated)
CCN(CC)CCC[N-]S(=O)(=O)c1ccccc1OC(F)(F)F (3D coordinates assigned)
CCN(CC)CCC[N-]S(=O)(=O)c1ccccc1OC(F)(F)F (optimized conformer: 40.69873459187495 kcal/mol)

>  <smiles>  (7) 
CCN(CC)CCCNS(=O)(=O)c1ccccc1OC(F)(F)F

>  <score_type>  (7) 
oracle

>  <origin>  (7) 
adg

>  <m_score__min__energy>  (7) 
-8.0199999999999996

>  <m_primary>  (7) 
energy

$$$$
7:0
     RDKit          3D

 40 41  0  0  0  0  0  0  0  0999 V2000
   55.0278   29.1080   54.5772 H   0  0  0  0  0  0  0  0  0  0  0  0
   54.6400   29.7260   53.7540 C   0  0  0  0  0  0  0  0  0  0  0  0
   57.8340   30.4040   51.8780 C   0  0  0  0  0  0  0  0  0  0  0  0
   58.6010   29.5590   51.3450 O   0  0  0  0  0  0  0  0  0  0  0  0
   58.4000   31.7280   52.2990 C   0  0  0  0  0  0  0  0  0  0  0  0
   57.7397   32.1835   53.0516 H   0  0  0  0  0  0  0  0  0  0  0  0
   59.4018   31.5726   52.7260 H   0  0  0  0  0  0  0  0  0  0  0  0
   58.5070   32.6440   51.1110 C   0  0  0  0  0  0  0  0  0  0  0  0
   58.7900   33.8200   51.2850 O   0  0  0  0  0  0  0  0  0  0  0  0
   58.2930   32.1300   49.7100 C   0  0  0  0  0  0  0  0  0  0  0  0
   58.6636   31.0964   49.6448 H   0  0  0  0  0  0  0  0  0  0  0  0
   57.2175   32.1670   49.4819 H   0  0  0  0  0  0  0  0  0  0  0  0
   59.0280   32.9820   48.7080 C   0  0  0  0  0  0  0  0  0  0  0  0
   58.3450   33.5240   47.6060 C   0  0  0  0  0  0  0  0  0  0  0  0
   57.2734   33.3162   47.4699 H   0  0  0  0  0  0  0  0  0  0  0  0
   59.0210   34.3260   46.6820 C   0  0  0  0  0  0  0  0  0  0  0  0
   58.4803   34.7484   45.8222 H   0  0  0  0  0  0  0  0  0  0  0  0
   60.3830   34.5920   46.8490 C   0  0  0  0  0  0  0  0  0  0  0  0
   60.9135   35.2244   46.1220 H   0  0  0  0  0  0  0  0  0  0  0  0
   61.0700   34.0540   47.9400 C   0  0  0  0  0  0  0  0  0  0  0  0
   62.1431   34.2590   48.0680 H   0  0  0  0  0  0  0  0  0  0  0  0
   60.3970   33.2560   48.8690 C   0  0  0  0  0  0  0  0  0  0  0  0
   60.9411   32.8405   49.7300 H   0  0  0  0  0  0  0  0  0  0  0  0
   53.3300   29.6680   53.4790 C   0  0  0  0  0  0  0  0  0  0  0  0
   52.7064   29.0138   54.1060 H   0  0  0  0  0  0  0  0  0  0  0  0
   56.3790   30.1530   52.0090 C   0  0  0  0  0  0  0  0  0  0  0  0
   55.9006   29.5635   51.2130 H   0  0  0  0  0  0  0  0  0  0  0  0
   55.5920   30.5780   53.0080 C   0  0  0  0  0  0  0  0  0  0  0  0
   55.6592   31.6381   53.2939 H   0  0  0  0  0  0  0  0  0  0  0  0
   52.6600   30.4190   52.3940 C   0  0  0  0  0  0  0  0  0  0  0  0
   52.6270   29.9300   51.0750 C   0  0  0  0  0  0  0  0  0  0  0  0
   53.1291   28.9826   50.8293 H   0  0  0  0  0  0  0  0  0  0  0  0
   51.9590   30.6430   50.0760 C   0  0  0  0  0  0  0  0  0  0  0  0
   51.9500   30.2632   49.0437 H   0  0  0  0  0  0  0  0  0  0  0  0
   51.3020   31.8380   50.3850 C   0  0  0  0  0  0  0  0  0  0  0  0
   50.6410   32.5430   49.3870 O   0  0  0  0  0  0  0  0  0  0  0  0
   51.3080   32.3170   51.7010 C   0  0  0  0  0  0  0  0  0  0  0  0
   50.6500   33.5010   52.0160 O   0  0  0  0  0  0  0  0  0  0  0  0
   51.9750   31.6040   52.7040 C   0  0  0  0  0  0  0  0  0  0  0  0
   51.9622   31.9741   53.7398 H   0  0  0  0  0  0  0  0  0  0  0  0
  1  2  1  0
  2  3  1  0
  3  4  2  0
  3  5  1  0
  5  6  1  0
  5  7  1  0
  5  8  1  0
  8  9  2  0
  8 10  1  0
 10 11  1  0
 10 12  1  0
 10 13  1  0
 13 14  2  0
 14 15  1  0
 14 16  1  0
 16 17  1  0
 16 18  2  0
 18 19  1  0
 18 20  1  0
 20 21  1  0
 20 22  2  0
 22 23  1  0
  2 24  2  0
 24 25  1  0
 24 26  1  0
 26 27  1  0
 26 28  2  0
 28 29  1  0
 28 30  1  0
 30 31  2  0
 31 32  1  0
 31 33  1  0
 33 34  1  0
 33 35  2  0
 35 36  1  0
 35 37  1  0
 37 38  1  0
 37 39  2  0
 39 40  1  0
 22 13  1  0
 39 30  1  0
M  CHG  2  36  -1  38  -1
M  END
>  <UniqueID>  (8) 
8

>  <SMILES>  (8) 
O=C(C=C/C=C\c1ccc([O-])c([O-])c1)CC(=O)Cc1ccccc1

>  <Energy>  (8) 
43.29374075494459

>  <Genealogy>  (8) 
O=C(C=CC=Cc1ccc([O-])c([O-])c1)CC(=O)Cc1ccccc1 (protonated)
O=C(C=C/C=C\c1ccc([O-])c([O-])c1)CC(=O)Cc1ccccc1 (cis-trans isomerization)
O=C(C=C/C=C\c1ccc([O-])c([O-])c1)CC(=O)Cc1ccccc1 (3D coordinates assigned)
O=C(C=C/C=C\c1ccc([O-])c([O-])c1)CC(=O)Cc1ccccc1 (optimized conformer: 43.29374075494459 kcal/mol)

>  <smiles>  (8) 
O=C(C=CC=Cc1ccc(O)c(O)c1)CC(=O)Cc1ccccc1

>  <score_type>  (8) 
oracle

>  <origin>  (8) 
adg

>  <m_score__min__energy>  (8) 
-16.579999999999998

>  <m_primary>  (8) 
energy

$$$$
8:0
     RDKit          3D

 45 48  0  0  0  0  0  0  0  0999 V2000
   55.5180   29.0940   44.8650 O   0  0  0  0  0  0  0  0  0  0  0  0
   56.6430   29.0830   45.4320 C   0  0  0  0  0  0  0  0  0  0  0  0
   57.1430   27.8400   45.9530 N   0  0  0  0  0  0  0  0  0  0  0  0
   56.5670   26.6810   45.8170 C   0  0  0  0  0  0  0  0  0  0  0  0
   55.3720   26.3500   46.3430 N   0  0  0  0  0  0  0  0  0  0  0  0
   55.1460   25.1000   45.9690 N   0  0  0  0  0  0  0  0  0  0  0  0
   56.2080   24.7230   45.2280 C   0  0  0  0  0  0  0  0  0  0  0  0
   56.3630   23.3910   44.6130 C   0  0  0  0  0  0  0  0  0  0  0  0
   56.4180   23.2600   43.2150 C   0  0  0  0  0  0  0  0  0  0  0  0
   56.5690   21.9990   42.6300 C   0  0  0  0  0  0  0  0  0  0  0  0
   56.6660   20.8600   43.4340 C   0  0  0  0  0  0  0  0  0  0  0  0
   56.6140   20.9820   44.8260 C   0  0  0  0  0  0  0  0  0  0  0  0
   56.4630   22.2400   45.4150 C   0  0  0  0  0  0  0  0  0  0  0  0
   57.0850   25.6970   45.1260 O   0  0  0  0  0  0  0  0  0  0  0  0
   57.4260   30.3350   45.5090 C   0  0  0  0  0  0  0  0  0  0  0  0
   58.3690   30.5220   46.5330 C   0  0  0  0  0  0  0  0  0  0  0  0
   59.0460   31.7360   46.6540 C   0  0  0  0  0  0  0  0  0  0  0  0
   58.7900   32.7790   45.7560 C   0  0  0  0  0  0  0  0  0  0  0  0
   59.5240   34.3560   46.0240 S   0  0  0  0  0  0  0  0  0  0  0  0
   59.1830   35.2530   44.8670 O   0  0  0  0  0  0  0  0  0  0  0  0
   59.0120   34.9740   47.2960 O   0  0  0  0  0  0  0  0  0  0  0  0
   61.2490   34.1830   46.1320 N   0  0  0  0  0  0  0  0  0  0  0  0
   61.9220   33.7940   47.3420 C   0  0  0  0  0  0  0  0  0  0  0  0
   61.3870   34.1780   48.5820 C   0  0  0  0  0  0  0  0  0  0  0  0
   62.0430   33.8440   49.7710 C   0  0  0  0  0  0  0  0  0  0  0  0
   63.2330   33.1150   49.7330 C   0  0  0  0  0  0  0  0  0  0  0  0
   63.7660   32.7110   48.5060 C   0  0  0  0  0  0  0  0  0  0  0  0
   63.1120   33.0410   47.3150 C   0  0  0  0  0  0  0  0  0  0  0  0
   57.8910   32.5790   44.7000 C   0  0  0  0  0  0  0  0  0  0  0  0
   57.2190   31.3590   44.5700 C   0  0  0  0  0  0  0  0  0  0  0  0
   56.3419   24.1535   42.5780 H   0  0  0  0  0  0  0  0  0  0  0  0
   56.6115   21.9033   41.5350 H   0  0  0  0  0  0  0  0  0  0  0  0
   56.7831   19.8685   42.9722 H   0  0  0  0  0  0  0  0  0  0  0  0
   56.6921   20.0856   45.4587 H   0  0  0  0  0  0  0  0  0  0  0  0
   56.4222   22.3305   46.5105 H   0  0  0  0  0  0  0  0  0  0  0  0
   58.5748   29.7074   47.2430 H   0  0  0  0  0  0  0  0  0  0  0  0
   59.7838   31.8741   47.4581 H   0  0  0  0  0  0  0  0  0  0  0  0
   61.7840   34.1950   45.2360 H   0  0  0  0  0  0  0  0  0  0  0  0
   60.4454   34.7455   48.6185 H   0  0  0  0  0  0  0  0  0  0  0  0
   61.6208   34.1561   50.7376 H   0  0  0  0  0  0  0  0  0  0  0  0
   63.7511   32.8586   50.6689 H   0  0  0  0  0  0  0  0  0  0  0  0
   64.7012   32.1326   48.4771 H   0  0  0  0  0  0  0  0  0  0  0  0
   63.5290   32.7109   46.3521 H   0  0  0  0  0  0  0  0  0  0  0  0
   57.7132   33.3835   43.9712 H   0  0  0  0  0  0  0  0  0  0  0  0
   56.5265   31.2011   43.7300 H   0  0  0  0  0  0  0  0  0  0  0  0
  1  2  2  0
  2  3  1  0
  3  4  2  3
  4  5  1  0
  5  6  1  0
  6  7  2  0
  7  8  1  0
  8  9  2  0
  9 10  1  0
 10 11  2  0
 11 12  1  0
 12 13  2  0
  7 14  1  0
  2 15  1  0
 15 16  2  0
 16 17  1  0
 17 18  2  0
 18 19  1  0
 19 20  2  0
 19 21  2  0
 19 22  1  0
 22 23  1  0
 23 24  2  0
 24 25  1  0
 25 26  2  0
 26 27  1  0
 27 28  2  0
 18 29  1  0
 29 30  2  0
 14  4  1  0
 30 15  1  0
 13  8  1  0
 28 23  1  0
  9 31  1  0
 10 32  1  0
 11 33  1  0
 12 34  1  0
 13 35  1  0
 16 36  1  0
 17 37  1  0
 22 38  1  0
 24 39  1  0
 25 40  1  0
 26 41  1  0
 27 42  1  0
 28 43  1  0
 29 44  1  0
 30 45  1  0
M  CHG  1   5  -1
M  END
>  <UniqueID>  (9) 
9

>  <SMILES>  (9) 
O=C(N=c1[n-]nc(-c2ccccc2)o1)c1ccc(S(=O)(=O)Nc2ccccc2)cc1

>  <Energy>  (9) 
94.52311510114079

>  <Genealogy>  (9) 
O=C(N=c1[n-]nc(-c2ccccc2)o1)c1ccc(S(=O)(=O)Nc2ccccc2)cc1 (protonated)
O=C(N=c1[n-]nc(-c2ccccc2)o1)c1ccc(S(=O)(=O)Nc2ccccc2)cc1 (3D coordinates assigned)
O=C(N=c1[n-]nc(-c2ccccc2)o1)c1ccc(S(=O)(=O)Nc2ccccc2)cc1 (optimized conformer: 94.52311510114079 kcal/mol)

>  <smiles>  (9) 
O=C(N=c1[nH]nc(-c2ccccc2)o1)c1ccc(S(=O)(=O)Nc2ccccc2)cc1

>  <score_type>  (9) 
oracle

>  <origin>  (9) 
adg

>  <m_score__min__energy>  (9) 
-11.81

>  <m_primary>  (9) 
energy

$$$$
9:0
     RDKit          3D

 49 52  0  0  0  0  0  0  0  0999 V2000
   62.5170   34.5930   49.7790 C   0  0  0  0  0  0  0  0  0  0  0  0
   62.8780   33.5160   48.8660 N   0  0  0  0  0  0  0  0  0  0  0  0
   64.0590   32.9210   48.8560 N   0  0  0  0  0  0  0  0  0  0  0  0
   64.0870   31.9630   47.9390 N   0  0  0  0  0  0  0  0  0  0  0  0
   62.8780   31.9480   47.3410 C   0  0  0  0  0  0  0  0  0  0  0  0
   62.1170   32.9400   47.9170 C   0  0  0  0  0  0  0  0  0  0  0  0
   60.7230   33.2830   47.5740 C   0  0  0  0  0  0  0  0  0  0  0  0
   60.4810   34.4010   46.7600 C   0  0  0  0  0  0  0  0  0  0  0  0
   59.1740   34.7890   46.4630 C   0  0  0  0  0  0  0  0  0  0  0  0
   58.0970   34.0840   46.9980 C   0  0  0  0  0  0  0  0  0  0  0  0
   58.3220   32.9820   47.8260 C   0  0  0  0  0  0  0  0  0  0  0  0
   59.6360   32.5510   48.0990 C   0  0  0  0  0  0  0  0  0  0  0  0
   59.8910   31.4540   48.9940 N   0  0  0  0  0  0  0  0  0  0  0  0
   59.0840   30.2880   49.2150 C   0  0  0  0  0  0  0  0  0  0  0  0
   58.2230   30.3250   50.1330 O   0  0  0  0  0  0  0  0  0  0  0  0
   59.2450   29.0350   48.4360 C   0  0  0  0  0  0  0  0  0  0  0  0
   58.5740   28.8860   47.2150 C   0  0  0  0  0  0  0  0  0  0  0  0
   58.7080   27.7450   46.4740 N   0  0  0  0  0  0  0  0  0  0  0  0
   57.9650   27.6230   45.2110 C   0  0  0  0  0  0  0  0  0  0  0  0
   56.5190   27.9250   45.4370 C   0  0  0  0  0  0  0  0  0  0  0  0
   55.7830   27.0680   45.9960 O   0  0  0  0  0  0  0  0  0  0  0  0
   56.0190   29.2310   45.1250 N   0  0  0  0  0  0  0  0  0  0  0  0
   56.7090   30.2770   44.4260 C   0  0  0  0  0  0  0  0  0  0  0  0
   57.4300   31.2820   45.1020 C   0  0  0  0  0  0  0  0  0  0  0  0
   58.0740   32.2910   44.3820 C   0  0  0  0  0  0  0  0  0  0  0  0
   57.9900   32.3220   42.9890 C   0  0  0  0  0  0  0  0  0  0  0  0
   57.2540   31.3460   42.3130 C   0  0  0  0  0  0  0  0  0  0  0  0
   56.6120   30.3290   43.0290 C   0  0  0  0  0  0  0  0  0  0  0  0
   55.8990   29.3890   42.3600 F   0  0  0  0  0  0  0  0  0  0  0  0
   59.4800   26.7160   46.9470 C   0  0  0  0  0  0  0  0  0  0  0  0
   59.6000   25.6450   46.2920 O   0  0  0  0  0  0  0  0  0  0  0  0
   60.1230   26.8350   48.1360 N   0  0  0  0  0  0  0  0  0  0  0  0
   60.0230   27.9580   48.8890 C   0  0  0  0  0  0  0  0  0  0  0  0
   60.6150   28.0050   49.9980 O   0  0  0  0  0  0  0  0  0  0  0  0
   62.6327   34.2479   50.8171 H   0  0  0  0  0  0  0  0  0  0  0  0
   63.1745   35.4574   49.6045 H   0  0  0  0  0  0  0  0  0  0  0  0
   61.4713   34.8866   49.6045 H   0  0  0  0  0  0  0  0  0  0  0  0
   62.5582   31.2668   46.5387 H   0  0  0  0  0  0  0  0  0  0  0  0
   61.3271   34.9747   46.3538 H   0  0  0  0  0  0  0  0  0  0  0  0
   58.9933   35.6524   45.8058 H   0  0  0  0  0  0  0  0  0  0  0  0
   57.0677   34.3963   46.7676 H   0  0  0  0  0  0  0  0  0  0  0  0
   57.4684   32.4470   48.2679 H   0  0  0  0  0  0  0  0  0  0  0  0
   57.9302   29.6987   46.8474 H   0  0  0  0  0  0  0  0  0  0  0  0
   58.3749   28.3327   44.4773 H   0  0  0  0  0  0  0  0  0  0  0  0
   58.0641   26.5952   44.8318 H   0  0  0  0  0  0  0  0  0  0  0  0
   57.4857   31.2717   46.2005 H   0  0  0  0  0  0  0  0  0  0  0  0
   58.6489   33.0632   44.9142 H   0  0  0  0  0  0  0  0  0  0  0  0
   58.5029   33.1143   42.4241 H   0  0  0  0  0  0  0  0  0  0  0  0
   57.1788   31.3767   41.2160 H   0  0  0  0  0  0  0  0  0  0  0  0
  1  2  1  0
  2  3  1  0
  3  4  2  0
  4  5  1  0
  5  6  2  0
  6  7  1  0
  7  8  2  0
  8  9  1  0
  9 10  2  0
 10 11  1  0
 11 12  2  0
 12 13  1  0
 13 14  1  0
 14 15  2  0
 14 16  1  0
 16 17  2  0
 17 18  1  0
 18 19  1  0
 19 20  1  0
 20 21  2  0
 20 22  1  0
 22 23  1  0
 23 24  2  0
 24 25  1  0
 25 26  2  0
 26 27  1  0
 27 28  2  0
 28 29  1  0
 18 30  1  0
 30 31  2  0
 30 32  1  0
 32 33  1  0
 33 34  2  0
  6  2  1  0
 12  7  1  0
 33 16  1  0
 28 23  1  0
  1 35  1  0
  1 36  1  0
  1 37  1  0
  5 38  1  0
  8 39  1  0
  9 40  1  0
 10 41  1  0
 11 42  1  0
 17 43  1  0
 19 44  1  0
 19 45  1  0
 24 46  1  0
 25 47  1  0
 26 48  1  0
 27 49  1  0
M  CHG  3  13  -1  22  -1  32  -1
M  END
>  <UniqueID>  (10) 
10

>  <SMILES>  (10) 
Cn1nncc1-c1ccccc1[N-]C(=O)c1cn(CC(=O)[N-]c2ccccc2F)c(=O)[n-]c1=O

>  <Energy>  (10) 
108.66152210964803

>  <Genealogy>  (10) 
Cn1nncc1-c1ccccc1[N-]C(=O)c1cn(CC(=O)[N-]c2ccccc2F)c(=O)[n-]c1=O (protonated)
Cn1nncc1-c1ccccc1[N-]C(=O)c1cn(CC(=O)[N-]c2ccccc2F)c(=O)[n-]c1=O (3D coordinates assigned)
Cn1nncc1-c1ccccc1[N-]C(=O)c1cn(CC(=O)[N-]c2ccccc2F)c(=O)[n-]c1=O (optimized conformer: 108.66152210964803 kcal/mol)

>  <smiles>  (10) 
Cn1nncc1-c1ccccc1NC(=O)c1cn(CC(=O)Nc2ccccc2F)c(=O)[nH]c1=O

>  <score_type>  (10) 
oracle

>  <origin>  (10) 
adg

>  <m_score__min__energy>  (10) 
-13.279999999999999

>  <m_primary>  (10) 
energy

$$$$
10:0
     RDKit          3D

 67 71  0  0  0  0  0  0  0  0999 V2000
   57.7280   31.5420   44.3330 C   0  0  0  0  0  0  0  0  0  0  0  0
   58.3500   30.8610   45.5380 C   0  0  0  0  0  0  0  0  0  0  0  0
   59.2940   31.5450   46.3590 C   0  0  0  0  0  0  0  0  0  0  0  0
   59.8060   32.9370   46.0520 C   0  0  0  0  0  0  0  0  0  0  0  0
   60.4140   33.5640   47.2380 N   0  0  0  0  0  0  0  0  0  0  0  0
   59.6260   34.4250   48.1250 C   0  0  0  0  0  0  0  0  0  0  0  0
   59.5610   33.8130   49.5260 C   0  0  0  0  0  0  0  0  0  0  0  0
   60.9330   33.4530   50.0280 C   0  0  0  0  0  0  0  0  0  0  0  0
   61.1180   33.3480   51.2720 O   0  0  0  0  0  0  0  0  0  0  0  0
   61.9950   33.1360   49.1070 N   0  0  0  0  0  0  0  0  0  0  0  0
   63.2720   32.6720   49.5870 C   0  0  0  0  0  0  0  0  0  0  0  0
   64.4460   33.3860   49.2840 C   0  0  0  0  0  0  0  0  0  0  0  0
   65.6830   32.9450   49.7570 C   0  0  0  0  0  0  0  0  0  0  0  0
   65.7620   31.7830   50.5330 C   0  0  0  0  0  0  0  0  0  0  0  0
   64.6020   31.0630   50.8370 C   0  0  0  0  0  0  0  0  0  0  0  0
   64.6800   29.9100   51.6100 O   0  0  0  0  0  0  0  0  0  0  0  0
   63.3600   31.5050   50.3660 C   0  0  0  0  0  0  0  0  0  0  0  0
   61.7270   33.2000   47.6920 C   0  0  0  0  0  0  0  0  0  0  0  0
   62.6490   32.9770   46.8610 O   0  0  0  0  0  0  0  0  0  0  0  0
   59.7800   30.9230   47.5200 C   0  0  0  0  0  0  0  0  0  0  0  0
   59.3750   29.6380   47.8640 C   0  0  0  0  0  0  0  0  0  0  0  0
   58.4960   28.9390   47.0430 C   0  0  0  0  0  0  0  0  0  0  0  0
   57.9960   29.5200   45.8670 C   0  0  0  0  0  0  0  0  0  0  0  0
   57.1170   28.6980   45.0040 C   0  0  0  0  0  0  0  0  0  0  0  0
   57.1890   28.8080   43.7500 O   0  0  0  0  0  0  0  0  0  0  0  0
   56.1280   27.8440   45.5920 N   0  0  0  0  0  0  0  0  0  0  0  0
   56.2650   26.4380   45.8380 C   0  0  0  0  0  0  0  0  0  0  0  0
   57.5520   25.9070   45.9780 C   0  0  0  0  0  0  0  0  0  0  0  0
   57.7370   24.5340   46.1710 C   0  0  0  0  0  0  0  0  0  0  0  0
   56.6330   23.6720   46.2110 C   0  0  0  0  0  0  0  0  0  0  0  0
   56.8220   22.2270   46.4360 C   0  0  0  0  0  0  0  0  0  0  0  0
   56.6430   21.7270   47.7340 C   0  0  0  0  0  0  0  0  0  0  0  0
   56.8310   20.3690   48.0010 C   0  0  0  0  0  0  0  0  0  0  0  0
   57.1970   19.4980   46.9740 C   0  0  0  0  0  0  0  0  0  0  0  0
   57.3700   19.9800   45.6750 C   0  0  0  0  0  0  0  0  0  0  0  0
   57.1800   21.3430   45.3890 C   0  0  0  0  0  0  0  0  0  0  0  0
   57.3840   21.9070   43.7230 S   0  0  0  0  0  0  0  0  0  0  0  0
   55.9060   21.7290   42.8450 N   0  0  0  0  0  0  0  0  0  0  0  0
   58.4560   21.0980   43.0470 O   0  0  0  0  0  0  0  0  0  0  0  0
   57.7710   23.3600   43.7170 O   0  0  0  0  0  0  0  0  0  0  0  0
   55.3430   24.1960   46.0580 C   0  0  0  0  0  0  0  0  0  0  0  0
   55.1550   25.5690   45.8560 C   0  0  0  0  0  0  0  0  0  0  0  0
   53.8990   26.0260   45.6170 F   0  0  0  0  0  0  0  0  0  0  0  0
   57.0223   32.3146   44.6722 H   0  0  0  0  0  0  0  0  0  0  0  0
   58.5186   32.0082   43.7267 H   0  0  0  0  0  0  0  0  0  0  0  0
   57.1922   30.7968   43.7267 H   0  0  0  0  0  0  0  0  0  0  0  0
   60.5618   32.8719   45.2554 H   0  0  0  0  0  0  0  0  0  0  0  0
   58.9534   33.5553   45.7345 H   0  0  0  0  0  0  0  0  0  0  0  0
   60.0972   35.4173   48.1824 H   0  0  0  0  0  0  0  0  0  0  0  0
   58.6059   34.5191   47.7243 H   0  0  0  0  0  0  0  0  0  0  0  0
   59.1068   34.5408   50.2145 H   0  0  0  0  0  0  0  0  0  0  0  0
   58.9567   32.8952   49.4769 H   0  0  0  0  0  0  0  0  0  0  0  0
   64.3886   34.2973   48.6706 H   0  0  0  0  0  0  0  0  0  0  0  0
   66.5959   33.5109   49.5198 H   0  0  0  0  0  0  0  0  0  0  0  0
   66.7374   31.4355   50.9043 H   0  0  0  0  0  0  0  0  0  0  0  0
   62.4492   30.9369   50.6064 H   0  0  0  0  0  0  0  0  0  0  0  0
   60.4906   31.4593   48.1661 H   0  0  0  0  0  0  0  0  0  0  0  0
   59.7505   29.1731   48.7875 H   0  0  0  0  0  0  0  0  0  0  0  0
   58.1892   27.9192   47.3185 H   0  0  0  0  0  0  0  0  0  0  0  0
   58.4252   26.5746   45.9359 H   0  0  0  0  0  0  0  0  0  0  0  0
   58.7528   24.1295   46.2918 H   0  0  0  0  0  0  0  0  0  0  0  0
   56.3527   22.4087   48.5470 H   0  0  0  0  0  0  0  0  0  0  0  0
   56.6904   19.9855   49.0223 H   0  0  0  0  0  0  0  0  0  0  0  0
   57.3495   18.4299   47.1882 H   0  0  0  0  0  0  0  0  0  0  0  0
   57.6571   19.2880   44.8696 H   0  0  0  0  0  0  0  0  0  0  0  0
   56.0220   22.2300   41.9370 H   0  0  0  0  0  0  0  0  0  0  0  0
   54.4723   23.5249   46.0967 H   0  0  0  0  0  0  0  0  0  0  0  0
  1  2  1  0
  2  3  2  0
  3  4  1  0
  4  5  1  0
  5  6  1  0
  6  7  1  0
  7  8  1  0
  8  9  2  0
  8 10  1  0
 10 11  1  0
 11 12  2  0
 12 13  1  0
 13 14  2  0
 14 15  1  0
 15 16  1  0
 15 17  2  0
 10 18  1  0
 18 19  2  0
  3 20  1  0
 20 21  2  0
 21 22  1  0
 22 23  2  0
 23 24  1  0
 24 25  2  0
 24 26  1  0
 26 27  1  0
 27 28  2  0
 28 29  1  0
 29 30  2  0
 30 31  1  0
 31 32  2  0
 32 33  1  0
 33 34  2  0
 34 35  1  0
 35 36  2  0
 36 37  1  0
 37 38  1  0
 37 39  2  0
 37 40  2  0
 30 41  1  0
 41 42  2  0
 42 43  1  0
 23  2  1  0
 42 27  1  0
 18  5  1  0
 36 31  1  0
 17 11  1  0
  1 44  1  0
  1 45  1  0
  1 46  1  0
  4 47  1  0
  4 48  1  0
  6 49  1  0
  6 50  1  0
  7 51  1  0
  7 52  1  0
 12 53  1  0
 13 54  1  0
 14 55  1  0
 17 56  1  0
 20 57  1  0
 21 58  1  0
 22 59  1  0
 28 60  1  0
 29 61  1  0
 32 62  1  0
 33 63  1  0
 34 64  1  0
 35 65  1  0
 38 66  1  0
 41 67  1  0
M  CHG  3  16  -1  26  -1  38  -1
M  END
>  <UniqueID>  (11) 
11

>  <SMILES>  (11) 
Cc1c(CN2CCC(=O)N(c3cccc([O-])c3)C2=O)cccc1C(=O)[N-]c1ccc(-c2ccccc2S([NH-])(=O)=O)cc1F

>  <Energy>  (11) 
102.20221690456341

>  <Genealogy>  (11) 
Cc1c(CN2CCC(=O)N(c3cccc([O-])c3)C2=O)cccc1C(=O)[N-]c1ccc(-c2ccccc2S([NH-])(=O)=O)cc1F (protonated)
Cc1c(CN2CCC(=O)N(c3cccc([O-])c3)C2=O)cccc1C(=O)[N-]c1ccc(-c2ccccc2S([NH-])(=O)=O)cc1F (3D coordinates assigned)
Cc1c(CN2CCC(=O)N(c3cccc([O-])c3)C2=O)cccc1C(=O)[N-]c1ccc(-c2ccccc2S([NH-])(=O)=O)cc1F (nonaromatic ring conformer: 102.20221690456341 kcal/mol)

>  <smiles>  (11) 
Cc1c(CN2CCC(=O)N(c3cccc(O)c3)C2=O)cccc1C(=O)Nc1ccc(-c2ccccc2S(N)(=O)=O)cc1F

>  <score_type>  (11) 
oracle

>  <origin>  (11) 
adg

>  <m_score__min__energy>  (11) 
-18.23

>  <m_primary>  (11) 
energy

$$$$
11:0
     RDKit          3D

 35 36  0  0  0  0  0  0  0  0999 V2000
   57.4227   25.4514   45.6794 H   0  0  0  0  0  0  0  0  0  0  0  0
   57.8210   26.4650   45.8340 C   0  0  0  0  0  0  0  0  0  0  0  0
   57.0540   27.5480   45.5480 N   0  0  0  0  0  0  0  0  0  0  0  0
   57.4760   28.8280   45.7410 C   0  0  0  0  0  0  0  0  0  0  0  0
   56.6460   29.7880   45.4230 N   0  0  0  0  0  0  0  0  0  0  0  0
   55.8680   29.9620   44.2300 C   0  0  0  0  0  0  0  0  0  0  0  0
   54.7870   29.3300   44.0800 O   0  0  0  0  0  0  0  0  0  0  0  0
   56.3620   30.7650   43.1560 N   0  0  0  0  0  0  0  0  0  0  0  0
   57.7100   31.3100   43.1040 C   0  0  0  0  0  0  0  0  0  0  0  0
   58.4284   30.4866   42.9776 H   0  0  0  0  0  0  0  0  0  0  0  0
   57.9113   31.8494   44.0413 H   0  0  0  0  0  0  0  0  0  0  0  0
   57.8500   32.2790   41.9400 C   0  0  0  0  0  0  0  0  0  0  0  0
   57.9972   33.2981   42.3270 H   0  0  0  0  0  0  0  0  0  0  0  0
   58.7159   31.9914   41.3256 H   0  0  0  0  0  0  0  0  0  0  0  0
   56.9381   32.2483   41.3256 H   0  0  0  0  0  0  0  0  0  0  0  0
   58.7990   29.0500   46.2230 C   0  0  0  0  0  0  0  0  0  0  0  0
   59.2820   30.3550   46.4040 O   0  0  0  0  0  0  0  0  0  0  0  0
   58.6780   31.3540   47.2140 C   0  0  0  0  0  0  0  0  0  0  0  0
   57.6021   31.1478   47.3134 H   0  0  0  0  0  0  0  0  0  0  0  0
   59.1390   31.3523   48.2127 H   0  0  0  0  0  0  0  0  0  0  0  0
   58.8770   32.6980   46.5630 C   0  0  0  0  0  0  0  0  0  0  0  0
   57.8540   33.2630   45.7780 C   0  0  0  0  0  0  0  0  0  0  0  0
   56.6590   32.6350   45.6310 F   0  0  0  0  0  0  0  0  0  0  0  0
   58.0600   34.4760   45.1200 C   0  0  0  0  0  0  0  0  0  0  0  0
   57.2540   34.9153   44.5139 H   0  0  0  0  0  0  0  0  0  0  0  0
   59.2860   35.1330   45.2290 C   0  0  0  0  0  0  0  0  0  0  0  0
   59.4471   36.0852   44.7023 H   0  0  0  0  0  0  0  0  0  0  0  0
   60.3060   34.5860   46.0030 C   0  0  0  0  0  0  0  0  0  0  0  0
   61.2701   35.1090   46.0869 H   0  0  0  0  0  0  0  0  0  0  0  0
   60.1110   33.3770   46.6730 C   0  0  0  0  0  0  0  0  0  0  0  0
   61.4450   32.7290   47.6190 Cl  0  0  0  0  0  0  0  0  0  0  0  0
   59.6040   27.9280   46.5000 C   0  0  0  0  0  0  0  0  0  0  0  0
   60.6334   28.0715   46.8603 H   0  0  0  0  0  0  0  0  0  0  0  0
   59.1090   26.6390   46.3220 C   0  0  0  0  0  0  0  0  0  0  0  0
   59.7327   25.7664   46.5658 H   0  0  0  0  0  0  0  0  0  0  0  0
  1  2  1  0
  2  3  1  0
  3  4  1  0
  4  5  2  0
  5  6  1  0
  6  7  2  0
  6  8  1  0
  8  9  1  0
  9 10  1  0
  9 11  1  0
  9 12  1  0
 12 13  1  0
 12 14  1  0
 12 15  1  0
  4 16  1  0
 16 17  1  0
 17 18  1  0
 18 19  1  0
 18 20  1  0
 18 21  1  0
 21 22  2  0
 22 23  1  0
 22 24  1  0
 24 25  1  0
 24 26  2  0
 26 27  1  0
 26 28  1  0
 28 29  1  0
 28 30  2  0
 30 31  1  0
 16 32  2  0
 32 33  1  0
 32 34  1  0
 34 35  1  0
 34  2  2  0
 30 21  1  0
M  CHG  2   3  -1   8  -1
M  END
>  <UniqueID>  (12) 
12

>  <SMILES>  (12) 
CC[N-]C(=O)/N=c1/[n-]cccc1OCc1c(F)cccc1Cl

>  <Energy>  (12) 
43.30009179955084

>  <Genealogy>  (12) 
CC[N-]C(=O)N=c1[n-]cccc1OCc1c(F)cccc1Cl (protonated)
CC[N-]C(=O)/N=c1/[n-]cccc1OCc1c(F)cccc1Cl (cis-trans isomerization)
CC[N-]C(=O)/N=c1/[n-]cccc1OCc1c(F)cccc1Cl (3D coordinates assigned)
CC[N-]C(=O)/N=c1/[n-]cccc1OCc1c(F)cccc1Cl (optimized conformer: 43.30009179955084 kcal/mol)

>  <smiles>  (12) 
CCNC(=O)N=c1[nH]cccc1OCc1c(F)cccc1Cl

>  <score_type>  (12) 
oracle

>  <origin>  (12) 
adg

>  <m_score__min__energy>  (12) 
-9.1199999999999992

>  <m_primary>  (12) 
energy

$$$$
12:0
     RDKit          3D

 46 48  0  0  1  0  0  0  0  0999 V2000
   63.3920   32.4920   47.8390 C   0  0  0  0  0  0  0  0  0  0  0  0
   62.1290   32.7480   48.4290 O   0  0  0  0  0  0  0  0  0  0  0  0
   61.1070   33.3310   47.7070 C   0  0  0  0  0  0  0  0  0  0  0  0
   61.1880   33.5620   46.3330 C   0  0  0  0  0  0  0  0  0  0  0  0
   60.1280   34.1520   45.6520 C   0  0  0  0  0  0  0  0  0  0  0  0
   58.9650   34.5330   46.2910 C   0  0  0  0  0  0  0  0  0  0  0  0
   58.8920   34.3010   47.6510 C   0  0  0  0  0  0  0  0  0  0  0  0
   59.9540   33.7070   48.3410 C   0  0  0  0  0  0  0  0  0  0  0  0
   59.7360   33.5290   49.7470 N   0  0  0  0  0  0  0  0  0  0  0  0
   59.2650   32.3880   50.1440 C   0  0  0  0  0  0  0  0  0  0  0  0
   58.0980   32.2700   50.8690 C   0  0  0  0  0  0  0  0  0  0  0  0
   57.6160   31.0250   51.2830 C   0  0  0  0  0  0  0  0  0  0  0  0
   56.1250   30.9040   52.2050 Cl  0  0  0  0  0  0  0  0  0  0  0  0
   58.3040   29.9120   50.9690 N   0  0  0  0  0  0  0  0  0  0  0  0
   59.4340   30.0480   50.2650 C   0  0  0  0  0  0  0  0  0  0  0  0
   60.0930   29.0060   49.9620 N   0  0  0  0  0  0  0  0  0  0  0  0
   60.7560   28.7570   48.6990 C   0  0  0  0  0  0  0  0  0  0  0  0
   59.6890   28.9870   47.6600 C   0  0  0  0  0  0  0  0  0  0  0  0
   59.6190   30.1950   46.9680 C   0  0  0  0  0  0  0  0  0  0  0  0
   58.6830   30.4680   46.0210 C   0  0  0  0  0  0  0  0  0  0  0  0
   57.7340   29.4870   45.7150 C   0  0  0  0  0  0  0  0  0  0  0  0
   56.5050   29.8070   44.4900 S   0  0  0  0  0  0  0  0  0  0  0  0
   57.0790   29.0610   43.0390 N   0  0  0  0  0  0  0  0  0  0  0  0
   56.5040   31.2970   44.2240 O   0  0  0  0  0  0  0  0  0  0  0  0
   55.1670   29.3280   44.9160 O   0  0  0  0  0  0  0  0  0  0  0  0
   57.7920   28.2910   46.3900 C   0  0  0  0  0  0  0  0  0  0  0  0
   58.7520   28.0200   47.3580 C   0  0  0  0  0  0  0  0  0  0  0  0
   59.9160   31.2390   49.8570 N   0  0  0  0  0  0  0  0  0  0  0  0
   64.1419   32.3400   48.6293 H   0  0  0  0  0  0  0  0  0  0  0  0
   63.3288   31.5884   47.2149 H   0  0  0  0  0  0  0  0  0  0  0  0
   63.6856   33.3489   47.2149 H   0  0  0  0  0  0  0  0  0  0  0  0
   62.0972   33.2753   45.7842 H   0  0  0  0  0  0  0  0  0  0  0  0
   60.2195   34.3205   44.5688 H   0  0  0  0  0  0  0  0  0  0  0  0
   58.1341   35.0002   45.7421 H   0  0  0  0  0  0  0  0  0  0  0  0
   57.9834   34.5882   48.2005 H   0  0  0  0  0  0  0  0  0  0  0  0
   57.5328   33.1775   51.1278 H   0  0  0  0  0  0  0  0  0  0  0  0
   57.9570   28.9980   51.2690 H   0  0  0  0  0  0  0  0  0  0  0  0
   61.5945   29.4545   48.5560 H   0  0  0  0  0  0  0  0  0  0  0  0
   61.1823   27.7445   48.6432 H   0  0  0  0  0  0  0  0  0  0  0  0
   60.3630   30.9709   47.2014 H   0  0  0  0  0  0  0  0  0  0  0  0
   58.6720   31.4400   45.5061 H   0  0  0  0  0  0  0  0  0  0  0  0
   56.8150   28.0730   42.9650 H   0  0  0  0  0  0  0  0  0  0  0  0
   58.0760   29.2880   42.8510 H   0  0  0  0  0  0  0  0  0  0  0  0
   57.0477   27.5161   46.1543 H   0  0  0  0  0  0  0  0  0  0  0  0
   58.7646   27.0494   47.8755 H   0  0  0  0  0  0  0  0  0  0  0  0
   60.7910   31.3030   49.3160 H   0  0  0  0  0  0  0  0  0  0  0  0
  1  2  1  0
  2  3  1  0
  3  4  2  0
  4  5  1  0
  5  6  2  0
  6  7  1  0
  7  8  2  0
  8  9  1  0
  9 10  2  0
 10 11  1  0
 11 12  2  0
 12 13  1  0
 12 14  1  0
 14 15  1  0
 15 16  2  0
 16 17  1  0
 17 18  1  0
 18 19  2  0
 19 20  1  0
 20 21  2  0
 21 22  1  0
 22 23  1  0
 22 24  2  0
 22 25  2  0
 21 26  1  0
 26 27  2  0
 15 28  1  0
  8  3  1  0
 28 10  1  0
 27 18  1  0
  1 29  1  0
  1 30  1  0
  1 31  1  0
  4 32  1  0
  5 33  1  0
  6 34  1  0
  7 35  1  0
 11 36  1  0
 14 37  1  0
 17 38  1  0
 17 39  1  0
 19 40  1  0
 20 41  1  0
 23 42  1  0
 23 43  1  0
 26 44  1  0
 27 45  1  0
 28 46  1  0
M  END
>  <smiles>  (13) 
COc1ccccc1N=c1cc(Cl)[nH]c(=NCc2ccc(S(N)(=O)=O)cc2)[nH]1

>  <score_type>  (13) 
oracle

>  <origin>  (13) 
adg

>  <m_score__min__energy>  (13) 
-8.8399999999999999

>  <m_primary>  (13) 
energy

$$$$
13:0
     RDKit          3D

 31 32  0  0  0  0  0  0  0  0999 V2000
   57.7320   29.3980   51.6780 O   0  0  0  0  0  0  0  0  0  0  0  0
   57.4890   30.6290   51.5560 C   0  0  0  0  0  0  0  0  0  0  0  0
   58.5800   31.5510   51.4790 N   0  0  0  0  0  0  0  0  0  0  0  0
   58.9120   32.3410   50.3290 C   0  0  0  0  0  0  0  0  0  0  0  0
   59.6700   33.5220   50.4330 C   0  0  0  0  0  0  0  0  0  0  0  0
   59.9830   34.2610   49.2890 C   0  0  0  0  0  0  0  0  0  0  0  0
   59.5490   33.8250   48.0320 C   0  0  0  0  0  0  0  0  0  0  0  0
   59.9310   34.7600   46.5990 Cl  0  0  0  0  0  0  0  0  0  0  0  0
   58.8170   32.6390   47.9210 C   0  0  0  0  0  0  0  0  0  0  0  0
   58.5090   31.8950   49.0630 C   0  0  0  0  0  0  0  0  0  0  0  0
   56.1730   31.0840   51.4430 O   0  0  0  0  0  0  0  0  0  0  0  0
   55.1560   30.7640   52.3830 C   0  0  0  0  0  0  0  0  0  0  0  0
   53.9210   30.2220   51.6560 C   0  0  0  0  0  0  0  0  0  0  0  0
   52.6970   31.1420   51.7870 C   0  0  0  0  0  0  0  0  0  0  0  0
   51.8760   31.1790   50.5330 C   0  0  0  0  0  0  0  0  0  0  0  0
   51.7660   30.1730   49.6030 C   0  0  0  0  0  0  0  0  0  0  0  0
   50.9610   30.5860   48.6100 N   0  0  0  0  0  0  0  0  0  0  0  0
   50.6090   31.8380   48.9700 C   0  0  0  0  0  0  0  0  0  0  0  0
   51.1520   32.2400   50.1380 N   0  0  0  0  0  0  0  0  0  0  0  0
   60.0175   33.8649   51.4187 H   0  0  0  0  0  0  0  0  0  0  0  0
   60.5712   35.1864   49.3766 H   0  0  0  0  0  0  0  0  0  0  0  0
   58.4828   32.2908   46.9325 H   0  0  0  0  0  0  0  0  0  0  0  0
   57.9472   30.9541   48.9678 H   0  0  0  0  0  0  0  0  0  0  0  0
   55.5319   30.0011   53.0806 H   0  0  0  0  0  0  0  0  0  0  0  0
   54.8784   31.6726   52.9374 H   0  0  0  0  0  0  0  0  0  0  0  0
   54.1631   30.1101   50.5888 H   0  0  0  0  0  0  0  0  0  0  0  0
   53.6611   29.2593   52.1205 H   0  0  0  0  0  0  0  0  0  0  0  0
   52.0670   30.7772   52.6116 H   0  0  0  0  0  0  0  0  0  0  0  0
   53.0616   32.1616   51.9806 H   0  0  0  0  0  0  0  0  0  0  0  0
   52.2569   29.1904   49.6621 H   0  0  0  0  0  0  0  0  0  0  0  0
   49.9417   32.4717   48.3675 H   0  0  0  0  0  0  0  0  0  0  0  0
  1  2  2  0
  2  3  1  0
  3  4  1  0
  4  5  2  0
  5  6  1  0
  6  7  2  0
  7  8  1  0
  7  9  1  0
  9 10  2  0
  2 11  1  0
 11 12  1  0
 12 13  1  0
 13 14  1  0
 14 15  1  0
 15 16  2  0
 16 17  1  0
 17 18  1  0
 18 19  2  0
 10  4  1  0
 19 15  1  0
  5 20  1  0
  6 21  1  0
  9 22  1  0
 10 23  1  0
 12 24  1  0
 12 25  1  0
 13 26  1  0
 13 27  1  0
 14 28  1  0
 14 29  1  0
 16 30  1  0
 18 31  1  0
M  CHG  2   3  -1  17  -1
M  END
>  <UniqueID>  (14) 
13

>  <SMILES>  (14) 
O=C([N-]c1ccc(Cl)cc1)OCCCc1c[n-]cn1

>  <Energy>  (14) 
51.60952253785649

>  <Genealogy>  (14) 
O=C([N-]c1ccc(Cl)cc1)OCCCc1c[n-]cn1 (protonated)
O=C([N-]c1ccc(Cl)cc1)OCCCc1c[n-]cn1 (3D coordinates assigned)
O=C([N-]c1ccc(Cl)cc1)OCCCc1c[n-]cn1 (optimized conformer: 51.60952253785649 kcal/mol)

>  <smiles>  (14) 
O=C(Nc1ccc(Cl)cc1)OCCCc1c[nH]cn1

>  <score_type>  (14) 
oracle

>  <origin>  (14) 
adg

>  <m_score__min__energy>  (14) 
-9.9800000000000004

>  <m_primary>  (14) 
energy

$$$$
14:0
     RDKit          3D

 54 57  0  0  0  0  0  0  0  0999 V2000
   56.6790   22.8250   46.0110 C   0  0  0  0  0  0  0  0  0  0  0  0
   56.5060   24.5750   46.3030 S   0  0  0  0  0  0  0  0  0  0  0  0
   57.1240   24.8780   47.6350 O   0  0  0  0  0  0  0  0  0  0  0  0
   55.0320   24.8690   46.3460 O   0  0  0  0  0  0  0  0  0  0  0  0
   57.2790   25.5580   45.0370 C   0  0  0  0  0  0  0  0  0  0  0  0
   57.2870   25.0550   43.7220 C   0  0  0  0  0  0  0  0  0  0  0  0
   57.7570   25.8250   42.6610 C   0  0  0  0  0  0  0  0  0  0  0  0
   58.2130   27.1190   42.8870 C   0  0  0  0  0  0  0  0  0  0  0  0
   58.2360   27.6320   44.1820 C   0  0  0  0  0  0  0  0  0  0  0  0
   57.8230   26.8540   45.2830 C   0  0  0  0  0  0  0  0  0  0  0  0
   57.9470   27.4770   46.6690 C   0  0  0  0  0  0  0  0  0  0  0  0
   59.4060   27.6950   47.1550 C   0  0  2  0  0  0  0  0  0  0  0  0
   59.4670   27.8840   48.5480 O   0  0  0  0  0  0  0  0  0  0  0  0
   60.1390   28.8360   46.4090 C   0  0  0  0  0  0  0  0  0  0  0  0
   60.6420   29.9400   47.3620 C   0  0  0  0  0  0  0  0  0  0  0  0
   59.6970   31.0650   47.4560 N   0  0  0  0  0  0  0  0  0  0  0  0
   59.7990   31.9990   48.5520 C   0  0  0  0  0  0  0  0  0  0  0  0
   59.7690   31.5620   49.8860 C   0  0  0  0  0  0  0  0  0  0  0  0
   59.7140   32.4920   50.9310 C   0  0  0  0  0  0  0  0  0  0  0  0
   59.6620   31.9370   52.5940 Cl  0  0  0  0  0  0  0  0  0  0  0  0
   59.6820   33.8610   50.6490 C   0  0  0  0  0  0  0  0  0  0  0  0
   59.7310   34.3060   49.3260 C   0  0  0  0  0  0  0  0  0  0  0  0
   59.8110   33.3810   48.2810 C   0  0  0  0  0  0  0  0  0  0  0  0
   60.0560   33.9420   46.5940 S   0  0  0  0  0  0  0  0  0  0  0  0
   58.8540   32.7920   45.9200 C   0  0  0  0  0  0  0  0  0  0  0  0
   57.9450   33.2220   44.9500 C   0  0  0  0  0  0  0  0  0  0  0  0
   57.0630   32.3130   44.3640 C   0  0  0  0  0  0  0  0  0  0  0  0
   57.0660   30.9640   44.7570 C   0  0  0  0  0  0  0  0  0  0  0  0
   56.1320   29.9970   44.1410 C   0  0  0  0  0  0  0  0  0  0  0  0
   56.1870   29.7500   42.9070 O   0  0  0  0  0  0  0  0  0  0  0  0
   55.1820   29.3410   44.9170 O   0  0  0  0  0  0  0  0  0  0  0  0
   57.9600   30.5450   45.7590 C   0  0  0  0  0  0  0  0  0  0  0  0
   58.8710   31.4470   46.3330 C   0  0  0  0  0  0  0  0  0  0  0  0
   56.7313   22.2960   46.9740 H   0  0  0  0  0  0  0  0  0  0  0  0
   55.8124   22.4612   45.4394 H   0  0  0  0  0  0  0  0  0  0  0  0
   57.6000   22.6379   45.4394 H   0  0  0  0  0  0  0  0  0  0  0  0
   56.9161   24.0375   43.5296 H   0  0  0  0  0  0  0  0  0  0  0  0
   57.7675   25.4089   41.6428 H   0  0  0  0  0  0  0  0  0  0  0  0
   58.5553   27.7371   42.0439 H   0  0  0  0  0  0  0  0  0  0  0  0
   58.5826   28.6626   44.3486 H   0  0  0  0  0  0  0  0  0  0  0  0
   57.4421   28.4541   46.6518 H   0  0  0  0  0  0  0  0  0  0  0  0
   57.4889   26.7652   47.3714 H   0  0  0  0  0  0  0  0  0  0  0  0
   59.9422   26.7670   46.9074 H   0  0  0  0  0  0  0  0  0  0  0  0
   58.9560   28.7040   48.7710 H   0  0  0  0  0  0  0  0  0  0  0  0
   61.0020   28.4109   45.8755 H   0  0  0  0  0  0  0  0  0  0  0  0
   59.4202   29.2965   45.7153 H   0  0  0  0  0  0  0  0  0  0  0  0
   60.7793   29.5077   48.3641 H   0  0  0  0  0  0  0  0  0  0  0  0
   61.5900   30.3273   46.9604 H   0  0  0  0  0  0  0  0  0  0  0  0
   59.7888   30.4854   50.1108 H   0  0  0  0  0  0  0  0  0  0  0  0
   59.6181   34.5893   51.4709 H   0  0  0  0  0  0  0  0  0  0  0  0
   59.7067   35.3836   49.1065 H   0  0  0  0  0  0  0  0  0  0  0  0
   57.9245   34.2794   44.6475 H   0  0  0  0  0  0  0  0  0  0  0  0
   56.3608   32.6549   43.5893 H   0  0  0  0  0  0  0  0  0  0  0  0
   57.9455   29.4984   46.0971 H   0  0  0  0  0  0  0  0  0  0  0  0
  1  2  1  0
  2  3  2  0
  2  4  2  0
  2  5  1  0
  5  6  2  0
  6  7  1  0
  7  8  2  0
  8  9  1  0
  9 10  2  0
 10 11  1  0
 11 12  1  0
 12 13  1  0
 12 14  1  0
 14 15  1  0
 15 16  1  0
 16 17  1  0
 17 18  2  0
 18 19  1  0
 19 20  1  0
 19 21  2  0
 21 22  1  0
 22 23  2  0
 23 24  1  0
 24 25  1  0
 25 26  2  0
 26 27  1  0
 27 28  2  0
 28 29  1  0
 29 30  2  0
 29 31  1  0
 28 32  1  0
 32 33  2  0
 10  5  1  0
 33 16  1  0
 23 17  1  0
 33 25  1  0
  1 34  1  0
  1 35  1  0
  1 36  1  0
  6 37  1  0
  7 38  1  0
  8 39  1  0
  9 40  1  0
 11 41  1  0
 11 42  1  0
 12 43  1  1
 13 44  1  0
 14 45  1  0
 14 46  1  0
 15 47  1  0
 15 48  1  0
 18 49  1  0
 21 50  1  0
 22 51  1  0
 26 52  1  0
 27 53  1  0
 32 54  1  0
M  CHG  1  31  -1
M  END
>  <UniqueID>  (15) 
14

>  <SMILES>  (15) 
CS(=O)(=O)c1ccccc1C[C@H](O)CCN1c2cc(Cl)ccc2Sc2ccc(C(=O)[O-])cc21

>  <Energy>  (15) 
80.91552896130592

>  <Genealogy>  (15) 
CS(=O)(=O)c1ccccc1CC(O)CCN1c2cc(Cl)ccc2Sc2ccc(C(=O)[O-])cc21 (protonated)
CS(=O)(=O)c1ccccc1C[C@H](O)CCN1c2cc(Cl)ccc2Sc2ccc(C(=O)[O-])cc21 (chirality)
CS(=O)(=O)c1ccccc1C[C@H](O)CCN1c2cc(Cl)ccc2Sc2ccc(C(=O)[O-])cc21 (3D coordinates assigned)
CS(=O)(=O)c1ccccc1C[C@H](O)CCN1c2cc(Cl)ccc2Sc2ccc(C(=O)[O-])cc21 (nonaromatic ring conformer: 80.91552896130592 kcal/mol)

>  <smiles>  (15) 
CS(=O)(=O)c1ccccc1CC(O)CCN1c2cc(Cl)ccc2Sc2ccc(C(=O)O)cc21

>  <score_type>  (15) 
oracle

>  <origin>  (15) 
adg

>  <m_score__min__energy>  (15) 
-11.960000000000001

>  <m_primary>  (15) 
energy

$$$$
15:0
     RDKit          3D

 43 45  0  0  0  0  0  0  0  0999 V2000
   60.7954   30.9296   45.6716 H   0  0  0  0  0  0  0  0  0  0  0  0
   60.7740   30.8310   46.7670 C   0  0  0  0  0  0  0  0  0  0  0  0
   61.3230   31.7320   47.5010 N   0  0  0  0  0  0  0  0  0  0  0  0
   61.0070   33.3980   47.2450 S   0  0  0  0  0  0  0  0  0  0  0  0
   62.0840   33.9820   46.3770 O   0  0  0  0  0  0  0  0  0  0  0  0
   60.9990   34.1280   48.5610 O   0  0  0  0  0  0  0  0  0  0  0  0
   59.4560   33.5730   46.4470 C   0  0  0  0  0  0  0  0  0  0  0  0
   57.9660   33.2530   47.1540 S   0  0  0  0  0  0  0  0  0  0  0  0
   57.0410   33.7390   45.8360 C   0  0  0  0  0  0  0  0  0  0  0  0
   55.9426   33.7206   45.7793 H   0  0  0  0  0  0  0  0  0  0  0  0
   57.9000   34.1680   44.8300 C   0  0  0  0  0  0  0  0  0  0  0  0
   57.5484   34.5405   43.8566 H   0  0  0  0  0  0  0  0  0  0  0  0
   59.2540   34.0810   45.1730 C   0  0  0  0  0  0  0  0  0  0  0  0
   60.0717   34.3838   44.5025 H   0  0  0  0  0  0  0  0  0  0  0  0
   60.1050   29.6470   47.3960 C   0  0  0  0  0  0  0  0  0  0  0  0
   59.7662   29.9172   48.4071 H   0  0  0  0  0  0  0  0  0  0  0  0
   60.8246   28.8166   47.4472 H   0  0  0  0  0  0  0  0  0  0  0  0
   58.9140   29.2130   46.5710 C   0  0  0  0  0  0  0  0  0  0  0  0
   58.4930   27.8590   46.4950 C   0  0  0  0  0  0  0  0  0  0  0  0
   59.2060   26.7780   47.2750 C   0  0  0  0  0  0  0  0  0  0  0  0
   59.0843   26.9625   48.3526 H   0  0  0  0  0  0  0  0  0  0  0  0
   58.7765   25.7979   47.0200 H   0  0  0  0  0  0  0  0  0  0  0  0
   60.2760   26.7870   47.0200 H   0  0  0  0  0  0  0  0  0  0  0  0
   57.3860   27.5420   45.6670 C   0  0  0  0  0  0  0  0  0  0  0  0
   56.9620   26.1840   45.4560 N   0  0  0  0  0  0  0  0  0  0  0  0
   55.7280   25.6860   45.6620 C   0  0  0  0  0  0  0  0  0  0  0  0
   54.7690   26.3370   46.1550 O   0  0  0  0  0  0  0  0  0  0  0  0
   55.6730   24.3700   45.2520 C   0  0  0  0  0  0  0  0  0  0  0  0
   54.8168   23.6805   45.2899 H   0  0  0  0  0  0  0  0  0  0  0  0
   56.9530   24.1230   44.7810 C   0  0  0  0  0  0  0  0  0  0  0  0
   57.4230   22.8580   44.1340 C   0  0  0  0  0  0  0  0  0  0  0  0
   58.0227   23.1045   43.2454 H   0  0  0  0  0  0  0  0  0  0  0  0
   58.0344   22.2913   44.8517 H   0  0  0  0  0  0  0  0  0  0  0  0
   56.2520   22.0270   43.7250 C   0  0  0  0  0  0  0  0  0  0  0  0
   55.9440   21.9170   42.5090 O   0  0  0  0  0  0  0  0  0  0  0  0
   55.5170   21.3410   44.6850 O   0  0  0  0  0  0  0  0  0  0  0  0
   57.7020   25.2390   44.8990 N   0  0  0  0  0  0  0  0  0  0  0  0
   58.6850   25.3590   44.5650 H   0  0  0  0  0  0  0  0  0  0  0  0
   56.6990   28.5400   45.0470 N   0  0  0  0  0  0  0  0  0  0  0  0
   57.0550   29.8430   45.1560 C   0  0  0  0  0  0  0  0  0  0  0  0
   56.3790   30.7270   44.5660 O   0  0  0  0  0  0  0  0  0  0  0  0
   58.1700   30.2010   45.9080 C   0  0  0  0  0  0  0  0  0  0  0  0
   58.4678   31.2573   45.9826 H   0  0  0  0  0  0  0  0  0  0  0  0
  1  2  1  0
  2  3  2  0
  3  4  1  0
  4  5  2  0
  4  6  2  0
  4  7  1  0
  7  8  1  0
  8  9  1  0
  9 10  1  0
  9 11  2  0
 11 12  1  0
 11 13  1  0
 13 14  1  0
  2 15  1  0
 15 16  1  0
 15 17  1  0
 15 18  1  0
 18 19  1  0
 19 20  1  0
 20 21  1  0
 20 22  1  0
 20 23  1  0
 19 24  2  0
 24 25  1  0
 25 26  1  0
 26 27  2  0
 26 28  1  0
 28 29  1  0
 28 30  2  0
 30 31  1  0
 31 32  1  0
 31 33  1  0
 31 34  1  0
 34 35  2  0
 34 36  1  0
 30 37  1  0
 37 38  1  0
 24 39  1  0
 39 40  1  0
 40 41  2  0
 40 42  1  0
 42 43  1  0
 13  7  2  0
 42 18  2  0
 37 25  1  0
M  CHG  2  36  -1  39  -1
M  END
>  <UniqueID>  (16) 
15

>  <SMILES>  (16) 
Cc1c(C/C=N/S(=O)(=O)c2cccs2)cc(=O)[n-]c1-n1[nH]c(CC(=O)[O-])cc1=O

>  <Energy>  (16) 
108.36326804816895

>  <Genealogy>  (16) 
Cc1c(CC=NS(=O)(=O)c2cccs2)cc(=O)[n-]c1-n1[nH]c(CC(=O)[O-])cc1=O (protonated)
Cc1c(C/C=N/S(=O)(=O)c2cccs2)cc(=O)[n-]c1-n1[nH]c(CC(=O)[O-])cc1=O (cis-trans isomerization)
Cc1c(C/C=N/S(=O)(=O)c2cccs2)cc(=O)[n-]c1-n1[nH]c(CC(=O)[O-])cc1=O (3D coordinates assigned)
Cc1c(C/C=N/S(=O)(=O)c2cccs2)cc(=O)[n-]c1-n1[nH]c(CC(=O)[O-])cc1=O (optimized conformer: 108.36326804816895 kcal/mol)

>  <smiles>  (16) 
Cc1c(CC=NS(=O)(=O)c2cccs2)cc(=O)[nH]c1-n1[nH]c(CC(=O)O)cc1=O

>  <score_type>  (16) 
oracle

>  <origin>  (16) 
adg

>  <m_score__min__energy>  (16) 
-12.699999999999999

>  <m_primary>  (16) 
energy

$$$$
16:0
     RDKit          3D

 40 42  0  0  0  0  0  0  0  0999 V2000
   56.6360   29.1890   43.0320 O   0  0  0  0  0  0  0  0  0  0  0  0
   56.6680   29.5060   44.2520 C   0  0  0  0  0  0  0  0  0  0  0  0
   56.0690   28.6420   45.2280 N   0  0  0  0  0  0  0  0  0  0  0  0
   56.8040   27.5940   45.9170 C   0  0  0  0  0  0  0  0  0  0  0  0
   56.0920   26.3040   45.7340 C   0  0  0  0  0  0  0  0  0  0  0  0
   56.6620   25.0870   45.4210 C   0  0  0  0  0  0  0  0  0  0  0  0
   55.6240   24.1960   45.3590 C   0  0  0  0  0  0  0  0  0  0  0  0
   54.4830   24.9210   45.6340 C   0  0  0  0  0  0  0  0  0  0  0  0
   54.7930   26.1750   45.8520 O   0  0  0  0  0  0  0  0  0  0  0  0
   57.3270   30.7620   44.6790 C   0  0  0  0  0  0  0  0  0  0  0  0
   57.7780   30.9250   46.0010 C   0  0  0  0  0  0  0  0  0  0  0  0
   58.3980   32.1200   46.4000 C   0  0  0  0  0  0  0  0  0  0  0  0
   58.5790   33.1670   45.4830 C   0  0  0  0  0  0  0  0  0  0  0  0
   59.3430   34.6670   46.0040 S   0  0  0  0  0  0  0  0  0  0  0  0
   59.2710   35.6540   44.8750 O   0  0  0  0  0  0  0  0  0  0  0  0
   58.6190   35.2410   47.1960 O   0  0  0  0  0  0  0  0  0  0  0  0
   61.0160   34.4100   46.4190 N   0  0  0  0  0  0  0  0  0  0  0  0
   61.4900   33.5010   47.4240 C   0  0  0  0  0  0  0  0  0  0  0  0
   62.4370   32.5030   47.1240 C   0  0  0  0  0  0  0  0  0  0  0  0
   62.8610   31.6210   48.1150 C   0  0  0  0  0  0  0  0  0  0  0  0
   62.3560   31.7290   49.4170 C   0  0  0  0  0  0  0  0  0  0  0  0
   61.4380   32.7300   49.7350 C   0  0  0  0  0  0  0  0  0  0  0  0
   61.0010   33.6200   48.7490 C   0  0  0  0  0  0  0  0  0  0  0  0
   60.0640   34.6020   49.1040 O   0  0  0  0  0  0  0  0  0  0  0  0
   58.1390   33.0080   44.1630 C   0  0  0  0  0  0  0  0  0  0  0  0
   57.5080   31.8210   43.7660 C   0  0  0  0  0  0  0  0  0  0  0  0
   57.8182   27.5182   45.4979 H   0  0  0  0  0  0  0  0  0  0  0  0
   56.8732   27.8316   46.9888 H   0  0  0  0  0  0  0  0  0  0  0  0
   57.7289   24.8763   45.2556 H   0  0  0  0  0  0  0  0  0  0  0  0
   55.6871   23.1208   45.1354 H   0  0  0  0  0  0  0  0  0  0  0  0
   53.4642   24.5075   45.6655 H   0  0  0  0  0  0  0  0  0  0  0  0
   57.6441   30.1103   46.7279 H   0  0  0  0  0  0  0  0  0  0  0  0
   58.7440   32.2363   47.4377 H   0  0  0  0  0  0  0  0  0  0  0  0
   62.8427   32.4198   46.1049 H   0  0  0  0  0  0  0  0  0  0  0  0
   63.5945   30.8374   47.8745 H   0  0  0  0  0  0  0  0  0  0  0  0
   62.6848   31.0213   50.1922 H   0  0  0  0  0  0  0  0  0  0  0  0
   61.0572   32.8194   50.7631 H   0  0  0  0  0  0  0  0  0  0  0  0
   59.6890   35.2620   48.4320 H   0  0  0  0  0  0  0  0  0  0  0  0
   58.2893   33.8183   43.4344 H   0  0  0  0  0  0  0  0  0  0  0  0
   57.1503   31.7146   42.7312 H   0  0  0  0  0  0  0  0  0  0  0  0
  1  2  2  0
  2  3  1  0
  3  4  1  0
  4  5  1  0
  5  6  2  0
  6  7  1  0
  7  8  2  0
  8  9  1  0
  2 10  1  0
 10 11  2  0
 11 12  1  0
 12 13  2  0
 13 14  1  0
 14 15  2  0
 14 16  2  0
 14 17  1  0
 17 18  1  0
 18 19  2  0
 19 20  1  0
 20 21  2  0
 21 22  1  0
 22 23  2  0
 23 24  1  0
 13 25  1  0
 25 26  2  0
  9  5  1  0
 26 10  1  0
 23 18  1  0
  4 27  1  0
  4 28  1  0
  6 29  1  0
  7 30  1  0
  8 31  1  0
 11 32  1  0
 12 33  1  0
 19 34  1  0
 20 35  1  0
 21 36  1  0
 22 37  1  0
 24 38  1  0
 25 39  1  0
 26 40  1  0
M  CHG  2   3  -1  17  -1
M  END
>  <UniqueID>  (17) 
16

>  <SMILES>  (17) 
O=C([N-]Cc1ccco1)c1ccc(S(=O)(=O)[N-]c2ccccc2O)cc1

>  <Energy>  (17) 
71.16890703368142

>  <Genealogy>  (17) 
O=C([N-]Cc1ccco1)c1ccc(S(=O)(=O)[N-]c2ccccc2O)cc1 (protonated)
O=C([N-]Cc1ccco1)c1ccc(S(=O)(=O)[N-]c2ccccc2O)cc1 (3D coordinates assigned)
O=C([N-]Cc1ccco1)c1ccc(S(=O)(=O)[N-]c2ccccc2O)cc1 (optimized conformer: 71.16890703368142 kcal/mol)

>  <smiles>  (17) 
O=C(NCc1ccco1)c1ccc(S(=O)(=O)Nc2ccccc2O)cc1

>  <score_type>  (17) 
oracle

>  <origin>  (17) 
adg

>  <m_score__min__energy>  (17) 
-11.609999999999999

>  <m_primary>  (17) 
energy

$$$$
17:0
     RDKit          3D

 37 39  0  0  0  0  0  0  0  0999 V2000
   57.0280   31.5990   41.5170 O   0  0  0  0  0  0  0  0  0  0  0  0
   56.9300   31.1040   42.6720 C   0  0  0  0  0  0  0  0  0  0  0  0
   56.2640   29.7720   42.8460 C   0  0  0  0  0  0  0  0  0  0  0  0
   57.1040   28.8910   43.6720 N   0  0  0  0  0  0  0  0  0  0  0  0
   57.7670   27.8590   43.0700 C   0  0  0  0  0  0  0  0  0  0  0  0
   58.5740   27.0390   43.7910 N   0  0  0  0  0  0  0  0  0  0  0  0
   58.7520   27.2200   45.1220 C   0  0  0  0  0  0  0  0  0  0  0  0
   59.5890   26.3580   45.8400 C   0  0  0  0  0  0  0  0  0  0  0  0
   59.7760   26.5480   47.2120 C   0  0  0  0  0  0  0  0  0  0  0  0
   59.1290   27.5980   47.8700 C   0  0  0  0  0  0  0  0  0  0  0  0
   58.2910   28.4640   47.1600 C   0  0  0  0  0  0  0  0  0  0  0  0
   58.0960   28.2790   45.7780 C   0  0  0  0  0  0  0  0  0  0  0  0
   57.2640   29.1200   45.0160 C   0  0  0  0  0  0  0  0  0  0  0  0
   56.6690   30.0850   45.5720 O   0  0  0  0  0  0  0  0  0  0  0  0
   57.4930   31.7850   43.8030 N   0  0  0  0  0  0  0  0  0  0  0  0
   58.1610   33.0780   43.6850 C   0  0  0  0  0  0  0  0  0  0  0  0
   58.5540   33.5870   45.0450 C   0  0  0  0  0  0  0  0  0  0  0  0
   59.3070   34.7670   45.1780 C   0  0  0  0  0  0  0  0  0  0  0  0
   59.6500   35.2430   46.4470 C   0  0  0  0  0  0  0  0  0  0  0  0
   59.2420   34.5490   47.5910 C   0  0  0  0  0  0  0  0  0  0  0  0
   58.4900   33.3780   47.4660 C   0  0  0  0  0  0  0  0  0  0  0  0
   58.1440   32.8980   46.1980 C   0  0  0  0  0  0  0  0  0  0  0  0
   55.2907   29.9134   43.3387 H   0  0  0  0  0  0  0  0  0  0  0  0
   56.1198   29.3097   41.8583 H   0  0  0  0  0  0  0  0  0  0  0  0
   57.6456   27.6907   41.9897 H   0  0  0  0  0  0  0  0  0  0  0  0
   60.0995   25.5312   45.3245 H   0  0  0  0  0  0  0  0  0  0  0  0
   60.4338   25.8698   47.7753 H   0  0  0  0  0  0  0  0  0  0  0  0
   59.2794   27.7437   48.9499 H   0  0  0  0  0  0  0  0  0  0  0  0
   57.7844   29.2895   47.6813 H   0  0  0  0  0  0  0  0  0  0  0  0
   57.4330   31.3410   44.7470 H   0  0  0  0  0  0  0  0  0  0  0  0
   59.0625   32.9657   43.0648 H   0  0  0  0  0  0  0  0  0  0  0  0
   57.4710   33.7967   43.2189 H   0  0  0  0  0  0  0  0  0  0  0  0
   59.6272   35.3172   44.2809 H   0  0  0  0  0  0  0  0  0  0  0  0
   60.2418   36.1649   46.5460 H   0  0  0  0  0  0  0  0  0  0  0  0
   59.5131   34.9250   48.5886 H   0  0  0  0  0  0  0  0  0  0  0  0
   58.1695   32.8326   48.3659 H   0  0  0  0  0  0  0  0  0  0  0  0
   57.5488   31.9777   46.1040 H   0  0  0  0  0  0  0  0  0  0  0  0
  1  2  2  0
  2  3  1  0
  3  4  1  0
  4  5  1  0
  5  6  2  0
  6  7  1  0
  7  8  2  0
  8  9  1  0
  9 10  2  0
 10 11  1  0
 11 12  2  0
 12 13  1  0
 13 14  2  0
  2 15  1  0
 15 16  1  0
 16 17  1  0
 17 18  2  0
 18 19  1  0
 19 20  2  0
 20 21  1  0
 21 22  2  0
 13  4  1  0
 22 17  1  0
 12  7  1  0
  3 23  1  0
  3 24  1  0
  5 25  1  0
  8 26  1  0
  9 27  1  0
 10 28  1  0
 11 29  1  0
 15 30  1  0
 16 31  1  0
 16 32  1  0
 18 33  1  0
 19 34  1  0
 20 35  1  0
 21 36  1  0
 22 37  1  0
M  END
>  <UniqueID>  (18) 
17

>  <SMILES>  (18) 
O=C(Cn1cnc2ccccc2c1=O)NCc1ccccc1

>  <Energy>  (18) 
41.949852297620865

>  <Genealogy>  (18) 
O=C(Cn1cnc2ccccc2c1=O)NCc1ccccc1 (3D coordinates assigned)
O=C(Cn1cnc2ccccc2c1=O)NCc1ccccc1 (optimized conformer: 41.949852297620865 kcal/mol)

>  <smiles>  (18) 
O=C(Cn1cnc2ccccc2c1=O)NCc1ccccc1

>  <score_type>  (18) 
oracle

>  <origin>  (18) 
adg

>  <m_score__min__energy>  (18) 
-7.2800000000000002

>  <m_primary>  (18) 
energy

$$$$
18:0
     RDKit          3D

 38 39  0  0  0  0  0  0  0  0999 V2000
   59.7870   34.2650   45.7350 C   0  0  0  0  0  0  0  0  0  0  0  0
   58.8840   33.1300   45.3540 C   0  0  0  0  0  0  0  0  0  0  0  0
   58.2360   33.1340   44.1100 C   0  0  0  0  0  0  0  0  0  0  0  0
   57.3740   32.0920   43.7600 C   0  0  0  0  0  0  0  0  0  0  0  0
   57.1630   31.0180   44.6400 C   0  0  0  0  0  0  0  0  0  0  0  0
   56.2390   29.9160   44.2930 C   0  0  0  0  0  0  0  0  0  0  0  0
   55.6890   29.9190   43.1600 O   0  0  0  0  0  0  0  0  0  0  0  0
   55.9500   28.8320   45.1880 N   0  0  0  0  0  0  0  0  0  0  0  0
   56.7720   27.6460   45.4240 C   0  0  0  0  0  0  0  0  0  0  0  0
   56.0700   26.6630   46.3670 C   0  0  0  0  0  0  0  0  0  0  0  0
   54.7990   26.2110   45.8130 N   0  0  0  0  0  0  0  0  0  0  0  0
   54.4590   24.8310   45.6350 C   0  0  0  0  0  0  0  0  0  0  0  0
   53.3940   24.5200   45.0330 O   0  0  0  0  0  0  0  0  0  0  0  0
   55.3540   23.7700   46.1480 C   0  0  0  0  0  0  0  0  0  0  0  0
   55.2740   23.3590   47.4920 C   0  0  0  0  0  0  0  0  0  0  0  0
   56.0990   22.3370   47.9690 C   0  0  0  0  0  0  0  0  0  0  0  0
   57.0120   21.7120   47.1160 C   0  0  0  0  0  0  0  0  0  0  0  0
   57.8210   20.6910   47.5980 O   0  0  0  0  0  0  0  0  0  0  0  0
   57.1080   22.1150   45.7790 C   0  0  0  0  0  0  0  0  0  0  0  0
   58.0190   21.4860   44.9320 O   0  0  0  0  0  0  0  0  0  0  0  0
   56.2840   23.1420   45.2990 C   0  0  0  0  0  0  0  0  0  0  0  0
   57.7770   31.0400   45.9040 C   0  0  0  0  0  0  0  0  0  0  0  0
   58.6270   32.0910   46.2590 C   0  0  0  0  0  0  0  0  0  0  0  0
   59.8437   34.3363   46.8312 H   0  0  0  0  0  0  0  0  0  0  0  0
   60.7927   34.0864   45.3266 H   0  0  0  0  0  0  0  0  0  0  0  0
   59.3870   35.2048   45.3266 H   0  0  0  0  0  0  0  0  0  0  0  0
   58.4075   33.9620   43.4064 H   0  0  0  0  0  0  0  0  0  0  0  0
   56.8573   32.1128   42.7891 H   0  0  0  0  0  0  0  0  0  0  0  0
   56.9645   27.1460   44.4633 H   0  0  0  0  0  0  0  0  0  0  0  0
   57.7153   27.9639   45.8921 H   0  0  0  0  0  0  0  0  0  0  0  0
   56.7218   25.7912   46.5253 H   0  0  0  0  0  0  0  0  0  0  0  0
   55.8699   27.1781   47.3181 H   0  0  0  0  0  0  0  0  0  0  0  0
   54.5578   23.8452   48.1707 H   0  0  0  0  0  0  0  0  0  0  0  0
   56.0293   22.0231   49.0210 H   0  0  0  0  0  0  0  0  0  0  0  0
   58.5410   20.6690   45.2280 H   0  0  0  0  0  0  0  0  0  0  0  0
   56.3650   23.4600   44.2491 H   0  0  0  0  0  0  0  0  0  0  0  0
   57.5874   30.2251   46.6182 H   0  0  0  0  0  0  0  0  0  0  0  0
   59.0967   32.1029   47.2536 H   0  0  0  0  0  0  0  0  0  0  0  0
  1  2  1  0
  2  3  2  0
  3  4  1  0
  4  5  2  0
  5  6  1  0
  6  7  2  0
  6  8  1  0
  8  9  1  0
  9 10  1  0
 10 11  1  0
 11 12  1  0
 12 13  2  0
 12 14  1  0
 14 15  2  0
 15 16  1  0
 16 17  2  0
 17 18  1  0
 17 19  1  0
 19 20  1  0
 19 21  2  0
  5 22  1  0
 22 23  2  0
 23  2  1  0
 21 14  1  0
  1 24  1  0
  1 25  1  0
  1 26  1  0
  3 27  1  0
  4 28  1  0
  9 29  1  0
  9 30  1  0
 10 31  1  0
 10 32  1  0
 15 33  1  0
 16 34  1  0
 20 35  1  0
 21 36  1  0
 22 37  1  0
 23 38  1  0
M  CHG  3   8  -1  11  -1  18  -1
M  END
>  <UniqueID>  (19) 
18

>  <SMILES>  (19) 
Cc1ccc(C(=O)[N-]CC[N-]C(=O)c2ccc([O-])c(O)c2)cc1

>  <Energy>  (19) 
34.07324125848103

>  <Genealogy>  (19) 
Cc1ccc(C(=O)[N-]CC[N-]C(=O)c2ccc([O-])c(O)c2)cc1 (protonated)
Cc1ccc(C(=O)[N-]CC[N-]C(=O)c2ccc([O-])c(O)c2)cc1 (3D coordinates assigned)
Cc1ccc(C(=O)[N-]CC[N-]C(=O)c2ccc([O-])c(O)c2)cc1 (optimized conformer: 34.07324125848103 kcal/mol)

>  <smiles>  (19) 
Cc1ccc(C(=O)NCCNC(=O)c2ccc(O)c(O)c2)cc1

>  <score_type>  (19) 
oracle

>  <origin>  (19) 
adg

>  <m_score__min__energy>  (19) 
-13.66

>  <m_primary>  (19) 
energy

$$$$
19:0
     RDKit          3D

 37 39  0  0  0  0  0  0  0  0999 V2000
   58.0560   34.4660   44.4620 O   0  0  0  0  0  0  0  0  0  0  0  0
   58.0800   33.5820   45.3620 C   0  0  0  0  0  0  0  0  0  0  0  0
   57.0510   32.4900   45.3120 C   0  0  0  0  0  0  0  0  0  0  0  0
   57.7000   31.2380   45.1130 O   0  0  0  0  0  0  0  0  0  0  0  0
   57.0210   30.0170   45.1280 C   0  0  0  0  0  0  0  0  0  0  0  0
   55.7830   29.9850   44.8840 O   0  0  0  0  0  0  0  0  0  0  0  0
   57.7520   28.7600   45.4260 C   0  0  0  0  0  0  0  0  0  0  0  0
   59.1590   28.7630   45.4530 C   0  0  0  0  0  0  0  0  0  0  0  0
   59.8690   27.5930   45.7330 C   0  0  0  0  0  0  0  0  0  0  0  0
   59.1870   26.4040   45.9880 C   0  0  0  0  0  0  0  0  0  0  0  0
   57.7920   26.3800   45.9590 C   0  0  0  0  0  0  0  0  0  0  0  0
   57.0660   27.5470   45.6760 C   0  0  0  0  0  0  0  0  0  0  0  0
   55.6730   27.4920   45.6380 O   0  0  0  0  0  0  0  0  0  0  0  0
   59.1200   33.6440   46.4260 C   0  0  0  0  0  0  0  0  0  0  0  0
   58.7390   33.8450   47.7670 C   0  0  0  0  0  0  0  0  0  0  0  0
   59.6970   33.9270   48.7800 C   0  0  0  0  0  0  0  0  0  0  0  0
   61.0590   33.8110   48.4740 C   0  0  0  0  0  0  0  0  0  0  0  0
   62.0290   33.8990   49.4850 C   0  0  0  0  0  0  0  0  0  0  0  0
   63.3860   33.7820   49.1660 C   0  0  0  0  0  0  0  0  0  0  0  0
   63.7820   33.5770   47.8420 C   0  0  0  0  0  0  0  0  0  0  0  0
   62.8250   33.4870   46.8280 C   0  0  0  0  0  0  0  0  0  0  0  0
   61.4590   33.6020   47.1330 C   0  0  0  0  0  0  0  0  0  0  0  0
   60.4900   33.5150   46.1220 C   0  0  0  0  0  0  0  0  0  0  0  0
   56.4930   32.4677   46.2597 H   0  0  0  0  0  0  0  0  0  0  0  0
   56.3543   32.6790   44.4820 H   0  0  0  0  0  0  0  0  0  0  0  0
   59.7053   29.6962   45.2515 H   0  0  0  0  0  0  0  0  0  0  0  0
   60.9687   27.6098   45.7523 H   0  0  0  0  0  0  0  0  0  0  0  0
   59.7484   25.4850   46.2120 H   0  0  0  0  0  0  0  0  0  0  0  0
   57.2577   25.4396   46.1594 H   0  0  0  0  0  0  0  0  0  0  0  0
   55.1370   27.9990   44.9430 H   0  0  0  0  0  0  0  0  0  0  0  0
   57.6726   33.9387   48.0199 H   0  0  0  0  0  0  0  0  0  0  0  0
   59.3808   34.0832   49.8219 H   0  0  0  0  0  0  0  0  0  0  0  0
   61.7218   34.0601   50.5289 H   0  0  0  0  0  0  0  0  0  0  0  0
   64.1438   33.8516   49.9603 H   0  0  0  0  0  0  0  0  0  0  0  0
   64.8505   33.4862   47.5971 H   0  0  0  0  0  0  0  0  0  0  0  0
   63.1426   33.3255   45.7873 H   0  0  0  0  0  0  0  0  0  0  0  0
   60.8029   33.3443   45.0814 H   0  0  0  0  0  0  0  0  0  0  0  0
  1  2  2  0
  2  3  1  0
  3  4  1  0
  4  5  1  0
  5  6  2  0
  5  7  1  0
  7  8  2  0
  8  9  1  0
  9 10  2  0
 10 11  1  0
 11 12  2  0
 12 13  1  0
  2 14  1  0
 14 15  2  0
 15 16  1  0
 16 17  2  0
 17 18  1  0
 18 19  2  0
 19 20  1  0
 20 21  2  0
 21 22  1  0
 22 23  2  0
 12  7  1  0
 23 14  1  0
 22 17  1  0
  3 24  1  0
  3 25  1  0
  8 26  1  0
  9 27  1  0
 10 28  1  0
 11 29  1  0
 13 30  1  0
 15 31  1  0
 16 32  1  0
 18 33  1  0
 19 34  1  0
 20 35  1  0
 21 36  1  0
 23 37  1  0
M  END
>  <UniqueID>  (20) 
19

>  <SMILES>  (20) 
O=C(COC(=O)c1ccccc1O)c1ccc2ccccc2c1

>  <Energy>  (20) 
42.88769369311075

>  <Genealogy>  (20) 
O=C(COC(=O)c1ccccc1O)c1ccc2ccccc2c1 (3D coordinates assigned)
O=C(COC(=O)c1ccccc1O)c1ccc2ccccc2c1 (optimized conformer: 42.88769369311075 kcal/mol)

>  <smiles>  (20) 
O=C(COC(=O)c1ccccc1O)c1ccc2ccccc2c1

>  <score_type>  (20) 
oracle

>  <origin>  (20) 
adg

>  <m_score__min__energy>  (20) 
-9.7300000000000004

>  <m_primary>  (20) 
energy

$$$$
20:0
     RDKit          3D

 59 61  0  0  0  0  0  0  0  0999 V2000
   59.9770   34.2090   49.4470 C   0  0  0  0  0  0  0  0  0  0  0  0
   58.7330   33.0380   48.8220 S   0  0  0  0  0  0  0  0  0  0  0  0
   58.8550   33.6250   47.1290 C   0  0  0  0  0  0  0  0  0  0  0  0
   59.4510   34.8670   46.8750 C   0  0  0  0  0  0  0  0  0  0  0  0
   59.5580   35.3410   45.5650 C   0  0  0  0  0  0  0  0  0  0  0  0
   59.0780   34.5740   44.5020 C   0  0  0  0  0  0  0  0  0  0  0  0
   58.4830   33.3350   44.7470 C   0  0  0  0  0  0  0  0  0  0  0  0
   58.3560   32.8570   46.0610 C   0  0  0  0  0  0  0  0  0  0  0  0
   57.7830   31.5670   46.3110 N   0  0  0  0  0  0  0  0  0  0  0  0
   57.6560   30.5320   45.3320 C   0  0  0  0  0  0  0  0  0  0  0  0
   56.5140   30.2830   44.8620 O   0  0  0  0  0  0  0  0  0  0  0  0
   58.8770   29.8290   44.7900 C   0  0  0  0  0  0  0  0  0  0  0  0
   59.0500   28.4920   45.4090 N   0  0  0  0  0  0  0  0  0  0  0  0
   60.4440   28.0310   45.2580 C   0  0  0  0  0  0  0  0  0  0  0  0
   58.6940   28.5080   46.8440 C   0  0  0  0  0  0  0  0  0  0  0  0
   59.7830   29.0970   47.7020 C   0  0  0  0  0  0  0  0  0  0  0  0
   60.4980   28.3160   48.3860 O   0  0  0  0  0  0  0  0  0  0  0  0
   59.9750   30.5190   47.7960 N   0  0  0  0  0  0  0  0  0  0  0  0
   61.2420   31.1420   48.1050 C   0  0  0  0  0  0  0  0  0  0  0  0
   61.9340   31.8810   47.1220 C   0  0  0  0  0  0  0  0  0  0  0  0
   63.1700   32.4640   47.4030 C   0  0  0  0  0  0  0  0  0  0  0  0
   63.7300   32.3380   48.6720 C   0  0  0  0  0  0  0  0  0  0  0  0
   63.0480   31.6440   49.6700 C   0  0  0  0  0  0  0  0  0  0  0  0
   61.8020   31.0500   49.4060 C   0  0  0  0  0  0  0  0  0  0  0  0
   61.1030   30.3710   50.5180 C   0  0  0  0  0  0  0  0  0  0  0  0
   61.5820   29.2910   50.9620 O   0  0  0  0  0  0  0  0  0  0  0  0
   59.8330   30.8960   51.0800 C   0  0  0  0  0  0  0  0  0  0  0  0
   58.6130   30.2270   50.8610 C   0  0  0  0  0  0  0  0  0  0  0  0
   57.4230   30.7350   51.3880 C   0  0  0  0  0  0  0  0  0  0  0  0
   57.4320   31.9120   52.1390 C   0  0  0  0  0  0  0  0  0  0  0  0
   58.6360   32.5870   52.3770 C   0  0  0  0  0  0  0  0  0  0  0  0
   58.6430   33.8720   53.1510 C   0  0  0  0  0  0  0  0  0  0  0  0
   59.8300   32.0870   51.8290 C   0  0  0  0  0  0  0  0  0  0  0  0
   59.9683   34.2008   50.5469 H   0  0  0  0  0  0  0  0  0  0  0  0
   60.9731   33.9132   49.0860 H   0  0  0  0  0  0  0  0  0  0  0  0
   59.7419   35.2211   49.0860 H   0  0  0  0  0  0  0  0  0  0  0  0
   59.8361   35.4712   47.7097 H   0  0  0  0  0  0  0  0  0  0  0  0
   60.0210   36.3198   45.3711 H   0  0  0  0  0  0  0  0  0  0  0  0
   59.1686   34.9460   43.4708 H   0  0  0  0  0  0  0  0  0  0  0  0
   58.1119   32.7303   43.9064 H   0  0  0  0  0  0  0  0  0  0  0  0
   58.7674   29.7085   43.7021 H   0  0  0  0  0  0  0  0  0  0  0  0
   59.7617   30.4380   45.0276 H   0  0  0  0  0  0  0  0  0  0  0  0
   60.8910   27.8832   46.2521 H   0  0  0  0  0  0  0  0  0  0  0  0
   60.4579   27.0804   44.7047 H   0  0  0  0  0  0  0  0  0  0  0  0
   61.0219   28.7859   44.7047 H   0  0  0  0  0  0  0  0  0  0  0  0
   57.7801   29.1062   46.9741 H   0  0  0  0  0  0  0  0  0  0  0  0
   58.5441   27.4659   47.1628 H   0  0  0  0  0  0  0  0  0  0  0  0
   59.1350   31.1170   47.6500 H   0  0  0  0  0  0  0  0  0  0  0  0
   61.4932   31.9990   46.1211 H   0  0  0  0  0  0  0  0  0  0  0  0
   63.7032   33.0242   46.6208 H   0  0  0  0  0  0  0  0  0  0  0  0
   64.7112   32.7865   48.8868 H   0  0  0  0  0  0  0  0  0  0  0  0
   63.4894   31.5604   50.6741 H   0  0  0  0  0  0  0  0  0  0  0  0
   58.5971   29.2986   50.2712 H   0  0  0  0  0  0  0  0  0  0  0  0
   56.4752   30.2056   51.2106 H   0  0  0  0  0  0  0  0  0  0  0  0
   56.4905   32.3105   52.5451 H   0  0  0  0  0  0  0  0  0  0  0  0
   58.6418   33.6510   54.2286 H   0  0  0  0  0  0  0  0  0  0  0  0
   59.5443   34.4487   52.8960 H   0  0  0  0  0  0  0  0  0  0  0  0
   57.7480   34.4585   52.8960 H   0  0  0  0  0  0  0  0  0  0  0  0
   60.7719   32.6326   51.9874 H   0  0  0  0  0  0  0  0  0  0  0  0
  1  2  1  0
  2  3  1  0
  3  4  2  0
  4  5  1  0
  5  6  2  0
  6  7  1  0
  7  8  2  0
  8  9  1  0
  9 10  1  0
 10 11  2  0
 10 12  1  0
 12 13  1  0
 13 14  1  0
 13 15  1  0
 15 16  1  0
 16 17  2  0
 16 18  1  0
 18 19  1  0
 19 20  2  0
 20 21  1  0
 21 22  2  0
 22 23  1  0
 23 24  2  0
 24 25  1  0
 25 26  2  0
 25 27  1  0
 27 28  2  0
 28 29  1  0
 29 30  2  0
 30 31  1  0
 31 32  1  0
 31 33  2  0
  8  3  1  0
 24 19  1  0
 33 27  1  0
  1 34  1  0
  1 35  1  0
  1 36  1  0
  4 37  1  0
  5 38  1  0
  6 39  1  0
  7 40  1  0
 12 41  1  0
 12 42  1  0
 14 43  1  0
 14 44  1  0
 14 45  1  0
 15 46  1  0
 15 47  1  0
 18 48  1  0
 20 49  1  0
 21 50  1  0
 22 51  1  0
 23 52  1  0
 28 53  1  0
 29 54  1  0
 30 55  1  0
 32 56  1  0
 32 57  1  0
 32 58  1  0
 33 59  1  0
M  CHG  1   9  -1
M  END
>  <UniqueID>  (21) 
20

>  <SMILES>  (21) 
CSc1ccccc1[N-]C(=O)CN(C)CC(=O)Nc1ccccc1C(=O)c1cccc(C)c1

>  <Energy>  (21) 
75.1808862259127

>  <Genealogy>  (21) 
CSc1ccccc1[N-]C(=O)CN(C)CC(=O)Nc1ccccc1C(=O)c1cccc(C)c1 (protonated)
CSc1ccccc1[N-]C(=O)CN(C)CC(=O)Nc1ccccc1C(=O)c1cccc(C)c1 (3D coordinates assigned)
CSc1ccccc1[N-]C(=O)CN(C)CC(=O)Nc1ccccc1C(=O)c1cccc(C)c1 (optimized conformer: 75.1808862259127 kcal/mol)

>  <smiles>  (21) 
CSc1ccccc1NC(=O)CN(C)CC(=O)Nc1ccccc1C(=O)c1cccc(C)c1

>  <score_type>  (21) 
oracle

>  <origin>  (21) 
adg

>  <m_score__min__energy>  (21) 
-11.640000000000001

>  <m_primary>  (21) 
energy

$$$$
21:0
     RDKit          3D

 35 37  0  0  0  0  0  0  0  0999 V2000
   56.5061   33.2859   44.4707 H   0  0  0  0  0  0  0  0  0  0  0  0
   57.4600   32.8430   44.7930 C   0  0  0  0  0  0  0  0  0  0  0  0
   58.4800   33.6400   44.9460 N   0  0  0  0  0  0  0  0  0  0  0  0
   59.2860   33.8100   46.1220 C   0  0  0  0  0  0  0  0  0  0  0  0
   58.7350   34.2790   47.3300 C   0  0  0  0  0  0  0  0  0  0  0  0
   57.6590   34.4986   47.3937 H   0  0  0  0  0  0  0  0  0  0  0  0
   59.5520   34.4660   48.4480 C   0  0  0  0  0  0  0  0  0  0  0  0
   59.1145   34.8138   49.3954 H   0  0  0  0  0  0  0  0  0  0  0  0
   60.9240   34.2120   48.3650 C   0  0  0  0  0  0  0  0  0  0  0  0
   61.5638   34.3521   49.2488 H   0  0  0  0  0  0  0  0  0  0  0  0
   61.4830   33.7800   47.1590 C   0  0  0  0  0  0  0  0  0  0  0  0
   63.3610   33.4520   47.0400 Br  0  0  0  0  0  0  0  0  0  0  0  0
   60.6670   33.5910   46.0370 C   0  0  0  0  0  0  0  0  0  0  0  0
   61.1125   33.2690   45.0842 H   0  0  0  0  0  0  0  0  0  0  0  0
   57.5000   31.3820   45.0240 C   0  0  0  0  0  0  0  0  0  0  0  0
   56.8340   30.4870   44.1690 C   0  0  0  0  0  0  0  0  0  0  0  0
   56.2804   30.8701   43.2991 H   0  0  0  0  0  0  0  0  0  0  0  0
   56.8720   29.1130   44.4190 C   0  0  0  0  0  0  0  0  0  0  0  0
   56.3594   28.4192   43.7365 H   0  0  0  0  0  0  0  0  0  0  0  0
   57.5610   28.6110   45.5370 C   0  0  0  0  0  0  0  0  0  0  0  0
   57.5980   27.1530   45.8070 C   0  0  0  0  0  0  0  0  0  0  0  0
   58.8320   26.4790   45.8300 C   0  0  0  0  0  0  0  0  0  0  0  0
   59.7616   27.0354   45.6397 H   0  0  0  0  0  0  0  0  0  0  0  0
   58.8860   25.1070   46.0930 C   0  0  0  0  0  0  0  0  0  0  0  0
   59.8562   24.5891   46.1131 H   0  0  0  0  0  0  0  0  0  0  0  0
   57.7100   24.3940   46.3300 C   0  0  0  0  0  0  0  0  0  0  0  0
   57.7541   23.3149   46.5390 H   0  0  0  0  0  0  0  0  0  0  0  0
   56.4780   25.0490   46.3020 C   0  0  0  0  0  0  0  0  0  0  0  0
   55.5531   24.4838   46.4892 H   0  0  0  0  0  0  0  0  0  0  0  0
   56.4140   26.4210   46.0370 C   0  0  0  0  0  0  0  0  0  0  0  0
   55.1690   27.0420   45.9830 O   0  0  0  0  0  0  0  0  0  0  0  0
   58.1890   29.5120   46.4120 C   0  0  0  0  0  0  0  0  0  0  0  0
   58.7127   29.1330   47.3020 H   0  0  0  0  0  0  0  0  0  0  0  0
   58.1540   30.8870   46.1610 C   0  0  0  0  0  0  0  0  0  0  0  0
   58.6418   31.5835   46.8588 H   0  0  0  0  0  0  0  0  0  0  0  0
  1  2  1  0
  2  3  2  0
  3  4  1  0
  4  5  2  0
  5  6  1  0
  5  7  1  0
  7  8  1  0
  7  9  2  0
  9 10  1  0
  9 11  1  0
 11 12  1  0
 11 13  2  0
 13 14  1  0
  2 15  1  0
 15 16  2  0
 16 17  1  0
 16 18  1  0
 18 19  1  0
 18 20  2  0
 20 21  1  0
 21 22  2  0
 22 23  1  0
 22 24  1  0
 24 25  1  0
 24 26  2  0
 26 27  1  0
 26 28  1  0
 28 29  1  0
 28 30  2  0
 30 31  1  0
 20 32  1  0
 32 33  1  0
 32 34  2  0
 34 35  1  0
 13  4  1  0
 34 15  1  0
 30 21  1  0
M  CHG  1  31  -1
M  END
>  <UniqueID>  (22) 
21

>  <SMILES>  (22) 
[O-]c1ccccc1-c1ccc(/C=N\c2cccc(Br)c2)cc1

>  <Energy>  (22) 
55.50733697597504

>  <Genealogy>  (22) 
[O-]c1ccccc1-c1ccc(C=Nc2cccc(Br)c2)cc1 (protonated)
[O-]c1ccccc1-c1ccc(/C=N\c2cccc(Br)c2)cc1 (cis-trans isomerization)
[O-]c1ccccc1-c1ccc(/C=N\c2cccc(Br)c2)cc1 (3D coordinates assigned)
[O-]c1ccccc1-c1ccc(/C=N\c2cccc(Br)c2)cc1 (optimized conformer: 55.50733697597504 kcal/mol)

>  <smiles>  (22) 
Oc1ccccc1-c1ccc(C=Nc2cccc(Br)c2)cc1

>  <score_type>  (22) 
oracle

>  <origin>  (22) 
adg

>  <m_score__min__energy>  (22) 
-12.460000000000001

>  <m_primary>  (22) 
energy

$$$$
22:0
     RDKit          3D

 53 56  0  0  0  0  0  0  0  0999 V2000
   60.4420   26.9360   48.7770 O   0  0  0  0  0  0  0  0  0  0  0  0
   59.6060   27.8000   48.3970 C   0  0  0  0  0  0  0  0  0  0  0  0
   59.4110   29.0090   49.1400 N   0  0  0  0  0  0  0  0  0  0  0  0
   60.0090   30.2870   48.8710 C   0  0  0  0  0  0  0  0  0  0  0  0
   60.8170   30.4910   47.7350 C   0  0  0  0  0  0  0  0  0  0  0  0
   61.4380   31.7240   47.5210 C   0  0  0  0  0  0  0  0  0  0  0  0
   61.2750   32.7590   48.4420 C   0  0  0  0  0  0  0  0  0  0  0  0
   60.4960   32.5630   49.5830 C   0  0  0  0  0  0  0  0  0  0  0  0
   59.8620   31.3290   49.8110 C   0  0  0  0  0  0  0  0  0  0  0  0
   59.0560   31.1560   50.9890 N   0  0  0  0  0  0  0  0  0  0  0  0
   59.3270   30.0520   51.9160 C   0  0  0  0  0  0  0  0  0  0  0  0
   58.0620   29.7110   52.7090 C   0  0  0  0  0  0  0  0  0  0  0  0
   56.9320   29.8390   51.8690 O   0  0  0  0  0  0  0  0  0  0  0  0
   56.6580   31.2080   51.6170 C   0  0  0  0  0  0  0  0  0  0  0  0
   57.9090   32.0350   51.2400 C   0  0  0  0  0  0  0  0  0  0  0  0
   58.8590   27.5970   47.1520 C   0  0  0  0  0  0  0  0  0  0  0  0
   58.1280   26.4740   46.8160 C   0  0  0  0  0  0  0  0  0  0  0  0
   57.6070   26.7290   45.5650 C   0  0  0  0  0  0  0  0  0  0  0  0
   58.0560   27.9880   45.2210 C   0  0  0  0  0  0  0  0  0  0  0  0
   57.7550   28.7070   43.9450 C   0  0  0  0  0  0  0  0  0  0  0  0
   58.4960   29.9680   43.9000 N   0  0  0  0  0  0  0  0  0  0  0  0
   57.3850   31.3030   43.9710 S   0  0  0  0  0  0  0  0  0  0  0  0
   57.1930   31.8630   42.5910 O   0  0  0  0  0  0  0  0  0  0  0  0
   56.0540   30.8280   44.4830 O   0  0  0  0  0  0  0  0  0  0  0  0
   58.0270   32.5660   45.0190 C   0  0  0  0  0  0  0  0  0  0  0  0
   58.7570   33.6380   44.4840 C   0  0  0  0  0  0  0  0  0  0  0  0
   59.2360   34.6490   45.3240 C   0  0  0  0  0  0  0  0  0  0  0  0
   58.9840   34.5970   46.6990 C   0  0  0  0  0  0  0  0  0  0  0  0
   58.2540   33.5320   47.2340 C   0  0  0  0  0  0  0  0  0  0  0  0
   57.7760   32.5190   46.3980 C   0  0  0  0  0  0  0  0  0  0  0  0
   58.8000   28.4810   46.1840 O   0  0  0  0  0  0  0  0  0  0  0  0
   60.9598   29.6743   47.0120 H   0  0  0  0  0  0  0  0  0  0  0  0
   62.0566   31.8790   46.6247 H   0  0  0  0  0  0  0  0  0  0  0  0
   61.7610   33.7305   48.2686 H   0  0  0  0  0  0  0  0  0  0  0  0
   60.3770   33.3802   50.3096 H   0  0  0  0  0  0  0  0  0  0  0  0
   59.6486   29.1681   51.3456 H   0  0  0  0  0  0  0  0  0  0  0  0
   60.1207   30.3542   52.6150 H   0  0  0  0  0  0  0  0  0  0  0  0
   58.1286   28.6774   53.0794 H   0  0  0  0  0  0  0  0  0  0  0  0
   57.9660   30.3998   53.5613 H   0  0  0  0  0  0  0  0  0  0  0  0
   55.9378   31.2708   50.7879 H   0  0  0  0  0  0  0  0  0  0  0  0
   56.2621   31.6331   52.5511 H   0  0  0  0  0  0  0  0  0  0  0  0
   57.6959   32.6185   50.3322 H   0  0  0  0  0  0  0  0  0  0  0  0
   58.1543   32.7059   52.0765 H   0  0  0  0  0  0  0  0  0  0  0  0
   57.9902   25.5654   47.4206 H   0  0  0  0  0  0  0  0  0  0  0  0
   56.9661   26.0661   44.9652 H   0  0  0  0  0  0  0  0  0  0  0  0
   58.0521   28.0782   43.0927 H   0  0  0  0  0  0  0  0  0  0  0  0
   56.6766   28.9173   43.8923 H   0  0  0  0  0  0  0  0  0  0  0  0
   59.0930   30.0290   44.7580 H   0  0  0  0  0  0  0  0  0  0  0  0
   58.9530   33.6836   43.4026 H   0  0  0  0  0  0  0  0  0  0  0  0
   59.8117   35.4862   44.9026 H   0  0  0  0  0  0  0  0  0  0  0  0
   59.3599   35.3933   47.3583 H   0  0  0  0  0  0  0  0  0  0  0  0
   58.0553   33.4910   48.3151 H   0  0  0  0  0  0  0  0  0  0  0  0
   57.2014   31.6827   46.8228 H   0  0  0  0  0  0  0  0  0  0  0  0
  1  2  2  0
  2  3  1  0
  3  4  1  0
  4  5  2  0
  5  6  1  0
  6  7  2  0
  7  8  1  0
  8  9  2  0
  9 10  1  0
 10 11  1  0
 11 12  1  0
 12 13  1  0
 13 14  1  0
 14 15  1  0
  2 16  1  0
 16 17  2  0
 17 18  1  0
 18 19  2  0
 19 20  1  0
 20 21  1  0
 21 22  1  0
 22 23  2  0
 22 24  2  0
 22 25  1  0
 25 26  2  0
 26 27  1  0
 27 28  2  0
 28 29  1  0
 29 30  2  0
 19 31  1  0
  9  4  1  0
 15 10  1  0
 31 16  1  0
 30 25  1  0
  5 32  1  0
  6 33  1  0
  7 34  1  0
  8 35  1  0
 11 36  1  0
 11 37  1  0
 12 38  1  0
 12 39  1  0
 14 40  1  0
 14 41  1  0
 15 42  1  0
 15 43  1  0
 17 44  1  0
 18 45  1  0
 20 46  1  0
 20 47  1  0
 21 48  1  0
 26 49  1  0
 27 50  1  0
 28 51  1  0
 29 52  1  0
 30 53  1  0
M  CHG  1   3  -1
M  END
>  <UniqueID>  (23) 
22

>  <SMILES>  (23) 
O=C([N-]c1ccccc1N1CCOCC1)c1ccc(CNS(=O)(=O)c2ccccc2)o1

>  <Energy>  (23) 
93.30977451432068

>  <Genealogy>  (23) 
O=C([N-]c1ccccc1N1CCOCC1)c1ccc(CNS(=O)(=O)c2ccccc2)o1 (protonated)
O=C([N-]c1ccccc1N1CCOCC1)c1ccc(CNS(=O)(=O)c2ccccc2)o1 (3D coordinates assigned)
O=C([N-]c1ccccc1N1CCOCC1)c1ccc(CNS(=O)(=O)c2ccccc2)o1 (nonaromatic ring conformer: 93.30977451432068 kcal/mol)

>  <smiles>  (23) 
O=C(Nc1ccccc1N1CCOCC1)c1ccc(CNS(=O)(=O)c2ccccc2)o1

>  <score_type>  (23) 
oracle

>  <origin>  (23) 
adg

>  <m_score__min__energy>  (23) 
-10.44

>  <m_primary>  (23) 
energy

$$$$
23:0
     RDKit          3D

 57 60  0  0  0  0  0  0  0  0999 V2000
   55.2240   29.5190   43.0820 O   0  0  0  0  0  0  0  0  0  0  0  0
   56.1460   29.5630   43.9400 C   0  0  0  0  0  0  0  0  0  0  0  0
   56.0700   28.7690   45.0420 N   0  0  0  0  0  0  0  0  0  0  0  0
   57.0220   28.7840   46.0110 C   0  0  0  0  0  0  0  0  0  0  0  0
   58.1360   29.6310   45.8980 C   0  0  0  0  0  0  0  0  0  0  0  0
   59.1620   29.6990   46.9710 C   0  0  0  0  0  0  0  0  0  0  0  0
   60.3190   30.4850   46.8050 C   0  0  0  0  0  0  0  0  0  0  0  0
   61.2970   30.5250   47.8040 C   0  0  0  0  0  0  0  0  0  0  0  0
   61.1320   29.7860   48.9770 C   0  0  0  0  0  0  0  0  0  0  0  0
   59.9890   29.0040   49.1540 C   0  0  0  0  0  0  0  0  0  0  0  0
   59.0080   28.9600   48.1600 C   0  0  0  0  0  0  0  0  0  0  0  0
   58.2420   30.4400   44.7570 C   0  0  0  0  0  0  0  0  0  0  0  0
   57.2450   30.4220   43.7700 C   0  0  0  0  0  0  0  0  0  0  0  0
   57.3310   31.3770   42.6010 C   0  0  0  0  0  0  0  0  0  0  0  0
   57.8450   32.7620   43.0260 C   0  0  0  0  0  0  0  0  0  0  0  0
   57.2990   33.1780   44.3220 N   0  0  0  0  0  0  0  0  0  0  0  0
   58.0980   33.5720   45.4520 C   0  0  0  0  0  0  0  0  0  0  0  0
   59.1440   34.5040   45.3280 C   0  0  0  0  0  0  0  0  0  0  0  0
   59.9400   34.8220   46.4320 C   0  0  0  0  0  0  0  0  0  0  0  0
   59.6970   34.2270   47.6800 C   0  0  0  0  0  0  0  0  0  0  0  0
   60.5690   34.5630   48.8730 C   0  0  0  0  0  0  0  0  0  0  0  0
   61.8500   33.8230   48.9090 N   0  0  0  0  0  0  0  0  0  0  0  0
   62.5460   33.8030   47.6030 C   0  0  0  0  0  0  0  0  0  0  0  0
   63.9120   33.0840   47.6850 C   0  0  0  0  0  0  0  0  0  0  0  0
   64.0720   32.3050   48.9950 C   0  0  0  0  0  0  0  0  0  0  0  0
   63.8690   33.2210   50.2130 C   0  0  0  0  0  0  0  0  0  0  0  0
   62.7490   34.2590   49.9930 C   0  0  0  0  0  0  0  0  0  0  0  0
   58.6480   33.3020   47.8040 C   0  0  0  0  0  0  0  0  0  0  0  0
   57.8500   32.9870   46.7020 C   0  0  0  0  0  0  0  0  0  0  0  0
   56.9195   28.1291   46.8888 H   0  0  0  0  0  0  0  0  0  0  0  0
   60.4542   31.0710   45.8839 H   0  0  0  0  0  0  0  0  0  0  0  0
   62.1983   31.1401   47.6652 H   0  0  0  0  0  0  0  0  0  0  0  0
   61.9023   29.8199   49.7615 H   0  0  0  0  0  0  0  0  0  0  0  0
   59.8605   28.4212   50.0780 H   0  0  0  0  0  0  0  0  0  0  0  0
   58.1088   28.3437   48.3072 H   0  0  0  0  0  0  0  0  0  0  0  0
   59.1166   31.0959   44.6347 H   0  0  0  0  0  0  0  0  0  0  0  0
   58.0173   30.9585   41.8501 H   0  0  0  0  0  0  0  0  0  0  0  0
   56.3188   31.5018   42.1888 H   0  0  0  0  0  0  0  0  0  0  0  0
   58.9421   32.7267   43.0979 H   0  0  0  0  0  0  0  0  0  0  0  0
   57.5184   33.4916   42.2703 H   0  0  0  0  0  0  0  0  0  0  0  0
   56.2680   33.0710   44.4590 H   0  0  0  0  0  0  0  0  0  0  0  0
   59.3365   34.9849   44.3576 H   0  0  0  0  0  0  0  0  0  0  0  0
   60.7628   35.5437   46.3221 H   0  0  0  0  0  0  0  0  0  0  0  0
   60.7921   35.6398   48.8462 H   0  0  0  0  0  0  0  0  0  0  0  0
   60.0063   34.2696   49.7715 H   0  0  0  0  0  0  0  0  0  0  0  0
   61.9128   33.2799   46.8713 H   0  0  0  0  0  0  0  0  0  0  0  0
   62.7282   34.8445   47.2994 H   0  0  0  0  0  0  0  0  0  0  0  0
   63.9954   32.3824   46.8419 H   0  0  0  0  0  0  0  0  0  0  0  0
   64.7018   33.8486   47.6453 H   0  0  0  0  0  0  0  0  0  0  0  0
   63.3266   31.4966   49.0254 H   0  0  0  0  0  0  0  0  0  0  0  0
   65.0913   31.8933   49.0340 H   0  0  0  0  0  0  0  0  0  0  0  0
   63.6077   32.5993   51.0820 H   0  0  0  0  0  0  0  0  0  0  0  0
   64.8071   33.7718   50.3764 H   0  0  0  0  0  0  0  0  0  0  0  0
   62.1699   34.3697   50.9217 H   0  0  0  0  0  0  0  0  0  0  0  0
   63.2038   35.2210   49.7142 H   0  0  0  0  0  0  0  0  0  0  0  0
   58.4536   32.8226   48.7748 H   0  0  0  0  0  0  0  0  0  0  0  0
   57.0200   32.2741   46.8155 H   0  0  0  0  0  0  0  0  0  0  0  0
  1  2  2  0
  2  3  1  0
  3  4  1  0
  4  5  2  0
  5  6  1  0
  6  7  2  0
  7  8  1  0
  8  9  2  0
  9 10  1  0
 10 11  2  0
  5 12  1  0
 12 13  2  0
 13 14  1  0
 14 15  1  0
 15 16  1  0
 16 17  1  0
 17 18  2  0
 18 19  1  0
 19 20  2  0
 20 21  1  0
 21 22  1  0
 22 23  1  0
 23 24  1  0
 24 25  1  0
 25 26  1  0
 26 27  1  0
 20 28  1  0
 28 29  2  0
 13  2  1  0
 29 17  1  0
 11  6  1  0
 27 22  1  0
  4 30  1  0
  7 31  1  0
  8 32  1  0
  9 33  1  0
 10 34  1  0
 11 35  1  0
 12 36  1  0
 14 37  1  0
 14 38  1  0
 15 39  1  0
 15 40  1  0
 16 41  1  0
 18 42  1  0
 19 43  1  0
 21 44  1  0
 21 45  1  0
 23 46  1  0
 23 47  1  0
 24 48  1  0
 24 49  1  0
 25 50  1  0
 25 51  1  0
 26 52  1  0
 26 53  1  0
 27 54  1  0
 27 55  1  0
 28 56  1  0
 29 57  1  0
M  CHG  1   3  -1
M  END
>  <UniqueID>  (24) 
23

>  <SMILES>  (24) 
O=c1[n-]cc(-c2ccccc2)cc1CCNc1ccc(CN2CCCCC2)cc1

>  <Energy>  (24) 
69.90104012447193

>  <Genealogy>  (24) 
O=c1[n-]cc(-c2ccccc2)cc1CCNc1ccc(CN2CCCCC2)cc1 (protonated)
O=c1[n-]cc(-c2ccccc2)cc1CCNc1ccc(CN2CCCCC2)cc1 (3D coordinates assigned)
O=c1[n-]cc(-c2ccccc2)cc1CCNc1ccc(CN2CCCCC2)cc1 (nonaromatic ring conformer: 69.90104012447193 kcal/mol)

>  <smiles>  (24) 
O=c1[nH]cc(-c2ccccc2)cc1CCNc1ccc(CN2CCCCC2)cc1

>  <score_type>  (24) 
oracle

>  <origin>  (24) 
adg

>  <m_score__min__energy>  (24) 
-10.77

>  <m_primary>  (24) 
energy

$$$$
24:0
     RDKit          3D

 43 45  0  0  0  0  0  0  0  0999 V2000
   57.3480   24.8100   43.3720 C   0  0  0  0  0  0  0  0  0  0  0  0
   56.7160   24.2610   44.6310 C   0  0  0  0  0  0  0  0  0  0  0  0
   56.7770   24.9870   45.8490 C   0  0  0  0  0  0  0  0  0  0  0  0
   57.3610   26.2950   45.9250 N   0  0  0  0  0  0  0  0  0  0  0  0
   58.7320   26.4890   46.3030 C   0  0  0  0  0  0  0  0  0  0  0  0
   59.4140   25.5240   46.7440 O   0  0  0  0  0  0  0  0  0  0  0  0
   59.3830   27.8300   46.1180 C   0  0  0  0  0  0  0  0  0  0  0  0
   58.8470   28.8590   47.1240 C   0  0  0  0  0  0  0  0  0  0  0  0
   58.4540   30.1570   46.4610 C   0  0  0  0  0  0  0  0  0  0  0  0
   59.0890   31.2830   46.8870 N   0  0  0  0  0  0  0  0  0  0  0  0
   58.8820   32.4930   46.3090 C   0  0  0  0  0  0  0  0  0  0  0  0
   59.5620   33.6280   46.7640 C   0  0  0  0  0  0  0  0  0  0  0  0
   59.3540   34.8610   46.1350 C   0  0  0  0  0  0  0  0  0  0  0  0
   58.4690   34.9580   45.0550 C   0  0  0  0  0  0  0  0  0  0  0  0
   57.7890   33.8240   44.5980 C   0  0  0  0  0  0  0  0  0  0  0  0
   57.9970   32.5890   45.2240 C   0  0  0  0  0  0  0  0  0  0  0  0
   57.3580   31.4740   44.7890 N   0  0  0  0  0  0  0  0  0  0  0  0
   57.5450   30.2550   45.3680 C   0  0  0  0  0  0  0  0  0  0  0  0
   56.7900   29.1150   44.7980 C   0  0  0  0  0  0  0  0  0  0  0  0
   57.2940   28.4510   43.8540 O   0  0  0  0  0  0  0  0  0  0  0  0
   55.5190   28.7740   45.2410 O   0  0  0  0  0  0  0  0  0  0  0  0
   56.2620   24.4280   47.0240 C   0  0  0  0  0  0  0  0  0  0  0  0
   55.6340   23.1870   47.0000 C   0  0  0  0  0  0  0  0  0  0  0  0
   55.5360   22.4770   45.8070 C   0  0  0  0  0  0  0  0  0  0  0  0
   56.0900   22.9850   44.6200 C   0  0  0  0  0  0  0  0  0  0  0  0
   55.9990   22.1930   43.4200 N   0  0  0  0  0  0  0  0  0  0  0  0
   55.5030   22.6830   42.3850 O   0  0  0  0  0  0  0  0  0  0  0  0
   56.2770   20.8460   43.4450 O   0  0  0  0  0  0  0  0  0  0  0  0
   58.1532   25.5095   43.6409 H   0  0  0  0  0  0  0  0  0  0  0  0
   57.7643   23.9819   42.7796 H   0  0  0  0  0  0  0  0  0  0  0  0
   56.5863   25.3380   42.7796 H   0  0  0  0  0  0  0  0  0  0  0  0
   56.8680   27.0750   45.4340 H   0  0  0  0  0  0  0  0  0  0  0  0
   60.4685   27.7231   46.2600 H   0  0  0  0  0  0  0  0  0  0  0  0
   59.1544   28.1877   45.1032 H   0  0  0  0  0  0  0  0  0  0  0  0
   57.9640   28.4365   47.6258 H   0  0  0  0  0  0  0  0  0  0  0  0
   59.6508   29.0778   47.8424 H   0  0  0  0  0  0  0  0  0  0  0  0
   60.2574   33.5516   47.6128 H   0  0  0  0  0  0  0  0  0  0  0  0
   59.8870   35.7553   46.4901 H   0  0  0  0  0  0  0  0  0  0  0  0
   58.3076   35.9290   44.5640 H   0  0  0  0  0  0  0  0  0  0  0  0
   57.0932   33.9024   43.7496 H   0  0  0  0  0  0  0  0  0  0  0  0
   56.3545   24.9743   47.9742 H   0  0  0  0  0  0  0  0  0  0  0  0
   55.2141   22.7661   47.9255 H   0  0  0  0  0  0  0  0  0  0  0  0
   55.0186   21.5064   45.7933 H   0  0  0  0  0  0  0  0  0  0  0  0
  1  2  1  0
  2  3  2  0
  3  4  1  0
  4  5  1  0
  5  6  2  0
  5  7  1  0
  7  8  1  0
  8  9  1  0
  9 10  2  0
 10 11  1  0
 11 12  2  0
 12 13  1  0
 13 14  2  0
 14 15  1  0
 15 16  2  0
 16 17  1  0
 17 18  2  0
 18 19  1  0
 19 20  2  0
 19 21  1  0
  3 22  1  0
 22 23  2  0
 23 24  1  0
 24 25  2  0
 25 26  1  0
 26 27  2  0
 26 28  1  0
 25  2  1  0
 18  9  1  0
 16 11  1  0
  1 29  1  0
  1 30  1  0
  1 31  1  0
  4 32  1  0
  7 33  1  0
  7 34  1  0
  8 35  1  0
  8 36  1  0
 12 37  1  0
 13 38  1  0
 14 39  1  0
 15 40  1  0
 22 41  1  0
 23 42  1  0
 24 43  1  0
M  CHG  3  21  -1  26   1  28  -1
M  END
>  <UniqueID>  (25) 
24

>  <SMILES>  (25) 
Cc1c(NC(=O)CCc2nc3ccccc3nc2C(=O)[O-])cccc1[N+](=O)[O-]

>  <Energy>  (25) 
60.82202442686989

>  <Genealogy>  (25) 
Cc1c(NC(=O)CCc2nc3ccccc3nc2C(=O)[O-])cccc1[N+](=O)[O-] (protonated)
Cc1c(NC(=O)CCc2nc3ccccc3nc2C(=O)[O-])cccc1[N+](=O)[O-] (3D coordinates assigned)
Cc1c(NC(=O)CCc2nc3ccccc3nc2C(=O)[O-])cccc1[N+](=O)[O-] (optimized conformer: 60.82202442686989 kcal/mol)

>  <smiles>  (25) 
Cc1c(NC(=O)CCc2nc3ccccc3nc2C(=O)O)cccc1[N+](=O)[O-]

>  <score_type>  (25) 
oracle

>  <origin>  (25) 
adg

>  <m_score__min__energy>  (25) 
-11.199999999999999

>  <m_primary>  (25) 
energy

$$$$
25:0
     RDKit          3D

 50 53  0  0  0  0  0  0  0  0999 V2000
   59.6550   27.8860   46.5670 C   0  0  0  0  0  0  0  0  0  0  0  0
   58.8700   28.6430   45.7820 C   0  0  0  0  0  0  0  0  0  0  0  0
   57.8920   28.1820   44.8900 C   0  0  0  0  0  0  0  0  0  0  0  0
   57.5430   26.8960   44.6650 C   0  0  0  0  0  0  0  0  0  0  0  0
   57.1180   25.9200   45.6940 C   0  0  0  0  0  0  0  0  0  0  0  0
   57.8660   24.9240   46.1990 N   0  0  0  0  0  0  0  0  0  0  0  0
   57.0330   24.3070   47.0640 C   0  0  0  0  0  0  0  0  0  0  0  0
   57.3810   23.3090   47.7460 O   0  0  0  0  0  0  0  0  0  0  0  0
   55.7970   24.8440   47.1390 N   0  0  0  0  0  0  0  0  0  0  0  0
   55.8670   25.8610   46.2640 C   0  0  0  0  0  0  0  0  0  0  0  0
   54.8070   26.7150   45.9910 O   0  0  0  0  0  0  0  0  0  0  0  0
   57.3750   29.3160   44.2700 C   0  0  0  0  0  0  0  0  0  0  0  0
   58.0340   30.4020   44.8110 C   0  0  0  0  0  0  0  0  0  0  0  0
   57.7950   31.8270   44.4110 C   0  0  0  0  0  0  0  0  0  0  0  0
   58.9450   29.9960   45.7210 N   0  0  0  0  0  0  0  0  0  0  0  0
   59.8090   30.8570   46.4830 C   0  0  0  0  0  0  0  0  0  0  0  0
   61.1800   30.5770   46.5790 C   0  0  0  0  0  0  0  0  0  0  0  0
   62.0170   31.4080   47.3280 C   0  0  0  0  0  0  0  0  0  0  0  0
   61.4880   32.5160   47.9960 C   0  0  0  0  0  0  0  0  0  0  0  0
   60.1140   32.7940   47.9270 C   0  0  0  0  0  0  0  0  0  0  0  0
   59.5470   33.9670   48.6200 C   0  0  0  0  0  0  0  0  0  0  0  0
   58.9350   34.8380   47.9470 O   0  0  0  0  0  0  0  0  0  0  0  0
   59.6430   34.1330   50.0400 N   0  0  0  0  0  0  0  0  0  0  0  0
   60.0150   33.0770   50.9740 C   0  0  0  0  0  0  0  0  0  0  0  0
   58.8090   32.2110   51.2550 C   0  0  0  0  0  0  0  0  0  0  0  0
   58.7590   30.8550   50.8600 C   0  0  0  0  0  0  0  0  0  0  0  0
   59.8770   30.2030   50.1010 C   0  0  0  0  0  0  0  0  0  0  0  0
   57.6590   30.1110   51.1550 N   0  0  0  0  0  0  0  0  0  0  0  0
   56.6130   30.6350   51.8410 C   0  0  0  0  0  0  0  0  0  0  0  0
   55.6090   29.9200   52.0980 O   0  0  0  0  0  0  0  0  0  0  0  0
   56.6500   31.9250   52.2550 N   0  0  0  0  0  0  0  0  0  0  0  0
   57.7170   32.7190   51.9860 C   0  0  0  0  0  0  0  0  0  0  0  0
   57.7160   33.9100   52.4020 O   0  0  0  0  0  0  0  0  0  0  0  0
   59.2820   31.9710   47.1540 C   0  0  0  0  0  0  0  0  0  0  0  0
   60.3916   28.3621   47.2309 H   0  0  0  0  0  0  0  0  0  0  0  0
   59.5610   26.7902   46.5457 H   0  0  0  0  0  0  0  0  0  0  0  0
   57.5778   26.5426   43.6239 H   0  0  0  0  0  0  0  0  0  0  0  0
   56.5921   29.3419   43.4977 H   0  0  0  0  0  0  0  0  0  0  0  0
   57.6908   32.4484   45.3127 H   0  0  0  0  0  0  0  0  0  0  0  0
   58.6452   32.1876   43.8134 H   0  0  0  0  0  0  0  0  0  0  0  0
   56.8737   31.8905   43.8134 H   0  0  0  0  0  0  0  0  0  0  0  0
   61.5977   29.7001   46.0628 H   0  0  0  0  0  0  0  0  0  0  0  0
   63.0933   31.1901   47.3920 H   0  0  0  0  0  0  0  0  0  0  0  0
   62.1512   33.1727   48.5781 H   0  0  0  0  0  0  0  0  0  0  0  0
   60.8143   32.4623   50.5343 H   0  0  0  0  0  0  0  0  0  0  0  0
   60.3738   33.5248   51.9125 H   0  0  0  0  0  0  0  0  0  0  0  0
   60.6034   29.7794   50.8101 H   0  0  0  0  0  0  0  0  0  0  0  0
   59.4712   29.4000   49.4682 H   0  0  0  0  0  0  0  0  0  0  0  0
   60.3761   30.9517   49.4682 H   0  0  0  0  0  0  0  0  0  0  0  0
   58.2092   32.2003   47.0732 H   0  0  0  0  0  0  0  0  0  0  0  0
  1  2  2  0
  2  3  1  0
  3  4  2  3
  4  5  1  0
  5  6  1  0
  6  7  1  0
  7  8  2  0
  7  9  1  0
  9 10  1  0
 10 11  1  0
  3 12  1  0
 12 13  2  0
 13 14  1  0
 13 15  1  0
 15 16  1  0
 16 17  2  0
 17 18  1  0
 18 19  2  0
 19 20  1  0
 20 21  1  0
 21 22  2  0
 21 23  1  0
 23 24  1  0
 24 25  1  0
 25 26  2  0
 26 27  1  0
 26 28  1  0
 28 29  1  0
 29 30  2  0
 29 31  1  0
 31 32  1  0
 32 33  2  0
 20 34  2  0
 15  2  1  0
 34 16  1  0
 10  5  2  0
 32 25  1  0
  1 35  1  0
  1 36  1  0
  4 37  1  0
 12 38  1  0
 14 39  1  0
 14 40  1  0
 14 41  1  0
 17 42  1  0
 18 43  1  0
 19 44  1  0
 24 45  1  0
 24 46  1  0
 27 47  1  0
 27 48  1  0
 27 49  1  0
 34 50  1  0
M  CHG  6   6  -1   9  -1  11  -1  23  -1  28  -1  31  -1
M  END
>  <UniqueID>  (26) 
25

>  <SMILES>  (26) 
C=c1c(=Cc2[n-]c(=O)[n-]c2[O-])cc(C)n1-c1cccc(C(=O)[N-]Cc2c(C)[n-]c(=O)[n-]c2=O)c1

>  <Energy>  (26) 
128.2503563086396

>  <Genealogy>  (26) 
C=c1c(=Cc2[n-]c(=O)[n-]c2[O-])cc(C)n1-c1cccc(C(=O)[N-]Cc2c(C)[n-]c(=O)[n-]c2=O)c1 (protonated)
C=c1c(=Cc2[n-]c(=O)[n-]c2[O-])cc(C)n1-c1cccc(C(=O)[N-]Cc2c(C)[n-]c(=O)[n-]c2=O)c1 (3D coordinates assigned)
C=c1c(=Cc2[n-]c(=O)[n-]c2[O-])cc(C)n1-c1cccc(C(=O)[N-]Cc2c(C)[n-]c(=O)[n-]c2=O)c1 (optimized conformer: 128.2503563086396 kcal/mol)

>  <smiles>  (26) 
C=c1c(=Cc2[nH]c(=O)[nH]c2O)cc(C)n1-c1cccc(C(=O)NCc2c(C)[nH]c(=O)[nH]c2=O)c1

>  <score_type>  (26) 
oracle

>  <origin>  (26) 
adg

>  <m_score__min__energy>  (26) 
-21.949999999999999

>  <m_primary>  (26) 
energy

$$$$
26:0
     RDKit          3D

 30 31  0  0  0  0  0  0  0  0999 V2000
   58.3660   32.2750   49.4290 N   0  0  0  0  0  0  0  0  0  0  0  0
   59.4700   33.1330   48.4140 S   0  0  0  0  0  0  0  0  0  0  0  0
   60.8260   32.4890   48.4890 O   0  0  0  0  0  0  0  0  0  0  0  0
   59.5860   34.5560   48.8890 O   0  0  0  0  0  0  0  0  0  0  0  0
   58.8880   33.1000   46.7530 C   0  0  0  0  0  0  0  0  0  0  0  0
   59.5250   33.8620   45.7650 C   0  0  0  0  0  0  0  0  0  0  0  0
   59.0500   33.8460   44.4510 C   0  0  0  0  0  0  0  0  0  0  0  0
   57.9270   33.0830   44.1220 C   0  0  0  0  0  0  0  0  0  0  0  0
   57.2620   32.3400   45.1120 C   0  0  0  0  0  0  0  0  0  0  0  0
   56.0930   31.5660   44.8120 N   0  0  0  0  0  0  0  0  0  0  0  0
   56.0880   30.2370   44.2730 C   0  0  0  0  0  0  0  0  0  0  0  0
   56.3890   30.0660   43.0640 O   0  0  0  0  0  0  0  0  0  0  0  0
   55.7480   29.0960   45.0740 N   0  0  0  0  0  0  0  0  0  0  0  0
   56.6600   28.0870   45.5300 C   0  0  0  0  0  0  0  0  0  0  0  0
   58.0520   28.2910   45.5050 C   0  0  0  0  0  0  0  0  0  0  0  0
   58.9190   27.2960   45.9650 C   0  0  0  0  0  0  0  0  0  0  0  0
   58.4070   26.0840   46.4350 C   0  0  0  0  0  0  0  0  0  0  0  0
   57.0270   25.8630   46.4380 C   0  0  0  0  0  0  0  0  0  0  0  0
   56.1540   26.8580   45.9820 C   0  0  0  0  0  0  0  0  0  0  0  0
   54.7840   26.6260   45.9920 O   0  0  0  0  0  0  0  0  0  0  0  0
   57.7600   32.3380   46.4210 C   0  0  0  0  0  0  0  0  0  0  0  0
   58.7190   31.2950   49.5030 H   0  0  0  0  0  0  0  0  0  0  0  0
   60.4012   34.4744   46.0243 H   0  0  0  0  0  0  0  0  0  0  0  0
   59.5608   34.4348   43.6749 H   0  0  0  0  0  0  0  0  0  0  0  0
   57.5621   33.0638   43.0845 H   0  0  0  0  0  0  0  0  0  0  0  0
   58.4597   29.2380   45.1216 H   0  0  0  0  0  0  0  0  0  0  0  0
   60.0056   27.4673   45.9570 H   0  0  0  0  0  0  0  0  0  0  0  0
   59.0899   25.3039   46.8026 H   0  0  0  0  0  0  0  0  0  0  0  0
   56.6257   24.9048   46.7996 H   0  0  0  0  0  0  0  0  0  0  0  0
   57.2621   31.7340   47.1939 H   0  0  0  0  0  0  0  0  0  0  0  0
  1  2  1  0
  2  3  2  0
  2  4  2  0
  2  5  1  0
  5  6  2  0
  6  7  1  0
  7  8  2  0
  8  9  1  0
  9 10  1  0
 10 11  1  0
 11 12  2  0
 11 13  1  0
 13 14  1  0
 14 15  2  0
 15 16  1  0
 16 17  2  0
 17 18  1  0
 18 19  2  0
 19 20  1  0
  9 21  2  0
 21  5  1  0
 19 14  1  0
  1 22  1  0
  6 23  1  0
  7 24  1  0
  8 25  1  0
 15 26  1  0
 16 27  1  0
 17 28  1  0
 18 29  1  0
 21 30  1  0
M  CHG  4   1  -1  10  -1  13  -1  20  -1
M  END
>  <UniqueID>  (27) 
26

>  <SMILES>  (27) 
[NH-]S(=O)(=O)c1cccc([N-]C(=O)[N-]c2ccccc2[O-])c1

>  <Energy>  (27) 
37.73267244118985

>  <Genealogy>  (27) 
[NH-]S(=O)(=O)c1cccc([N-]C(=O)[N-]c2ccccc2[O-])c1 (protonated)
[NH-]S(=O)(=O)c1cccc([N-]C(=O)[N-]c2ccccc2[O-])c1 (3D coordinates assigned)
[NH-]S(=O)(=O)c1cccc([N-]C(=O)[N-]c2ccccc2[O-])c1 (optimized conformer: 37.73267244118985 kcal/mol)

>  <smiles>  (27) 
NS(=O)(=O)c1cccc(NC(=O)Nc2ccccc2O)c1

>  <score_type>  (27) 
oracle

>  <origin>  (27) 
adg

>  <m_score__min__energy>  (27) 
-15.42

>  <m_primary>  (27) 
energy

$$$$
27:0
     RDKit          3D

 39 41  0  0  0  0  0  0  0  0999 V2000
   64.5843   33.7657   48.2595 H   0  0  0  0  0  0  0  0  0  0  0  0
   63.4910   33.8110   48.1470 C   0  0  0  0  0  0  0  0  0  0  0  0
   62.6320   34.2710   49.0800 N   0  0  0  0  0  0  0  0  0  0  0  0
   61.4170   34.1380   48.5090 C   0  0  0  0  0  0  0  0  0  0  0  0
   60.4765   34.4263   49.0012 H   0  0  0  0  0  0  0  0  0  0  0  0
   61.4820   33.6130   47.2690 N   0  0  0  0  0  0  0  0  0  0  0  0
   60.3540   33.3600   46.3650 C   0  0  0  0  0  0  0  0  0  0  0  0
   60.7387   33.2956   45.3365 H   0  0  0  0  0  0  0  0  0  0  0  0
   59.3490   34.5190   46.4130 C   0  0  0  0  0  0  0  0  0  0  0  0
   59.8621   35.4520   46.1370 H   0  0  0  0  0  0  0  0  0  0  0  0
   58.9436   34.5901   47.4331 H   0  0  0  0  0  0  0  0  0  0  0  0
   58.1810   34.2770   45.4350 C   0  0  0  0  0  0  0  0  0  0  0  0
   58.4990   34.5980   44.4321 H   0  0  0  0  0  0  0  0  0  0  0  0
   57.3254   34.8536   45.8164 H   0  0  0  0  0  0  0  0  0  0  0  0
   57.7370   32.8580   45.3520 N   0  0  0  0  0  0  0  0  0  0  0  0
   58.1070   32.2150   44.0710 C   0  0  0  0  0  0  0  0  0  0  0  0
   59.0265   31.6288   44.2158 H   0  0  0  0  0  0  0  0  0  0  0  0
   58.2640   33.0015   43.3182 H   0  0  0  0  0  0  0  0  0  0  0  0
   57.0100   31.2990   43.5850 C   0  0  0  0  0  0  0  0  0  0  0  0
   56.6810   31.3250   42.3680 O   0  0  0  0  0  0  0  0  0  0  0  0
   56.3130   30.3930   44.4580 N   0  0  0  0  0  0  0  0  0  0  0  0
   56.7320   29.2520   44.9230 C   0  0  0  0  0  0  0  0  0  0  0  0
   55.9320   28.2120   45.2450 N   0  0  0  0  0  0  0  0  0  0  0  0
   56.6530   27.1440   45.6780 C   0  0  0  0  0  0  0  0  0  0  0  0
   55.9980   25.8820   46.1320 C   0  0  0  0  0  0  0  0  0  0  0  0
   55.9824   25.8520   47.2315 H   0  0  0  0  0  0  0  0  0  0  0  0
   54.9673   25.8457   45.7496 H   0  0  0  0  0  0  0  0  0  0  0  0
   56.5616   25.0182   45.7496 H   0  0  0  0  0  0  0  0  0  0  0  0
   58.0340   27.3330   45.7080 C   0  0  0  0  0  0  0  0  0  0  0  0
   58.7817   26.5950   46.0339 H   0  0  0  0  0  0  0  0  0  0  0  0
   58.3540   28.8910   45.1570 S   0  0  0  0  0  0  0  0  0  0  0  0
   58.1480   32.0490   46.5190 C   0  0  0  0  0  0  0  0  0  0  0  0
   57.7815   31.0209   46.3826 H   0  0  0  0  0  0  0  0  0  0  0  0
   57.7178   32.5149   47.4178 H   0  0  0  0  0  0  0  0  0  0  0  0
   59.6790   32.0090   46.6980 C   0  0  0  0  0  0  0  0  0  0  0  0
   60.0911   31.2362   46.0325 H   0  0  0  0  0  0  0  0  0  0  0  0
   59.8843   31.7866   47.7555 H   0  0  0  0  0  0  0  0  0  0  0  0
   62.7910   33.4070   47.0330 C   0  0  0  0  0  0  0  0  0  0  0  0
   63.2247   32.9895   46.1124 H   0  0  0  0  0  0  0  0  0  0  0  0
  1  2  1  0
  2  3  1  0
  3  4  2  0
  4  5  1  0
  4  6  1  0
  6  7  1  0
  7  8  1  0
  7  9  1  0
  9 10  1  0
  9 11  1  0
  9 12  1  0
 12 13  1  0
 12 14  1  0
 12 15  1  0
 15 16  1  0
 16 17  1  0
 16 18  1  0
 16 19  1  0
 19 20  2  0
 19 21  1  0
 21 22  2  0
 22 23  1  0
 23 24  1  0
 24 25  1  0
 25 26  1  0
 25 27  1  0
 25 28  1  0
 24 29  2  0
 29 30  1  0
 29 31  1  0
 15 32  1  0
 32 33  1  0
 32 34  1  0
 32 35  1  0
 35 36  1  0
 35 37  1  0
  6 38  1  0
 38 39  1  0
 38  2  2  0
 35  7  1  0
 31 22  1  0
M  CHG  1  23  -1
M  END
>  <UniqueID>  (28) 
27

>  <SMILES>  (28) 
Cc1cs/c(=N/C(=O)CN2CCC(n3ccnc3)CC2)[n-]1

>  <Energy>  (28) 
109.97130004682613

>  <Genealogy>  (28) 
Cc1csc(=NC(=O)CN2CCC(n3ccnc3)CC2)[n-]1 (protonated)
Cc1cs/c(=N/C(=O)CN2CCC(n3ccnc3)CC2)[n-]1 (cis-trans isomerization)
Cc1cs/c(=N/C(=O)CN2CCC(n3ccnc3)CC2)[n-]1 (3D coordinates assigned)
Cc1cs/c(=N/C(=O)CN2CCC(n3ccnc3)CC2)[n-]1 (nonaromatic ring conformer: 109.97130004682613 kcal/mol)

>  <smiles>  (28) 
Cc1csc(=NC(=O)CN2CCC(n3ccnc3)CC2)[nH]1

>  <score_type>  (28) 
oracle

>  <origin>  (28) 
adg

>  <m_score__min__energy>  (28) 
-9.1799999999999997

>  <m_primary>  (28) 
energy

$$$$
28:0
     RDKit          3D

 36 37  0  0  0  0  0  0  0  0999 V2000
   57.4349   25.2411   44.5180 H   0  0  0  0  0  0  0  0  0  0  0  0
   57.2770   25.9890   45.3090 C   0  0  0  0  0  0  0  0  0  0  0  0
   56.0560   25.8600   46.1270 C   0  0  0  0  0  0  0  0  0  0  0  0
   55.1410   26.7160   46.0070 O   0  0  0  0  0  0  0  0  0  0  0  0
   55.9180   24.8500   47.0720 O   0  0  0  0  0  0  0  0  0  0  0  0
   58.2110   26.9420   45.4490 C   0  0  0  0  0  0  0  0  0  0  0  0
   59.2433   26.6126   45.6383 H   0  0  0  0  0  0  0  0  0  0  0  0
   57.9680   28.3960   45.3700 C   0  0  0  0  0  0  0  0  0  0  0  0
   58.3750   29.2580   46.3990 C   0  0  0  0  0  0  0  0  0  0  0  0
   58.8364   28.8456   47.3084 H   0  0  0  0  0  0  0  0  0  0  0  0
   58.1970   30.6380   46.2740 C   0  0  0  0  0  0  0  0  0  0  0  0
   58.4956   31.3022   47.0985 H   0  0  0  0  0  0  0  0  0  0  0  0
   57.6410   31.1860   45.1070 C   0  0  0  0  0  0  0  0  0  0  0  0
   57.5520   32.6620   44.9800 C   0  0  0  0  0  0  0  0  0  0  0  0
   56.6800   33.2780   45.6500 O   0  0  0  0  0  0  0  0  0  0  0  0
   58.5410   33.4670   44.1720 C   0  0  0  0  0  0  0  0  0  0  0  0
   59.4056   32.8301   43.9336 H   0  0  0  0  0  0  0  0  0  0  0  0
   58.0324   33.8091   43.2586 H   0  0  0  0  0  0  0  0  0  0  0  0
   59.0350   34.7090   44.9310 C   0  0  0  0  0  0  0  0  0  0  0  0
   59.7579   35.2456   44.2989 H   0  0  0  0  0  0  0  0  0  0  0  0
   58.1593   35.3344   45.1593 H   0  0  0  0  0  0  0  0  0  0  0  0
   59.7020   34.3540   46.2370 C   0  0  0  0  0  0  0  0  0  0  0  0
   61.0160   33.8510   46.2500 C   0  0  0  0  0  0  0  0  0  0  0  0
   61.5407   33.6641   45.3014 H   0  0  0  0  0  0  0  0  0  0  0  0
   61.6570   33.5880   47.4640 C   0  0  0  0  0  0  0  0  0  0  0  0
   62.6865   33.2005   47.4691 H   0  0  0  0  0  0  0  0  0  0  0  0
   60.9910   33.8170   48.6720 C   0  0  0  0  0  0  0  0  0  0  0  0
   61.4983   33.6138   49.6266 H   0  0  0  0  0  0  0  0  0  0  0  0
   59.6810   34.3040   48.6670 C   0  0  0  0  0  0  0  0  0  0  0  0
   59.1559   34.4775   49.6179 H   0  0  0  0  0  0  0  0  0  0  0  0
   59.0370   34.5710   47.4550 C   0  0  0  0  0  0  0  0  0  0  0  0
   58.0053   34.9526   47.4554 H   0  0  0  0  0  0  0  0  0  0  0  0
   57.2310   30.3170   44.0750 C   0  0  0  0  0  0  0  0  0  0  0  0
   56.6220   30.7850   42.9580 F   0  0  0  0  0  0  0  0  0  0  0  0
   57.4100   28.9350   44.2040 C   0  0  0  0  0  0  0  0  0  0  0  0
   57.1101   28.2669   43.3832 H   0  0  0  0  0  0  0  0  0  0  0  0
  1  2  1  0
  2  3  1  0
  3  4  2  0
  3  5  1  0
  2  6  2  0
  6  7  1  0
  6  8  1  0
  8  9  2  0
  9 10  1  0
  9 11  1  0
 11 12  1  0
 11 13  2  0
 13 14  1  0
 14 15  2  0
 14 16  1  0
 16 17  1  0
 16 18  1  0
 16 19  1  0
 19 20  1  0
 19 21  1  0
 19 22  1  0
 22 23  2  0
 23 24  1  0
 23 25  1  0
 25 26  1  0
 25 27  2  0
 27 28  1  0
 27 29  1  0
 29 30  1  0
 29 31  2  0
 31 32  1  0
 13 33  1  0
 33 34  1  0
 33 35  2  0
 35 36  1  0
 35  8  1  0
 31 22  1  0
M  CHG  1   5  -1
M  END
>  <UniqueID>  (29) 
28

>  <SMILES>  (29) 
O=C([O-])/C=C\c1ccc(C(=O)CCc2ccccc2)c(F)c1

>  <Energy>  (29) 
43.62146040247029

>  <Genealogy>  (29) 
O=C([O-])C=Cc1ccc(C(=O)CCc2ccccc2)c(F)c1 (protonated)
O=C([O-])/C=C\c1ccc(C(=O)CCc2ccccc2)c(F)c1 (cis-trans isomerization)
O=C([O-])/C=C\c1ccc(C(=O)CCc2ccccc2)c(F)c1 (3D coordinates assigned)
O=C([O-])/C=C\c1ccc(C(=O)CCc2ccccc2)c(F)c1 (optimized conformer: 43.62146040247029 kcal/mol)

>  <smiles>  (29) 
O=C(O)C=Cc1ccc(C(=O)CCc2ccccc2)c(F)c1

>  <score_type>  (29) 
oracle

>  <origin>  (29) 
adg

>  <m_score__min__energy>  (29) 
-10.890000000000001

>  <m_primary>  (29) 
energy

$$$$
29:0
     RDKit          3D

 58 61  0  0  0  0  0  0  0  0999 V2000
   55.1840   29.3250   44.8340 O   0  0  0  0  0  0  0  0  0  0  0  0
   56.3740   29.7400   44.8790 C   0  0  0  0  0  0  0  0  0  0  0  0
   56.6270   31.1260   44.6040 N   0  0  0  0  0  0  0  0  0  0  0  0
   57.5020   31.9950   45.3390 C   0  0  0  0  0  0  0  0  0  0  0  0
   57.0060   33.2220   45.7950 C   0  0  0  0  0  0  0  0  0  0  0  0
   57.8260   34.0880   46.5240 C   0  0  0  0  0  0  0  0  0  0  0  0
   59.1420   33.7250   46.8210 C   0  0  0  0  0  0  0  0  0  0  0  0
   59.6420   32.4750   46.4120 C   0  0  0  0  0  0  0  0  0  0  0  0
   61.0550   32.0720   46.7580 C   0  0  0  0  0  0  0  0  0  0  0  0
   61.1460   31.1230   47.8940 N   0  0  0  0  0  0  0  0  0  0  0  0
   60.2690   29.9290   47.8440 C   0  0  0  0  0  0  0  0  0  0  0  0
   58.9740   30.0980   48.6530 C   0  0  0  0  0  0  0  0  0  0  0  0
   59.2720   30.5930   50.0780 C   0  0  0  0  0  0  0  0  0  0  0  0
   58.0070   30.8130   50.8620 C   0  0  0  0  0  0  0  0  0  0  0  0
   57.4310   29.8230   51.4020 O   0  0  0  0  0  0  0  0  0  0  0  0
   57.5080   32.1410   51.0710 N   0  0  0  0  0  0  0  0  0  0  0  0
   57.4220   32.7740   52.3850 C   0  0  0  0  0  0  0  0  0  0  0  0
   58.1680   34.1080   52.3670 C   0  0  0  0  0  0  0  0  0  0  0  0
   59.6000   33.8170   52.8210 C   0  0  0  0  0  0  0  0  0  0  0  0
   59.6100   32.3920   53.3820 C   0  0  0  0  0  0  0  0  0  0  0  0
   58.1570   31.9270   53.4220 C   0  0  0  0  0  0  0  0  0  0  0  0
   60.0690   31.8990   50.0170 C   0  0  0  0  0  0  0  0  0  0  0  0
   61.3720   31.7040   49.2320 C   0  0  0  0  0  0  0  0  0  0  0  0
   58.8210   31.6200   45.6590 C   0  0  0  0  0  0  0  0  0  0  0  0
   57.4690   28.7780   45.1620 C   0  0  0  0  0  0  0  0  0  0  0  0
   58.6210   28.7630   44.3590 C   0  0  0  0  0  0  0  0  0  0  0  0
   59.6510   27.8630   44.6430 C   0  0  0  0  0  0  0  0  0  0  0  0
   59.5400   27.0120   45.6980 N   0  0  0  0  0  0  0  0  0  0  0  0
   58.4440   27.0100   46.5020 C   0  0  0  0  0  0  0  0  0  0  0  0
   58.3760   26.1510   47.5490 F   0  0  0  0  0  0  0  0  0  0  0  0
   57.3920   27.8950   46.2530 C   0  0  0  0  0  0  0  0  0  0  0  0
   55.9656   33.5061   45.5785 H   0  0  0  0  0  0  0  0  0  0  0  0
   57.4342   35.0577   46.8647 H   0  0  0  0  0  0  0  0  0  0  0  0
   59.7897   34.4190   47.3767 H   0  0  0  0  0  0  0  0  0  0  0  0
   61.5070   31.5988   45.8738 H   0  0  0  0  0  0  0  0  0  0  0  0
   61.5836   32.9874   47.0623 H   0  0  0  0  0  0  0  0  0  0  0  0
   60.0032   29.7336   46.7946 H   0  0  0  0  0  0  0  0  0  0  0  0
   60.8276   29.0929   48.2900 H   0  0  0  0  0  0  0  0  0  0  0  0
   58.3269   30.8294   48.1466 H   0  0  0  0  0  0  0  0  0  0  0  0
   58.4740   29.1205   48.7201 H   0  0  0  0  0  0  0  0  0  0  0  0
   59.8612   29.8169   50.5884 H   0  0  0  0  0  0  0  0  0  0  0  0
   56.3554   32.8934   52.6259 H   0  0  0  0  0  0  0  0  0  0  0  0
   58.1705   34.5273   51.3500 H   0  0  0  0  0  0  0  0  0  0  0  0
   57.6841   34.8410   53.0293 H   0  0  0  0  0  0  0  0  0  0  0  0
   60.2897   33.8920   51.9674 H   0  0  0  0  0  0  0  0  0  0  0  0
   59.9257   34.5412   53.5822 H   0  0  0  0  0  0  0  0  0  0  0  0
   60.2016   31.7321   52.7304 H   0  0  0  0  0  0  0  0  0  0  0  0
   60.0624   32.3642   54.3843 H   0  0  0  0  0  0  0  0  0  0  0  0
   58.0887   30.8600   53.1635 H   0  0  0  0  0  0  0  0  0  0  0  0
   57.7209   32.0452   54.4249 H   0  0  0  0  0  0  0  0  0  0  0  0
   59.4609   32.6700   49.5212 H   0  0  0  0  0  0  0  0  0  0  0  0
   60.3176   32.2093   51.0426 H   0  0  0  0  0  0  0  0  0  0  0  0
   61.8618   32.6818   49.1135 H   0  0  0  0  0  0  0  0  0  0  0  0
   62.0010   31.0017   49.7987 H   0  0  0  0  0  0  0  0  0  0  0  0
   59.2112   30.6502   45.3166 H   0  0  0  0  0  0  0  0  0  0  0  0
   58.7119   29.4568   43.5102 H   0  0  0  0  0  0  0  0  0  0  0  0
   60.5524   27.8426   44.0129 H   0  0  0  0  0  0  0  0  0  0  0  0
   56.5079   27.9008   46.9074 H   0  0  0  0  0  0  0  0  0  0  0  0
  1  2  2  0
  2  3  1  0
  3  4  1  0
  4  5  2  0
  5  6  1  0
  6  7  2  0
  7  8  1  0
  8  9  1  0
  9 10  1  0
 10 11  1  0
 11 12  1  0
 12 13  1  0
 13 14  1  0
 14 15  2  0
 14 16  1  0
 16 17  1  0
 17 18  1  0
 18 19  1  0
 19 20  1  0
 20 21  1  0
 13 22  1  0
 22 23  1  0
  8 24  2  0
  2 25  1  0
 25 26  2  0
 26 27  1  0
 27 28  2  0
 28 29  1  0
 29 30  1  0
 29 31  2  0
 24  4  1  0
 31 25  1  0
 23 10  1  0
 21 17  1  0
  5 32  1  0
  6 33  1  0
  7 34  1  0
  9 35  1  0
  9 36  1  0
 11 37  1  0
 11 38  1  0
 12 39  1  0
 12 40  1  0
 13 41  1  0
 17 42  1  0
 18 43  1  0
 18 44  1  0
 19 45  1  0
 19 46  1  0
 20 47  1  0
 20 48  1  0
 21 49  1  0
 21 50  1  0
 22 51  1  0
 22 52  1  0
 23 53  1  0
 23 54  1  0
 24 55  1  0
 26 56  1  0
 27 57  1  0
 31 58  1  0
M  CHG  2   3  -1  16  -1
M  END
>  <UniqueID>  (30) 
29

>  <SMILES>  (30) 
O=C([N-]c1cccc(CN2CCC(C(=O)[N-]C3CCCC3)CC2)c1)c1ccnc(F)c1

>  <Energy>  (30) 
67.93540204578294

>  <Genealogy>  (30) 
O=C([N-]c1cccc(CN2CCC(C(=O)[N-]C3CCCC3)CC2)c1)c1ccnc(F)c1 (protonated)
O=C([N-]c1cccc(CN2CCC(C(=O)[N-]C3CCCC3)CC2)c1)c1ccnc(F)c1 (3D coordinates assigned)
O=C([N-]c1cccc(CN2CCC(C(=O)[N-]C3CCCC3)CC2)c1)c1ccnc(F)c1 (nonaromatic ring conformer: 67.93540204578294 kcal/mol)

>  <smiles>  (30) 
O=C(Nc1cccc(CN2CCC(C(=O)NC3CCCC3)CC2)c1)c1ccnc(F)c1

>  <score_type>  (30) 
oracle

>  <origin>  (30) 
adg

>  <m_score__min__energy>  (30) 
-12.699999999999999

>  <m_primary>  (30) 
energy

$$$$
30:0
     RDKit          3D

 53 55  0  0  0  0  0  0  0  0999 V2000
   63.3830   33.8850   46.3840 C   0  0  0  0  0  0  0  0  0  0  0  0
   62.0120   34.1250   46.6820 O   0  0  0  0  0  0  0  0  0  0  0  0
   61.1080   33.1380   47.1050 C   0  0  0  0  0  0  0  0  0  0  0  0
   59.9080   33.4480   47.7680 C   0  0  0  0  0  0  0  0  0  0  0  0
   59.0370   32.4320   48.1640 C   0  0  0  0  0  0  0  0  0  0  0  0
   59.3540   31.0840   47.9100 C   0  0  0  0  0  0  0  0  0  0  0  0
   58.5090   30.0340   48.3050 O   0  0  0  0  0  0  0  0  0  0  0  0
   58.8960   28.9660   49.1630 C   0  0  0  0  0  0  0  0  0  0  0  0
   60.5540   30.7680   47.2570 C   0  0  0  0  0  0  0  0  0  0  0  0
   60.8460   29.3930   46.9750 N   0  0  0  0  0  0  0  0  0  0  0  0
   60.2930   28.6120   45.9090 C   0  0  0  0  0  0  0  0  0  0  0  0
   60.3900   27.3560   45.9100 O   0  0  0  0  0  0  0  0  0  0  0  0
   59.5470   29.2990   44.8110 C   0  0  0  0  0  0  0  0  0  0  0  0
   58.1340   28.9140   44.8420 N   0  0  0  0  0  0  0  0  0  0  0  0
   57.7720   27.5470   45.0880 C   0  0  0  0  0  0  0  0  0  0  0  0
   57.4000   27.1650   46.3850 C   0  0  0  0  0  0  0  0  0  0  0  0
   57.0430   25.8430   46.6590 C   0  0  0  0  0  0  0  0  0  0  0  0
   57.0510   24.8920   45.6380 C   0  0  0  0  0  0  0  0  0  0  0  0
   57.4200   25.2600   44.3410 C   0  0  0  0  0  0  0  0  0  0  0  0
   57.8010   26.5820   44.0560 C   0  0  0  0  0  0  0  0  0  0  0  0
   58.1470   26.9520   42.6390 C   0  0  0  0  0  0  0  0  0  0  0  0
   56.9330   30.0110   44.2320 S   0  0  0  0  0  0  0  0  0  0  0  0
   55.6080   29.7300   44.8870 O   0  0  0  0  0  0  0  0  0  0  0  0
   56.7820   29.8180   42.7500 O   0  0  0  0  0  0  0  0  0  0  0  0
   57.4150   31.6680   44.5650 C   0  0  0  0  0  0  0  0  0  0  0  0
   58.4650   32.2690   43.8570 C   0  0  0  0  0  0  0  0  0  0  0  0
   58.8060   33.5940   44.1350 C   0  0  0  0  0  0  0  0  0  0  0  0
   58.0970   34.3060   45.1030 C   0  0  0  0  0  0  0  0  0  0  0  0
   57.0590   33.6740   45.7900 C   0  0  0  0  0  0  0  0  0  0  0  0
   56.7450   32.3810   45.5090 N   0  0  0  0  0  0  0  0  0  0  0  0
   61.4190   31.7980   46.8480 C   0  0  0  0  0  0  0  0  0  0  0  0
   63.9500   33.7857   47.3213 H   0  0  0  0  0  0  0  0  0  0  0  0
   63.4744   32.9572   45.8002 H   0  0  0  0  0  0  0  0  0  0  0  0
   63.7841   34.7266   45.8002 H   0  0  0  0  0  0  0  0  0  0  0  0
   59.6538   34.4978   47.9760 H   0  0  0  0  0  0  0  0  0  0  0  0
   58.0978   32.6858   48.6773 H   0  0  0  0  0  0  0  0  0  0  0  0
   58.7827   29.2786   50.2115 H   0  0  0  0  0  0  0  0  0  0  0  0
   58.2577   28.0911   48.9702 H   0  0  0  0  0  0  0  0  0  0  0  0
   59.9466   28.7031   48.9702 H   0  0  0  0  0  0  0  0  0  0  0  0
   59.6299   30.3881   44.9414 H   0  0  0  0  0  0  0  0  0  0  0  0
   59.9787   29.0029   43.8436 H   0  0  0  0  0  0  0  0  0  0  0  0
   57.3893   27.9120   47.1924 H   0  0  0  0  0  0  0  0  0  0  0  0
   56.7554   25.5514   47.6799 H   0  0  0  0  0  0  0  0  0  0  0  0
   56.7666   23.8516   45.8540 H   0  0  0  0  0  0  0  0  0  0  0  0
   57.4120   24.5089   43.5374 H   0  0  0  0  0  0  0  0  0  0  0  0
   58.8983   27.7554   42.6429 H   0  0  0  0  0  0  0  0  0  0  0  0
   58.5538   26.0721   42.1192 H   0  0  0  0  0  0  0  0  0  0  0  0
   57.2418   27.2990   42.1192 H   0  0  0  0  0  0  0  0  0  0  0  0
   59.0144   31.7027   43.0906 H   0  0  0  0  0  0  0  0  0  0  0  0
   59.6323   34.0758   43.5918 H   0  0  0  0  0  0  0  0  0  0  0  0
   58.3529   35.3531   45.3223 H   0  0  0  0  0  0  0  0  0  0  0  0
   56.4948   34.2221   46.5590 H   0  0  0  0  0  0  0  0  0  0  0  0
   62.3509   31.5478   46.3199 H   0  0  0  0  0  0  0  0  0  0  0  0
  1  2  1  0
  2  3  1  0
  3  4  2  0
  4  5  1  0
  5  6  2  0
  6  7  1  0
  7  8  1  0
  6  9  1  0
  9 10  1  0
 10 11  1  0
 11 12  2  0
 11 13  1  0
 13 14  1  0
 14 15  1  0
 15 16  2  0
 16 17  1  0
 17 18  2  0
 18 19  1  0
 19 20  2  0
 20 21  1  0
 14 22  1  0
 22 23  2  0
 22 24  2  0
 22 25  1  0
 25 26  2  0
 26 27  1  0
 27 28  2  0
 28 29  1  0
 29 30  2  0
  9 31  2  0
 31  3  1  0
 20 15  1  0
 30 25  1  0
  1 32  1  0
  1 33  1  0
  1 34  1  0
  4 35  1  0
  5 36  1  0
  8 37  1  0
  8 38  1  0
  8 39  1  0
 13 40  1  0
 13 41  1  0
 16 42  1  0
 17 43  1  0
 18 44  1  0
 19 45  1  0
 21 46  1  0
 21 47  1  0
 21 48  1  0
 26 49  1  0
 27 50  1  0
 28 51  1  0
 29 52  1  0
 31 53  1  0
M  CHG  1  10  -1
M  END
>  <UniqueID>  (31) 
30

>  <SMILES>  (31) 
COc1ccc(OC)c([N-]C(=O)CN(c2ccccc2C)S(=O)(=O)c2ccccn2)c1

>  <Energy>  (31) 
58.89812203581303

>  <Genealogy>  (31) 
COc1ccc(OC)c([N-]C(=O)CN(c2ccccc2C)S(=O)(=O)c2ccccn2)c1 (protonated)
COc1ccc(OC)c([N-]C(=O)CN(c2ccccc2C)S(=O)(=O)c2ccccn2)c1 (3D coordinates assigned)
COc1ccc(OC)c([N-]C(=O)CN(c2ccccc2C)S(=O)(=O)c2ccccn2)c1 (optimized conformer: 58.89812203581303 kcal/mol)

>  <smiles>  (31) 
COc1ccc(OC)c(NC(=O)CN(c2ccccc2C)S(=O)(=O)c2ccccn2)c1

>  <score_type>  (31) 
oracle

>  <origin>  (31) 
adg

>  <m_score__min__energy>  (31) 
-10.44

>  <m_primary>  (31) 
energy

$$$$
31:0
     RDKit          3D

 63 65  0  0  0  0  0  0  0  0999 V2000
   59.5300   32.6980   49.7190 C   0  0  0  0  0  0  0  0  0  0  0  0
   60.1770   31.7070   48.8100 C   0  0  0  0  0  0  0  0  0  0  0  0
   60.0280   30.3690   49.0190 N   0  0  0  0  0  0  0  0  0  0  0  0
   60.6980   29.6480   48.0970 C   0  0  0  0  0  0  0  0  0  0  0  0
   60.7650   28.3510   48.0820 N   0  0  0  0  0  0  0  0  0  0  0  0
   59.6750   27.4390   47.8840 C   0  0  0  0  0  0  0  0  0  0  0  0
   59.6780   26.2970   48.4180 O   0  0  0  0  0  0  0  0  0  0  0  0
   58.4910   27.8820   47.0670 C   0  0  1  0  0  0  0  0  0  0  0  0
   58.8060   27.8590   45.5600 C   0  0  0  0  0  0  0  0  0  0  0  0
   57.7820   28.6020   44.7350 C   0  0  0  0  0  0  0  0  0  0  0  0
   57.1190   29.7190   45.2700 C   0  0  0  0  0  0  0  0  0  0  0  0
   56.2270   30.4530   44.4840 C   0  0  0  0  0  0  0  0  0  0  0  0
   55.9890   30.0760   43.1610 C   0  0  0  0  0  0  0  0  0  0  0  0
   56.6360   28.9610   42.6220 C   0  0  0  0  0  0  0  0  0  0  0  0
   57.5290   28.2240   43.4040 C   0  0  0  0  0  0  0  0  0  0  0  0
   57.3480   27.0180   47.3550 N   0  0  0  0  0  0  0  0  0  0  0  0
   56.6990   26.2120   46.3720 C   0  0  0  0  0  0  0  0  0  0  0  0
   55.5250   26.5070   45.9950 O   0  0  0  0  0  0  0  0  0  0  0  0
   57.3750   25.0150   45.8270 C   0  0  0  0  0  0  0  0  0  0  0  0
   58.7230   24.7540   46.1320 C   0  0  0  0  0  0  0  0  0  0  0  0
   59.3550   23.6130   45.6350 C   0  0  0  0  0  0  0  0  0  0  0  0
   58.6520   22.7190   44.8310 C   0  0  0  0  0  0  0  0  0  0  0  0
   57.3100   22.9660   44.5120 C   0  0  0  0  0  0  0  0  0  0  0  0
   56.4060   21.8420   43.5070 S   0  0  0  0  0  0  0  0  0  0  0  0
   55.5600   20.7150   44.5100 N   0  0  0  0  0  0  0  0  0  0  0  0
   57.3440   21.0920   42.6050 O   0  0  0  0  0  0  0  0  0  0  0  0
   55.4240   22.6030   42.6600 O   0  0  0  0  0  0  0  0  0  0  0  0
   56.6740   24.1080   45.0160 C   0  0  0  0  0  0  0  0  0  0  0  0
   61.4860   30.6190   46.9860 S   0  0  0  0  0  0  0  0  0  0  0  0
   60.9810   32.0520   47.7130 C   0  0  0  0  0  0  0  0  0  0  0  0
   61.2930   33.4230   47.2430 C   0  0  0  0  0  0  0  0  0  0  0  0
   62.2110   33.5780   46.3980 O   0  0  0  0  0  0  0  0  0  0  0  0
   60.5870   34.5910   47.7010 N   0  0  0  0  0  0  0  0  0  0  0  0
   59.2600   35.0420   47.2890 C   0  0  0  0  0  0  0  0  0  0  0  0
   58.9830   34.6990   45.8460 C   0  0  0  0  0  0  0  0  0  0  0  0
   59.3310   35.5150   44.9450 O   0  0  0  0  0  0  0  0  0  0  0  0
   58.2560   33.5050   45.4790 N   0  0  0  0  0  0  0  0  0  0  0  0
   57.4990   32.7450   46.4820 C   0  0  0  0  0  0  0  0  0  0  0  0
   58.3100   33.0350   44.0880 C   0  0  0  0  0  0  0  0  0  0  0  0
   59.7164   32.4125   50.7648 H   0  0  0  0  0  0  0  0  0  0  0  0
   59.9504   33.6970   49.5311 H   0  0  0  0  0  0  0  0  0  0  0  0
   58.4463   32.7150   49.5311 H   0  0  0  0  0  0  0  0  0  0  0  0
   58.2501   28.9194   47.3422 H   0  0  0  0  0  0  0  0  0  0  0  0
   59.7901   28.3236   45.3998 H   0  0  0  0  0  0  0  0  0  0  0  0
   58.7923   26.8080   45.2355 H   0  0  0  0  0  0  0  0  0  0  0  0
   57.3030   30.0172   46.3127 H   0  0  0  0  0  0  0  0  0  0  0  0
   55.7122   31.3280   44.9076 H   0  0  0  0  0  0  0  0  0  0  0  0
   55.2907   30.6580   42.5416 H   0  0  0  0  0  0  0  0  0  0  0  0
   56.4421   28.6632   41.5810 H   0  0  0  0  0  0  0  0  0  0  0  0
   58.0356   27.3457   42.9776 H   0  0  0  0  0  0  0  0  0  0  0  0
   59.2839   25.4550   46.7676 H   0  0  0  0  0  0  0  0  0  0  0  0
   60.4101   23.4196   45.8787 H   0  0  0  0  0  0  0  0  0  0  0  0
   59.1510   21.8176   44.4458 H   0  0  0  0  0  0  0  0  0  0  0  0
   55.3160   19.9000   43.9040 H   0  0  0  0  0  0  0  0  0  0  0  0
   55.6173   24.2956   44.7746 H   0  0  0  0  0  0  0  0  0  0  0  0
   58.5043   34.5558   47.9234 H   0  0  0  0  0  0  0  0  0  0  0  0
   59.2178   36.1358   47.3981 H   0  0  0  0  0  0  0  0  0  0  0  0
   57.8099   33.0571   47.4900 H   0  0  0  0  0  0  0  0  0  0  0  0
   56.4237   32.9381   46.3537 H   0  0  0  0  0  0  0  0  0  0  0  0
   57.6964   31.6705   46.3537 H   0  0  0  0  0  0  0  0  0  0  0  0
   58.4356   31.9423   44.0748 H   0  0  0  0  0  0  0  0  0  0  0  0
   57.3752   33.3029   43.5739 H   0  0  0  0  0  0  0  0  0  0  0  0
   59.1597   33.5079   43.5739 H   0  0  0  0  0  0  0  0  0  0  0  0
  1  2  1  0
  2  3  1  0
  3  4  1  0
  4  5  2  3
  5  6  1  0
  6  7  2  0
  6  8  1  0
  8  9  1  0
  9 10  1  0
 10 11  2  0
 11 12  1  0
 12 13  2  0
 13 14  1  0
 14 15  2  0
  8 16  1  0
 16 17  1  0
 17 18  2  0
 17 19  1  0
 19 20  2  0
 20 21  1  0
 21 22  2  0
 22 23  1  0
 23 24  1  0
 24 25  1  0
 24 26  2  0
 24 27  2  0
 23 28  2  0
  4 29  1  0
 29 30  1  0
 30 31  1  0
 31 32  2  0
 31 33  1  0
 33 34  1  0
 34 35  1  0
 35 36  2  0
 35 37  1  0
 37 38  1  0
 37 39  1  0
 30  2  2  0
 15 10  1  0
 28 19  1  0
  1 40  1  0
  1 41  1  0
  1 42  1  0
  8 43  1  1
  9 44  1  0
  9 45  1  0
 11 46  1  0
 12 47  1  0
 13 48  1  0
 14 49  1  0
 15 50  1  0
 20 51  1  0
 21 52  1  0
 22 53  1  0
 25 54  1  0
 28 55  1  0
 34 56  1  0
 34 57  1  0
 38 58  1  0
 38 59  1  0
 38 60  1  0
 39 61  1  0
 39 62  1  0
 39 63  1  0
M  CHG  4   3  -1  16  -1  25  -1  33  -1
M  END
>  <UniqueID>  (32) 
31

>  <SMILES>  (32) 
Cc1[n-]c(=NC(=O)[C@@H](Cc2ccccc2)[N-]C(=O)c2cccc(S([NH-])(=O)=O)c2)sc1C(=O)[N-]CC(=O)N(C)C

>  <Energy>  (32) 
87.6641035153045

>  <Genealogy>  (32) 
Cc1[n-]c(=NC(=O)C(Cc2ccccc2)[N-]C(=O)c2cccc(S([NH-])(=O)=O)c2)sc1C(=O)[N-]CC(=O)N(C)C (protonated)
Cc1[n-]c(=NC(=O)[C@@H](Cc2ccccc2)[N-]C(=O)c2cccc(S([NH-])(=O)=O)c2)sc1C(=O)[N-]CC(=O)N(C)C (chirality)
Cc1[n-]c(=NC(=O)[C@@H](Cc2ccccc2)[N-]C(=O)c2cccc(S([NH-])(=O)=O)c2)sc1C(=O)[N-]CC(=O)N(C)C (3D coordinates assigned)
Cc1[n-]c(=NC(=O)[C@@H](Cc2ccccc2)[N-]C(=O)c2cccc(S([NH-])(=O)=O)c2)sc1C(=O)[N-]CC(=O)N(C)C (optimized conformer: 87.6641035153045 kcal/mol)

>  <smiles>  (32) 
Cc1[nH]c(=NC(=O)C(Cc2ccccc2)NC(=O)c2cccc(S(N)(=O)=O)c2)sc1C(=O)NCC(=O)N(C)C

>  <score_type>  (32) 
oracle

>  <origin>  (32) 
adg

>  <m_score__min__energy>  (32) 
-16.390000000000001

>  <m_primary>  (32) 
energy

$$$$
32:0
     RDKit          3D

 28 29  0  0  0  0  0  0  0  0999 V2000
   55.1380   30.1650   44.4970 N   0  0  0  0  0  0  0  0  0  0  0  0
   56.8660   30.1410   44.4720 S   0  0  0  0  0  0  0  0  0  0  0  0
   57.3920   31.2190   45.3780 O   0  0  0  0  0  0  0  0  0  0  0  0
   57.3510   30.4060   43.0750 O   0  0  0  0  0  0  0  0  0  0  0  0
   57.4410   28.5690   45.0150 C   0  0  0  0  0  0  0  0  0  0  0  0
   57.4500   28.2540   46.3800 C   0  0  0  0  0  0  0  0  0  0  0  0
   57.8940   27.0000   46.8110 C   0  0  0  0  0  0  0  0  0  0  0  0
   58.3350   26.0460   45.8800 C   0  0  0  0  0  0  0  0  0  0  0  0
   58.7810   24.6830   46.3400 C   0  0  0  0  0  0  0  0  0  0  0  0
   58.0740   23.6000   45.5550 C   0  0  0  0  0  0  0  0  0  0  0  0
   58.7900   22.5190   45.0060 C   0  0  0  0  0  0  0  0  0  0  0  0
   60.1630   22.4040   45.2040 O   0  0  0  0  0  0  0  0  0  0  0  0
   58.1380   21.5760   44.2770 N   0  0  0  0  0  0  0  0  0  0  0  0
   56.8020   21.6540   44.0590 C   0  0  0  0  0  0  0  0  0  0  0  0
   56.2230   20.7680   43.3800 O   0  0  0  0  0  0  0  0  0  0  0  0
   56.0890   22.6880   44.5720 N   0  0  0  0  0  0  0  0  0  0  0  0
   56.6900   23.6580   45.3080 C   0  0  0  0  0  0  0  0  0  0  0  0
   55.9930   24.6030   45.7650 O   0  0  0  0  0  0  0  0  0  0  0  0
   58.3140   26.3620   44.5120 C   0  0  0  0  0  0  0  0  0  0  0  0
   57.8690   27.6150   44.0830 C   0  0  0  0  0  0  0  0  0  0  0  0
   54.8310   29.3480   45.0730 H   0  0  0  0  0  0  0  0  0  0  0  0
   57.1064   28.9961   47.1157 H   0  0  0  0  0  0  0  0  0  0  0  0
   57.8978   26.7598   47.8845 H   0  0  0  0  0  0  0  0  0  0  0  0
   59.8666   24.5880   46.1905 H   0  0  0  0  0  0  0  0  0  0  0  0
   58.5329   24.5689   47.4056 H   0  0  0  0  0  0  0  0  0  0  0  0
   60.7780   22.1410   44.4440 H   0  0  0  0  0  0  0  0  0  0  0  0
   58.6498   25.6188   43.7739 H   0  0  0  0  0  0  0  0  0  0  0  0
   57.8547   27.8532   43.0092 H   0  0  0  0  0  0  0  0  0  0  0  0
  1  2  1  0
  2  3  2  0
  2  4  2  0
  2  5  1  0
  5  6  2  0
  6  7  1  0
  7  8  2  0
  8  9  1  0
  9 10  1  0
 10 11  2  0
 11 12  1  0
 11 13  1  0
 13 14  1  0
 14 15  2  0
 14 16  1  0
 16 17  1  0
 17 18  2  0
  8 19  1  0
 19 20  2  0
 20  5  1  0
 17 10  1  0
  1 21  1  0
  6 22  1  0
  7 23  1  0
  9 24  1  0
  9 25  1  0
 12 26  1  0
 19 27  1  0
 20 28  1  0
M  CHG  3   1  -1  13  -1  16  -1
M  END
>  <UniqueID>  (33) 
32

>  <SMILES>  (33) 
[NH-]S(=O)(=O)c1ccc(Cc2c(O)[n-]c(=O)[n-]c2=O)cc1

>  <Energy>  (33) 
29.335495210477937

>  <Genealogy>  (33) 
[NH-]S(=O)(=O)c1ccc(Cc2c(O)[n-]c(=O)[n-]c2=O)cc1 (protonated)
[NH-]S(=O)(=O)c1ccc(Cc2c(O)[n-]c(=O)[n-]c2=O)cc1 (3D coordinates assigned)
[NH-]S(=O)(=O)c1ccc(Cc2c(O)[n-]c(=O)[n-]c2=O)cc1 (optimized conformer: 29.335495210477937 kcal/mol)

>  <smiles>  (33) 
NS(=O)(=O)c1ccc(Cc2c(O)[nH]c(=O)[nH]c2=O)cc1

>  <score_type>  (33) 
oracle

>  <origin>  (33) 
adg

>  <m_score__min__energy>  (33) 
-12.029999999999999

>  <m_primary>  (33) 
energy

$$$$
33:0
     RDKit          3D

 39 41  0  0  0  0  0  0  0  0999 V2000
   56.4820   29.4540   44.1870 H   0  0  0  0  0  0  0  0  0  0  0  0
   56.9770   30.2960   43.9220 O   0  0  0  0  0  0  0  0  0  0  0  0
   57.4590   31.2190   44.8510 C   0  0  0  0  0  0  0  0  0  0  0  0
   57.0560   32.5070   44.7470 N   0  0  0  0  0  0  0  0  0  0  0  0
   57.5160   33.4730   45.5790 C   0  0  0  0  0  0  0  0  0  0  0  0
   57.0950   34.6520   45.4290 O   0  0  0  0  0  0  0  0  0  0  0  0
   58.4260   33.1690   46.5600 N   0  0  0  0  0  0  0  0  0  0  0  0
   58.9650   34.2320   47.4340 C   0  0  0  0  0  0  0  0  0  0  0  0
   58.6989   35.2142   47.0163 H   0  0  0  0  0  0  0  0  0  0  0  0
   58.5341   34.1196   48.4398 H   0  0  0  0  0  0  0  0  0  0  0  0
   60.4660   34.1230   47.5300 C   0  0  0  0  0  0  0  0  0  0  0  0
   61.1020   34.1410   48.7830 C   0  0  0  0  0  0  0  0  0  0  0  0
   60.5044   34.2586   49.6990 H   0  0  0  0  0  0  0  0  0  0  0  0
   62.4920   34.0100   48.8700 C   0  0  0  0  0  0  0  0  0  0  0  0
   62.9853   34.0299   49.8530 H   0  0  0  0  0  0  0  0  0  0  0  0
   63.2540   33.8540   47.7100 C   0  0  0  0  0  0  0  0  0  0  0  0
   64.3468   33.7499   47.7801 H   0  0  0  0  0  0  0  0  0  0  0  0
   62.6290   33.8300   46.4600 C   0  0  0  0  0  0  0  0  0  0  0  0
   63.2304   33.7072   45.5472 H   0  0  0  0  0  0  0  0  0  0  0  0
   61.2400   33.9620   46.3690 C   0  0  0  0  0  0  0  0  0  0  0  0
   60.7512   33.9397   45.3838 H   0  0  0  0  0  0  0  0  0  0  0  0
   58.8590   31.8730   46.7020 C   0  0  0  0  0  0  0  0  0  0  0  0
   59.6950   31.5770   47.6010 O   0  0  0  0  0  0  0  0  0  0  0  0
   58.3630   30.8590   45.8660 C   0  0  0  0  0  0  0  0  0  0  0  0
   58.8110   29.4600   46.0610 C   0  0  0  0  0  0  0  0  0  0  0  0
   59.4647   29.2456   46.9194 H   0  0  0  0  0  0  0  0  0  0  0  0
   58.4730   28.4370   45.2610 C   0  0  0  0  0  0  0  0  0  0  0  0
   58.8279   28.4652   44.2202 H   0  0  0  0  0  0  0  0  0  0  0  0
   57.6560   27.2710   45.6770 C   0  0  0  0  0  0  0  0  0  0  0  0
   58.2620   26.0610   46.0640 C   0  0  0  0  0  0  0  0  0  0  0  0
   59.3587   25.9770   46.0736 H   0  0  0  0  0  0  0  0  0  0  0  0
   57.4780   24.9660   46.4360 C   0  0  0  0  0  0  0  0  0  0  0  0
   57.9596   24.0294   46.7535 H   0  0  0  0  0  0  0  0  0  0  0  0
   56.0850   25.0570   46.4060 C   0  0  0  0  0  0  0  0  0  0  0  0
   55.3120   23.9640   46.7780 O   0  0  0  0  0  0  0  0  0  0  0  0
   55.4710   26.2470   45.9980 C   0  0  0  0  0  0  0  0  0  0  0  0
   54.0830   26.3340   45.9590 O   0  0  0  0  0  0  0  0  0  0  0  0
   56.2520   27.3500   45.6260 C   0  0  0  0  0  0  0  0  0  0  0  0
   55.6280   28.5250   45.2200 O   0  0  0  0  0  0  0  0  0  0  0  0
  1  2  1  0
  2  3  1  0
  3  4  1  0
  4  5  1  0
  5  6  2  0
  5  7  1  0
  7  8  1  0
  8  9  1  0
  8 10  1  0
  8 11  1  0
 11 12  2  0
 12 13  1  0
 12 14  1  0
 14 15  1  0
 14 16  2  0
 16 17  1  0
 16 18  1  0
 18 19  1  0
 18 20  2  0
 20 21  1  0
  7 22  1  0
 22 23  2  0
 22 24  1  0
 24 25  1  0
 25 26  1  0
 25 27  2  0
 27 28  1  0
 27 29  1  0
 29 30  2  0
 30 31  1  0
 30 32  1  0
 32 33  1  0
 32 34  2  0
 34 35  1  0
 34 36  1  0
 36 37  1  0
 36 38  2  0
 38 39  1  0
 24  3  2  0
 38 29  1  0
 20 11  1  0
M  CHG  4   4  -1  35  -1  37  -1  39  -1
M  END
>  <UniqueID>  (34) 
33

>  <SMILES>  (34) 
O=c1[n-]c(O)c(/C=C\c2ccc([O-])c([O-])c2[O-])c(=O)n1Cc1ccccc1

>  <Energy>  (34) 
59.69910719446994

>  <Genealogy>  (34) 
O=c1[n-]c(O)c(C=Cc2ccc([O-])c([O-])c2[O-])c(=O)n1Cc1ccccc1 (protonated)
O=c1[n-]c(O)c(/C=C\c2ccc([O-])c([O-])c2[O-])c(=O)n1Cc1ccccc1 (cis-trans isomerization)
O=c1[n-]c(O)c(/C=C\c2ccc([O-])c([O-])c2[O-])c(=O)n1Cc1ccccc1 (3D coordinates assigned)
O=c1[n-]c(O)c(/C=C\c2ccc([O-])c([O-])c2[O-])c(=O)n1Cc1ccccc1 (optimized conformer: 59.69910719446994 kcal/mol)

>  <smiles>  (34) 
O=c1[nH]c(O)c(C=Cc2ccc(O)c(O)c2O)c(=O)n1Cc1ccccc1

>  <score_type>  (34) 
oracle

>  <origin>  (34) 
adg

>  <m_score__min__energy>  (34) 
-18.329999999999998

>  <m_primary>  (34) 
energy

$$$$
34:0
     RDKit          3D

 46 47  0  0  0  0  0  0  0  0999 V2000
   56.9950   21.7040   43.0730 C   0  0  0  0  0  0  0  0  0  0  0  0
   56.0350   22.5990   43.8560 C   0  0  0  0  0  0  0  0  0  0  0  0
   56.2730   24.1000   43.6080 C   0  0  0  0  0  0  0  0  0  0  0  0
   56.9910   24.8380   44.7500 C   0  0  0  0  0  0  0  0  0  0  0  0
   55.8630   25.6320   45.8900 S   0  0  0  0  0  0  0  0  0  0  0  0
   56.2540   25.3050   47.3060 O   0  0  0  0  0  0  0  0  0  0  0  0
   54.4720   25.1270   45.6310 O   0  0  0  0  0  0  0  0  0  0  0  0
   55.9090   27.3490   45.6330 N   0  0  0  0  0  0  0  0  0  0  0  0
   57.2910   27.7990   45.5120 C   0  0  0  0  0  0  0  0  0  0  0  0
   57.3030   29.2010   44.9770 C   0  0  0  0  0  0  0  0  0  0  0  0
   56.6220   29.5160   43.7900 C   0  0  0  0  0  0  0  0  0  0  0  0
   56.6730   30.8120   43.2750 C   0  0  0  0  0  0  0  0  0  0  0  0
   57.4100   31.8010   43.9290 C   0  0  0  0  0  0  0  0  0  0  0  0
   58.1130   31.5020   45.1110 C   0  0  0  0  0  0  0  0  0  0  0  0
   58.9100   32.5470   45.8000 C   0  0  0  0  0  0  0  0  0  0  0  0
   58.4240   33.8630   45.9070 C   0  0  0  0  0  0  0  0  0  0  0  0
   59.1730   34.8440   46.5620 C   0  0  0  0  0  0  0  0  0  0  0  0
   60.4150   34.5250   47.1160 C   0  0  0  0  0  0  0  0  0  0  0  0
   60.9170   33.2230   47.0130 C   0  0  0  0  0  0  0  0  0  0  0  0
   62.4730   32.8170   47.7300 S   0  0  0  0  0  0  0  0  0  0  0  0
   63.7440   33.3930   46.7100 N   0  0  0  0  0  0  0  0  0  0  0  0
   62.5880   31.3260   47.8890 O   0  0  0  0  0  0  0  0  0  0  0  0
   62.5900   33.4550   49.0860 O   0  0  0  0  0  0  0  0  0  0  0  0
   60.1630   32.2370   46.3620 C   0  0  0  0  0  0  0  0  0  0  0  0
   58.0540   30.1930   45.6260 C   0  0  0  0  0  0  0  0  0  0  0  0
   57.6140   21.1270   43.7758 H   0  0  0  0  0  0  0  0  0  0  0  0
   56.4185   21.0135   42.4398 H   0  0  0  0  0  0  0  0  0  0  0  0
   57.6435   22.3274   42.4398 H   0  0  0  0  0  0  0  0  0  0  0  0
   55.0051   22.3536   43.5577 H   0  0  0  0  0  0  0  0  0  0  0  0
   56.2090   22.4110   44.9258 H   0  0  0  0  0  0  0  0  0  0  0  0
   56.8819   24.2038   42.6978 H   0  0  0  0  0  0  0  0  0  0  0  0
   55.2778   24.5603   43.5203 H   0  0  0  0  0  0  0  0  0  0  0  0
   57.5996   24.1115   45.3084 H   0  0  0  0  0  0  0  0  0  0  0  0
   57.6072   25.6272   44.2946 H   0  0  0  0  0  0  0  0  0  0  0  0
   57.7739   27.7771   46.5001 H   0  0  0  0  0  0  0  0  0  0  0  0
   57.8395   27.1352   44.8275 H   0  0  0  0  0  0  0  0  0  0  0  0
   56.0469   28.7392   43.2648 H   0  0  0  0  0  0  0  0  0  0  0  0
   56.1301   31.0554   42.3497 H   0  0  0  0  0  0  0  0  0  0  0  0
   57.4415   32.8207   43.5177 H   0  0  0  0  0  0  0  0  0  0  0  0
   57.4473   34.1215   45.4719 H   0  0  0  0  0  0  0  0  0  0  0  0
   58.7837   35.8697   46.6416 H   0  0  0  0  0  0  0  0  0  0  0  0
   60.9997   35.2991   47.6344 H   0  0  0  0  0  0  0  0  0  0  0  0
   64.5370   32.7190   46.8000 H   0  0  0  0  0  0  0  0  0  0  0  0
   63.4000   33.3240   45.7260 H   0  0  0  0  0  0  0  0  0  0  0  0
   60.5539   31.2114   46.2895 H   0  0  0  0  0  0  0  0  0  0  0  0
   58.6024   29.9453   46.5468 H   0  0  0  0  0  0  0  0  0  0  0  0
  1  2  1  0
  2  3  1  0
  3  4  1  0
  4  5  1  0
  5  6  2  0
  5  7  2  0
  5  8  1  0
  8  9  1  0
  9 10  1  0
 10 11  2  0
 11 12  1  0
 12 13  2  0
 13 14  1  0
 14 15  1  0
 15 16  2  0
 16 17  1  0
 17 18  2  0
 18 19  1  0
 19 20  1  0
 20 21  1  0
 20 22  2  0
 20 23  2  0
 19 24  2  0
 14 25  2  0
 25 10  1  0
 24 15  1  0
  1 26  1  0
  1 27  1  0
  1 28  1  0
  2 29  1  0
  2 30  1  0
  3 31  1  0
  3 32  1  0
  4 33  1  0
  4 34  1  0
  9 35  1  0
  9 36  1  0
 11 37  1  0
 12 38  1  0
 13 39  1  0
 16 40  1  0
 17 41  1  0
 18 42  1  0
 21 43  1  0
 21 44  1  0
 24 45  1  0
 25 46  1  0
M  CHG  1   8  -1
M  END
>  <UniqueID>  (35) 
34

>  <SMILES>  (35) 
CCCCS(=O)(=O)[N-]Cc1cccc(-c2cccc(S(N)(=O)=O)c2)c1

>  <Energy>  (35) 
37.847201887497924

>  <Genealogy>  (35) 
CCCCS(=O)(=O)[N-]Cc1cccc(-c2cccc(S(N)(=O)=O)c2)c1 (protonated)
CCCCS(=O)(=O)[N-]Cc1cccc(-c2cccc(S(N)(=O)=O)c2)c1 (3D coordinates assigned)
CCCCS(=O)(=O)[N-]Cc1cccc(-c2cccc(S(N)(=O)=O)c2)c1 (optimized conformer: 37.847201887497924 kcal/mol)

>  <smiles>  (35) 
CCCCS(=O)(=O)NCc1cccc(-c2cccc(S(N)(=O)=O)c2)c1

>  <score_type>  (35) 
oracle

>  <origin>  (35) 
adg

>  <m_score__min__energy>  (35) 
-11.57

>  <m_primary>  (35) 
energy

$$$$
35:0
     RDKit          3D

 42 45  0  0  0  0  0  0  0  0999 V2000
   55.4600   26.2230   46.2660 O   0  0  0  0  0  0  0  0  0  0  0  0
   56.3310   27.0520   45.8920 C   0  0  0  0  0  0  0  0  0  0  0  0
   55.9050   28.2600   45.2470 N   0  0  0  0  0  0  0  0  0  0  0  0
   56.6630   28.9870   44.2340 C   0  0  0  0  0  0  0  0  0  0  0  0
   56.9670   30.3700   44.7140 C   0  0  0  0  0  0  0  0  0  0  0  0
   58.0390   30.7440   45.5010 C   0  0  0  0  0  0  0  0  0  0  0  0
   57.8310   32.0950   45.7230 C   0  0  0  0  0  0  0  0  0  0  0  0
   58.6720   32.9910   46.5540 C   0  0  0  0  0  0  0  0  0  0  0  0
   58.8340   32.7470   47.9310 C   0  0  0  0  0  0  0  0  0  0  0  0
   59.6340   33.5890   48.7100 C   0  0  0  0  0  0  0  0  0  0  0  0
   60.2810   34.6790   48.1250 C   0  0  0  0  0  0  0  0  0  0  0  0
   60.1250   34.9330   46.7600 C   0  0  0  0  0  0  0  0  0  0  0  0
   59.3230   34.0960   45.9770 C   0  0  0  0  0  0  0  0  0  0  0  0
   56.7030   32.4650   45.0850 N   0  0  0  0  0  0  0  0  0  0  0  0
   56.2070   31.4180   44.4950 O   0  0  0  0  0  0  0  0  0  0  0  0
   57.7550   26.7510   46.1260 C   0  0  0  0  0  0  0  0  0  0  0  0
   58.7910   27.7120   47.0380 S   0  0  0  0  0  0  0  0  0  0  0  0
   60.1060   26.6700   47.0130 C   0  0  0  0  0  0  0  0  0  0  0  0
   59.7470   25.5370   46.2980 C   0  0  0  0  0  0  0  0  0  0  0  0
   58.4320   25.5680   45.7980 C   0  0  0  0  0  0  0  0  0  0  0  0
   57.8720   24.4710   44.9730 C   0  0  0  0  0  0  0  0  0  0  0  0
   57.0870   24.7520   43.8400 C   0  0  0  0  0  0  0  0  0  0  0  0
   56.5820   23.7110   43.0540 C   0  0  0  0  0  0  0  0  0  0  0  0
   56.8580   22.3830   43.3890 C   0  0  0  0  0  0  0  0  0  0  0  0
   57.6460   22.0930   44.5050 C   0  0  0  0  0  0  0  0  0  0  0  0
   58.1550   23.1310   45.2930 C   0  0  0  0  0  0  0  0  0  0  0  0
   57.6053   28.4560   44.0339 H   0  0  0  0  0  0  0  0  0  0  0  0
   56.0654   29.0489   43.3126 H   0  0  0  0  0  0  0  0  0  0  0  0
   58.8648   30.1156   45.8660 H   0  0  0  0  0  0  0  0  0  0  0  0
   58.3281   31.8886   48.3972 H   0  0  0  0  0  0  0  0  0  0  0  0
   59.7537   33.3921   49.7856 H   0  0  0  0  0  0  0  0  0  0  0  0
   60.9134   35.3376   48.7385 H   0  0  0  0  0  0  0  0  0  0  0  0
   60.6339   35.7929   46.3001 H   0  0  0  0  0  0  0  0  0  0  0  0
   59.2008   34.3034   44.9037 H   0  0  0  0  0  0  0  0  0  0  0  0
   56.2560   33.4080   45.0790 H   0  0  0  0  0  0  0  0  0  0  0  0
   61.0837   26.8537   47.4825 H   0  0  0  0  0  0  0  0  0  0  0  0
   60.4295   24.6896   46.1362 H   0  0  0  0  0  0  0  0  0  0  0  0
   56.8691   25.7960   43.5707 H   0  0  0  0  0  0  0  0  0  0  0  0
   55.9667   23.9382   42.1709 H   0  0  0  0  0  0  0  0  0  0  0  0
   56.4545   21.5655   42.7735 H   0  0  0  0  0  0  0  0  0  0  0  0
   57.8667   21.0472   44.7648 H   0  0  0  0  0  0  0  0  0  0  0  0
   58.7800   22.8978   46.1676 H   0  0  0  0  0  0  0  0  0  0  0  0
  1  2  2  0
  2  3  1  0
  3  4  1  0
  4  5  1  0
  5  6  2  0
  6  7  1  0
  7  8  1  0
  8  9  2  0
  9 10  1  0
 10 11  2  0
 11 12  1  0
 12 13  2  0
  7 14  2  0
 14 15  1  0
  2 16  1  0
 16 17  1  0
 17 18  1  0
 18 19  2  0
 19 20  1  0
 20 21  1  0
 21 22  2  0
 22 23  1  0
 23 24  2  0
 24 25  1  0
 25 26  2  0
 15  5  1  0
 20 16  2  0
 26 21  1  0
 13  8  1  0
  4 27  1  0
  4 28  1  0
  6 29  1  0
  9 30  1  0
 10 31  1  0
 11 32  1  0
 12 33  1  0
 13 34  1  0
 14 35  1  0
 18 36  1  0
 19 37  1  0
 22 38  1  0
 23 39  1  0
 24 40  1  0
 25 41  1  0
 26 42  1  0
M  CHG  2   3  -1  14   1
M  END
>  <UniqueID>  (36) 
35

>  <SMILES>  (36) 
O=C([N-]Cc1cc(-c2ccccc2)[nH+]o1)c1sccc1-c1ccccc1

>  <Energy>  (36) 
110.20814242324954

>  <Genealogy>  (36) 
O=C([N-]Cc1cc(-c2ccccc2)[nH+]o1)c1sccc1-c1ccccc1 (protonated)
O=C([N-]Cc1cc(-c2ccccc2)[nH+]o1)c1sccc1-c1ccccc1 (3D coordinates assigned)
O=C([N-]Cc1cc(-c2ccccc2)[nH+]o1)c1sccc1-c1ccccc1 (optimized conformer: 110.20814242324954 kcal/mol)

>  <smiles>  (36) 
O=C(NCc1cc(-c2ccccc2)no1)c1sccc1-c1ccccc1

>  <score_type>  (36) 
oracle

>  <origin>  (36) 
adg

>  <m_score__min__energy>  (36) 
-9.9199999999999999

>  <m_primary>  (36) 
energy

$$$$
36:0
     RDKit          3D

 48 50  0  0  0  0  0  0  0  0999 V2000
   59.0910   33.8020   51.5440 C   0  0  0  0  0  0  0  0  0  0  0  0
   59.9110   33.6940   50.2820 C   0  0  0  0  0  0  0  0  0  0  0  0
   59.2740   33.9120   49.0520 C   0  0  0  0  0  0  0  0  0  0  0  0
   59.9840   33.8520   47.8550 C   0  0  0  0  0  0  0  0  0  0  0  0
   59.2940   34.0650   46.6510 O   0  0  0  0  0  0  0  0  0  0  0  0
   58.6370   33.0730   45.9060 C   0  0  0  0  0  0  0  0  0  0  0  0
   58.0660   33.3430   44.6490 C   0  0  0  0  0  0  0  0  0  0  0  0
   57.4070   32.3310   43.9430 C   0  0  0  0  0  0  0  0  0  0  0  0
   57.2960   31.0480   44.4920 C   0  0  0  0  0  0  0  0  0  0  0  0
   56.4440   29.7870   43.6050 S   0  0  0  0  0  0  0  0  0  0  0  0
   56.2450   30.1840   42.1700 O   0  0  0  0  0  0  0  0  0  0  0  0
   55.1000   29.5750   44.2450 O   0  0  0  0  0  0  0  0  0  0  0  0
   57.3460   28.3050   43.6650 N   0  0  0  0  0  0  0  0  0  0  0  0
   57.8340   27.7140   44.8860 C   0  0  0  0  0  0  0  0  0  0  0  0
   59.2140   27.6000   45.1450 C   0  0  0  0  0  0  0  0  0  0  0  0
   59.6670   27.0280   46.3370 C   0  0  0  0  0  0  0  0  0  0  0  0
   58.7520   26.5600   47.2820 C   0  0  0  0  0  0  0  0  0  0  0  0
   57.3830   26.6590   47.0340 C   0  0  0  0  0  0  0  0  0  0  0  0
   56.9200   27.2310   45.8440 C   0  0  0  0  0  0  0  0  0  0  0  0
   55.5510   27.3220   45.6240 O   0  0  0  0  0  0  0  0  0  0  0  0
   57.8500   30.7820   45.7510 C   0  0  0  0  0  0  0  0  0  0  0  0
   58.5100   31.7930   46.4560 C   0  0  0  0  0  0  0  0  0  0  0  0
   61.3490   33.5440   47.8790 C   0  0  0  0  0  0  0  0  0  0  0  0
   62.0190   33.3270   49.0910 C   0  0  0  0  0  0  0  0  0  0  0  0
   63.7650   33.0150   49.0360 S   0  0  0  0  0  0  0  0  0  0  0  0
   64.4030   33.3820   47.4700 N   0  0  0  0  0  0  0  0  0  0  0  0
   64.0250   31.5660   49.3370 O   0  0  0  0  0  0  0  0  0  0  0  0
   64.4730   33.8770   50.0440 O   0  0  0  0  0  0  0  0  0  0  0  0
   61.2910   33.3560   50.3110 C   0  0  0  0  0  0  0  0  0  0  0  0
   61.9860   33.0890   51.6290 C   0  0  0  0  0  0  0  0  0  0  0  0
   59.7517   33.7150   52.4191 H   0  0  0  0  0  0  0  0  0  0  0  0
   58.5790   34.7753   51.5664 H   0  0  0  0  0  0  0  0  0  0  0  0
   58.3445   32.9944   51.5664 H   0  0  0  0  0  0  0  0  0  0  0  0
   58.1968   34.1339   49.0320 H   0  0  0  0  0  0  0  0  0  0  0  0
   58.1380   34.3533   44.2198 H   0  0  0  0  0  0  0  0  0  0  0  0
   56.9750   32.5439   42.9540 H   0  0  0  0  0  0  0  0  0  0  0  0
   57.4490   27.7860   42.7660 H   0  0  0  0  0  0  0  0  0  0  0  0
   59.9405   27.9639   44.4035 H   0  0  0  0  0  0  0  0  0  0  0  0
   60.7467   26.9464   46.5310 H   0  0  0  0  0  0  0  0  0  0  0  0
   59.1104   26.1136   48.2213 H   0  0  0  0  0  0  0  0  0  0  0  0
   56.6637   26.2855   47.7777 H   0  0  0  0  0  0  0  0  0  0  0  0
   57.7655   29.7752   46.1859 H   0  0  0  0  0  0  0  0  0  0  0  0
   58.9320   31.5806   47.4494 H   0  0  0  0  0  0  0  0  0  0  0  0
   61.9045   33.4711   46.9324 H   0  0  0  0  0  0  0  0  0  0  0  0
   64.5150   32.4740   46.9650 H   0  0  0  0  0  0  0  0  0  0  0  0
   61.3114   33.3482   52.4583 H   0  0  0  0  0  0  0  0  0  0  0  0
   62.2537   32.0240   51.6932 H   0  0  0  0  0  0  0  0  0  0  0  0
   62.8979   33.7008   51.6932 H   0  0  0  0  0  0  0  0  0  0  0  0
  1  2  1  0
  2  3  2  0
  3  4  1  0
  4  5  1  0
  5  6  1  0
  6  7  2  0
  7  8  1  0
  8  9  2  0
  9 10  1  0
 10 11  2  0
 10 12  2  0
 10 13  1  0
 13 14  1  0
 14 15  2  0
 15 16  1  0
 16 17  2  0
 17 18  1  0
 18 19  2  0
 19 20  1  0
  9 21  1  0
 21 22  2  0
  4 23  2  0
 23 24  1  0
 24 25  1  0
 25 26  1  0
 25 27  2  0
 25 28  2  0
 24 29  2  0
 29 30  1  0
 29  2  1  0
 22  6  1  0
 19 14  1  0
  1 31  1  0
  1 32  1  0
  1 33  1  0
  3 34  1  0
  7 35  1  0
  8 36  1  0
 13 37  1  0
 15 38  1  0
 16 39  1  0
 17 40  1  0
 18 41  1  0
 21 42  1  0
 22 43  1  0
 23 44  1  0
 26 45  1  0
 30 46  1  0
 30 47  1  0
 30 48  1  0
M  CHG  2  20  -1  26  -1
M  END
>  <UniqueID>  (37) 
36

>  <SMILES>  (37) 
Cc1cc(Oc2ccc(S(=O)(=O)Nc3ccccc3[O-])cc2)cc(S([NH-])(=O)=O)c1C

>  <Energy>  (37) 
63.7999783716402

>  <Genealogy>  (37) 
Cc1cc(Oc2ccc(S(=O)(=O)Nc3ccccc3[O-])cc2)cc(S([NH-])(=O)=O)c1C (protonated)
Cc1cc(Oc2ccc(S(=O)(=O)Nc3ccccc3[O-])cc2)cc(S([NH-])(=O)=O)c1C (3D coordinates assigned)
Cc1cc(Oc2ccc(S(=O)(=O)Nc3ccccc3[O-])cc2)cc(S([NH-])(=O)=O)c1C (optimized conformer: 63.7999783716402 kcal/mol)

>  <smiles>  (37) 
Cc1cc(Oc2ccc(S(=O)(=O)Nc3ccccc3O)cc2)cc(S(N)(=O)=O)c1C

>  <score_type>  (37) 
oracle

>  <origin>  (37) 
adg

>  <m_score__min__energy>  (37) 
-13.789999999999999

>  <m_primary>  (37) 
energy

$$$$
37:0
     RDKit          3D

 53 56  0  0  0  0  0  0  0  0999 V2000
   57.7850   28.4053   43.7569 H   0  0  0  0  0  0  0  0  0  0  0  0
   57.2200   29.0710   44.4260 C   0  0  0  0  0  0  0  0  0  0  0  0
   57.1490   30.5030   44.1190 C   0  0  0  0  0  0  0  0  0  0  0  0
   57.2090   30.8640   42.9150 O   0  0  0  0  0  0  0  0  0  0  0  0
   57.0950   31.5070   45.1390 N   0  0  0  0  0  0  0  0  0  0  0  0
   57.7780   33.0990   45.0600 S   0  0  0  0  0  0  0  0  0  0  0  0
   56.6640   34.0950   44.8990 O   0  0  0  0  0  0  0  0  0  0  0  0
   58.7080   33.2400   43.8900 O   0  0  0  0  0  0  0  0  0  0  0  0
   58.6600   33.4110   46.5500 C   0  0  0  0  0  0  0  0  0  0  0  0
   58.2590   32.7860   47.7370 C   0  0  0  0  0  0  0  0  0  0  0  0
   57.3928   32.1080   47.7334 H   0  0  0  0  0  0  0  0  0  0  0  0
   58.9550   33.0200   48.9270 C   0  0  0  0  0  0  0  0  0  0  0  0
   58.6432   32.5169   49.8542 H   0  0  0  0  0  0  0  0  0  0  0  0
   60.0470   33.8930   48.9390 C   0  0  0  0  0  0  0  0  0  0  0  0
   60.5906   34.0808   49.8767 H   0  0  0  0  0  0  0  0  0  0  0  0
   60.4480   34.5270   47.7600 C   0  0  0  0  0  0  0  0  0  0  0  0
   61.3061   35.2152   47.7704 H   0  0  0  0  0  0  0  0  0  0  0  0
   59.7590   34.2870   46.5670 C   0  0  0  0  0  0  0  0  0  0  0  0
   60.0780   34.7851   45.6395 H   0  0  0  0  0  0  0  0  0  0  0  0
   56.6140   28.5560   45.5000 C   0  0  0  0  0  0  0  0  0  0  0  0
   55.7533   29.0852   45.9350 H   0  0  0  0  0  0  0  0  0  0  0  0
   57.0720   27.2900   46.1200 C   0  0  0  0  0  0  0  0  0  0  0  0
   58.3450   27.1970   46.7310 C   0  0  0  0  0  0  0  0  0  0  0  0
   59.2940   28.3290   46.7360 C   0  0  0  0  0  0  0  0  0  0  0  0
   60.2060   28.4730   45.6810 C   0  0  0  0  0  0  0  0  0  0  0  0
   60.2025   27.7498   44.8521 H   0  0  0  0  0  0  0  0  0  0  0  0
   61.1190   29.5300   45.6770 C   0  0  0  0  0  0  0  0  0  0  0  0
   61.8299   29.6368   44.8444 H   0  0  0  0  0  0  0  0  0  0  0  0
   61.1330   30.4580   46.7330 C   0  0  0  0  0  0  0  0  0  0  0  0
   62.0320   31.5330   46.7620 O   0  0  0  0  0  0  0  0  0  0  0  0
   62.8080   31.9200   47.8670 C   0  0  0  0  0  0  0  0  0  0  0  0
   63.6910   32.9990   47.7220 C   0  0  0  0  0  0  0  0  0  0  0  0
   63.7468   33.5348   46.7630 H   0  0  0  0  0  0  0  0  0  0  0  0
   64.5010   33.3980   48.7890 C   0  0  0  0  0  0  0  0  0  0  0  0
   65.1770   34.2581   48.6739 H   0  0  0  0  0  0  0  0  0  0  0  0
   64.4530   32.7060   50.0010 C   0  0  0  0  0  0  0  0  0  0  0  0
   65.0999   33.0134   50.8359 H   0  0  0  0  0  0  0  0  0  0  0  0
   63.5840   31.6240   50.1530 C   0  0  0  0  0  0  0  0  0  0  0  0
   63.5450   31.0810   51.1088 H   0  0  0  0  0  0  0  0  0  0  0  0
   62.7640   31.2300   49.0930 C   0  0  0  0  0  0  0  0  0  0  0  0
   62.0809   30.3768   49.2170 H   0  0  0  0  0  0  0  0  0  0  0  0
   60.2570   30.2830   47.8100 C   0  0  0  0  0  0  0  0  0  0  0  0
   60.2937   30.9785   48.6614 H   0  0  0  0  0  0  0  0  0  0  0  0
   59.3350   29.2310   47.8130 C   0  0  0  0  0  0  0  0  0  0  0  0
   58.4920   29.0870   48.8650 F   0  0  0  0  0  0  0  0  0  0  0  0
   58.7590   25.9780   47.2800 C   0  0  0  0  0  0  0  0  0  0  0  0
   59.7543   25.8898   47.7401 H   0  0  0  0  0  0  0  0  0  0  0  0
   57.9070   24.8770   47.2420 C   0  0  0  0  0  0  0  0  0  0  0  0
   58.2309   23.9188   47.6743 H   0  0  0  0  0  0  0  0  0  0  0  0
   56.6790   24.9810   46.6740 N   0  0  0  0  0  0  0  0  0  0  0  0
   56.0560   24.1430   46.6650 H   0  0  0  0  0  0  0  0  0  0  0  0
   56.2410   26.1470   46.1220 C   0  0  0  0  0  0  0  0  0  0  0  0
   55.0830   26.1990   45.6280 O   0  0  0  0  0  0  0  0  0  0  0  0
  1  2  1  0
  2  3  1  0
  3  4  2  0
  3  5  1  0
  5  6  1  0
  6  7  2  0
  6  8  2  0
  6  9  1  0
  9 10  2  0
 10 11  1  0
 10 12  1  0
 12 13  1  0
 12 14  2  0
 14 15  1  0
 14 16  1  0
 16 17  1  0
 16 18  2  0
 18 19  1  0
  2 20  2  0
 20 21  1  0
 20 22  1  0
 22 23  2  0
 23 24  1  0
 24 25  2  0
 25 26  1  0
 25 27  1  0
 27 28  1  0
 27 29  2  0
 29 30  1  0
 30 31  1  0
 31 32  2  0
 32 33  1  0
 32 34  1  0
 34 35  1  0
 34 36  2  0
 36 37  1  0
 36 38  1  0
 38 39  1  0
 38 40  2  0
 40 41  1  0
 29 42  1  0
 42 43  1  0
 42 44  2  0
 44 45  1  0
 23 46  1  0
 46 47  1  0
 46 48  2  0
 48 49  1  0
 48 50  1  0
 50 51  1  0
 50 52  1  0
 52 53  2  0
 18  9  1  0
 52 22  1  0
 44 24  1  0
 40 31  1  0
M  CHG  1   5  -1
M  END
>  <UniqueID>  (38) 
37

>  <SMILES>  (38) 
O=C(/C=C/c1c(-c2ccc(Oc3ccccc3)cc2F)cc[nH]c1=O)[N-]S(=O)(=O)c1ccccc1

>  <Energy>  (38) 
83.38959794147014

>  <Genealogy>  (38) 
O=C(C=Cc1c(-c2ccc(Oc3ccccc3)cc2F)cc[nH]c1=O)[N-]S(=O)(=O)c1ccccc1 (protonated)
O=C(/C=C/c1c(-c2ccc(Oc3ccccc3)cc2F)cc[nH]c1=O)[N-]S(=O)(=O)c1ccccc1 (cis-trans isomerization)
O=C(/C=C/c1c(-c2ccc(Oc3ccccc3)cc2F)cc[nH]c1=O)[N-]S(=O)(=O)c1ccccc1 (3D coordinates assigned)
O=C(/C=C/c1c(-c2ccc(Oc3ccccc3)cc2F)cc[nH]c1=O)[N-]S(=O)(=O)c1ccccc1 (optimized conformer: 83.38959794147014 kcal/mol)

>  <smiles>  (38) 
O=C(C=Cc1c(-c2ccc(Oc3ccccc3)cc2F)cc[nH]c1=O)NS(=O)(=O)c1ccccc1

>  <score_type>  (38) 
oracle

>  <origin>  (38) 
adg

>  <m_score__min__energy>  (38) 
-11.880000000000001

>  <m_primary>  (38) 
energy

$$$$
38:0
     RDKit          3D

 30 31  0  0  0  0  0  0  0  0999 V2000
   55.7683   29.9669   42.3140 H   0  0  0  0  0  0  0  0  0  0  0  0
   56.4420   30.1500   43.1640 C   0  0  0  0  0  0  0  0  0  0  0  0
   56.2670   29.3580   44.3970 C   0  0  0  0  0  0  0  0  0  0  0  0
   55.1610   29.3570   45.0050 O   0  0  0  0  0  0  0  0  0  0  0  0
   57.3650   28.5880   44.9070 N   0  0  0  0  0  0  0  0  0  0  0  0
   58.2870   28.6240   44.4140 H   0  0  0  0  0  0  0  0  0  0  0  0
   57.2540   27.7630   46.1060 C   0  0  0  0  0  0  0  0  0  0  0  0
   58.2616   27.5001   46.4604 H   0  0  0  0  0  0  0  0  0  0  0  0
   56.7181   28.3290   46.8821 H   0  0  0  0  0  0  0  0  0  0  0  0
   56.4940   26.5100   45.8040 C   0  0  0  0  0  0  0  0  0  0  0  0
   55.2070   26.3610   46.0140 O   0  0  0  0  0  0  0  0  0  0  0  0
   54.8570   25.1580   45.6200 C   0  0  0  0  0  0  0  0  0  0  0  0
   53.8388   24.7453   45.6740 H   0  0  0  0  0  0  0  0  0  0  0  0
   55.9600   24.4900   45.1280 C   0  0  0  0  0  0  0  0  0  0  0  0
   55.9878   23.4669   44.7248 H   0  0  0  0  0  0  0  0  0  0  0  0
   57.0200   25.3640   45.2440 C   0  0  0  0  0  0  0  0  0  0  0  0
   58.0652   25.1852   44.9516 H   0  0  0  0  0  0  0  0  0  0  0  0
   57.3960   31.0860   43.0460 C   0  0  0  0  0  0  0  0  0  0  0  0
   57.8483   31.2448   42.0559 H   0  0  0  0  0  0  0  0  0  0  0  0
   57.8750   31.9190   44.1770 C   0  0  0  0  0  0  0  0  0  0  0  0
   58.4830   31.3660   45.3230 C   0  0  0  0  0  0  0  0  0  0  0  0
   58.6237   30.2775   45.3959 H   0  0  0  0  0  0  0  0  0  0  0  0
   58.9080   32.1930   46.3670 C   0  0  0  0  0  0  0  0  0  0  0  0
   59.3875   31.7540   47.2543 H   0  0  0  0  0  0  0  0  0  0  0  0
   58.7250   33.5770   46.2860 C   0  0  0  0  0  0  0  0  0  0  0  0
   59.2580   34.6120   47.5990 Cl  0  0  0  0  0  0  0  0  0  0  0  0
   58.1100   34.1340   45.1620 C   0  0  0  0  0  0  0  0  0  0  0  0
   57.9614   35.2221   45.0994 H   0  0  0  0  0  0  0  0  0  0  0  0
   57.6830   33.3090   44.1160 C   0  0  0  0  0  0  0  0  0  0  0  0
   57.1922   33.7531   43.2374 H   0  0  0  0  0  0  0  0  0  0  0  0
  1  2  1  0
  2  3  1  0
  3  4  2  0
  3  5  1  0
  5  6  1  0
  5  7  1  0
  7  8  1  0
  7  9  1  0
  7 10  1  0
 10 11  1  0
 11 12  1  0
 12 13  1  0
 12 14  2  0
 14 15  1  0
 14 16  1  0
 16 17  1  0
  2 18  2  0
 18 19  1  0
 18 20  1  0
 20 21  2  0
 21 22  1  0
 21 23  1  0
 23 24  1  0
 23 25  2  0
 25 26  1  0
 25 27  1  0
 27 28  1  0
 27 29  2  0
 29 30  1  0
 16 10  2  0
 29 20  1  0
M  END
>  <UniqueID>  (39) 
38

>  <SMILES>  (39) 
O=C(/C=C/c1ccc(Cl)cc1)NCc1ccco1

>  <Energy>  (39) 
54.25764442331948

>  <Genealogy>  (39) 
O=C(/C=C/c1ccc(Cl)cc1)NCc1ccco1 (cis-trans isomerization)
O=C(/C=C/c1ccc(Cl)cc1)NCc1ccco1 (3D coordinates assigned)
O=C(/C=C/c1ccc(Cl)cc1)NCc1ccco1 (optimized conformer: 54.25764442331948 kcal/mol)

>  <smiles>  (39) 
O=C(C=Cc1ccc(Cl)cc1)NCc1ccco1

>  <score_type>  (39) 
oracle

>  <origin>  (39) 
adg

>  <m_score__min__energy>  (39) 
-7.6900000000000004

>  <m_primary>  (39) 
energy

$$$$
39:0
     RDKit          3D

 38 39  0  0  0  0  0  0  0  0999 V2000
   57.4870   33.2400   46.9670 C   0  0  0  0  0  0  0  0  0  0  0  0
   57.9460   32.8510   48.2580 O   0  0  0  0  0  0  0  0  0  0  0  0
   59.2840   32.9270   48.6870 C   0  0  0  0  0  0  0  0  0  0  0  0
   60.2150   33.7850   48.0650 C   0  0  0  0  0  0  0  0  0  0  0  0
   61.5380   33.8350   48.5100 C   0  0  0  0  0  0  0  0  0  0  0  0
   61.9440   33.0500   49.5890 C   0  0  0  0  0  0  0  0  0  0  0  0
   61.0310   32.2050   50.2230 C   0  0  0  0  0  0  0  0  0  0  0  0
   59.7030   32.1240   49.7690 C   0  0  0  0  0  0  0  0  0  0  0  0
   58.7300   31.1930   50.4660 C   0  0  0  0  0  0  0  0  0  0  0  0
   57.5250   31.8950   50.9290 N   0  0  0  0  0  0  0  0  0  0  0  0
   56.6350   31.0060   51.6250 C   0  0  0  0  0  0  0  0  0  0  0  0
   57.0780   29.9180   52.0840 O   0  0  0  0  0  0  0  0  0  0  0  0
   55.2630   31.3790   51.8320 N   0  0  0  0  0  0  0  0  0  0  0  0
   54.2710   30.5160   52.4070 C   0  0  0  0  0  0  0  0  0  0  0  0
   54.5580   29.3330   52.7350 O   0  0  0  0  0  0  0  0  0  0  0  0
   52.8770   31.0160   52.6180 C   0  0  0  0  0  0  0  0  0  0  0  0
   52.1580   31.1270   51.3110 C   0  0  0  0  0  0  0  0  0  0  0  0
   52.1510   30.1620   50.3200 C   0  0  0  0  0  0  0  0  0  0  0  0
   51.3940   30.6770   49.2920 C   0  0  0  0  0  0  0  0  0  0  0  0
   50.9960   31.9270   49.7110 C   0  0  0  0  0  0  0  0  0  0  0  0
   50.2120   32.7980   48.9670 O   0  0  0  0  0  0  0  0  0  0  0  0
   51.4580   32.2190   50.9420 N   0  0  0  0  0  0  0  0  0  0  0  0
   56.6517   33.9479   47.0727 H   0  0  0  0  0  0  0  0  0  0  0  0
   58.3081   33.7214   46.4156 H   0  0  0  0  0  0  0  0  0  0  0  0
   57.1467   32.3511   46.4156 H   0  0  0  0  0  0  0  0  0  0  0  0
   59.8970   34.4188   47.2241 H   0  0  0  0  0  0  0  0  0  0  0  0
   62.2612   34.4948   48.0084 H   0  0  0  0  0  0  0  0  0  0  0  0
   62.9851   33.0967   49.9411 H   0  0  0  0  0  0  0  0  0  0  0  0
   61.3528   31.5991   51.0828 H   0  0  0  0  0  0  0  0  0  0  0  0
   58.4309   30.4020   49.7626 H   0  0  0  0  0  0  0  0  0  0  0  0
   59.2365   30.7739   51.3479 H   0  0  0  0  0  0  0  0  0  0  0  0
   57.7810   32.6970   51.5480 H   0  0  0  0  0  0  0  0  0  0  0  0
   57.0260   32.2860   50.0960 H   0  0  0  0  0  0  0  0  0  0  0  0
   54.9660   32.3350   51.5330 H   0  0  0  0  0  0  0  0  0  0  0  0
   52.3358   30.3153   53.2707 H   0  0  0  0  0  0  0  0  0  0  0  0
   52.9222   32.0108   53.0853 H   0  0  0  0  0  0  0  0  0  0  0  0
   52.6493   29.1817   50.3477 H   0  0  0  0  0  0  0  0  0  0  0  0
   51.1563   30.1908   48.3343 H   0  0  0  0  0  0  0  0  0  0  0  0
  1  2  1  0
  2  3  1  0
  3  4  2  0
  4  5  1  0
  5  6  2  0
  6  7  1  0
  7  8  2  0
  8  9  1  0
  9 10  1  0
 10 11  1  0
 11 12  2  0
 11 13  1  0
 13 14  1  0
 14 15  2  0
 14 16  1  0
 16 17  1  0
 17 18  2  0
 18 19  1  0
 19 20  2  0
 20 21  1  0
 20 22  1  0
  8  3  1  0
 22 17  1  0
  1 23  1  0
  1 24  1  0
  1 25  1  0
  4 26  1  0
  5 27  1  0
  6 28  1  0
  7 29  1  0
  9 30  1  0
  9 31  1  0
 10 32  1  0
 10 33  1  0
 13 34  1  0
 16 35  1  0
 16 36  1  0
 18 37  1  0
 19 38  1  0
M  CHG  3  10   1  21  -1  22  -1
M  END
>  <UniqueID>  (40) 
39

>  <SMILES>  (40) 
COc1ccccc1C[NH2+]C(=O)NC(=O)Cc1ccc([O-])[n-]1

>  <Energy>  (40) 
56.75985792374621

>  <Genealogy>  (40) 
COc1ccccc1C[NH2+]C(=O)NC(=O)Cc1ccc([O-])[n-]1 (protonated)
COc1ccccc1C[NH2+]C(=O)NC(=O)Cc1ccc([O-])[n-]1 (3D coordinates assigned)
COc1ccccc1C[NH2+]C(=O)NC(=O)Cc1ccc([O-])[n-]1 (optimized conformer: 56.75985792374621 kcal/mol)

>  <smiles>  (40) 
COc1ccccc1CNC(=O)NC(=O)Cc1ccc(O)[nH]1

>  <score_type>  (40) 
oracle

>  <origin>  (40) 
adg

>  <m_score__min__energy>  (40) 
-12.27

>  <m_primary>  (40) 
energy

$$$$
40:0
     RDKit          3D

 41 43  0  0  1  0  0  0  0  0999 V2000
   53.2950   25.1250   45.5030 N   0  0  0  0  0  0  0  0  0  0  0  0
   53.7240   23.8440   45.0560 C   0  0  0  0  0  0  0  0  0  0  0  0
   53.0070   22.8480   45.3250 O   0  0  0  0  0  0  0  0  0  0  0  0
   54.9660   23.7130   44.3070 C   0  0  0  0  0  0  0  0  0  0  0  0
   55.1640   23.1640   43.0800 N   0  0  0  0  0  0  0  0  0  0  0  0
   56.4480   23.2390   42.7460 N   0  0  0  0  0  0  0  0  0  0  0  0
   57.0950   23.8360   43.7510 N   0  0  0  0  0  0  0  0  0  0  0  0
   56.2190   24.1410   44.7250 C   0  0  0  0  0  0  0  0  0  0  0  0
   56.4040   24.7160   45.8630 N   0  0  0  0  0  0  0  0  0  0  0  0
   56.2540   26.1220   45.9320 C   0  0  0  0  0  0  0  0  0  0  0  0
   55.1560   26.7140   46.0540 O   0  0  0  0  0  0  0  0  0  0  0  0
   57.4740   26.9470   45.8550 C   0  0  0  0  0  0  0  0  0  0  0  0
   58.5760   26.5810   46.6030 C   0  0  0  0  0  0  0  0  0  0  0  0
   59.7150   27.3560   46.5320 C   0  0  0  0  0  0  0  0  0  0  0  0
   59.7440   28.4750   45.7250 C   0  0  0  0  0  0  0  0  0  0  0  0
   58.6750   28.8650   44.9740 C   0  0  0  0  0  0  0  0  0  0  0  0
   58.6040   29.9890   44.1320 N   0  0  0  0  0  0  0  0  0  0  0  0
   57.5550   31.3140   44.2660 S   0  0  0  0  0  0  0  0  0  0  0  0
   57.2460   31.8230   42.8600 O   0  0  0  0  0  0  0  0  0  0  0  0
   56.2020   30.8830   44.8170 O   0  0  0  0  0  0  0  0  0  0  0  0
   58.1720   32.6270   45.2330 C   0  0  0  0  0  0  0  0  0  0  0  0
   58.6760   33.7970   44.7070 C   0  0  0  0  0  0  0  0  0  0  0  0
   59.1410   34.7670   45.5680 C   0  0  0  0  0  0  0  0  0  0  0  0
   59.0990   34.5680   46.9370 C   0  0  0  0  0  0  0  0  0  0  0  0
   58.6000   33.4080   47.4920 C   0  0  0  0  0  0  0  0  0  0  0  0
   58.1390   32.4450   46.6190 C   0  0  0  0  0  0  0  0  0  0  0  0
   57.5290   28.0710   45.0560 C   0  0  0  0  0  0  0  0  0  0  0  0
   52.5420   25.6320   44.9910 H   0  0  0  0  0  0  0  0  0  0  0  0
   53.7580   25.5160   46.3440 H   0  0  0  0  0  0  0  0  0  0  0  0
   56.8380   22.8810   41.8460 H   0  0  0  0  0  0  0  0  0  0  0  0
   58.1080   24.0290   43.7670 H   0  0  0  0  0  0  0  0  0  0  0  0
   58.5459   25.6875   47.2439 H   0  0  0  0  0  0  0  0  0  0  0  0
   60.6028   27.0812   47.1205 H   0  0  0  0  0  0  0  0  0  0  0  0
   60.6649   29.0754   45.6861 H   0  0  0  0  0  0  0  0  0  0  0  0
   59.2960   29.9940   43.3180 H   0  0  0  0  0  0  0  0  0  0  0  0
   58.7065   33.9537   43.6186 H   0  0  0  0  0  0  0  0  0  0  0  0
   59.5483   35.7058   45.1646 H   0  0  0  0  0  0  0  0  0  0  0  0
   59.4750   35.3589   47.6027 H   0  0  0  0  0  0  0  0  0  0  0  0
   58.5711   33.2579   48.5813 H   0  0  0  0  0  0  0  0  0  0  0  0
   57.7336   31.5064   47.0248 H   0  0  0  0  0  0  0  0  0  0  0  0
   56.6435   28.3499   44.4660 H   0  0  0  0  0  0  0  0  0  0  0  0
  1  2  1  0
  2  3  2  0
  2  4  1  0
  4  5  2  0
  5  6  1  0
  6  7  1  0
  7  8  1  0
  8  9  2  0
  9 10  1  0
 10 11  2  0
 10 12  1  0
 12 13  2  0
 13 14  1  0
 14 15  2  0
 15 16  1  0
 16 17  1  0
 17 18  1  0
 18 19  2  0
 18 20  2  0
 18 21  1  0
 21 22  2  0
 22 23  1  0
 23 24  2  0
 24 25  1  0
 25 26  2  0
 16 27  2  0
  8  4  1  0
 27 12  1  0
 26 21  1  0
  1 28  1  0
  1 29  1  0
  6 30  1  0
  7 31  1  0
 13 32  1  0
 14 33  1  0
 15 34  1  0
 17 35  1  0
 22 36  1  0
 23 37  1  0
 24 38  1  0
 25 39  1  0
 26 40  1  0
 27 41  1  0
M  END
>  <smiles>  (41) 
NC(=O)c1n[nH][nH]c1=NC(=O)c1cccc(NS(=O)(=O)c2ccccc2)c1

>  <score_type>  (41) 
oracle

>  <origin>  (41) 
adg

>  <m_score__min__energy>  (41) 
-11.130000000000001

>  <m_primary>  (41) 
energy

$$$$
41:0
     RDKit          3D

 43 45  0  0  0  0  0  0  0  0999 V2000
   56.2010   30.5860   44.7880 O   0  0  0  0  0  0  0  0  0  0  0  0
   56.9670   29.6820   45.2160 C   0  0  0  0  0  0  0  0  0  0  0  0
   57.9380   29.9920   46.3220 C   0  0  0  0  0  0  0  0  0  0  0  0
   59.1250   29.1100   46.2880 N   0  0  1  0  0  0  0  0  0  0  0  0
   60.3170   29.7770   45.7080 C   0  0  0  0  0  0  0  0  0  0  0  0
   60.7580   31.0320   46.4330 C   0  0  0  0  0  0  0  0  0  0  0  0
   61.9140   31.0350   47.2330 C   0  0  0  0  0  0  0  0  0  0  0  0
   62.3070   32.1970   47.9060 C   0  0  0  0  0  0  0  0  0  0  0  0
   61.5360   33.3570   47.8080 C   0  0  0  0  0  0  0  0  0  0  0  0
   60.3630   33.3530   47.0500 C   0  0  0  0  0  0  0  0  0  0  0  0
   59.9700   32.1960   46.3720 C   0  0  0  0  0  0  0  0  0  0  0  0
   59.4610   28.3570   47.8410 S   0  0  0  0  0  0  0  0  0  0  0  0
   60.6500   27.4470   47.6940 O   0  0  0  0  0  0  0  0  0  0  0  0
   58.2870   27.5130   48.2510 O   0  0  0  0  0  0  0  0  0  0  0  0
   59.7930   29.5000   49.1430 C   0  0  0  0  0  0  0  0  0  0  0  0
   60.7460   29.3320   50.1390 C   0  0  0  0  0  0  0  0  0  0  0  0
   60.7280   30.3500   51.1000 C   0  0  0  0  0  0  0  0  0  0  0  0
   59.7410   31.3020   50.8820 C   0  0  0  0  0  0  0  0  0  0  0  0
   58.8920   30.8740   49.4970 S   0  0  0  0  0  0  0  0  0  0  0  0
   56.8310   28.3320   44.7520 N   0  0  0  0  0  0  0  0  0  0  0  0
   57.1070   27.2160   45.3690 C   0  0  0  0  0  0  0  0  0  0  0  0
   58.3990   26.7860   45.3440 N   0  0  0  0  0  0  0  0  0  0  0  0
   58.8060   25.6460   45.9630 C   0  0  0  0  0  0  0  0  0  0  0  0
   57.8870   24.8630   46.6550 C   0  0  0  0  0  0  0  0  0  0  0  0
   56.5480   25.2480   46.6810 C   0  0  0  0  0  0  0  0  0  0  0  0
   56.1370   26.4140   46.0270 C   0  0  0  0  0  0  0  0  0  0  0  0
   54.7810   26.7110   46.0000 O   0  0  0  0  0  0  0  0  0  0  0  0
   58.2695   31.0359   46.2199 H   0  0  0  0  0  0  0  0  0  0  0  0
   57.4225   29.8270   47.2796 H   0  0  0  0  0  0  0  0  0  0  0  0
   58.9080   28.3200   45.6340 H   0  0  0  0  0  0  0  0  0  0  0  0
   61.1518   29.0609   45.7245 H   0  0  0  0  0  0  0  0  0  0  0  0
   60.0335   30.0895   44.6921 H   0  0  0  0  0  0  0  0  0  0  0  0
   62.5134   30.1178   47.3305 H   0  0  0  0  0  0  0  0  0  0  0  0
   63.2244   32.1967   48.5130 H   0  0  0  0  0  0  0  0  0  0  0  0
   61.8523   34.2735   48.3275 H   0  0  0  0  0  0  0  0  0  0  0  0
   59.7473   34.2623   46.9866 H   0  0  0  0  0  0  0  0  0  0  0  0
   59.0386   32.1953   45.7868 H   0  0  0  0  0  0  0  0  0  0  0  0
   61.4454   28.4835   50.1698 H   0  0  0  0  0  0  0  0  0  0  0  0
   61.4288   30.3917   51.9468 H   0  0  0  0  0  0  0  0  0  0  0  0
   59.5481   32.1851   51.5088 H   0  0  0  0  0  0  0  0  0  0  0  0
   59.8623   25.3424   45.9168 H   0  0  0  0  0  0  0  0  0  0  0  0
   58.2138   23.9507   47.1755 H   0  0  0  0  0  0  0  0  0  0  0  0
   55.8113   24.6324   47.2180 H   0  0  0  0  0  0  0  0  0  0  0  0
  1  2  2  0
  2  3  1  0
  3  4  1  0
  4  5  1  0
  5  6  1  0
  6  7  2  0
  7  8  1  0
  8  9  2  0
  9 10  1  0
 10 11  2  0
  4 12  1  0
 12 13  2  0
 12 14  2  0
 12 15  1  0
 15 16  2  0
 16 17  1  0
 17 18  2  0
 18 19  1  0
  2 20  1  0
 20 21  2  3
 21 22  1  0
 22 23  1  0
 23 24  2  0
 24 25  1  0
 25 26  2  0
 26 27  1  0
 11  6  1  0
 19 15  1  0
 26 21  1  0
  3 28  1  0
  3 29  1  0
  4 30  1  6
  5 31  1  0
  5 32  1  0
  7 33  1  0
  8 34  1  0
  9 35  1  0
 10 36  1  0
 11 37  1  0
 16 38  1  0
 17 39  1  0
 18 40  1  0
 23 41  1  0
 24 42  1  0
 25 43  1  0
M  CHG  3   4   1  22  -1  27  -1
M  END
>  <UniqueID>  (42) 
40

>  <SMILES>  (42) 
O=C(C[N@@H+](Cc1ccccc1)S(=O)(=O)c1cccs1)N=c1[n-]cccc1[O-]

>  <Energy>  (42) 
86.60643406460932

>  <Genealogy>  (42) 
O=C(C[NH+](Cc1ccccc1)S(=O)(=O)c1cccs1)N=c1[n-]cccc1[O-] (protonated)
O=C(C[N@@H+](Cc1ccccc1)S(=O)(=O)c1cccs1)N=c1[n-]cccc1[O-] (chirality)
O=C(C[N@@H+](Cc1ccccc1)S(=O)(=O)c1cccs1)N=c1[n-]cccc1[O-] (3D coordinates assigned)
O=C(C[N@@H+](Cc1ccccc1)S(=O)(=O)c1cccs1)N=c1[n-]cccc1[O-] (optimized conformer: 86.60643406460932 kcal/mol)

>  <smiles>  (42) 
O=C(CN(Cc1ccccc1)S(=O)(=O)c1cccs1)N=c1[nH]cccc1O

>  <score_type>  (42) 
oracle

>  <origin>  (42) 
adg

>  <m_score__min__energy>  (42) 
-12.1

>  <m_primary>  (42) 
energy

$$$$
42:0
     RDKit          3D

 29 30  0  0  0  0  0  0  0  0999 V2000
   56.3200   30.7280   44.8360 O   0  0  0  0  0  0  0  0  0  0  0  0
   57.3550   30.6410   44.1220 C   0  0  0  0  0  0  0  0  0  0  0  0
   57.7390   31.7990   43.2490 C   0  0  0  0  0  0  0  0  0  0  0  0
   57.4100   33.0370   43.8790 O   0  0  0  0  0  0  0  0  0  0  0  0
   58.0710   33.5810   44.9940 C   0  0  0  0  0  0  0  0  0  0  0  0
   57.7500   33.0820   46.2630 C   0  0  0  0  0  0  0  0  0  0  0  0
   58.3750   33.5910   47.4050 C   0  0  0  0  0  0  0  0  0  0  0  0
   59.3310   34.6030   47.2870 C   0  0  0  0  0  0  0  0  0  0  0  0
   59.6620   35.1060   46.0270 C   0  0  0  0  0  0  0  0  0  0  0  0
   59.0390   34.6000   44.8820 C   0  0  0  0  0  0  0  0  0  0  0  0
   58.1520   29.4450   44.1290 N   0  0  0  0  0  0  0  0  0  0  0  0
   57.9460   28.3460   45.0340 C   0  0  0  0  0  0  0  0  0  0  0  0
   59.0210   27.7140   45.6790 C   0  0  0  0  0  0  0  0  0  0  0  0
   58.7740   26.6350   46.5310 C   0  0  0  0  0  0  0  0  0  0  0  0
   57.5040   26.1910   46.7210 N   0  0  0  0  0  0  0  0  0  0  0  0
   56.4460   26.7700   46.0950 C   0  0  0  0  0  0  0  0  0  0  0  0
   55.2830   26.3290   46.2920 O   0  0  0  0  0  0  0  0  0  0  0  0
   56.6490   27.8530   45.2340 C   0  0  0  0  0  0  0  0  0  0  0  0
   58.8224   31.7661   43.0614 H   0  0  0  0  0  0  0  0  0  0  0  0
   57.1851   31.7263   42.3014 H   0  0  0  0  0  0  0  0  0  0  0  0
   57.0001   32.2833   46.3616 H   0  0  0  0  0  0  0  0  0  0  0  0
   58.1140   33.1945   48.3973 H   0  0  0  0  0  0  0  0  0  0  0  0
   59.8226   35.0033   48.1859 H   0  0  0  0  0  0  0  0  0  0  0  0
   60.4150   35.9026   45.9350 H   0  0  0  0  0  0  0  0  0  0  0  0
   59.3047   34.9979   43.8915 H   0  0  0  0  0  0  0  0  0  0  0  0
   58.8580   29.3230   43.3690 H   0  0  0  0  0  0  0  0  0  0  0  0
   60.0501   28.0659   45.5146 H   0  0  0  0  0  0  0  0  0  0  0  0
   59.6102   26.1433   47.0497 H   0  0  0  0  0  0  0  0  0  0  0  0
   55.7956   28.3156   44.7165 H   0  0  0  0  0  0  0  0  0  0  0  0
  1  2  2  0
  2  3  1  0
  3  4  1  0
  4  5  1  0
  5  6  2  0
  6  7  1  0
  7  8  2  0
  8  9  1  0
  9 10  2  0
  2 11  1  0
 11 12  1  0
 12 13  1  0
 13 14  2  0
 14 15  1  0
 15 16  1  0
 16 17  2  0
 16 18  1  0
 10  5  1  0
 18 12  2  0
  3 19  1  0
  3 20  1  0
  6 21  1  0
  7 22  1  0
  8 23  1  0
  9 24  1  0
 10 25  1  0
 11 26  1  0
 13 27  1  0
 14 28  1  0
 18 29  1  0
M  CHG  1  15  -1
M  END
>  <UniqueID>  (43) 
41

>  <SMILES>  (43) 
O=C(COc1ccccc1)Nc1cc[n-]c(=O)c1

>  <Energy>  (43) 
33.222457900114065

>  <Genealogy>  (43) 
O=C(COc1ccccc1)Nc1cc[n-]c(=O)c1 (protonated)
O=C(COc1ccccc1)Nc1cc[n-]c(=O)c1 (3D coordinates assigned)
O=C(COc1ccccc1)Nc1cc[n-]c(=O)c1 (optimized conformer: 33.222457900114065 kcal/mol)

>  <smiles>  (43) 
O=C(COc1ccccc1)Nc1cc[nH]c(=O)c1

>  <score_type>  (43) 
oracle

>  <origin>  (43) 
adg

>  <m_score__min__energy>  (43) 
-9.1699999999999999

>  <m_primary>  (43) 
energy

$$$$
43:0
     RDKit          3D

 52 55  0  0  0  0  0  0  0  0999 V2000
   61.4530   30.3090   50.8930 H   0  0  0  0  0  0  0  0  0  0  0  0
   62.3550   30.6840   50.6300 O   0  0  0  0  0  0  0  0  0  0  0  0
   62.5070   31.8390   49.8600 C   0  0  0  0  0  0  0  0  0  0  0  0
   63.6010   31.9130   48.9910 C   0  0  0  0  0  0  0  0  0  0  0  0
   64.3108   31.0745   48.9357 H   0  0  0  0  0  0  0  0  0  0  0  0
   63.8000   33.0420   48.1930 C   0  0  0  0  0  0  0  0  0  0  0  0
   64.6605   33.0876   47.5093 H   0  0  0  0  0  0  0  0  0  0  0  0
   62.9080   34.1110   48.2630 C   0  0  0  0  0  0  0  0  0  0  0  0
   63.0643   34.9993   47.6333 H   0  0  0  0  0  0  0  0  0  0  0  0
   61.8160   34.0550   49.1320 C   0  0  0  0  0  0  0  0  0  0  0  0
   61.1211   34.9058   49.1887 H   0  0  0  0  0  0  0  0  0  0  0  0
   61.5960   32.9220   49.9350 C   0  0  0  0  0  0  0  0  0  0  0  0
   60.3930   32.8880   50.8460 C   0  0  0  0  0  0  0  0  0  0  0  0
   59.5283   33.3084   50.3116 H   0  0  0  0  0  0  0  0  0  0  0  0
   60.6244   33.4792   51.7443 H   0  0  0  0  0  0  0  0  0  0  0  0
   60.0740   31.5210   51.2660 N   0  0  0  0  0  0  0  0  0  0  0  0
   59.1880   30.6610   50.0370 S   0  0  0  0  0  0  0  0  0  0  0  0
   59.8620   29.3440   49.7790 O   0  0  0  0  0  0  0  0  0  0  0  0
   57.7800   30.3970   50.4980 O   0  0  0  0  0  0  0  0  0  0  0  0
   59.1830   31.5940   48.5440 C   0  0  0  0  0  0  0  0  0  0  0  0
   58.1640   32.5270   48.3160 C   0  0  0  0  0  0  0  0  0  0  0  0
   57.3825   32.6802   49.0748 H   0  0  0  0  0  0  0  0  0  0  0  0
   58.1350   33.2640   47.1300 C   0  0  0  0  0  0  0  0  0  0  0  0
   57.3334   33.9981   46.9610 H   0  0  0  0  0  0  0  0  0  0  0  0
   59.1250   33.0720   46.1520 C   0  0  0  0  0  0  0  0  0  0  0  0
   59.0750   33.8370   44.8540 C   0  0  0  0  0  0  0  0  0  0  0  0
   58.6945   34.8504   45.0496 H   0  0  0  0  0  0  0  0  0  0  0  0
   60.0913   33.8774   44.4350 H   0  0  0  0  0  0  0  0  0  0  0  0
   58.1600   33.1480   43.8380 C   0  0  0  0  0  0  0  0  0  0  0  0
   57.1103   33.3697   44.0807 H   0  0  0  0  0  0  0  0  0  0  0  0
   58.3894   33.5186   42.8281 H   0  0  0  0  0  0  0  0  0  0  0  0
   58.3760   31.7070   43.8870 N   0  0  0  0  0  0  0  0  0  0  0  0
   57.5860   30.6990   44.1590 C   0  0  0  0  0  0  0  0  0  0  0  0
   56.2600   30.8500   43.7300 C   0  0  0  0  0  0  0  0  0  0  0  0
   55.9900   31.7054   43.0933 H   0  0  0  0  0  0  0  0  0  0  0  0
   55.2820   29.9340   44.0980 C   0  0  0  0  0  0  0  0  0  0  0  0
   54.2453   30.0697   43.7562 H   0  0  0  0  0  0  0  0  0  0  0  0
   55.6040   28.8760   44.8760 N   0  0  0  0  0  0  0  0  0  0  0  0
   56.8750   28.6450   45.2900 C   0  0  0  0  0  0  0  0  0  0  0  0
   57.1270   27.5170   46.0770 C   0  0  0  0  0  0  0  0  0  0  0  0
   56.2941   26.8673   46.3838 H   0  0  0  0  0  0  0  0  0  0  0  0
   58.4270   27.2110   46.4750 C   0  0  0  0  0  0  0  0  0  0  0  0
   58.7340   25.7910   47.4570 Cl  0  0  0  0  0  0  0  0  0  0  0  0
   59.4830   28.0180   46.0630 C   0  0  0  0  0  0  0  0  0  0  0  0
   60.5116   27.7624   46.3572 H   0  0  0  0  0  0  0  0  0  0  0  0
   59.2480   29.1500   45.2790 C   0  0  0  0  0  0  0  0  0  0  0  0
   60.0988   29.7595   44.9403 H   0  0  0  0  0  0  0  0  0  0  0  0
   57.9330   29.5260   44.9130 C   0  0  0  0  0  0  0  0  0  0  0  0
   60.1370   32.1250   46.3770 C   0  0  0  0  0  0  0  0  0  0  0  0
   60.9059   31.9534   45.6093 H   0  0  0  0  0  0  0  0  0  0  0  0
   60.1730   31.3990   47.5710 C   0  0  0  0  0  0  0  0  0  0  0  0
   60.9802   30.6729   47.7475 H   0  0  0  0  0  0  0  0  0  0  0  0
  1  2  1  0
  2  3  1  0
  3  4  2  0
  4  5  1  0
  4  6  1  0
  6  7  1  0
  6  8  2  0
  8  9  1  0
  8 10  1  0
 10 11  1  0
 10 12  2  0
 12 13  1  0
 13 14  1  0
 13 15  1  0
 13 16  1  0
 16 17  1  0
 17 18  2  0
 17 19  2  0
 17 20  1  0
 20 21  2  0
 21 22  1  0
 21 23  1  0
 23 24  1  0
 23 25  2  0
 25 26  1  0
 26 27  1  0
 26 28  1  0
 26 29  1  0
 29 30  1  0
 29 31  1  0
 29 32  1  0
 32 33  2  0
 33 34  1  0
 34 35  1  0
 34 36  2  0
 36 37  1  0
 36 38  1  0
 38 39  1  0
 39 40  2  0
 40 41  1  0
 40 42  1  0
 42 43  1  0
 42 44  2  0
 44 45  1  0
 44 46  1  0
 46 47  1  0
 46 48  2  0
 25 49  1  0
 49 50  1  0
 49 51  2  0
 51 52  1  0
 12  3  1  0
 51 20  1  0
 48 33  1  0
 48 39  1  0
M  CHG  2  16  -1  38  -1
M  END
>  <UniqueID>  (44) 
42

>  <SMILES>  (44) 
O=S(=O)([N-]Cc1ccccc1O)c1ccc(CC/N=c2/cc[n-]c3cc(Cl)ccc23)cc1

>  <Energy>  (44) 
64.87671194766259

>  <Genealogy>  (44) 
O=S(=O)([N-]Cc1ccccc1O)c1ccc(CCN=c2cc[n-]c3cc(Cl)ccc23)cc1 (protonated)
O=S(=O)([N-]Cc1ccccc1O)c1ccc(CC/N=c2/cc[n-]c3cc(Cl)ccc23)cc1 (cis-trans isomerization)
O=S(=O)([N-]Cc1ccccc1O)c1ccc(CC/N=c2/cc[n-]c3cc(Cl)ccc23)cc1 (3D coordinates assigned)
O=S(=O)([N-]Cc1ccccc1O)c1ccc(CC/N=c2/cc[n-]c3cc(Cl)ccc23)cc1 (optimized conformer: 64.87671194766259 kcal/mol)

>  <smiles>  (44) 
O=S(=O)(NCc1ccccc1O)c1ccc(CCN=c2cc[nH]c3cc(Cl)ccc23)cc1

>  <score_type>  (44) 
oracle

>  <origin>  (44) 
adg

>  <m_score__min__energy>  (44) 
-11.57

>  <m_primary>  (44) 
energy

$$$$
44:0
     RDKit          3D

 40 41  0  0  0  0  0  0  0  0999 V2000
   60.6800   27.0370   48.5040 C   0  0  0  0  0  0  0  0  0  0  0  0
   60.4160   27.6910   47.1500 C   0  0  0  0  0  0  0  0  0  0  0  0
   59.3830   28.7330   47.2590 N   0  0  0  0  0  0  0  0  0  0  0  0
   59.3070   29.4880   48.4790 C   0  0  0  0  0  0  0  0  0  0  0  0
   58.4840   29.1540   49.3710 O   0  0  0  0  0  0  0  0  0  0  0  0
   60.2470   30.6330   48.7360 C   0  0  0  0  0  0  0  0  0  0  0  0
   59.5170   31.8890   48.9200 N   0  0  0  0  0  0  0  0  0  0  0  0
   59.3270   32.8790   47.8900 C   0  0  0  0  0  0  0  0  0  0  0  0
   60.2430   33.9370   47.7810 C   0  0  0  0  0  0  0  0  0  0  0  0
   60.1230   34.8760   46.7550 C   0  0  0  0  0  0  0  0  0  0  0  0
   59.0910   34.7670   45.8210 C   0  0  0  0  0  0  0  0  0  0  0  0
   58.1690   33.7150   45.9080 C   0  0  0  0  0  0  0  0  0  0  0  0
   57.0520   33.6090   44.9130 C   0  0  0  0  0  0  0  0  0  0  0  0
   58.2730   32.7900   46.9600 C   0  0  0  0  0  0  0  0  0  0  0  0
   58.6180   29.1720   46.1130 C   0  0  0  0  0  0  0  0  0  0  0  0
   59.2030   29.9860   45.1220 C   0  0  0  0  0  0  0  0  0  0  0  0
   58.4390   30.4680   44.0570 C   0  0  0  0  0  0  0  0  0  0  0  0
   57.0850   30.1450   43.9620 C   0  0  0  0  0  0  0  0  0  0  0  0
   56.4910   29.3330   44.9310 C   0  0  0  0  0  0  0  0  0  0  0  0
   55.1430   29.0130   44.8370 O   0  0  0  0  0  0  0  0  0  0  0  0
   57.2520   28.8480   45.9990 C   0  0  0  0  0  0  0  0  0  0  0  0
   60.3991   27.7329   49.3083 H   0  0  0  0  0  0  0  0  0  0  0  0
   60.0827   26.1173   48.5896 H   0  0  0  0  0  0  0  0  0  0  0  0
   61.7484   26.7897   48.5896 H   0  0  0  0  0  0  0  0  0  0  0  0
   61.3478   28.1456   46.7825 H   0  0  0  0  0  0  0  0  0  0  0  0
   60.0617   26.9187   46.4514 H   0  0  0  0  0  0  0  0  0  0  0  0
   60.8302   30.4210   49.6443 H   0  0  0  0  0  0  0  0  0  0  0  0
   60.9097   30.7408   47.8647 H   0  0  0  0  0  0  0  0  0  0  0  0
   59.1660   32.0990   49.8830 H   0  0  0  0  0  0  0  0  0  0  0  0
   61.0619   34.0269   48.5099 H   0  0  0  0  0  0  0  0  0  0  0  0
   60.8435   35.7040   46.6822 H   0  0  0  0  0  0  0  0  0  0  0  0
   59.0012   35.5092   45.0141 H   0  0  0  0  0  0  0  0  0  0  0  0
   56.0939   33.5181   45.4457 H   0  0  0  0  0  0  0  0  0  0  0  0
   57.0366   34.5097   44.2817 H   0  0  0  0  0  0  0  0  0  0  0  0
   57.2062   32.7215   44.2817 H   0  0  0  0  0  0  0  0  0  0  0  0
   57.5250   31.9895   47.0583 H   0  0  0  0  0  0  0  0  0  0  0  0
   60.2703   30.2437   45.1881 H   0  0  0  0  0  0  0  0  0  0  0  0
   58.9061   31.1042   43.2908 H   0  0  0  0  0  0  0  0  0  0  0  0
   56.4853   30.5298   43.1240 H   0  0  0  0  0  0  0  0  0  0  0  0
   56.7792   28.2070   46.7577 H   0  0  0  0  0  0  0  0  0  0  0  0
  1  2  1  0
  2  3  1  0
  3  4  1  0
  4  5  2  0
  4  6  1  0
  6  7  1  0
  7  8  1  0
  8  9  2  0
  9 10  1  0
 10 11  2  0
 11 12  1  0
 12 13  1  0
 12 14  2  0
  3 15  1  0
 15 16  2  0
 16 17  1  0
 17 18  2  0
 18 19  1  0
 19 20  1  0
 19 21  2  0
 14  8  1  0
 21 15  1  0
  1 22  1  0
  1 23  1  0
  1 24  1  0
  2 25  1  0
  2 26  1  0
  6 27  1  0
  6 28  1  0
  7 29  1  0
  9 30  1  0
 10 31  1  0
 11 32  1  0
 13 33  1  0
 13 34  1  0
 13 35  1  0
 14 36  1  0
 16 37  1  0
 17 38  1  0
 18 39  1  0
 21 40  1  0
M  CHG  1  20  -1
M  END
>  <UniqueID>  (45) 
43

>  <SMILES>  (45) 
CCN(C(=O)CNc1cccc(C)c1)c1cccc([O-])c1

>  <Energy>  (45) 
42.206081546999854

>  <Genealogy>  (45) 
CCN(C(=O)CNc1cccc(C)c1)c1cccc([O-])c1 (protonated)
CCN(C(=O)CNc1cccc(C)c1)c1cccc([O-])c1 (3D coordinates assigned)
CCN(C(=O)CNc1cccc(C)c1)c1cccc([O-])c1 (optimized conformer: 42.206081546999854 kcal/mol)

>  <smiles>  (45) 
CCN(C(=O)CNc1cccc(C)c1)c1cccc(O)c1

>  <score_type>  (45) 
oracle

>  <origin>  (45) 
adg

>  <m_score__min__energy>  (45) 
-10.52

>  <m_primary>  (45) 
energy

$$$$
45:0
     RDKit          3D

 44 46  0  0  0  0  0  0  0  0999 V2000
   54.5580   29.4250   51.6800 O   0  0  0  0  0  0  0  0  0  0  0  0
   54.5350   30.6420   52.0060 C   0  0  0  0  0  0  0  0  0  0  0  0
   53.2170   31.2880   52.3340 C   0  0  0  0  0  0  0  0  0  0  0  0
   52.3510   31.3330   51.1120 C   0  0  0  0  0  0  0  0  0  0  0  0
   52.3610   30.4010   50.1440 N   0  0  0  0  0  0  0  0  0  0  0  0
   51.3810   30.8130   49.3070 C   0  0  0  0  0  0  0  0  0  0  0  0
   51.0850   30.1910   48.2540 O   0  0  0  0  0  0  0  0  0  0  0  0
   50.7420   31.9410   49.6900 N   0  0  0  0  0  0  0  0  0  0  0  0
   51.3660   32.2530   50.8380 C   0  0  0  0  0  0  0  0  0  0  0  0
   51.0420   33.3520   51.6250 O   0  0  0  0  0  0  0  0  0  0  0  0
   55.7560   31.3950   51.9520 N   0  0  0  0  0  0  0  0  0  0  0  0
   57.0770   30.8410   51.9190 C   0  0  0  0  0  0  0  0  0  0  0  0
   57.7440   30.6500   50.6970 C   0  0  0  0  0  0  0  0  0  0  0  0
   59.0520   30.1470   50.6740 C   0  0  0  0  0  0  0  0  0  0  0  0
   59.8970   29.9020   49.1460 S   0  0  0  0  0  0  0  0  0  0  0  0
   58.9800   29.2570   48.1410 O   0  0  0  0  0  0  0  0  0  0  0  0
   61.0720   28.9960   49.3820 O   0  0  0  0  0  0  0  0  0  0  0  0
   60.4650   31.4240   48.5250 N   0  0  0  0  0  0  0  0  0  0  0  0
   60.6350   32.4070   49.5970 C   0  0  0  0  0  0  0  0  0  0  0  0
   59.5390   33.4710   49.5220 C   0  0  0  0  0  0  0  0  0  0  0  0
   59.1790   33.7560   48.0880 C   0  0  0  0  0  0  0  0  0  0  0  0
   59.9740   34.6210   47.3180 C   0  0  0  0  0  0  0  0  0  0  0  0
   59.6620   34.8540   45.9750 C   0  0  0  0  0  0  0  0  0  0  0  0
   58.5640   34.2190   45.3900 C   0  0  0  0  0  0  0  0  0  0  0  0
   57.7750   33.3470   46.1470 C   0  0  0  0  0  0  0  0  0  0  0  0
   58.0830   33.1120   47.4900 C   0  0  0  0  0  0  0  0  0  0  0  0
   59.7010   29.8520   51.8780 C   0  0  0  0  0  0  0  0  0  0  0  0
   59.0530   30.0670   53.0970 C   0  0  0  0  0  0  0  0  0  0  0  0
   57.7480   30.5690   53.1230 C   0  0  0  0  0  0  0  0  0  0  0  0
   56.9550   30.8240   54.6710 Cl  0  0  0  0  0  0  0  0  0  0  0  0
   52.7109   30.7057   53.1181 H   0  0  0  0  0  0  0  0  0  0  0  0
   53.3956   32.3139   52.6883 H   0  0  0  0  0  0  0  0  0  0  0  0
   57.2365   30.8967   49.7528 H   0  0  0  0  0  0  0  0  0  0  0  0
   60.5786   31.8963   50.5696 H   0  0  0  0  0  0  0  0  0  0  0  0
   61.6145   32.8944   49.4828 H   0  0  0  0  0  0  0  0  0  0  0  0
   58.6467   33.1100   50.0545 H   0  0  0  0  0  0  0  0  0  0  0  0
   59.9090   34.3967   49.9870 H   0  0  0  0  0  0  0  0  0  0  0  0
   60.8444   35.1165   47.7728 H   0  0  0  0  0  0  0  0  0  0  0  0
   60.2824   35.5387   45.3781 H   0  0  0  0  0  0  0  0  0  0  0  0
   58.3198   34.4048   44.3337 H   0  0  0  0  0  0  0  0  0  0  0  0
   56.9115   32.8458   45.6852 H   0  0  0  0  0  0  0  0  0  0  0  0
   57.4648   32.4201   48.0809 H   0  0  0  0  0  0  0  0  0  0  0  0
   60.7246   29.4495   51.8648 H   0  0  0  0  0  0  0  0  0  0  0  0
   59.5715   29.8404   54.0403 H   0  0  0  0  0  0  0  0  0  0  0  0
  1  2  2  0
  2  3  1  0
  3  4  1  0
  4  5  1  0
  5  6  1  0
  6  7  2  0
  6  8  1  0
  8  9  1  0
  9 10  1  0
  2 11  1  0
 11 12  1  0
 12 13  2  0
 13 14  1  0
 14 15  1  0
 15 16  2  0
 15 17  2  0
 15 18  1  0
 18 19  1  0
 19 20  1  0
 20 21  1  0
 21 22  2  0
 22 23  1  0
 23 24  2  0
 24 25  1  0
 25 26  2  0
 14 27  2  0
 27 28  1  0
 28 29  2  0
 29 30  1  0
  9  4  2  0
 29 12  1  0
 26 21  1  0
  3 31  1  0
  3 32  1  0
 13 33  1  0
 19 34  1  0
 19 35  1  0
 20 36  1  0
 20 37  1  0
 22 38  1  0
 23 39  1  0
 24 40  1  0
 25 41  1  0
 26 42  1  0
 27 43  1  0
 28 44  1  0
M  CHG  5   5  -1   8  -1  10  -1  11  -1  18  -1
M  END
>  <UniqueID>  (46) 
44

>  <SMILES>  (46) 
O=C(Cc1[n-]c(=O)[n-]c1[O-])[N-]c1cc(S(=O)(=O)[N-]CCc2ccccc2)ccc1Cl

>  <Energy>  (46) 
76.02047145865696

>  <Genealogy>  (46) 
O=C(Cc1[n-]c(=O)[n-]c1[O-])[N-]c1cc(S(=O)(=O)[N-]CCc2ccccc2)ccc1Cl (protonated)
O=C(Cc1[n-]c(=O)[n-]c1[O-])[N-]c1cc(S(=O)(=O)[N-]CCc2ccccc2)ccc1Cl (3D coordinates assigned)
O=C(Cc1[n-]c(=O)[n-]c1[O-])[N-]c1cc(S(=O)(=O)[N-]CCc2ccccc2)ccc1Cl (optimized conformer: 76.02047145865696 kcal/mol)

>  <smiles>  (46) 
O=C(Cc1[nH]c(=O)[nH]c1O)Nc1cc(S(=O)(=O)NCCc2ccccc2)ccc1Cl

>  <score_type>  (46) 
oracle

>  <origin>  (46) 
adg

>  <m_score__min__energy>  (46) 
-19.649999999999999

>  <m_primary>  (46) 
energy

$$$$
46:0
     RDKit          3D

 30 31  0  0  0  0  0  0  0  0999 V2000
   59.3641   28.6828   47.0134 H   0  0  0  0  0  0  0  0  0  0  0  0
   59.8900   29.1540   46.1700 C   0  0  0  0  0  0  0  0  0  0  0  0
   60.6900   30.1970   46.3930 C   0  0  0  0  0  0  0  0  0  0  0  0
   61.2843   30.6110   45.5651 H   0  0  0  0  0  0  0  0  0  0  0  0
   60.7910   30.8120   47.7520 C   0  0  0  0  0  0  0  0  0  0  0  0
   60.6630   30.0326   48.5176 H   0  0  0  0  0  0  0  0  0  0  0  0
   61.7784   31.2824   47.8691 H   0  0  0  0  0  0  0  0  0  0  0  0
   60.0059   31.5735   47.8691 H   0  0  0  0  0  0  0  0  0  0  0  0
   59.7010   28.6230   44.8040 C   0  0  0  0  0  0  0  0  0  0  0  0
   60.5852   28.5194   44.1578 H   0  0  0  0  0  0  0  0  0  0  0  0
   58.5410   28.2710   44.3250 N   0  0  0  0  0  0  0  0  0  0  0  0
   57.2610   28.4930   44.9330 C   0  0  0  0  0  0  0  0  0  0  0  0
   56.7480   27.5720   45.6220 O   0  0  0  0  0  0  0  0  0  0  0  0
   56.4820   29.7180   44.6610 C   0  0  0  0  0  0  0  0  0  0  0  0
   55.2400   29.7130   44.8700 O   0  0  0  0  0  0  0  0  0  0  0  0
   57.1240   30.9610   44.1980 C   0  0  0  0  0  0  0  0  0  0  0  0
   57.3680   31.3030   42.8710 C   0  0  0  0  0  0  0  0  0  0  0  0
   57.0909   30.6852   42.0041 H   0  0  0  0  0  0  0  0  0  0  0  0
   57.9930   32.5000   42.7950 N   0  0  0  0  0  0  0  0  0  0  0  0
   58.2960   32.9920   41.9260 H   0  0  0  0  0  0  0  0  0  0  0  0
   58.1610   32.9120   44.0640 C   0  0  0  0  0  0  0  0  0  0  0  0
   58.7960   34.0770   44.4900 C   0  0  0  0  0  0  0  0  0  0  0  0
   59.1923   34.8044   43.7663 H   0  0  0  0  0  0  0  0  0  0  0  0
   58.9140   34.2930   45.8740 C   0  0  0  0  0  0  0  0  0  0  0  0
   59.4003   35.2074   46.2446 H   0  0  0  0  0  0  0  0  0  0  0  0
   58.4130   33.3450   46.7910 C   0  0  0  0  0  0  0  0  0  0  0  0
   58.5180   33.5219   47.8716 H   0  0  0  0  0  0  0  0  0  0  0  0
   57.7800   32.1750   46.3330 C   0  0  0  0  0  0  0  0  0  0  0  0
   57.3978   31.4232   47.0392 H   0  0  0  0  0  0  0  0  0  0  0  0
   57.6520   31.9980   44.9520 C   0  0  0  0  0  0  0  0  0  0  0  0
  1  2  1  0
  2  3  2  0
  3  4  1  0
  3  5  1  0
  5  6  1  0
  5  7  1  0
  5  8  1  0
  2  9  1  0
  9 10  1  0
  9 11  2  0
 11 12  1  0
 12 13  2  0
 12 14  1  0
 14 15  2  0
 14 16  1  0
 16 17  2  0
 17 18  1  0
 17 19  1  0
 19 20  1  0
 19 21  1  0
 21 22  2  0
 22 23  1  0
 22 24  1  0
 24 25  1  0
 24 26  2  0
 26 27  1  0
 26 28  1  0
 28 29  1  0
 28 30  2  0
 30 16  1  0
 30 21  1  0
M  END
>  <UniqueID>  (47) 
45

>  <SMILES>  (47) 
CC=C/C=N\C(=O)C(=O)c1c[nH]c2ccccc12

>  <Energy>  (47) 
69.16699161384538

>  <Genealogy>  (47) 
CC=C/C=N\C(=O)C(=O)c1c[nH]c2ccccc12 (cis-trans isomerization)
CC=C/C=N\C(=O)C(=O)c1c[nH]c2ccccc12 (3D coordinates assigned)
CC=C/C=N\C(=O)C(=O)c1c[nH]c2ccccc12 (optimized conformer: 69.16699161384538 kcal/mol)

>  <smiles>  (47) 
CC=CC=NC(=O)C(=O)c1c[nH]c2ccccc12

>  <score_type>  (47) 
oracle

>  <origin>  (47) 
adg

>  <m_score__min__energy>  (47) 
-6.7599999999999998

>  <m_primary>  (47) 
energy

$$$$
47:0
     RDKit          3D

 30 31  0  0  0  0  0  0  0  0999 V2000
   60.5590   27.4920   48.9480 C   0  0  0  0  0  0  0  0  0  0  0  0
   60.5660   26.7130   47.7590 O   0  0  0  0  0  0  0  0  0  0  0  0
   59.6000   26.8550   46.7600 C   0  0  0  0  0  0  0  0  0  0  0  0
   59.9340   26.9100   45.5440 O   0  0  0  0  0  0  0  0  0  0  0  0
   58.1620   26.9910   47.1410 C   0  0  0  0  0  0  0  0  0  0  0  0
   57.4970   28.0450   46.2870 C   0  0  0  0  0  0  0  0  0  0  0  0
   56.2970   27.7730   45.6180 C   0  0  0  0  0  0  0  0  0  0  0  0
   55.7010   26.5200   45.7030 O   0  0  0  0  0  0  0  0  0  0  0  0
   55.6990   28.7390   44.8790 N   0  0  0  0  0  0  0  0  0  0  0  0
   56.2300   29.9820   44.7730 C   0  0  0  0  0  0  0  0  0  0  0  0
   55.6260   30.8470   44.0810 O   0  0  0  0  0  0  0  0  0  0  0  0
   57.3950   30.2940   45.4240 N   0  0  0  0  0  0  0  0  0  0  0  0
   57.9480   31.6230   45.3170 C   0  0  0  0  0  0  0  0  0  0  0  0
   58.1850   32.1920   44.0550 C   0  0  0  0  0  0  0  0  0  0  0  0
   58.7220   33.4790   43.9520 C   0  0  0  0  0  0  0  0  0  0  0  0
   59.0240   34.2050   45.1070 C   0  0  0  0  0  0  0  0  0  0  0  0
   58.7910   33.6460   46.3670 C   0  0  0  0  0  0  0  0  0  0  0  0
   58.2550   32.3590   46.4730 C   0  0  0  0  0  0  0  0  0  0  0  0
   58.0310   29.3430   46.1810 C   0  0  0  0  0  0  0  0  0  0  0  0
   59.1060   29.6260   46.7820 O   0  0  0  0  0  0  0  0  0  0  0  0
   60.5650   26.8255   49.8231 H   0  0  0  0  0  0  0  0  0  0  0  0
   61.4514   28.1347   48.9705 H   0  0  0  0  0  0  0  0  0  0  0  0
   59.6552   28.1186   48.9705 H   0  0  0  0  0  0  0  0  0  0  0  0
   57.6532   26.0273   46.9917 H   0  0  0  0  0  0  0  0  0  0  0  0
   58.0958   27.2889   48.1978 H   0  0  0  0  0  0  0  0  0  0  0  0
   57.9473   31.6230   43.1441 H   0  0  0  0  0  0  0  0  0  0  0  0
   58.9067   33.9200   42.9614 H   0  0  0  0  0  0  0  0  0  0  0  0
   59.4456   35.2177   45.0248 H   0  0  0  0  0  0  0  0  0  0  0  0
   59.0294   34.2188   47.2753 H   0  0  0  0  0  0  0  0  0  0  0  0
   58.0731   31.9213   47.4656 H   0  0  0  0  0  0  0  0  0  0  0  0
  1  2  1  0
  2  3  1  0
  3  4  2  0
  3  5  1  0
  5  6  1  0
  6  7  2  0
  7  8  1  0
  7  9  1  0
  9 10  1  0
 10 11  2  0
 10 12  1  0
 12 13  1  0
 13 14  2  0
 14 15  1  0
 15 16  2  0
 16 17  1  0
 17 18  2  0
 12 19  1  0
 19 20  2  0
 19  6  1  0
 18 13  1  0
  1 21  1  0
  1 22  1  0
  1 23  1  0
  5 24  1  0
  5 25  1  0
 14 26  1  0
 15 27  1  0
 16 28  1  0
 17 29  1  0
 18 30  1  0
M  CHG  2   8  -1   9  -1
M  END
>  <UniqueID>  (48) 
46

>  <SMILES>  (48) 
COC(=O)Cc1c([O-])[n-]c(=O)n(-c2ccccc2)c1=O

>  <Energy>  (48) 
39.06513553003858

>  <Genealogy>  (48) 
COC(=O)Cc1c([O-])[n-]c(=O)n(-c2ccccc2)c1=O (protonated)
COC(=O)Cc1c([O-])[n-]c(=O)n(-c2ccccc2)c1=O (3D coordinates assigned)
COC(=O)Cc1c([O-])[n-]c(=O)n(-c2ccccc2)c1=O (optimized conformer: 39.06513553003858 kcal/mol)

>  <smiles>  (48) 
COC(=O)Cc1c(O)[nH]c(=O)n(-c2ccccc2)c1=O

>  <score_type>  (48) 
oracle

>  <origin>  (48) 
adg

>  <m_score__min__energy>  (48) 
-10.66

>  <m_primary>  (48) 
energy

$$$$
48:0
     RDKit          3D

 52 55  0  0  0  0  0  0  0  0999 V2000
   58.4720   25.1340   47.1290 O   0  0  0  0  0  0  0  0  0  0  0  0
   59.3780   26.3310   47.0520 S   0  0  0  0  0  0  0  0  0  0  0  0
   60.7330   25.8760   46.5790 O   0  0  0  0  0  0  0  0  0  0  0  0
   59.5140   27.0460   48.6280 N   0  0  0  0  0  0  0  0  0  0  0  0
   59.2310   28.4770   48.5480 C   0  0  0  0  0  0  0  0  0  0  0  0
   60.5420   29.2580   48.6360 C   0  0  0  0  0  0  0  0  0  0  0  0
   60.8070   30.0420   47.3450 C   0  0  0  0  0  0  0  0  0  0  0  0
   60.5980   31.4850   47.5390 N   0  0  0  0  0  0  0  0  0  0  0  0
   61.6420   32.2890   48.1240 C   0  0  0  0  0  0  0  0  0  0  0  0
   62.9720   32.0130   47.7580 C   0  0  0  0  0  0  0  0  0  0  0  0
   64.0310   32.7450   48.2910 C   0  0  0  0  0  0  0  0  0  0  0  0
   63.7820   33.7700   49.1990 C   0  0  0  0  0  0  0  0  0  0  0  0
   62.4720   34.0710   49.5700 C   0  0  0  0  0  0  0  0  0  0  0  0
   61.3800   33.3590   49.0380 C   0  0  0  0  0  0  0  0  0  0  0  0
   60.0050   33.7830   49.5420 C   0  0  0  0  0  0  0  0  0  0  0  0
   58.8090   32.8860   49.2190 C   0  0  0  0  0  0  0  0  0  0  0  0
   58.5840   32.8570   47.7370 C   0  0  0  0  0  0  0  0  0  0  0  0
   57.4650   33.4770   47.1580 C   0  0  0  0  0  0  0  0  0  0  0  0
   57.2330   33.3610   45.7840 C   0  0  0  0  0  0  0  0  0  0  0  0
   58.1030   32.6090   44.9870 C   0  0  0  0  0  0  0  0  0  0  0  0
   57.7730   32.4330   43.1140 Br  0  0  0  0  0  0  0  0  0  0  0  0
   59.2110   31.9810   45.5640 C   0  0  0  0  0  0  0  0  0  0  0  0
   59.4600   32.1150   46.9370 C   0  0  0  0  0  0  0  0  0  0  0  0
   58.6950   27.4960   45.9200 C   0  0  0  0  0  0  0  0  0  0  0  0
   59.5150   28.1620   44.9960 C   0  0  0  0  0  0  0  0  0  0  0  0
   58.9630   29.0990   44.1170 C   0  0  0  0  0  0  0  0  0  0  0  0
   57.5940   29.3790   44.1580 C   0  0  0  0  0  0  0  0  0  0  0  0
   56.7720   28.7250   45.0810 C   0  0  0  0  0  0  0  0  0  0  0  0
   55.4100   29.0170   45.1150 O   0  0  0  0  0  0  0  0  0  0  0  0
   57.3240   27.7850   45.9630 C   0  0  0  0  0  0  0  0  0  0  0  0
   58.7340   28.7002   47.5924 H   0  0  0  0  0  0  0  0  0  0  0  0
   58.5722   28.7689   49.3791 H   0  0  0  0  0  0  0  0  0  0  0  0
   60.4841   29.9628   49.4786 H   0  0  0  0  0  0  0  0  0  0  0  0
   61.3646   28.5430   48.7849 H   0  0  0  0  0  0  0  0  0  0  0  0
   61.8467   29.8705   47.0295 H   0  0  0  0  0  0  0  0  0  0  0  0
   60.1022   29.6910   46.5768 H   0  0  0  0  0  0  0  0  0  0  0  0
   63.1793   31.2063   47.0395 H   0  0  0  0  0  0  0  0  0  0  0  0
   65.0644   32.5127   47.9940 H   0  0  0  0  0  0  0  0  0  0  0  0
   64.6192   34.3430   49.6242 H   0  0  0  0  0  0  0  0  0  0  0  0
   62.2882   34.8802   50.2921 H   0  0  0  0  0  0  0  0  0  0  0  0
   60.0686   33.8600   50.6375 H   0  0  0  0  0  0  0  0  0  0  0  0
   59.7953   34.7205   49.0062 H   0  0  0  0  0  0  0  0  0  0  0  0
   59.0096   31.8659   49.5783 H   0  0  0  0  0  0  0  0  0  0  0  0
   57.9115   33.2831   49.7158 H   0  0  0  0  0  0  0  0  0  0  0  0
   56.7704   34.0544   47.7858 H   0  0  0  0  0  0  0  0  0  0  0  0
   56.3655   33.8615   45.3292 H   0  0  0  0  0  0  0  0  0  0  0  0
   59.8887   31.3806   44.9393 H   0  0  0  0  0  0  0  0  0  0  0  0
   60.5932   27.9466   44.9632 H   0  0  0  0  0  0  0  0  0  0  0  0
   59.6075   29.6170   43.3916 H   0  0  0  0  0  0  0  0  0  0  0  0
   57.1628   30.1148   43.4632 H   0  0  0  0  0  0  0  0  0  0  0  0
   54.7520   28.5480   44.5040 H   0  0  0  0  0  0  0  0  0  0  0  0
   56.6787   27.2724   46.6915 H   0  0  0  0  0  0  0  0  0  0  0  0
  1  2  2  0
  2  3  2  0
  2  4  1  0
  4  5  1  0
  5  6  1  0
  6  7  1  0
  7  8  1  0
  8  9  1  0
  9 10  2  0
 10 11  1  0
 11 12  2  0
 12 13  1  0
 13 14  2  0
 14 15  1  0
 15 16  1  0
 16 17  1  0
 17 18  2  0
 18 19  1  0
 19 20  2  0
 20 21  1  0
 20 22  1  0
 22 23  2  0
  2 24  1  0
 24 25  2  0
 25 26  1  0
 26 27  2  0
 27 28  1  0
 28 29  1  0
 28 30  2  0
 23  8  1  0
 30 24  1  0
 14  9  1  0
 23 17  1  0
  5 31  1  0
  5 32  1  0
  6 33  1  0
  6 34  1  0
  7 35  1  0
  7 36  1  0
 10 37  1  0
 11 38  1  0
 12 39  1  0
 13 40  1  0
 15 41  1  0
 15 42  1  0
 16 43  1  0
 16 44  1  0
 18 45  1  0
 19 46  1  0
 22 47  1  0
 25 48  1  0
 26 49  1  0
 27 50  1  0
 29 51  1  0
 30 52  1  0
M  CHG  1   4  -1
M  END
>  <UniqueID>  (49) 
47

>  <SMILES>  (49) 
O=S(=O)([N-]CCCN1c2ccccc2CCc2ccc(Br)cc21)c1cccc(O)c1

>  <Energy>  (49) 
67.89178434763815

>  <Genealogy>  (49) 
O=S(=O)([N-]CCCN1c2ccccc2CCc2ccc(Br)cc21)c1cccc(O)c1 (protonated)
O=S(=O)([N-]CCCN1c2ccccc2CCc2ccc(Br)cc21)c1cccc(O)c1 (3D coordinates assigned)
O=S(=O)([N-]CCCN1c2ccccc2CCc2ccc(Br)cc21)c1cccc(O)c1 (nonaromatic ring conformer: 67.89178434763815 kcal/mol)

>  <smiles>  (49) 
O=S(=O)(NCCCN1c2ccccc2CCc2ccc(Br)cc21)c1cccc(O)c1

>  <score_type>  (49) 
oracle

>  <origin>  (49) 
adg

>  <m_score__min__energy>  (49) 
-10.07

>  <m_primary>  (49) 
energy

$$$$
49:0
     RDKit          3D

 49 52  0  0  0  0  0  0  0  0999 V2000
   63.4650   32.6550   46.7920 O   0  0  0  0  0  0  0  0  0  0  0  0
   62.9060   32.3120   47.8660 C   0  0  0  0  0  0  0  0  0  0  0  0
   61.4830   32.1440   47.8790 N   0  0  0  0  0  0  0  0  0  0  0  0
   60.7700   31.0570   48.4850 C   0  0  0  0  0  0  0  0  0  0  0  0
   59.7920   31.2760   49.4700 C   0  0  0  0  0  0  0  0  0  0  0  0
   59.1290   30.1940   50.0540 C   0  0  0  0  0  0  0  0  0  0  0  0
   59.4460   28.8880   49.6760 C   0  0  0  0  0  0  0  0  0  0  0  0
   60.4470   28.6530   48.7200 C   0  0  0  0  0  0  0  0  0  0  0  0
   60.7970   27.2480   48.3090 C   0  0  0  0  0  0  0  0  0  0  0  0
   60.0370   26.8470   47.1680 O   0  0  0  0  0  0  0  0  0  0  0  0
   59.1100   27.6530   46.4870 C   0  0  0  0  0  0  0  0  0  0  0  0
   59.4520   28.9000   45.9290 C   0  0  0  0  0  0  0  0  0  0  0  0
   58.4880   29.6620   45.2630 C   0  0  0  0  0  0  0  0  0  0  0  0
   57.1760   29.1860   45.1290 C   0  0  0  0  0  0  0  0  0  0  0  0
   56.1770   30.0060   44.4200 C   0  0  0  0  0  0  0  0  0  0  0  0
   55.2190   29.4370   43.8360 O   0  0  0  0  0  0  0  0  0  0  0  0
   56.2510   31.4360   44.4040 N   0  0  0  0  0  0  0  0  0  0  0  0
   57.3950   32.1900   43.9070 C   0  0  0  0  0  0  0  0  0  0  0  0
   57.9670   33.0080   45.0160 C   0  0  0  0  0  0  0  0  0  0  0  0
   57.7890   32.7760   46.3740 C   0  0  0  0  0  0  0  0  0  0  0  0
   58.5100   33.6640   47.1820 C   0  0  0  0  0  0  0  0  0  0  0  0
   59.2670   34.5820   46.4650 C   0  0  0  0  0  0  0  0  0  0  0  0
   59.0410   34.2880   44.8240 S   0  0  0  0  0  0  0  0  0  0  0  0
   56.8280   27.9510   45.7000 C   0  0  0  0  0  0  0  0  0  0  0  0
   55.5200   27.4820   45.6320 O   0  0  0  0  0  0  0  0  0  0  0  0
   57.7950   27.1880   46.3640 C   0  0  0  0  0  0  0  0  0  0  0  0
   61.1020   29.7440   48.1260 C   0  0  0  0  0  0  0  0  0  0  0  0
   63.7190   32.1630   49.0890 C   0  0  0  0  0  0  0  0  0  0  0  0
   64.8840   32.8640   49.3750 C   0  0  0  0  0  0  0  0  0  0  0  0
   65.4200   32.5610   50.6330 C   0  0  0  0  0  0  0  0  0  0  0  0
   64.6760   31.6310   51.3470 C   0  0  0  0  0  0  0  0  0  0  0  0
   63.3500   31.1900   50.4140 S   0  0  0  0  0  0  0  0  0  0  0  0
   59.5479   32.3022   49.7820 H   0  0  0  0  0  0  0  0  0  0  0  0
   58.3543   30.3717   50.8145 H   0  0  0  0  0  0  0  0  0  0  0  0
   58.9100   28.0407   50.1285 H   0  0  0  0  0  0  0  0  0  0  0  0
   61.8681   27.2008   48.0631 H   0  0  0  0  0  0  0  0  0  0  0  0
   60.5643   26.5693   49.1428 H   0  0  0  0  0  0  0  0  0  0  0  0
   60.4820   29.2758   46.0177 H   0  0  0  0  0  0  0  0  0  0  0  0
   58.7602   30.6409   44.8415 H   0  0  0  0  0  0  0  0  0  0  0  0
   58.1594   31.4933   43.5325 H   0  0  0  0  0  0  0  0  0  0  0  0
   57.0727   32.8520   43.0897 H   0  0  0  0  0  0  0  0  0  0  0  0
   57.1475   31.9768   46.7737 H   0  0  0  0  0  0  0  0  0  0  0  0
   58.4797   33.6371   48.2813 H   0  0  0  0  0  0  0  0  0  0  0  0
   59.9052   35.3671   46.8965 H   0  0  0  0  0  0  0  0  0  0  0  0
   57.5194   26.2135   46.7935 H   0  0  0  0  0  0  0  0  0  0  0  0
   61.8829   29.5661   47.3720 H   0  0  0  0  0  0  0  0  0  0  0  0
   65.3404   33.5858   48.6817 H   0  0  0  0  0  0  0  0  0  0  0  0
   66.3436   33.0169   51.0191 H   0  0  0  0  0  0  0  0  0  0  0  0
   64.9138   31.2488   52.3507 H   0  0  0  0  0  0  0  0  0  0  0  0
  1  2  2  0
  2  3  1  0
  3  4  1  0
  4  5  2  0
  5  6  1  0
  6  7  2  0
  7  8  1  0
  8  9  1  0
  9 10  1  0
 10 11  1  0
 11 12  2  0
 12 13  1  0
 13 14  2  0
 14 15  1  0
 15 16  2  0
 15 17  1  0
 17 18  1  0
 18 19  1  0
 19 20  2  0
 20 21  1  0
 21 22  2  0
 22 23  1  0
 14 24  1  0
 24 25  1  0
 24 26  2  0
  8 27  2  0
  2 28  1  0
 28 29  2  0
 29 30  1  0
 30 31  2  0
 31 32  1  0
 27  4  1  0
 32 28  1  0
 26 11  1  0
 23 19  1  0
  5 33  1  0
  6 34  1  0
  7 35  1  0
  9 36  1  0
  9 37  1  0
 12 38  1  0
 13 39  1  0
 18 40  1  0
 18 41  1  0
 20 42  1  0
 21 43  1  0
 22 44  1  0
 26 45  1  0
 27 46  1  0
 29 47  1  0
 30 48  1  0
 31 49  1  0
M  CHG  3   3  -1  17  -1  25  -1
M  END
>  <UniqueID>  (50) 
48

>  <SMILES>  (50) 
O=C([N-]c1cccc(COc2ccc(C(=O)[N-]Cc3cccs3)c([O-])c2)c1)c1cccs1

>  <Energy>  (50) 
114.46296147451159

>  <Genealogy>  (50) 
O=C([N-]c1cccc(COc2ccc(C(=O)[N-]Cc3cccs3)c([O-])c2)c1)c1cccs1 (protonated)
O=C([N-]c1cccc(COc2ccc(C(=O)[N-]Cc3cccs3)c([O-])c2)c1)c1cccs1 (3D coordinates assigned)
O=C([N-]c1cccc(COc2ccc(C(=O)[N-]Cc3cccs3)c([O-])c2)c1)c1cccs1 (optimized conformer: 114.46296147451159 kcal/mol)

>  <smiles>  (50) 
O=C(Nc1cccc(COc2ccc(C(=O)NCc3cccs3)c(O)c2)c1)c1cccs1

>  <score_type>  (50) 
oracle

>  <origin>  (50) 
adg

>  <m_score__min__energy>  (50) 
-15.449999999999999

>  <m_primary>  (50) 
energy

$$$$
50:0
     RDKit          3D

 43 45  0  0  0  0  0  0  0  0999 V2000
   55.8880   30.4660   44.8140 O   0  0  0  0  0  0  0  0  0  0  0  0
   57.0980   30.9250   44.0500 S   0  0  0  0  0  0  0  0  0  0  0  0
   56.7100   31.1770   42.6210 O   0  0  0  0  0  0  0  0  0  0  0  0
   58.3150   29.6890   44.1050 N   0  0  0  0  0  0  0  0  0  0  0  0
   58.8050   29.0920   45.3200 C   0  0  0  0  0  0  0  0  0  0  0  0
   59.2400   27.7550   45.3690 C   0  0  0  0  0  0  0  0  0  0  0  0
   59.7010   27.2090   46.5690 C   0  0  0  0  0  0  0  0  0  0  0  0
   59.7430   27.9850   47.7280 C   0  0  0  0  0  0  0  0  0  0  0  0
   59.3240   29.3300   47.6940 C   0  0  0  0  0  0  0  0  0  0  0  0
   59.3450   30.1610   48.8250 O   0  0  0  0  0  0  0  0  0  0  0  0
   60.3470   31.1340   49.1240 C   0  0  0  0  0  0  0  0  0  0  0  0
   60.2090   32.3640   48.2180 C   0  0  0  0  0  0  0  0  0  0  0  0
   61.3390   32.4530   47.2710 N   0  0  0  0  0  0  0  0  0  0  0  0
   61.6540   33.8340   46.8870 C   0  0  0  0  0  0  0  0  0  0  0  0
   63.1410   33.8760   46.5580 C   0  0  0  0  0  0  0  0  0  0  0  0
   63.7200   32.5890   47.1210 C   0  0  0  0  0  0  0  0  0  0  0  0
   62.5720   31.9250   47.8580 C   0  0  0  0  0  0  0  0  0  0  0  0
   58.8560   29.8670   46.4890 C   0  0  0  0  0  0  0  0  0  0  0  0
   57.7270   32.4120   44.7370 C   0  0  0  0  0  0  0  0  0  0  0  0
   58.5170   33.3410   44.0770 C   0  0  0  0  0  0  0  0  0  0  0  0
   58.8500   34.4380   44.8800 C   0  0  0  0  0  0  0  0  0  0  0  0
   58.3240   34.3700   46.1640 C   0  0  0  0  0  0  0  0  0  0  0  0
   57.4410   32.9440   46.3030 S   0  0  0  0  0  0  0  0  0  0  0  0
   58.7520   29.4170   43.1950 H   0  0  0  0  0  0  0  0  0  0  0  0
   59.2170   27.1375   44.4590 H   0  0  0  0  0  0  0  0  0  0  0  0
   60.0330   26.1608   46.6007 H   0  0  0  0  0  0  0  0  0  0  0  0
   60.1038   27.5460   48.6699 H   0  0  0  0  0  0  0  0  0  0  0  0
   60.2423   31.4470   50.1733 H   0  0  0  0  0  0  0  0  0  0  0  0
   61.3352   30.6824   48.9524 H   0  0  0  0  0  0  0  0  0  0  0  0
   59.2694   32.2895   47.6509 H   0  0  0  0  0  0  0  0  0  0  0  0
   60.2081   33.2654   48.8484 H   0  0  0  0  0  0  0  0  0  0  0  0
   61.0636   34.1252   46.0057 H   0  0  0  0  0  0  0  0  0  0  0  0
   61.4119   34.5330   47.7011 H   0  0  0  0  0  0  0  0  0  0  0  0
   63.2924   33.9213   45.4694 H   0  0  0  0  0  0  0  0  0  0  0  0
   63.6282   34.7638   46.9875 H   0  0  0  0  0  0  0  0  0  0  0  0
   64.0829   31.9417   46.3090 H   0  0  0  0  0  0  0  0  0  0  0  0
   64.5780   32.7792   47.7826 H   0  0  0  0  0  0  0  0  0  0  0  0
   62.6177   30.8337   47.7278 H   0  0  0  0  0  0  0  0  0  0  0  0
   62.6192   32.1331   48.9371 H   0  0  0  0  0  0  0  0  0  0  0  0
   58.5224   30.9147   46.4577 H   0  0  0  0  0  0  0  0  0  0  0  0
   58.8468   33.2279   43.0337 H   0  0  0  0  0  0  0  0  0  0  0  0
   59.4700   35.2754   44.5275 H   0  0  0  0  0  0  0  0  0  0  0  0
   58.4614   35.1211   46.9558 H   0  0  0  0  0  0  0  0  0  0  0  0
  1  2  2  0
  2  3  2  0
  2  4  1  0
  4  5  1  0
  5  6  2  0
  6  7  1  0
  7  8  2  0
  8  9  1  0
  9 10  1  0
 10 11  1  0
 11 12  1  0
 12 13  1  0
 13 14  1  0
 14 15  1  0
 15 16  1  0
 16 17  1  0
  9 18  2  0
  2 19  1  0
 19 20  2  0
 20 21  1  0
 21 22  2  0
 22 23  1  0
 18  5  1  0
 23 19  1  0
 17 13  1  0
  4 24  1  0
  6 25  1  0
  7 26  1  0
  8 27  1  0
 11 28  1  0
 11 29  1  0
 12 30  1  0
 12 31  1  0
 14 32  1  0
 14 33  1  0
 15 34  1  0
 15 35  1  0
 16 36  1  0
 16 37  1  0
 17 38  1  0
 17 39  1  0
 18 40  1  0
 20 41  1  0
 21 42  1  0
 22 43  1  0
M  END
>  <UniqueID>  (51) 
49

>  <SMILES>  (51) 
O=S(=O)(Nc1cccc(OCCN2CCCC2)c1)c1cccs1

>  <Energy>  (51) 
73.49077008816701

>  <Genealogy>  (51) 
O=S(=O)(Nc1cccc(OCCN2CCCC2)c1)c1cccs1 (3D coordinates assigned)
O=S(=O)(Nc1cccc(OCCN2CCCC2)c1)c1cccs1 (nonaromatic ring conformer: 73.49077008816701 kcal/mol)

>  <smiles>  (51) 
O=S(=O)(Nc1cccc(OCCN2CCCC2)c1)c1cccs1

>  <score_type>  (51) 
oracle

>  <origin>  (51) 
adg

>  <m_score__min__energy>  (51) 
-8.5800000000000001

>  <m_primary>  (51) 
energy

$$$$
51:0
     RDKit          3D

 59 62  0  0  0  0  0  0  0  0999 V2000
   58.8770   29.9520   49.2260 C   0  0  0  0  0  0  0  0  0  0  0  0
   58.9560   30.8770   50.3490 N   0  0  0  0  0  0  0  0  0  0  0  0
   58.1870   30.6810   51.5430 C   0  0  0  0  0  0  0  0  0  0  0  0
   57.3980   29.7010   51.6280 O   0  0  0  0  0  0  0  0  0  0  0  0
   58.2870   31.6860   52.6710 C   0  0  0  0  0  0  0  0  0  0  0  0
   59.6680   31.6080   53.3460 C   0  0  0  0  0  0  0  0  0  0  0  0
   60.8030   32.1700   52.4610 C   0  0  0  0  0  0  0  0  0  0  0  0
   60.2910   33.0180   51.3620 N   0  0  0  0  0  0  0  0  0  0  0  0
   61.3630   33.6890   50.5940 C   0  0  0  0  0  0  0  0  0  0  0  0
   61.1070   33.7480   49.1020 C   0  0  0  0  0  0  0  0  0  0  0  0
   62.1800   33.7910   48.1960 C   0  0  0  0  0  0  0  0  0  0  0  0
   61.9400   33.8330   46.8210 C   0  0  0  0  0  0  0  0  0  0  0  0
   60.6310   33.8490   46.3370 C   0  0  0  0  0  0  0  0  0  0  0  0
   59.5460   33.8480   47.2310 C   0  0  0  0  0  0  0  0  0  0  0  0
   58.1890   33.8410   46.7660 N   0  0  0  0  0  0  0  0  0  0  0  0
   57.7530   33.5190   45.4400 C   0  0  0  0  0  0  0  0  0  0  0  0
   57.6580   34.4430   44.5900 O   0  0  0  0  0  0  0  0  0  0  0  0
   57.4820   32.1290   45.0280 C   0  0  0  0  0  0  0  0  0  0  0  0
   58.4320   31.1530   44.7990 C   0  0  0  0  0  0  0  0  0  0  0  0
   57.6790   30.0430   44.4820 C   0  0  0  0  0  0  0  0  0  0  0  0
   58.2000   28.6790   44.1670 C   0  0  0  0  0  0  0  0  0  0  0  0
   58.6600   28.0010   45.4280 C   0  0  0  0  0  0  0  0  0  0  0  0
   59.9450   28.2500   45.9380 C   0  0  0  0  0  0  0  0  0  0  0  0
   60.3840   27.5910   47.0900 C   0  0  0  0  0  0  0  0  0  0  0  0
   59.5490   26.6740   47.7350 C   0  0  0  0  0  0  0  0  0  0  0  0
   58.2740   26.4120   47.2260 C   0  0  0  0  0  0  0  0  0  0  0  0
   57.8310   27.0680   46.0740 C   0  0  0  0  0  0  0  0  0  0  0  0
   56.4060   30.3580   44.5410 O   0  0  0  0  0  0  0  0  0  0  0  0
   56.2490   31.6070   44.8680 N   0  0  0  0  0  0  0  0  0  0  0  0
   59.7910   33.7810   48.6080 C   0  0  0  0  0  0  0  0  0  0  0  0
   59.2310   33.9320   51.8190 C   0  0  0  0  0  0  0  0  0  0  0  0
   57.9730   33.1360   52.2160 C   0  0  0  0  0  0  0  0  0  0  0  0
   58.7891   28.9228   49.6042 H   0  0  0  0  0  0  0  0  0  0  0  0
   57.9962   30.1939   48.6130 H   0  0  0  0  0  0  0  0  0  0  0  0
   59.7860   30.0410   48.6130 H   0  0  0  0  0  0  0  0  0  0  0  0
   59.5870   31.7070   50.2740 H   0  0  0  0  0  0  0  0  0  0  0  0
   57.5152   31.4161   53.4069 H   0  0  0  0  0  0  0  0  0  0  0  0
   59.6343   32.1851   54.2818 H   0  0  0  0  0  0  0  0  0  0  0  0
   59.8868   30.5454   53.5277 H   0  0  0  0  0  0  0  0  0  0  0  0
   61.4756   32.7728   53.0889 H   0  0  0  0  0  0  0  0  0  0  0  0
   61.3313   31.3172   52.0097 H   0  0  0  0  0  0  0  0  0  0  0  0
   61.4646   34.7183   50.9686 H   0  0  0  0  0  0  0  0  0  0  0  0
   62.2772   33.0943   50.7370 H   0  0  0  0  0  0  0  0  0  0  0  0
   63.2139   33.7916   48.5715 H   0  0  0  0  0  0  0  0  0  0  0  0
   62.7851   33.8535   46.1172 H   0  0  0  0  0  0  0  0  0  0  0  0
   60.4477   33.8624   45.2525 H   0  0  0  0  0  0  0  0  0  0  0  0
   59.5270   31.2406   44.8560 H   0  0  0  0  0  0  0  0  0  0  0  0
   57.4011   28.0820   43.7029 H   0  0  0  0  0  0  0  0  0  0  0  0
   59.0496   28.7678   43.4739 H   0  0  0  0  0  0  0  0  0  0  0  0
   60.6077   28.9656   45.4294 H   0  0  0  0  0  0  0  0  0  0  0  0
   61.3884   27.7944   47.4897 H   0  0  0  0  0  0  0  0  0  0  0  0
   59.8954   26.1587   48.6430 H   0  0  0  0  0  0  0  0  0  0  0  0
   57.6183   25.6886   47.7327 H   0  0  0  0  0  0  0  0  0  0  0  0
   56.8300   26.8532   45.6716 H   0  0  0  0  0  0  0  0  0  0  0  0
   58.9451   33.7539   49.3106 H   0  0  0  0  0  0  0  0  0  0  0  0
   59.5914   34.4991   52.6899 H   0  0  0  0  0  0  0  0  0  0  0  0
   58.9750   34.6208   51.0004 H   0  0  0  0  0  0  0  0  0  0  0  0
   57.4729   33.6616   53.0428 H   0  0  0  0  0  0  0  0  0  0  0  0
   57.3334   33.0679   51.3236 H   0  0  0  0  0  0  0  0  0  0  0  0
  1  2  1  0
  2  3  1  0
  3  4  2  0
  3  5  1  0
  5  6  1  0
  6  7  1  0
  7  8  1  0
  8  9  1  0
  9 10  1  0
 10 11  2  0
 11 12  1  0
 12 13  2  0
 13 14  1  0
 14 15  1  0
 15 16  1  0
 16 17  2  0
 16 18  1  0
 18 19  1  0
 19 20  2  0
 20 21  1  0
 21 22  1  0
 22 23  2  0
 23 24  1  0
 24 25  2  0
 25 26  1  0
 26 27  2  0
 20 28  1  0
 28 29  1  0
 14 30  2  0
  8 31  1  0
 31 32  1  0
 32  5  1  0
 30 10  1  0
 29 18  2  0
 27 22  1  0
  1 33  1  0
  1 34  1  0
  1 35  1  0
  2 36  1  0
  5 37  1  0
  6 38  1  0
  6 39  1  0
  7 40  1  0
  7 41  1  0
  9 42  1  0
  9 43  1  0
 11 44  1  0
 12 45  1  0
 13 46  1  0
 19 47  1  0
 21 48  1  0
 21 49  1  0
 23 50  1  0
 24 51  1  0
 25 52  1  0
 26 53  1  0
 27 54  1  0
 30 55  1  0
 31 56  1  0
 31 57  1  0
 32 58  1  0
 32 59  1  0
M  CHG  1  15  -1
M  END
>  <UniqueID>  (52) 
50

>  <SMILES>  (52) 
CNC(=O)C1CCN(Cc2cccc([N-]C(=O)c3cc(Cc4ccccc4)on3)c2)CC1

>  <Energy>  (52) 
101.15415159008235

>  <Genealogy>  (52) 
CNC(=O)C1CCN(Cc2cccc([N-]C(=O)c3cc(Cc4ccccc4)on3)c2)CC1 (protonated)
CNC(=O)C1CCN(Cc2cccc([N-]C(=O)c3cc(Cc4ccccc4)on3)c2)CC1 (3D coordinates assigned)
CNC(=O)C1CCN(Cc2cccc([N-]C(=O)c3cc(Cc4ccccc4)on3)c2)CC1 (nonaromatic ring conformer: 101.15415159008235 kcal/mol)

>  <smiles>  (52) 
CNC(=O)C1CCN(Cc2cccc(NC(=O)c3cc(Cc4ccccc4)on3)c2)CC1

>  <score_type>  (52) 
oracle

>  <origin>  (52) 
adg

>  <m_score__min__energy>  (52) 
-11.31

>  <m_primary>  (52) 
energy

$$$$
52:0
     RDKit          3D

 46 48  0  0  0  0  0  0  0  0999 V2000
   57.0310   31.5830   51.8730 C   0  0  0  0  0  0  0  0  0  0  0  0
   58.1710   30.8240   51.2070 C   0  0  0  0  0  0  0  0  0  0  0  0
   58.3080   31.2150   49.8390 O   0  0  0  0  0  0  0  0  0  0  0  0
   59.4020   31.9010   49.2810 C   0  0  0  0  0  0  0  0  0  0  0  0
   59.7370   33.2100   49.6810 C   0  0  0  0  0  0  0  0  0  0  0  0
   60.8390   33.8640   49.1240 C   0  0  0  0  0  0  0  0  0  0  0  0
   61.6340   33.2200   48.1600 C   0  0  0  0  0  0  0  0  0  0  0  0
   62.7590   33.8300   47.5830 O   0  0  0  0  0  0  0  0  0  0  0  0
   63.7500   33.1410   46.8290 C   0  0  0  0  0  0  0  0  0  0  0  0
   61.3020   31.9240   47.7570 C   0  0  0  0  0  0  0  0  0  0  0  0
   60.1950   31.2590   48.3060 C   0  0  0  0  0  0  0  0  0  0  0  0
   59.8630   29.6110   47.7600 S   0  0  0  0  0  0  0  0  0  0  0  0
   60.2490   28.6420   48.8450 O   0  0  0  0  0  0  0  0  0  0  0  0
   60.6430   29.2640   46.5240 O   0  0  0  0  0  0  0  0  0  0  0  0
   58.1730   29.4720   47.4170 N   0  0  0  0  0  0  0  0  0  0  0  0
   57.6870   29.5780   46.0790 C   0  0  0  0  0  0  0  0  0  0  0  0
   57.0370   28.5300   45.4150 C   0  0  0  0  0  0  0  0  0  0  0  0
   56.6840   27.2220   46.0110 C   0  0  0  0  0  0  0  0  0  0  0  0
   57.5960   26.5250   46.5290 O   0  0  0  0  0  0  0  0  0  0  0  0
   55.3490   26.6950   46.0030 N   0  0  0  0  0  0  0  0  0  0  0  0
   54.9760   25.3260   45.6780 C   0  0  0  0  0  0  0  0  0  0  0  0
   56.6690   29.0470   43.8430 S   0  0  0  0  0  0  0  0  0  0  0  0
   57.3480   30.5740   44.0020 C   0  0  0  0  0  0  0  0  0  0  0  0
   57.4230   31.5890   43.0520 C   0  0  0  0  0  0  0  0  0  0  0  0
   58.0440   32.7940   43.4170 C   0  0  0  0  0  0  0  0  0  0  0  0
   58.5670   32.9590   44.7150 C   0  0  0  0  0  0  0  0  0  0  0  0
   58.4780   31.9190   45.6560 C   0  0  0  0  0  0  0  0  0  0  0  0
   57.8640   30.7190   45.2810 C   0  0  0  0  0  0  0  0  0  0  0  0
   57.1340   31.5144   52.9660 H   0  0  0  0  0  0  0  0  0  0  0  0
   57.0655   32.6390   51.5670 H   0  0  0  0  0  0  0  0  0  0  0  0
   56.0700   31.1438   51.5670 H   0  0  0  0  0  0  0  0  0  0  0  0
   59.1086   31.0405   51.7399 H   0  0  0  0  0  0  0  0  0  0  0  0
   57.9491   29.7473   51.2462 H   0  0  0  0  0  0  0  0  0  0  0  0
   59.1253   33.7217   50.4387 H   0  0  0  0  0  0  0  0  0  0  0  0
   61.0857   34.8879   49.4414 H   0  0  0  0  0  0  0  0  0  0  0  0
   64.4565   32.6498   47.5143 H   0  0  0  0  0  0  0  0  0  0  0  0
   63.2671   32.3829   46.1949 H   0  0  0  0  0  0  0  0  0  0  0  0
   64.2925   33.8577   46.1949 H   0  0  0  0  0  0  0  0  0  0  0  0
   61.9172   31.4178   46.9985 H   0  0  0  0  0  0  0  0  0  0  0  0
   54.8212   24.7578   46.6071 H   0  0  0  0  0  0  0  0  0  0  0  0
   54.0459   25.3290   45.0907 H   0  0  0  0  0  0  0  0  0  0  0  0
   55.7790   24.8568   45.0907 H   0  0  0  0  0  0  0  0  0  0  0  0
   57.0071   31.4506   42.0431 H   0  0  0  0  0  0  0  0  0  0  0  0
   58.1226   33.6128   42.6867 H   0  0  0  0  0  0  0  0  0  0  0  0
   59.0481   33.9082   44.9936 H   0  0  0  0  0  0  0  0  0  0  0  0
   58.8842   32.0463   46.6703 H   0  0  0  0  0  0  0  0  0  0  0  0
  1  2  1  0
  2  3  1  0
  3  4  1  0
  4  5  2  0
  5  6  1  0
  6  7  2  0
  7  8  1  0
  8  9  1  0
  7 10  1  0
 10 11  2  0
 11 12  1  0
 12 13  2  0
 12 14  2  0
 12 15  1  0
 15 16  1  0
 16 17  2  0
 17 18  1  0
 18 19  2  0
 18 20  1  0
 20 21  1  0
 17 22  1  0
 22 23  1  0
 23 24  2  0
 24 25  1  0
 25 26  2  0
 26 27  1  0
 27 28  2  0
 11  4  1  0
 28 16  1  0
 28 23  1  0
  1 29  1  0
  1 30  1  0
  1 31  1  0
  2 32  1  0
  2 33  1  0
  5 34  1  0
  6 35  1  0
  9 36  1  0
  9 37  1  0
  9 38  1  0
 10 39  1  0
 21 40  1  0
 21 41  1  0
 21 42  1  0
 24 43  1  0
 25 44  1  0
 26 45  1  0
 27 46  1  0
M  CHG  2  15  -1  20  -1
M  END
>  <UniqueID>  (53) 
51

>  <SMILES>  (53) 
CCOc1ccc(OC)cc1S(=O)(=O)[N-]c1c(C(=O)[N-]C)sc2ccccc12

>  <Energy>  (53) 
87.05972163197352

>  <Genealogy>  (53) 
CCOc1ccc(OC)cc1S(=O)(=O)[N-]c1c(C(=O)[N-]C)sc2ccccc12 (protonated)
CCOc1ccc(OC)cc1S(=O)(=O)[N-]c1c(C(=O)[N-]C)sc2ccccc12 (3D coordinates assigned)
CCOc1ccc(OC)cc1S(=O)(=O)[N-]c1c(C(=O)[N-]C)sc2ccccc12 (optimized conformer: 87.05972163197352 kcal/mol)

>  <smiles>  (53) 
CCOc1ccc(OC)cc1S(=O)(=O)Nc1c(C(=O)NC)sc2ccccc12

>  <score_type>  (53) 
oracle

>  <origin>  (53) 
adg

>  <m_score__min__energy>  (53) 
-10.449999999999999

>  <m_primary>  (53) 
energy

$$$$
53:0
     RDKit          3D

 60 62  0  0  0  0  0  0  0  0999 V2000
   63.7820   33.8420   47.3260 C   0  0  0  0  0  0  0  0  0  0  0  0
   63.7980   32.8700   48.4310 N   0  0  0  0  0  0  0  0  0  0  0  0
   64.8610   32.9440   49.4340 C   0  0  0  0  0  0  0  0  0  0  0  0
   62.7490   31.8790   48.5500 C   0  0  0  0  0  0  0  0  0  0  0  0
   62.0730   31.3990   47.4110 C   0  0  0  0  0  0  0  0  0  0  0  0
   61.0940   30.4070   47.5260 C   0  0  0  0  0  0  0  0  0  0  0  0
   60.7700   29.8730   48.7790 C   0  0  0  0  0  0  0  0  0  0  0  0
   59.7320   28.8310   48.9000 C   0  0  0  0  0  0  0  0  0  0  0  0
   58.5900   29.1510   49.3130 O   0  0  0  0  0  0  0  0  0  0  0  0
   59.9950   27.4530   48.5980 N   0  0  0  0  0  0  0  0  0  0  0  0
   59.3940   26.7000   47.5040 C   0  0  0  0  0  0  0  0  0  0  0  0
   58.9190   27.6400   46.4320 C   0  0  0  0  0  0  0  0  0  0  0  0
   59.8390   28.4300   45.7240 C   0  0  0  0  0  0  0  0  0  0  0  0
   59.3920   29.3480   44.7700 C   0  0  0  0  0  0  0  0  0  0  0  0
   58.0210   29.4700   44.4930 C   0  0  0  0  0  0  0  0  0  0  0  0
   57.0970   28.6720   45.1940 C   0  0  0  0  0  0  0  0  0  0  0  0
   57.5470   27.7710   46.1650 C   0  0  0  0  0  0  0  0  0  0  0  0
   55.7290   28.7480   44.9040 O   0  0  0  0  0  0  0  0  0  0  0  0
   55.1820   29.7350   44.0280 C   0  0  0  0  0  0  0  0  0  0  0  0
   56.1720   30.0740   42.9090 C   0  0  0  0  0  0  0  0  0  0  0  0
   57.5320   30.4960   43.5010 C   0  0  1  0  0  0  0  0  0  0  0  0
   57.4130   31.7840   44.1800 N   0  0  0  0  0  0  0  0  0  0  0  0
   58.4930   32.7030   44.3510 C   0  0  0  0  0  0  0  0  0  0  0  0
   58.8640   33.4300   43.3900 O   0  0  0  0  0  0  0  0  0  0  0  0
   59.1130   32.7800   45.6050 O   0  0  0  0  0  0  0  0  0  0  0  0
   58.5590   33.3600   46.7940 C   0  0  0  0  0  0  0  0  0  0  0  0
   59.4310   34.5340   47.2790 C   0  0  0  0  0  0  0  0  0  0  0  0
   57.1110   33.8260   46.5480 C   0  0  0  0  0  0  0  0  0  0  0  0
   58.5490   32.2660   47.8740 C   0  0  0  0  0  0  0  0  0  0  0  0
   61.4050   30.3800   49.9200 C   0  0  0  0  0  0  0  0  0  0  0  0
   62.3890   31.3640   49.8080 C   0  0  0  0  0  0  0  0  0  0  0  0
   63.7652   34.8627   47.7357 H   0  0  0  0  0  0  0  0  0  0  0  0
   64.6824   33.7097   46.7082 H   0  0  0  0  0  0  0  0  0  0  0  0
   62.8864   33.6801   46.7082 H   0  0  0  0  0  0  0  0  0  0  0  0
   64.4182   32.9132   50.4405 H   0  0  0  0  0  0  0  0  0  0  0  0
   65.5443   32.0912   49.3077 H   0  0  0  0  0  0  0  0  0  0  0  0
   65.4195   33.8832   49.3077 H   0  0  0  0  0  0  0  0  0  0  0  0
   62.3180   31.8091   46.4201 H   0  0  0  0  0  0  0  0  0  0  0  0
   60.5753   30.0440   46.6264 H   0  0  0  0  0  0  0  0  0  0  0  0
   60.1417   26.0131   47.0808 H   0  0  0  0  0  0  0  0  0  0  0  0
   58.5365   26.1280   47.8881 H   0  0  0  0  0  0  0  0  0  0  0  0
   60.9162   28.3258   45.9212 H   0  0  0  0  0  0  0  0  0  0  0  0
   60.1173   29.9777   44.2338 H   0  0  0  0  0  0  0  0  0  0  0  0
   56.8211   27.1612   46.7229 H   0  0  0  0  0  0  0  0  0  0  0  0
   54.2531   29.3483   43.5835 H   0  0  0  0  0  0  0  0  0  0  0  0
   54.9769   30.6474   44.6072 H   0  0  0  0  0  0  0  0  0  0  0  0
   56.3138   29.1894   42.2708 H   0  0  0  0  0  0  0  0  0  0  0  0
   55.7676   30.9080   42.3166 H   0  0  0  0  0  0  0  0  0  0  0  0
   58.2500   30.5770   42.6716 H   0  0  0  0  0  0  0  0  0  0  0  0
   59.4439   34.5513   48.3788 H   0  0  0  0  0  0  0  0  0  0  0  0
   60.4569   34.4089   46.9022 H   0  0  0  0  0  0  0  0  0  0  0  0
   59.0148   35.4800   46.9022 H   0  0  0  0  0  0  0  0  0  0  0  0
   56.6088   33.9876   47.5133 H   0  0  0  0  0  0  0  0  0  0  0  0
   57.1204   34.7665   45.9776 H   0  0  0  0  0  0  0  0  0  0  0  0
   56.5701   33.0566   45.9776 H   0  0  0  0  0  0  0  0  0  0  0  0
   58.5533   32.7336   48.8696 H   0  0  0  0  0  0  0  0  0  0  0  0
   57.6452   31.6490   47.7626 H   0  0  0  0  0  0  0  0  0  0  0  0
   59.4414   31.6326   47.7626 H   0  0  0  0  0  0  0  0  0  0  0  0
   61.1257   29.9993   50.9135 H   0  0  0  0  0  0  0  0  0  0  0  0
   62.8879   31.7404   50.7132 H   0  0  0  0  0  0  0  0  0  0  0  0
  1  2  1  0
  2  3  1  0
  2  4  1  0
  4  5  2  0
  5  6  1  0
  6  7  2  0
  7  8  1  0
  8  9  2  0
  8 10  1  0
 10 11  1  0
 11 12  1  0
 12 13  2  0
 13 14  1  0
 14 15  2  0
 15 16  1  0
 16 17  2  0
 16 18  1  0
 18 19  1  0
 19 20  1  0
 20 21  1  0
 21 22  1  0
 22 23  1  0
 23 24  2  0
 23 25  1  0
 25 26  1  0
 26 27  1  0
 26 28  1  0
 26 29  1  0
  7 30  1  0
 30 31  2  0
 31  4  1  0
 17 12  1  0
 21 15  1  0
  1 32  1  0
  1 33  1  0
  1 34  1  0
  3 35  1  0
  3 36  1  0
  3 37  1  0
  5 38  1  0
  6 39  1  0
 11 40  1  0
 11 41  1  0
 13 42  1  0
 14 43  1  0
 17 44  1  0
 19 45  1  0
 19 46  1  0
 20 47  1  0
 20 48  1  0
 21 49  1  6
 27 50  1  0
 27 51  1  0
 27 52  1  0
 28 53  1  0
 28 54  1  0
 28 55  1  0
 29 56  1  0
 29 57  1  0
 29 58  1  0
 30 59  1  0
 31 60  1  0
M  CHG  2  10  -1  22  -1
M  END
>  <UniqueID>  (54) 
52

>  <SMILES>  (54) 
CN(C)c1ccc(C(=O)[N-]Cc2ccc3c(c2)OCC[C@H]3[N-]C(=O)OC(C)(C)C)cc1

>  <Energy>  (54) 
60.01492053943905

>  <Genealogy>  (54) 
CN(C)c1ccc(C(=O)[N-]Cc2ccc3c(c2)OCCC3[N-]C(=O)OC(C)(C)C)cc1 (protonated)
CN(C)c1ccc(C(=O)[N-]Cc2ccc3c(c2)OCC[C@H]3[N-]C(=O)OC(C)(C)C)cc1 (chirality)
CN(C)c1ccc(C(=O)[N-]Cc2ccc3c(c2)OCC[C@H]3[N-]C(=O)OC(C)(C)C)cc1 (3D coordinates assigned)
CN(C)c1ccc(C(=O)[N-]Cc2ccc3c(c2)OCC[C@H]3[N-]C(=O)OC(C)(C)C)cc1 (nonaromatic ring conformer: 60.01492053943905 kcal/mol)

>  <smiles>  (54) 
CN(C)c1ccc(C(=O)NCc2ccc3c(c2)OCCC3NC(=O)OC(C)(C)C)cc1

>  <score_type>  (54) 
oracle

>  <origin>  (54) 
adg

>  <m_score__min__energy>  (54) 
-11.550000000000001

>  <m_primary>  (54) 
energy

$$$$
54:0
     RDKit          3D

 51 55  0  0  0  0  0  0  0  0999 V2000
   55.5868   21.5356   45.2242 H   0  0  0  0  0  0  0  0  0  0  0  0
   55.4430   22.6150   45.3800 C   0  0  0  0  0  0  0  0  0  0  0  0
   56.5200   23.4260   45.5500 N   0  0  0  0  0  0  0  0  0  0  0  0
   56.3920   24.7720   45.7360 C   0  0  0  0  0  0  0  0  0  0  0  0
   57.4360   25.5300   45.9180 N   0  0  0  0  0  0  0  0  0  0  0  0
   57.4350   26.9410   46.1840 C   0  0  0  0  0  0  0  0  0  0  0  0
   57.7250   27.3370   47.3440 O   0  0  0  0  0  0  0  0  0  0  0  0
   57.0170   27.8880   45.1870 N   0  0  0  0  0  0  0  0  0  0  0  0
   56.3180   27.5710   44.4780 H   0  0  0  0  0  0  0  0  0  0  0  0
   57.3890   29.2770   45.2000 C   0  0  0  0  0  0  0  0  0  0  0  0
   56.6450   30.2400   44.4960 C   0  0  0  0  0  0  0  0  0  0  0  0
   55.7724   29.9305   43.9020 H   0  0  0  0  0  0  0  0  0  0  0  0
   57.0080   31.5870   44.5470 C   0  0  0  0  0  0  0  0  0  0  0  0
   56.4260   32.3330   43.9861 H   0  0  0  0  0  0  0  0  0  0  0  0
   58.1080   31.9910   45.3080 C   0  0  0  0  0  0  0  0  0  0  0  0
   58.3907   33.0536   45.3386 H   0  0  0  0  0  0  0  0  0  0  0  0
   58.8560   31.0480   46.0350 C   0  0  0  0  0  0  0  0  0  0  0  0
   60.0200   31.4760   46.8500 C   0  0  0  0  0  0  0  0  0  0  0  0
   60.5050   32.7920   46.7680 C   0  0  0  0  0  0  0  0  0  0  0  0
   60.0182   33.5114   46.0931 H   0  0  0  0  0  0  0  0  0  0  0  0
   61.6000   33.1950   47.5360 C   0  0  0  0  0  0  0  0  0  0  0  0
   61.9668   34.2294   47.4626 H   0  0  0  0  0  0  0  0  0  0  0  0
   62.2370   32.2890   48.4020 C   0  0  0  0  0  0  0  0  0  0  0  0
   63.3980   32.7150   49.2140 C   0  0  0  0  0  0  0  0  0  0  0  0
   63.2960   33.6010   50.2410 N   0  0  0  0  0  0  0  0  0  0  0  0
   64.5600   33.6930   50.6830 C   0  0  0  0  0  0  0  0  0  0  0  0
   65.0480   34.4680   51.7390 C   0  0  0  0  0  0  0  0  0  0  0  0
   64.1340   35.3370   52.5500 C   0  0  0  0  0  0  0  0  0  0  0  0
   64.3170   35.1630   53.6206 H   0  0  0  0  0  0  0  0  0  0  0  0
   64.3261   36.3937   52.3122 H   0  0  0  0  0  0  0  0  0  0  0  0
   63.0884   35.0919   52.3122 H   0  0  0  0  0  0  0  0  0  0  0  0
   66.4320   34.3890   52.0140 C   0  0  0  0  0  0  0  0  0  0  0  0
   66.8595   34.9806   52.8370 H   0  0  0  0  0  0  0  0  0  0  0  0
   67.2710   33.5560   51.2400 C   0  0  0  0  0  0  0  0  0  0  0  0
   68.3468   33.5041   51.4637 H   0  0  0  0  0  0  0  0  0  0  0  0
   66.7380   32.7920   50.1840 C   0  0  0  0  0  0  0  0  0  0  0  0
   67.3791   32.1392   49.5734 H   0  0  0  0  0  0  0  0  0  0  0  0
   65.3710   32.8920   49.9400 C   0  0  0  0  0  0  0  0  0  0  0  0
   64.6600   32.2560   48.9980 N   0  0  0  0  0  0  0  0  0  0  0  0
   61.7540   30.9720   48.4830 C   0  0  0  0  0  0  0  0  0  0  0  0
   62.2440   30.2519   49.1548 H   0  0  0  0  0  0  0  0  0  0  0  0
   60.6560   30.5690   47.7170 C   0  0  0  0  0  0  0  0  0  0  0  0
   60.2869   29.5355   47.7928 H   0  0  0  0  0  0  0  0  0  0  0  0
   58.4810   29.6920   45.9780 C   0  0  0  0  0  0  0  0  0  0  0  0
   59.0521   28.9471   46.5515 H   0  0  0  0  0  0  0  0  0  0  0  0
   55.1100   25.3420   45.7720 C   0  0  0  0  0  0  0  0  0  0  0  0
   54.9450   26.7080   45.9750 O   0  0  0  0  0  0  0  0  0  0  0  0
   53.9910   24.5230   45.6010 C   0  0  0  0  0  0  0  0  0  0  0  0
   52.9815   24.9595   45.6224 H   0  0  0  0  0  0  0  0  0  0  0  0
   54.1540   23.1510   45.4030 C   0  0  0  0  0  0  0  0  0  0  0  0
   53.2778   22.5001   45.2668 H   0  0  0  0  0  0  0  0  0  0  0  0
  1  2  1  0
  2  3  1  0
  3  4  1  0
  4  5  2  0
  5  6  1  0
  6  7  2  0
  6  8  1  0
  8  9  1  0
  8 10  1  0
 10 11  2  0
 11 12  1  0
 11 13  1  0
 13 14  1  0
 13 15  2  0
 15 16  1  0
 15 17  1  0
 17 18  1  0
 18 19  2  0
 19 20  1  0
 19 21  1  0
 21 22  1  0
 21 23  2  0
 23 24  1  0
 24 25  2  0
 25 26  1  0
 26 27  2  0
 27 28  1  0
 28 29  1  0
 28 30  1  0
 28 31  1  0
 27 32  1  0
 32 33  1  0
 32 34  2  0
 34 35  1  0
 34 36  1  0
 36 37  1  0
 36 38  2  0
 38 39  1  0
 23 40  1  0
 40 41  1  0
 40 42  2  0
 42 43  1  0
 17 44  2  0
 44 45  1  0
  4 46  1  0
 46 47  1  0
 46 48  2  0
 48 49  1  0
 48 50  1  0
 50 51  1  0
 50  2  2  0
 44 10  1  0
 42 18  1  0
 39 24  1  0
 38 26  1  0
M  CHG  3   3  -1  39  -1  47  -1
M  END
>  <UniqueID>  (55) 
53

>  <SMILES>  (55) 
Cc1cccc2[n-]c(-c3ccc(-c4cccc(NC(=O)/N=c5\[n-]cccc5[O-])c4)cc3)nc12

>  <Energy>  (55) 
106.54278227653947

>  <Genealogy>  (55) 
Cc1cccc2[n-]c(-c3ccc(-c4cccc(NC(=O)N=c5[n-]cccc5[O-])c4)cc3)nc12 (protonated)
Cc1cccc2[n-]c(-c3ccc(-c4cccc(NC(=O)/N=c5\[n-]cccc5[O-])c4)cc3)nc12 (cis-trans isomerization)
Cc1cccc2[n-]c(-c3ccc(-c4cccc(NC(=O)/N=c5\[n-]cccc5[O-])c4)cc3)nc12 (3D coordinates assigned)
Cc1cccc2[n-]c(-c3ccc(-c4cccc(NC(=O)/N=c5\[n-]cccc5[O-])c4)cc3)nc12 (optimized conformer: 106.54278227653947 kcal/mol)

>  <smiles>  (55) 
Cc1cccc2[nH]c(-c3ccc(-c4cccc(NC(=O)N=c5[nH]cccc5O)c4)cc3)nc12

>  <score_type>  (55) 
oracle

>  <origin>  (55) 
adg

>  <m_score__min__energy>  (55) 
-16.289999999999999

>  <m_primary>  (55) 
energy

$$$$
55:0
     RDKit          3D

 56 58  0  0  0  0  0  0  0  0999 V2000
   57.7540   33.2770   44.5130 C   0  0  0  0  0  0  0  0  0  0  0  0
   57.6040   31.8880   43.8870 C   0  0  0  0  0  0  0  0  0  0  0  0
   57.4150   31.9500   42.3670 C   0  0  0  0  0  0  0  0  0  0  0  0
   56.5540   31.1130   44.5550 N   0  0  0  0  0  0  0  0  0  0  0  0
   56.2910   29.7000   44.5300 C   0  0  0  0  0  0  0  0  0  0  0  0
   55.1440   29.3050   44.8700 O   0  0  0  0  0  0  0  0  0  0  0  0
   57.3470   28.6820   44.1770 C   0  0  0  0  0  0  0  0  0  0  0  0
   58.1020   28.2480   45.3720 N   0  0  0  0  0  0  0  0  0  0  0  0
   57.9670   26.9720   45.8690 C   0  0  0  0  0  0  0  0  0  0  0  0
   57.1130   26.0040   45.2440 N   0  0  0  0  0  0  0  0  0  0  0  0
   57.4120   25.4950   43.9050 C   0  0  0  0  0  0  0  0  0  0  0  0
   57.0560   24.0080   43.8380 C   0  0  0  0  0  0  0  0  0  0  0  0
   55.7290   23.7890   44.2840 O   0  0  0  0  0  0  0  0  0  0  0  0
   55.6230   24.1110   45.6590 C   0  0  0  0  0  0  0  0  0  0  0  0
   55.8620   25.6070   45.8880 C   0  0  0  0  0  0  0  0  0  0  0  0
   58.6500   26.6010   46.9820 N   0  0  0  0  0  0  0  0  0  0  0  0
   59.4800   27.4530   47.6250 C   0  0  0  0  0  0  0  0  0  0  0  0
   59.6540   28.7540   47.1530 C   0  0  0  0  0  0  0  0  0  0  0  0
   60.5640   29.6770   47.8730 C   0  0  0  0  0  0  0  0  0  0  0  0
   60.6700   29.5820   49.1260 O   0  0  0  0  0  0  0  0  0  0  0  0
   61.2910   30.6990   47.1720 N   0  0  0  0  0  0  0  0  0  0  0  0
   62.2160   31.6030   47.8500 C   0  0  0  0  0  0  0  0  0  0  0  0
   61.4850   32.3970   48.8980 C   0  0  0  0  0  0  0  0  0  0  0  0
   60.3500   33.1470   48.5470 C   0  0  0  0  0  0  0  0  0  0  0  0
   59.6490   33.8630   49.5220 C   0  0  0  0  0  0  0  0  0  0  0  0
   60.0720   33.8300   50.8540 C   0  0  0  0  0  0  0  0  0  0  0  0
   59.3910   34.5230   51.8000 F   0  0  0  0  0  0  0  0  0  0  0  0
   61.1960   33.0780   51.2130 C   0  0  0  0  0  0  0  0  0  0  0  0
   61.8990   32.3610   50.2400 C   0  0  0  0  0  0  0  0  0  0  0  0
   58.9610   29.1280   45.9850 C   0  0  0  0  0  0  0  0  0  0  0  0
   59.1560   30.2700   45.4840 O   0  0  0  0  0  0  0  0  0  0  0  0
   57.7444   33.1881   45.6094 H   0  0  0  0  0  0  0  0  0  0  0  0
   58.7056   33.7241   44.1897 H   0  0  0  0  0  0  0  0  0  0  0  0
   56.9197   33.9169   44.1897 H   0  0  0  0  0  0  0  0  0  0  0  0
   58.5511   31.3527   44.0492 H   0  0  0  0  0  0  0  0  0  0  0  0
   56.3927   32.2854   42.1380 H   0  0  0  0  0  0  0  0  0  0  0  0
   58.1383   32.6580   41.9361 H   0  0  0  0  0  0  0  0  0  0  0  0
   57.5784   30.9512   41.9361 H   0  0  0  0  0  0  0  0  0  0  0  0
   56.8612   27.8056   43.7233 H   0  0  0  0  0  0  0  0  0  0  0  0
   58.0527   29.1467   43.4727 H   0  0  0  0  0  0  0  0  0  0  0  0
   56.8203   26.0484   43.1609 H   0  0  0  0  0  0  0  0  0  0  0  0
   58.4828   25.6276   43.6910 H   0  0  0  0  0  0  0  0  0  0  0  0
   57.1492   23.6611   42.7983 H   0  0  0  0  0  0  0  0  0  0  0  0
   57.7443   23.4503   44.4901 H   0  0  0  0  0  0  0  0  0  0  0  0
   54.6156   23.8483   46.0142 H   0  0  0  0  0  0  0  0  0  0  0  0
   56.3849   23.5435   46.2135 H   0  0  0  0  0  0  0  0  0  0  0  0
   55.0290   26.1818   45.4569 H   0  0  0  0  0  0  0  0  0  0  0  0
   55.9253   25.8075   46.9677 H   0  0  0  0  0  0  0  0  0  0  0  0
   60.0198   27.1190   48.5234 H   0  0  0  0  0  0  0  0  0  0  0  0
   61.0580   30.9020   46.1750 H   0  0  0  0  0  0  0  0  0  0  0  0
   63.0139   31.0161   48.3285 H   0  0  0  0  0  0  0  0  0  0  0  0
   62.6514   32.2934   47.1126 H   0  0  0  0  0  0  0  0  0  0  0  0
   60.0115   33.1710   47.5007 H   0  0  0  0  0  0  0  0  0  0  0  0
   58.7640   34.4527   49.2408 H   0  0  0  0  0  0  0  0  0  0  0  0
   61.5269   33.0509   52.2617 H   0  0  0  0  0  0  0  0  0  0  0  0
   62.7792   31.7667   50.5263 H   0  0  0  0  0  0  0  0  0  0  0  0
  1  2  1  0
  2  3  1  0
  2  4  1  0
  4  5  1  0
  5  6  2  0
  5  7  1  0
  7  8  1  0
  8  9  1  0
  9 10  1  0
 10 11  1  0
 11 12  1  0
 12 13  1  0
 13 14  1  0
 14 15  1  0
  9 16  2  0
 16 17  1  0
 17 18  2  0
 18 19  1  0
 19 20  2  0
 19 21  1  0
 21 22  1  0
 22 23  1  0
 23 24  2  0
 24 25  1  0
 25 26  2  0
 26 27  1  0
 26 28  1  0
 28 29  2  0
 18 30  1  0
 30 31  2  0
 30  8  1  0
 15 10  1  0
 29 23  1  0
  1 32  1  0
  1 33  1  0
  1 34  1  0
  2 35  1  0
  3 36  1  0
  3 37  1  0
  3 38  1  0
  7 39  1  0
  7 40  1  0
 11 41  1  0
 11 42  1  0
 12 43  1  0
 12 44  1  0
 14 45  1  0
 14 46  1  0
 15 47  1  0
 15 48  1  0
 17 49  1  0
 21 50  1  0
 22 51  1  0
 22 52  1  0
 24 53  1  0
 25 54  1  0
 28 55  1  0
 29 56  1  0
M  CHG  1   4  -1
M  END
>  <UniqueID>  (56) 
54

>  <SMILES>  (56) 
CC(C)[N-]C(=O)Cn1c(N2CCOCC2)ncc(C(=O)NCc2ccc(F)cc2)c1=O

>  <Energy>  (56) 
68.48559442447522

>  <Genealogy>  (56) 
CC(C)[N-]C(=O)Cn1c(N2CCOCC2)ncc(C(=O)NCc2ccc(F)cc2)c1=O (protonated)
CC(C)[N-]C(=O)Cn1c(N2CCOCC2)ncc(C(=O)NCc2ccc(F)cc2)c1=O (3D coordinates assigned)
CC(C)[N-]C(=O)Cn1c(N2CCOCC2)ncc(C(=O)NCc2ccc(F)cc2)c1=O (nonaromatic ring conformer: 68.48559442447522 kcal/mol)

>  <smiles>  (56) 
CC(C)NC(=O)Cn1c(N2CCOCC2)ncc(C(=O)NCc2ccc(F)cc2)c1=O

>  <score_type>  (56) 
oracle

>  <origin>  (56) 
adg

>  <m_score__min__energy>  (56) 
-9.3900000000000006

>  <m_primary>  (56) 
energy

$$$$
56:0
     RDKit          3D

 26 27  0  0  0  0  0  0  0  0999 V2000
   55.0370   25.2050   45.7810 O   0  0  0  0  0  0  0  0  0  0  0  0
   56.2240   25.5900   45.9620 C   0  0  0  0  0  0  0  0  0  0  0  0
   57.3580   24.6790   45.6160 C   0  0  0  0  0  0  0  0  0  0  0  0
   56.8360   23.3060   45.2680 C   0  0  0  0  0  0  0  0  0  0  0  0
   56.8570   22.2630   46.2090 C   0  0  0  0  0  0  0  0  0  0  0  0
   57.3330   22.4760   47.4980 O   0  0  0  0  0  0  0  0  0  0  0  0
   56.4100   21.0270   45.8650 N   0  0  0  0  0  0  0  0  0  0  0  0
   55.9480   20.7720   44.6150 C   0  0  0  0  0  0  0  0  0  0  0  0
   55.5370   19.6200   44.3210 O   0  0  0  0  0  0  0  0  0  0  0  0
   55.9320   21.7550   43.6820 N   0  0  0  0  0  0  0  0  0  0  0  0
   56.3670   23.0090   43.9740 C   0  0  0  0  0  0  0  0  0  0  0  0
   56.3470   23.8920   43.0770 O   0  0  0  0  0  0  0  0  0  0  0  0
   56.4990   26.9250   46.3980 N   0  0  0  0  0  0  0  0  0  0  0  0
   57.2030   27.9210   45.6410 C   0  0  0  0  0  0  0  0  0  0  0  0
   58.6030   27.9420   45.7030 C   0  0  0  0  0  0  0  0  0  0  0  0
   59.3290   28.8990   44.9870 C   0  0  0  0  0  0  0  0  0  0  0  0
   58.6580   29.8520   44.2170 C   0  0  0  0  0  0  0  0  0  0  0  0
   57.2620   29.8600   44.1730 C   0  0  0  0  0  0  0  0  0  0  0  0
   56.5290   28.9090   44.8930 C   0  0  0  0  0  0  0  0  0  0  0  0
   55.1410   28.9800   44.8870 O   0  0  0  0  0  0  0  0  0  0  0  0
   57.9038   25.0895   44.7537 H   0  0  0  0  0  0  0  0  0  0  0  0
   58.0308   24.5983   46.4825 H   0  0  0  0  0  0  0  0  0  0  0  0
   59.1340   27.2011   46.3187 H   0  0  0  0  0  0  0  0  0  0  0  0
   60.4282   28.9013   45.0301 H   0  0  0  0  0  0  0  0  0  0  0  0
   59.2298   30.5972   43.6445 H   0  0  0  0  0  0  0  0  0  0  0  0
   56.7368   30.6159   43.5707 H   0  0  0  0  0  0  0  0  0  0  0  0
  1  2  2  0
  2  3  1  0
  3  4  1  0
  4  5  2  0
  5  6  1  0
  5  7  1  0
  7  8  1  0
  8  9  2  0
  8 10  1  0
 10 11  1  0
 11 12  2  0
  2 13  1  0
 13 14  1  0
 14 15  2  0
 15 16  1  0
 16 17  2  0
 17 18  1  0
 18 19  2  0
 19 20  1  0
 11  4  1  0
 19 14  1  0
  3 21  1  0
  3 22  1  0
 15 23  1  0
 16 24  1  0
 17 25  1  0
 18 26  1  0
M  CHG  5   6  -1   7  -1  10  -1  13  -1  20  -1
M  END
>  <UniqueID>  (57) 
55

>  <SMILES>  (57) 
O=C(Cc1c([O-])[n-]c(=O)[n-]c1=O)[N-]c1ccccc1[O-]

>  <Energy>  (57) 
33.44154727505259

>  <Genealogy>  (57) 
O=C(Cc1c([O-])[n-]c(=O)[n-]c1=O)[N-]c1ccccc1[O-] (protonated)
O=C(Cc1c([O-])[n-]c(=O)[n-]c1=O)[N-]c1ccccc1[O-] (3D coordinates assigned)
O=C(Cc1c([O-])[n-]c(=O)[n-]c1=O)[N-]c1ccccc1[O-] (optimized conformer: 33.44154727505259 kcal/mol)

>  <smiles>  (57) 
O=C(Cc1c(O)[nH]c(=O)[nH]c1=O)Nc1ccccc1O

>  <score_type>  (57) 
oracle

>  <origin>  (57) 
adg

>  <m_score__min__energy>  (57) 
-18.399999999999999

>  <m_primary>  (57) 
energy

$$$$
57:0
     RDKit          3D

 41 43  0  0  0  0  0  0  0  0999 V2000
   61.0460   34.2190   46.7300 C   0  0  0  0  0  0  0  0  0  0  0  0
   59.8210   33.5120   46.2270 C   0  0  0  0  0  0  0  0  0  0  0  0
   59.2220   33.9240   45.0280 C   0  0  0  0  0  0  0  0  0  0  0  0
   58.0780   33.2780   44.5500 C   0  0  0  0  0  0  0  0  0  0  0  0
   57.5180   32.2060   45.2700 C   0  0  0  0  0  0  0  0  0  0  0  0
   56.3430   31.5170   44.8190 N   0  0  0  0  0  0  0  0  0  0  0  0
   56.3360   30.0110   43.9590 S   0  0  0  0  0  0  0  0  0  0  0  0
   54.9990   29.3500   44.1370 O   0  0  0  0  0  0  0  0  0  0  0  0
   56.5610   30.2770   42.4970 O   0  0  0  0  0  0  0  0  0  0  0  0
   57.6320   28.9780   44.5570 C   0  0  0  0  0  0  0  0  0  0  0  0
   58.9500   29.4490   44.5570 C   0  0  0  0  0  0  0  0  0  0  0  0
   59.9810   28.6450   45.0470 C   0  0  0  0  0  0  0  0  0  0  0  0
   59.7020   27.3660   45.5360 C   0  0  0  0  0  0  0  0  0  0  0  0
   58.3850   26.8710   45.5290 C   0  0  0  0  0  0  0  0  0  0  0  0
   58.0800   25.5140   46.0470 C   0  0  0  0  0  0  0  0  0  0  0  0
   57.5930   25.3830   47.2030 O   0  0  0  0  0  0  0  0  0  0  0  0
   58.3980   24.3320   45.2980 N   0  0  0  0  0  0  0  0  0  0  0  0
   57.5830   23.6300   44.5570 C   0  0  0  0  0  0  0  0  0  0  0  0
   56.3570   24.1420   44.0800 C   0  0  0  0  0  0  0  0  0  0  0  0
   55.5310   23.3300   43.2980 C   0  0  0  0  0  0  0  0  0  0  0  0
   55.9020   22.0540   43.0100 N   0  0  0  0  0  0  0  0  0  0  0  0
   57.0700   21.5320   43.4660 C   0  0  0  0  0  0  0  0  0  0  0  0
   57.9260   22.3070   44.2510 C   0  0  0  0  0  0  0  0  0  0  0  0
   57.3510   27.6910   45.0410 C   0  0  0  0  0  0  0  0  0  0  0  0
   58.1200   31.7950   46.4640 C   0  0  0  0  0  0  0  0  0  0  0  0
   59.2630   32.4430   46.9440 C   0  0  0  0  0  0  0  0  0  0  0  0
   61.0442   34.2180   47.8300 H   0  0  0  0  0  0  0  0  0  0  0  0
   61.9447   33.7007   46.3643 H   0  0  0  0  0  0  0  0  0  0  0  0
   61.0468   35.2564   46.3643 H   0  0  0  0  0  0  0  0  0  0  0  0
   59.6549   34.7606   44.4600 H   0  0  0  0  0  0  0  0  0  0  0  0
   57.6143   33.6083   43.6088 H   0  0  0  0  0  0  0  0  0  0  0  0
   59.1739   30.4542   44.1704 H   0  0  0  0  0  0  0  0  0  0  0  0
   61.0154   29.0193   45.0481 H   0  0  0  0  0  0  0  0  0  0  0  0
   60.5179   26.7417   45.9292 H   0  0  0  0  0  0  0  0  0  0  0  0
   56.0543   25.1715   44.3218 H   0  0  0  0  0  0  0  0  0  0  0  0
   54.5783   23.7242   42.9145 H   0  0  0  0  0  0  0  0  0  0  0  0
   57.3423   20.4959   43.2162 H   0  0  0  0  0  0  0  0  0  0  0  0
   58.8669   21.8798   44.6280 H   0  0  0  0  0  0  0  0  0  0  0  0
   56.3152   27.3208   45.0388 H   0  0  0  0  0  0  0  0  0  0  0  0
   57.6909   30.9552   47.0302 H   0  0  0  0  0  0  0  0  0  0  0  0
   59.7255   32.1135   47.8861 H   0  0  0  0  0  0  0  0  0  0  0  0
  1  2  1  0
  2  3  2  0
  3  4  1  0
  4  5  2  0
  5  6  1  0
  6  7  1  0
  7  8  2  0
  7  9  2  0
  7 10  1  0
 10 11  2  0
 11 12  1  0
 12 13  2  0
 13 14  1  0
 14 15  1  0
 15 16  2  0
 15 17  1  0
 17 18  2  3
 18 19  1  0
 19 20  2  0
 20 21  1  0
 21 22  1  0
 22 23  2  0
 14 24  2  0
  5 25  1  0
 25 26  2  0
 26  2  1  0
 24 10  1  0
 23 18  1  0
  1 27  1  0
  1 28  1  0
  1 29  1  0
  3 30  1  0
  4 31  1  0
 11 32  1  0
 12 33  1  0
 13 34  1  0
 19 35  1  0
 20 36  1  0
 22 37  1  0
 23 38  1  0
 24 39  1  0
 25 40  1  0
 26 41  1  0
M  CHG  2   6  -1  21  -1
M  END
>  <UniqueID>  (58) 
56

>  <SMILES>  (58) 
Cc1ccc([N-]S(=O)(=O)c2cccc(C(=O)N=c3cc[n-]cc3)c2)cc1

>  <Energy>  (58) 
57.46868499471609

>  <Genealogy>  (58) 
Cc1ccc([N-]S(=O)(=O)c2cccc(C(=O)N=c3cc[n-]cc3)c2)cc1 (protonated)
Cc1ccc([N-]S(=O)(=O)c2cccc(C(=O)N=c3cc[n-]cc3)c2)cc1 (3D coordinates assigned)
Cc1ccc([N-]S(=O)(=O)c2cccc(C(=O)N=c3cc[n-]cc3)c2)cc1 (optimized conformer: 57.46868499471609 kcal/mol)

>  <smiles>  (58) 
Cc1ccc(NS(=O)(=O)c2cccc(C(=O)N=c3cc[nH]cc3)c2)cc1

>  <score_type>  (58) 
oracle

>  <origin>  (58) 
adg

>  <m_score__min__energy>  (58) 
-11.74

>  <m_primary>  (58) 
energy

$$$$
58:0
     RDKit          3D

 47 50  0  0  0  0  0  0  0  0999 V2000
   62.4490   34.8540   49.2710 H   0  0  0  0  0  0  0  0  0  0  0  0
   61.7040   34.6910   48.6090 O   0  0  0  0  0  0  0  0  0  0  0  0
   60.6100   33.8490   48.8330 C   0  0  0  0  0  0  0  0  0  0  0  0
   60.3950   33.4010   50.1470 C   0  0  0  0  0  0  0  0  0  0  0  0
   61.3020   33.8390   51.1730 N   0  0  0  0  0  0  0  0  0  0  0  0
   62.5130   34.1570   50.9420 N   0  0  0  0  0  0  0  0  0  0  0  0
   63.5880   33.2170   51.0660 C   0  0  0  0  0  0  0  0  0  0  0  0
   63.8620   32.5770   52.2900 C   0  0  0  0  0  0  0  0  0  0  0  0
   63.2444   32.7973   53.1732 H   0  0  0  0  0  0  0  0  0  0  0  0
   64.9140   31.6640   52.3880 C   0  0  0  0  0  0  0  0  0  0  0  0
   65.1234   31.1675   53.3470 H   0  0  0  0  0  0  0  0  0  0  0  0
   65.7000   31.3810   51.2700 C   0  0  0  0  0  0  0  0  0  0  0  0
   66.5281   30.6614   51.3497 H   0  0  0  0  0  0  0  0  0  0  0  0
   65.4380   32.0090   50.0500 C   0  0  0  0  0  0  0  0  0  0  0  0
   66.0610   31.7821   49.1723 H   0  0  0  0  0  0  0  0  0  0  0  0
   64.3790   32.9320   49.9390 C   0  0  0  0  0  0  0  0  0  0  0  0
   64.0830   33.5840   48.7300 O   0  0  0  0  0  0  0  0  0  0  0  0
   63.7140   32.9200   47.5260 C   0  0  0  0  0  0  0  0  0  0  0  0
   63.1929   31.9823   47.7693 H   0  0  0  0  0  0  0  0  0  0  0  0
   63.0469   33.5686   46.9392 H   0  0  0  0  0  0  0  0  0  0  0  0
   64.6171   32.6960   46.9392 H   0  0  0  0  0  0  0  0  0  0  0  0
   59.3040   32.5470   50.4130 C   0  0  0  0  0  0  0  0  0  0  0  0
   59.0760   32.1240   51.5770 O   0  0  0  0  0  0  0  0  0  0  0  0
   58.4810   32.1650   49.4060 N   0  0  0  0  0  0  0  0  0  0  0  0
   58.6580   32.5780   48.1250 C   0  0  0  0  0  0  0  0  0  0  0  0
   57.7680   32.1460   47.1360 C   0  0  0  0  0  0  0  0  0  0  0  0
   56.9300   31.4872   47.4076 H   0  0  0  0  0  0  0  0  0  0  0  0
   57.9330   32.5430   45.8070 C   0  0  0  0  0  0  0  0  0  0  0  0
   56.9820   32.0920   44.8320 N   0  0  0  0  0  0  0  0  0  0  0  0
   57.1030   30.9380   43.9860 C   0  0  0  0  0  0  0  0  0  0  0  0
   57.1470   31.0810   42.7360 O   0  0  0  0  0  0  0  0  0  0  0  0
   57.2330   29.5860   44.5940 C   0  0  0  0  0  0  0  0  0  0  0  0
   58.5110   29.0190   44.7650 C   0  0  0  0  0  0  0  0  0  0  0  0
   59.4021   29.5797   44.4464 H   0  0  0  0  0  0  0  0  0  0  0  0
   58.6590   27.7520   45.3350 C   0  0  0  0  0  0  0  0  0  0  0  0
   59.6635   27.3221   45.4622 H   0  0  0  0  0  0  0  0  0  0  0  0
   57.5380   27.0310   45.7430 C   0  0  0  0  0  0  0  0  0  0  0  0
   57.6588   26.0330   46.1896 H   0  0  0  0  0  0  0  0  0  0  0  0
   56.2620   27.5750   45.5850 C   0  0  0  0  0  0  0  0  0  0  0  0
   55.1500   26.8500   45.9980 O   0  0  0  0  0  0  0  0  0  0  0  0
   56.1010   28.8460   45.0150 C   0  0  0  0  0  0  0  0  0  0  0  0
   54.8150   29.3580   44.8760 O   0  0  0  0  0  0  0  0  0  0  0  0
   58.9790   33.4190   45.4770 C   0  0  0  0  0  0  0  0  0  0  0  0
   59.0957   33.7629   44.4387 H   0  0  0  0  0  0  0  0  0  0  0  0
   59.8740   33.8580   46.4580 C   0  0  0  0  0  0  0  0  0  0  0  0
   60.6958   34.5353   46.1825 H   0  0  0  0  0  0  0  0  0  0  0  0
   59.7320   33.4400   47.7970 C   0  0  0  0  0  0  0  0  0  0  0  0
  1  2  1  0
  2  3  1  0
  3  4  2  0
  4  5  1  0
  5  6  2  0
  6  7  1  0
  7  8  2  0
  8  9  1  0
  8 10  1  0
 10 11  1  0
 10 12  2  0
 12 13  1  0
 12 14  1  0
 14 15  1  0
 14 16  2  0
 16 17  1  0
 17 18  1  0
 18 19  1  0
 18 20  1  0
 18 21  1  0
  4 22  1  0
 22 23  2  0
 22 24  1  0
 24 25  1  0
 25 26  2  0
 26 27  1  0
 26 28  1  0
 28 29  1  0
 29 30  1  0
 30 31  2  0
 30 32  1  0
 32 33  2  0
 33 34  1  0
 33 35  1  0
 35 36  1  0
 35 37  2  0
 37 38  1  0
 37 39  1  0
 39 40  1  0
 39 41  2  0
 41 42  1  0
 28 43  2  0
 43 44  1  0
 43 45  1  0
 45 46  1  0
 45 47  2  0
 47  3  1  0
 16  7  1  0
 47 25  1  0
 41 32  1  0
M  CHG  4  24  -1  29  -1  40  -1  42  -1
M  END
>  <UniqueID>  (59) 
57

>  <SMILES>  (59) 
COc1ccccc1/N=N/c1c(O)c2ccc([N-]C(=O)c3cccc([O-])c3[O-])cc2[n-]c1=O

>  <Energy>  (59) 
66.9800900086075

>  <Genealogy>  (59) 
COc1ccccc1N=Nc1c(O)c2ccc([N-]C(=O)c3cccc([O-])c3[O-])cc2[n-]c1=O (protonated)
COc1ccccc1/N=N/c1c(O)c2ccc([N-]C(=O)c3cccc([O-])c3[O-])cc2[n-]c1=O (cis-trans isomerization)
COc1ccccc1/N=N/c1c(O)c2ccc([N-]C(=O)c3cccc([O-])c3[O-])cc2[n-]c1=O (3D coordinates assigned)
COc1ccccc1/N=N/c1c(O)c2ccc([N-]C(=O)c3cccc([O-])c3[O-])cc2[n-]c1=O (optimized conformer: 66.9800900086075 kcal/mol)

>  <smiles>  (59) 
COc1ccccc1N=Nc1c(O)c2ccc(NC(=O)c3cccc(O)c3O)cc2[nH]c1=O

>  <score_type>  (59) 
oracle

>  <origin>  (59) 
adg

>  <m_score__min__energy>  (59) 
-18.27

>  <m_primary>  (59) 
energy

$$$$
59:0
     RDKit          3D

 58 61  0  0  0  0  0  0  0  0999 V2000
   53.1820   23.0640   46.2640 C   0  0  0  0  0  0  0  0  0  0  0  0
   53.8400   23.7330   45.1930 O   0  0  0  0  0  0  0  0  0  0  0  0
   55.1790   24.1540   45.2240 C   0  0  0  0  0  0  0  0  0  0  0  0
   56.2420   23.2940   44.8890 C   0  0  0  0  0  0  0  0  0  0  0  0
   57.5580   23.7540   44.9330 C   0  0  0  0  0  0  0  0  0  0  0  0
   57.8300   25.0700   45.3060 C   0  0  0  0  0  0  0  0  0  0  0  0
   56.7870   25.9440   45.6530 C   0  0  0  0  0  0  0  0  0  0  0  0
   57.1000   27.3410   46.0350 C   0  0  0  0  0  0  0  0  0  0  0  0
   56.4200   28.2870   45.5500 O   0  0  0  0  0  0  0  0  0  0  0  0
   58.1890   27.6390   46.9320 N   0  0  0  0  0  0  0  0  0  0  0  0
   58.9060   26.5130   47.5460 C   0  0  0  0  0  0  0  0  0  0  0  0
   60.4070   26.6380   47.2720 C   0  0  0  0  0  0  0  0  0  0  0  0
   60.9530   27.8200   47.8560 O   0  0  0  0  0  0  0  0  0  0  0  0
   60.3370   28.4720   48.9270 C   0  0  0  0  0  0  0  0  0  0  0  0
   60.9610   28.4400   50.1790 C   0  0  0  0  0  0  0  0  0  0  0  0
   60.3930   29.1030   51.2650 C   0  0  0  0  0  0  0  0  0  0  0  0
   59.1860   29.7810   51.1120 C   0  0  0  0  0  0  0  0  0  0  0  0
   58.5370   29.7950   49.8740 C   0  0  0  0  0  0  0  0  0  0  0  0
   59.1090   29.1570   48.7480 C   0  0  0  0  0  0  0  0  0  0  0  0
   58.3620   29.0350   47.4060 C   0  0  1  0  0  0  0  0  0  0  0  0
   58.9080   29.9160   46.2510 C   0  0  0  0  0  0  0  0  0  0  0  0
   58.3150   31.2960   46.1350 C   0  0  0  0  0  0  0  0  0  0  0  0
   57.3790   31.4800   45.3100 O   0  0  0  0  0  0  0  0  0  0  0  0
   58.8140   32.3970   46.9060 N   0  0  0  0  0  0  0  0  0  0  0  0
   60.2040   32.7000   47.1120 C   0  0  0  0  0  0  0  0  0  0  0  0
   61.0340   31.8110   47.8210 C   0  0  0  0  0  0  0  0  0  0  0  0
   62.3920   32.0860   47.9860 C   0  0  0  0  0  0  0  0  0  0  0  0
   62.9480   33.2420   47.4300 C   0  0  0  0  0  0  0  0  0  0  0  0
   64.3040   33.5220   47.5840 O   0  0  0  0  0  0  0  0  0  0  0  0
   62.1390   34.1220   46.7060 C   0  0  0  0  0  0  0  0  0  0  0  0
   60.7660   33.8650   46.5450 C   0  0  0  0  0  0  0  0  0  0  0  0
   59.9350   34.8120   45.7250 C   0  0  0  0  0  0  0  0  0  0  0  0
   55.4560   25.4760   45.6060 C   0  0  0  0  0  0  0  0  0  0  0  0
   54.4000   26.3150   45.9500 O   0  0  0  0  0  0  0  0  0  0  0  0
   53.5595   23.4479   47.2232 H   0  0  0  0  0  0  0  0  0  0  0  0
   52.0987   23.2435   46.1981 H   0  0  0  0  0  0  0  0  0  0  0  0
   53.3794   21.9839   46.1981 H   0  0  0  0  0  0  0  0  0  0  0  0
   56.0340   22.2556   44.5915 H   0  0  0  0  0  0  0  0  0  0  0  0
   58.3844   23.0763   44.6725 H   0  0  0  0  0  0  0  0  0  0  0  0
   58.8704   25.4264   45.3286 H   0  0  0  0  0  0  0  0  0  0  0  0
   58.7320   26.5188   48.6321 H   0  0  0  0  0  0  0  0  0  0  0  0
   58.5368   25.5708   47.1147 H   0  0  0  0  0  0  0  0  0  0  0  0
   60.9207   25.7617   47.6941 H   0  0  0  0  0  0  0  0  0  0  0  0
   60.5536   26.6940   46.1832 H   0  0  0  0  0  0  0  0  0  0  0  0
   61.9044   27.8889   50.3065 H   0  0  0  0  0  0  0  0  0  0  0  0
   60.8975   29.0909   52.2424 H   0  0  0  0  0  0  0  0  0  0  0  0
   58.7415   30.3078   51.9692 H   0  0  0  0  0  0  0  0  0  0  0  0
   57.5694   30.3085   49.7739 H   0  0  0  0  0  0  0  0  0  0  0  0
   57.3733   29.4381   47.6704 H   0  0  0  0  0  0  0  0  0  0  0  0
   59.9927   30.0271   46.3965 H   0  0  0  0  0  0  0  0  0  0  0  0
   58.6289   29.3947   45.3234 H   0  0  0  0  0  0  0  0  0  0  0  0
   60.6082   30.8914   48.2487 H   0  0  0  0  0  0  0  0  0  0  0  0
   63.0270   31.3912   48.5552 H   0  0  0  0  0  0  0  0  0  0  0  0
   65.0080   32.7980   47.5040 H   0  0  0  0  0  0  0  0  0  0  0  0
   62.5805   35.0243   46.2578 H   0  0  0  0  0  0  0  0  0  0  0  0
   59.3592   35.4682   46.3942 H   0  0  0  0  0  0  0  0  0  0  0  0
   60.5940   35.4228   45.0904 H   0  0  0  0  0  0  0  0  0  0  0  0
   59.2438   34.2380   45.0904 H   0  0  0  0  0  0  0  0  0  0  0  0
  1  2  1  0
  2  3  1  0
  3  4  2  0
  4  5  1  0
  5  6  2  0
  6  7  1  0
  7  8  1  0
  8  9  2  0
  8 10  1  0
 10 11  1  0
 11 12  1  0
 12 13  1  0
 13 14  1  0
 14 15  2  0
 15 16  1  0
 16 17  2  0
 17 18  1  0
 18 19  2  0
 19 20  1  0
 20 21  1  0
 21 22  1  0
 22 23  2  0
 22 24  1  0
 24 25  1  0
 25 26  2  0
 26 27  1  0
 27 28  2  0
 28 29  1  0
 28 30  1  0
 30 31  2  0
 31 32  1  0
  7 33  2  0
 33 34  1  0
 33  3  1  0
 20 10  1  0
 31 25  1  0
 19 14  1  0
  1 35  1  0
  1 36  1  0
  1 37  1  0
  4 38  1  0
  5 39  1  0
  6 40  1  0
 11 41  1  0
 11 42  1  0
 12 43  1  0
 12 44  1  0
 15 45  1  0
 16 46  1  0
 17 47  1  0
 18 48  1  0
 20 49  1  1
 21 50  1  0
 21 51  1  0
 26 52  1  0
 27 53  1  0
 29 54  1  0
 30 55  1  0
 32 56  1  0
 32 57  1  0
 32 58  1  0
M  CHG  2  24  -1  34  -1
M  END
>  <UniqueID>  (60) 
58

>  <SMILES>  (60) 
COc1cccc(C(=O)N2CCOc3ccccc3[C@H]2CC(=O)[N-]c2ccc(O)cc2C)c1[O-]

>  <Energy>  (60) 
85.28380341187784

>  <Genealogy>  (60) 
COc1cccc(C(=O)N2CCOc3ccccc3C2CC(=O)[N-]c2ccc(O)cc2C)c1[O-] (protonated)
COc1cccc(C(=O)N2CCOc3ccccc3[C@H]2CC(=O)[N-]c2ccc(O)cc2C)c1[O-] (chirality)
COc1cccc(C(=O)N2CCOc3ccccc3[C@H]2CC(=O)[N-]c2ccc(O)cc2C)c1[O-] (3D coordinates assigned)
COc1cccc(C(=O)N2CCOc3ccccc3[C@H]2CC(=O)[N-]c2ccc(O)cc2C)c1[O-] (nonaromatic ring conformer: 85.28380341187784 kcal/mol)

>  <smiles>  (60) 
COc1cccc(C(=O)N2CCOc3ccccc3C2CC(=O)Nc2ccc(O)cc2C)c1O

>  <score_type>  (60) 
oracle

>  <origin>  (60) 
adg

>  <m_score__min__energy>  (60) 
-11.75

>  <m_primary>  (60) 
energy

$$$$
60:0
     RDKit          3D

 50 52  0  0  0  0  0  0  0  0999 V2000
   55.8880   24.1330   44.8770 C   0  0  0  0  0  0  0  0  0  0  0  0
   54.8520   24.9120   45.6140 C   0  0  0  0  0  0  0  0  0  0  0  0
   53.7960   24.3380   45.9930 O   0  0  0  0  0  0  0  0  0  0  0  0
   55.1180   26.2730   45.9750 N   0  0  0  0  0  0  0  0  0  0  0  0
   56.4090   26.8760   46.1420 C   0  0  0  0  0  0  0  0  0  0  0  0
   57.2840   26.3380   47.0920 C   0  0  0  0  0  0  0  0  0  0  0  0
   58.5580   26.8850   47.2750 C   0  0  0  0  0  0  0  0  0  0  0  0
   58.9710   27.9850   46.5070 C   0  0  0  0  0  0  0  0  0  0  0  0
   60.2840   28.5410   46.6500 N   0  0  0  0  0  0  0  0  0  0  0  0
   60.6420   29.6460   47.4900 C   0  0  0  0  0  0  0  0  0  0  0  0
   60.5920   29.4910   48.7390 O   0  0  0  0  0  0  0  0  0  0  0  0
   61.2380   30.9090   46.9150 C   0  0  0  0  0  0  0  0  0  0  0  0
   60.1640   31.8540   46.4010 C   0  0  0  0  0  0  0  0  0  0  0  0
   58.9380   31.2930   46.0360 C   0  0  0  0  0  0  0  0  0  0  0  0
   57.9150   32.1110   45.5840 C   0  0  0  0  0  0  0  0  0  0  0  0
   56.8230   31.5840   45.2340 O   0  0  0  0  0  0  0  0  0  0  0  0
   58.0940   33.4640   45.5190 N   0  0  0  0  0  0  0  0  0  0  0  0
   57.0140   34.3270   45.0080 C   0  0  0  0  0  0  0  0  0  0  0  0
   59.3070   34.0110   45.8560 C   0  0  0  0  0  0  0  0  0  0  0  0
   59.4780   35.2590   45.7410 O   0  0  0  0  0  0  0  0  0  0  0  0
   60.3380   33.2200   46.3150 N   0  0  0  0  0  0  0  0  0  0  0  0
   61.6160   33.8790   46.6720 C   0  0  0  0  0  0  0  0  0  0  0  0
   61.8560   33.8360   48.1640 C   0  0  0  0  0  0  0  0  0  0  0  0
   60.7770   33.8400   49.0670 C   0  0  0  0  0  0  0  0  0  0  0  0
   61.0110   33.8210   50.4450 C   0  0  0  0  0  0  0  0  0  0  0  0
   62.3200   33.8060   50.9340 C   0  0  0  0  0  0  0  0  0  0  0  0
   63.3970   33.8130   50.0460 C   0  0  0  0  0  0  0  0  0  0  0  0
   63.1690   33.8310   48.6660 C   0  0  0  0  0  0  0  0  0  0  0  0
   58.1190   28.4880   45.5170 C   0  0  0  0  0  0  0  0  0  0  0  0
   56.8450   27.9430   45.3350 C   0  0  0  0  0  0  0  0  0  0  0  0
   56.5525   23.6334   45.5973 H   0  0  0  0  0  0  0  0  0  0  0  0
   55.3981   23.3776   44.2450 H   0  0  0  0  0  0  0  0  0  0  0  0
   56.4777   24.8133   44.2450 H   0  0  0  0  0  0  0  0  0  0  0  0
   56.9672   25.4777   47.6999 H   0  0  0  0  0  0  0  0  0  0  0  0
   59.2384   26.4520   48.0230 H   0  0  0  0  0  0  0  0  0  0  0  0
   61.8164   31.4194   47.6992 H   0  0  0  0  0  0  0  0  0  0  0  0
   61.8826   30.6296   46.0686 H   0  0  0  0  0  0  0  0  0  0  0  0
   58.7852   30.2060   46.1071 H   0  0  0  0  0  0  0  0  0  0  0  0
   56.4644   34.7662   45.8536 H   0  0  0  0  0  0  0  0  0  0  0  0
   57.4464   35.1311   44.3945 H   0  0  0  0  0  0  0  0  0  0  0  0
   56.3251   33.7278   44.3945 H   0  0  0  0  0  0  0  0  0  0  0  0
   62.4413   33.3617   46.1609 H   0  0  0  0  0  0  0  0  0  0  0  0
   61.5642   34.9320   46.3581 H   0  0  0  0  0  0  0  0  0  0  0  0
   59.7449   33.8582   48.6870 H   0  0  0  0  0  0  0  0  0  0  0  0
   60.1631   33.8178   51.1458 H   0  0  0  0  0  0  0  0  0  0  0  0
   62.5017   33.7887   52.0188 H   0  0  0  0  0  0  0  0  0  0  0  0
   64.4270   33.8043   50.4322 H   0  0  0  0  0  0  0  0  0  0  0  0
   64.0211   33.8413   47.9704 H   0  0  0  0  0  0  0  0  0  0  0  0
   58.4544   29.3180   44.8778 H   0  0  0  0  0  0  0  0  0  0  0  0
   56.1808   28.3496   44.5581 H   0  0  0  0  0  0  0  0  0  0  0  0
  1  2  1  0
  2  3  2  0
  2  4  1  0
  4  5  1  0
  5  6  2  0
  6  7  1  0
  7  8  2  0
  8  9  1  0
  9 10  1  0
 10 11  2  0
 10 12  1  0
 12 13  1  0
 13 14  2  0
 14 15  1  0
 15 16  2  0
 15 17  1  0
 17 18  1  0
 17 19  1  0
 19 20  2  0
 19 21  1  0
 21 22  1  0
 22 23  1  0
 23 24  2  0
 24 25  1  0
 25 26  2  0
 26 27  1  0
 27 28  2  0
  8 29  1  0
 29 30  2  0
 30  5  1  0
 21 13  1  0
 28 23  1  0
  1 31  1  0
  1 32  1  0
  1 33  1  0
  6 34  1  0
  7 35  1  0
 12 36  1  0
 12 37  1  0
 14 38  1  0
 18 39  1  0
 18 40  1  0
 18 41  1  0
 22 42  1  0
 22 43  1  0
 24 44  1  0
 25 45  1  0
 26 46  1  0
 27 47  1  0
 28 48  1  0
 29 49  1  0
 30 50  1  0
M  CHG  2   4  -1   9  -1
M  END
>  <UniqueID>  (61) 
59

>  <SMILES>  (61) 
CC(=O)[N-]c1ccc([N-]C(=O)Cc2cc(=O)n(C)c(=O)n2Cc2ccccc2)cc1

>  <Energy>  (61) 
69.40796837541608

>  <Genealogy>  (61) 
CC(=O)[N-]c1ccc([N-]C(=O)Cc2cc(=O)n(C)c(=O)n2Cc2ccccc2)cc1 (protonated)
CC(=O)[N-]c1ccc([N-]C(=O)Cc2cc(=O)n(C)c(=O)n2Cc2ccccc2)cc1 (3D coordinates assigned)
CC(=O)[N-]c1ccc([N-]C(=O)Cc2cc(=O)n(C)c(=O)n2Cc2ccccc2)cc1 (optimized conformer: 69.40796837541608 kcal/mol)

>  <smiles>  (61) 
CC(=O)Nc1ccc(NC(=O)Cc2cc(=O)n(C)c(=O)n2Cc2ccccc2)cc1

>  <score_type>  (61) 
oracle

>  <origin>  (61) 
adg

>  <m_score__min__energy>  (61) 
-11.35

>  <m_primary>  (61) 
energy

$$$$
61:0
     RDKit          3D

 46 48  0  0  0  0  0  0  0  0999 V2000
   58.8850   33.8310   43.9860 O   0  0  0  0  0  0  0  0  0  0  0  0
   57.9910   33.1070   44.5020 C   0  0  0  0  0  0  0  0  0  0  0  0
   57.4590   31.9320   43.7370 C   0  0  0  0  0  0  0  0  0  0  0  0
   56.4510   31.2090   44.5160 N   0  0  0  0  0  0  0  0  0  0  0  0
   56.7470   29.4920   44.4970 S   0  0  0  0  0  0  0  0  0  0  0  0
   57.0160   29.0610   43.0840 O   0  0  0  0  0  0  0  0  0  0  0  0
   55.5180   28.7870   44.9940 O   0  0  0  0  0  0  0  0  0  0  0  0
   58.1630   29.0960   45.4900 C   0  0  0  0  0  0  0  0  0  0  0  0
   59.0210   30.1440   45.8590 C   0  0  0  0  0  0  0  0  0  0  0  0
   60.1200   29.9100   46.6870 C   0  0  0  0  0  0  0  0  0  0  0  0
   60.3780   28.6220   47.1550 C   0  0  0  0  0  0  0  0  0  0  0  0
   59.5480   27.5630   46.7830 C   0  0  0  0  0  0  0  0  0  0  0  0
   58.4460   27.7810   45.9390 C   0  0  0  0  0  0  0  0  0  0  0  0
   57.6350   26.6150   45.5360 C   0  0  0  0  0  0  0  0  0  0  0  0
   57.9340   25.9180   44.3540 C   0  0  0  0  0  0  0  0  0  0  0  0
   57.1680   24.8100   43.9800 C   0  0  0  0  0  0  0  0  0  0  0  0
   56.1060   24.3880   44.7850 C   0  0  0  0  0  0  0  0  0  0  0  0
   55.8080   25.0740   45.9670 C   0  0  0  0  0  0  0  0  0  0  0  0
   56.5730   26.1820   46.3450 C   0  0  0  0  0  0  0  0  0  0  0  0
   57.4920   33.3970   45.8140 N   0  0  0  0  0  0  0  0  0  0  0  0
   58.1610   34.3340   46.7120 C   0  0  0  0  0  0  0  0  0  0  0  0
   59.5280   33.8150   47.0720 C   0  0  0  0  0  0  0  0  0  0  0  0
   60.6430   34.1940   46.3070 C   0  0  0  0  0  0  0  0  0  0  0  0
   61.9210   33.7480   46.6550 C   0  0  0  0  0  0  0  0  0  0  0  0
   62.0970   32.9250   47.7720 C   0  0  0  0  0  0  0  0  0  0  0  0
   63.7000   32.3590   48.2000 Cl  0  0  0  0  0  0  0  0  0  0  0  0
   60.9920   32.5520   48.5450 C   0  0  0  0  0  0  0  0  0  0  0  0
   59.7120   32.9980   48.2000 C   0  0  0  0  0  0  0  0  0  0  0  0
   57.0027   32.2888   42.8019 H   0  0  0  0  0  0  0  0  0  0  0  0
   58.2930   31.2473   43.5232 H   0  0  0  0  0  0  0  0  0  0  0  0
   58.8248   31.1619   45.4911 H   0  0  0  0  0  0  0  0  0  0  0  0
   60.7824   30.7413   46.9703 H   0  0  0  0  0  0  0  0  0  0  0  0
   61.2366   28.4402   47.8181 H   0  0  0  0  0  0  0  0  0  0  0  0
   59.7585   26.5490   47.1539 H   0  0  0  0  0  0  0  0  0  0  0  0
   58.7725   26.2445   43.7213 H   0  0  0  0  0  0  0  0  0  0  0  0
   57.4013   24.2694   43.0508 H   0  0  0  0  0  0  0  0  0  0  0  0
   55.5044   23.5160   44.4888 H   0  0  0  0  0  0  0  0  0  0  0  0
   54.9716   24.7418   46.5995 H   0  0  0  0  0  0  0  0  0  0  0  0
   56.3418   26.7155   47.2788 H   0  0  0  0  0  0  0  0  0  0  0  0
   56.6640   32.8700   46.1710 H   0  0  0  0  0  0  0  0  0  0  0  0
   58.2613   35.3089   46.2124 H   0  0  0  0  0  0  0  0  0  0  0  0
   57.5636   34.4446   47.6290 H   0  0  0  0  0  0  0  0  0  0  0  0
   60.5100   34.8447   45.4301 H   0  0  0  0  0  0  0  0  0  0  0  0
   62.7899   34.0448   46.0493 H   0  0  0  0  0  0  0  0  0  0  0  0
   61.1301   31.9071   49.4253 H   0  0  0  0  0  0  0  0  0  0  0  0
   58.8465   32.7081   48.8139 H   0  0  0  0  0  0  0  0  0  0  0  0
  1  2  2  0
  2  3  1  0
  3  4  1  0
  4  5  1  0
  5  6  2  0
  5  7  2  0
  5  8  1  0
  8  9  2  0
  9 10  1  0
 10 11  2  0
 11 12  1  0
 12 13  2  0
 13 14  1  0
 14 15  2  0
 15 16  1  0
 16 17  2  0
 17 18  1  0
 18 19  2  0
  2 20  1  0
 20 21  1  0
 21 22  1  0
 22 23  2  0
 23 24  1  0
 24 25  2  0
 25 26  1  0
 25 27  1  0
 27 28  2  0
 13  8  1  0
 19 14  1  0
 28 22  1  0
  3 29  1  0
  3 30  1  0
  9 31  1  0
 10 32  1  0
 11 33  1  0
 12 34  1  0
 15 35  1  0
 16 36  1  0
 17 37  1  0
 18 38  1  0
 19 39  1  0
 20 40  1  0
 21 41  1  0
 21 42  1  0
 23 43  1  0
 24 44  1  0
 27 45  1  0
 28 46  1  0
M  CHG  1   4  -1
M  END
>  <UniqueID>  (62) 
60

>  <SMILES>  (62) 
O=C(C[N-]S(=O)(=O)c1ccccc1-c1ccccc1)NCc1ccc(Cl)cc1

>  <Energy>  (62) 
48.499810470431505

>  <Genealogy>  (62) 
O=C(C[N-]S(=O)(=O)c1ccccc1-c1ccccc1)NCc1ccc(Cl)cc1 (protonated)
O=C(C[N-]S(=O)(=O)c1ccccc1-c1ccccc1)NCc1ccc(Cl)cc1 (3D coordinates assigned)
O=C(C[N-]S(=O)(=O)c1ccccc1-c1ccccc1)NCc1ccc(Cl)cc1 (optimized conformer: 48.499810470431505 kcal/mol)

>  <smiles>  (62) 
O=C(CNS(=O)(=O)c1ccccc1-c1ccccc1)NCc1ccc(Cl)cc1

>  <score_type>  (62) 
oracle

>  <origin>  (62) 
adg

>  <m_score__min__energy>  (62) 
-10.630000000000001

>  <m_primary>  (62) 
energy

$$$$
62:0
     RDKit          3D

 43 45  0  0  0  0  0  0  0  0999 V2000
   51.8520   24.0800   43.7390 C   0  0  0  0  0  0  0  0  0  0  0  0
   52.3020   24.2050   45.1900 C   0  0  0  0  0  0  0  0  0  0  0  0
   53.6840   24.6750   45.2510 N   0  0  0  0  0  0  0  0  0  0  0  0
   54.0310   25.8890   45.6440 N   0  0  0  0  0  0  0  0  0  0  0  0
   55.3790   25.9450   45.6330 C   0  0  0  0  0  0  0  0  0  0  0  0
   56.0990   27.1300   45.9990 N   0  0  0  0  0  0  0  0  0  0  0  0
   57.2850   27.6560   45.3850 C   0  0  0  0  0  0  0  0  0  0  0  0
   58.3740   27.0240   45.4580 O   0  0  0  0  0  0  0  0  0  0  0  0
   57.2310   28.9450   44.6560 C   0  0  0  0  0  0  0  0  0  0  0  0
   56.6630   29.0210   43.3740 C   0  0  0  0  0  0  0  0  0  0  0  0
   56.6150   30.2060   42.7100 N   0  0  0  0  0  0  0  0  0  0  0  0
   57.1090   31.3500   43.2530 C   0  0  0  0  0  0  0  0  0  0  0  0
   57.6870   31.3380   44.5330 C   0  0  0  0  0  0  0  0  0  0  0  0
   58.2150   32.5480   45.1190 N   0  0  0  0  0  0  0  0  0  0  0  0
   58.0630   32.8050   46.5600 C   0  0  0  0  0  0  0  0  0  0  0  0
   59.2540   33.6110   47.0870 C   0  0  0  0  0  0  0  0  0  0  0  0
   59.4740   34.9250   46.3120 C   0  0  0  0  0  0  0  0  0  0  0  0
   58.8090   34.9450   44.9240 C   0  0  0  0  0  0  0  0  0  0  0  0
   58.8410   33.5660   44.2580 C   0  0  0  0  0  0  0  0  0  0  0  0
   57.7430   30.1200   45.2280 C   0  0  0  0  0  0  0  0  0  0  0  0
   55.9140   24.7260   45.2350 C   0  0  0  0  0  0  0  0  0  0  0  0
   54.7960   23.9560   45.0120 C   0  0  0  0  0  0  0  0  0  0  0  0
   54.8010   22.7520   44.6450 O   0  0  0  0  0  0  0  0  0  0  0  0
   50.7926   23.7857   43.7077 H   0  0  0  0  0  0  0  0  0  0  0  0
   51.9790   25.0474   43.2311 H   0  0  0  0  0  0  0  0  0  0  0  0
   52.4597   23.3167   43.2311 H   0  0  0  0  0  0  0  0  0  0  0  0
   51.6510   24.9219   45.7118 H   0  0  0  0  0  0  0  0  0  0  0  0
   52.2368   23.2185   45.6722 H   0  0  0  0  0  0  0  0  0  0  0  0
   56.2538   28.1147   42.9036 H   0  0  0  0  0  0  0  0  0  0  0  0
   56.1890   30.2380   41.7570 H   0  0  0  0  0  0  0  0  0  0  0  0
   57.0557   32.2913   42.6863 H   0  0  0  0  0  0  0  0  0  0  0  0
   57.1367   33.3731   46.7312 H   0  0  0  0  0  0  0  0  0  0  0  0
   58.0200   31.8429   47.0915 H   0  0  0  0  0  0  0  0  0  0  0  0
   59.0747   33.8525   48.1451 H   0  0  0  0  0  0  0  0  0  0  0  0
   60.1555   32.9943   46.9571 H   0  0  0  0  0  0  0  0  0  0  0  0
   59.0600   35.7524   46.9071 H   0  0  0  0  0  0  0  0  0  0  0  0
   60.5575   35.0246   46.1502 H   0  0  0  0  0  0  0  0  0  0  0  0
   57.7617   35.2623   45.0355 H   0  0  0  0  0  0  0  0  0  0  0  0
   59.3687   35.6455   44.2868 H   0  0  0  0  0  0  0  0  0  0  0  0
   58.2955   33.6148   43.3040 H   0  0  0  0  0  0  0  0  0  0  0  0
   59.8905   33.2835   44.0885 H   0  0  0  0  0  0  0  0  0  0  0  0
   58.1928   30.0859   46.2313 H   0  0  0  0  0  0  0  0  0  0  0  0
   56.9719   24.4455   45.1252 H   0  0  0  0  0  0  0  0  0  0  0  0
  1  2  1  0
  2  3  1  0
  3  4  1  0
  4  5  1  0
  5  6  1  0
  6  7  1  0
  7  8  2  0
  7  9  1  0
  9 10  2  0
 10 11  1  0
 11 12  2  0
 12 13  1  0
 13 14  1  0
 14 15  1  0
 15 16  1  0
 16 17  1  0
 17 18  1  0
 18 19  1  0
 13 20  2  0
  5 21  2  0
 21 22  1  0
 22 23  2  0
 22  3  1  0
 20  9  1  0
 19 14  1  0
  1 24  1  0
  1 25  1  0
  1 26  1  0
  2 27  1  0
  2 28  1  0
 10 29  1  0
 11 30  1  0
 12 31  1  0
 15 32  1  0
 15 33  1  0
 16 34  1  0
 16 35  1  0
 17 36  1  0
 17 37  1  0
 18 38  1  0
 18 39  1  0
 19 40  1  0
 19 41  1  0
 20 42  1  0
 21 43  1  0
M  CHG  3   4  -1   6  -1  11   1
M  END
>  <UniqueID>  (63) 
61

>  <SMILES>  (63) 
CCn1[n-]c([N-]C(=O)c2c[nH+]cc(N3CCCCC3)c2)cc1=O

>  <Energy>  (63) 
79.07273424397953

>  <Genealogy>  (63) 
CCn1[n-]c([N-]C(=O)c2c[nH+]cc(N3CCCCC3)c2)cc1=O (protonated)
CCn1[n-]c([N-]C(=O)c2c[nH+]cc(N3CCCCC3)c2)cc1=O (3D coordinates assigned)
CCn1[n-]c([N-]C(=O)c2c[nH+]cc(N3CCCCC3)c2)cc1=O (nonaromatic ring conformer: 79.07273424397953 kcal/mol)

>  <smiles>  (63) 
CCn1[nH]c(NC(=O)c2cncc(N3CCCCC3)c2)cc1=O

>  <score_type>  (63) 
oracle

>  <origin>  (63) 
adg

>  <m_score__min__energy>  (63) 
-10.08

>  <m_primary>  (63) 
energy

$$$$
63:0
     RDKit          3D

 59 63  0  0  0  0  0  0  0  0999 V2000
   55.0894   22.6130   48.2290 H   0  0  0  0  0  0  0  0  0  0  0  0
   55.6030   23.0770   47.3740 C   0  0  0  0  0  0  0  0  0  0  0  0
   55.2830   22.6940   46.1030 N   0  0  0  0  0  0  0  0  0  0  0  0
   55.9190   23.2770   45.0580 C   0  0  0  0  0  0  0  0  0  0  0  0
   56.8810   24.2370   45.2280 C   0  0  0  0  0  0  0  0  0  0  0  0
   57.3720   24.5220   43.9660 C   0  0  0  0  0  0  0  0  0  0  0  0
   58.1631   25.2411   43.7071 H   0  0  0  0  0  0  0  0  0  0  0  0
   56.6560   23.7090   43.0930 C   0  0  0  0  0  0  0  0  0  0  0  0
   56.7959   23.6876   42.0021 H   0  0  0  0  0  0  0  0  0  0  0  0
   55.7650   22.9490   43.7680 N   0  0  0  0  0  0  0  0  0  0  0  0
   55.1200   22.2320   43.3680 H   0  0  0  0  0  0  0  0  0  0  0  0
   57.2390   24.6730   46.5140 C   0  0  0  0  0  0  0  0  0  0  0  0
   58.2320   25.6290   46.7620 O   0  0  0  0  0  0  0  0  0  0  0  0
   58.1930   26.9450   46.3010 C   0  0  0  0  0  0  0  0  0  0  0  0
   59.3750   27.6800   46.2260 C   0  0  0  0  0  0  0  0  0  0  0  0
   60.3160   27.2485   46.5979 H   0  0  0  0  0  0  0  0  0  0  0  0
   59.3640   28.9280   45.6940 N   0  0  0  0  0  0  0  0  0  0  0  0
   58.2160   29.5280   45.2650 C   0  0  0  0  0  0  0  0  0  0  0  0
   58.2450   30.7180   44.7350 N   0  0  0  0  0  0  0  0  0  0  0  0
   57.7280   31.9000   45.3660 C   0  0  0  0  0  0  0  0  0  0  0  0
   56.5230   32.2190   45.1890 O   0  0  0  0  0  0  0  0  0  0  0  0
   58.6130   32.7830   46.1530 C   0  0  0  0  0  0  0  0  0  0  0  0
   58.0770   33.7400   47.0270 C   0  0  0  0  0  0  0  0  0  0  0  0
   56.9897   33.9022   47.0641 H   0  0  0  0  0  0  0  0  0  0  0  0
   58.9230   34.4880   47.8510 C   0  0  0  0  0  0  0  0  0  0  0  0
   58.4984   35.2292   48.5441 H   0  0  0  0  0  0  0  0  0  0  0  0
   60.3080   34.2970   47.7970 C   0  0  0  0  0  0  0  0  0  0  0  0
   60.9688   34.8736   48.4610 H   0  0  0  0  0  0  0  0  0  0  0  0
   60.8540   33.3710   46.8970 C   0  0  0  0  0  0  0  0  0  0  0  0
   62.3130   33.1900   46.8000 C   0  0  0  0  0  0  0  0  0  0  0  0
   62.9400   33.8100   45.9020 O   0  0  0  0  0  0  0  0  0  0  0  0
   63.0500   32.3420   47.6940 N   0  0  0  0  0  0  0  0  0  0  0  0
   62.5500   31.4690   48.5170 C   0  0  0  0  0  0  0  0  0  0  0  0
   63.0520   31.1790   49.7320 N   0  0  0  0  0  0  0  0  0  0  0  0
   62.2400   30.3120   50.2640 O   0  0  0  0  0  0  0  0  0  0  0  0
   61.2370   30.0340   49.4580 C   0  0  0  0  0  0  0  0  0  0  0  0
   60.1150   29.0660   49.7760 C   0  0  0  0  0  0  0  0  0  0  0  0
   60.5460   27.6250   49.4390 C   0  0  0  0  0  0  0  0  0  0  0  0
   60.7135   27.0650   50.3708 H   0  0  0  0  0  0  0  0  0  0  0  0
   59.7556   27.1335   48.8528 H   0  0  0  0  0  0  0  0  0  0  0  0
   61.4765   27.6482   48.8528 H   0  0  0  0  0  0  0  0  0  0  0  0
   58.8760   29.4300   48.9390 C   0  0  0  0  0  0  0  0  0  0  0  0
   58.0396   29.6757   49.6098 H   0  0  0  0  0  0  0  0  0  0  0  0
   59.1045   30.2990   48.3044 H   0  0  0  0  0  0  0  0  0  0  0  0
   58.5982   28.5755   48.3044 H   0  0  0  0  0  0  0  0  0  0  0  0
   59.7690   29.1470   51.2740 C   0  0  0  0  0  0  0  0  0  0  0  0
   60.6691   28.9363   51.8701 H   0  0  0  0  0  0  0  0  0  0  0  0
   59.4001   30.1558   51.5111 H   0  0  0  0  0  0  0  0  0  0  0  0
   58.9906   28.4068   51.5111 H   0  0  0  0  0  0  0  0  0  0  0  0
   61.3920   30.7630   48.2930 C   0  0  0  0  0  0  0  0  0  0  0  0
   60.7455   30.7750   47.4031 H   0  0  0  0  0  0  0  0  0  0  0  0
   60.0040   32.6220   46.0740 C   0  0  0  0  0  0  0  0  0  0  0  0
   60.4305   31.9019   45.3601 H   0  0  0  0  0  0  0  0  0  0  0  0
   56.9960   28.8500   45.4000 C   0  0  0  0  0  0  0  0  0  0  0  0
   55.8030   29.4490   45.0090 O   0  0  0  0  0  0  0  0  0  0  0  0
   56.9890   27.5470   45.9080 C   0  0  0  0  0  0  0  0  0  0  0  0
   56.0414   26.9958   45.9991 H   0  0  0  0  0  0  0  0  0  0  0  0
   56.5870   24.0630   47.6000 C   0  0  0  0  0  0  0  0  0  0  0  0
   56.8446   24.3551   48.6287 H   0  0  0  0  0  0  0  0  0  0  0  0
  1  2  1  0
  2  3  2  0
  3  4  1  0
  4  5  2  0
  5  6  1  0
  6  7  1  0
  6  8  2  0
  8  9  1  0
  8 10  1  0
 10 11  1  0
  5 12  1  0
 12 13  1  0
 13 14  1  0
 14 15  2  0
 15 16  1  0
 15 17  1  0
 17 18  1  0
 18 19  2  0
 19 20  1  0
 20 21  2  0
 20 22  1  0
 22 23  2  0
 23 24  1  0
 23 25  1  0
 25 26  1  0
 25 27  2  0
 27 28  1  0
 27 29  1  0
 29 30  1  0
 30 31  2  0
 30 32  1  0
 32 33  2  3
 33 34  1  0
 34 35  1  0
 35 36  1  0
 36 37  1  0
 37 38  1  0
 38 39  1  0
 38 40  1  0
 38 41  1  0
 37 42  1  0
 42 43  1  0
 42 44  1  0
 42 45  1  0
 37 46  1  0
 46 47  1  0
 46 48  1  0
 46 49  1  0
 36 50  2  0
 50 51  1  0
 29 52  2  0
 52 53  1  0
 18 54  1  0
 54 55  1  0
 54 56  2  0
 56 57  1  0
 12 58  2  0
 58 59  1  0
 58  2  1  0
 10  4  1  0
 56 14  1  0
 52 22  1  0
 50 33  1  0
M  CHG  3  17  -1  34  -1  55  -1
M  END
>  <UniqueID>  (64) 
62

>  <SMILES>  (64) 
CC(C)(C)c1cc(=NC(=O)c2cccc(C(=O)/N=c3\[n-]cc(Oc4ccnc5[nH]ccc45)cc3[O-])c2)[n-]o1

>  <Energy>  (64) 
147.02426042857016

>  <Genealogy>  (64) 
CC(C)(C)c1cc(=NC(=O)c2cccc(C(=O)N=c3[n-]cc(Oc4ccnc5[nH]ccc45)cc3[O-])c2)[n-]o1 (protonated)
CC(C)(C)c1cc(=NC(=O)c2cccc(C(=O)/N=c3\[n-]cc(Oc4ccnc5[nH]ccc45)cc3[O-])c2)[n-]o1 (cis-trans isomerization)
CC(C)(C)c1cc(=NC(=O)c2cccc(C(=O)/N=c3\[n-]cc(Oc4ccnc5[nH]ccc45)cc3[O-])c2)[n-]o1 (3D coordinates assigned)
CC(C)(C)c1cc(=NC(=O)c2cccc(C(=O)/N=c3\[n-]cc(Oc4ccnc5[nH]ccc45)cc3[O-])c2)[n-]o1 (optimized conformer: 147.02426042857016 kcal/mol)

>  <smiles>  (64) 
CC(C)(C)c1cc(=NC(=O)c2cccc(C(=O)N=c3[nH]cc(Oc4ccnc5[nH]ccc45)cc3O)c2)[nH]o1

>  <score_type>  (64) 
oracle

>  <origin>  (64) 
adg

>  <m_score__min__energy>  (64) 
-14.59

>  <m_primary>  (64) 
energy

$$$$
64:0
     RDKit          3D

 34 36  0  0  0  0  0  0  0  0999 V2000
   54.0230   26.3410   46.3790 H   0  0  0  0  0  0  0  0  0  0  0  0
   54.9010   26.3040   45.8760 O   0  0  0  0  0  0  0  0  0  0  0  0
   55.8840   25.3870   46.2350 C   0  0  0  0  0  0  0  0  0  0  0  0
   55.7560   24.5000   47.2360 N   0  0  0  0  0  0  0  0  0  0  0  0
   56.9470   23.8650   47.2220 C   0  0  0  0  0  0  0  0  0  0  0  0
   57.2340   22.9450   48.0310 O   0  0  0  0  0  0  0  0  0  0  0  0
   57.8110   24.3020   46.2800 N   0  0  0  0  0  0  0  0  0  0  0  0
   57.1120   25.2550   45.6350 C   0  0  0  0  0  0  0  0  0  0  0  0
   57.6630   26.1400   44.5960 C   0  0  0  0  0  0  0  0  0  0  0  0
   57.9145   25.6823   43.6279 H   0  0  0  0  0  0  0  0  0  0  0  0
   57.8860   27.4620   44.7280 C   0  0  0  0  0  0  0  0  0  0  0  0
   57.4110   28.3930   43.8170 C   0  0  0  0  0  0  0  0  0  0  0  0
   56.8692   28.1795   42.8838 H   0  0  0  0  0  0  0  0  0  0  0  0
   57.7480   29.6380   44.3050 C   0  0  0  0  0  0  0  0  0  0  0  0
   57.3960   30.9390   43.6470 C   0  0  0  0  0  0  0  0  0  0  0  0
   57.1911   31.6963   44.4181 H   0  0  0  0  0  0  0  0  0  0  0  0
   58.2363   31.2720   43.0202 H   0  0  0  0  0  0  0  0  0  0  0  0
   56.5024   30.8029   43.0202 H   0  0  0  0  0  0  0  0  0  0  0  0
   58.4320   29.5200   45.4640 N   0  0  0  0  0  0  0  0  0  0  0  0
   58.9870   30.6150   46.2140 C   0  0  0  0  0  0  0  0  0  0  0  0
   60.3670   30.6770   46.4610 C   0  0  0  0  0  0  0  0  0  0  0  0
   61.0266   29.8780   46.0916 H   0  0  0  0  0  0  0  0  0  0  0  0
   60.9060   31.7510   47.1750 C   0  0  0  0  0  0  0  0  0  0  0  0
   61.9878   31.7939   47.3697 H   0  0  0  0  0  0  0  0  0  0  0  0
   60.0710   32.7710   47.6420 C   0  0  0  0  0  0  0  0  0  0  0  0
   60.8070   34.2380   48.6170 Br  0  0  0  0  0  0  0  0  0  0  0  0
   58.6950   32.7170   47.3920 C   0  0  0  0  0  0  0  0  0  0  0  0
   58.0384   33.5206   47.7569 H   0  0  0  0  0  0  0  0  0  0  0  0
   58.1540   31.6430   46.6790 C   0  0  0  0  0  0  0  0  0  0  0  0
   57.0724   31.6042   46.4823 H   0  0  0  0  0  0  0  0  0  0  0  0
   58.5580   28.1930   45.7230 C   0  0  0  0  0  0  0  0  0  0  0  0
   59.3110   27.7050   46.7200 C   0  0  0  0  0  0  0  0  0  0  0  0
   59.7852   28.3908   47.4375 H   0  0  0  0  0  0  0  0  0  0  0  0
   59.4543   26.6190   46.8201 H   0  0  0  0  0  0  0  0  0  0  0  0
  1  2  1  0
  2  3  1  0
  3  4  1  0
  4  5  1  0
  5  6  2  0
  5  7  1  0
  7  8  1  0
  8  9  1  0
  9 10  1  0
  9 11  2  0
 11 12  1  0
 12 13  1  0
 12 14  2  0
 14 15  1  0
 15 16  1  0
 15 17  1  0
 15 18  1  0
 14 19  1  0
 19 20  1  0
 20 21  2  0
 21 22  1  0
 21 23  1  0
 23 24  1  0
 23 25  2  0
 25 26  1  0
 25 27  1  0
 27 28  1  0
 27 29  2  0
 29 30  1  0
 19 31  1  0
 31 32  2  0
 32 33  1  0
 32 34  1  0
  8  3  2  0
 31 11  1  0
 29 20  1  0
M  CHG  2   4  -1   7  -1
M  END
>  <UniqueID>  (65) 
63

>  <SMILES>  (65) 
C=c1/c(=C\c2[n-]c(=O)[n-]c2O)cc(C)n1-c1ccc(Br)cc1

>  <Energy>  (65) 
110.44745235663423

>  <Genealogy>  (65) 
C=c1c(=Cc2[n-]c(=O)[n-]c2O)cc(C)n1-c1ccc(Br)cc1 (protonated)
C=c1/c(=C\c2[n-]c(=O)[n-]c2O)cc(C)n1-c1ccc(Br)cc1 (cis-trans isomerization)
C=c1/c(=C\c2[n-]c(=O)[n-]c2O)cc(C)n1-c1ccc(Br)cc1 (3D coordinates assigned)
C=c1/c(=C\c2[n-]c(=O)[n-]c2O)cc(C)n1-c1ccc(Br)cc1 (optimized conformer: 110.44745235663423 kcal/mol)

>  <smiles>  (65) 
C=c1c(=Cc2[nH]c(=O)[nH]c2O)cc(C)n1-c1ccc(Br)cc1

>  <score_type>  (65) 
oracle

>  <origin>  (65) 
adg

>  <m_score__min__energy>  (65) 
-12.210000000000001

>  <m_primary>  (65) 
energy

$$$$
65:0
     RDKit          3D

 50 53  0  0  0  0  0  0  0  0999 V2000
   58.3430   34.5420   44.8710 C   0  0  0  0  0  0  0  0  0  0  0  0
   59.2070   34.8980   46.0730 C   0  0  0  0  0  0  0  0  0  0  0  0
   59.7700   33.6850   46.6680 N   0  0  0  0  0  0  0  0  0  0  0  0
   59.0980   32.6530   47.2340 C   0  0  0  0  0  0  0  0  0  0  0  0
   57.8480   32.6590   47.4050 O   0  0  0  0  0  0  0  0  0  0  0  0
   59.9080   31.6430   47.6530 N   0  0  0  0  0  0  0  0  0  0  0  0
   59.5140   30.4580   48.4340 C   0  0  0  0  0  0  0  0  0  0  0  0
   60.0750   29.0950   47.9140 C   0  0  1  0  0  0  0  0  0  0  0  0
   59.9640   27.8770   48.8200 C   0  0  0  0  0  0  0  0  0  0  0  0
   60.2580   26.7140   47.8870 C   0  0  0  0  0  0  0  0  0  0  0  0
   60.1700   27.2930   46.4720 C   0  0  0  0  0  0  0  0  0  0  0  0
   59.6300   28.6650   46.5720 N   0  0  0  0  0  0  0  0  0  0  0  0
   58.1580   28.6410   46.4160 C   0  0  0  0  0  0  0  0  0  0  0  0
   57.7280   29.5190   45.2670 C   0  0  0  0  0  0  0  0  0  0  0  0
   58.6390   30.4380   44.7200 C   0  0  0  0  0  0  0  0  0  0  0  0
   58.2610   31.2610   43.6540 C   0  0  0  0  0  0  0  0  0  0  0  0
   56.9710   31.1730   43.1280 C   0  0  0  0  0  0  0  0  0  0  0  0
   56.0560   30.2630   43.6640 C   0  0  0  0  0  0  0  0  0  0  0  0
   56.4270   29.4380   44.7310 C   0  0  0  0  0  0  0  0  0  0  0  0
   55.5220   28.5600   45.2330 F   0  0  0  0  0  0  0  0  0  0  0  0
   61.1550   32.1140   47.4030 C   0  0  0  0  0  0  0  0  0  0  0  0
   62.3960   31.5780   47.7670 C   0  0  0  0  0  0  0  0  0  0  0  0
   63.5540   32.2890   47.4070 C   0  0  0  0  0  0  0  0  0  0  0  0
   63.4560   33.5210   46.7250 C   0  0  0  0  0  0  0  0  0  0  0  0
   62.1990   34.0630   46.4110 C   0  0  0  0  0  0  0  0  0  0  0  0
   61.0660   33.3330   46.7760 C   0  0  0  0  0  0  0  0  0  0  0  0
   57.3779   34.1443   45.2181 H   0  0  0  0  0  0  0  0  0  0  0  0
   58.1713   35.4426   44.2633 H   0  0  0  0  0  0  0  0  0  0  0  0
   58.8556   33.7818   44.2633 H   0  0  0  0  0  0  0  0  0  0  0  0
   60.0256   35.5576   45.7494 H   0  0  0  0  0  0  0  0  0  0  0  0
   58.5857   35.4103   46.8224 H   0  0  0  0  0  0  0  0  0  0  0  0
   59.8676   30.5989   49.4660 H   0  0  0  0  0  0  0  0  0  0  0  0
   58.4197   30.3881   48.3471 H   0  0  0  0  0  0  0  0  0  0  0  0
   61.1286   29.4100   47.8855 H   0  0  0  0  0  0  0  0  0  0  0  0
   60.7018   27.9241   49.6345 H   0  0  0  0  0  0  0  0  0  0  0  0
   58.9829   27.7956   49.3107 H   0  0  0  0  0  0  0  0  0  0  0  0
   61.2649   26.3138   48.0768 H   0  0  0  0  0  0  0  0  0  0  0  0
   59.5508   25.8843   48.0334 H   0  0  0  0  0  0  0  0  0  0  0  0
   61.1708   27.3182   46.0162 H   0  0  0  0  0  0  0  0  0  0  0  0
   59.5157   26.6699   45.8445 H   0  0  0  0  0  0  0  0  0  0  0  0
   57.8324   27.6083   46.2225 H   0  0  0  0  0  0  0  0  0  0  0  0
   57.6986   29.0197   47.3410 H   0  0  0  0  0  0  0  0  0  0  0  0
   59.6561   30.5108   45.1327 H   0  0  0  0  0  0  0  0  0  0  0  0
   58.9802   31.9774   43.2303 H   0  0  0  0  0  0  0  0  0  0  0  0
   56.6742   31.8211   42.2902 H   0  0  0  0  0  0  0  0  0  0  0  0
   55.0409   30.1952   43.2456 H   0  0  0  0  0  0  0  0  0  0  0  0
   62.4630   30.6285   48.3184 H   0  0  0  0  0  0  0  0  0  0  0  0
   64.5445   31.8820   47.6588 H   0  0  0  0  0  0  0  0  0  0  0  0
   64.3706   34.0603   46.4375 H   0  0  0  0  0  0  0  0  0  0  0  0
   62.1100   35.0303   45.8948 H   0  0  0  0  0  0  0  0  0  0  0  0
  1  2  1  0
  2  3  1  0
  3  4  1  0
  4  5  2  0
  4  6  1  0
  6  7  1  0
  7  8  1  0
  8  9  1  0
  9 10  1  0
 10 11  1  0
 11 12  1  0
 12 13  1  0
 13 14  1  0
 14 15  2  0
 15 16  1  0
 16 17  2  0
 17 18  1  0
 18 19  2  0
 19 20  1  0
  6 21  1  0
 21 22  2  0
 22 23  1  0
 23 24  2  0
 24 25  1  0
 25 26  2  0
 26  3  1  0
 12  8  1  0
 19 14  1  0
 26 21  1  0
  1 27  1  0
  1 28  1  0
  1 29  1  0
  2 30  1  0
  2 31  1  0
  7 32  1  0
  7 33  1  0
  8 34  1  6
  9 35  1  0
  9 36  1  0
 10 37  1  0
 10 38  1  0
 11 39  1  0
 11 40  1  0
 13 41  1  0
 13 42  1  0
 15 43  1  0
 16 44  1  0
 17 45  1  0
 18 46  1  0
 22 47  1  0
 23 48  1  0
 24 49  1  0
 25 50  1  0
M  END
>  <UniqueID>  (66) 
64

>  <SMILES>  (66) 
CCn1c(=O)n(C[C@H]2CCCN2Cc2ccccc2F)c2ccccc21

>  <Energy>  (66) 
106.0945378376976

>  <Genealogy>  (66) 
CCn1c(=O)n(C[C@H]2CCCN2Cc2ccccc2F)c2ccccc21 (chirality)
CCn1c(=O)n(C[C@H]2CCCN2Cc2ccccc2F)c2ccccc21 (3D coordinates assigned)
CCn1c(=O)n(C[C@H]2CCCN2Cc2ccccc2F)c2ccccc21 (nonaromatic ring conformer: 106.0945378376976 kcal/mol)

>  <smiles>  (66) 
CCn1c(=O)n(CC2CCCN2Cc2ccccc2F)c2ccccc21

>  <score_type>  (66) 
oracle

>  <origin>  (66) 
adg

>  <m_score__min__energy>  (66) 
-8.2599999999999998

>  <m_primary>  (66) 
energy

$$$$
66:0
     RDKit          3D

 55 58  0  0  0  0  0  0  0  0999 V2000
   56.1610   22.1500   47.2660 O   0  0  0  0  0  0  0  0  0  0  0  0
   55.3670   23.0550   46.8900 C   0  0  0  0  0  0  0  0  0  0  0  0
   54.2130   22.6990   46.0030 C   0  0  0  0  0  0  0  0  0  0  0  0
   54.1600   23.6210   44.8130 C   0  0  0  0  0  0  0  0  0  0  0  0
   54.9890   23.5450   43.7630 C   0  0  0  0  0  0  0  0  0  0  0  0
   56.3360   22.9530   43.8260 C   0  0  0  0  0  0  0  0  0  0  0  0
   57.3520   23.6110   44.5300 C   0  0  0  0  0  0  0  0  0  0  0  0
   58.6340   23.0570   44.5970 C   0  0  0  0  0  0  0  0  0  0  0  0
   58.9000   21.8310   43.9820 C   0  0  0  0  0  0  0  0  0  0  0  0
   57.8850   21.1600   43.2930 C   0  0  0  0  0  0  0  0  0  0  0  0
   56.6050   21.7180   43.2140 C   0  0  0  0  0  0  0  0  0  0  0  0
   55.5080   24.3980   47.3730 N   0  0  0  0  0  0  0  0  0  0  0  0
   56.5140   25.3490   46.9940 C   0  0  0  0  0  0  0  0  0  0  0  0
   57.8790   25.1230   47.2490 C   0  0  0  0  0  0  0  0  0  0  0  0
   58.8370   26.0490   46.8360 C   0  0  0  0  0  0  0  0  0  0  0  0
   58.4490   27.2000   46.1480 C   0  0  0  0  0  0  0  0  0  0  0  0
   57.0950   27.4350   45.8620 C   0  0  0  0  0  0  0  0  0  0  0  0
   56.7110   28.6450   45.0450 C   0  0  0  0  0  0  0  0  0  0  0  0
   57.9290   29.2560   44.3390 C   0  0  0  0  0  0  0  0  0  0  0  0
   58.3560   30.5010   45.0010 N   0  0  0  0  0  0  0  0  0  0  0  0
   57.4790   31.6390   45.0550 C   0  0  0  0  0  0  0  0  0  0  0  0
   56.3580   31.6130   44.4740 O   0  0  0  0  0  0  0  0  0  0  0  0
   57.8840   32.8450   45.7830 C   0  0  0  0  0  0  0  0  0  0  0  0
   57.1360   33.8590   45.7490 O   0  0  0  0  0  0  0  0  0  0  0  0
   59.1470   32.8490   46.5640 C   0  0  0  0  0  0  0  0  0  0  0  0
   59.5210   33.9750   47.3350 C   0  0  0  0  0  0  0  0  0  0  0  0
   58.7380   35.1240   47.3650 O   0  0  0  0  0  0  0  0  0  0  0  0
   60.6910   33.9530   48.0910 C   0  0  0  0  0  0  0  0  0  0  0  0
   61.4830   32.8100   48.1270 C   0  0  0  0  0  0  0  0  0  0  0  0
   61.1250   31.6720   47.4050 C   0  0  0  0  0  0  0  0  0  0  0  0
   61.9080   30.5300   47.5940 O   0  0  0  0  0  0  0  0  0  0  0  0
   59.9790   31.6980   46.5600 C   0  0  0  0  0  0  0  0  0  0  0  0
   59.6510   30.5770   45.6310 C   0  0  0  0  0  0  0  0  0  0  0  0
   60.5290   29.7250   45.3300 O   0  0  0  0  0  0  0  0  0  0  0  0
   56.1290   26.4990   46.2840 C   0  0  0  0  0  0  0  0  0  0  0  0
   54.7820   26.7050   45.9980 O   0  0  0  0  0  0  0  0  0  0  0  0
   54.3311   21.6627   45.6534 H   0  0  0  0  0  0  0  0  0  0  0  0
   53.2790   22.8014   46.5750 H   0  0  0  0  0  0  0  0  0  0  0  0
   53.3910   24.4075   44.8055 H   0  0  0  0  0  0  0  0  0  0  0  0
   54.6438   23.9476   42.7993 H   0  0  0  0  0  0  0  0  0  0  0  0
   57.1409   24.5668   45.0319 H   0  0  0  0  0  0  0  0  0  0  0  0
   59.4341   23.5870   45.1345 H   0  0  0  0  0  0  0  0  0  0  0  0
   59.9077   21.3937   44.0398 H   0  0  0  0  0  0  0  0  0  0  0  0
   58.0934   20.1926   42.8128 H   0  0  0  0  0  0  0  0  0  0  0  0
   55.8077   21.1887   42.6716 H   0  0  0  0  0  0  0  0  0  0  0  0
   58.1927   24.2106   47.7773 H   0  0  0  0  0  0  0  0  0  0  0  0
   59.9007   25.8718   47.0530 H   0  0  0  0  0  0  0  0  0  0  0  0
   59.2093   27.9276   45.8279 H   0  0  0  0  0  0  0  0  0  0  0  0
   55.9719   28.3450   44.2875 H   0  0  0  0  0  0  0  0  0  0  0  0
   56.2904   29.4010   45.7243 H   0  0  0  0  0  0  0  0  0  0  0  0
   58.7582   28.5336   44.3631 H   0  0  0  0  0  0  0  0  0  0  0  0
   57.6504   29.4899   43.3009 H   0  0  0  0  0  0  0  0  0  0  0  0
   60.9901   34.8441   48.6624 H   0  0  0  0  0  0  0  0  0  0  0  0
   62.4019   32.8038   48.7317 H   0  0  0  0  0  0  0  0  0  0  0  0
   61.7900   29.6750   47.0700 H   0  0  0  0  0  0  0  0  0  0  0  0
  1  2  2  0
  2  3  1  0
  3  4  1  0
  4  5  2  3
  5  6  1  0
  6  7  2  0
  7  8  1  0
  8  9  2  0
  9 10  1  0
 10 11  2  0
  2 12  1  0
 12 13  1  0
 13 14  2  0
 14 15  1  0
 15 16  2  0
 16 17  1  0
 17 18  1  0
 18 19  1  0
 19 20  1  0
 20 21  1  0
 21 22  2  0
 21 23  1  0
 23 24  2  0
 23 25  1  0
 25 26  2  0
 26 27  1  0
 26 28  1  0
 28 29  2  0
 29 30  1  0
 30 31  1  0
 30 32  2  0
 32 33  1  0
 33 34  2  0
 17 35  2  0
 35 36  1  0
 11  6  1  0
 35 13  1  0
 33 20  1  0
 32 25  1  0
  3 37  1  0
  3 38  1  0
  4 39  1  0
  5 40  1  0
  7 41  1  0
  8 42  1  0
  9 43  1  0
 10 44  1  0
 11 45  1  0
 14 46  1  0
 15 47  1  0
 16 48  1  0
 18 49  1  0
 18 50  1  0
 19 51  1  0
 19 52  1  0
 28 53  1  0
 29 54  1  0
 31 55  1  0
M  CHG  3  12  -1  27  -1  36  -1
M  END
>  <UniqueID>  (67) 
65

>  <SMILES>  (67) 
O=C(CC=Cc1ccccc1)[N-]c1cccc(CCN2C(=O)C(=O)c3c([O-])ccc(O)c3C2=O)c1[O-]

>  <Energy>  (67) 
70.1861708521708

>  <Genealogy>  (67) 
O=C(CC=Cc1ccccc1)[N-]c1cccc(CCN2C(=O)C(=O)c3c([O-])ccc(O)c3C2=O)c1[O-] (protonated)
O=C(CC=Cc1ccccc1)[N-]c1cccc(CCN2C(=O)C(=O)c3c([O-])ccc(O)c3C2=O)c1[O-] (3D coordinates assigned)
O=C(CC=Cc1ccccc1)[N-]c1cccc(CCN2C(=O)C(=O)c3c([O-])ccc(O)c3C2=O)c1[O-] (nonaromatic ring conformer: 70.1861708521708 kcal/mol)

>  <smiles>  (67) 
O=C(CC=Cc1ccccc1)Nc1cccc(CCN2C(=O)C(=O)c3c(O)ccc(O)c3C2=O)c1O

>  <score_type>  (67) 
oracle

>  <origin>  (67) 
adg

>  <m_score__min__energy>  (67) 
-14.890000000000001

>  <m_primary>  (67) 
energy

$$$$
67:0
     RDKit          3D

 40 42  0  0  0  0  0  0  0  0999 V2000
   60.0979   27.3397   45.9462 H   0  0  0  0  0  0  0  0  0  0  0  0
   59.0070   27.2000   45.9260 C   0  0  0  0  0  0  0  0  0  0  0  0
   58.1940   28.2430   45.6110 N   0  0  0  0  0  0  0  0  0  0  0  0
   56.8370   28.1310   45.5650 C   0  0  0  0  0  0  0  0  0  0  0  0
   56.1540   29.1950   45.2410 N   0  0  0  0  0  0  0  0  0  0  0  0
   56.3310   30.0800   44.1260 C   0  0  0  0  0  0  0  0  0  0  0  0
   55.8140   29.7940   43.0110 O   0  0  0  0  0  0  0  0  0  0  0  0
   57.2120   31.2650   44.2480 C   0  0  0  0  0  0  0  0  0  0  0  0
   57.6340   31.9650   43.1020 C   0  0  0  0  0  0  0  0  0  0  0  0
   57.3099   31.6290   42.1060 H   0  0  0  0  0  0  0  0  0  0  0  0
   58.4620   33.0840   43.2220 C   0  0  0  0  0  0  0  0  0  0  0  0
   58.7834   33.6268   42.3208 H   0  0  0  0  0  0  0  0  0  0  0  0
   58.8830   33.5160   44.4810 C   0  0  0  0  0  0  0  0  0  0  0  0
   59.5297   34.4014   44.5697 H   0  0  0  0  0  0  0  0  0  0  0  0
   58.4840   32.8250   45.6300 C   0  0  0  0  0  0  0  0  0  0  0  0
   58.9960   33.3890   47.2180 S   0  0  0  0  0  0  0  0  0  0  0  0
   58.1360   32.7490   48.2720 O   0  0  0  0  0  0  0  0  0  0  0  0
   58.8240   34.8820   47.3040 O   0  0  0  0  0  0  0  0  0  0  0  0
   60.6630   32.9500   47.4790 N   0  0  0  0  0  0  0  0  0  0  0  0
   60.7390   31.9050   47.4770 H   0  0  0  0  0  0  0  0  0  0  0  0
   61.5420   33.4990   46.4420 C   0  0  0  0  0  0  0  0  0  0  0  0
   61.5957   32.8098   45.5864 H   0  0  0  0  0  0  0  0  0  0  0  0
   61.1630   34.4626   46.0708 H   0  0  0  0  0  0  0  0  0  0  0  0
   62.9170   33.6580   47.0750 C   0  0  0  0  0  0  0  0  0  0  0  0
   63.5738   32.8258   46.7817 H   0  0  0  0  0  0  0  0  0  0  0  0
   63.4109   34.5858   46.7504 H   0  0  0  0  0  0  0  0  0  0  0  0
   62.6770   33.6420   48.5780 C   0  0  0  0  0  0  0  0  0  0  0  0
   63.2146   32.8031   49.0441 H   0  0  0  0  0  0  0  0  0  0  0  0
   63.0400   34.5624   49.0587 H   0  0  0  0  0  0  0  0  0  0  0  0
   61.1730   33.4710   48.7490 C   0  0  0  0  0  0  0  0  0  0  0  0
   60.9620   32.7611   49.5624 H   0  0  0  0  0  0  0  0  0  0  0  0
   60.6924   34.4262   49.0070 H   0  0  0  0  0  0  0  0  0  0  0  0
   57.6460   31.7070   45.5130 C   0  0  0  0  0  0  0  0  0  0  0  0
   57.3245   31.1700   46.4176 H   0  0  0  0  0  0  0  0  0  0  0  0
   56.2470   26.8860   45.9080 C   0  0  0  0  0  0  0  0  0  0  0  0
   54.8710   26.7130   46.0050 O   0  0  0  0  0  0  0  0  0  0  0  0
   57.0740   25.8020   46.2170 C   0  0  0  0  0  0  0  0  0  0  0  0
   56.6297   24.8246   46.4563 H   0  0  0  0  0  0  0  0  0  0  0  0
   58.4590   25.9550   46.2230 C   0  0  0  0  0  0  0  0  0  0  0  0
   59.1119   25.1019   46.4597 H   0  0  0  0  0  0  0  0  0  0  0  0
  1  2  1  0
  2  3  1  0
  3  4  1  0
  4  5  2  0
  5  6  1  0
  6  7  2  0
  6  8  1  0
  8  9  2  0
  9 10  1  0
  9 11  1  0
 11 12  1  0
 11 13  2  0
 13 14  1  0
 13 15  1  0
 15 16  1  0
 16 17  2  0
 16 18  2  0
 16 19  1  0
 19 20  1  0
 19 21  1  0
 21 22  1  0
 21 23  1  0
 21 24  1  0
 24 25  1  0
 24 26  1  0
 24 27  1  0
 27 28  1  0
 27 29  1  0
 27 30  1  0
 30 31  1  0
 30 32  1  0
 15 33  2  0
 33 34  1  0
  4 35  1  0
 35 36  1  0
 35 37  2  0
 37 38  1  0
 37 39  1  0
 39 40  1  0
 39  2  2  0
 33  8  1  0
 30 19  1  0
M  CHG  3   3  -1  19   1  36  -1
M  END
>  <UniqueID>  (68) 
66

>  <SMILES>  (68) 
O=C(/N=c1/[n-]cccc1[O-])c1cccc(S(=O)(=O)[NH+]2CCCC2)c1

>  <Energy>  (68) 
55.482256393586056

>  <Genealogy>  (68) 
O=C(N=c1[n-]cccc1[O-])c1cccc(S(=O)(=O)[NH+]2CCCC2)c1 (protonated)
O=C(/N=c1/[n-]cccc1[O-])c1cccc(S(=O)(=O)[NH+]2CCCC2)c1 (cis-trans isomerization)
O=C(/N=c1/[n-]cccc1[O-])c1cccc(S(=O)(=O)[NH+]2CCCC2)c1 (3D coordinates assigned)
O=C(/N=c1/[n-]cccc1[O-])c1cccc(S(=O)(=O)[NH+]2CCCC2)c1 (nonaromatic ring conformer: 55.482256393586056 kcal/mol)

>  <smiles>  (68) 
O=C(N=c1[nH]cccc1O)c1cccc(S(=O)(=O)N2CCCC2)c1

>  <score_type>  (68) 
oracle

>  <origin>  (68) 
adg

>  <m_score__min__energy>  (68) 
-13.09

>  <m_primary>  (68) 
energy

$$$$
68:0
     RDKit          3D

 38 39  0  0  0  0  0  0  0  0999 V2000
   61.2690   33.8430   46.8260 C   0  0  0  0  0  0  0  0  0  0  0  0
   60.1980   33.3450   47.7950 C   0  0  0  0  0  0  0  0  0  0  0  0
   58.7890   33.8020   47.3950 C   0  0  0  0  0  0  0  0  0  0  0  0
   58.4290   33.3050   46.0670 N   0  0  0  0  0  0  0  0  0  0  0  0
   58.5510   33.9520   44.8910 C   0  0  0  0  0  0  0  0  0  0  0  0
   58.9840   35.2670   44.7590 O   0  0  0  0  0  0  0  0  0  0  0  0
   58.2050   33.1050   43.8560 C   0  0  0  0  0  0  0  0  0  0  0  0
   57.8620   31.9160   44.3960 N   0  0  0  0  0  0  0  0  0  0  0  0
   57.5480   30.6860   43.6710 C   0  0  0  0  0  0  0  0  0  0  0  0
   56.4050   29.9810   44.3310 C   0  0  0  0  0  0  0  0  0  0  0  0
   55.3420   30.6110   44.5850 O   0  0  0  0  0  0  0  0  0  0  0  0
   56.5350   28.6010   44.6860 N   0  0  0  0  0  0  0  0  0  0  0  0
   57.6330   28.0720   45.4380 C   0  0  0  0  0  0  0  0  0  0  0  0
   58.8880   28.6720   45.2770 C   0  0  0  0  0  0  0  0  0  0  0  0
   59.9790   28.2500   46.0380 C   0  0  0  0  0  0  0  0  0  0  0  0
   59.8270   27.2190   46.9640 C   0  0  0  0  0  0  0  0  0  0  0  0
   58.5890   26.5900   47.1140 C   0  0  0  0  0  0  0  0  0  0  0  0
   57.4810   26.9900   46.3440 C   0  0  0  0  0  0  0  0  0  0  0  0
   56.2150   26.2280   46.4570 C   0  0  0  0  0  0  0  0  0  0  0  0
   55.1450   26.7020   45.9890 O   0  0  0  0  0  0  0  0  0  0  0  0
   56.1750   25.0060   47.1180 O   0  0  0  0  0  0  0  0  0  0  0  0
   58.0190   32.0640   45.7290 C   0  0  0  0  0  0  0  0  0  0  0  0
   57.8320   31.1370   46.5620 O   0  0  0  0  0  0  0  0  0  0  0  0
   62.1225   34.2399   47.3952 H   0  0  0  0  0  0  0  0  0  0  0  0
   61.6065   33.0094   46.1925 H   0  0  0  0  0  0  0  0  0  0  0  0
   60.8491   34.6383   46.1925 H   0  0  0  0  0  0  0  0  0  0  0  0
   60.2211   32.2454   47.8123 H   0  0  0  0  0  0  0  0  0  0  0  0
   60.4192   33.7685   48.7858 H   0  0  0  0  0  0  0  0  0  0  0  0
   58.0655   33.4191   48.1298 H   0  0  0  0  0  0  0  0  0  0  0  0
   58.7729   34.9016   47.3717 H   0  0  0  0  0  0  0  0  0  0  0  0
   59.3990   35.7580   45.5420 H   0  0  0  0  0  0  0  0  0  0  0  0
   58.2083   33.3544   42.7846 H   0  0  0  0  0  0  0  0  0  0  0  0
   57.2739   30.9336   42.6349 H   0  0  0  0  0  0  0  0  0  0  0  0
   58.4297   30.0283   43.6764 H   0  0  0  0  0  0  0  0  0  0  0  0
   59.0149   29.4828   44.5445 H   0  0  0  0  0  0  0  0  0  0  0  0
   60.9595   28.7311   45.9071 H   0  0  0  0  0  0  0  0  0  0  0  0
   60.6830   26.9006   47.5771 H   0  0  0  0  0  0  0  0  0  0  0  0
   58.4788   25.7729   47.8421 H   0  0  0  0  0  0  0  0  0  0  0  0
  1  2  1  0
  2  3  1  0
  3  4  1  0
  4  5  1  0
  5  6  1  0
  5  7  2  0
  7  8  1  0
  8  9  1  0
  9 10  1  0
 10 11  2  0
 10 12  1  0
 12 13  1  0
 13 14  2  0
 14 15  1  0
 15 16  2  0
 16 17  1  0
 17 18  2  0
 18 19  1  0
 19 20  2  0
 19 21  1  0
  8 22  1  0
 22 23  2  0
 22  4  1  0
 18 13  1  0
  1 24  1  0
  1 25  1  0
  1 26  1  0
  2 27  1  0
  2 28  1  0
  3 29  1  0
  3 30  1  0
  6 31  1  0
  7 32  1  0
  9 33  1  0
  9 34  1  0
 14 35  1  0
 15 36  1  0
 16 37  1  0
 17 38  1  0
M  CHG  2  12  -1  21  -1
M  END
>  <UniqueID>  (69) 
67

>  <SMILES>  (69) 
CCCn1c(O)cn(CC(=O)[N-]c2ccccc2C(=O)[O-])c1=O

>  <Energy>  (69) 
73.71724987467415

>  <Genealogy>  (69) 
CCCn1c(O)cn(CC(=O)[N-]c2ccccc2C(=O)[O-])c1=O (protonated)
CCCn1c(O)cn(CC(=O)[N-]c2ccccc2C(=O)[O-])c1=O (3D coordinates assigned)
CCCn1c(O)cn(CC(=O)[N-]c2ccccc2C(=O)[O-])c1=O (optimized conformer: 73.71724987467415 kcal/mol)

>  <smiles>  (69) 
CCCn1c(O)cn(CC(=O)Nc2ccccc2C(=O)O)c1=O

>  <score_type>  (69) 
oracle

>  <origin>  (69) 
adg

>  <m_score__min__energy>  (69) 
-11.6

>  <m_primary>  (69) 
energy

$$$$
69:0
     RDKit          3D

 45 49  0  0  0  0  0  0  0  0999 V2000
   52.9904   32.0288   53.1889 H   0  0  0  0  0  0  0  0  0  0  0  0
   52.9040   31.1270   52.5650 C   0  0  0  0  0  0  0  0  0  0  0  0
   52.1080   31.2150   51.3280 C   0  0  0  0  0  0  0  0  0  0  0  0
   52.1780   30.3040   50.3410 N   0  0  0  0  0  0  0  0  0  0  0  0
   51.3620   30.8060   49.3900 C   0  0  0  0  0  0  0  0  0  0  0  0
   51.1530   30.2190   48.2960 O   0  0  0  0  0  0  0  0  0  0  0  0
   50.7960   31.9920   49.6980 N   0  0  0  0  0  0  0  0  0  0  0  0
   51.2860   32.2440   50.9220 C   0  0  0  0  0  0  0  0  0  0  0  0
   51.0280   33.4130   51.6270 O   0  0  0  0  0  0  0  0  0  0  0  0
   53.5290   30.0150   52.9760 C   0  0  0  0  0  0  0  0  0  0  0  0
   53.0070   28.7460   53.2060 C   0  0  0  0  0  0  0  0  0  0  0  0
   51.9468   28.4670   53.1158 H   0  0  0  0  0  0  0  0  0  0  0  0
   54.0100   27.9100   53.5580 N   0  0  0  0  0  0  0  0  0  0  0  0
   53.8730   26.8990   53.7500 H   0  0  0  0  0  0  0  0  0  0  0  0
   55.1490   28.5930   53.5600 N   0  0  0  0  0  0  0  0  0  0  0  0
   56.4380   28.2010   53.8240 C   0  0  0  0  0  0  0  0  0  0  0  0
   56.7860   27.0010   54.1960 N   0  0  0  0  0  0  0  0  0  0  0  0
   57.9710   26.2310   53.8450 C   0  0  0  0  0  0  0  0  0  0  0  0
   57.5692   25.7314   52.9512 H   0  0  0  0  0  0  0  0  0  0  0  0
   59.2850   26.9190   54.1730 C   0  0  0  0  0  0  0  0  0  0  0  0
   60.1709   26.7406   53.5459 H   0  0  0  0  0  0  0  0  0  0  0  0
   59.6011   27.9619   54.3225 H   0  0  0  0  0  0  0  0  0  0  0  0
   58.7580   25.8160   55.0750 C   0  0  0  0  0  0  0  0  0  0  0  0
   59.2626   24.8389   55.1012 H   0  0  0  0  0  0  0  0  0  0  0  0
   58.5346   25.7295   56.1486 H   0  0  0  0  0  0  0  0  0  0  0  0
   57.4200   29.1370   53.6980 N   0  0  0  0  0  0  0  0  0  0  0  0
   57.1380   30.4230   53.3320 C   0  0  0  0  0  0  0  0  0  0  0  0
   58.1580   31.3730   53.2070 O   0  0  0  0  0  0  0  0  0  0  0  0
   58.0160   32.5890   52.4750 C   0  0  0  0  0  0  0  0  0  0  0  0
   57.0712   33.0747   52.7604 H   0  0  0  0  0  0  0  0  0  0  0  0
   58.8669   33.2456   52.7091 H   0  0  0  0  0  0  0  0  0  0  0  0
   58.0050   32.3130   50.9720 C   0  0  0  0  0  0  0  0  0  0  0  0
   56.9852   32.0442   50.6594 H   0  0  0  0  0  0  0  0  0  0  0  0
   58.3355   33.2166   50.4388 H   0  0  0  0  0  0  0  0  0  0  0  0
   58.9130   31.2130   50.6540 N   0  0  0  0  0  0  0  0  0  0  0  0
   58.5530   29.9680   50.2900 C   0  0  0  0  0  0  0  0  0  0  0  0
   57.5184   29.5990   50.2311 H   0  0  0  0  0  0  0  0  0  0  0  0
   59.6800   29.2250   50.0020 C   0  0  0  0  0  0  0  0  0  0  0  0
   59.7102   28.1725   49.6837 H   0  0  0  0  0  0  0  0  0  0  0  0
   60.7640   30.0630   50.1920 C   0  0  0  0  0  0  0  0  0  0  0  0
   61.8248   29.8064   50.0548 H   0  0  0  0  0  0  0  0  0  0  0  0
   60.2560   31.2830   50.5870 C   0  0  0  0  0  0  0  0  0  0  0  0
   60.8563   32.1767   50.8128 H   0  0  0  0  0  0  0  0  0  0  0  0
   55.8540   30.7910   53.0770 N   0  0  0  0  0  0  0  0  0  0  0  0
   54.8810   29.8590   53.2010 C   0  0  0  0  0  0  0  0  0  0  0  0
  1  2  1  0
  2  3  1  0
  3  4  1  0
  4  5  1  0
  5  6  2  0
  5  7  1  0
  7  8  1  0
  8  9  1  0
  2 10  2  3
 10 11  1  0
 11 12  1  0
 11 13  2  0
 13 14  1  0
 13 15  1  0
 15 16  1  0
 16 17  2  0
 17 18  1  0
 18 19  1  0
 18 20  1  0
 20 21  1  0
 20 22  1  0
 20 23  1  0
 23 24  1  0
 23 25  1  0
 16 26  1  0
 26 27  2  0
 27 28  1  0
 28 29  1  0
 29 30  1  0
 29 31  1  0
 29 32  1  0
 32 33  1  0
 32 34  1  0
 32 35  1  0
 35 36  1  0
 36 37  1  0
 36 38  2  0
 38 39  1  0
 38 40  1  0
 40 41  1  0
 40 42  2  0
 42 43  1  0
 27 44  1  0
 44 45  2  0
  8  3  2  0
 45 10  1  0
 45 15  1  0
 23 18  1  0
 42 35  1  0
M  CHG  4   4  -1   7  -1   9  -1  13   1
M  END
>  <UniqueID>  (70) 
68

>  <SMILES>  (70) 
O=c1[n-]c([O-])c(C=c2c[nH+]n3/c(=N\C4CC4)nc(OCCn4cccc4)nc23)[n-]1

>  <Energy>  (70) 
417.38169927057515

>  <Genealogy>  (70) 
O=c1[n-]c([O-])c(C=c2c[nH+]n3c(=NC4CC4)nc(OCCn4cccc4)nc23)[n-]1 (protonated)
O=c1[n-]c([O-])c(C=c2c[nH+]n3/c(=N\C4CC4)nc(OCCn4cccc4)nc23)[n-]1 (cis-trans isomerization)
O=c1[n-]c([O-])c(C=c2c[nH+]n3/c(=N\C4CC4)nc(OCCn4cccc4)nc23)[n-]1 (3D coordinates assigned)
O=c1[n-]c([O-])c(C=c2c[nH+]n3/c(=N\C4CC4)nc(OCCn4cccc4)nc23)[n-]1 (nonaromatic ring conformer: 417.38169927057515 kcal/mol)

>  <smiles>  (70) 
O=c1[nH]c(O)c(C=c2cnn3c(=NC4CC4)nc(OCCn4cccc4)nc23)[nH]1

>  <score_type>  (70) 
oracle

>  <origin>  (70) 
adg

>  <m_score__min__energy>  (70) 
-15.24

>  <m_primary>  (70) 
energy

$$$$
70:0
     RDKit          3D

 46 48  0  0  0  0  0  0  0  0999 V2000
   54.9100   26.3430   46.0120 O   0  0  0  0  0  0  0  0  0  0  0  0
   56.0730   25.8790   45.8610 C   0  0  0  0  0  0  0  0  0  0  0  0
   56.4110   24.5370   46.4260 C   0  0  0  0  0  0  0  0  0  0  0  0
   56.6720   23.5840   45.3370 N   0  0  0  0  0  0  0  0  0  0  0  0
   57.9370   23.0900   45.1680 C   0  0  0  0  0  0  0  0  0  0  0  0
   58.2060   22.1640   44.1630 C   0  0  0  0  0  0  0  0  0  0  0  0
   57.1610   21.7470   43.3450 C   0  0  0  0  0  0  0  0  0  0  0  0
   55.9120   22.2390   43.5410 N   0  0  0  0  0  0  0  0  0  0  0  0
   55.6580   23.1430   44.5240 C   0  0  0  0  0  0  0  0  0  0  0  0
   54.4790   23.5640   44.6770 O   0  0  0  0  0  0  0  0  0  0  0  0
   57.0770   26.6300   45.1660 N   0  0  0  0  0  0  0  0  0  0  0  0
   57.2730   28.0480   45.2460 C   0  0  0  0  0  0  0  0  0  0  0  0
   58.0920   28.5610   46.2590 C   0  0  0  0  0  0  0  0  0  0  0  0
   58.3190   29.9360   46.3600 C   0  0  0  0  0  0  0  0  0  0  0  0
   57.7320   30.8210   45.4420 C   0  0  0  0  0  0  0  0  0  0  0  0
   57.9860   32.2740   45.5530 C   0  0  0  0  0  0  0  0  0  0  0  0
   58.5220   32.8740   44.5830 O   0  0  0  0  0  0  0  0  0  0  0  0
   57.6520   33.0290   46.7260 N   0  0  0  0  0  0  0  0  0  0  0  0
   58.5350   33.2710   47.8640 C   0  0  0  0  0  0  0  0  0  0  0  0
   59.2670   34.6040   47.6820 C   0  0  0  0  0  0  0  0  0  0  0  0
   60.3430   34.5260   46.5930 C   0  0  0  0  0  0  0  0  0  0  0  0
   61.5980   34.0040   47.1330 N   0  0  0  0  0  0  0  0  0  0  0  0
   62.7080   33.6980   46.4430 C   0  0  0  0  0  0  0  0  0  0  0  0
   63.6610   33.2780   47.3420 C   0  0  0  0  0  0  0  0  0  0  0  0
   63.1570   33.3250   48.5930 N   0  0  0  0  0  0  0  0  0  0  0  0
   61.8950   33.7730   48.4260 C   0  0  0  0  0  0  0  0  0  0  0  0
   56.9540   30.3020   44.3940 C   0  0  0  0  0  0  0  0  0  0  0  0
   56.7250   28.9280   44.2960 C   0  0  0  0  0  0  0  0  0  0  0  0
   57.3075   24.6229   47.0575 H   0  0  0  0  0  0  0  0  0  0  0  0
   55.5642   24.1748   47.0275 H   0  0  0  0  0  0  0  0  0  0  0  0
   58.7476   23.4268   45.8310 H   0  0  0  0  0  0  0  0  0  0  0  0
   59.2232   21.7708   44.0192 H   0  0  0  0  0  0  0  0  0  0  0  0
   57.3470   21.0198   42.5409 H   0  0  0  0  0  0  0  0  0  0  0  0
   58.5605   27.8761   46.9811 H   0  0  0  0  0  0  0  0  0  0  0  0
   58.9610   30.3270   47.1631 H   0  0  0  0  0  0  0  0  0  0  0  0
   57.9385   33.3057   48.7875 H   0  0  0  0  0  0  0  0  0  0  0  0
   59.2735   32.4583   47.9284 H   0  0  0  0  0  0  0  0  0  0  0  0
   58.5346   35.3757   47.4026 H   0  0  0  0  0  0  0  0  0  0  0  0
   59.7634   34.8508   48.6321 H   0  0  0  0  0  0  0  0  0  0  0  0
   59.9935   33.8618   45.7888 H   0  0  0  0  0  0  0  0  0  0  0  0
   60.5230   35.5394   46.2048 H   0  0  0  0  0  0  0  0  0  0  0  0
   62.8334   33.7702   45.3526 H   0  0  0  0  0  0  0  0  0  0  0  0
   64.6790   32.9533   47.0808 H   0  0  0  0  0  0  0  0  0  0  0  0
   61.1880   33.9317   49.2536 H   0  0  0  0  0  0  0  0  0  0  0  0
   56.5222   30.9825   43.6454 H   0  0  0  0  0  0  0  0  0  0  0  0
   56.1132   28.5323   43.4719 H   0  0  0  0  0  0  0  0  0  0  0  0
  1  2  2  0
  2  3  1  0
  3  4  1  0
  4  5  1  0
  5  6  2  0
  6  7  1  0
  7  8  2  0
  8  9  1  0
  9 10  2  0
  2 11  1  0
 11 12  1  0
 12 13  2  0
 13 14  1  0
 14 15  2  0
 15 16  1  0
 16 17  2  0
 16 18  1  0
 18 19  1  0
 19 20  1  0
 20 21  1  0
 21 22  1  0
 22 23  1  0
 23 24  2  0
 24 25  1  0
 25 26  2  0
 15 27  1  0
 27 28  2  0
  9  4  1  0
 28 12  1  0
 26 22  1  0
  3 29  1  0
  3 30  1  0
  5 31  1  0
  6 32  1  0
  7 33  1  0
 13 34  1  0
 14 35  1  0
 19 36  1  0
 19 37  1  0
 20 38  1  0
 20 39  1  0
 21 40  1  0
 21 41  1  0
 23 42  1  0
 24 43  1  0
 26 44  1  0
 27 45  1  0
 28 46  1  0
M  CHG  2  11  -1  18  -1
M  END
>  <UniqueID>  (71) 
69

>  <SMILES>  (71) 
O=C(Cn1cccnc1=O)[N-]c1ccc(C(=O)[N-]CCCn2ccnc2)cc1

>  <Energy>  (71) 
80.40927216477378

>  <Genealogy>  (71) 
O=C(Cn1cccnc1=O)[N-]c1ccc(C(=O)[N-]CCCn2ccnc2)cc1 (protonated)
O=C(Cn1cccnc1=O)[N-]c1ccc(C(=O)[N-]CCCn2ccnc2)cc1 (3D coordinates assigned)
O=C(Cn1cccnc1=O)[N-]c1ccc(C(=O)[N-]CCCn2ccnc2)cc1 (optimized conformer: 80.40927216477378 kcal/mol)

>  <smiles>  (71) 
O=C(Cn1cccnc1=O)Nc1ccc(C(=O)NCCCn2ccnc2)cc1

>  <score_type>  (71) 
oracle

>  <origin>  (71) 
adg

>  <m_score__min__energy>  (71) 
-10.24

>  <m_primary>  (71) 
energy

$$$$
71:0
     RDKit          3D

 45 48  0  0  0  0  0  0  0  0999 V2000
   56.4830   34.4100   44.9050 O   0  0  0  0  0  0  0  0  0  0  0  0
   57.3990   33.5460   44.9500 C   0  0  0  0  0  0  0  0  0  0  0  0
   57.3840   32.4650   44.0080 N   0  0  0  0  0  0  0  0  0  0  0  0
   56.6300   31.2210   44.1650 C   0  0  0  0  0  0  0  0  0  0  0  0
   57.2740   30.3410   45.2080 C   0  0  0  0  0  0  0  0  0  0  0  0
   58.4500   30.7580   45.8550 C   0  0  0  0  0  0  0  0  0  0  0  0
   59.1240   29.9080   46.7550 C   0  0  0  0  0  0  0  0  0  0  0  0
   60.3820   30.2880   47.3540 N   0  0  0  0  0  0  0  0  0  0  0  0
   60.7430   30.1770   48.6510 C   0  0  0  0  0  0  0  0  0  0  0  0
   62.0050   30.7070   48.8050 C   0  0  0  0  0  0  0  0  0  0  0  0
   62.3660   31.1260   47.5410 C   0  0  0  0  0  0  0  0  0  0  0  0
   61.3660   30.8630   46.6790 N   0  0  0  0  0  0  0  0  0  0  0  0
   58.5710   28.6450   47.0280 C   0  0  0  0  0  0  0  0  0  0  0  0
   57.3870   28.2360   46.4110 C   0  0  0  0  0  0  0  0  0  0  0  0
   56.7430   29.0720   45.4970 C   0  0  0  0  0  0  0  0  0  0  0  0
   55.5800   28.6330   44.8740 O   0  0  0  0  0  0  0  0  0  0  0  0
   58.4760   33.6930   45.9420 C   0  0  0  0  0  0  0  0  0  0  0  0
   59.6850   34.3040   45.5880 C   0  0  0  0  0  0  0  0  0  0  0  0
   60.6790   34.4980   46.5480 C   0  0  0  0  0  0  0  0  0  0  0  0
   60.4680   34.0950   47.8690 C   0  0  0  0  0  0  0  0  0  0  0  0
   59.2620   33.4730   48.2420 C   0  0  0  0  0  0  0  0  0  0  0  0
   59.0130   33.1000   49.6600 C   0  0  0  0  0  0  0  0  0  0  0  0
   58.1550   32.0300   49.9790 C   0  0  0  0  0  0  0  0  0  0  0  0
   57.8940   31.7040   51.3140 C   0  0  0  0  0  0  0  0  0  0  0  0
   58.4880   32.4350   52.3430 C   0  0  0  0  0  0  0  0  0  0  0  0
   59.3470   33.4940   52.0410 C   0  0  0  0  0  0  0  0  0  0  0  0
   59.6110   33.8260   50.7090 C   0  0  0  0  0  0  0  0  0  0  0  0
   58.2780   33.2540   47.2590 C   0  0  0  0  0  0  0  0  0  0  0  0
   55.6017   31.4577   44.4758 H   0  0  0  0  0  0  0  0  0  0  0  0
   56.6219   30.6861   43.2039 H   0  0  0  0  0  0  0  0  0  0  0  0
   58.8505   31.7630   45.6560 H   0  0  0  0  0  0  0  0  0  0  0  0
   60.1306   29.7364   49.4515 H   0  0  0  0  0  0  0  0  0  0  0  0
   62.5945   30.7800   49.7308 H   0  0  0  0  0  0  0  0  0  0  0  0
   63.3226   31.6013   47.2783 H   0  0  0  0  0  0  0  0  0  0  0  0
   59.0765   27.9713   47.7355 H   0  0  0  0  0  0  0  0  0  0  0  0
   56.9596   27.2501   46.6463 H   0  0  0  0  0  0  0  0  0  0  0  0
   59.8516   34.6317   44.5512 H   0  0  0  0  0  0  0  0  0  0  0  0
   61.6313   34.9695   46.2639 H   0  0  0  0  0  0  0  0  0  0  0  0
   61.2504   34.2652   48.6232 H   0  0  0  0  0  0  0  0  0  0  0  0
   57.6867   31.4464   49.1727 H   0  0  0  0  0  0  0  0  0  0  0  0
   57.2187   30.8692   51.5530 H   0  0  0  0  0  0  0  0  0  0  0  0
   58.2799   32.1774   53.3920 H   0  0  0  0  0  0  0  0  0  0  0  0
   59.8169   34.0681   52.8531 H   0  0  0  0  0  0  0  0  0  0  0  0
   60.2903   34.6598   50.4783 H   0  0  0  0  0  0  0  0  0  0  0  0
   57.3462   32.7342   47.5264 H   0  0  0  0  0  0  0  0  0  0  0  0
  1  2  2  0
  2  3  1  0
  3  4  1  0
  4  5  1  0
  5  6  2  0
  6  7  1  0
  7  8  1  0
  8  9  1  0
  9 10  2  0
 10 11  1  0
 11 12  2  0
  7 13  2  0
 13 14  1  0
 14 15  2  0
 15 16  1  0
  2 17  1  0
 17 18  2  0
 18 19  1  0
 19 20  2  0
 20 21  1  0
 21 22  1  0
 22 23  2  0
 23 24  1  0
 24 25  2  0
 25 26  1  0
 26 27  2  0
 21 28  2  0
 15  5  1  0
 28 17  1  0
 12  8  1  0
 27 22  1  0
  4 29  1  0
  4 30  1  0
  6 31  1  0
  9 32  1  0
 10 33  1  0
 11 34  1  0
 13 35  1  0
 14 36  1  0
 18 37  1  0
 19 38  1  0
 20 39  1  0
 23 40  1  0
 24 41  1  0
 25 42  1  0
 26 43  1  0
 27 44  1  0
 28 45  1  0
M  CHG  2   3  -1  16  -1
M  END
>  <UniqueID>  (72) 
70

>  <SMILES>  (72) 
O=C([N-]Cc1cc(-n2cccn2)ccc1[O-])c1cccc(-c2ccccc2)c1

>  <Energy>  (72) 
85.13522477363509

>  <Genealogy>  (72) 
O=C([N-]Cc1cc(-n2cccn2)ccc1[O-])c1cccc(-c2ccccc2)c1 (protonated)
O=C([N-]Cc1cc(-n2cccn2)ccc1[O-])c1cccc(-c2ccccc2)c1 (3D coordinates assigned)
O=C([N-]Cc1cc(-n2cccn2)ccc1[O-])c1cccc(-c2ccccc2)c1 (optimized conformer: 85.13522477363509 kcal/mol)

>  <smiles>  (72) 
O=C(NCc1cc(-n2cccn2)ccc1O)c1cccc(-c2ccccc2)c1

>  <score_type>  (72) 
oracle

>  <origin>  (72) 
adg

>  <m_score__min__energy>  (72) 
-13.09

>  <m_primary>  (72) 
energy

$$$$
72:0
     RDKit          3D

 83 83  0  0  0  0  0  0  0  0999 V2000
   57.3630   31.9620   51.6160 C   0  0  0  0  0  0  0  0  0  0  0  0
   57.5040   30.6410   52.3670 C   0  0  0  0  0  0  0  0  0  0  0  0
   57.7260   29.5720   51.4500 O   0  0  0  0  0  0  0  0  0  0  0  0
   58.9120   29.4180   50.7210 C   0  0  0  0  0  0  0  0  0  0  0  0
   59.9370   28.9210   51.2590 O   0  0  0  0  0  0  0  0  0  0  0  0
   58.9440   29.8000   49.2740 C   0  0  0  0  0  0  0  0  0  0  0  0
   59.3910   28.6150   48.4080 C   0  0  0  0  0  0  0  0  0  0  0  0
   58.5070   28.4590   47.2520 N   0  0  0  0  0  0  0  0  0  0  0  0
   57.7980   27.2400   46.9930 C   0  0  0  0  0  0  0  0  0  0  0  0
   57.8100   26.3090   47.8470 O   0  0  0  0  0  0  0  0  0  0  0  0
   57.0920   27.0260   45.6800 C   0  0  1  0  0  0  0  0  0  0  0  0
   57.2810   28.2180   44.8490 N   0  0  0  0  0  0  0  0  0  0  0  0
   56.5060   29.4190   44.9490 C   0  0  0  0  0  0  0  0  0  0  0  0
   55.2670   29.3200   45.1640 O   0  0  0  0  0  0  0  0  0  0  0  0
   57.0960   30.7910   44.6760 C   0  0  1  0  0  0  0  0  0  0  0  0
   58.5070   30.8440   45.0600 N   0  0  0  0  0  0  0  0  0  0  0  0
   58.9690   31.4520   46.2810 C   0  0  0  0  0  0  0  0  0  0  0  0
   59.9120   30.9200   46.9260 O   0  0  0  0  0  0  0  0  0  0  0  0
   58.4060   32.7630   46.7820 C   0  0  1  0  0  0  0  0  0  0  0  0
   58.3420   32.7310   48.2460 N   0  0  0  0  0  0  0  0  0  0  0  0
   59.3210   33.2950   49.1250 C   0  0  0  0  0  0  0  0  0  0  0  0
   59.6040   34.5210   49.0640 O   0  0  0  0  0  0  0  0  0  0  0  0
   59.9530   32.4690   50.0630 O   0  0  0  0  0  0  0  0  0  0  0  0
   61.3330   32.5920   50.4000 C   0  0  0  0  0  0  0  0  0  0  0  0
   62.1710   32.6690   49.1540 C   0  0  0  0  0  0  0  0  0  0  0  0
   62.3930   31.5240   48.3690 C   0  0  0  0  0  0  0  0  0  0  0  0
   63.1970   31.6020   47.2290 C   0  0  0  0  0  0  0  0  0  0  0  0
   63.7880   32.8180   46.8660 C   0  0  0  0  0  0  0  0  0  0  0  0
   63.5710   33.9600   47.6410 C   0  0  0  0  0  0  0  0  0  0  0  0
   62.7700   33.8880   48.7850 C   0  0  0  0  0  0  0  0  0  0  0  0
   59.1420   34.0510   46.2870 C   0  0  1  0  0  0  0  0  0  0  0  0
   60.6490   33.7990   46.0790 C   0  0  0  0  0  0  0  0  0  0  0  0
   58.5100   34.5700   44.9650 C   0  0  0  0  0  0  0  0  0  0  0  0
   57.0110   34.2630   44.8710 C   0  0  0  0  0  0  0  0  0  0  0  0
   56.9160   31.2250   43.1900 C   0  0  0  0  0  0  0  0  0  0  0  0
   58.1410   31.9630   42.6270 C   0  0  0  0  0  0  0  0  0  0  0  0
   56.5410   30.0400   42.2870 C   0  0  0  0  0  0  0  0  0  0  0  0
   57.6220   25.7460   44.9690 C   0  0  0  0  0  0  0  0  0  0  0  0
   56.6800   24.5510   45.2050 C   0  0  0  0  0  0  0  0  0  0  0  0
   57.7940   25.9640   43.4550 C   0  0  0  0  0  0  0  0  0  0  0  0
   57.2750   32.7869   52.3384 H   0  0  0  0  0  0  0  0  0  0  0  0
   58.2493   32.1210   50.9841 H   0  0  0  0  0  0  0  0  0  0  0  0
   56.4631   31.9303   50.9841 H   0  0  0  0  0  0  0  0  0  0  0  0
   58.3553   30.7069   53.0606 H   0  0  0  0  0  0  0  0  0  0  0  0
   56.5768   30.4463   52.9260 H   0  0  0  0  0  0  0  0  0  0  0  0
   57.9375   30.1155   48.9619 H   0  0  0  0  0  0  0  0  0  0  0  0
   59.6612   30.6236   49.1423 H   0  0  0  0  0  0  0  0  0  0  0  0
   60.4182   28.7915   48.0563 H   0  0  0  0  0  0  0  0  0  0  0  0
   59.3483   27.6975   49.0133 H   0  0  0  0  0  0  0  0  0  0  0  0
   58.4460   29.2460   46.5680 H   0  0  0  0  0  0  0  0  0  0  0  0
   56.0167   26.8729   45.8541 H   0  0  0  0  0  0  0  0  0  0  0  0
   56.5370   31.5065   45.2970 H   0  0  0  0  0  0  0  0  0  0  0  0
   57.4016   32.8449   46.3410 H   0  0  0  0  0  0  0  0  0  0  0  0
   61.4812   33.5061   50.9937 H   0  0  0  0  0  0  0  0  0  0  0  0
   61.6386   31.7101   50.9821 H   0  0  0  0  0  0  0  0  0  0  0  0
   61.9333   30.5658   48.6526 H   0  0  0  0  0  0  0  0  0  0  0  0
   63.3661   30.7052   46.6149 H   0  0  0  0  0  0  0  0  0  0  0  0
   64.4236   32.8744   45.9700 H   0  0  0  0  0  0  0  0  0  0  0  0
   64.0305   34.9164   47.3511 H   0  0  0  0  0  0  0  0  0  0  0  0
   62.6076   34.7866   49.3982 H   0  0  0  0  0  0  0  0  0  0  0  0
   59.0249   34.8152   47.0695 H   0  0  0  0  0  0  0  0  0  0  0  0
   61.1453   33.7160   47.0572 H   0  0  0  0  0  0  0  0  0  0  0  0
   60.7902   32.8648   45.5157 H   0  0  0  0  0  0  0  0  0  0  0  0
   61.0865   34.6365   45.5157 H   0  0  0  0  0  0  0  0  0  0  0  0
   58.6511   35.6596   44.9105 H   0  0  0  0  0  0  0  0  0  0  0  0
   59.0096   34.0553   44.1310 H   0  0  0  0  0  0  0  0  0  0  0  0
   56.5902   34.1768   45.8837 H   0  0  0  0  0  0  0  0  0  0  0  0
   56.5034   35.0758   44.3309 H   0  0  0  0  0  0  0  0  0  0  0  0
   56.8638   33.3161   44.3309 H   0  0  0  0  0  0  0  0  0  0  0  0
   56.0788   31.9385   43.1908 H   0  0  0  0  0  0  0  0  0  0  0  0
   58.7586   32.3351   43.4577 H   0  0  0  0  0  0  0  0  0  0  0  0
   58.7340   31.2717   42.0102 H   0  0  0  0  0  0  0  0  0  0  0  0
   57.8071   32.8104   42.0102 H   0  0  0  0  0  0  0  0  0  0  0  0
   56.2676   29.1760   42.9105 H   0  0  0  0  0  0  0  0  0  0  0  0
   55.6872   30.3187   41.6520 H   0  0  0  0  0  0  0  0  0  0  0  0
   57.3997   29.7768   41.6520 H   0  0  0  0  0  0  0  0  0  0  0  0
   58.6068   25.5262   45.4070 H   0  0  0  0  0  0  0  0  0  0  0  0
   56.5541   24.3913   46.2860 H   0  0  0  0  0  0  0  0  0  0  0  0
   55.7011   24.7600   44.7488 H   0  0  0  0  0  0  0  0  0  0  0  0
   57.1118   23.6480   44.7488 H   0  0  0  0  0  0  0  0  0  0  0  0
   58.4668   26.8168   43.2814 H   0  0  0  0  0  0  0  0  0  0  0  0
   58.2242   25.0592   43.0008 H   0  0  0  0  0  0  0  0  0  0  0  0
   56.8139   26.1718   43.0008 H   0  0  0  0  0  0  0  0  0  0  0  0
  1  2  1  0
  2  3  1  0
  3  4  1  0
  4  5  2  0
  4  6  1  0
  6  7  1  0
  7  8  1  0
  8  9  1  0
  9 10  2  0
  9 11  1  0
 11 12  1  0
 12 13  1  0
 13 14  2  0
 13 15  1  0
 15 16  1  0
 16 17  1  0
 17 18  2  0
 17 19  1  0
 19 20  1  0
 20 21  1  0
 21 22  2  0
 21 23  1  0
 23 24  1  0
 24 25  1  0
 25 26  2  0
 26 27  1  0
 27 28  2  0
 28 29  1  0
 29 30  2  0
 19 31  1  0
 31 32  1  0
 31 33  1  0
 33 34  1  0
 15 35  1  0
 35 36  1  0
 35 37  1  0
 11 38  1  0
 38 39  1  0
 38 40  1  0
 30 25  1  0
  1 41  1  0
  1 42  1  0
  1 43  1  0
  2 44  1  0
  2 45  1  0
  6 46  1  0
  6 47  1  0
  7 48  1  0
  7 49  1  0
  8 50  1  0
 11 51  1  1
 15 52  1  1
 19 53  1  6
 24 54  1  0
 24 55  1  0
 26 56  1  0
 27 57  1  0
 28 58  1  0
 29 59  1  0
 30 60  1  0
 31 61  1  1
 32 62  1  0
 32 63  1  0
 32 64  1  0
 33 65  1  0
 33 66  1  0
 34 67  1  0
 34 68  1  0
 34 69  1  0
 35 70  1  0
 36 71  1  0
 36 72  1  0
 36 73  1  0
 37 74  1  0
 37 75  1  0
 37 76  1  0
 38 77  1  0
 39 78  1  0
 39 79  1  0
 39 80  1  0
 40 81  1  0
 40 82  1  0
 40 83  1  0
M  CHG  3  12  -1  16  -1  20  -1
M  END
>  <UniqueID>  (73) 
71

>  <SMILES>  (73) 
CCOC(=O)CCNC(=O)[C@@H]([N-]C(=O)[C@@H]([N-]C(=O)C([N-]C(=O)OCc1ccccc1)C(C)CC)C(C)C)C(C)C

>  <Energy>  (73) 
55.68334233939045

>  <Genealogy>  (73) 
CCOC(=O)CCNC(=O)C([N-]C(=O)C([N-]C(=O)C([N-]C(=O)OCc1ccccc1)C(C)CC)C(C)C)C(C)C (protonated)
CCOC(=O)CCNC(=O)[C@@H]([N-]C(=O)[C@@H]([N-]C(=O)C([N-]C(=O)OCc1ccccc1)C(C)CC)C(C)C)C(C)C (chirality)
CCOC(=O)CCNC(=O)[C@@H]([N-]C(=O)[C@@H]([N-]C(=O)C([N-]C(=O)OCc1ccccc1)C(C)CC)C(C)C)C(C)C (3D coordinates assigned)
CCOC(=O)CCNC(=O)[C@@H]([N-]C(=O)[C@@H]([N-]C(=O)C([N-]C(=O)OCc1ccccc1)C(C)CC)C(C)C)C(C)C (optimized conformer: 55.68334233939045 kcal/mol)

>  <smiles>  (73) 
CCOC(=O)CCNC(=O)C(NC(=O)C(NC(=O)C(NC(=O)OCc1ccccc1)C(C)CC)C(C)C)C(C)C

>  <score_type>  (73) 
oracle

>  <origin>  (73) 
adg

>  <m_score__min__energy>  (73) 
-13.1

>  <m_primary>  (73) 
energy

$$$$
73:0
     RDKit          3D

 45 47  0  0  0  0  0  0  0  0999 V2000
   55.8000   25.2993   44.7219 H   0  0  0  0  0  0  0  0  0  0  0  0
   56.2280   25.7510   45.6290 C   0  0  0  0  0  0  0  0  0  0  0  0
   55.8120   26.9250   46.0000 N   0  0  0  0  0  0  0  0  0  0  0  0
   56.2790   28.1840   45.4940 C   0  0  0  0  0  0  0  0  0  0  0  0
   55.5170   29.0690   44.8220 N   0  0  0  0  0  0  0  0  0  0  0  0
   56.2640   30.1280   44.5500 N   0  0  0  0  0  0  0  0  0  0  0  0
   57.4930   29.9390   45.0700 C   0  0  0  0  0  0  0  0  0  0  0  0
   58.6460   30.8680   44.7880 C   0  0  0  0  0  0  0  0  0  0  0  0
   59.2995   30.9035   45.6721 H   0  0  0  0  0  0  0  0  0  0  0  0
   59.1886   30.4843   43.9115 H   0  0  0  0  0  0  0  0  0  0  0  0
   58.1850   32.2310   44.4810 N   0  0  0  0  0  0  0  0  0  0  0  0
   58.5310   32.5180   43.5340 H   0  0  0  0  0  0  0  0  0  0  0  0
   57.1390   32.2300   44.4400 H   0  0  0  0  0  0  0  0  0  0  0  0
   58.6110   33.1750   45.4880 C   0  0  0  0  0  0  0  0  0  0  0  0
   59.1890   34.4040   45.1160 C   0  0  0  0  0  0  0  0  0  0  0  0
   59.2980   34.6579   44.0513 H   0  0  0  0  0  0  0  0  0  0  0  0
   59.6250   35.3030   46.0940 C   0  0  0  0  0  0  0  0  0  0  0  0
   60.0704   36.2639   45.7970 H   0  0  0  0  0  0  0  0  0  0  0  0
   59.4960   34.9830   47.4480 C   0  0  0  0  0  0  0  0  0  0  0  0
   59.8392   35.6923   48.2155 H   0  0  0  0  0  0  0  0  0  0  0  0
   58.9310   33.7620   47.8280 C   0  0  0  0  0  0  0  0  0  0  0  0
   58.8342   33.5093   48.8942 H   0  0  0  0  0  0  0  0  0  0  0  0
   58.4890   32.8620   46.8540 C   0  0  0  0  0  0  0  0  0  0  0  0
   58.0431   31.9033   47.1575 H   0  0  0  0  0  0  0  0  0  0  0  0
   57.5410   28.7000   45.6950 C   0  0  0  0  0  0  0  0  0  0  0  0
   58.6910   28.0230   46.3300 C   0  0  0  0  0  0  0  0  0  0  0  0
   58.8300   28.0350   47.7280 C   0  0  0  0  0  0  0  0  0  0  0  0
   58.0924   28.5667   48.3471 H   0  0  0  0  0  0  0  0  0  0  0  0
   59.9020   27.3740   48.3360 C   0  0  0  0  0  0  0  0  0  0  0  0
   60.0004   27.3785   49.4316 H   0  0  0  0  0  0  0  0  0  0  0  0
   60.8480   26.7080   47.5530 C   0  0  0  0  0  0  0  0  0  0  0  0
   61.6857   26.1805   48.0325 H   0  0  0  0  0  0  0  0  0  0  0  0
   60.7300   26.7120   46.1610 C   0  0  0  0  0  0  0  0  0  0  0  0
   61.4810   26.1957   45.5450 H   0  0  0  0  0  0  0  0  0  0  0  0
   59.6590   27.3710   45.5490 C   0  0  0  0  0  0  0  0  0  0  0  0
   59.5746   27.3786   44.4523 H   0  0  0  0  0  0  0  0  0  0  0  0
   57.2260   25.0220   46.3600 N   0  0  0  0  0  0  0  0  0  0  0  0
   58.2570   24.3200   45.6000 C   0  0  0  0  0  0  0  0  0  0  0  0
   58.9619   23.8401   46.2948 H   0  0  0  0  0  0  0  0  0  0  0  0
   57.7873   23.5532   44.9664 H   0  0  0  0  0  0  0  0  0  0  0  0
   58.7983   25.0380   44.9664 H   0  0  0  0  0  0  0  0  0  0  0  0
   56.9070   24.5310   47.7020 C   0  0  0  0  0  0  0  0  0  0  0  0
   57.3450   25.2051   48.4528 H   0  0  0  0  0  0  0  0  0  0  0  0
   55.8150   24.4988   47.8307 H   0  0  0  0  0  0  0  0  0  0  0  0
   57.3213   23.5202   47.8307 H   0  0  0  0  0  0  0  0  0  0  0  0
  1  2  1  0
  2  3  2  0
  3  4  1  0
  4  5  1  0
  5  6  1  0
  6  7  2  0
  7  8  1  0
  8  9  1  0
  8 10  1  0
  8 11  1  0
 11 12  1  0
 11 13  1  0
 11 14  1  0
 14 15  2  0
 15 16  1  0
 15 17  1  0
 17 18  1  0
 17 19  2  0
 19 20  1  0
 19 21  1  0
 21 22  1  0
 21 23  2  0
 23 24  1  0
  7 25  1  0
 25 26  1  0
 26 27  2  0
 27 28  1  0
 27 29  1  0
 29 30  1  0
 29 31  2  0
 31 32  1  0
 31 33  1  0
 33 34  1  0
 33 35  2  0
 35 36  1  0
  2 37  1  0
 37 38  1  0
 38 39  1  0
 38 40  1  0
 38 41  1  0
 37 42  1  0
 42 43  1  0
 42 44  1  0
 42 45  1  0
 25  4  2  0
 35 26  1  0
 23 14  1  0
M  CHG  2   5  -1  11   1
M  END
>  <UniqueID>  (74) 
72

>  <SMILES>  (74) 
CN(C)/C=N\c1[n-]nc(C[NH2+]c2ccccc2)c1-c1ccccc1

>  <Energy>  (74) 
84.29885735101628

>  <Genealogy>  (74) 
CN(C)C=Nc1[n-]nc(C[NH2+]c2ccccc2)c1-c1ccccc1 (protonated)
CN(C)/C=N\c1[n-]nc(C[NH2+]c2ccccc2)c1-c1ccccc1 (cis-trans isomerization)
CN(C)/C=N\c1[n-]nc(C[NH2+]c2ccccc2)c1-c1ccccc1 (3D coordinates assigned)
CN(C)/C=N\c1[n-]nc(C[NH2+]c2ccccc2)c1-c1ccccc1 (optimized conformer: 84.29885735101628 kcal/mol)

>  <smiles>  (74) 
CN(C)C=Nc1[nH]nc(CNc2ccccc2)c1-c1ccccc1

>  <score_type>  (74) 
oracle

>  <origin>  (74) 
adg

>  <m_score__min__energy>  (74) 
-8.1199999999999992

>  <m_primary>  (74) 
energy

$$$$
74:0
     RDKit          3D

 56 59  0  0  0  0  0  0  0  0999 V2000
   55.8480   30.2980   44.7810 O   0  0  0  0  0  0  0  0  0  0  0  0
   57.0700   30.7710   44.0460 S   0  0  0  0  0  0  0  0  0  0  0  0
   56.6990   31.0180   42.6120 O   0  0  0  0  0  0  0  0  0  0  0  0
   58.2940   29.5420   44.1190 N   0  0  0  0  0  0  0  0  0  0  0  0
   58.7820   28.9540   45.3380 C   0  0  0  0  0  0  0  0  0  0  0  0
   59.3110   27.6470   45.3790 C   0  0  0  0  0  0  0  0  0  0  0  0
   59.7970   27.1220   46.5750 C   0  0  0  0  0  0  0  0  0  0  0  0
   59.7700   27.8870   47.7450 C   0  0  0  0  0  0  0  0  0  0  0  0
   59.2350   29.1850   47.7320 C   0  0  0  0  0  0  0  0  0  0  0  0
   59.2500   30.0700   48.9630 C   0  0  1  0  0  0  0  0  0  0  0  0
   58.2360   29.7150   49.8730 O   0  0  0  0  0  0  0  0  0  0  0  0
   60.6470   30.0600   49.6140 C   0  0  0  0  0  0  0  0  0  0  0  0
   60.5600   30.4850   51.0180 N   0  0  0  0  0  0  0  0  0  0  0  0
   61.8930   30.6950   51.6010 C   0  0  0  0  0  0  0  0  0  0  0  0
   62.3100   32.1660   51.5100 C   0  0  0  0  0  0  0  0  0  0  0  0
   63.1180   32.4260   50.2750 C   0  0  0  0  0  0  0  0  0  0  0  0
   64.5070   32.4550   50.1900 C   0  0  0  0  0  0  0  0  0  0  0  0
   64.8950   32.8640   48.9600 N   0  0  0  0  0  0  0  0  0  0  0  0
   63.7650   33.1060   48.2730 C   0  0  0  0  0  0  0  0  0  0  0  0
   63.6560   33.5970   46.9720 C   0  0  0  0  0  0  0  0  0  0  0  0
   62.3660   33.8250   46.4590 C   0  0  0  0  0  0  0  0  0  0  0  0
   61.2250   33.5540   47.2470 C   0  0  0  0  0  0  0  0  0  0  0  0
   61.3640   33.0570   48.5580 C   0  0  0  0  0  0  0  0  0  0  0  0
   62.6580   32.8500   49.0420 C   0  0  0  0  0  0  0  0  0  0  0  0
   58.7480   29.7110   46.5200 C   0  0  0  0  0  0  0  0  0  0  0  0
   57.6890   32.2670   44.7360 C   0  0  0  0  0  0  0  0  0  0  0  0
   57.3970   32.6200   46.0630 C   0  0  0  0  0  0  0  0  0  0  0  0
   57.9130   33.8010   46.6020 C   0  0  0  0  0  0  0  0  0  0  0  0
   58.7160   34.6330   45.8190 C   0  0  0  0  0  0  0  0  0  0  0  0
   59.0060   34.2870   44.4960 C   0  0  0  0  0  0  0  0  0  0  0  0
   58.4930   33.1060   43.9550 C   0  0  0  0  0  0  0  0  0  0  0  0
   58.6890   29.2210   43.2070 H   0  0  0  0  0  0  0  0  0  0  0  0
   59.3401   27.0393   44.4626 H   0  0  0  0  0  0  0  0  0  0  0  0
   60.2040   26.1003   46.5986 H   0  0  0  0  0  0  0  0  0  0  0  0
   60.1701   27.4696   48.6808 H   0  0  0  0  0  0  0  0  0  0  0  0
   59.0341   31.1017   48.6485 H   0  0  0  0  0  0  0  0  0  0  0  0
   58.5690   29.8870   50.7930 H   0  0  0  0  0  0  0  0  0  0  0  0
   61.0611   29.0419   49.5683 H   0  0  0  0  0  0  0  0  0  0  0  0
   61.2999   30.7579   49.0693 H   0  0  0  0  0  0  0  0  0  0  0  0
   60.0920   29.7180   51.5540 H   0  0  0  0  0  0  0  0  0  0  0  0
   61.8744   30.3917   52.6582 H   0  0  0  0  0  0  0  0  0  0  0  0
   62.6194   30.0908   51.0378 H   0  0  0  0  0  0  0  0  0  0  0  0
   61.4071   32.7939   51.4866 H   0  0  0  0  0  0  0  0  0  0  0  0
   62.9282   32.4072   52.3873 H   0  0  0  0  0  0  0  0  0  0  0  0
   65.1920   32.1839   51.0068 H   0  0  0  0  0  0  0  0  0  0  0  0
   65.8760   32.9970   48.6270 H   0  0  0  0  0  0  0  0  0  0  0  0
   64.5512   33.7997   46.3657 H   0  0  0  0  0  0  0  0  0  0  0  0
   62.2450   34.2166   45.4382 H   0  0  0  0  0  0  0  0  0  0  0  0
   60.2212   33.7323   46.8341 H   0  0  0  0  0  0  0  0  0  0  0  0
   60.4830   32.8392   49.1797 H   0  0  0  0  0  0  0  0  0  0  0  0
   58.3348   30.7302   46.4989 H   0  0  0  0  0  0  0  0  0  0  0  0
   56.7616   31.9664   46.6786 H   0  0  0  0  0  0  0  0  0  0  0  0
   57.6868   34.0755   47.6429 H   0  0  0  0  0  0  0  0  0  0  0  0
   59.1213   35.5629   46.2443 H   0  0  0  0  0  0  0  0  0  0  0  0
   59.6380   34.9447   43.8812 H   0  0  0  0  0  0  0  0  0  0  0  0
   58.7210   32.8346   42.9137 H   0  0  0  0  0  0  0  0  0  0  0  0
  1  2  2  0
  2  3  2  0
  2  4  1  0
  4  5  1  0
  5  6  2  0
  6  7  1  0
  7  8  2  0
  8  9  1  0
  9 10  1  0
 10 11  1  0
 10 12  1  0
 12 13  1  0
 13 14  1  0
 14 15  1  0
 15 16  1  0
 16 17  2  0
 17 18  1  0
 18 19  1  0
 19 20  2  0
 20 21  1  0
 21 22  2  0
 22 23  1  0
 23 24  2  0
  9 25  2  0
  2 26  1  0
 26 27  2  0
 27 28  1  0
 28 29  2  0
 29 30  1  0
 30 31  2  0
 25  5  1  0
 31 26  1  0
 24 16  1  0
 24 19  1  0
  4 32  1  0
  6 33  1  0
  7 34  1  0
  8 35  1  0
 10 36  1  6
 11 37  1  0
 12 38  1  0
 12 39  1  0
 13 40  1  0
 14 41  1  0
 14 42  1  0
 15 43  1  0
 15 44  1  0
 17 45  1  0
 18 46  1  0
 20 47  1  0
 21 48  1  0
 22 49  1  0
 23 50  1  0
 25 51  1  0
 27 52  1  0
 28 53  1  0
 29 54  1  0
 30 55  1  0
 31 56  1  0
M  END
>  <UniqueID>  (75) 
73

>  <SMILES>  (75) 
O=S(=O)(Nc1cccc([C@@H](O)CNCCc2c[nH]c3ccccc23)c1)c1ccccc1

>  <Energy>  (75) 
92.49259777967099

>  <Genealogy>  (75) 
O=S(=O)(Nc1cccc([C@@H](O)CNCCc2c[nH]c3ccccc23)c1)c1ccccc1 (chirality)
O=S(=O)(Nc1cccc([C@@H](O)CNCCc2c[nH]c3ccccc23)c1)c1ccccc1 (3D coordinates assigned)
O=S(=O)(Nc1cccc([C@@H](O)CNCCc2c[nH]c3ccccc23)c1)c1ccccc1 (optimized conformer: 92.49259777967099 kcal/mol)

>  <smiles>  (75) 
O=S(=O)(Nc1cccc(C(O)CNCCc2c[nH]c3ccccc23)c1)c1ccccc1

>  <score_type>  (75) 
oracle

>  <origin>  (75) 
adg

>  <m_score__min__energy>  (75) 
-10.76

>  <m_primary>  (75) 
energy

$$$$
75:0
     RDKit          3D

 43 45  0  0  0  0  0  0  0  0999 V2000
   51.0150   32.3420   49.9000 N   0  0  0  0  0  0  0  0  0  0  0  0
   51.4580   32.2850   51.2550 C   0  0  0  0  0  0  0  0  0  0  0  0
   51.0200   33.1230   52.0850 O   0  0  0  0  0  0  0  0  0  0  0  0
   52.3430   31.2020   51.7240 C   0  0  0  0  0  0  0  0  0  0  0  0
   53.6630   31.1170   51.4990 C   0  0  0  0  0  0  0  0  0  0  0  0
   54.6500   30.4930   52.3980 C   0  0  0  0  0  0  0  0  0  0  0  0
   54.3150   30.2430   53.5860 O   0  0  0  0  0  0  0  0  0  0  0  0
   55.9800   30.2110   51.9410 N   0  0  0  0  0  0  0  0  0  0  0  0
   57.0040   31.1730   51.6440 C   0  0  0  0  0  0  0  0  0  0  0  0
   57.1620   32.2680   52.5010 C   0  0  0  0  0  0  0  0  0  0  0  0
   58.1560   33.2190   52.2560 C   0  0  0  0  0  0  0  0  0  0  0  0
   59.0060   33.0770   51.1560 C   0  0  0  0  0  0  0  0  0  0  0  0
   58.8720   31.9770   50.2930 C   0  0  0  0  0  0  0  0  0  0  0  0
   59.8050   31.8160   49.1190 C   0  0  0  0  0  0  0  0  0  0  0  0
   59.0420   31.5390   47.8460 C   0  0  0  0  0  0  0  0  0  0  0  0
   58.5680   30.2810   47.6530 N   0  0  0  0  0  0  0  0  0  0  0  0
   57.8880   29.9390   46.5610 N   0  0  0  0  0  0  0  0  0  0  0  0
   57.6260   30.8340   45.5790 C   0  0  0  0  0  0  0  0  0  0  0  0
   56.9850   30.4600   44.5600 O   0  0  0  0  0  0  0  0  0  0  0  0
   58.0700   32.1590   45.7050 C   0  0  0  0  0  0  0  0  0  0  0  0
   58.8300   32.5180   46.8460 C   0  0  0  0  0  0  0  0  0  0  0  0
   59.3040   33.9470   47.0440 C   0  0  0  0  0  0  0  0  0  0  0  0
   59.3040   34.7710   45.7540 C   0  0  0  0  0  0  0  0  0  0  0  0
   57.9810   34.5970   45.0150 C   0  0  0  0  0  0  0  0  0  0  0  0
   57.8130   33.1410   44.5800 C   0  0  0  0  0  0  0  0  0  0  0  0
   57.8810   31.0150   50.5560 C   0  0  0  0  0  0  0  0  0  0  0  0
   49.9970   32.3420   49.6670 H   0  0  0  0  0  0  0  0  0  0  0  0
   51.8804   30.3936   52.3092 H   0  0  0  0  0  0  0  0  0  0  0  0
   54.0415   31.5509   50.5617 H   0  0  0  0  0  0  0  0  0  0  0  0
   56.5000   32.3807   53.3723 H   0  0  0  0  0  0  0  0  0  0  0  0
   58.2696   34.0808   52.9301 H   0  0  0  0  0  0  0  0  0  0  0  0
   59.7841   33.8307   50.9650 H   0  0  0  0  0  0  0  0  0  0  0  0
   60.3867   32.7412   48.9940 H   0  0  0  0  0  0  0  0  0  0  0  0
   60.4696   30.9624   49.3182 H   0  0  0  0  0  0  0  0  0  0  0  0
   58.6398   34.4372   47.7710 H   0  0  0  0  0  0  0  0  0  0  0  0
   60.3442   33.8982   47.3985 H   0  0  0  0  0  0  0  0  0  0  0  0
   59.4442   35.8335   46.0020 H   0  0  0  0  0  0  0  0  0  0  0  0
   60.1235   34.4238   45.1075 H   0  0  0  0  0  0  0  0  0  0  0  0
   57.1518   34.8760   45.6818 H   0  0  0  0  0  0  0  0  0  0  0  0
   57.9770   35.2428   44.1245 H   0  0  0  0  0  0  0  0  0  0  0  0
   56.7842   32.9989   44.2175 H   0  0  0  0  0  0  0  0  0  0  0  0
   58.5542   32.9431   43.7917 H   0  0  0  0  0  0  0  0  0  0  0  0
   57.7909   30.1322   49.9059 H   0  0  0  0  0  0  0  0  0  0  0  0
  1  2  1  0
  2  3  2  0
  2  4  1  0
  4  5  2  3
  5  6  1  0
  6  7  2  0
  6  8  1  0
  8  9  1  0
  9 10  2  0
 10 11  1  0
 11 12  2  0
 12 13  1  0
 13 14  1  0
 14 15  1  0
 15 16  2  0
 16 17  1  0
 17 18  1  0
 18 19  2  0
 18 20  1  0
 20 21  2  0
 21 22  1  0
 22 23  1  0
 23 24  1  0
 24 25  1  0
 13 26  2  0
 26  9  1  0
 21 15  1  0
 25 20  1  0
  1 27  1  0
  4 28  1  0
  5 29  1  0
 10 30  1  0
 11 31  1  0
 12 32  1  0
 14 33  1  0
 14 34  1  0
 22 35  1  0
 22 36  1  0
 23 37  1  0
 23 38  1  0
 24 39  1  0
 24 40  1  0
 25 41  1  0
 25 42  1  0
 26 43  1  0
M  CHG  3   1  -1   8  -1  17  -1
M  END
>  <UniqueID>  (76) 
74

>  <SMILES>  (76) 
[NH-]C(=O)C=CC(=O)[N-]c1cccc(Cc2n[n-]c(=O)c3c2CCCC3)c1

>  <Energy>  (76) 
55.010429898549944

>  <Genealogy>  (76) 
[NH-]C(=O)C=CC(=O)[N-]c1cccc(Cc2n[n-]c(=O)c3c2CCCC3)c1 (protonated)
[NH-]C(=O)C=CC(=O)[N-]c1cccc(Cc2n[n-]c(=O)c3c2CCCC3)c1 (3D coordinates assigned)
[NH-]C(=O)C=CC(=O)[N-]c1cccc(Cc2n[n-]c(=O)c3c2CCCC3)c1 (nonaromatic ring conformer: 55.010429898549944 kcal/mol)

>  <smiles>  (76) 
NC(=O)C=CC(=O)Nc1cccc(Cc2n[nH]c(=O)c3c2CCCC3)c1

>  <score_type>  (76) 
oracle

>  <origin>  (76) 
adg

>  <m_score__min__energy>  (76) 
-15.210000000000001

>  <m_primary>  (76) 
energy

$$$$
76:0
     RDKit          3D

 47 49  0  0  0  0  0  0  0  0999 V2000
   64.6298   34.0540   48.2236 H   0  0  0  0  0  0  0  0  0  0  0  0
   63.5920   33.6950   48.1590 C   0  0  0  0  0  0  0  0  0  0  0  0
   62.6230   34.1980   49.0330 C   0  0  0  0  0  0  0  0  0  0  0  0
   62.9008   34.9455   49.7907 H   0  0  0  0  0  0  0  0  0  0  0  0
   61.3010   33.7510   48.9440 C   0  0  0  0  0  0  0  0  0  0  0  0
   60.5405   34.1496   49.6316 H   0  0  0  0  0  0  0  0  0  0  0  0
   60.9400   32.7940   47.9790 C   0  0  0  0  0  0  0  0  0  0  0  0
   59.5220   32.2910   47.9040 C   0  0  0  0  0  0  0  0  0  0  0  0
   59.3271   31.6313   48.7623 H   0  0  0  0  0  0  0  0  0  0  0  0
   59.3921   31.7395   46.9611 H   0  0  0  0  0  0  0  0  0  0  0  0
   58.5300   33.4590   47.9320 C   0  0  0  0  0  0  0  0  0  0  0  0
   58.5834   33.9558   48.9119 H   0  0  0  0  0  0  0  0  0  0  0  0
   57.5161   33.0688   47.7594 H   0  0  0  0  0  0  0  0  0  0  0  0
   58.8480   34.4240   46.8870 N   0  0  0  0  0  0  0  0  0  0  0  0
   58.3550   34.3340   45.5450 C   0  0  0  0  0  0  0  0  0  0  0  0
   57.1420   34.5690   45.2920 O   0  0  0  0  0  0  0  0  0  0  0  0
   59.3060   34.0120   44.4320 C   0  0  0  0  0  0  0  0  0  0  0  0
   60.2275   33.5895   44.8590 H   0  0  0  0  0  0  0  0  0  0  0  0
   59.5220   34.9391   43.8807 H   0  0  0  0  0  0  0  0  0  0  0  0
   58.7400   33.0690   43.5230 O   0  0  0  0  0  0  0  0  0  0  0  0
   57.9770   31.9480   43.8880 C   0  0  0  0  0  0  0  0  0  0  0  0
   58.1580   31.4150   45.1690 C   0  0  0  0  0  0  0  0  0  0  0  0
   58.8874   31.8742   45.8524 H   0  0  0  0  0  0  0  0  0  0  0  0
   57.4200   30.3040   45.5880 C   0  0  0  0  0  0  0  0  0  0  0  0
   57.5855   29.8861   46.5920 H   0  0  0  0  0  0  0  0  0  0  0  0
   56.4720   29.7190   44.7400 C   0  0  0  0  0  0  0  0  0  0  0  0
   55.7610   28.5560   45.2010 N   0  0  0  0  0  0  0  0  0  0  0  0
   56.2720   27.4350   45.6200 C   0  0  0  0  0  0  0  0  0  0  0  0
   57.6230   27.3280   45.7310 N   0  0  0  0  0  0  0  0  0  0  0  0
   58.2070   26.1870   46.1880 C   0  0  0  0  0  0  0  0  0  0  0  0
   59.6980   26.1070   46.3030 C   0  0  0  0  0  0  0  0  0  0  0  0
   59.9835   26.0917   47.3652 H   0  0  0  0  0  0  0  0  0  0  0  0
   60.0547   25.1884   45.8141 H   0  0  0  0  0  0  0  0  0  0  0  0
   60.1509   26.9821   45.8141 H   0  0  0  0  0  0  0  0  0  0  0  0
   57.4080   25.1040   46.5700 C   0  0  0  0  0  0  0  0  0  0  0  0
   57.8603   24.1738   46.9443 H   0  0  0  0  0  0  0  0  0  0  0  0
   56.0220   25.2340   46.4640 C   0  0  0  0  0  0  0  0  0  0  0  0
   55.2690   24.2820   46.8030 O   0  0  0  0  0  0  0  0  0  0  0  0
   55.4820   26.3900   45.9950 N   0  0  0  0  0  0  0  0  0  0  0  0
   56.3100   30.2300   43.4380 C   0  0  0  0  0  0  0  0  0  0  0  0
   55.6001   29.7520   42.7470 H   0  0  0  0  0  0  0  0  0  0  0  0
   57.0470   31.3420   43.0190 C   0  0  0  0  0  0  0  0  0  0  0  0
   56.9004   31.7459   42.0064 H   0  0  0  0  0  0  0  0  0  0  0  0
   61.9240   32.2780   47.1210 C   0  0  0  0  0  0  0  0  0  0  0  0
   61.6569   31.5097   46.3805 H   0  0  0  0  0  0  0  0  0  0  0  0
   63.2430   32.7370   47.2040 C   0  0  0  0  0  0  0  0  0  0  0  0
   64.0061   32.3431   46.5166 H   0  0  0  0  0  0  0  0  0  0  0  0
  1  2  1  0
  2  3  2  0
  3  4  1  0
  3  5  1  0
  5  6  1  0
  5  7  2  0
  7  8  1  0
  8  9  1  0
  8 10  1  0
  8 11  1  0
 11 12  1  0
 11 13  1  0
 11 14  1  0
 14 15  1  0
 15 16  2  0
 15 17  1  0
 17 18  1  0
 17 19  1  0
 17 20  1  0
 20 21  1  0
 21 22  2  0
 22 23  1  0
 22 24  1  0
 24 25  1  0
 24 26  2  0
 26 27  1  0
 27 28  2  0
 28 29  1  0
 29 30  1  0
 30 31  1  0
 31 32  1  0
 31 33  1  0
 31 34  1  0
 30 35  2  0
 35 36  1  0
 35 37  1  0
 37 38  2  0
 37 39  1  0
 26 40  1  0
 40 41  1  0
 40 42  2  0
 42 43  1  0
  7 44  1  0
 44 45  1  0
 44 46  2  0
 46 47  1  0
 46  2  1  0
 42 21  1  0
 39 28  1  0
M  CHG  3  14  -1  29  -1  39  -1
M  END
>  <UniqueID>  (77) 
75

>  <SMILES>  (77) 
Cc1cc(=O)[n-]/c(=N\c2ccc(OCC(=O)[N-]CCc3ccccc3)cc2)[n-]1

>  <Energy>  (77) 
50.682681917893746

>  <Genealogy>  (77) 
Cc1cc(=O)[n-]c(=Nc2ccc(OCC(=O)[N-]CCc3ccccc3)cc2)[n-]1 (protonated)
Cc1cc(=O)[n-]/c(=N\c2ccc(OCC(=O)[N-]CCc3ccccc3)cc2)[n-]1 (cis-trans isomerization)
Cc1cc(=O)[n-]/c(=N\c2ccc(OCC(=O)[N-]CCc3ccccc3)cc2)[n-]1 (3D coordinates assigned)
Cc1cc(=O)[n-]/c(=N\c2ccc(OCC(=O)[N-]CCc3ccccc3)cc2)[n-]1 (optimized conformer: 50.682681917893746 kcal/mol)

>  <smiles>  (77) 
Cc1cc(=O)[nH]c(=Nc2ccc(OCC(=O)NCCc3ccccc3)cc2)[nH]1

>  <score_type>  (77) 
oracle

>  <origin>  (77) 
adg

>  <m_score__min__energy>  (77) 
-12.73

>  <m_primary>  (77) 
energy

$$$$
77:0
     RDKit          3D

 43 45  0  0  0  0  0  0  0  0999 V2000
   58.8650   32.7470   48.7090 C   0  0  0  0  0  0  0  0  0  0  0  0
   59.2510   33.6110   47.5510 C   0  0  0  0  0  0  0  0  0  0  0  0
   59.0520   34.9460   47.5380 N   0  0  0  0  0  0  0  0  0  0  0  0
   59.4660   35.3320   46.3140 C   0  0  0  0  0  0  0  0  0  0  0  0
   59.8950   34.2330   45.6030 C   0  0  0  0  0  0  0  0  0  0  0  0
   59.7610   33.1500   46.3860 N   0  0  0  0  0  0  0  0  0  0  0  0
   60.0280   31.7640   45.9990 C   0  0  0  0  0  0  0  0  0  0  0  0
   58.7370   31.0470   45.7100 C   0  0  0  0  0  0  0  0  0  0  0  0
   57.7530   31.6400   44.9050 C   0  0  0  0  0  0  0  0  0  0  0  0
   56.5780   30.9460   44.6050 C   0  0  0  0  0  0  0  0  0  0  0  0
   56.3730   29.6560   45.1020 C   0  0  0  0  0  0  0  0  0  0  0  0
   55.2070   28.9760   44.7660 O   0  0  0  0  0  0  0  0  0  0  0  0
   57.3430   29.0560   45.9290 C   0  0  0  0  0  0  0  0  0  0  0  0
   57.1800   27.6430   46.4250 C   0  0  0  0  0  0  0  0  0  0  0  0
   57.2040   26.7200   45.2850 N   0  0  0  0  0  0  0  0  0  0  0  0
   57.1850   25.3150   45.7200 C   0  0  0  0  0  0  0  0  0  0  0  0
   56.5620   24.4030   44.6560 C   0  0  0  0  0  0  0  0  0  0  0  0
   55.1700   24.0780   44.9830 N   0  0  0  0  0  0  0  0  0  0  0  0
   54.2140   24.9090   45.4290 C   0  0  0  0  0  0  0  0  0  0  0  0
   54.3960   26.2630   45.6800 O   0  0  0  0  0  0  0  0  0  0  0  0
   53.0430   24.2080   45.5960 C   0  0  0  0  0  0  0  0  0  0  0  0
   53.2510   22.9170   45.2600 N   0  0  0  0  0  0  0  0  0  0  0  0
   54.5510   22.8830   44.8940 C   0  0  0  0  0  0  0  0  0  0  0  0
   55.1250   21.8270   44.5160 O   0  0  0  0  0  0  0  0  0  0  0  0
   58.5250   29.7570   46.2190 C   0  0  0  0  0  0  0  0  0  0  0  0
   59.0979   33.2684   49.6492 H   0  0  0  0  0  0  0  0  0  0  0  0
   57.7865   32.5349   48.6648 H   0  0  0  0  0  0  0  0  0  0  0  0
   59.4266   31.8022   48.6648 H   0  0  0  0  0  0  0  0  0  0  0  0
   59.4618   36.3666   45.9404 H   0  0  0  0  0  0  0  0  0  0  0  0
   60.2804   34.2410   44.5728 H   0  0  0  0  0  0  0  0  0  0  0  0
   60.6590   31.7535   45.0980 H   0  0  0  0  0  0  0  0  0  0  0  0
   60.5446   31.2539   46.8254 H   0  0  0  0  0  0  0  0  0  0  0  0
   57.9069   32.6545   44.5087 H   0  0  0  0  0  0  0  0  0  0  0  0
   55.8101   31.4176   43.9742 H   0  0  0  0  0  0  0  0  0  0  0  0
   58.0030   27.3983   47.1126 H   0  0  0  0  0  0  0  0  0  0  0  0
   56.2204   27.5480   46.9542 H   0  0  0  0  0  0  0  0  0  0  0  0
   56.3330   26.8850   44.7260 H   0  0  0  0  0  0  0  0  0  0  0  0
   58.2172   24.9866   45.9116 H   0  0  0  0  0  0  0  0  0  0  0  0
   56.5749   25.2456   46.6327 H   0  0  0  0  0  0  0  0  0  0  0  0
   56.5915   24.9152   43.6830 H   0  0  0  0  0  0  0  0  0  0  0  0
   57.1383   23.4667   44.6200 H   0  0  0  0  0  0  0  0  0  0  0  0
   52.0901   24.6309   45.9469 H   0  0  0  0  0  0  0  0  0  0  0  0
   59.2932   29.2893   46.8524 H   0  0  0  0  0  0  0  0  0  0  0  0
  1  2  1  0
  2  3  2  0
  3  4  1  0
  4  5  2  0
  5  6  1  0
  6  7  1  0
  7  8  1  0
  8  9  2  0
  9 10  1  0
 10 11  2  0
 11 12  1  0
 11 13  1  0
 13 14  1  0
 14 15  1  0
 15 16  1  0
 16 17  1  0
 17 18  1  0
 18 19  1  0
 19 20  1  0
 19 21  2  0
 21 22  1  0
 22 23  1  0
 23 24  2  0
 13 25  2  0
  6  2  1  0
 25  8  1  0
 23 18  1  0
  1 26  1  0
  1 27  1  0
  1 28  1  0
  4 29  1  0
  5 30  1  0
  7 31  1  0
  7 32  1  0
  9 33  1  0
 10 34  1  0
 14 35  1  0
 14 36  1  0
 15 37  1  0
 16 38  1  0
 16 39  1  0
 17 40  1  0
 17 41  1  0
 21 42  1  0
 25 43  1  0
M  CHG  3  12  -1  20  -1  22  -1
M  END
>  <UniqueID>  (78) 
76

>  <SMILES>  (78) 
Cc1nccn1Cc1ccc([O-])c(CNCCn2c([O-])c[n-]c2=O)c1

>  <Energy>  (78) 
98.60613709388704

>  <Genealogy>  (78) 
Cc1nccn1Cc1ccc([O-])c(CNCCn2c([O-])c[n-]c2=O)c1 (protonated)
Cc1nccn1Cc1ccc([O-])c(CNCCn2c([O-])c[n-]c2=O)c1 (3D coordinates assigned)
Cc1nccn1Cc1ccc([O-])c(CNCCn2c([O-])c[n-]c2=O)c1 (optimized conformer: 98.60613709388704 kcal/mol)

>  <smiles>  (78) 
Cc1nccn1Cc1ccc(O)c(CNCCn2c(O)c[nH]c2=O)c1

>  <score_type>  (78) 
oracle

>  <origin>  (78) 
adg

>  <m_score__min__energy>  (78) 
-15.380000000000001

>  <m_primary>  (78) 
energy

$$$$
78:0
     RDKit          3D

 59 63  0  0  0  0  0  0  0  0999 V2000
   58.1790   32.6470   48.4930 C   0  0  0  0  0  0  0  0  0  0  0  0
   58.6270   31.8090   47.4350 O   0  0  0  0  0  0  0  0  0  0  0  0
   58.4060   32.0580   46.0730 C   0  0  0  0  0  0  0  0  0  0  0  0
   58.7460   33.2940   45.4790 C   0  0  0  0  0  0  0  0  0  0  0  0
   58.4540   33.5340   44.1380 C   0  0  0  0  0  0  0  0  0  0  0  0
   57.8090   32.5580   43.3770 C   0  0  0  0  0  0  0  0  0  0  0  0
   57.4790   31.3280   43.9480 C   0  0  0  0  0  0  0  0  0  0  0  0
   57.8060   31.0570   45.2790 C   0  0  0  0  0  0  0  0  0  0  0  0
   57.4670   29.7730   45.8190 N   0  0  0  0  0  0  0  0  0  0  0  0
   56.7090   28.7710   45.1280 C   0  0  0  0  0  0  0  0  0  0  0  0
   55.4910   28.9630   44.8590 O   0  0  0  0  0  0  0  0  0  0  0  0
   57.3540   27.4660   44.7780 C   0  0  0  0  0  0  0  0  0  0  0  0
   57.0660   26.4360   45.8360 C   0  0  0  0  0  0  0  0  0  0  0  0
   55.8220   25.9600   46.1970 C   0  0  0  0  0  0  0  0  0  0  0  0
   54.6130   26.3390   45.6330 O   0  0  0  0  0  0  0  0  0  0  0  0
   55.9280   25.0570   47.1920 N   0  0  0  0  0  0  0  0  0  0  0  0
   57.2580   25.0140   47.4210 C   0  0  0  0  0  0  0  0  0  0  0  0
   57.7730   24.2630   48.2940 O   0  0  0  0  0  0  0  0  0  0  0  0
   57.9810   25.8420   46.6310 N   0  0  0  0  0  0  0  0  0  0  0  0
   59.4420   25.9820   46.5980 C   0  0  0  0  0  0  0  0  0  0  0  0
   59.8900   27.0450   47.5670 C   0  0  0  0  0  0  0  0  0  0  0  0
   59.8610   28.3970   47.1920 C   0  0  0  0  0  0  0  0  0  0  0  0
   60.2310   29.3890   48.1010 C   0  0  0  0  0  0  0  0  0  0  0  0
   60.6300   29.0430   49.4040 C   0  0  0  0  0  0  0  0  0  0  0  0
   60.9880   30.0410   50.3670 N   0  0  0  0  0  0  0  0  0  0  0  0
   62.1020   30.9370   50.2640 C   0  0  0  0  0  0  0  0  0  0  0  0
   63.0760   30.7890   51.0480 O   0  0  0  0  0  0  0  0  0  0  0  0
   62.1310   32.0410   49.2790 C   0  0  0  0  0  0  0  0  0  0  0  0
   62.9080   31.8670   48.1210 C   0  0  0  0  0  0  0  0  0  0  0  0
   62.8850   32.8160   47.0980 C   0  0  0  0  0  0  0  0  0  0  0  0
   62.0900   33.9550   47.2230 C   0  0  0  0  0  0  0  0  0  0  0  0
   61.3440   34.1650   48.3810 C   0  0  0  0  0  0  0  0  0  0  0  0
   61.3610   33.2310   49.4350 C   0  0  0  0  0  0  0  0  0  0  0  0
   60.6290   33.5580   50.6840 C   0  0  0  0  0  0  0  0  0  0  0  0
   61.1470   33.4820   51.9250 N   0  0  0  0  0  0  0  0  0  0  0  0
   60.1830   33.9130   52.7230 N   0  0  0  0  0  0  0  0  0  0  0  0
   59.1230   34.2500   52.0040 N   0  0  0  0  0  0  0  0  0  0  0  0
   59.3700   34.0430   50.7220 N   0  0  0  0  0  0  0  0  0  0  0  0
   60.7040   27.6920   49.7650 C   0  0  0  0  0  0  0  0  0  0  0  0
   60.3280   26.6970   48.8570 C   0  0  0  0  0  0  0  0  0  0  0  0
   58.4273   32.1826   49.4588 H   0  0  0  0  0  0  0  0  0  0  0  0
   58.6737   33.6267   48.4193 H   0  0  0  0  0  0  0  0  0  0  0  0
   57.0895   32.7799   48.4193 H   0  0  0  0  0  0  0  0  0  0  0  0
   59.2437   34.0707   46.0782 H   0  0  0  0  0  0  0  0  0  0  0  0
   58.7322   34.4939   43.6785 H   0  0  0  0  0  0  0  0  0  0  0  0
   57.5601   32.7587   42.3245 H   0  0  0  0  0  0  0  0  0  0  0  0
   56.9586   30.5678   43.3469 H   0  0  0  0  0  0  0  0  0  0  0  0
   56.9594   27.1143   43.8133 H   0  0  0  0  0  0  0  0  0  0  0  0
   58.4421   27.6133   44.7114 H   0  0  0  0  0  0  0  0  0  0  0  0
   59.9043   25.0226   46.8733 H   0  0  0  0  0  0  0  0  0  0  0  0
   59.7497   26.2724   45.5826 H   0  0  0  0  0  0  0  0  0  0  0  0
   59.5449   28.6763   46.1761 H   0  0  0  0  0  0  0  0  0  0  0  0
   60.2104   30.4459   47.7969 H   0  0  0  0  0  0  0  0  0  0  0  0
   63.5411   30.9732   48.0198 H   0  0  0  0  0  0  0  0  0  0  0  0
   63.4933   32.6658   46.1939 H   0  0  0  0  0  0  0  0  0  0  0  0
   62.0518   34.6896   46.4052 H   0  0  0  0  0  0  0  0  0  0  0  0
   60.7322   35.0745   48.4734 H   0  0  0  0  0  0  0  0  0  0  0  0
   61.0596   27.4120   50.7676 H   0  0  0  0  0  0  0  0  0  0  0  0
   60.3751   25.6386   49.1530 H   0  0  0  0  0  0  0  0  0  0  0  0
  1  2  1  0
  2  3  1  0
  3  4  2  0
  4  5  1  0
  5  6  2  0
  6  7  1  0
  7  8  2  0
  8  9  1  0
  9 10  1  0
 10 11  2  0
 10 12  1  0
 12 13  1  0
 13 14  2  0
 14 15  1  0
 14 16  1  0
 16 17  1  0
 17 18  2  0
 17 19  1  0
 19 20  1  0
 20 21  1  0
 21 22  2  0
 22 23  1  0
 23 24  2  0
 24 25  1  0
 25 26  1  0
 26 27  2  0
 26 28  1  0
 28 29  2  0
 29 30  1  0
 30 31  2  0
 31 32  1  0
 32 33  2  0
 33 34  1  0
 34 35  1  0
 35 36  2  0
 36 37  1  0
 37 38  1  0
 24 39  1  0
 39 40  2  0
  8  3  1  0
 19 13  1  0
 40 21  1  0
 33 28  1  0
 38 34  2  0
  1 41  1  0
  1 42  1  0
  1 43  1  0
  4 44  1  0
  5 45  1  0
  6 46  1  0
  7 47  1  0
 12 48  1  0
 12 49  1  0
 20 50  1  0
 20 51  1  0
 22 52  1  0
 23 53  1  0
 29 54  1  0
 30 55  1  0
 31 56  1  0
 32 57  1  0
 39 58  1  0
 40 59  1  0
M  CHG  5   9  -1  15  -1  16  -1  25  -1  37  -1
M  END
>  <UniqueID>  (79) 
77

>  <SMILES>  (79) 
COc1ccccc1[N-]C(=O)Cc1c([O-])[n-]c(=O)n1Cc1ccc([N-]C(=O)c2ccccc2-c2nn[n-]n2)cc1

>  <Energy>  (79) 
147.59419990681133

>  <Genealogy>  (79) 
COc1ccccc1[N-]C(=O)Cc1c([O-])[n-]c(=O)n1Cc1ccc([N-]C(=O)c2ccccc2-c2nn[n-]n2)cc1 (protonated)
COc1ccccc1[N-]C(=O)Cc1c([O-])[n-]c(=O)n1Cc1ccc([N-]C(=O)c2ccccc2-c2nn[n-]n2)cc1 (3D coordinates assigned)
COc1ccccc1[N-]C(=O)Cc1c([O-])[n-]c(=O)n1Cc1ccc([N-]C(=O)c2ccccc2-c2nn[n-]n2)cc1 (optimized conformer: 147.59419990681133 kcal/mol)

>  <smiles>  (79) 
COc1ccccc1NC(=O)Cc1c(O)[nH]c(=O)n1Cc1ccc(NC(=O)c2ccccc2-c2nn[nH]n2)cc1

>  <score_type>  (79) 
oracle

>  <origin>  (79) 
adg

>  <m_score__min__energy>  (79) 
-18.940000000000001

>  <m_primary>  (79) 
energy

$$$$
79:0
     RDKit          3D

 47 50  0  0  0  0  0  0  0  0999 V2000
   59.9270   34.5550   48.7770 O   0  0  0  0  0  0  0  0  0  0  0  0
   60.8610   33.9680   49.3840 C   0  0  0  0  0  0  0  0  0  0  0  0
   62.2430   34.5450   49.3210 C   0  0  0  0  0  0  0  0  0  0  0  0
   63.2050   33.8390   50.2440 C   0  0  0  0  0  0  0  0  0  0  0  0
   63.9030   34.5990   51.2010 C   0  0  0  0  0  0  0  0  0  0  0  0
   64.8460   34.0010   52.0370 C   0  0  0  0  0  0  0  0  0  0  0  0
   65.1090   32.6380   51.9290 C   0  0  0  0  0  0  0  0  0  0  0  0
   64.4240   31.8660   50.9890 C   0  0  0  0  0  0  0  0  0  0  0  0
   63.4660   32.4470   50.1350 C   0  0  0  0  0  0  0  0  0  0  0  0
   62.6920   31.5450   49.1860 C   0  0  2  0  0  0  0  0  0  0  0  0
   62.9050   31.9350   47.7420 C   0  0  0  0  0  0  0  0  0  0  0  0
   62.4120   31.2220   46.8290 O   0  0  0  0  0  0  0  0  0  0  0  0
   63.6240   33.0720   47.3940 O   0  0  0  0  0  0  0  0  0  0  0  0
   61.2120   31.4220   49.6430 C   0  0  2  0  0  0  0  0  0  0  0  0
   60.3720   30.6920   48.6080 C   0  0  0  0  0  0  0  0  0  0  0  0
   60.5040   29.2990   48.4760 C   0  0  0  0  0  0  0  0  0  0  0  0
   59.7680   28.6010   47.5160 C   0  0  0  0  0  0  0  0  0  0  0  0
   58.8780   29.2800   46.6680 C   0  0  0  0  0  0  0  0  0  0  0  0
   58.0900   28.5490   45.6450 C   0  0  0  0  0  0  0  0  0  0  0  0
   58.4490   28.5960   44.4390 O   0  0  0  0  0  0  0  0  0  0  0  0
   56.9530   27.7460   45.9910 N   0  0  0  0  0  0  0  0  0  0  0  0
   56.8950   26.3110   45.9880 C   0  0  0  0  0  0  0  0  0  0  0  0
   58.0960   25.5930   45.9130 C   0  0  0  0  0  0  0  0  0  0  0  0
   58.0850   24.1960   45.9120 C   0  0  0  0  0  0  0  0  0  0  0  0
   56.8740   23.5050   45.9710 C   0  0  0  0  0  0  0  0  0  0  0  0
   55.6680   24.2110   46.0140 C   0  0  0  0  0  0  0  0  0  0  0  0
   55.6710   25.6110   46.0090 C   0  0  0  0  0  0  0  0  0  0  0  0
   54.4560   26.2870   45.9940 O   0  0  0  0  0  0  0  0  0  0  0  0
   58.7640   30.6750   46.7790 C   0  0  0  0  0  0  0  0  0  0  0  0
   59.5000   31.3740   47.7390 C   0  0  0  0  0  0  0  0  0  0  0  0
   60.5960   32.7020   49.9950 N   0  0  0  0  0  0  0  0  0  0  0  0
   62.6152   34.4580   48.2895 H   0  0  0  0  0  0  0  0  0  0  0  0
   62.1821   35.5957   49.6409 H   0  0  0  0  0  0  0  0  0  0  0  0
   63.7026   35.6769   51.2908 H   0  0  0  0  0  0  0  0  0  0  0  0
   65.3823   34.6068   52.7822 H   0  0  0  0  0  0  0  0  0  0  0  0
   65.8572   32.1691   52.5850 H   0  0  0  0  0  0  0  0  0  0  0  0
   64.6352   30.7891   50.9141 H   0  0  0  0  0  0  0  0  0  0  0  0
   63.0930   30.5219   49.2360 H   0  0  0  0  0  0  0  0  0  0  0  0
   61.2386   30.8263   50.5673 H   0  0  0  0  0  0  0  0  0  0  0  0
   61.1942   28.7528   49.1357 H   0  0  0  0  0  0  0  0  0  0  0  0
   59.8863   27.5113   47.4234 H   0  0  0  0  0  0  0  0  0  0  0  0
   59.0529   26.1324   45.8546 H   0  0  0  0  0  0  0  0  0  0  0  0
   59.0327   23.6396   45.8646 H   0  0  0  0  0  0  0  0  0  0  0  0
   56.8683   22.4051   45.9837 H   0  0  0  0  0  0  0  0  0  0  0  0
   54.7139   23.6648   46.0519 H   0  0  0  0  0  0  0  0  0  0  0  0
   58.0893   31.2223   46.1043 H   0  0  0  0  0  0  0  0  0  0  0  0
   59.3971   32.4664   47.8163 H   0  0  0  0  0  0  0  0  0  0  0  0
  1  2  2  0
  2  3  1  0
  3  4  1  0
  4  5  2  0
  5  6  1  0
  6  7  2  0
  7  8  1  0
  8  9  2  0
  9 10  1  0
 10 11  1  0
 11 12  2  0
 11 13  1  0
 10 14  1  0
 14 15  1  0
 15 16  2  0
 16 17  1  0
 17 18  2  0
 18 19  1  0
 19 20  2  0
 19 21  1  0
 21 22  1  0
 22 23  2  0
 23 24  1  0
 24 25  2  0
 25 26  1  0
 26 27  2  0
 27 28  1  0
 18 29  1  0
 29 30  2  0
 14 31  1  0
 31  2  1  0
  9  4  1  0
 30 15  1  0
 27 22  1  0
  3 32  1  0
  3 33  1  0
  5 34  1  0
  6 35  1  0
  7 36  1  0
  8 37  1  0
 10 38  1  6
 14 39  1  1
 16 40  1  0
 17 41  1  0
 23 42  1  0
 24 43  1  0
 25 44  1  0
 26 45  1  0
 29 46  1  0
 30 47  1  0
M  CHG  4  13  -1  21  -1  28  -1  31  -1
M  END
>  <UniqueID>  (80) 
78

>  <SMILES>  (80) 
O=C1Cc2ccccc2[C@H](C(=O)[O-])[C@H](c2ccc(C(=O)[N-]c3ccccc3[O-])cc2)[N-]1

>  <Energy>  (80) 
73.00155057144254

>  <Genealogy>  (80) 
O=C1Cc2ccccc2C(C(=O)[O-])C(c2ccc(C(=O)[N-]c3ccccc3[O-])cc2)[N-]1 (protonated)
O=C1Cc2ccccc2[C@H](C(=O)[O-])[C@H](c2ccc(C(=O)[N-]c3ccccc3[O-])cc2)[N-]1 (chirality)
O=C1Cc2ccccc2[C@H](C(=O)[O-])[C@H](c2ccc(C(=O)[N-]c3ccccc3[O-])cc2)[N-]1 (3D coordinates assigned)
O=C1Cc2ccccc2[C@H](C(=O)[O-])[C@H](c2ccc(C(=O)[N-]c3ccccc3[O-])cc2)[N-]1 (nonaromatic ring conformer: 73.00155057144254 kcal/mol)

>  <smiles>  (80) 
O=C1Cc2ccccc2C(C(=O)O)C(c2ccc(C(=O)Nc3ccccc3O)cc2)N1

>  <score_type>  (80) 
oracle

>  <origin>  (80) 
adg

>  <m_score__min__energy>  (80) 
-12.92

>  <m_primary>  (80) 
energy

$$$$
80:0
     RDKit          3D

 61 63  0  0  0  0  0  0  0  0999 V2000
   62.9870   33.9010   46.4280 C   0  0  0  0  0  0  0  0  0  0  0  0
   63.7290   32.9800   47.3910 C   0  0  0  0  0  0  0  0  0  0  0  0
   62.7840   31.9840   48.0920 C   0  0  0  0  0  0  0  0  0  0  0  0
   61.3340   32.0630   47.5930 C   0  0  0  0  0  0  0  0  0  0  0  0
   60.3760   31.6210   48.6450 N   0  0  0  0  0  0  0  0  0  0  0  0
   60.2060   30.1450   48.6330 C   0  0  0  0  0  0  0  0  0  0  0  0
   58.8750   29.7170   47.9940 C   0  0  0  0  0  0  0  0  0  0  0  0
   59.0840   28.7490   46.8260 C   0  0  0  0  0  0  0  0  0  0  0  0
   57.8810   27.9500   46.6110 N   0  0  0  0  0  0  0  0  0  0  0  0
   57.8220   26.5470   46.9160 C   0  0  0  0  0  0  0  0  0  0  0  0
   58.8060   25.9820   47.4670 O   0  0  0  0  0  0  0  0  0  0  0  0
   56.6050   25.7570   46.6060 C   0  0  0  0  0  0  0  0  0  0  0  0
   55.4940   26.3580   45.9810 C   0  0  0  0  0  0  0  0  0  0  0  0
   55.5200   27.6980   45.6110 O   0  0  0  0  0  0  0  0  0  0  0  0
   54.3860   25.6240   45.7010 N   0  0  0  0  0  0  0  0  0  0  0  0
   54.3020   24.3030   46.0060 C   0  0  0  0  0  0  0  0  0  0  0  0
   55.3780   23.6480   46.6170 C   0  0  0  0  0  0  0  0  0  0  0  0
   56.5450   24.3780   46.9060 C   0  0  0  0  0  0  0  0  0  0  0  0
   57.5300   23.8010   47.4440 O   0  0  0  0  0  0  0  0  0  0  0  0
   55.2630   22.1620   46.8620 C   0  0  0  0  0  0  0  0  0  0  0  0
   53.8670   21.7650   47.3890 C   0  0  0  0  0  0  0  0  0  0  0  0
   52.6890   22.6160   46.8450 C   0  0  0  0  0  0  0  0  0  0  0  0
   53.0690   23.5220   45.6660 C   0  0  0  0  0  0  0  0  0  0  0  0
   59.0670   32.2950   48.4620 C   0  0  0  0  0  0  0  0  0  0  0  0
   59.0810   33.2400   47.2840 C   0  0  0  0  0  0  0  0  0  0  0  0
   58.5820   32.8270   46.0380 C   0  0  0  0  0  0  0  0  0  0  0  0
   58.6070   33.6970   44.9440 C   0  0  0  0  0  0  0  0  0  0  0  0
   59.1250   34.9870   45.0870 C   0  0  0  0  0  0  0  0  0  0  0  0
   59.6110   35.4110   46.3260 C   0  0  0  0  0  0  0  0  0  0  0  0
   59.5870   34.5440   47.4220 C   0  0  0  0  0  0  0  0  0  0  0  0
   62.3978   34.6323   47.0007 H   0  0  0  0  0  0  0  0  0  0  0  0
   63.7134   34.4309   45.7944 H   0  0  0  0  0  0  0  0  0  0  0  0
   62.3146   33.3040   45.7944 H   0  0  0  0  0  0  0  0  0  0  0  0
   64.4850   32.4137   46.8273 H   0  0  0  0  0  0  0  0  0  0  0  0
   64.1930   33.6070   48.1666 H   0  0  0  0  0  0  0  0  0  0  0  0
   63.1584   30.9649   47.9151 H   0  0  0  0  0  0  0  0  0  0  0  0
   62.7737   32.2441   49.1608 H   0  0  0  0  0  0  0  0  0  0  0  0
   61.1066   33.1027   47.3149 H   0  0  0  0  0  0  0  0  0  0  0  0
   61.2284   31.3965   46.7243 H   0  0  0  0  0  0  0  0  0  0  0  0
   61.0328   29.6982   48.0614 H   0  0  0  0  0  0  0  0  0  0  0  0
   60.2058   29.7975   49.6767 H   0  0  0  0  0  0  0  0  0  0  0  0
   58.2569   29.2231   48.7582 H   0  0  0  0  0  0  0  0  0  0  0  0
   58.3804   30.6186   47.6035 H   0  0  0  0  0  0  0  0  0  0  0  0
   59.3068   29.3226   45.9142 H   0  0  0  0  0  0  0  0  0  0  0  0
   59.9229   28.0778   47.0622 H   0  0  0  0  0  0  0  0  0  0  0  0
   57.0110   28.4480   46.3160 H   0  0  0  0  0  0  0  0  0  0  0  0
   55.4489   21.6315   45.9165 H   0  0  0  0  0  0  0  0  0  0  0  0
   56.0040   21.8872   47.6271 H   0  0  0  0  0  0  0  0  0  0  0  0
   53.6848   20.7159   47.1131 H   0  0  0  0  0  0  0  0  0  0  0  0
   53.8909   21.9358   48.4754 H   0  0  0  0  0  0  0  0  0  0  0  0
   51.8922   21.9334   46.5145 H   0  0  0  0  0  0  0  0  0  0  0  0
   52.3669   23.2759   47.6640 H   0  0  0  0  0  0  0  0  0  0  0  0
   53.2615   22.9036   44.7769 H   0  0  0  0  0  0  0  0  0  0  0  0
   52.2423   24.2178   45.4601 H   0  0  0  0  0  0  0  0  0  0  0  0
   58.2935   31.5308   48.2959 H   0  0  0  0  0  0  0  0  0  0  0  0
   58.8558   32.8820   49.3680 H   0  0  0  0  0  0  0  0  0  0  0  0
   58.1694   31.8139   45.9222 H   0  0  0  0  0  0  0  0  0  0  0  0
   58.2185   33.3658   43.9696 H   0  0  0  0  0  0  0  0  0  0  0  0
   59.1500   35.6685   44.2239 H   0  0  0  0  0  0  0  0  0  0  0  0
   60.0131   36.4286   46.4393 H   0  0  0  0  0  0  0  0  0  0  0  0
   59.9659   34.8838   48.3972 H   0  0  0  0  0  0  0  0  0  0  0  0
  1  2  1  0
  2  3  1  0
  3  4  1  0
  4  5  1  0
  5  6  1  0
  6  7  1  0
  7  8  1  0
  8  9  1  0
  9 10  1  0
 10 11  2  0
 10 12  1  0
 12 13  2  0
 13 14  1  0
 13 15  1  0
 15 16  1  0
 16 17  2  0
 17 18  1  0
 18 19  2  0
 17 20  1  0
 20 21  1  0
 21 22  1  0
 22 23  1  0
  5 24  1  0
 24 25  1  0
 25 26  2  0
 26 27  1  0
 27 28  2  0
 28 29  1  0
 29 30  2  0
 18 12  1  0
 30 25  1  0
 23 16  1  0
  1 31  1  0
  1 32  1  0
  1 33  1  0
  2 34  1  0
  2 35  1  0
  3 36  1  0
  3 37  1  0
  4 38  1  0
  4 39  1  0
  6 40  1  0
  6 41  1  0
  7 42  1  0
  7 43  1  0
  8 44  1  0
  8 45  1  0
  9 46  1  0
 20 47  1  0
 20 48  1  0
 21 49  1  0
 21 50  1  0
 22 51  1  0
 22 52  1  0
 23 53  1  0
 23 54  1  0
 24 55  1  0
 24 56  1  0
 26 57  1  0
 27 58  1  0
 28 59  1  0
 29 60  1  0
 30 61  1  0
M  CHG  2  14  -1  15  -1
M  END
>  <UniqueID>  (81) 
79

>  <SMILES>  (81) 
CCCCN(CCCNC(=O)c1c([O-])[n-]c2c(c1=O)CCCC2)Cc1ccccc1

>  <Energy>  (81) 
67.69874589796524

>  <Genealogy>  (81) 
CCCCN(CCCNC(=O)c1c([O-])[n-]c2c(c1=O)CCCC2)Cc1ccccc1 (protonated)
CCCCN(CCCNC(=O)c1c([O-])[n-]c2c(c1=O)CCCC2)Cc1ccccc1 (3D coordinates assigned)
CCCCN(CCCNC(=O)c1c([O-])[n-]c2c(c1=O)CCCC2)Cc1ccccc1 (nonaromatic ring conformer: 67.69874589796524 kcal/mol)

>  <smiles>  (81) 
CCCCN(CCCNC(=O)c1c(O)[nH]c2c(c1=O)CCCC2)Cc1ccccc1

>  <score_type>  (81) 
oracle

>  <origin>  (81) 
adg

>  <m_score__min__energy>  (81) 
-13.81

>  <m_primary>  (81) 
energy

$$$$
81:0
     RDKit          3D

 41 43  0  0  0  0  0  0  0  0999 V2000
   54.7030   26.3400   45.9960 O   0  0  0  0  0  0  0  0  0  0  0  0
   55.1740   25.1740   45.9310 C   0  0  0  0  0  0  0  0  0  0  0  0
   54.4240   24.1020   46.3970 O   0  0  0  0  0  0  0  0  0  0  0  0
   56.5120   24.9380   45.3080 C   0  0  0  0  0  0  0  0  0  0  0  0
   57.2880   26.2250   45.2460 C   0  0  0  0  0  0  0  0  0  0  0  0
   57.7740   26.7010   44.0190 C   0  0  0  0  0  0  0  0  0  0  0  0
   58.4690   27.9130   43.9570 C   0  0  0  0  0  0  0  0  0  0  0  0
   58.6690   28.6760   45.1210 C   0  0  0  0  0  0  0  0  0  0  0  0
   59.3700   29.8910   45.1100 O   0  0  0  0  0  0  0  0  0  0  0  0
   58.9550   31.0760   45.7360 C   0  0  0  0  0  0  0  0  0  0  0  0
   57.7440   31.4260   45.6960 O   0  0  0  0  0  0  0  0  0  0  0  0
   59.9340   31.8830   46.4970 C   0  0  0  0  0  0  0  0  0  0  0  0
   61.0570   31.2720   47.0820 C   0  0  0  0  0  0  0  0  0  0  0  0
   61.9840   32.0320   47.8000 C   0  0  0  0  0  0  0  0  0  0  0  0
   61.7910   33.4130   47.9650 C   0  0  0  0  0  0  0  0  0  0  0  0
   62.7600   34.2230   48.6470 N   0  0  0  0  0  0  0  0  0  0  0  0
   63.7210   33.8130   49.4300 C   0  0  0  0  0  0  0  0  0  0  0  0
   63.6170   34.0670   50.8040 C   0  0  0  0  0  0  0  0  0  0  0  0
   64.6270   33.6380   51.6650 C   0  0  0  0  0  0  0  0  0  0  0  0
   65.7260   32.9500   51.1540 C   0  0  0  0  0  0  0  0  0  0  0  0
   65.7930   32.6900   49.7850 C   0  0  0  0  0  0  0  0  0  0  0  0
   64.8000   33.1140   48.9550 N   0  0  0  0  0  0  0  0  0  0  0  0
   60.6960   34.0310   47.3520 C   0  0  0  0  0  0  0  0  0  0  0  0
   59.7660   33.2730   46.6340 C   0  0  0  0  0  0  0  0  0  0  0  0
   58.1920   28.1940   46.3450 C   0  0  0  0  0  0  0  0  0  0  0  0
   57.4950   26.9830   46.4080 C   0  0  0  0  0  0  0  0  0  0  0  0
   57.0696   24.2057   45.9103 H   0  0  0  0  0  0  0  0  0  0  0  0
   56.3708   24.5534   44.2871 H   0  0  0  0  0  0  0  0  0  0  0  0
   57.6076   26.1180   43.1012 H   0  0  0  0  0  0  0  0  0  0  0  0
   58.8609   28.2709   42.9935 H   0  0  0  0  0  0  0  0  0  0  0  0
   61.2070   30.1877   46.9737 H   0  0  0  0  0  0  0  0  0  0  0  0
   62.8686   31.5464   48.2378 H   0  0  0  0  0  0  0  0  0  0  0  0
   62.7425   34.6025   51.2020 H   0  0  0  0  0  0  0  0  0  0  0  0
   64.5563   33.8420   52.7436 H   0  0  0  0  0  0  0  0  0  0  0  0
   66.5323   32.6154   51.8232 H   0  0  0  0  0  0  0  0  0  0  0  0
   66.6522   32.1398   49.3739 H   0  0  0  0  0  0  0  0  0  0  0  0
   64.8790   32.8510   47.9490 H   0  0  0  0  0  0  0  0  0  0  0  0
   60.5658   35.1201   47.4353 H   0  0  0  0  0  0  0  0  0  0  0  0
   58.8976   33.7666   46.1734 H   0  0  0  0  0  0  0  0  0  0  0  0
   58.3665   28.7719   47.2646 H   0  0  0  0  0  0  0  0  0  0  0  0
   57.1076   26.6235   47.3727 H   0  0  0  0  0  0  0  0  0  0  0  0
  1  2  2  0
  2  3  1  0
  2  4  1  0
  4  5  1  0
  5  6  2  0
  6  7  1  0
  7  8  2  0
  8  9  1  0
  9 10  1  0
 10 11  2  0
 10 12  1  0
 12 13  2  0
 13 14  1  0
 14 15  2  0
 15 16  1  0
 16 17  2  3
 17 18  1  0
 18 19  2  0
 19 20  1  0
 20 21  2  0
 21 22  1  0
 15 23  1  0
 23 24  2  0
  8 25  1  0
 25 26  2  0
 26  5  1  0
 24 12  1  0
 22 17  1  0
  4 27  1  0
  4 28  1  0
  6 29  1  0
  7 30  1  0
 13 31  1  0
 14 32  1  0
 18 33  1  0
 19 34  1  0
 20 35  1  0
 21 36  1  0
 22 37  1  0
 23 38  1  0
 24 39  1  0
 25 40  1  0
 26 41  1  0
M  CHG  1   3  -1
M  END
>  <UniqueID>  (82) 
80

>  <SMILES>  (82) 
O=C([O-])Cc1ccc(OC(=O)c2ccc(N=c3cccc[nH]3)cc2)cc1

>  <Energy>  (82) 
56.457073671894904

>  <Genealogy>  (82) 
O=C([O-])Cc1ccc(OC(=O)c2ccc(N=c3cccc[nH]3)cc2)cc1 (protonated)
O=C([O-])Cc1ccc(OC(=O)c2ccc(N=c3cccc[nH]3)cc2)cc1 (3D coordinates assigned)
O=C([O-])Cc1ccc(OC(=O)c2ccc(N=c3cccc[nH]3)cc2)cc1 (optimized conformer: 56.457073671894904 kcal/mol)

>  <smiles>  (82) 
O=C(O)Cc1ccc(OC(=O)c2ccc(N=c3cccc[nH]3)cc2)cc1

>  <score_type>  (82) 
oracle

>  <origin>  (82) 
adg

>  <m_score__min__energy>  (82) 
-11.6

>  <m_primary>  (82) 
energy

$$$$
82:0
     RDKit          3D

 39 40  0  0  0  0  0  0  0  0999 V2000
   57.1410   34.1520   44.6470 O   0  0  0  0  0  0  0  0  0  0  0  0
   57.2530   33.1160   45.3590 C   0  0  0  0  0  0  0  0  0  0  0  0
   56.6430   31.8880   44.9500 N   0  0  0  0  0  0  0  0  0  0  0  0
   57.3640   30.7890   44.3170 C   0  0  0  0  0  0  0  0  0  0  0  0
   57.8920   29.8080   45.3640 C   0  0  0  0  0  0  0  0  0  0  0  0
   57.0320   28.6290   45.4290 N   0  0  0  0  0  0  0  0  0  0  0  0
   57.9050   27.2260   44.8890 S   0  0  0  0  0  0  0  0  0  0  0  0
   59.3610   27.3850   45.2300 O   0  0  0  0  0  0  0  0  0  0  0  0
   57.7580   27.1040   43.4000 O   0  0  0  0  0  0  0  0  0  0  0  0
   57.2540   25.7680   45.6490 C   0  0  0  0  0  0  0  0  0  0  0  0
   58.0800   24.6510   45.8320 C   0  0  0  0  0  0  0  0  0  0  0  0
   57.5770   23.4990   46.4360 C   0  0  0  0  0  0  0  0  0  0  0  0
   56.2470   23.4750   46.8620 C   0  0  0  0  0  0  0  0  0  0  0  0
   55.5890   22.0410   47.6230 Cl  0  0  0  0  0  0  0  0  0  0  0  0
   55.4600   24.5700   46.6910 N   0  0  0  0  0  0  0  0  0  0  0  0
   55.9240   25.7060   46.1040 C   0  0  0  0  0  0  0  0  0  0  0  0
   55.1550   26.6950   45.9820 O   0  0  0  0  0  0  0  0  0  0  0  0
   57.9870   33.1610   46.5880 N   0  0  0  0  0  0  0  0  0  0  0  0
   58.6240   34.3800   47.0820 C   0  0  0  0  0  0  0  0  0  0  0  0
   60.0660   34.1140   47.4210 C   0  0  0  0  0  0  0  0  0  0  0  0
   60.9980   33.8240   46.4100 C   0  0  0  0  0  0  0  0  0  0  0  0
   62.3400   33.5980   46.7340 C   0  0  0  0  0  0  0  0  0  0  0  0
   62.7600   33.6630   48.0640 C   0  0  0  0  0  0  0  0  0  0  0  0
   61.8400   33.9570   49.0750 C   0  0  0  0  0  0  0  0  0  0  0  0
   60.4980   34.1830   48.7570 C   0  0  0  0  0  0  0  0  0  0  0  0
   56.6836   30.2570   43.6358 H   0  0  0  0  0  0  0  0  0  0  0  0
   58.2181   31.2031   43.7611 H   0  0  0  0  0  0  0  0  0  0  0  0
   58.9119   29.4993   45.0911 H   0  0  0  0  0  0  0  0  0  0  0  0
   57.8996   30.3016   46.3470 H   0  0  0  0  0  0  0  0  0  0  0  0
   59.1277   24.6828   45.4984 H   0  0  0  0  0  0  0  0  0  0  0  0
   58.2211   22.6183   46.5755 H   0  0  0  0  0  0  0  0  0  0  0  0
   58.0840   32.2830   47.1470 H   0  0  0  0  0  0  0  0  0  0  0  0
   58.5710   35.1576   46.3057 H   0  0  0  0  0  0  0  0  0  0  0  0
   58.0991   34.7166   47.9882 H   0  0  0  0  0  0  0  0  0  0  0  0
   60.6713   33.7746   45.3608 H   0  0  0  0  0  0  0  0  0  0  0  0
   63.0656   33.3687   45.9396 H   0  0  0  0  0  0  0  0  0  0  0  0
   63.8153   33.4828   48.3166 H   0  0  0  0  0  0  0  0  0  0  0  0
   62.1729   34.0105   50.1220 H   0  0  0  0  0  0  0  0  0  0  0  0
   59.7773   34.4157   49.5548 H   0  0  0  0  0  0  0  0  0  0  0  0
  1  2  2  0
  2  3  1  0
  3  4  1  0
  4  5  1  0
  5  6  1  0
  6  7  1  0
  7  8  2  0
  7  9  2  0
  7 10  1  0
 10 11  2  0
 11 12  1  0
 12 13  2  0
 13 14  1  0
 13 15  1  0
 15 16  1  0
 16 17  2  0
  2 18  1  0
 18 19  1  0
 19 20  1  0
 20 21  2  0
 21 22  1  0
 22 23  2  0
 23 24  1  0
 24 25  2  0
 16 10  1  0
 25 20  1  0
  4 26  1  0
  4 27  1  0
  5 28  1  0
  5 29  1  0
 11 30  1  0
 12 31  1  0
 18 32  1  0
 19 33  1  0
 19 34  1  0
 21 35  1  0
 22 36  1  0
 23 37  1  0
 24 38  1  0
 25 39  1  0
M  CHG  3   3  -1   6  -1  15  -1
M  END
>  <UniqueID>  (83) 
81

>  <SMILES>  (83) 
O=C([N-]CC[N-]S(=O)(=O)c1ccc(Cl)[n-]c1=O)NCc1ccccc1

>  <Energy>  (83) 
33.39410696862377

>  <Genealogy>  (83) 
O=C([N-]CC[N-]S(=O)(=O)c1ccc(Cl)[n-]c1=O)NCc1ccccc1 (protonated)
O=C([N-]CC[N-]S(=O)(=O)c1ccc(Cl)[n-]c1=O)NCc1ccccc1 (3D coordinates assigned)
O=C([N-]CC[N-]S(=O)(=O)c1ccc(Cl)[n-]c1=O)NCc1ccccc1 (optimized conformer: 33.39410696862377 kcal/mol)

>  <smiles>  (83) 
O=C(NCCNS(=O)(=O)c1ccc(Cl)[nH]c1=O)NCc1ccccc1

>  <score_type>  (83) 
oracle

>  <origin>  (83) 
adg

>  <m_score__min__energy>  (83) 
-13.220000000000001

>  <m_primary>  (83) 
energy

$$$$
83:0
     RDKit          3D

 58 61  0  0  0  0  0  0  0  0999 V2000
   61.4810   30.3640   47.7810 C   0  0  0  0  0  0  0  0  0  0  0  0
   60.1340   29.6370   47.7950 C   0  0  1  0  0  0  0  0  0  0  0  0
   59.7810   28.8020   46.1850 S   0  0  0  0  0  0  0  0  0  0  0  0
   58.4350   29.8410   45.5670 C   0  0  0  0  0  0  0  0  0  0  0  0
   58.5180   31.2200   45.7810 C   0  0  0  0  0  0  0  0  0  0  0  0
   57.5250   32.0440   45.2710 C   0  0  0  0  0  0  0  0  0  0  0  0
   57.5990   33.2940   45.4100 O   0  0  0  0  0  0  0  0  0  0  0  0
   56.4750   31.5000   44.6170 N   0  0  0  0  0  0  0  0  0  0  0  0
   56.3500   30.1550   44.4690 C   0  0  0  0  0  0  0  0  0  0  0  0
   55.3310   29.7010   43.8810 O   0  0  0  0  0  0  0  0  0  0  0  0
   57.3120   29.3080   44.9670 N   0  0  0  0  0  0  0  0  0  0  0  0
   57.0970   27.8480   44.8900 C   0  0  0  0  0  0  0  0  0  0  0  0
   56.8250   27.2650   46.2410 C   0  0  0  0  0  0  0  0  0  0  0  0
   57.4010   27.7490   47.2510 O   0  0  0  0  0  0  0  0  0  0  0  0
   55.9140   26.1640   46.3640 N   0  0  0  0  0  0  0  0  0  0  0  0
   55.8750   24.9600   45.5810 C   0  0  0  0  0  0  0  0  0  0  0  0
   54.7270   24.1470   45.4920 C   0  0  0  0  0  0  0  0  0  0  0  0
   54.7370   23.0050   44.6880 C   0  0  0  0  0  0  0  0  0  0  0  0
   55.8940   22.6410   43.9950 C   0  0  0  0  0  0  0  0  0  0  0  0
   55.8980   21.5050   43.1950 O   0  0  0  0  0  0  0  0  0  0  0  0
   57.0480   23.4230   44.1080 C   0  0  0  0  0  0  0  0  0  0  0  0
   57.0370   24.5750   44.9000 C   0  0  0  0  0  0  0  0  0  0  0  0
   60.0110   28.7320   48.9920 C   0  0  0  0  0  0  0  0  0  0  0  0
   60.4700   27.5620   48.9210 O   0  0  0  0  0  0  0  0  0  0  0  0
   59.3150   29.1870   50.1620 N   0  0  0  0  0  0  0  0  0  0  0  0
   59.0330   30.5240   50.6110 C   0  0  0  0  0  0  0  0  0  0  0  0
   58.0110   30.8340   51.5290 C   0  0  0  0  0  0  0  0  0  0  0  0
   57.8020   32.1570   51.9260 C   0  0  0  0  0  0  0  0  0  0  0  0
   58.5940   33.1820   51.4050 C   0  0  0  0  0  0  0  0  0  0  0  0
   59.6260   32.8930   50.5070 C   0  0  0  0  0  0  0  0  0  0  0  0
   60.3860   33.9540   49.9860 O   0  0  0  0  0  0  0  0  0  0  0  0
   61.1730   33.8960   48.8270 C   0  0  0  0  0  0  0  0  0  0  0  0
   62.5790   33.9020   48.8850 C   0  0  0  0  0  0  0  0  0  0  0  0
   63.3290   33.8660   47.7030 C   0  0  0  0  0  0  0  0  0  0  0  0
   62.6840   33.8450   46.4620 C   0  0  0  0  0  0  0  0  0  0  0  0
   61.2890   33.8600   46.4020 C   0  0  0  0  0  0  0  0  0  0  0  0
   60.5350   33.8890   47.5770 C   0  0  0  0  0  0  0  0  0  0  0  0
   59.8360   31.5600   50.1090 C   0  0  0  0  0  0  0  0  0  0  0  0
   61.8120   30.5426   48.8147 H   0  0  0  0  0  0  0  0  0  0  0  0
   62.2261   29.7455   47.2591 H   0  0  0  0  0  0  0  0  0  0  0  0
   61.3729   31.3263   47.2591 H   0  0  0  0  0  0  0  0  0  0  0  0
   59.3414   30.3915   47.9066 H   0  0  0  0  0  0  0  0  0  0  0  0
   59.3597   31.6463   46.3464 H   0  0  0  0  0  0  0  0  0  0  0  0
   56.2376   27.6468   44.2336 H   0  0  0  0  0  0  0  0  0  0  0  0
   58.0104   27.3838   44.4898 H   0  0  0  0  0  0  0  0  0  0  0  0
   53.8213   24.4125   46.0570 H   0  0  0  0  0  0  0  0  0  0  0  0
   53.8296   22.3894   44.6001 H   0  0  0  0  0  0  0  0  0  0  0  0
   57.9643   23.1316   43.5737 H   0  0  0  0  0  0  0  0  0  0  0  0
   57.9485   25.1842   44.9891 H   0  0  0  0  0  0  0  0  0  0  0  0
   57.3759   30.0326   51.9344 H   0  0  0  0  0  0  0  0  0  0  0  0
   57.0100   32.3922   52.6522 H   0  0  0  0  0  0  0  0  0  0  0  0
   58.4048   34.2238   51.7030 H   0  0  0  0  0  0  0  0  0  0  0  0
   63.0890   33.9350   49.8591 H   0  0  0  0  0  0  0  0  0  0  0  0
   64.4279   33.8542   47.7505 H   0  0  0  0  0  0  0  0  0  0  0  0
   63.2749   33.8167   45.5346 H   0  0  0  0  0  0  0  0  0  0  0  0
   60.7823   33.8489   45.4257 H   0  0  0  0  0  0  0  0  0  0  0  0
   59.4365   33.9064   47.5226 H   0  0  0  0  0  0  0  0  0  0  0  0
   60.6398   31.3267   49.3952 H   0  0  0  0  0  0  0  0  0  0  0  0
  1  2  1  0
  2  3  1  0
  3  4  1  0
  4  5  2  0
  5  6  1  0
  6  7  2  0
  6  8  1  0
  8  9  1  0
  9 10  2  0
  9 11  1  0
 11 12  1  0
 12 13  1  0
 13 14  2  0
 13 15  1  0
 15 16  1  0
 16 17  2  0
 17 18  1  0
 18 19  2  0
 19 20  1  0
 19 21  1  0
 21 22  2  0
  2 23  1  0
 23 24  2  0
 23 25  1  0
 25 26  1  0
 26 27  2  0
 27 28  1  0
 28 29  2  0
 29 30  1  0
 30 31  1  0
 31 32  1  0
 32 33  2  0
 33 34  1  0
 34 35  2  0
 35 36  1  0
 36 37  2  0
 30 38  2  0
 11  4  1  0
 22 16  1  0
 38 26  1  0
 37 32  1  0
  1 39  1  0
  1 40  1  0
  1 41  1  0
  2 42  1  1
  5 43  1  0
 12 44  1  0
 12 45  1  0
 17 46  1  0
 18 47  1  0
 21 48  1  0
 22 49  1  0
 27 50  1  0
 28 51  1  0
 29 52  1  0
 33 53  1  0
 34 54  1  0
 35 55  1  0
 36 56  1  0
 37 57  1  0
 38 58  1  0
M  CHG  4   8  -1  15  -1  20  -1  25  -1
M  END
>  <UniqueID>  (84) 
82

>  <SMILES>  (84) 
C[C@@H](Sc1cc(=O)[n-]c(=O)n1CC(=O)[N-]c1ccc([O-])cc1)C(=O)[N-]c1cccc(Oc2ccccc2)c1

>  <Energy>  (84) 
72.81863194538302

>  <Genealogy>  (84) 
CC(Sc1cc(=O)[n-]c(=O)n1CC(=O)[N-]c1ccc([O-])cc1)C(=O)[N-]c1cccc(Oc2ccccc2)c1 (protonated)
C[C@@H](Sc1cc(=O)[n-]c(=O)n1CC(=O)[N-]c1ccc([O-])cc1)C(=O)[N-]c1cccc(Oc2ccccc2)c1 (chirality)
C[C@@H](Sc1cc(=O)[n-]c(=O)n1CC(=O)[N-]c1ccc([O-])cc1)C(=O)[N-]c1cccc(Oc2ccccc2)c1 (3D coordinates assigned)
C[C@@H](Sc1cc(=O)[n-]c(=O)n1CC(=O)[N-]c1ccc([O-])cc1)C(=O)[N-]c1cccc(Oc2ccccc2)c1 (optimized conformer: 72.81863194538302 kcal/mol)

>  <smiles>  (84) 
CC(Sc1cc(=O)[nH]c(=O)n1CC(=O)Nc1ccc(O)cc1)C(=O)Nc1cccc(Oc2ccccc2)c1

>  <score_type>  (84) 
oracle

>  <origin>  (84) 
adg

>  <m_score__min__energy>  (84) 
-16.390000000000001

>  <m_primary>  (84) 
energy

$$$$
84:0
     RDKit          3D

 55 57  0  0  0  0  0  0  0  0999 V2000
   57.2023   33.9594   43.2485 H   0  0  0  0  0  0  0  0  0  0  0  0
   57.6470   33.4800   44.1330 C   0  0  0  0  0  0  0  0  0  0  0  0
   57.2640   32.1920   44.4880 C   0  0  0  0  0  0  0  0  0  0  0  0
   56.5314   31.6518   43.8704 H   0  0  0  0  0  0  0  0  0  0  0  0
   57.8040   31.5730   45.6290 C   0  0  0  0  0  0  0  0  0  0  0  0
   57.4870   30.2140   45.9570 N   0  0  0  0  0  0  0  0  0  0  0  0
   56.6420   29.0390   44.9980 S   0  0  0  0  0  0  0  0  0  0  0  0
   56.7540   27.7060   45.6840 O   0  0  0  0  0  0  0  0  0  0  0  0
   55.1830   29.3860   44.8940 O   0  0  0  0  0  0  0  0  0  0  0  0
   57.3770   28.8930   43.3670 C   0  0  0  0  0  0  0  0  0  0  0  0
   58.2846   29.5140   43.3436 H   0  0  0  0  0  0  0  0  0  0  0  0
   56.4000   29.4010   42.3020 C   0  0  0  0  0  0  0  0  0  0  0  0
   55.5265   29.8552   42.7926 H   0  0  0  0  0  0  0  0  0  0  0  0
   56.9003   30.1531   41.6744 H   0  0  0  0  0  0  0  0  0  0  0  0
   56.0717   28.5594   41.6744 H   0  0  0  0  0  0  0  0  0  0  0  0
   57.7960   27.4520   43.0710 C   0  0  0  0  0  0  0  0  0  0  0  0
   57.9525   26.9139   44.0175 H   0  0  0  0  0  0  0  0  0  0  0  0
   57.0060   26.9522   42.4913 H   0  0  0  0  0  0  0  0  0  0  0  0
   58.7309   27.4537   42.4913 H   0  0  0  0  0  0  0  0  0  0  0  0
   58.7190   32.2910   46.4390 C   0  0  0  0  0  0  0  0  0  0  0  0
   59.2400   31.7420   47.6220 O   0  0  0  0  0  0  0  0  0  0  0  0
   60.6580   30.7850   47.7270 S   0  0  0  0  0  0  0  0  0  0  0  0
   61.2280   30.9070   49.1110 O   0  0  0  0  0  0  0  0  0  0  0  0
   61.6570   31.3030   46.7290 O   0  0  0  0  0  0  0  0  0  0  0  0
   60.2790   29.1000   47.3340 C   0  0  0  0  0  0  0  0  0  0  0  0
   60.2550   28.7240   45.9810 C   0  0  0  0  0  0  0  0  0  0  0  0
   60.4853   29.4683   45.2044 H   0  0  0  0  0  0  0  0  0  0  0  0
   59.9420   27.4160   45.6130 C   0  0  0  0  0  0  0  0  0  0  0  0
   59.9270   27.1333   44.5501 H   0  0  0  0  0  0  0  0  0  0  0  0
   59.6480   26.4660   46.5900 C   0  0  0  0  0  0  0  0  0  0  0  0
   59.3858   25.4388   46.2964 H   0  0  0  0  0  0  0  0  0  0  0  0
   59.6860   26.8170   47.9400 C   0  0  0  0  0  0  0  0  0  0  0  0
   59.4541   26.0627   48.7063 H   0  0  0  0  0  0  0  0  0  0  0  0
   60.0180   28.1260   48.3290 C   0  0  0  0  0  0  0  0  0  0  0  0
   60.0300   28.4640   49.7950 C   0  0  0  0  0  0  0  0  0  0  0  0
   59.9971   27.5365   50.3854 H   0  0  0  0  0  0  0  0  0  0  0  0
   60.9484   29.0195   50.0357 H   0  0  0  0  0  0  0  0  0  0  0  0
   59.1533   29.0832   50.0357 H   0  0  0  0  0  0  0  0  0  0  0  0
   59.1510   33.5840   46.0440 C   0  0  0  0  0  0  0  0  0  0  0  0
   60.1780   34.3480   46.8110 C   0  0  0  0  0  0  0  0  0  0  0  0
   59.8270   35.2880   47.5770 O   0  0  0  0  0  0  0  0  0  0  0  0
   61.5730   34.0430   46.7020 N   0  0  0  0  0  0  0  0  0  0  0  0
   62.3830   33.8350   47.7040 C   0  0  0  0  0  0  0  0  0  0  0  0
   63.6790   33.3080   47.5210 C   0  0  0  0  0  0  0  0  0  0  0  0
   64.0428   33.0721   46.5101 H   0  0  0  0  0  0  0  0  0  0  0  0
   64.4960   33.0880   48.6300 C   0  0  0  0  0  0  0  0  0  0  0  0
   65.5077   32.6773   48.4967 H   0  0  0  0  0  0  0  0  0  0  0  0
   64.0270   33.3900   49.9080 C   0  0  0  0  0  0  0  0  0  0  0  0
   64.6655   33.2212   50.7877 H   0  0  0  0  0  0  0  0  0  0  0  0
   62.7410   33.9080   50.0610 C   0  0  0  0  0  0  0  0  0  0  0  0
   62.3612   34.1472   51.0652 H   0  0  0  0  0  0  0  0  0  0  0  0
   61.9550   34.1180   48.9690 N   0  0  0  0  0  0  0  0  0  0  0  0
   60.9970   34.5060   49.1170 H   0  0  0  0  0  0  0  0  0  0  0  0
   58.5910   34.1660   44.8920 C   0  0  0  0  0  0  0  0  0  0  0  0
   58.9030   35.1758   44.5872 H   0  0  0  0  0  0  0  0  0  0  0  0
  1  2  1  0
  2  3  2  0
  3  4  1  0
  3  5  1  0
  5  6  1  0
  6  7  1  0
  7  8  2  0
  7  9  2  0
  7 10  1  0
 10 11  1  0
 10 12  1  0
 12 13  1  0
 12 14  1  0
 12 15  1  0
 10 16  1  0
 16 17  1  0
 16 18  1  0
 16 19  1  0
  5 20  2  0
 20 21  1  0
 21 22  1  0
 22 23  2  0
 22 24  2  0
 22 25  1  0
 25 26  2  0
 26 27  1  0
 26 28  1  0
 28 29  1  0
 28 30  2  0
 30 31  1  0
 30 32  1  0
 32 33  1  0
 32 34  2  0
 34 35  1  0
 35 36  1  0
 35 37  1  0
 35 38  1  0
 20 39  1  0
 39 40  1  0
 40 41  2  0
 40 42  1  0
 42 43  2  0
 43 44  1  0
 44 45  1  0
 44 46  2  0
 46 47  1  0
 46 48  1  0
 48 49  1  0
 48 50  2  0
 50 51  1  0
 50 52  1  0
 52 53  1  0
 39 54  2  0
 54 55  1  0
 54  2  1  0
 34 25  1  0
 52 43  1  0
M  CHG  1   6  -1
M  END
>  <UniqueID>  (85) 
83

>  <SMILES>  (85) 
Cc1ccccc1S(=O)(=O)Oc1c([N-]S(=O)(=O)C(C)C)cccc1C(=O)/N=c1\cccc[nH]1

>  <Energy>  (85) 
70.35270081367547

>  <Genealogy>  (85) 
Cc1ccccc1S(=O)(=O)Oc1c([N-]S(=O)(=O)C(C)C)cccc1C(=O)N=c1cccc[nH]1 (protonated)
Cc1ccccc1S(=O)(=O)Oc1c([N-]S(=O)(=O)C(C)C)cccc1C(=O)/N=c1\cccc[nH]1 (cis-trans isomerization)
Cc1ccccc1S(=O)(=O)Oc1c([N-]S(=O)(=O)C(C)C)cccc1C(=O)/N=c1\cccc[nH]1 (3D coordinates assigned)
Cc1ccccc1S(=O)(=O)Oc1c([N-]S(=O)(=O)C(C)C)cccc1C(=O)/N=c1\cccc[nH]1 (optimized conformer: 70.35270081367547 kcal/mol)

>  <smiles>  (85) 
Cc1ccccc1S(=O)(=O)Oc1c(NS(=O)(=O)C(C)C)cccc1C(=O)N=c1cccc[nH]1

>  <score_type>  (85) 
oracle

>  <origin>  (85) 
adg

>  <m_score__min__energy>  (85) 
-12.220000000000001

>  <m_primary>  (85) 
energy

$$$$
85:0
     RDKit          3D

 48 51  0  0  0  0  0  0  0  0999 V2000
   65.8580   32.5180   50.1400 C   0  0  0  0  0  0  0  0  0  0  0  0
   64.7580   31.9720   49.4190 O   0  0  0  0  0  0  0  0  0  0  0  0
   63.4710   32.5270   49.3990 C   0  0  0  0  0  0  0  0  0  0  0  0
   63.2470   33.9180   49.3910 C   0  0  0  0  0  0  0  0  0  0  0  0
   61.9440   34.4210   49.3590 C   0  0  0  0  0  0  0  0  0  0  0  0
   60.8550   33.5470   49.3360 C   0  0  0  0  0  0  0  0  0  0  0  0
   61.0610   32.1590   49.3540 C   0  0  0  0  0  0  0  0  0  0  0  0
   59.8940   31.2150   49.2520 C   0  0  0  0  0  0  0  0  0  0  0  0
   59.9390   30.5020   47.9680 N   0  0  0  0  0  0  0  0  0  0  0  0
   60.7710   29.3170   47.8160 C   0  0  0  0  0  0  0  0  0  0  0  0
   59.9640   28.1170   48.1660 C   0  0  0  0  0  0  0  0  0  0  0  0
   60.3990   27.3150   49.0330 O   0  0  0  0  0  0  0  0  0  0  0  0
   58.7420   27.8110   47.4900 N   0  0  0  0  0  0  0  0  0  0  0  0
   57.9940   28.5750   46.7420 C   0  0  0  0  0  0  0  0  0  0  0  0
   58.1560   29.9320   46.4140 C   0  0  0  0  0  0  0  0  0  0  0  0
   57.2230   30.2560   45.4890 N   0  0  0  0  0  0  0  0  0  0  0  0
   56.5120   29.1280   45.3040 C   0  0  0  0  0  0  0  0  0  0  0  0
   55.5400   29.0600   44.5070 O   0  0  0  0  0  0  0  0  0  0  0  0
   56.9310   28.0950   46.0620 N   0  0  0  0  0  0  0  0  0  0  0  0
   56.3910   26.7600   46.0720 C   0  0  0  0  0  0  0  0  0  0  0  0
   57.2160   25.6340   46.3760 N   0  0  0  0  0  0  0  0  0  0  0  0
   55.1660   26.5770   45.8380 O   0  0  0  0  0  0  0  0  0  0  0  0
   59.0100   30.8470   46.9280 C   0  0  0  0  0  0  0  0  0  0  0  0
   58.9920   32.2560   46.4600 C   0  0  0  0  0  0  0  0  0  0  0  0
   57.7820   32.9390   46.2370 C   0  0  0  0  0  0  0  0  0  0  0  0
   57.7920   34.2780   45.8340 C   0  0  0  0  0  0  0  0  0  0  0  0
   59.0050   34.9500   45.6630 C   0  0  0  0  0  0  0  0  0  0  0  0
   60.2110   34.2850   45.8990 C   0  0  0  0  0  0  0  0  0  0  0  0
   60.2070   32.9460   46.3030 C   0  0  0  0  0  0  0  0  0  0  0  0
   62.3720   31.6590   49.3830 C   0  0  0  0  0  0  0  0  0  0  0  0
   65.6709   32.4251   51.2200 H   0  0  0  0  0  0  0  0  0  0  0  0
   66.7757   31.9708   49.8785 H   0  0  0  0  0  0  0  0  0  0  0  0
   65.9771   33.5798   49.8785 H   0  0  0  0  0  0  0  0  0  0  0  0
   64.1013   34.6106   49.4100 H   0  0  0  0  0  0  0  0  0  0  0  0
   61.7754   35.5080   49.3519 H   0  0  0  0  0  0  0  0  0  0  0  0
   59.8313   33.9483   49.3036 H   0  0  0  0  0  0  0  0  0  0  0  0
   59.9405   30.4871   50.0754 H   0  0  0  0  0  0  0  0  0  0  0  0
   58.9574   31.7884   49.3155 H   0  0  0  0  0  0  0  0  0  0  0  0
   61.1169   29.2391   46.7747 H   0  0  0  0  0  0  0  0  0  0  0  0
   61.6453   29.3863   48.4799 H   0  0  0  0  0  0  0  0  0  0  0  0
   56.8220   24.6680   46.3240 H   0  0  0  0  0  0  0  0  0  0  0  0
   58.1830   25.7550   46.7470 H   0  0  0  0  0  0  0  0  0  0  0  0
   56.8242   32.4174   46.3803 H   0  0  0  0  0  0  0  0  0  0  0  0
   56.8430   34.8033   45.6512 H   0  0  0  0  0  0  0  0  0  0  0  0
   59.0106   36.0023   45.3427 H   0  0  0  0  0  0  0  0  0  0  0  0
   61.1654   34.8156   45.7668 H   0  0  0  0  0  0  0  0  0  0  0  0
   61.1587   32.4304   46.4988 H   0  0  0  0  0  0  0  0  0  0  0  0
   62.5385   30.5717   49.3933 H   0  0  0  0  0  0  0  0  0  0  0  0
  1  2  1  0
  2  3  1  0
  3  4  2  0
  4  5  1  0
  5  6  2  0
  6  7  1  0
  7  8  1  0
  8  9  1  0
  9 10  1  0
 10 11  1  0
 11 12  2  0
 11 13  1  0
 13 14  2  0
 14 15  1  0
 15 16  1  0
 16 17  1  0
 17 18  2  0
 17 19  1  0
 19 20  1  0
 20 21  1  0
 20 22  2  0
 15 23  2  0
 23 24  1  0
 24 25  2  0
 25 26  1  0
 26 27  2  0
 27 28  1  0
 28 29  2  0
  7 30  2  0
 30  3  1  0
 23  9  1  0
 29 24  1  0
 19 14  1  0
  1 31  1  0
  1 32  1  0
  1 33  1  0
  4 34  1  0
  5 35  1  0
  6 36  1  0
  8 37  1  0
  8 38  1  0
 10 39  1  0
 10 40  1  0
 21 41  1  0
 21 42  1  0
 25 43  1  0
 26 44  1  0
 27 45  1  0
 28 46  1  0
 29 47  1  0
 30 48  1  0
M  CHG  1  16  -1
M  END
>  <UniqueID>  (86) 
84

>  <SMILES>  (86) 
COc1cccc(CN2CC(=O)N=c3c([n-]c(=O)n3C(N)=O)=C2c2ccccc2)c1

>  <Energy>  (86) 
100.521260635421

>  <Genealogy>  (86) 
COc1cccc(CN2CC(=O)N=c3c([n-]c(=O)n3C(N)=O)=C2c2ccccc2)c1 (protonated)
COc1cccc(CN2CC(=O)N=c3c([n-]c(=O)n3C(N)=O)=C2c2ccccc2)c1 (3D coordinates assigned)
COc1cccc(CN2CC(=O)N=c3c([n-]c(=O)n3C(N)=O)=C2c2ccccc2)c1 (nonaromatic ring conformer: 100.521260635421 kcal/mol)

>  <smiles>  (86) 
COc1cccc(CN2CC(=O)N=c3c([nH]c(=O)n3C(N)=O)=C2c2ccccc2)c1

>  <score_type>  (86) 
oracle

>  <origin>  (86) 
adg

>  <m_score__min__energy>  (86) 
-8.6899999999999995

>  <m_primary>  (86) 
energy

$$$$
86:0
     RDKit          3D

 42 44  0  0  0  0  0  0  0  0999 V2000
   60.0054   35.1754   48.3335 H   0  0  0  0  0  0  0  0  0  0  0  0
   59.5250   34.6020   47.5270 C   0  0  0  0  0  0  0  0  0  0  0  0
   58.7800   33.4590   47.8310 C   0  0  0  0  0  0  0  0  0  0  0  0
   58.6729   33.1352   48.8768 H   0  0  0  0  0  0  0  0  0  0  0  0
   58.1710   32.7270   46.8080 C   0  0  0  0  0  0  0  0  0  0  0  0
   57.5793   31.8323   47.0517 H   0  0  0  0  0  0  0  0  0  0  0  0
   58.3120   33.1300   45.4690 C   0  0  0  0  0  0  0  0  0  0  0  0
   57.6660   32.3400   44.3610 C   0  0  0  0  0  0  0  0  0  0  0  0
   58.4023   31.6336   43.9501 H   0  0  0  0  0  0  0  0  0  0  0  0
   57.3251   33.0456   43.5890 H   0  0  0  0  0  0  0  0  0  0  0  0
   56.5030   31.5890   44.8410 N   0  0  0  0  0  0  0  0  0  0  0  0
   56.4490   29.9800   44.1730 S   0  0  0  0  0  0  0  0  0  0  0  0
   55.1450   29.3380   44.5510 O   0  0  0  0  0  0  0  0  0  0  0  0
   56.5180   30.0640   42.6730 O   0  0  0  0  0  0  0  0  0  0  0  0
   57.7680   28.9840   44.7870 C   0  0  0  0  0  0  0  0  0  0  0  0
   57.8740   27.6490   44.3800 C   0  0  0  0  0  0  0  0  0  0  0  0
   57.1559   27.2374   43.6555 H   0  0  0  0  0  0  0  0  0  0  0  0
   58.8900   26.8380   44.8920 C   0  0  0  0  0  0  0  0  0  0  0  0
   58.9756   25.7920   44.5625 H   0  0  0  0  0  0  0  0  0  0  0  0
   59.7970   27.3520   45.8210 C   0  0  0  0  0  0  0  0  0  0  0  0
   60.5943   26.7086   46.2214 H   0  0  0  0  0  0  0  0  0  0  0  0
   59.6960   28.6880   46.2470 C   0  0  0  0  0  0  0  0  0  0  0  0
   60.6440   29.2380   47.2450 C   0  0  0  0  0  0  0  0  0  0  0  0
   60.7530   28.6770   48.3670 O   0  0  0  0  0  0  0  0  0  0  0  0
   61.4010   30.4320   46.9970 N   0  0  0  0  0  0  0  0  0  0  0  0
   61.6840   31.3520   47.8740 C   0  0  0  0  0  0  0  0  0  0  0  0
   62.2620   32.5890   47.6370 C   0  0  0  0  0  0  0  0  0  0  0  0
   62.5609   33.0320   46.6755 H   0  0  0  0  0  0  0  0  0  0  0  0
   62.3710   33.1300   48.9040 C   0  0  0  0  0  0  0  0  0  0  0  0
   62.9560   34.4590   49.2440 C   0  0  0  0  0  0  0  0  0  0  0  0
   63.0046   34.5693   50.3374 H   0  0  0  0  0  0  0  0  0  0  0  0
   63.9695   34.5321   48.8227 H   0  0  0  0  0  0  0  0  0  0  0  0
   62.3254   35.2558   48.8227 H   0  0  0  0  0  0  0  0  0  0  0  0
   61.9100   32.2710   49.7870 O   0  0  0  0  0  0  0  0  0  0  0  0
   61.4920   31.1930   49.1930 N   0  0  0  0  0  0  0  0  0  0  0  0
   61.0860   30.3600   49.6760 H   0  0  0  0  0  0  0  0  0  0  0  0
   58.6860   29.5040   45.7110 C   0  0  0  0  0  0  0  0  0  0  0  0
   58.6146   30.5579   46.0180 H   0  0  0  0  0  0  0  0  0  0  0  0
   59.0540   34.2860   45.1720 C   0  0  0  0  0  0  0  0  0  0  0  0
   59.1585   34.6171   44.1282 H   0  0  0  0  0  0  0  0  0  0  0  0
   59.6600   35.0170   46.1990 C   0  0  0  0  0  0  0  0  0  0  0  0
   60.2431   35.9190   45.9615 H   0  0  0  0  0  0  0  0  0  0  0  0
  1  2  1  0
  2  3  2  0
  3  4  1  0
  3  5  1  0
  5  6  1  0
  5  7  2  0
  7  8  1  0
  8  9  1  0
  8 10  1  0
  8 11  1  0
 11 12  1  0
 12 13  2  0
 12 14  2  0
 12 15  1  0
 15 16  2  0
 16 17  1  0
 16 18  1  0
 18 19  1  0
 18 20  2  0
 20 21  1  0
 20 22  1  0
 22 23  1  0
 23 24  2  0
 23 25  1  0
 25 26  2  0
 26 27  1  0
 27 28  1  0
 27 29  2  0
 29 30  1  0
 30 31  1  0
 30 32  1  0
 30 33  1  0
 29 34  1  0
 34 35  1  0
 35 36  1  0
 22 37  2  0
 37 38  1  0
  7 39  1  0
 39 40  1  0
 39 41  2  0
 41 42  1  0
 41  2  1  0
 37 15  1  0
 35 26  1  0
M  CHG  1  11  -1
M  END
>  <UniqueID>  (87) 
85

>  <SMILES>  (87) 
Cc1c/c(=N\C(=O)c2cccc(S(=O)(=O)[N-]Cc3ccccc3)c2)[nH]o1

>  <Energy>  (87) 
80.83828722082173

>  <Genealogy>  (87) 
Cc1cc(=NC(=O)c2cccc(S(=O)(=O)[N-]Cc3ccccc3)c2)[nH]o1 (protonated)
Cc1c/c(=N\C(=O)c2cccc(S(=O)(=O)[N-]Cc3ccccc3)c2)[nH]o1 (cis-trans isomerization)
Cc1c/c(=N\C(=O)c2cccc(S(=O)(=O)[N-]Cc3ccccc3)c2)[nH]o1 (3D coordinates assigned)
Cc1c/c(=N\C(=O)c2cccc(S(=O)(=O)[N-]Cc3ccccc3)c2)[nH]o1 (optimized conformer: 80.83828722082173 kcal/mol)

>  <smiles>  (87) 
Cc1cc(=NC(=O)c2cccc(S(=O)(=O)NCc3ccccc3)c2)[nH]o1

>  <score_type>  (87) 
oracle

>  <origin>  (87) 
adg

>  <m_score__min__energy>  (87) 
-11.300000000000001

>  <m_primary>  (87) 
energy

$$$$
87:0
     RDKit          3D

 33 34  0  0  0  0  0  0  0  0999 V2000
   57.3730   28.1740   43.1260 O   0  0  0  0  0  0  0  0  0  0  0  0
   57.2460   28.9070   44.1430 C   0  0  0  0  0  0  0  0  0  0  0  0
   57.1960   30.3910   43.9780 C   0  0  0  0  0  0  0  0  0  0  0  0
   57.0300   31.0110   45.2880 N   0  0  0  0  0  0  0  0  0  0  0  0
   58.4610   30.7660   46.2430 S   0  0  0  0  0  0  0  0  0  0  0  0
   58.2000   29.6840   47.2540 O   0  0  0  0  0  0  0  0  0  0  0  0
   59.5840   30.3230   45.3490 O   0  0  0  0  0  0  0  0  0  0  0  0
   58.9250   32.2690   47.0500 C   0  0  0  0  0  0  0  0  0  0  0  0
   59.2750   32.2430   48.4110 C   0  0  0  0  0  0  0  0  0  0  0  0
   59.6320   33.4200   49.0740 C   0  0  0  0  0  0  0  0  0  0  0  0
   59.6430   34.6330   48.3860 C   0  0  0  0  0  0  0  0  0  0  0  0
   59.2980   34.6740   47.0340 C   0  0  0  0  0  0  0  0  0  0  0  0
   58.9380   33.5010   46.3590 C   0  0  0  0  0  0  0  0  0  0  0  0
   58.4750   33.6420   44.5020 Br  0  0  0  0  0  0  0  0  0  0  0  0
   57.0600   28.3280   45.4430 N   0  0  0  0  0  0  0  0  0  0  0  0
   57.1770   26.9210   45.7040 C   0  0  0  0  0  0  0  0  0  0  0  0
   58.4350   26.3090   45.5960 C   0  0  0  0  0  0  0  0  0  0  0  0
   58.5790   24.9390   45.8360 C   0  0  0  0  0  0  0  0  0  0  0  0
   57.4640   24.1670   46.1700 C   0  0  0  0  0  0  0  0  0  0  0  0
   56.2010   24.7610   46.2520 C   0  0  0  0  0  0  0  0  0  0  0  0
   56.0500   26.1310   46.0080 C   0  0  0  0  0  0  0  0  0  0  0  0
   54.7770   26.6880   46.0400 O   0  0  0  0  0  0  0  0  0  0  0  0
   58.1323   30.7426   43.5200 H   0  0  0  0  0  0  0  0  0  0  0  0
   56.3509   30.6637   43.3289 H   0  0  0  0  0  0  0  0  0  0  0  0
   59.2678   31.2889   48.9583 H   0  0  0  0  0  0  0  0  0  0  0  0
   59.9045   33.3898   50.1393 H   0  0  0  0  0  0  0  0  0  0  0  0
   59.9239   35.5588   48.9095 H   0  0  0  0  0  0  0  0  0  0  0  0
   59.3090   35.6332   46.4957 H   0  0  0  0  0  0  0  0  0  0  0  0
   56.6740   28.9380   46.2000 H   0  0  0  0  0  0  0  0  0  0  0  0
   59.3136   26.9109   45.3208 H   0  0  0  0  0  0  0  0  0  0  0  0
   59.5708   24.4691   45.7617 H   0  0  0  0  0  0  0  0  0  0  0  0
   57.5796   23.0913   46.3686 H   0  0  0  0  0  0  0  0  0  0  0  0
   55.3233   24.1498   46.5091 H   0  0  0  0  0  0  0  0  0  0  0  0
  1  2  2  0
  2  3  1  0
  3  4  1  0
  4  5  1  0
  5  6  2  0
  5  7  2  0
  5  8  1  0
  8  9  2  0
  9 10  1  0
 10 11  2  0
 11 12  1  0
 12 13  2  0
 13 14  1  0
  2 15  1  0
 15 16  1  0
 16 17  2  0
 17 18  1  0
 18 19  2  0
 19 20  1  0
 20 21  2  0
 21 22  1  0
 13  8  1  0
 21 16  1  0
  3 23  1  0
  3 24  1  0
  9 25  1  0
 10 26  1  0
 11 27  1  0
 12 28  1  0
 15 29  1  0
 17 30  1  0
 18 31  1  0
 19 32  1  0
 20 33  1  0
M  CHG  2   4  -1  22  -1
M  END
>  <UniqueID>  (88) 
86

>  <SMILES>  (88) 
O=C(C[N-]S(=O)(=O)c1ccccc1Br)Nc1ccccc1[O-]

>  <Energy>  (88) 
36.65442448029918

>  <Genealogy>  (88) 
O=C(C[N-]S(=O)(=O)c1ccccc1Br)Nc1ccccc1[O-] (protonated)
O=C(C[N-]S(=O)(=O)c1ccccc1Br)Nc1ccccc1[O-] (3D coordinates assigned)
O=C(C[N-]S(=O)(=O)c1ccccc1Br)Nc1ccccc1[O-] (optimized conformer: 36.65442448029918 kcal/mol)

>  <smiles>  (88) 
O=C(CNS(=O)(=O)c1ccccc1Br)Nc1ccccc1O

>  <score_type>  (88) 
oracle

>  <origin>  (88) 
adg

>  <m_score__min__energy>  (88) 
-13.630000000000001

>  <m_primary>  (88) 
energy

$$$$
88:0
     RDKit          3D

 53 56  0  0  0  0  0  0  0  0999 V2000
   57.7830   33.3750   47.4100 C   0  0  0  0  0  0  0  0  0  0  0  0
   58.1630   32.9640   45.9820 C   0  0  0  0  0  0  0  0  0  0  0  0
   57.8110   34.0940   45.0030 C   0  0  0  0  0  0  0  0  0  0  0  0
   57.3960   31.8130   45.6180 O   0  0  0  0  0  0  0  0  0  0  0  0
   57.8290   30.4960   45.8100 C   0  0  0  0  0  0  0  0  0  0  0  0
   56.9210   29.4510   45.6200 C   0  0  0  0  0  0  0  0  0  0  0  0
   57.3210   28.1220   45.7870 C   0  0  0  0  0  0  0  0  0  0  0  0
   56.3670   27.0760   45.5680 N   0  0  0  0  0  0  0  0  0  0  0  0
   56.4720   25.7230   46.0310 C   0  0  0  0  0  0  0  0  0  0  0  0
   55.5400   25.2480   46.7340 O   0  0  0  0  0  0  0  0  0  0  0  0
   57.6870   24.8780   45.7530 C   0  0  0  0  0  0  0  0  0  0  0  0
   57.3560   23.7850   44.7740 C   0  0  0  0  0  0  0  0  0  0  0  0
   58.0900   22.5860   44.7770 C   0  0  0  0  0  0  0  0  0  0  0  0
   57.7640   21.5580   43.8870 C   0  0  0  0  0  0  0  0  0  0  0  0
   56.7000   21.7150   42.9960 C   0  0  0  0  0  0  0  0  0  0  0  0
   55.9560   22.8980   42.9950 C   0  0  0  0  0  0  0  0  0  0  0  0
   56.2790   23.9290   43.8830 C   0  0  0  0  0  0  0  0  0  0  0  0
   58.6640   27.8420   46.0760 C   0  0  0  0  0  0  0  0  0  0  0  0
   59.5800   28.8810   46.2590 C   0  0  0  0  0  0  0  0  0  0  0  0
   59.1680   30.2260   46.1630 C   0  0  0  0  0  0  0  0  0  0  0  0
   60.0860   31.3330   46.3410 N   0  0  0  0  0  0  0  0  0  0  0  0
   61.3180   31.2200   47.1450 C   0  0  0  0  0  0  0  0  0  0  0  0
   61.2430   32.1210   48.3590 C   0  0  0  0  0  0  0  0  0  0  0  0
   60.2580   31.8770   49.3340 C   0  0  0  0  0  0  0  0  0  0  0  0
   60.1210   32.7240   50.4360 C   0  0  0  0  0  0  0  0  0  0  0  0
   60.9650   33.8240   50.5820 C   0  0  0  0  0  0  0  0  0  0  0  0
   61.9530   34.0770   49.6290 C   0  0  0  0  0  0  0  0  0  0  0  0
   62.1020   33.2350   48.5200 C   0  0  0  0  0  0  0  0  0  0  0  0
   63.3920   33.6030   47.3810 Cl  0  0  0  0  0  0  0  0  0  0  0  0
   59.6410   32.6410   45.9400 C   0  0  0  0  0  0  0  0  0  0  0  0
   60.4810   33.5280   45.6250 O   0  0  0  0  0  0  0  0  0  0  0  0
   58.3477   32.7643   48.1299 H   0  0  0  0  0  0  0  0  0  0  0  0
   58.0239   34.4375   47.5621 H   0  0  0  0  0  0  0  0  0  0  0  0
   56.7049   33.2180   47.5621 H   0  0  0  0  0  0  0  0  0  0  0  0
   57.5304   34.9949   45.5684 H   0  0  0  0  0  0  0  0  0  0  0  0
   58.6828   34.3153   44.3697 H   0  0  0  0  0  0  0  0  0  0  0  0
   56.9678   33.7811   44.3697 H   0  0  0  0  0  0  0  0  0  0  0  0
   55.8823   29.6761   45.3365 H   0  0  0  0  0  0  0  0  0  0  0  0
   58.4807   25.5127   45.3321 H   0  0  0  0  0  0  0  0  0  0  0  0
   58.0257   24.4214   46.6947 H   0  0  0  0  0  0  0  0  0  0  0  0
   58.9241   22.4560   45.4823 H   0  0  0  0  0  0  0  0  0  0  0  0
   58.3461   20.6247   43.8886 H   0  0  0  0  0  0  0  0  0  0  0  0
   56.4473   20.9065   42.2942 H   0  0  0  0  0  0  0  0  0  0  0  0
   55.1158   23.0183   42.2953 H   0  0  0  0  0  0  0  0  0  0  0  0
   55.6875   24.8565   43.8840 H   0  0  0  0  0  0  0  0  0  0  0  0
   58.9987   26.7975   46.1592 H   0  0  0  0  0  0  0  0  0  0  0  0
   60.6320   28.6476   46.4799 H   0  0  0  0  0  0  0  0  0  0  0  0
   61.4408   30.1778   47.4747 H   0  0  0  0  0  0  0  0  0  0  0  0
   62.1753   31.5258   46.5273 H   0  0  0  0  0  0  0  0  0  0  0  0
   59.5891   31.0103   49.2271 H   0  0  0  0  0  0  0  0  0  0  0  0
   59.3458   32.5228   51.1901 H   0  0  0  0  0  0  0  0  0  0  0  0
   60.8523   34.4925   51.4482 H   0  0  0  0  0  0  0  0  0  0  0  0
   62.6193   34.9439   49.7500 H   0  0  0  0  0  0  0  0  0  0  0  0
  1  2  1  0
  2  3  1  0
  2  4  1  0
  4  5  1  0
  5  6  2  0
  6  7  1  0
  7  8  1  0
  8  9  1  0
  9 10  2  0
  9 11  1  0
 11 12  1  0
 12 13  2  0
 13 14  1  0
 14 15  2  0
 15 16  1  0
 16 17  2  0
  7 18  2  0
 18 19  1  0
 19 20  2  0
 20 21  1  0
 21 22  1  0
 22 23  1  0
 23 24  2  0
 24 25  1  0
 25 26  2  0
 26 27  1  0
 27 28  2  0
 28 29  1  0
 21 30  1  0
 30 31  2  0
 30  2  1  0
 20  5  1  0
 28 23  1  0
 17 12  1  0
  1 32  1  0
  1 33  1  0
  1 34  1  0
  3 35  1  0
  3 36  1  0
  3 37  1  0
  6 38  1  0
 11 39  1  0
 11 40  1  0
 13 41  1  0
 14 42  1  0
 15 43  1  0
 16 44  1  0
 17 45  1  0
 18 46  1  0
 19 47  1  0
 22 48  1  0
 22 49  1  0
 24 50  1  0
 25 51  1  0
 26 52  1  0
 27 53  1  0
M  CHG  1   8  -1
M  END
>  <UniqueID>  (89) 
87

>  <SMILES>  (89) 
CC1(C)Oc2cc([N-]C(=O)Cc3ccccc3)ccc2N(Cc2ccccc2Cl)C1=O

>  <Energy>  (89) 
64.82999557308395

>  <Genealogy>  (89) 
CC1(C)Oc2cc([N-]C(=O)Cc3ccccc3)ccc2N(Cc2ccccc2Cl)C1=O (protonated)
CC1(C)Oc2cc([N-]C(=O)Cc3ccccc3)ccc2N(Cc2ccccc2Cl)C1=O (3D coordinates assigned)
CC1(C)Oc2cc([N-]C(=O)Cc3ccccc3)ccc2N(Cc2ccccc2Cl)C1=O (nonaromatic ring conformer: 64.82999557308395 kcal/mol)

>  <smiles>  (89) 
CC1(C)Oc2cc(NC(=O)Cc3ccccc3)ccc2N(Cc2ccccc2Cl)C1=O

>  <score_type>  (89) 
oracle

>  <origin>  (89) 
adg

>  <m_score__min__energy>  (89) 
-10.94

>  <m_primary>  (89) 
energy

$$$$
89:0
     RDKit          3D

 37 39  0  0  0  0  0  0  0  0999 V2000
   57.7400   31.0180   43.0050 N   0  0  0  0  0  0  0  0  0  0  0  0
   57.2830   31.1560   44.6670 S   0  0  0  0  0  0  0  0  0  0  0  0
   56.3420   30.0300   44.9950 O   0  0  0  0  0  0  0  0  0  0  0  0
   56.5880   32.4710   44.8780 O   0  0  0  0  0  0  0  0  0  0  0  0
   58.7190   31.0730   45.7040 C   0  0  0  0  0  0  0  0  0  0  0  0
   59.3170   32.2720   46.1210 C   0  0  0  0  0  0  0  0  0  0  0  0
   60.4780   32.2560   46.8970 C   0  0  0  0  0  0  0  0  0  0  0  0
   61.0560   31.0420   47.2660 C   0  0  0  0  0  0  0  0  0  0  0  0
   60.4680   29.8400   46.8700 C   0  0  0  0  0  0  0  0  0  0  0  0
   59.2930   29.8380   46.1010 C   0  0  0  0  0  0  0  0  0  0  0  0
   58.6920   28.5390   45.7400 C   0  0  0  0  0  0  0  0  0  0  0  0
   58.3080   27.6310   46.7390 C   0  0  0  0  0  0  0  0  0  0  0  0
   57.7460   26.4000   46.3920 C   0  0  0  0  0  0  0  0  0  0  0  0
   57.5810   26.0500   45.0430 C   0  0  0  0  0  0  0  0  0  0  0  0
   56.9730   24.7960   44.6930 N   0  0  0  0  0  0  0  0  0  0  0  0
   57.5980   23.8010   44.0330 C   0  0  0  0  0  0  0  0  0  0  0  0
   56.7630   22.7090   43.9210 C   0  0  0  0  0  0  0  0  0  0  0  0
   55.5750   23.0540   44.5350 C   0  0  0  0  0  0  0  0  0  0  0  0
   55.7300   24.3480   44.9960 C   0  0  0  0  0  0  0  0  0  0  0  0
   54.6520   25.1310   45.6330 C   0  0  0  0  0  0  0  0  0  0  0  0
   54.8230   26.3390   45.9400 O   0  0  0  0  0  0  0  0  0  0  0  0
   53.4140   24.5420   45.8630 O   0  0  0  0  0  0  0  0  0  0  0  0
   57.9620   26.9600   44.0450 C   0  0  0  0  0  0  0  0  0  0  0  0
   58.5250   28.1920   44.3910 C   0  0  0  0  0  0  0  0  0  0  0  0
   58.7410   31.3090   42.9370 H   0  0  0  0  0  0  0  0  0  0  0  0
   57.7050   30.0030   42.7620 H   0  0  0  0  0  0  0  0  0  0  0  0
   58.8670   33.2338   45.8339 H   0  0  0  0  0  0  0  0  0  0  0  0
   60.9372   33.2027   47.2176 H   0  0  0  0  0  0  0  0  0  0  0  0
   61.9757   31.0317   47.8694 H   0  0  0  0  0  0  0  0  0  0  0  0
   60.9292   28.8853   47.1629 H   0  0  0  0  0  0  0  0  0  0  0  0
   58.4500   27.8895   47.7987 H   0  0  0  0  0  0  0  0  0  0  0  0
   57.4310   25.7010   47.1807 H   0  0  0  0  0  0  0  0  0  0  0  0
   58.6244   23.8523   43.6408 H   0  0  0  0  0  0  0  0  0  0  0  0
   56.9977   21.7496   43.4367 H   0  0  0  0  0  0  0  0  0  0  0  0
   54.6802   22.4224   44.6372 H   0  0  0  0  0  0  0  0  0  0  0  0
   57.8170   26.7027   42.9854 H   0  0  0  0  0  0  0  0  0  0  0  0
   58.8383   28.8920   43.6024 H   0  0  0  0  0  0  0  0  0  0  0  0
  1  2  1  0
  2  3  2  0
  2  4  2  0
  2  5  1  0
  5  6  2  0
  6  7  1  0
  7  8  2  0
  8  9  1  0
  9 10  2  0
 10 11  1  0
 11 12  2  0
 12 13  1  0
 13 14  2  0
 14 15  1  0
 15 16  1  0
 16 17  2  0
 17 18  1  0
 18 19  2  0
 19 20  1  0
 20 21  2  0
 20 22  1  0
 14 23  1  0
 23 24  2  0
 10  5  1  0
 24 11  1  0
 19 15  1  0
  1 25  1  0
  1 26  1  0
  6 27  1  0
  7 28  1  0
  8 29  1  0
  9 30  1  0
 12 31  1  0
 13 32  1  0
 16 33  1  0
 17 34  1  0
 18 35  1  0
 23 36  1  0
 24 37  1  0
M  CHG  1  22  -1
M  END
>  <UniqueID>  (90) 
88

>  <SMILES>  (90) 
NS(=O)(=O)c1ccccc1-c1ccc(-n2cccc2C(=O)[O-])cc1

>  <Energy>  (90) 
79.68417366784288

>  <Genealogy>  (90) 
NS(=O)(=O)c1ccccc1-c1ccc(-n2cccc2C(=O)[O-])cc1 (protonated)
NS(=O)(=O)c1ccccc1-c1ccc(-n2cccc2C(=O)[O-])cc1 (3D coordinates assigned)
NS(=O)(=O)c1ccccc1-c1ccc(-n2cccc2C(=O)[O-])cc1 (optimized conformer: 79.68417366784288 kcal/mol)

>  <smiles>  (90) 
NS(=O)(=O)c1ccccc1-c1ccc(-n2cccc2C(=O)O)cc1

>  <score_type>  (90) 
oracle

>  <origin>  (90) 
adg

>  <m_score__min__energy>  (90) 
-11.279999999999999

>  <m_primary>  (90) 
energy

$$$$
90:0
     RDKit          3D

 42 45  0  0  0  0  0  0  0  0999 V2000
   57.9289   33.3560   42.8883 H   0  0  0  0  0  0  0  0  0  0  0  0
   57.6790   32.4260   43.4200 C   0  0  0  0  0  0  0  0  0  0  0  0
   56.9900   31.0540   42.7350 S   0  0  0  0  0  0  0  0  0  0  0  0
   56.9630   30.2110   44.1910 C   0  0  0  0  0  0  0  0  0  0  0  0
   56.5640   28.9860   44.3650 N   0  0  0  0  0  0  0  0  0  0  0  0
   57.4040   27.8300   44.4660 C   0  0  0  0  0  0  0  0  0  0  0  0
   58.0280   27.4450   43.4420 O   0  0  0  0  0  0  0  0  0  0  0  0
   57.7220   27.2090   45.8010 C   0  0  0  0  0  0  0  0  0  0  0  0
   58.8117   27.0903   45.8925 H   0  0  0  0  0  0  0  0  0  0  0  0
   57.3390   27.8673   46.5947 H   0  0  0  0  0  0  0  0  0  0  0  0
   57.0840   25.8970   45.9330 N   0  0  0  0  0  0  0  0  0  0  0  0
   55.7600   25.6510   46.0460 C   0  0  0  0  0  0  0  0  0  0  0  0
   54.7740   26.6310   45.9940 O   0  0  0  0  0  0  0  0  0  0  0  0
   55.5350   24.3010   46.2230 C   0  0  0  0  0  0  0  0  0  0  0  0
   56.7690   23.6920   46.1880 C   0  0  0  0  0  0  0  0  0  0  0  0
   57.7000   24.6990   46.0380 C   0  0  0  0  0  0  0  0  0  0  0  0
   59.0770   24.5200   46.0010 O   0  0  0  0  0  0  0  0  0  0  0  0
   56.9870   22.2270   46.4180 C   0  0  0  0  0  0  0  0  0  0  0  0
   57.7505   21.8590   45.7169 H   0  0  0  0  0  0  0  0  0  0  0  0
   57.3224   22.0728   47.4542 H   0  0  0  0  0  0  0  0  0  0  0  0
   55.6730   21.4500   46.1940 C   0  0  0  0  0  0  0  0  0  0  0  0
   55.4767   21.3866   45.1135 H   0  0  0  0  0  0  0  0  0  0  0  0
   55.7888   20.4487   46.6345 H   0  0  0  0  0  0  0  0  0  0  0  0
   54.4740   22.1400   46.8800 C   0  0  0  0  0  0  0  0  0  0  0  0
   53.5706   21.5359   46.7097 H   0  0  0  0  0  0  0  0  0  0  0  0
   54.6972   22.2244   47.9538 H   0  0  0  0  0  0  0  0  0  0  0  0
   54.2360   23.5610   46.3270 C   0  0  0  0  0  0  0  0  0  0  0  0
   53.7773   23.4905   45.3297 H   0  0  0  0  0  0  0  0  0  0  0  0
   53.5674   24.1046   47.0108 H   0  0  0  0  0  0  0  0  0  0  0  0
   57.4860   30.9420   45.1960 N   0  0  0  0  0  0  0  0  0  0  0  0
   57.8800   32.1810   44.7840 C   0  0  0  0  0  0  0  0  0  0  0  0
   58.4860   33.1540   45.7310 C   0  0  0  0  0  0  0  0  0  0  0  0
   58.5050   32.9190   47.1200 C   0  0  0  0  0  0  0  0  0  0  0  0
   58.0605   31.9974   47.5237 H   0  0  0  0  0  0  0  0  0  0  0  0
   59.0850   33.8490   47.9900 C   0  0  0  0  0  0  0  0  0  0  0  0
   59.0915   33.6568   49.0731 H   0  0  0  0  0  0  0  0  0  0  0  0
   59.6550   35.0190   47.4880 C   0  0  0  0  0  0  0  0  0  0  0  0
   60.1088   35.7488   48.1746 H   0  0  0  0  0  0  0  0  0  0  0  0
   59.6490   35.2630   46.1130 C   0  0  0  0  0  0  0  0  0  0  0  0
   60.0994   36.1852   45.7172 H   0  0  0  0  0  0  0  0  0  0  0  0
   59.0720   34.3380   45.2390 C   0  0  0  0  0  0  0  0  0  0  0  0
   59.0750   34.5355   44.1569 H   0  0  0  0  0  0  0  0  0  0  0  0
  1  2  1  0
  2  3  1  0
  3  4  1  0
  4  5  2  0
  5  6  1  0
  6  7  2  0
  6  8  1  0
  8  9  1  0
  8 10  1  0
  8 11  1  0
 11 12  1  0
 12 13  1  0
 12 14  2  0
 14 15  1  0
 15 16  2  0
 16 17  1  0
 15 18  1  0
 18 19  1  0
 18 20  1  0
 18 21  1  0
 21 22  1  0
 21 23  1  0
 21 24  1  0
 24 25  1  0
 24 26  1  0
 24 27  1  0
 27 28  1  0
 27 29  1  0
  4 30  1  0
 30 31  1  0
 31 32  1  0
 32 33  2  0
 33 34  1  0
 33 35  1  0
 35 36  1  0
 35 37  2  0
 37 38  1  0
 37 39  1  0
 39 40  1  0
 39 41  2  0
 41 42  1  0
 31  2  2  0
 41 32  1  0
 16 11  1  0
 27 14  1  0
M  CHG  3  13  -1  17  -1  30  -1
M  END
>  <UniqueID>  (91) 
89

>  <SMILES>  (91) 
O=C(Cn1c([O-])c2c(c1[O-])CCCC2)/N=c1/[n-]c(-c2ccccc2)cs1

>  <Energy>  (91) 
113.59540302759358

>  <Genealogy>  (91) 
O=C(Cn1c([O-])c2c(c1[O-])CCCC2)N=c1[n-]c(-c2ccccc2)cs1 (protonated)
O=C(Cn1c([O-])c2c(c1[O-])CCCC2)/N=c1/[n-]c(-c2ccccc2)cs1 (cis-trans isomerization)
O=C(Cn1c([O-])c2c(c1[O-])CCCC2)/N=c1/[n-]c(-c2ccccc2)cs1 (3D coordinates assigned)
O=C(Cn1c([O-])c2c(c1[O-])CCCC2)/N=c1/[n-]c(-c2ccccc2)cs1 (nonaromatic ring conformer: 113.59540302759358 kcal/mol)

>  <smiles>  (91) 
O=C(Cn1c(O)c2c(c1O)CCCC2)N=c1[nH]c(-c2ccccc2)cs1

>  <score_type>  (91) 
oracle

>  <origin>  (91) 
adg

>  <m_score__min__energy>  (91) 
-15.06

>  <m_primary>  (91) 
energy

$$$$
91:0
     RDKit          3D

 57 60  0  0  0  0  0  0  0  0999 V2000
   59.9440   33.4570   51.7880 C   0  0  0  0  0  0  0  0  0  0  0  0
   60.4160   33.1110   50.4870 O   0  0  0  0  0  0  0  0  0  0  0  0
   59.7270   33.3630   49.2900 C   0  0  0  0  0  0  0  0  0  0  0  0
   59.7360   34.6360   48.6880 C   0  0  0  0  0  0  0  0  0  0  0  0
   59.0600   34.8590   47.4860 C   0  0  0  0  0  0  0  0  0  0  0  0
   58.3910   33.8110   46.8520 C   0  0  0  0  0  0  0  0  0  0  0  0
   57.7080   34.0500   45.6160 N   0  0  0  0  0  0  0  0  0  0  0  0
   57.7910   33.1920   44.4740 C   0  0  0  0  0  0  0  0  0  0  0  0
   58.6230   33.4590   43.5670 O   0  0  0  0  0  0  0  0  0  0  0  0
   56.9970   31.9160   44.3950 C   0  0  0  0  0  0  0  0  0  0  0  0
   57.7840   30.8520   43.6240 C   0  0  0  0  0  0  0  0  0  0  0  0
   57.9720   29.6580   44.4430 N   0  0  0  0  0  0  0  0  0  0  0  0
   56.9570   28.8370   45.0220 C   0  0  0  0  0  0  0  0  0  0  0  0
   55.7180   29.0130   44.8580 O   0  0  0  0  0  0  0  0  0  0  0  0
   57.5700   27.8040   45.8510 C   0  0  0  0  0  0  0  0  0  0  0  0
   56.9960   26.7800   46.6000 C   0  0  0  0  0  0  0  0  0  0  0  0
   57.8560   25.9220   47.3110 C   0  0  0  0  0  0  0  0  0  0  0  0
   59.2560   26.1100   47.2640 C   0  0  0  0  0  0  0  0  0  0  0  0
   59.8110   27.1570   46.5050 C   0  0  0  0  0  0  0  0  0  0  0  0
   58.9380   27.9880   45.8040 C   0  0  0  0  0  0  0  0  0  0  0  0
   59.2020   29.1450   44.9570 C   0  0  0  0  0  0  0  0  0  0  0  0
   60.3300   29.6600   44.7440 O   0  0  0  0  0  0  0  0  0  0  0  0
   58.3560   32.5470   47.4550 C   0  0  0  0  0  0  0  0  0  0  0  0
   59.0080   32.3170   48.6730 C   0  0  0  0  0  0  0  0  0  0  0  0
   58.9010   30.6990   49.3810 S   0  0  0  0  0  0  0  0  0  0  0  0
   58.4750   29.7360   48.3070 O   0  0  0  0  0  0  0  0  0  0  0  0
   57.8800   30.6490   50.4840 O   0  0  0  0  0  0  0  0  0  0  0  0
   60.4470   30.2000   49.9970 N   0  0  0  0  0  0  0  0  0  0  0  0
   61.3720   29.9640   48.8850 C   0  0  0  0  0  0  0  0  0  0  0  0
   62.1780   31.2040   48.6190 C   0  0  0  0  0  0  0  0  0  0  0  0
   62.0980   31.8510   47.3750 C   0  0  0  0  0  0  0  0  0  0  0  0
   62.8590   32.9970   47.1280 C   0  0  0  0  0  0  0  0  0  0  0  0
   63.6960   33.5090   48.1210 C   0  0  0  0  0  0  0  0  0  0  0  0
   63.7500   32.8970   49.3780 C   0  0  0  0  0  0  0  0  0  0  0  0
   62.9870   31.7560   49.6330 C   0  0  0  0  0  0  0  0  0  0  0  0
   60.5855   32.9868   52.5478 H   0  0  0  0  0  0  0  0  0  0  0  0
   59.9723   34.5499   51.9097 H   0  0  0  0  0  0  0  0  0  0  0  0
   58.9103   33.1012   51.9097 H   0  0  0  0  0  0  0  0  0  0  0  0
   60.2803   35.4623   49.1686 H   0  0  0  0  0  0  0  0  0  0  0  0
   59.0550   35.8636   47.0379 H   0  0  0  0  0  0  0  0  0  0  0  0
   56.7928   31.5512   45.4125 H   0  0  0  0  0  0  0  0  0  0  0  0
   56.0504   32.1134   43.8706 H   0  0  0  0  0  0  0  0  0  0  0  0
   57.2299   30.5819   42.7129 H   0  0  0  0  0  0  0  0  0  0  0  0
   58.7708   31.2613   43.3619 H   0  0  0  0  0  0  0  0  0  0  0  0
   55.9048   26.6458   46.6349 H   0  0  0  0  0  0  0  0  0  0  0  0
   57.4354   25.0991   47.9076 H   0  0  0  0  0  0  0  0  0  0  0  0
   59.9168   25.4328   47.8250 H   0  0  0  0  0  0  0  0  0  0  0  0
   60.8989   27.3148   46.4660 H   0  0  0  0  0  0  0  0  0  0  0  0
   57.8105   31.7262   46.9665 H   0  0  0  0  0  0  0  0  0  0  0  0
   60.8110   31.0020   50.5660 H   0  0  0  0  0  0  0  0  0  0  0  0
   62.0496   29.1369   49.1433 H   0  0  0  0  0  0  0  0  0  0  0  0
   60.7968   29.7054   47.9838 H   0  0  0  0  0  0  0  0  0  0  0  0
   61.4343   31.4545   46.5925 H   0  0  0  0  0  0  0  0  0  0  0  0
   62.7983   33.4962   46.1497 H   0  0  0  0  0  0  0  0  0  0  0  0
   64.3142   34.3952   47.9148 H   0  0  0  0  0  0  0  0  0  0  0  0
   64.3940   33.3151   50.1657 H   0  0  0  0  0  0  0  0  0  0  0  0
   63.0171   31.2866   50.6274 H   0  0  0  0  0  0  0  0  0  0  0  0
  1  2  1  0
  2  3  1  0
  3  4  2  0
  4  5  1  0
  5  6  2  0
  6  7  1  0
  7  8  1  0
  8  9  2  0
  8 10  1  0
 10 11  1  0
 11 12  1  0
 12 13  1  0
 13 14  2  0
 13 15  1  0
 15 16  2  0
 16 17  1  0
 17 18  2  0
 18 19  1  0
 19 20  2  0
 20 21  1  0
 21 22  2  0
  6 23  1  0
 23 24  2  0
 24 25  1  0
 25 26  2  0
 25 27  2  0
 25 28  1  0
 28 29  1  0
 29 30  1  0
 30 31  2  0
 31 32  1  0
 32 33  2  0
 33 34  1  0
 34 35  2  0
 24  3  1  0
 35 30  1  0
 21 12  1  0
 20 15  1  0
  1 36  1  0
  1 37  1  0
  1 38  1  0
  4 39  1  0
  5 40  1  0
 10 41  1  0
 10 42  1  0
 11 43  1  0
 11 44  1  0
 16 45  1  0
 17 46  1  0
 18 47  1  0
 19 48  1  0
 23 49  1  0
 28 50  1  0
 29 51  1  0
 29 52  1  0
 31 53  1  0
 32 54  1  0
 33 55  1  0
 34 56  1  0
 35 57  1  0
M  CHG  1   7  -1
M  END
>  <UniqueID>  (92) 
90

>  <SMILES>  (92) 
COc1ccc([N-]C(=O)CCN2C(=O)c3ccccc3C2=O)cc1S(=O)(=O)NCc1ccccc1

>  <Energy>  (92) 
87.76793105589604

>  <Genealogy>  (92) 
COc1ccc([N-]C(=O)CCN2C(=O)c3ccccc3C2=O)cc1S(=O)(=O)NCc1ccccc1 (protonated)
COc1ccc([N-]C(=O)CCN2C(=O)c3ccccc3C2=O)cc1S(=O)(=O)NCc1ccccc1 (3D coordinates assigned)
COc1ccc([N-]C(=O)CCN2C(=O)c3ccccc3C2=O)cc1S(=O)(=O)NCc1ccccc1 (nonaromatic ring conformer: 87.76793105589604 kcal/mol)

>  <smiles>  (92) 
COc1ccc(NC(=O)CCN2C(=O)c3ccccc3C2=O)cc1S(=O)(=O)NCc1ccccc1

>  <score_type>  (92) 
oracle

>  <origin>  (92) 
adg

>  <m_score__min__energy>  (92) 
-10.67

>  <m_primary>  (92) 
energy

$$$$
92:0
     RDKit          3D

 32 34  0  0  0  0  0  0  0  0999 V2000
   57.4050   32.3440   41.0460 C   0  0  0  0  0  0  0  0  0  0  0  0
   57.3890   31.7840   42.4380 C   0  0  0  0  0  0  0  0  0  0  0  0
   56.7090   30.5890   42.7100 C   0  0  0  0  0  0  0  0  0  0  0  0
   56.7200   30.0520   43.9990 C   0  0  0  0  0  0  0  0  0  0  0  0
   57.4190   30.6970   45.0230 C   0  0  0  0  0  0  0  0  0  0  0  0
   58.1260   31.8830   44.7650 C   0  0  0  0  0  0  0  0  0  0  0  0
   58.8690   32.5570   45.8590 C   0  0  0  0  0  0  0  0  0  0  0  0
   58.3970   33.6890   46.4090 C   0  0  0  0  0  0  0  0  0  0  0  0
   59.0950   34.4190   47.5290 C   0  0  0  0  0  0  0  0  0  0  0  0
   60.4280   33.8320   47.9180 C   0  0  0  0  0  0  0  0  0  0  0  0
   61.2000   34.4630   48.9070 C   0  0  0  0  0  0  0  0  0  0  0  0
   62.4300   33.9210   49.2920 C   0  0  0  0  0  0  0  0  0  0  0  0
   62.8950   32.7470   48.6950 C   0  0  0  0  0  0  0  0  0  0  0  0
   62.1320   32.1120   47.7130 C   0  0  0  0  0  0  0  0  0  0  0  0
   60.8980   32.6510   47.3210 C   0  0  0  0  0  0  0  0  0  0  0  0
   60.1150   32.0030   46.3110 N   0  0  0  0  0  0  0  0  0  0  0  0
   58.1080   32.4200   43.4630 C   0  0  0  0  0  0  0  0  0  0  0  0
   57.4364   33.4425   41.0931 H   0  0  0  0  0  0  0  0  0  0  0  0
   58.2929   31.9743   40.5122 H   0  0  0  0  0  0  0  0  0  0  0  0
   56.4974   32.0256   40.5122 H   0  0  0  0  0  0  0  0  0  0  0  0
   56.1649   30.0725   41.9055 H   0  0  0  0  0  0  0  0  0  0  0  0
   56.1770   29.1187   44.2090 H   0  0  0  0  0  0  0  0  0  0  0  0
   57.4155   30.2730   46.0380 H   0  0  0  0  0  0  0  0  0  0  0  0
   57.4542   34.1038   46.0228 H   0  0  0  0  0  0  0  0  0  0  0  0
   59.2563   35.4603   47.2133 H   0  0  0  0  0  0  0  0  0  0  0  0
   58.4447   34.3352   48.4123 H   0  0  0  0  0  0  0  0  0  0  0  0
   60.8358   35.3867   49.3803 H   0  0  0  0  0  0  0  0  0  0  0  0
   63.0321   34.4197   50.0658 H   0  0  0  0  0  0  0  0  0  0  0  0
   63.8632   32.3223   48.9987 H   0  0  0  0  0  0  0  0  0  0  0  0
   62.4997   31.1866   47.2456 H   0  0  0  0  0  0  0  0  0  0  0  0
   60.4500   31.0960   45.9130 H   0  0  0  0  0  0  0  0  0  0  0  0
   58.6619   33.3455   43.2472 H   0  0  0  0  0  0  0  0  0  0  0  0
  1  2  1  0
  2  3  2  0
  3  4  1  0
  4  5  2  0
  5  6  1  0
  6  7  1  0
  7  8  2  0
  8  9  1  0
  9 10  1  0
 10 11  2  0
 11 12  1  0
 12 13  2  0
 13 14  1  0
 14 15  2  0
 15 16  1  0
  6 17  2  0
 17  2  1  0
 16  7  1  0
 15 10  1  0
  1 18  1  0
  1 19  1  0
  1 20  1  0
  3 21  1  0
  4 22  1  0
  5 23  1  0
  8 24  1  0
  9 25  1  0
  9 26  1  0
 11 27  1  0
 12 28  1  0
 13 29  1  0
 14 30  1  0
 16 31  1  0
 17 32  1  0
M  END
>  <UniqueID>  (93) 
91

>  <SMILES>  (93) 
Cc1cccc(C2=CCc3ccccc3N2)c1

>  <Energy>  (93) 
39.42824033874356

>  <Genealogy>  (93) 
Cc1cccc(C2=CCc3ccccc3N2)c1 (3D coordinates assigned)
Cc1cccc(C2=CCc3ccccc3N2)c1 (nonaromatic ring conformer: 39.42824033874356 kcal/mol)

>  <smiles>  (93) 
Cc1cccc(C2=CCc3ccccc3N2)c1

>  <score_type>  (93) 
oracle

>  <origin>  (93) 
adg

>  <m_score__min__energy>  (93) 
-7.04

>  <m_primary>  (93) 
energy

$$$$
