0:0
     RDKit          3D

 36 38  0  0  0  0  0  0  0  0999 V2000
   61.3181   27.4782   46.1980 H   0  0  0  0  0  0  0  0  0  0  0  0
   60.3530   27.9300   45.9250 C   0  0  0  0  0  0  0  0  0  0  0  0
   59.1980   27.5910   46.6320 C   0  0  0  0  0  0  0  0  0  0  0  0
   59.2542   26.8712   47.4619 H   0  0  0  0  0  0  0  0  0  0  0  0
   57.9700   28.1640   46.2880 C   0  0  0  0  0  0  0  0  0  0  0  0
   57.0640   27.8924   46.8496 H   0  0  0  0  0  0  0  0  0  0  0  0
   57.8850   29.0860   45.2280 C   0  0  0  0  0  0  0  0  0  0  0  0
   56.5850   29.6970   44.8590 C   0  0  0  0  0  0  0  0  0  0  0  0
   55.5430   28.9870   44.8560 O   0  0  0  0  0  0  0  0  0  0  0  0
   56.5270   31.0910   44.5080 N   0  0  0  0  0  0  0  0  0  0  0  0
   57.3350   32.0510   44.8590 C   0  0  0  0  0  0  0  0  0  0  0  0
   57.7960   33.1100   44.0840 C   0  0  0  0  0  0  0  0  0  0  0  0
   57.5665   33.3267   43.0303 H   0  0  0  0  0  0  0  0  0  0  0  0
   58.6090   33.8280   44.9420 C   0  0  0  0  0  0  0  0  0  0  0  0
   59.1564   34.7470   44.6856 H   0  0  0  0  0  0  0  0  0  0  0  0
   58.6210   33.2170   46.1450 N   0  0  0  0  0  0  0  0  0  0  0  0
   59.3290   33.6720   47.3390 C   0  0  0  0  0  0  0  0  0  0  0  0
   59.3335   34.7717   47.3629 H   0  0  0  0  0  0  0  0  0  0  0  0
   58.8190   33.2815   48.2320 H   0  0  0  0  0  0  0  0  0  0  0  0
   60.7500   33.1670   47.3200 C   0  0  0  0  0  0  0  0  0  0  0  0
   61.7650   33.9920   46.8060 C   0  0  0  0  0  0  0  0  0  0  0  0
   61.5177   35.0030   46.4501 H   0  0  0  0  0  0  0  0  0  0  0  0
   63.0840   33.5400   46.7430 C   0  0  0  0  0  0  0  0  0  0  0  0
   63.8712   34.1976   46.3456 H   0  0  0  0  0  0  0  0  0  0  0  0
   63.4060   32.2560   47.1830 C   0  0  0  0  0  0  0  0  0  0  0  0
   64.4468   31.9033   47.1354 H   0  0  0  0  0  0  0  0  0  0  0  0
   62.4070   31.4180   47.6840 C   0  0  0  0  0  0  0  0  0  0  0  0
   62.6636   30.4048   48.0268 H   0  0  0  0  0  0  0  0  0  0  0  0
   61.0790   31.8620   47.7520 C   0  0  0  0  0  0  0  0  0  0  0  0
   59.8650   30.7540   48.3820 Cl  0  0  0  0  0  0  0  0  0  0  0  0
   57.8490   32.1440   46.0970 N   0  0  0  0  0  0  0  0  0  0  0  0
   57.6750   31.4940   46.8970 H   0  0  0  0  0  0  0  0  0  0  0  0
   59.0570   29.4200   44.5210 C   0  0  0  0  0  0  0  0  0  0  0  0
   59.0078   30.1383   43.6894 H   0  0  0  0  0  0  0  0  0  0  0  0
   60.2820   28.8440   44.8700 C   0  0  0  0  0  0  0  0  0  0  0  0
   61.1922   29.1107   44.3130 H   0  0  0  0  0  0  0  0  0  0  0  0
  1  2  1  0
  2  3  2  0
  3  4  1  0
  3  5  1  0
  5  6  1  0
  5  7  2  0
  7  8  1  0
  8  9  2  0
  8 10  1  0
 10 11  2  0
 11 12  1  0
 12 13  1  0
 12 14  2  0
 14 15  1  0
 14 16  1  0
 16 17  1  0
 17 18  1  0
 17 19  1  0
 17 20  1  0
 20 21  2  0
 21 22  1  0
 21 23  1  0
 23 24  1  0
 23 25  2  0
 25 26  1  0
 25 27  1  0
 27 28  1  0
 27 29  2  0
 29 30  1  0
 16 31  1  0
 31 32  1  0
  7 33  1  0
 33 34  1  0
 33 35  2  0
 35 36  1  0
 35  2  1  0
 31 11  1  0
 29 20  1  0
M  END
>  <UniqueID>  (1) 
1

>  <SMILES>  (1) 
O=C(/N=c1\ccn(Cc2ccccc2Cl)[nH]1)c1ccccc1

>  <Energy>  (1) 
74.53257658178873

>  <Genealogy>  (1) 
O=C(/N=c1\ccn(Cc2ccccc2Cl)[nH]1)c1ccccc1 (cis-trans isomerization)
O=C(/N=c1\ccn(Cc2ccccc2Cl)[nH]1)c1ccccc1 (3D coordinates assigned)
O=C(/N=c1\ccn(Cc2ccccc2Cl)[nH]1)c1ccccc1 (optimized conformer: 74.53257658178873 kcal/mol)

>  <smiles>  (1) 
O=C(N=c1ccn(Cc2ccccc2Cl)[nH]1)c1ccccc1

>  <score_type>  (1) 
oracle

>  <origin>  (1) 
adg

>  <m_score__min__energy>  (1) 
-8.0099999999999998

>  <m_primary>  (1) 
energy

$$$$
1:0
     RDKit          3D

 51 53  0  0  0  0  0  0  0  0999 V2000
   56.0840   24.2180   44.6160 C   0  0  0  0  0  0  0  0  0  0  0  0
   55.9930   25.5470   45.7970 S   0  0  0  0  0  0  0  0  0  0  0  0
   56.4520   25.0240   47.1300 O   0  0  0  0  0  0  0  0  0  0  0  0
   54.5790   26.0400   45.9350 O   0  0  0  0  0  0  0  0  0  0  0  0
   57.0340   26.8540   45.3260 N   0  0  0  0  0  0  0  0  0  0  0  0
   58.0060   27.4790   46.1820 C   0  0  0  0  0  0  0  0  0  0  0  0
   58.5880   26.8070   47.2710 C   0  0  0  0  0  0  0  0  0  0  0  0
   59.5040   27.4630   48.0990 C   0  0  0  0  0  0  0  0  0  0  0  0
   59.8750   28.7810   47.8340 C   0  0  0  0  0  0  0  0  0  0  0  0
   59.3450   29.4510   46.7210 C   0  0  0  0  0  0  0  0  0  0  0  0
   59.7610   30.8660   46.4100 C   0  0  0  0  0  0  0  0  0  0  0  0
   59.0170   31.8300   47.2500 N   0  0  0  0  0  0  0  0  0  0  0  0
   59.9340   32.5200   48.1820 C   0  0  0  0  0  0  0  0  0  0  0  0
   59.3060   32.6670   49.5440 C   0  0  0  0  0  0  0  0  0  0  0  0
   59.6620   33.7360   50.3830 C   0  0  0  0  0  0  0  0  0  0  0  0
   59.0730   33.8660   51.6440 C   0  0  0  0  0  0  0  0  0  0  0  0
   58.1300   32.9320   52.0780 C   0  0  0  0  0  0  0  0  0  0  0  0
   57.7800   31.8590   51.2540 C   0  0  0  0  0  0  0  0  0  0  0  0
   58.3690   31.7210   49.9940 C   0  0  0  0  0  0  0  0  0  0  0  0
   58.1890   33.0040   46.2450 S   0  0  0  0  0  0  0  0  0  0  0  0
   56.9420   33.4800   46.9310 O   0  0  0  0  0  0  0  0  0  0  0  0
   59.0830   34.1890   46.0050 O   0  0  0  0  0  0  0  0  0  0  0  0
   57.7160   32.2940   44.7010 C   0  0  0  0  0  0  0  0  0  0  0  0
   58.1710   32.8370   43.4890 C   0  0  0  0  0  0  0  0  0  0  0  0
   57.8130   32.2420   42.2740 C   0  0  0  0  0  0  0  0  0  0  0  0
   56.9970   31.1060   42.2630 C   0  0  0  0  0  0  0  0  0  0  0  0
   56.5310   30.5680   43.4660 C   0  0  0  0  0  0  0  0  0  0  0  0
   56.8870   31.1610   44.6830 C   0  0  0  0  0  0  0  0  0  0  0  0
   58.3930   28.8030   45.9180 C   0  0  0  0  0  0  0  0  0  0  0  0
   56.1497   23.2579   45.1488 H   0  0  0  0  0  0  0  0  0  0  0  0
   55.1832   24.2261   43.9847 H   0  0  0  0  0  0  0  0  0  0  0  0
   56.9753   24.3488   43.9847 H   0  0  0  0  0  0  0  0  0  0  0  0
   56.9040   27.2270   44.3580 H   0  0  0  0  0  0  0  0  0  0  0  0
   58.3212   25.7591   47.4729 H   0  0  0  0  0  0  0  0  0  0  0  0
   59.9342   26.9368   48.9639 H   0  0  0  0  0  0  0  0  0  0  0  0
   60.5842   29.2961   48.4986 H   0  0  0  0  0  0  0  0  0  0  0  0
   60.8383   30.9758   46.6034 H   0  0  0  0  0  0  0  0  0  0  0  0
   59.5380   31.0744   45.3532 H   0  0  0  0  0  0  0  0  0  0  0  0
   60.8611   31.9352   48.2741 H   0  0  0  0  0  0  0  0  0  0  0  0
   60.1501   33.5227   47.7846 H   0  0  0  0  0  0  0  0  0  0  0  0
   60.4063   34.4728   50.0467 H   0  0  0  0  0  0  0  0  0  0  0  0
   59.3531   34.7063   52.2962 H   0  0  0  0  0  0  0  0  0  0  0  0
   57.6629   33.0408   53.0680 H   0  0  0  0  0  0  0  0  0  0  0  0
   57.0396   31.1216   51.5976 H   0  0  0  0  0  0  0  0  0  0  0  0
   58.0984   30.8694   49.3526 H   0  0  0  0  0  0  0  0  0  0  0  0
   58.8103   33.7321   43.4944 H   0  0  0  0  0  0  0  0  0  0  0  0
   58.1738   32.6683   41.3263 H   0  0  0  0  0  0  0  0  0  0  0  0
   56.7219   30.6359   41.3073 H   0  0  0  0  0  0  0  0  0  0  0  0
   55.8843   29.6783   43.4564 H   0  0  0  0  0  0  0  0  0  0  0  0
   56.5161   30.7380   45.6282 H   0  0  0  0  0  0  0  0  0  0  0  0
   57.9437   29.3401   45.0697 H   0  0  0  0  0  0  0  0  0  0  0  0
  1  2  1  0
  2  3  2  0
  2  4  2  0
  2  5  1  0
  5  6  1  0
  6  7  2  0
  7  8  1  0
  8  9  2  0
  9 10  1  0
 10 11  1  0
 11 12  1  0
 12 13  1  0
 13 14  1  0
 14 15  2  0
 15 16  1  0
 16 17  2  0
 17 18  1  0
 18 19  2  0
 12 20  1  0
 20 21  2  0
 20 22  2  0
 20 23  1  0
 23 24  2  0
 24 25  1  0
 25 26  2  0
 26 27  1  0
 27 28  2  0
 10 29  2  0
 29  6  1  0
 19 14  1  0
 28 23  1  0
  1 30  1  0
  1 31  1  0
  1 32  1  0
  5 33  1  0
  7 34  1  0
  8 35  1  0
  9 36  1  0
 11 37  1  0
 11 38  1  0
 13 39  1  0
 13 40  1  0
 15 41  1  0
 16 42  1  0
 17 43  1  0
 18 44  1  0
 19 45  1  0
 24 46  1  0
 25 47  1  0
 26 48  1  0
 27 49  1  0
 28 50  1  0
 29 51  1  0
M  END
>  <UniqueID>  (2) 
2

>  <SMILES>  (2) 
CS(=O)(=O)Nc1cccc(CN(Cc2ccccc2)S(=O)(=O)c2ccccc2)c1

>  <Energy>  (2) 
48.872953162453214

>  <Genealogy>  (2) 
CS(=O)(=O)Nc1cccc(CN(Cc2ccccc2)S(=O)(=O)c2ccccc2)c1 (3D coordinates assigned)
CS(=O)(=O)Nc1cccc(CN(Cc2ccccc2)S(=O)(=O)c2ccccc2)c1 (optimized conformer: 48.872953162453214 kcal/mol)

>  <smiles>  (2) 
CS(=O)(=O)Nc1cccc(CN(Cc2ccccc2)S(=O)(=O)c2ccccc2)c1

>  <score_type>  (2) 
oracle

>  <origin>  (2) 
adg

>  <m_score__min__energy>  (2) 
-10.289999999999999

>  <m_primary>  (2) 
energy

$$$$
2:0
     RDKit          3D

 35 37  0  0  0  0  0  0  0  0999 V2000
   57.4496   30.6385   41.7868 H   0  0  0  0  0  0  0  0  0  0  0  0
   57.3730   31.2270   42.7130 C   0  0  0  0  0  0  0  0  0  0  0  0
   58.1150   32.7070   43.0080 S   0  0  0  0  0  0  0  0  0  0  0  0
   57.3400   28.7150   45.6970 C   0  0  0  0  0  0  0  0  0  0  0  0
   56.1580   28.8880   45.1730 N   0  0  0  0  0  0  0  0  0  0  0  0
   58.4260   33.7860   46.5910 C   0  0  0  0  0  0  0  0  0  0  0  0
   58.1480   32.8030   47.5500 C   0  0  0  0  0  0  0  0  0  0  0  0
   57.3264   32.0912   47.3815 H   0  0  0  0  0  0  0  0  0  0  0  0
   58.9100   32.7220   48.7210 C   0  0  0  0  0  0  0  0  0  0  0  0
   58.5410   31.5030   49.9280 Cl  0  0  0  0  0  0  0  0  0  0  0  0
   59.9680   33.6130   48.9290 C   0  0  0  0  0  0  0  0  0  0  0  0
   60.5607   33.5569   49.8539 H   0  0  0  0  0  0  0  0  0  0  0  0
   60.2720   34.5750   47.9610 C   0  0  0  0  0  0  0  0  0  0  0  0
   61.1109   35.2682   48.1216 H   0  0  0  0  0  0  0  0  0  0  0  0
   59.5130   34.6590   46.7890 C   0  0  0  0  0  0  0  0  0  0  0  0
   59.8630   35.5570   45.8350 F   0  0  0  0  0  0  0  0  0  0  0  0
   56.6960   31.7730   44.8710 N   0  0  0  0  0  0  0  0  0  0  0  0
   56.6440   30.8770   43.8480 C   0  0  0  0  0  0  0  0  0  0  0  0
   55.8400   29.6150   43.9440 C   0  0  0  0  0  0  0  0  0  0  0  0
   56.0673   28.9759   43.0780 H   0  0  0  0  0  0  0  0  0  0  0  0
   54.7719   29.8778   43.9564 H   0  0  0  0  0  0  0  0  0  0  0  0
   57.6470   33.8240   45.3870 N   0  0  0  0  0  0  0  0  0  0  0  0
   57.4790   32.8290   44.5670 C   0  0  0  0  0  0  0  0  0  0  0  0
   57.8470   27.4550   45.7510 N   0  0  0  0  0  0  0  0  0  0  0  0
   59.0730   27.2030   46.2800 C   0  0  0  0  0  0  0  0  0  0  0  0
   59.6000   25.8030   46.3140 C   0  0  0  0  0  0  0  0  0  0  0  0
   59.7208   25.4820   47.3592 H   0  0  0  0  0  0  0  0  0  0  0  0
   58.8927   25.1325   45.8039 H   0  0  0  0  0  0  0  0  0  0  0  0
   60.5739   25.7653   45.8039 H   0  0  0  0  0  0  0  0  0  0  0  0
   59.8390   28.2590   46.7760 C   0  0  0  0  0  0  0  0  0  0  0  0
   60.8369   28.0785   47.2022 H   0  0  0  0  0  0  0  0  0  0  0  0
   59.3110   29.5470   46.7190 C   0  0  0  0  0  0  0  0  0  0  0  0
   59.8934   30.3959   47.1064 H   0  0  0  0  0  0  0  0  0  0  0  0
   58.0780   29.7580   46.1860 N   0  0  0  0  0  0  0  0  0  0  0  0
   57.7220   30.7380   46.1710 H   0  0  0  0  0  0  0  0  0  0  0  0
  1  2  1  0
  2  3  1  0
  3  4  1  0
  4  5  2  0
  5  6  1  0
  6  7  2  0
  7  8  1  0
  7  9  1  0
  9 10  1  0
  9 11  2  0
 11 12  1  0
 11 13  1  0
 13 14  1  0
 13 15  2  0
 15 16  1  0
  4 17  1  0
 17 18  1  0
 18 19  1  0
 19 20  1  0
 19 21  1  0
 19 22  1  0
 22 23  2  0
 23 24  1  0
 24 25  2  0
 25 26  1  0
 26 27  1  0
 26 28  1  0
 26 29  1  0
 25 30  1  0
 30 31  1  0
 30 32  2  0
 32 33  1  0
 32 34  1  0
 34 35  1  0
 18  2  2  0
 34 23  1  0
 15  6  1  0
M  CHG  1  17  -1
M  END
>  <UniqueID>  (3) 
3

>  <SMILES>  (3) 
Cc1cc[nH]/c(=N\Cc2cs/c(=N\c3cc(Cl)ccc3F)[n-]2)n1

>  <Energy>  (3) 
75.11987544183359

>  <Genealogy>  (3) 
Cc1cc[nH]c(=NCc2csc(=Nc3cc(Cl)ccc3F)[n-]2)n1 (protonated)
Cc1cc[nH]/c(=N\Cc2cs/c(=N\c3cc(Cl)ccc3F)[n-]2)n1 (cis-trans isomerization)
Cc1cc[nH]/c(=N\Cc2cs/c(=N\c3cc(Cl)ccc3F)[n-]2)n1 (3D coordinates assigned)
Cc1cc[nH]/c(=N\Cc2cs/c(=N\c3cc(Cl)ccc3F)[n-]2)n1 (optimized conformer: 75.11987544183359 kcal/mol)

>  <smiles>  (3) 
Cc1cc[nH]c(=NCc2csc(=Nc3cc(Cl)ccc3F)[nH]2)n1

>  <score_type>  (3) 
oracle

>  <origin>  (3) 
adg

>  <m_score__min__energy>  (3) 
-9.3100000000000005

>  <m_primary>  (3) 
energy

$$$$
3:0
     RDKit          3D

 35 37  0  0  0  0  0  0  0  0999 V2000
   54.7450   26.3410   45.8610 O   0  0  0  0  0  0  0  0  0  0  0  0
   55.9010   26.2820   46.3590 C   0  0  0  0  0  0  0  0  0  0  0  0
   56.2670   25.1520   47.0800 O   0  0  0  0  0  0  0  0  0  0  0  0
   56.8550   27.3970   46.1780 C   0  0  0  0  0  0  0  0  0  0  0  0
   57.9290   27.5650   47.0700 C   0  0  0  0  0  0  0  0  0  0  0  0
   58.8310   28.6180   46.9030 C   0  0  0  0  0  0  0  0  0  0  0  0
   58.6680   29.5350   45.8520 C   0  0  0  0  0  0  0  0  0  0  0  0
   59.6470   30.6670   45.6710 C   0  0  0  0  0  0  0  0  0  0  0  0
   59.0640   31.9440   46.0940 N   0  0  0  0  0  0  0  0  0  0  0  0
   57.7920   32.3310   45.8750 C   0  0  0  0  0  0  0  0  0  0  0  0
   57.6060   33.6230   46.3250 C   0  0  0  0  0  0  0  0  0  0  0  0
   58.8190   34.0440   46.8360 C   0  0  0  0  0  0  0  0  0  0  0  0
   59.6920   32.9830   46.6890 C   0  0  0  0  0  0  0  0  0  0  0  0
   61.1100   33.0090   47.0820 C   0  0  0  0  0  0  0  0  0  0  0  0
   61.5690   32.1740   48.1120 C   0  0  0  0  0  0  0  0  0  0  0  0
   62.9170   32.1970   48.4860 C   0  0  0  0  0  0  0  0  0  0  0  0
   63.8120   33.0440   47.8260 C   0  0  0  0  0  0  0  0  0  0  0  0
   63.3630   33.8640   46.7860 C   0  0  0  0  0  0  0  0  0  0  0  0
   62.0170   33.8410   46.4100 C   0  0  0  0  0  0  0  0  0  0  0  0
   57.6090   29.3590   44.9490 C   0  0  0  0  0  0  0  0  0  0  0  0
   56.7070   28.3040   45.1140 C   0  0  0  0  0  0  0  0  0  0  0  0
   58.0597   26.8617   47.9056 H   0  0  0  0  0  0  0  0  0  0  0  0
   59.6750   28.7299   47.5995 H   0  0  0  0  0  0  0  0  0  0  0  0
   60.5447   30.4650   46.2738 H   0  0  0  0  0  0  0  0  0  0  0  0
   59.9047   30.7378   44.6040 H   0  0  0  0  0  0  0  0  0  0  0  0
   57.0155   31.7087   45.4063 H   0  0  0  0  0  0  0  0  0  0  0  0
   56.6731   34.2045   46.2846 H   0  0  0  0  0  0  0  0  0  0  0  0
   59.0447   35.0280   47.2729 H   0  0  0  0  0  0  0  0  0  0  0  0
   60.8679   31.5002   48.6263 H   0  0  0  0  0  0  0  0  0  0  0  0
   63.2728   31.5482   49.2999 H   0  0  0  0  0  0  0  0  0  0  0  0
   64.8704   33.0655   48.1250 H   0  0  0  0  0  0  0  0  0  0  0  0
   64.0688   34.5268   46.2641 H   0  0  0  0  0  0  0  0  0  0  0  0
   61.6679   34.4779   45.5839 H   0  0  0  0  0  0  0  0  0  0  0  0
   57.4877   30.0553   44.1061 H   0  0  0  0  0  0  0  0  0  0  0  0
   55.8744   28.1824   44.4055 H   0  0  0  0  0  0  0  0  0  0  0  0
  1  2  2  0
  2  3  1  0
  2  4  1  0
  4  5  2  0
  5  6  1  0
  6  7  2  0
  7  8  1  0
  8  9  1  0
  9 10  1  0
 10 11  2  0
 11 12  1  0
 12 13  2  0
 13 14  1  0
 14 15  2  0
 15 16  1  0
 16 17  2  0
 17 18  1  0
 18 19  2  0
  7 20  1  0
 20 21  2  0
 21  4  1  0
 13  9  1  0
 19 14  1  0
  5 22  1  0
  6 23  1  0
  8 24  1  0
  8 25  1  0
 10 26  1  0
 11 27  1  0
 12 28  1  0
 15 29  1  0
 16 30  1  0
 17 31  1  0
 18 32  1  0
 19 33  1  0
 20 34  1  0
 21 35  1  0
M  CHG  1   3  -1
M  END
>  <UniqueID>  (4) 
4

>  <SMILES>  (4) 
O=C([O-])c1ccc(Cn2cccc2-c2ccccc2)cc1

>  <Energy>  (4) 
68.87796849891096

>  <Genealogy>  (4) 
O=C([O-])c1ccc(Cn2cccc2-c2ccccc2)cc1 (protonated)
O=C([O-])c1ccc(Cn2cccc2-c2ccccc2)cc1 (3D coordinates assigned)
O=C([O-])c1ccc(Cn2cccc2-c2ccccc2)cc1 (optimized conformer: 68.87796849891096 kcal/mol)

>  <smiles>  (4) 
O=C(O)c1ccc(Cn2cccc2-c2ccccc2)cc1

>  <score_type>  (4) 
oracle

>  <origin>  (4) 
adg

>  <m_score__min__energy>  (4) 
-10.26

>  <m_primary>  (4) 
energy

$$$$
4:0
     RDKit          3D

 45 47  0  0  0  0  0  0  0  0999 V2000
   60.0170   24.8570   45.9970 C   0  0  0  0  0  0  0  0  0  0  0  0
   60.1140   26.2160   46.4110 O   0  0  0  0  0  0  0  0  0  0  0  0
   59.3200   27.2620   45.9130 C   0  0  0  0  0  0  0  0  0  0  0  0
   59.8900   28.3860   45.2870 C   0  0  0  0  0  0  0  0  0  0  0  0
   59.0810   29.4160   44.8040 C   0  0  0  0  0  0  0  0  0  0  0  0
   57.6860   29.3440   44.9280 C   0  0  0  0  0  0  0  0  0  0  0  0
   56.8270   30.4350   44.4090 C   0  0  0  0  0  0  0  0  0  0  0  0
   56.2280   30.2960   43.3080 O   0  0  0  0  0  0  0  0  0  0  0  0
   56.7150   31.6690   45.1360 N   0  0  0  0  0  0  0  0  0  0  0  0
   57.7460   32.6510   45.3160 C   0  0  0  0  0  0  0  0  0  0  0  0
   57.5340   33.9420   44.8230 C   0  0  0  0  0  0  0  0  0  0  0  0
   58.5160   34.9230   44.9650 C   0  0  0  0  0  0  0  0  0  0  0  0
   59.7290   34.6180   45.5880 C   0  0  0  0  0  0  0  0  0  0  0  0
   59.9780   33.3180   46.0640 C   0  0  0  0  0  0  0  0  0  0  0  0
   61.2390   32.9970   46.6870 N   0  0  0  0  0  0  0  0  0  0  0  0
   62.3530   33.7600   46.6880 C   0  0  0  0  0  0  0  0  0  0  0  0
   63.3600   33.1240   47.3830 C   0  0  0  0  0  0  0  0  0  0  0  0
   62.8390   31.9240   47.8210 C   0  0  0  0  0  0  0  0  0  0  0  0
   61.5330   31.8750   47.3790 C   0  0  0  0  0  0  0  0  0  0  0  0
   58.9790   32.3360   45.9180 C   0  0  0  0  0  0  0  0  0  0  0  0
   57.1150   28.2210   45.5510 C   0  0  0  0  0  0  0  0  0  0  0  0
   57.9200   27.1820   46.0560 C   0  0  0  0  0  0  0  0  0  0  0  0
   57.3350   26.0290   46.6900 N   0  0  0  0  0  0  0  0  0  0  0  0
   55.9430   25.1900   46.0770 S   0  0  0  0  0  0  0  0  0  0  0  0
   56.3090   24.4650   44.4910 C   0  0  0  0  0  0  0  0  0  0  0  0
   55.5100   24.1300   47.0490 O   0  0  0  0  0  0  0  0  0  0  0  0
   54.8220   26.1750   45.9000 O   0  0  0  0  0  0  0  0  0  0  0  0
   59.9706   24.2063   46.8827 H   0  0  0  0  0  0  0  0  0  0  0  0
   59.1069   24.7214   45.3943 H   0  0  0  0  0  0  0  0  0  0  0  0
   60.8986   24.5935   45.3943 H   0  0  0  0  0  0  0  0  0  0  0  0
   60.9824   28.4536   45.1773 H   0  0  0  0  0  0  0  0  0  0  0  0
   59.5415   30.2912   44.3223 H   0  0  0  0  0  0  0  0  0  0  0  0
   56.5867   34.1860   44.3198 H   0  0  0  0  0  0  0  0  0  0  0  0
   58.3348   35.9394   44.5854 H   0  0  0  0  0  0  0  0  0  0  0  0
   60.4940   35.3994   45.7069 H   0  0  0  0  0  0  0  0  0  0  0  0
   62.4439   34.7443   46.2053 H   0  0  0  0  0  0  0  0  0  0  0  0
   64.3794   33.5000   47.5546 H   0  0  0  0  0  0  0  0  0  0  0  0
   63.3630   31.1557   48.4084 H   0  0  0  0  0  0  0  0  0  0  0  0
   60.8347   31.0452   47.5629 H   0  0  0  0  0  0  0  0  0  0  0  0
   59.1640   31.3131   46.2778 H   0  0  0  0  0  0  0  0  0  0  0  0
   56.0212   28.1526   45.6456 H   0  0  0  0  0  0  0  0  0  0  0  0
   57.6750   25.7340   47.6320 H   0  0  0  0  0  0  0  0  0  0  0  0
   56.8003   23.4918   44.6373 H   0  0  0  0  0  0  0  0  0  0  0  0
   55.3745   24.3231   43.9283 H   0  0  0  0  0  0  0  0  0  0  0  0
   56.9781   25.1326   43.9283 H   0  0  0  0  0  0  0  0  0  0  0  0
  1  2  1  0
  2  3  1  0
  3  4  2  0
  4  5  1  0
  5  6  2  0
  6  7  1  0
  7  8  2  0
  7  9  1  0
  9 10  1  0
 10 11  2  0
 11 12  1  0
 12 13  2  0
 13 14  1  0
 14 15  1  0
 15 16  1  0
 16 17  2  0
 17 18  1  0
 18 19  2  0
 14 20  2  0
  6 21  1  0
 21 22  2  0
 22 23  1  0
 23 24  1  0
 24 25  1  0
 24 26  2  0
 24 27  2  0
 22  3  1  0
 20 10  1  0
 19 15  1  0
  1 28  1  0
  1 29  1  0
  1 30  1  0
  4 31  1  0
  5 32  1  0
 11 33  1  0
 12 34  1  0
 13 35  1  0
 16 36  1  0
 17 37  1  0
 18 38  1  0
 19 39  1  0
 20 40  1  0
 21 41  1  0
 23 42  1  0
 25 43  1  0
 25 44  1  0
 25 45  1  0
M  CHG  1   9  -1
M  END
>  <UniqueID>  (5) 
5

>  <SMILES>  (5) 
COc1ccc(C(=O)[N-]c2cccc(-n3cccc3)c2)cc1NS(C)(=O)=O

>  <Energy>  (5) 
79.92058606297749

>  <Genealogy>  (5) 
COc1ccc(C(=O)[N-]c2cccc(-n3cccc3)c2)cc1NS(C)(=O)=O (protonated)
COc1ccc(C(=O)[N-]c2cccc(-n3cccc3)c2)cc1NS(C)(=O)=O (3D coordinates assigned)
COc1ccc(C(=O)[N-]c2cccc(-n3cccc3)c2)cc1NS(C)(=O)=O (optimized conformer: 79.92058606297749 kcal/mol)

>  <smiles>  (5) 
COc1ccc(C(=O)Nc2cccc(-n3cccc3)c2)cc1NS(C)(=O)=O

>  <score_type>  (5) 
oracle

>  <origin>  (5) 
adg

>  <m_score__min__energy>  (5) 
-9.9199999999999999

>  <m_primary>  (5) 
energy

$$$$
5:0
     RDKit          3D

 37 38  0  0  0  0  0  0  0  0999 V2000
   59.0030   33.4420   47.6010 C   0  0  0  0  0  0  0  0  0  0  0  0
   59.7640   32.8510   46.4210 C   0  0  0  0  0  0  0  0  0  0  0  0
   59.0470   31.6980   45.8770 N   0  0  0  0  0  0  0  0  0  0  0  0
   59.5170   30.4650   45.9620 N   0  0  0  0  0  0  0  0  0  0  0  0
   58.6370   29.6420   45.3600 C   0  0  0  0  0  0  0  0  0  0  0  0
   58.8000   28.1510   45.3580 C   0  0  0  0  0  0  0  0  0  0  0  0
   58.0570   27.4030   46.8520 S   0  0  0  0  0  0  0  0  0  0  0  0
   57.5210   25.8920   46.0310 C   0  0  0  0  0  0  0  0  0  0  0  0
   58.4860   24.9230   45.7220 C   0  0  0  0  0  0  0  0  0  0  0  0
   58.1210   23.7450   45.0680 C   0  0  0  0  0  0  0  0  0  0  0  0
   56.7860   23.5200   44.7280 C   0  0  0  0  0  0  0  0  0  0  0  0
   56.4340   22.3750   44.0930 F   0  0  0  0  0  0  0  0  0  0  0  0
   55.8140   24.4720   45.0440 C   0  0  0  0  0  0  0  0  0  0  0  0
   56.1670   25.6620   45.6990 C   0  0  0  0  0  0  0  0  0  0  0  0
   55.1470   26.6200   46.0100 N   0  0  0  0  0  0  0  0  0  0  0  0
   57.5590   30.3800   44.8770 C   0  0  0  0  0  0  0  0  0  0  0  0
   56.3450   29.8720   44.1960 C   0  0  0  0  0  0  0  0  0  0  0  0
   55.4260   29.0280   44.8830 N   0  0  0  0  0  0  0  0  0  0  0  0
   56.1160   30.1760   42.9960 O   0  0  0  0  0  0  0  0  0  0  0  0
   57.8680   31.6940   45.2100 C   0  0  0  0  0  0  0  0  0  0  0  0
   57.0290   32.9080   44.9230 C   0  0  0  0  0  0  0  0  0  0  0  0
   59.4543   33.0915   48.5410 H   0  0  0  0  0  0  0  0  0  0  0  0
   59.0535   34.5400   47.5570 H   0  0  0  0  0  0  0  0  0  0  0  0
   57.9517   33.1213   47.5570 H   0  0  0  0  0  0  0  0  0  0  0  0
   59.8680   33.6158   45.6372 H   0  0  0  0  0  0  0  0  0  0  0  0
   60.7565   32.5240   46.7645 H   0  0  0  0  0  0  0  0  0  0  0  0
   58.3065   27.7372   44.4662 H   0  0  0  0  0  0  0  0  0  0  0  0
   59.8750   27.9180   45.3495 H   0  0  0  0  0  0  0  0  0  0  0  0
   59.5376   25.0921   45.9967 H   0  0  0  0  0  0  0  0  0  0  0  0
   58.8856   22.9939   44.8205 H   0  0  0  0  0  0  0  0  0  0  0  0
   54.7629   24.2875   44.7772 H   0  0  0  0  0  0  0  0  0  0  0  0
   55.1410   27.5560   45.5460 H   0  0  0  0  0  0  0  0  0  0  0  0
   54.3870   26.4190   46.6950 H   0  0  0  0  0  0  0  0  0  0  0  0
   54.4710   29.3660   45.1360 H   0  0  0  0  0  0  0  0  0  0  0  0
   56.7118   33.3670   45.8710 H   0  0  0  0  0  0  0  0  0  0  0  0
   57.6195   33.6333   44.3440 H   0  0  0  0  0  0  0  0  0  0  0  0
   56.1418   32.6120   44.3440 H   0  0  0  0  0  0  0  0  0  0  0  0
  1  2  1  0
  2  3  1  0
  3  4  1  0
  4  5  2  0
  5  6  1  0
  6  7  1  0
  7  8  1  0
  8  9  2  0
  9 10  1  0
 10 11  2  0
 11 12  1  0
 11 13  1  0
 13 14  2  0
 14 15  1  0
  5 16  1  0
 16 17  1  0
 17 18  1  0
 17 19  2  0
 16 20  2  0
 20 21  1  0
 20  3  1  0
 14  8  1  0
  1 22  1  0
  1 23  1  0
  1 24  1  0
  2 25  1  0
  2 26  1  0
  6 27  1  0
  6 28  1  0
  9 29  1  0
 10 30  1  0
 13 31  1  0
 15 32  1  0
 15 33  1  0
 18 34  1  0
 21 35  1  0
 21 36  1  0
 21 37  1  0
M  CHG  1  18  -1
M  END
>  <UniqueID>  (6) 
6

>  <SMILES>  (6) 
CCn1nc(CSc2ccc(F)cc2N)c(C([NH-])=O)c1C

>  <Energy>  (6) 
59.32840459034489

>  <Genealogy>  (6) 
CCn1nc(CSc2ccc(F)cc2N)c(C([NH-])=O)c1C (protonated)
CCn1nc(CSc2ccc(F)cc2N)c(C([NH-])=O)c1C (3D coordinates assigned)
CCn1nc(CSc2ccc(F)cc2N)c(C([NH-])=O)c1C (optimized conformer: 59.32840459034489 kcal/mol)

>  <smiles>  (6) 
CCn1nc(CSc2ccc(F)cc2N)c(C(N)=O)c1C

>  <score_type>  (6) 
oracle

>  <origin>  (6) 
adg

>  <m_score__min__energy>  (6) 
-10.5

>  <m_primary>  (6) 
energy

$$$$
6:0
     RDKit          3D

 38 40  0  0  0  0  0  0  0  0999 V2000
   60.5690   31.5860   49.9110 O   0  0  0  0  0  0  0  0  0  0  0  0
   60.2690   32.7720   49.6030 C   0  0  0  0  0  0  0  0  0  0  0  0
   58.8950   33.0760   49.0900 C   0  0  0  0  0  0  0  0  0  0  0  0
   58.9460   33.2870   47.6350 N   0  0  0  0  0  0  0  0  0  0  0  0
   58.3650   32.3630   46.8110 C   0  0  0  0  0  0  0  0  0  0  0  0
   58.3450   32.5670   45.4210 C   0  0  0  0  0  0  0  0  0  0  0  0
   57.7190   31.5910   44.4930 C   0  0  0  0  0  0  0  0  0  0  0  0
   57.5570   31.8820   43.1230 C   0  0  0  0  0  0  0  0  0  0  0  0
   56.9730   30.9450   42.2640 C   0  0  0  0  0  0  0  0  0  0  0  0
   56.5520   29.7090   42.7570 C   0  0  0  0  0  0  0  0  0  0  0  0
   56.7170   29.4030   44.1100 C   0  0  0  0  0  0  0  0  0  0  0  0
   57.3010   30.3360   44.9730 C   0  0  0  0  0  0  0  0  0  0  0  0
   58.9250   33.6890   44.9170 N   0  0  0  0  0  0  0  0  0  0  0  0
   59.4980   34.6170   45.7230 C   0  0  0  0  0  0  0  0  0  0  0  0
   59.5000   34.4250   47.1060 C   0  0  0  0  0  0  0  0  0  0  0  0
   60.0120   35.3050   47.8510 O   0  0  0  0  0  0  0  0  0  0  0  0
   61.2490   33.8150   49.6880 N   0  0  0  0  0  0  0  0  0  0  0  0
   62.6440   33.5490   49.8800 C   0  0  0  0  0  0  0  0  0  0  0  0
   63.1720   33.5810   51.1800 C   0  0  0  0  0  0  0  0  0  0  0  0
   64.5290   33.3290   51.3970 C   0  0  0  0  0  0  0  0  0  0  0  0
   65.3720   33.0590   50.3180 C   0  0  0  0  0  0  0  0  0  0  0  0
   64.8620   33.0500   49.0170 C   0  0  0  0  0  0  0  0  0  0  0  0
   63.5040   33.3020   48.7890 C   0  0  0  0  0  0  0  0  0  0  0  0
   62.9310   33.3840   47.1260 Cl  0  0  0  0  0  0  0  0  0  0  0  0
   58.2257   32.2323   49.3142 H   0  0  0  0  0  0  0  0  0  0  0  0
   58.5165   33.9864   49.5777 H   0  0  0  0  0  0  0  0  0  0  0  0
   57.9115   31.4564   47.2382 H   0  0  0  0  0  0  0  0  0  0  0  0
   57.8920   32.8521   42.7271 H   0  0  0  0  0  0  0  0  0  0  0  0
   56.8453   31.1829   41.1976 H   0  0  0  0  0  0  0  0  0  0  0  0
   56.0900   28.9755   42.0798 H   0  0  0  0  0  0  0  0  0  0  0  0
   56.3874   28.4275   44.4970 H   0  0  0  0  0  0  0  0  0  0  0  0
   57.4347   30.0866   46.0360 H   0  0  0  0  0  0  0  0  0  0  0  0
   59.9590   35.5167   45.2893 H   0  0  0  0  0  0  0  0  0  0  0  0
   60.9220   34.8060   49.7380 H   0  0  0  0  0  0  0  0  0  0  0  0
   62.5140   33.8056   52.0324 H   0  0  0  0  0  0  0  0  0  0  0  0
   64.9336   33.3434   52.4198 H   0  0  0  0  0  0  0  0  0  0  0  0
   66.4385   32.8532   50.4918 H   0  0  0  0  0  0  0  0  0  0  0  0
   65.5307   32.8440   48.1682 H   0  0  0  0  0  0  0  0  0  0  0  0
  1  2  2  0
  2  3  1  0
  3  4  1  0
  4  5  1  0
  5  6  2  0
  6  7  1  0
  7  8  2  0
  8  9  1  0
  9 10  2  0
 10 11  1  0
 11 12  2  0
  6 13  1  0
 13 14  2  0
 14 15  1  0
 15 16  2  0
  2 17  1  0
 17 18  1  0
 18 19  2  0
 19 20  1  0
 20 21  2  0
 21 22  1  0
 22 23  2  0
 23 24  1  0
 15  4  1  0
 23 18  1  0
 12  7  1  0
  3 25  1  0
  3 26  1  0
  5 27  1  0
  8 28  1  0
  9 29  1  0
 10 30  1  0
 11 31  1  0
 12 32  1  0
 14 33  1  0
 17 34  1  0
 19 35  1  0
 20 36  1  0
 21 37  1  0
 22 38  1  0
M  END
>  <UniqueID>  (7) 
7

>  <SMILES>  (7) 
O=C(Cn1cc(-c2ccccc2)ncc1=O)Nc1ccccc1Cl

>  <Energy>  (7) 
51.70943101311558

>  <Genealogy>  (7) 
O=C(Cn1cc(-c2ccccc2)ncc1=O)Nc1ccccc1Cl (3D coordinates assigned)
O=C(Cn1cc(-c2ccccc2)ncc1=O)Nc1ccccc1Cl (optimized conformer: 51.70943101311558 kcal/mol)

>  <smiles>  (7) 
O=C(Cn1cc(-c2ccccc2)ncc1=O)Nc1ccccc1Cl

>  <score_type>  (7) 
oracle

>  <origin>  (7) 
adg

>  <m_score__min__energy>  (7) 
-7.0999999999999996

>  <m_primary>  (7) 
energy

$$$$
7:0
     RDKit          3D

 90 94  0  0  0  0  0  0  0  0999 V2000
   61.5530   32.5040   52.5980 C   0  0  0  0  0  0  0  0  0  0  0  0
   61.5010   33.8350   52.1450 O   0  0  0  0  0  0  0  0  0  0  0  0
   60.7360   33.8470   51.0170 N   0  0  0  0  0  0  0  0  0  0  0  0
   59.2840   33.7560   51.1580 C   0  0  0  0  0  0  0  0  0  0  0  0
   61.3760   33.9330   49.7270 C   0  0  0  0  0  0  0  0  0  0  0  0
   62.1110   34.9230   49.4700 O   0  0  0  0  0  0  0  0  0  0  0  0
   61.1470   32.9220   48.6730 C   0  0  0  0  0  0  0  0  0  0  0  0
   62.2080   32.1620   48.1520 C   0  0  0  0  0  0  0  0  0  0  0  0
   61.9600   31.1730   47.1960 C   0  0  0  0  0  0  0  0  0  0  0  0
   60.6470   30.9250   46.7520 C   0  0  0  0  0  0  0  0  0  0  0  0
   60.3690   29.8200   45.8150 C   0  0  0  0  0  0  0  0  0  0  0  0
   61.3100   29.3330   45.1360 O   0  0  0  0  0  0  0  0  0  0  0  0
   59.0190   29.3440   45.6200 N   0  0  0  0  0  0  0  0  0  0  0  0
   58.4990   29.3500   44.2380 C   0  0  0  0  0  0  0  0  0  0  0  0
   57.4870   28.2170   43.9770 C   0  0  0  0  0  0  0  0  0  0  0  0
   57.8150   26.9810   44.7820 C   0  0  0  0  0  0  0  0  0  0  0  0
   57.7050   25.7100   44.2040 C   0  0  0  0  0  0  0  0  0  0  0  0
   57.9580   24.5540   44.9780 C   0  0  0  0  0  0  0  0  0  0  0  0
   57.9240   23.2500   44.4430 O   0  0  0  0  0  0  0  0  0  0  0  0
   56.8040   22.6510   43.7880 C   0  0  0  0  0  0  0  0  0  0  0  0
   55.5480   22.8850   44.5820 C   0  0  0  0  0  0  0  0  0  0  0  0
   54.5390   23.7260   44.0740 C   0  0  0  0  0  0  0  0  0  0  0  0
   53.3740   23.9600   44.8160 C   0  0  0  0  0  0  0  0  0  0  0  0
   53.2200   23.3690   46.0770 C   0  0  0  0  0  0  0  0  0  0  0  0
   54.2160   22.5300   46.5910 C   0  0  0  0  0  0  0  0  0  0  0  0
   55.3750   22.2850   45.8440 C   0  0  0  0  0  0  0  0  0  0  0  0
   58.2530   24.6920   46.3380 C   0  0  0  0  0  0  0  0  0  0  0  0
   58.3180   25.9580   46.9300 C   0  0  0  0  0  0  0  0  0  0  0  0
   58.1630   27.1200   46.1440 C   0  0  0  0  0  0  0  0  0  0  0  0
   58.3030   28.5540   46.6530 C   0  0  1  0  0  0  0  0  0  0  0  0
   58.8840   28.7880   48.0410 C   0  0  0  0  0  0  0  0  0  0  0  0
   58.3130   29.5490   48.8760 O   0  0  0  0  0  0  0  0  0  0  0  0
   60.0050   28.0000   48.4560 N   0  0  0  0  0  0  0  0  0  0  0  0
   60.7640   28.2890   49.6410 C   0  0  0  0  0  0  0  0  0  0  0  0
   61.2160   29.5900   49.8900 C   0  0  0  0  0  0  0  0  0  0  0  0
   62.0170   29.8620   51.0020 C   0  0  0  0  0  0  0  0  0  0  0  0
   62.3590   28.8300   51.8970 C   0  0  0  0  0  0  0  0  0  0  0  0
   63.1520   29.0420   53.0370 O   0  0  0  0  0  0  0  0  0  0  0  0
   64.5190   29.4530   53.0360 C   0  0  0  0  0  0  0  0  0  0  0  0
   64.6310   30.9530   52.7510 C   0  0  0  0  0  0  0  0  0  0  0  0
   65.1680   31.2110   51.3400 C   0  0  0  0  0  0  0  0  0  0  0  0
   64.5260   32.4190   50.7720 N   0  0  0  0  0  0  0  0  0  0  0  0
   64.6940   33.5720   51.6720 C   0  0  0  0  0  0  0  0  0  0  0  0
   65.0820   32.7400   49.4480 C   0  0  0  0  0  0  0  0  0  0  0  0
   61.8950   27.5300   51.6510 C   0  0  0  0  0  0  0  0  0  0  0  0
   61.1140   27.2540   50.5220 C   0  0  0  0  0  0  0  0  0  0  0  0
   60.6740   25.9550   50.2890 O   0  0  0  0  0  0  0  0  0  0  0  0
   59.6020   31.7310   47.2230 C   0  0  0  0  0  0  0  0  0  0  0  0
   59.8500   32.7240   48.1780 C   0  0  0  0  0  0  0  0  0  0  0  0
   61.5535   32.4908   53.6979 H   0  0  0  0  0  0  0  0  0  0  0  0
   60.6756   31.9552   52.2251 H   0  0  0  0  0  0  0  0  0  0  0  0
   62.4705   32.0254   52.2251 H   0  0  0  0  0  0  0  0  0  0  0  0
   59.0196   33.7394   52.2256 H   0  0  0  0  0  0  0  0  0  0  0  0
   58.8137   34.6264   50.6772 H   0  0  0  0  0  0  0  0  0  0  0  0
   58.9260   32.8337   50.6772 H   0  0  0  0  0  0  0  0  0  0  0  0
   63.2361   32.3459   48.4974 H   0  0  0  0  0  0  0  0  0  0  0  0
   62.7954   30.5850   46.7881 H   0  0  0  0  0  0  0  0  0  0  0  0
   58.0029   30.3142   44.0531 H   0  0  0  0  0  0  0  0  0  0  0  0
   59.3525   29.1947   43.5617 H   0  0  0  0  0  0  0  0  0  0  0  0
   56.4812   28.5663   44.2533 H   0  0  0  0  0  0  0  0  0  0  0  0
   57.5327   27.9543   42.9098 H   0  0  0  0  0  0  0  0  0  0  0  0
   57.4212   25.6109   43.1459 H   0  0  0  0  0  0  0  0  0  0  0  0
   56.6889   23.0943   42.7879 H   0  0  0  0  0  0  0  0  0  0  0  0
   56.9767   21.5680   43.7027 H   0  0  0  0  0  0  0  0  0  0  0  0
   54.6662   24.2013   43.0902 H   0  0  0  0  0  0  0  0  0  0  0  0
   52.5820   24.6062   44.4096 H   0  0  0  0  0  0  0  0  0  0  0  0
   52.3120   23.5652   46.6661 H   0  0  0  0  0  0  0  0  0  0  0  0
   54.0885   22.0643   47.5794 H   0  0  0  0  0  0  0  0  0  0  0  0
   56.1543   21.6204   46.2453 H   0  0  0  0  0  0  0  0  0  0  0  0
   58.4359   23.7956   46.9488 H   0  0  0  0  0  0  0  0  0  0  0  0
   58.4906   26.0481   48.0126 H   0  0  0  0  0  0  0  0  0  0  0  0
   57.2683   28.8925   46.8104 H   0  0  0  0  0  0  0  0  0  0  0  0
   60.2010   27.1070   47.9470 H   0  0  0  0  0  0  0  0  0  0  0  0
   60.9385   30.4047   49.2049 H   0  0  0  0  0  0  0  0  0  0  0  0
   62.3813   30.8847   51.1788 H   0  0  0  0  0  0  0  0  0  0  0  0
   64.9618   29.2380   54.0197 H   0  0  0  0  0  0  0  0  0  0  0  0
   65.0542   28.9018   52.2488 H   0  0  0  0  0  0  0  0  0  0  0  0
   63.6355   31.4113   52.8452 H   0  0  0  0  0  0  0  0  0  0  0  0
   65.3314   31.3935   53.4758 H   0  0  0  0  0  0  0  0  0  0  0  0
   66.2565   31.3631   51.3857 H   0  0  0  0  0  0  0  0  0  0  0  0
   64.9414   30.3447   50.7011 H   0  0  0  0  0  0  0  0  0  0  0  0
   64.6444   33.2318   52.7169 H   0  0  0  0  0  0  0  0  0  0  0  0
   65.6703   34.0433   51.4858 H   0  0  0  0  0  0  0  0  0  0  0  0
   63.8928   34.3023   51.4858 H   0  0  0  0  0  0  0  0  0  0  0  0
   66.0287   33.2866   49.5706 H   0  0  0  0  0  0  0  0  0  0  0  0
   65.2655   31.8089   48.8918 H   0  0  0  0  0  0  0  0  0  0  0  0
   64.3674   33.3645   48.8918 H   0  0  0  0  0  0  0  0  0  0  0  0
   62.1467   26.7197   52.3511 H   0  0  0  0  0  0  0  0  0  0  0  0
   58.5814   31.5826   46.8403 H   0  0  0  0  0  0  0  0  0  0  0  0
   59.0235   33.3520   48.5419 H   0  0  0  0  0  0  0  0  0  0  0  0
  1  2  1  0
  2  3  1  0
  3  4  1  0
  3  5  1  0
  5  6  2  0
  5  7  1  0
  7  8  2  0
  8  9  1  0
  9 10  2  0
 10 11  1  0
 11 12  2  0
 11 13  1  0
 13 14  1  0
 14 15  1  0
 15 16  1  0
 16 17  2  0
 17 18  1  0
 18 19  1  0
 19 20  1  0
 20 21  1  0
 21 22  2  0
 22 23  1  0
 23 24  2  0
 24 25  1  0
 25 26  2  0
 18 27  2  0
 27 28  1  0
 28 29  2  0
 29 30  1  0
 30 31  1  0
 31 32  2  0
 31 33  1  0
 33 34  1  0
 34 35  2  0
 35 36  1  0
 36 37  2  0
 37 38  1  0
 38 39  1  0
 39 40  1  0
 40 41  1  0
 41 42  1  0
 42 43  1  0
 42 44  1  0
 37 45  1  0
 45 46  2  0
 46 47  1  0
 10 48  1  0
 48 49  2  0
 49  7  1  0
 30 13  1  0
 46 34  1  0
 29 16  1  0
 26 21  1  0
  1 50  1  0
  1 51  1  0
  1 52  1  0
  4 53  1  0
  4 54  1  0
  4 55  1  0
  8 56  1  0
  9 57  1  0
 14 58  1  0
 14 59  1  0
 15 60  1  0
 15 61  1  0
 17 62  1  0
 20 63  1  0
 20 64  1  0
 22 65  1  0
 23 66  1  0
 24 67  1  0
 25 68  1  0
 26 69  1  0
 27 70  1  0
 28 71  1  0
 30 72  1  1
 33 73  1  0
 35 74  1  0
 36 75  1  0
 39 76  1  0
 39 77  1  0
 40 78  1  0
 40 79  1  0
 41 80  1  0
 41 81  1  0
 43 82  1  0
 43 83  1  0
 43 84  1  0
 44 85  1  0
 44 86  1  0
 44 87  1  0
 45 88  1  0
 48 89  1  0
 49 90  1  0
M  CHG  1  47  -1
M  END
>  <UniqueID>  (8) 
8

>  <SMILES>  (8) 
CON(C)C(=O)c1ccc(C(=O)N2CCc3cc(OCc4ccccc4)ccc3[C@H]2C(=O)Nc2ccc(OCCCN(C)C)cc2[O-])cc1

>  <Energy>  (8) 
121.26772284883059

>  <Genealogy>  (8) 
CON(C)C(=O)c1ccc(C(=O)N2CCc3cc(OCc4ccccc4)ccc3C2C(=O)Nc2ccc(OCCCN(C)C)cc2[O-])cc1 (protonated)
CON(C)C(=O)c1ccc(C(=O)N2CCc3cc(OCc4ccccc4)ccc3[C@H]2C(=O)Nc2ccc(OCCCN(C)C)cc2[O-])cc1 (chirality)
CON(C)C(=O)c1ccc(C(=O)N2CCc3cc(OCc4ccccc4)ccc3[C@H]2C(=O)Nc2ccc(OCCCN(C)C)cc2[O-])cc1 (3D coordinates assigned)
CON(C)C(=O)c1ccc(C(=O)N2CCc3cc(OCc4ccccc4)ccc3[C@H]2C(=O)Nc2ccc(OCCCN(C)C)cc2[O-])cc1 (nonaromatic ring conformer: 121.26772284883059 kcal/mol)

>  <smiles>  (8) 
CON(C)C(=O)c1ccc(C(=O)N2CCc3cc(OCc4ccccc4)ccc3C2C(=O)Nc2ccc(OCCCN(C)C)cc2O)cc1

>  <score_type>  (8) 
oracle

>  <origin>  (8) 
adg

>  <m_score__min__energy>  (8) 
-10.109999999999999

>  <m_primary>  (8) 
energy

$$$$
8:0
     RDKit          3D

 64 67  0  0  0  0  0  0  0  0999 V2000
   56.9270   25.3670   46.7040 C   0  0  0  0  0  0  0  0  0  0  0  0
   57.3330   26.7660   46.3900 C   0  0  0  0  0  0  0  0  0  0  0  0
   57.0260   27.4520   45.2290 C   0  0  0  0  0  0  0  0  0  0  0  0
   57.7210   28.6430   45.3610 C   0  0  0  0  0  0  0  0  0  0  0  0
   57.8340   29.5960   44.4760 N   0  0  0  0  0  0  0  0  0  0  0  0
   56.9250   30.6780   44.2250 C   0  0  0  0  0  0  0  0  0  0  0  0
   55.7000   30.5850   44.5070 O   0  0  0  0  0  0  0  0  0  0  0  0
   57.4550   31.9540   43.6510 C   0  0  0  0  0  0  0  0  0  0  0  0
   57.9400   32.8630   44.7480 C   0  0  0  0  0  0  0  0  0  0  0  0
   58.8960   33.8560   44.4760 C   0  0  0  0  0  0  0  0  0  0  0  0
   59.3500   34.6930   45.5000 C   0  0  0  0  0  0  0  0  0  0  0  0
   58.8740   34.5290   46.8040 C   0  0  0  0  0  0  0  0  0  0  0  0
   57.9360   33.5320   47.0860 C   0  0  0  0  0  0  0  0  0  0  0  0
   57.4690   32.7000   46.0630 C   0  0  0  0  0  0  0  0  0  0  0  0
   58.3920   28.6390   46.5330 N   0  0  0  0  0  0  0  0  0  0  0  0
   59.2650   29.6610   47.0440 C   0  0  0  0  0  0  0  0  0  0  0  0
   60.4000   30.0430   46.3110 C   0  0  0  0  0  0  0  0  0  0  0  0
   61.2490   31.0410   46.7940 C   0  0  0  0  0  0  0  0  0  0  0  0
   60.9810   31.6580   48.0180 C   0  0  0  0  0  0  0  0  0  0  0  0
   59.8670   31.2690   48.7770 C   0  0  0  0  0  0  0  0  0  0  0  0
   59.6070   31.9160   50.1110 C   0  0  0  0  0  0  0  0  0  0  0  0
   59.1170   30.9190   51.0620 N   0  0  0  0  0  0  0  0  0  0  0  0
   57.9820   31.1440   51.9150 C   0  0  0  0  0  0  0  0  0  0  0  0
   57.3800   32.2500   51.8970 O   0  0  0  0  0  0  0  0  0  0  0  0
   57.5280   30.0820   52.8730 C   0  0  0  0  0  0  0  0  0  0  0  0
   56.3890   29.3840   52.3700 O   0  0  0  0  0  0  0  0  0  0  0  0
   55.0630   29.8440   52.4310 C   0  0  0  0  0  0  0  0  0  0  0  0
   54.6320   31.0120   51.7720 C   0  0  0  0  0  0  0  0  0  0  0  0
   53.2940   31.4120   51.8490 C   0  0  0  0  0  0  0  0  0  0  0  0
   52.3710   30.6600   52.5930 C   0  0  0  0  0  0  0  0  0  0  0  0
   50.9220   31.0590   52.6330 C   0  0  0  0  0  0  0  0  0  0  0  0
   50.7170   32.3170   51.8510 C   0  0  0  0  0  0  0  0  0  0  0  0
   50.3180   33.3640   52.4260 O   0  0  0  0  0  0  0  0  0  0  0  0
   51.0200   32.3480   50.4960 O   0  0  0  0  0  0  0  0  0  0  0  0
   52.8020   29.4960   53.2500 C   0  0  0  0  0  0  0  0  0  0  0  0
   54.1400   29.0980   53.1740 C   0  0  0  0  0  0  0  0  0  0  0  0
   59.0090   30.2720   48.2850 C   0  0  0  0  0  0  0  0  0  0  0  0
   58.1750   27.4900   47.1550 N   0  0  0  0  0  0  0  0  0  0  0  0
   56.8880   25.2326   47.7951 H   0  0  0  0  0  0  0  0  0  0  0  0
   55.9341   25.1682   46.2744 H   0  0  0  0  0  0  0  0  0  0  0  0
   57.6592   24.6675   46.2744 H   0  0  0  0  0  0  0  0  0  0  0  0
   56.3824   27.1285   44.3977 H   0  0  0  0  0  0  0  0  0  0  0  0
   58.2909   31.7265   42.9731 H   0  0  0  0  0  0  0  0  0  0  0  0
   56.6477   32.4593   43.1006 H   0  0  0  0  0  0  0  0  0  0  0  0
   59.2882   33.9753   43.4552 H   0  0  0  0  0  0  0  0  0  0  0  0
   60.0835   35.4824   45.2788 H   0  0  0  0  0  0  0  0  0  0  0  0
   59.2378   35.1849   47.6086 H   0  0  0  0  0  0  0  0  0  0  0  0
   57.5647   33.4015   48.1132 H   0  0  0  0  0  0  0  0  0  0  0  0
   56.7311   31.9158   46.2879 H   0  0  0  0  0  0  0  0  0  0  0  0
   60.6216   29.5535   45.3512 H   0  0  0  0  0  0  0  0  0  0  0  0
   62.1308   31.3418   46.2092 H   0  0  0  0  0  0  0  0  0  0  0  0
   61.6460   32.4521   48.3884 H   0  0  0  0  0  0  0  0  0  0  0  0
   60.5412   32.3546   50.4917 H   0  0  0  0  0  0  0  0  0  0  0  0
   58.8484   32.7032   49.9894 H   0  0  0  0  0  0  0  0  0  0  0  0
   59.6110   29.9990   51.1020 H   0  0  0  0  0  0  0  0  0  0  0  0
   58.3478   29.3653   53.0286 H   0  0  0  0  0  0  0  0  0  0  0  0
   57.2490   30.5651   53.8210 H   0  0  0  0  0  0  0  0  0  0  0  0
   55.3507   31.6119   51.1945 H   0  0  0  0  0  0  0  0  0  0  0  0
   52.9632   32.3203   51.3240 H   0  0  0  0  0  0  0  0  0  0  0  0
   50.3105   30.2552   52.1971 H   0  0  0  0  0  0  0  0  0  0  0  0
   50.6229   31.2300   53.6777 H   0  0  0  0  0  0  0  0  0  0  0  0
   52.0837   28.8949   53.8269 H   0  0  0  0  0  0  0  0  0  0  0  0
   54.4703   28.1914   53.7022 H   0  0  0  0  0  0  0  0  0  0  0  0
   58.1313   29.9669   48.8737 H   0  0  0  0  0  0  0  0  0  0  0  0
  1  2  1  0
  2  3  2  0
  3  4  1  0
  4  5  2  3
  5  6  1  0
  6  7  2  0
  6  8  1  0
  8  9  1  0
  9 10  2  0
 10 11  1  0
 11 12  2  0
 12 13  1  0
 13 14  2  0
  4 15  1  0
 15 16  1  0
 16 17  2  0
 17 18  1  0
 18 19  2  0
 19 20  1  0
 20 21  1  0
 21 22  1  0
 22 23  1  0
 23 24  2  0
 23 25  1  0
 25 26  1  0
 26 27  1  0
 27 28  2  0
 28 29  1  0
 29 30  2  0
 30 31  1  0
 31 32  1  0
 32 33  2  0
 32 34  1  0
 30 35  1  0
 35 36  2  0
 20 37  2  0
 15 38  1  0
 38  2  1  0
 14  9  1  0
 37 16  1  0
 36 27  1  0
  1 39  1  0
  1 40  1  0
  1 41  1  0
  3 42  1  0
  8 43  1  0
  8 44  1  0
 10 45  1  0
 11 46  1  0
 12 47  1  0
 13 48  1  0
 14 49  1  0
 17 50  1  0
 18 51  1  0
 19 52  1  0
 21 53  1  0
 21 54  1  0
 22 55  1  0
 25 56  1  0
 25 57  1  0
 28 58  1  0
 29 59  1  0
 31 60  1  0
 31 61  1  0
 35 62  1  0
 36 63  1  0
 37 64  1  0
M  CHG  2  34  -1  38  -1
M  END
>  <UniqueID>  (9) 
9

>  <SMILES>  (9) 
Cc1cc(=NC(=O)Cc2ccccc2)n(-c2cccc(CNC(=O)COc3ccc(CC(=O)[O-])cc3)c2)[n-]1

>  <Energy>  (9) 
98.21107871191067

>  <Genealogy>  (9) 
Cc1cc(=NC(=O)Cc2ccccc2)n(-c2cccc(CNC(=O)COc3ccc(CC(=O)[O-])cc3)c2)[n-]1 (protonated)
Cc1cc(=NC(=O)Cc2ccccc2)n(-c2cccc(CNC(=O)COc3ccc(CC(=O)[O-])cc3)c2)[n-]1 (3D coordinates assigned)
Cc1cc(=NC(=O)Cc2ccccc2)n(-c2cccc(CNC(=O)COc3ccc(CC(=O)[O-])cc3)c2)[n-]1 (optimized conformer: 98.21107871191067 kcal/mol)

>  <smiles>  (9) 
Cc1cc(=NC(=O)Cc2ccccc2)n(-c2cccc(CNC(=O)COc3ccc(CC(=O)O)cc3)c2)[nH]1

>  <score_type>  (9) 
oracle

>  <origin>  (9) 
adg

>  <m_score__min__energy>  (9) 
-15.869999999999999

>  <m_primary>  (9) 
energy

$$$$
9:0
     RDKit          3D

 47 49  0  0  0  0  0  0  0  0999 V2000
   65.2640   33.1190   49.4400 C   0  0  0  0  0  0  0  0  0  0  0  0
   63.8330   33.3170   49.0320 C   0  0  0  0  0  0  0  0  0  0  0  0
   62.8600   33.6300   49.9950 C   0  0  0  0  0  0  0  0  0  0  0  0
   61.5320   33.8420   49.6130 C   0  0  0  0  0  0  0  0  0  0  0  0
   61.1570   33.7370   48.2640 C   0  0  0  0  0  0  0  0  0  0  0  0
   59.8040   33.9560   47.8370 N   0  0  0  0  0  0  0  0  0  0  0  0
   58.7480   32.9870   47.8530 C   0  0  0  0  0  0  0  0  0  0  0  0
   58.1450   32.7620   48.9360 O   0  0  0  0  0  0  0  0  0  0  0  0
   58.3260   32.2710   46.6320 C   0  0  0  0  0  0  0  0  0  0  0  0
   57.9790   32.8190   45.4040 C   0  0  0  0  0  0  0  0  0  0  0  0
   57.8250   34.2080   45.0820 N   0  0  0  0  0  0  0  0  0  0  0  0
   56.6850   34.6850   44.9100 O   0  0  0  0  0  0  0  0  0  0  0  0
   58.9070   35.0570   45.1000 O   0  0  0  0  0  0  0  0  0  0  0  0
   57.6870   31.7690   44.5540 C   0  0  0  0  0  0  0  0  0  0  0  0
   57.8430   30.6010   45.2090 N   0  0  0  0  0  0  0  0  0  0  0  0
   57.5520   29.2800   44.6470 C   0  0  0  0  0  0  0  0  0  0  0  0
   56.1750   28.8490   45.0370 C   0  0  0  0  0  0  0  0  0  0  0  0
   55.2000   29.6210   44.8330 O   0  0  0  0  0  0  0  0  0  0  0  0
   55.9780   27.5570   45.6220 N   0  0  0  0  0  0  0  0  0  0  0  0
   56.9520   26.5070   45.7040 C   0  0  0  0  0  0  0  0  0  0  0  0
   56.7570   25.2590   45.0820 C   0  0  0  0  0  0  0  0  0  0  0  0
   57.7180   24.2520   45.2110 C   0  0  0  0  0  0  0  0  0  0  0  0
   58.8700   24.4740   45.9710 C   0  0  0  0  0  0  0  0  0  0  0  0
   59.0570   25.7020   46.6110 C   0  0  0  0  0  0  0  0  0  0  0  0
   58.0980   26.7110   46.4840 C   0  0  0  0  0  0  0  0  0  0  0  0
   58.2350   30.8920   46.4730 C   0  0  0  0  0  0  0  0  0  0  0  0
   58.4710   29.8740   47.5520 C   0  0  0  0  0  0  0  0  0  0  0  0
   62.1360   33.4700   47.2990 C   0  0  0  0  0  0  0  0  0  0  0  0
   63.4650   33.2570   47.6770 C   0  0  0  0  0  0  0  0  0  0  0  0
   64.3930   32.9950   46.7220 F   0  0  0  0  0  0  0  0  0  0  0  0
   65.3343   33.1093   50.5377 H   0  0  0  0  0  0  0  0  0  0  0  0
   65.6300   32.1616   49.0406 H   0  0  0  0  0  0  0  0  0  0  0  0
   65.8762   33.9410   49.0406 H   0  0  0  0  0  0  0  0  0  0  0  0
   63.1441   33.7087   51.0548 H   0  0  0  0  0  0  0  0  0  0  0  0
   60.7772   34.0923   50.3730 H   0  0  0  0  0  0  0  0  0  0  0  0
   57.3751   31.8707   43.5041 H   0  0  0  0  0  0  0  0  0  0  0  0
   57.6216   29.3277   43.5502 H   0  0  0  0  0  0  0  0  0  0  0  0
   58.2808   28.5540   45.0366 H   0  0  0  0  0  0  0  0  0  0  0  0
   55.8462   25.0759   44.4931 H   0  0  0  0  0  0  0  0  0  0  0  0
   57.5673   23.2827   44.7133 H   0  0  0  0  0  0  0  0  0  0  0  0
   59.6285   23.6829   46.0651 H   0  0  0  0  0  0  0  0  0  0  0  0
   59.9597   25.8748   47.2153 H   0  0  0  0  0  0  0  0  0  0  0  0
   58.2440   27.6715   46.9998 H   0  0  0  0  0  0  0  0  0  0  0  0
   58.3604   30.3512   48.5369 H   0  0  0  0  0  0  0  0  0  0  0  0
   57.7378   29.0598   47.4546 H   0  0  0  0  0  0  0  0  0  0  0  0
   59.4877   29.4655   47.4546 H   0  0  0  0  0  0  0  0  0  0  0  0
   61.8573   33.4275   46.2357 H   0  0  0  0  0  0  0  0  0  0  0  0
  1  2  1  0
  2  3  2  0
  3  4  1  0
  4  5  2  0
  5  6  1  0
  6  7  1  0
  7  8  2  0
  7  9  1  0
  9 10  1  0
 10 11  1  0
 11 12  2  0
 11 13  1  0
 10 14  2  0
 14 15  1  0
 15 16  1  0
 16 17  1  0
 17 18  2  0
 17 19  1  0
 19 20  1  0
 20 21  2  0
 21 22  1  0
 22 23  2  0
 23 24  1  0
 24 25  2  0
 15 26  1  0
 26 27  1  0
  5 28  1  0
 28 29  2  0
 29 30  1  0
 29  2  1  0
 26  9  2  0
 25 20  1  0
  1 31  1  0
  1 32  1  0
  1 33  1  0
  3 34  1  0
  4 35  1  0
 14 36  1  0
 16 37  1  0
 16 38  1  0
 21 39  1  0
 22 40  1  0
 23 41  1  0
 24 42  1  0
 25 43  1  0
 27 44  1  0
 27 45  1  0
 27 46  1  0
 28 47  1  0
M  CHG  4   6  -1  11   1  13  -1  19  -1
M  END
>  <UniqueID>  (10) 
10

>  <SMILES>  (10) 
Cc1ccc([N-]C(=O)c2c([N+](=O)[O-])cn(CC(=O)[N-]c3ccccc3)c2C)cc1F

>  <Energy>  (10) 
85.66313814628303

>  <Genealogy>  (10) 
Cc1ccc([N-]C(=O)c2c([N+](=O)[O-])cn(CC(=O)[N-]c3ccccc3)c2C)cc1F (protonated)
Cc1ccc([N-]C(=O)c2c([N+](=O)[O-])cn(CC(=O)[N-]c3ccccc3)c2C)cc1F (3D coordinates assigned)
Cc1ccc([N-]C(=O)c2c([N+](=O)[O-])cn(CC(=O)[N-]c3ccccc3)c2C)cc1F (optimized conformer: 85.66313814628303 kcal/mol)

>  <smiles>  (10) 
Cc1ccc(NC(=O)c2c([N+](=O)[O-])cn(CC(=O)Nc3ccccc3)c2C)cc1F

>  <score_type>  (10) 
oracle

>  <origin>  (10) 
adg

>  <m_score__min__energy>  (10) 
-11.609999999999999

>  <m_primary>  (10) 
energy

$$$$
10:0
     RDKit          3D

 42 44  0  0  0  0  0  0  0  0999 V2000
   55.5310   26.7510   46.0030 O   0  0  0  0  0  0  0  0  0  0  0  0
   56.7140   27.0720   45.7020 C   0  0  0  0  0  0  0  0  0  0  0  0
   57.7540   26.0820   45.7620 N   0  0  0  0  0  0  0  0  0  0  0  0
   57.5140   24.7270   46.2550 C   0  0  0  0  0  0  0  0  0  0  0  0
   57.2520   23.7930   45.1050 C   0  0  0  0  0  0  0  0  0  0  0  0
   57.9990   22.6120   44.9560 C   0  0  0  0  0  0  0  0  0  0  0  0
   57.7350   21.7410   43.8950 C   0  0  0  0  0  0  0  0  0  0  0  0
   56.7210   22.0390   42.9790 C   0  0  0  0  0  0  0  0  0  0  0  0
   55.9700   23.2080   43.1240 C   0  0  0  0  0  0  0  0  0  0  0  0
   56.2320   24.0830   44.1830 C   0  0  0  0  0  0  0  0  0  0  0  0
   57.0000   28.4620   45.2760 C   0  0  0  0  0  0  0  0  0  0  0  0
   58.3050   28.9830   45.2930 C   0  0  0  0  0  0  0  0  0  0  0  0
   58.5420   30.2990   44.8920 C   0  0  0  0  0  0  0  0  0  0  0  0
   57.4730   31.0960   44.4810 C   0  0  0  0  0  0  0  0  0  0  0  0
   57.7140   32.4160   44.0820 O   0  0  0  0  0  0  0  0  0  0  0  0
   57.3700   33.5520   44.8730 C   0  0  0  0  0  0  0  0  0  0  0  0
   58.3200   33.6920   46.0320 C   0  0  0  0  0  0  0  0  0  0  0  0
   58.0730   33.0290   47.2460 C   0  0  0  0  0  0  0  0  0  0  0  0
   58.9720   33.1500   48.3100 C   0  0  0  0  0  0  0  0  0  0  0  0
   60.1230   33.9310   48.1690 C   0  0  0  0  0  0  0  0  0  0  0  0
   60.3760   34.5910   46.9630 C   0  0  0  0  0  0  0  0  0  0  0  0
   59.4800   34.4720   45.8980 C   0  0  0  0  0  0  0  0  0  0  0  0
   56.2120   30.5820   44.4770 N   0  0  0  0  0  0  0  0  0  0  0  0
   55.9540   29.3060   44.8640 C   0  0  0  0  0  0  0  0  0  0  0  0
   58.7040   26.2980   45.3870 H   0  0  0  0  0  0  0  0  0  0  0  0
   58.3983   24.3806   46.8099 H   0  0  0  0  0  0  0  0  0  0  0  0
   56.6349   24.7367   46.9162 H   0  0  0  0  0  0  0  0  0  0  0  0
   58.7944   22.3721   45.6770 H   0  0  0  0  0  0  0  0  0  0  0  0
   58.3255   20.8201   43.7804 H   0  0  0  0  0  0  0  0  0  0  0  0
   56.5148   21.3528   42.1443 H   0  0  0  0  0  0  0  0  0  0  0  0
   55.1714   23.4406   42.4042 H   0  0  0  0  0  0  0  0  0  0  0  0
   55.6374   25.0017   44.2946 H   0  0  0  0  0  0  0  0  0  0  0  0
   59.1429   28.3515   45.6235 H   0  0  0  0  0  0  0  0  0  0  0  0
   59.5644   30.7048   44.9000 H   0  0  0  0  0  0  0  0  0  0  0  0
   57.4228   34.4569   44.2498 H   0  0  0  0  0  0  0  0  0  0  0  0
   56.3497   33.4198   45.2622 H   0  0  0  0  0  0  0  0  0  0  0  0
   57.1691   32.4125   47.3597 H   0  0  0  0  0  0  0  0  0  0  0  0
   58.7735   32.6302   49.2589 H   0  0  0  0  0  0  0  0  0  0  0  0
   60.8293   34.0261   49.0069 H   0  0  0  0  0  0  0  0  0  0  0  0
   61.2820   35.2050   46.8525 H   0  0  0  0  0  0  0  0  0  0  0  0
   59.6840   34.9916   44.9502 H   0  0  0  0  0  0  0  0  0  0  0  0
   54.9201   28.9306   44.8550 H   0  0  0  0  0  0  0  0  0  0  0  0
  1  2  2  0
  2  3  1  0
  3  4  1  0
  4  5  1  0
  5  6  2  0
  6  7  1  0
  7  8  2  0
  8  9  1  0
  9 10  2  0
  2 11  1  0
 11 12  2  0
 12 13  1  0
 13 14  2  0
 14 15  1  0
 15 16  1  0
 16 17  1  0
 17 18  2  0
 18 19  1  0
 19 20  2  0
 20 21  1  0
 21 22  2  0
 14 23  1  0
 23 24  2  0
 10  5  1  0
 24 11  1  0
 22 17  1  0
  3 25  1  0
  4 26  1  0
  4 27  1  0
  6 28  1  0
  7 29  1  0
  8 30  1  0
  9 31  1  0
 10 32  1  0
 12 33  1  0
 13 34  1  0
 16 35  1  0
 16 36  1  0
 18 37  1  0
 19 38  1  0
 20 39  1  0
 21 40  1  0
 22 41  1  0
 24 42  1  0
M  END
>  <UniqueID>  (11) 
11

>  <SMILES>  (11) 
O=C(NCc1ccccc1)c1ccc(OCc2ccccc2)nc1

>  <Energy>  (11) 
43.42517355865469

>  <Genealogy>  (11) 
O=C(NCc1ccccc1)c1ccc(OCc2ccccc2)nc1 (3D coordinates assigned)
O=C(NCc1ccccc1)c1ccc(OCc2ccccc2)nc1 (optimized conformer: 43.42517355865469 kcal/mol)

>  <smiles>  (11) 
O=C(NCc1ccccc1)c1ccc(OCc2ccccc2)nc1

>  <score_type>  (11) 
oracle

>  <origin>  (11) 
adg

>  <m_score__min__energy>  (11) 
-8.1400000000000006

>  <m_primary>  (11) 
energy

$$$$
11:0
     RDKit          3D

 58 61  0  0  0  0  0  0  0  0999 V2000
   55.8910   30.1560   43.5220 C   0  0  0  0  0  0  0  0  0  0  0  0
   56.2160   29.8350   44.8700 O   0  0  0  0  0  0  0  0  0  0  0  0
   57.4070   29.2100   45.2690 C   0  0  0  0  0  0  0  0  0  0  0  0
   57.8490   27.9980   44.7090 C   0  0  0  0  0  0  0  0  0  0  0  0
   59.0470   27.4200   45.1410 C   0  0  0  0  0  0  0  0  0  0  0  0
   59.8090   28.0400   46.1340 C   0  0  0  0  0  0  0  0  0  0  0  0
   59.3750   29.2440   46.7090 C   0  0  0  0  0  0  0  0  0  0  0  0
   60.1910   29.9180   47.7830 C   0  0  0  0  0  0  0  0  0  0  0  0
   61.0290   31.0580   47.1960 C   0  0  0  0  0  0  0  0  0  0  0  0
   61.9720   31.6470   48.2210 C   0  0  0  0  0  0  0  0  0  0  0  0
   62.3420   30.8520   49.3200 C   0  0  0  0  0  0  0  0  0  0  0  0
   63.3030   31.2970   50.2300 C   0  0  0  0  0  0  0  0  0  0  0  0
   63.9190   32.5340   50.0460 C   0  0  0  0  0  0  0  0  0  0  0  0
   63.5590   33.3410   48.9660 C   0  0  0  0  0  0  0  0  0  0  0  0
   62.5560   32.9310   48.0710 C   0  0  0  0  0  0  0  0  0  0  0  0
   62.1860   33.8430   46.9700 C   0  0  0  0  0  0  0  0  0  0  0  0
   62.9780   33.9750   46.0010 O   0  0  0  0  0  0  0  0  0  0  0  0
   60.9360   34.5490   46.9420 N   0  0  0  0  0  0  0  0  0  0  0  0
   59.6870   34.1200   46.3690 C   0  0  0  0  0  0  0  0  0  0  0  0
   59.4390   34.2190   44.9860 C   0  0  0  0  0  0  0  0  0  0  0  0
   58.2110   33.8250   44.4540 C   0  0  0  0  0  0  0  0  0  0  0  0
   57.2220   33.3060   45.2880 C   0  0  0  0  0  0  0  0  0  0  0  0
   57.4660   33.1590   46.6530 C   0  0  0  0  0  0  0  0  0  0  0  0
   58.7010   33.5460   47.2040 C   0  0  0  0  0  0  0  0  0  0  0  0
   58.9460   33.3560   48.6100 N   0  0  0  0  0  0  0  0  0  0  0  0
   58.2450   32.2970   49.3440 C   0  0  0  0  0  0  0  0  0  0  0  0
   59.1370   31.7270   50.4710 C   0  0  0  0  0  0  0  0  0  0  0  0
   60.3120   32.4850   50.7110 O   0  0  0  0  0  0  0  0  0  0  0  0
   60.0030   33.8620   50.7740 C   0  0  0  0  0  0  0  0  0  0  0  0
   59.6700   34.3800   49.3720 C   0  0  0  0  0  0  0  0  0  0  0  0
   58.1770   29.8250   46.2640 C   0  0  0  0  0  0  0  0  0  0  0  0
   55.1084   30.9289   43.5076 H   0  0  0  0  0  0  0  0  0  0  0  0
   56.7878   30.5326   43.0083 H   0  0  0  0  0  0  0  0  0  0  0  0
   55.5255   29.2546   43.0083 H   0  0  0  0  0  0  0  0  0  0  0  0
   57.2510   27.5035   43.9294 H   0  0  0  0  0  0  0  0  0  0  0  0
   59.3904   26.4739   44.6973 H   0  0  0  0  0  0  0  0  0  0  0  0
   60.7526   27.5827   46.4664 H   0  0  0  0  0  0  0  0  0  0  0  0
   59.5137   30.3255   48.5480 H   0  0  0  0  0  0  0  0  0  0  0  0
   60.8694   29.1753   48.2280 H   0  0  0  0  0  0  0  0  0  0  0  0
   61.6180   30.6691   46.3523 H   0  0  0  0  0  0  0  0  0  0  0  0
   60.3429   31.8521   46.8664 H   0  0  0  0  0  0  0  0  0  0  0  0
   61.8695   29.8692   49.4644 H   0  0  0  0  0  0  0  0  0  0  0  0
   63.5743   30.6710   51.0928 H   0  0  0  0  0  0  0  0  0  0  0  0
   64.6898   32.8744   50.7531 H   0  0  0  0  0  0  0  0  0  0  0  0
   64.0645   34.3061   48.8139 H   0  0  0  0  0  0  0  0  0  0  0  0
   60.2211   34.6107   44.3190 H   0  0  0  0  0  0  0  0  0  0  0  0
   58.0229   33.9241   43.3747 H   0  0  0  0  0  0  0  0  0  0  0  0
   56.2483   33.0122   44.8690 H   0  0  0  0  0  0  0  0  0  0  0  0
   56.6864   32.7370   47.3042 H   0  0  0  0  0  0  0  0  0  0  0  0
   57.3268   32.7115   49.7857 H   0  0  0  0  0  0  0  0  0  0  0  0
   58.0003   31.4851   48.6434 H   0  0  0  0  0  0  0  0  0  0  0  0
   58.5472   31.6986   51.3991 H   0  0  0  0  0  0  0  0  0  0  0  0
   59.4618   30.7271   50.1473 H   0  0  0  0  0  0  0  0  0  0  0  0
   59.1367   34.0126   51.4349 H   0  0  0  0  0  0  0  0  0  0  0  0
   60.8693   34.4124   51.1699 H   0  0  0  0  0  0  0  0  0  0  0  0
   59.0433   35.2800   49.4569 H   0  0  0  0  0  0  0  0  0  0  0  0
   60.6064   34.6213   48.8476 H   0  0  0  0  0  0  0  0  0  0  0  0
   57.8388   30.7755   46.7025 H   0  0  0  0  0  0  0  0  0  0  0  0
  1  2  1  0
  2  3  1  0
  3  4  2  0
  4  5  1  0
  5  6  2  0
  6  7  1  0
  7  8  1  0
  8  9  1  0
  9 10  1  0
 10 11  2  0
 11 12  1  0
 12 13  2  0
 13 14  1  0
 14 15  2  0
 15 16  1  0
 16 17  2  0
 16 18  1  0
 18 19  1  0
 19 20  2  0
 20 21  1  0
 21 22  2  0
 22 23  1  0
 23 24  2  0
 24 25  1  0
 25 26  1  0
 26 27  1  0
 27 28  1  0
 28 29  1  0
 29 30  1  0
  7 31  2  0
 31  3  1  0
 15 10  1  0
 24 19  1  0
 30 25  1  0
  1 32  1  0
  1 33  1  0
  1 34  1  0
  4 35  1  0
  5 36  1  0
  6 37  1  0
  8 38  1  0
  8 39  1  0
  9 40  1  0
  9 41  1  0
 11 42  1  0
 12 43  1  0
 13 44  1  0
 14 45  1  0
 20 46  1  0
 21 47  1  0
 22 48  1  0
 23 49  1  0
 26 50  1  0
 26 51  1  0
 27 52  1  0
 27 53  1  0
 29 54  1  0
 29 55  1  0
 30 56  1  0
 30 57  1  0
 31 58  1  0
M  CHG  1  18  -1
M  END
>  <UniqueID>  (12) 
12

>  <SMILES>  (12) 
COc1cccc(CCc2ccccc2C(=O)[N-]c2ccccc2N2CCOCC2)c1

>  <Energy>  (12) 
78.1615697920926

>  <Genealogy>  (12) 
COc1cccc(CCc2ccccc2C(=O)[N-]c2ccccc2N2CCOCC2)c1 (protonated)
COc1cccc(CCc2ccccc2C(=O)[N-]c2ccccc2N2CCOCC2)c1 (3D coordinates assigned)
COc1cccc(CCc2ccccc2C(=O)[N-]c2ccccc2N2CCOCC2)c1 (nonaromatic ring conformer: 78.1615697920926 kcal/mol)

>  <smiles>  (12) 
COc1cccc(CCc2ccccc2C(=O)Nc2ccccc2N2CCOCC2)c1

>  <score_type>  (12) 
oracle

>  <origin>  (12) 
adg

>  <m_score__min__energy>  (12) 
-10.390000000000001

>  <m_primary>  (12) 
energy

$$$$
12:0
     RDKit          3D

 48 50  0  0  0  0  0  0  0  0999 V2000
   55.1950   26.6280   45.9920 N   0  0  0  0  0  0  0  0  0  0  0  0
   56.5390   25.5870   46.2950 S   0  0  0  0  0  0  0  0  0  0  0  0
   56.7390   24.6780   45.1160 O   0  0  0  0  0  0  0  0  0  0  0  0
   56.2600   24.7460   47.5080 O   0  0  0  0  0  0  0  0  0  0  0  0
   57.9830   26.5560   46.5690 C   0  0  0  0  0  0  0  0  0  0  0  0
   59.2430   26.0440   46.2340 C   0  0  0  0  0  0  0  0  0  0  0  0
   60.3930   26.8010   46.4710 C   0  0  0  0  0  0  0  0  0  0  0  0
   60.2920   28.0720   47.0420 C   0  0  0  0  0  0  0  0  0  0  0  0
   59.0360   28.6050   47.3680 C   0  0  0  0  0  0  0  0  0  0  0  0
   58.9580   29.8960   47.9930 N   0  0  0  0  0  0  0  0  0  0  0  0
   58.9420   30.0790   49.4120 C   0  0  0  0  0  0  0  0  0  0  0  0
   58.1720   29.3840   50.1290 O   0  0  0  0  0  0  0  0  0  0  0  0
   59.8780   31.0580   50.0470 C   0  0  0  0  0  0  0  0  0  0  0  0
   60.0660   32.2240   49.1620 N   0  0  0  0  0  0  0  0  0  0  0  0
   58.9010   33.0890   48.8970 C   0  0  0  0  0  0  0  0  0  0  0  0
   58.9440   33.6500   47.4900 C   0  0  0  0  0  0  0  0  0  0  0  0
   59.5710   34.8840   47.2430 C   0  0  0  0  0  0  0  0  0  0  0  0
   59.6600   35.3900   45.9430 C   0  0  0  0  0  0  0  0  0  0  0  0
   59.1220   34.6730   44.8750 C   0  0  0  0  0  0  0  0  0  0  0  0
   58.4930   33.4480   45.1030 C   0  0  0  0  0  0  0  0  0  0  0  0
   58.4000   32.9330   46.4010 C   0  0  0  0  0  0  0  0  0  0  0  0
   57.7730   31.7070   46.5950 O   0  0  0  0  0  0  0  0  0  0  0  0
   61.3810   32.5410   48.6250 C   0  0  0  0  0  0  0  0  0  0  0  0
   62.1080   33.6530   49.1040 C   0  0  0  0  0  0  0  0  0  0  0  0
   63.3960   33.9220   48.6340 C   0  0  0  0  0  0  0  0  0  0  0  0
   63.9800   33.0950   47.6760 C   0  0  0  0  0  0  0  0  0  0  0  0
   63.2760   31.9980   47.1810 C   0  0  0  0  0  0  0  0  0  0  0  0
   61.9880   31.7220   47.6490 C   0  0  0  0  0  0  0  0  0  0  0  0
   57.8820   27.8300   47.1400 C   0  0  0  0  0  0  0  0  0  0  0  0
   55.5180   27.3510   45.3130 H   0  0  0  0  0  0  0  0  0  0  0  0
   59.3272   25.0440   45.7835 H   0  0  0  0  0  0  0  0  0  0  0  0
   61.3808   26.3951   46.2073 H   0  0  0  0  0  0  0  0  0  0  0  0
   61.2023   28.6580   47.2370 H   0  0  0  0  0  0  0  0  0  0  0  0
   59.0230   30.7500   47.3920 H   0  0  0  0  0  0  0  0  0  0  0  0
   59.4582   31.3932   51.0069 H   0  0  0  0  0  0  0  0  0  0  0  0
   60.8502   30.5714   50.2144 H   0  0  0  0  0  0  0  0  0  0  0  0
   57.9807   32.4992   49.0202 H   0  0  0  0  0  0  0  0  0  0  0  0
   58.9216   33.9285   49.6076 H   0  0  0  0  0  0  0  0  0  0  0  0
   59.9955   35.4567   48.0807 H   0  0  0  0  0  0  0  0  0  0  0  0
   60.1553   36.3554   45.7623 H   0  0  0  0  0  0  0  0  0  0  0  0
   59.1933   35.0728   43.8527 H   0  0  0  0  0  0  0  0  0  0  0  0
   58.0685   32.8849   44.2588 H   0  0  0  0  0  0  0  0  0  0  0  0
   61.6547   34.3154   49.8562 H   0  0  0  0  0  0  0  0  0  0  0  0
   63.9509   34.7892   49.0213 H   0  0  0  0  0  0  0  0  0  0  0  0
   64.9956   33.3076   47.3107 H   0  0  0  0  0  0  0  0  0  0  0  0
   63.7349   31.3486   46.4209 H   0  0  0  0  0  0  0  0  0  0  0  0
   61.4403   30.8549   47.2512 H   0  0  0  0  0  0  0  0  0  0  0  0
   56.8939   28.2291   47.4128 H   0  0  0  0  0  0  0  0  0  0  0  0
  1  2  1  0
  2  3  2  0
  2  4  2  0
  2  5  1  0
  5  6  2  0
  6  7  1  0
  7  8  2  0
  8  9  1  0
  9 10  1  0
 10 11  1  0
 11 12  2  0
 11 13  1  0
 13 14  1  0
 14 15  1  0
 15 16  1  0
 16 17  2  0
 17 18  1  0
 18 19  2  0
 19 20  1  0
 20 21  2  0
 21 22  1  0
 14 23  1  0
 23 24  2  0
 24 25  1  0
 25 26  2  0
 26 27  1  0
 27 28  2  0
  9 29  2  0
 29  5  1  0
 21 16  1  0
 28 23  1  0
  1 30  1  0
  6 31  1  0
  7 32  1  0
  8 33  1  0
 10 34  1  0
 13 35  1  0
 13 36  1  0
 15 37  1  0
 15 38  1  0
 17 39  1  0
 18 40  1  0
 19 41  1  0
 20 42  1  0
 24 43  1  0
 25 44  1  0
 26 45  1  0
 27 46  1  0
 28 47  1  0
 29 48  1  0
M  CHG  2   1  -1  22  -1
M  END
>  <UniqueID>  (13) 
13

>  <SMILES>  (13) 
[NH-]S(=O)(=O)c1cccc(NC(=O)CN(Cc2ccccc2[O-])c2ccccc2)c1

>  <Energy>  (13) 
53.241186581584934

>  <Genealogy>  (13) 
[NH-]S(=O)(=O)c1cccc(NC(=O)CN(Cc2ccccc2[O-])c2ccccc2)c1 (protonated)
[NH-]S(=O)(=O)c1cccc(NC(=O)CN(Cc2ccccc2[O-])c2ccccc2)c1 (3D coordinates assigned)
[NH-]S(=O)(=O)c1cccc(NC(=O)CN(Cc2ccccc2[O-])c2ccccc2)c1 (optimized conformer: 53.241186581584934 kcal/mol)

>  <smiles>  (13) 
NS(=O)(=O)c1cccc(NC(=O)CN(Cc2ccccc2O)c2ccccc2)c1

>  <score_type>  (13) 
oracle

>  <origin>  (13) 
adg

>  <m_score__min__energy>  (13) 
-14.529999999999999

>  <m_primary>  (13) 
energy

$$$$
13:0
     RDKit          3D

 60 63  0  0  0  0  0  0  0  0999 V2000
   65.9840   32.0110   52.7840 C   0  0  0  0  0  0  0  0  0  0  0  0
   66.3710   32.8910   51.2840 S   0  0  0  0  0  0  0  0  0  0  0  0
   67.3340   32.0470   50.4970 O   0  0  0  0  0  0  0  0  0  0  0  0
   67.0400   34.1950   51.6160 O   0  0  0  0  0  0  0  0  0  0  0  0
   64.9090   33.1880   50.3220 C   0  0  0  0  0  0  0  0  0  0  0  0
   64.8220   32.6270   49.0390 C   0  0  0  0  0  0  0  0  0  0  0  0
   63.6740   32.7920   48.2620 C   0  0  0  0  0  0  0  0  0  0  0  0
   62.5810   33.5220   48.7510 C   0  0  0  0  0  0  0  0  0  0  0  0
   61.3560   33.6900   47.9280 C   0  0  0  0  0  0  0  0  0  0  0  0
   61.4420   33.7680   46.5270 C   0  0  0  0  0  0  0  0  0  0  0  0
   60.2900   33.9330   45.7530 C   0  0  0  0  0  0  0  0  0  0  0  0
   59.0300   34.0150   46.3640 C   0  0  0  0  0  0  0  0  0  0  0  0
   57.7960   34.2310   45.5280 C   0  0  0  0  0  0  0  0  0  0  0  0
   56.9700   32.9430   45.4050 C   0  0  0  0  0  0  0  0  0  0  0  0
   57.8380   31.7630   45.2120 N   0  0  0  0  0  0  0  0  0  0  0  0
   58.1380   31.0640   46.4640 C   0  0  0  0  0  0  0  0  0  0  0  0
   58.4810   29.6210   46.1040 C   0  0  0  0  0  0  0  0  0  0  0  0
   58.1870   29.4820   44.6170 C   0  0  0  0  0  0  0  0  0  0  0  0
   57.4000   30.7360   44.2450 C   0  0  1  0  0  0  0  0  0  0  0  0
   55.8760   30.4510   44.2270 C   0  0  0  0  0  0  0  0  0  0  0  0
   55.5420   29.4240   45.1200 O   0  0  0  0  0  0  0  0  0  0  0  0
   58.9400   33.9390   47.7630 C   0  0  0  0  0  0  0  0  0  0  0  0
   60.0920   33.7770   48.5380 C   0  0  0  0  0  0  0  0  0  0  0  0
   62.6630   34.0930   50.0310 C   0  0  0  0  0  0  0  0  0  0  0  0
   63.8180   33.9440   50.8170 C   0  0  0  0  0  0  0  0  0  0  0  0
   63.8430   34.5910   52.1430 C   0  0  0  0  0  0  0  0  0  0  0  0
   64.5640   35.7810   52.3310 C   0  0  0  0  0  0  0  0  0  0  0  0
   64.6010   36.3880   53.5890 C   0  0  0  0  0  0  0  0  0  0  0  0
   63.9320   35.8050   54.6680 C   0  0  0  0  0  0  0  0  0  0  0  0
   63.2300   34.6090   54.4920 C   0  0  0  0  0  0  0  0  0  0  0  0
   63.1910   33.9970   53.2360 C   0  0  0  0  0  0  0  0  0  0  0  0
   66.2559   32.6292   53.6523 H   0  0  0  0  0  0  0  0  0  0  0  0
   64.9064   31.7918   52.8129 H   0  0  0  0  0  0  0  0  0  0  0  0
   66.5508   31.0687   52.8129 H   0  0  0  0  0  0  0  0  0  0  0  0
   65.6692   32.0498   48.6402 H   0  0  0  0  0  0  0  0  0  0  0  0
   63.6264   32.3457   47.2578 H   0  0  0  0  0  0  0  0  0  0  0  0
   62.4239   33.6986   46.0360 H   0  0  0  0  0  0  0  0  0  0  0  0
   60.3719   33.9990   44.6580 H   0  0  0  0  0  0  0  0  0  0  0  0
   57.1771   35.0095   45.9980 H   0  0  0  0  0  0  0  0  0  0  0  0
   58.1105   34.5381   44.5196 H   0  0  0  0  0  0  0  0  0  0  0  0
   56.3799   32.8070   46.3233 H   0  0  0  0  0  0  0  0  0  0  0  0
   56.3117   33.0359   44.5286 H   0  0  0  0  0  0  0  0  0  0  0  0
   58.9928   31.5405   46.9663 H   0  0  0  0  0  0  0  0  0  0  0  0
   57.2776   31.1019   47.1483 H   0  0  0  0  0  0  0  0  0  0  0  0
   59.5434   29.4186   46.3047 H   0  0  0  0  0  0  0  0  0  0  0  0
   57.8959   28.9055   46.7004 H   0  0  0  0  0  0  0  0  0  0  0  0
   59.1233   29.4296   44.0420 H   0  0  0  0  0  0  0  0  0  0  0  0
   57.6253   28.5630   44.3934 H   0  0  0  0  0  0  0  0  0  0  0  0
   57.5968   31.0931   43.2234 H   0  0  0  0  0  0  0  0  0  0  0  0
   55.3365   31.3656   44.5140 H   0  0  0  0  0  0  0  0  0  0  0  0
   55.5925   30.1359   43.2119 H   0  0  0  0  0  0  0  0  0  0  0  0
   55.8340   29.7310   46.0170 H   0  0  0  0  0  0  0  0  0  0  0  0
   57.9571   34.0073   48.2522 H   0  0  0  0  0  0  0  0  0  0  0  0
   60.0091   33.7171   49.6332 H   0  0  0  0  0  0  0  0  0  0  0  0
   61.8102   34.6656   50.4244 H   0  0  0  0  0  0  0  0  0  0  0  0
   65.1010   36.2365   51.4860 H   0  0  0  0  0  0  0  0  0  0  0  0
   65.1577   37.3262   53.7300 H   0  0  0  0  0  0  0  0  0  0  0  0
   63.9576   36.2872   55.6563 H   0  0  0  0  0  0  0  0  0  0  0  0
   62.7074   34.1487   55.3435 H   0  0  0  0  0  0  0  0  0  0  0  0
   62.6490   33.0490   53.1034 H   0  0  0  0  0  0  0  0  0  0  0  0
  1  2  1  0
  2  3  2  0
  2  4  2  0
  2  5  1  0
  5  6  2  0
  6  7  1  0
  7  8  2  0
  8  9  1  0
  9 10  2  0
 10 11  1  0
 11 12  2  0
 12 13  1  0
 13 14  1  0
 14 15  1  0
 15 16  1  0
 16 17  1  0
 17 18  1  0
 18 19  1  0
 19 20  1  0
 20 21  1  0
 12 22  1  0
 22 23  2  0
  8 24  1  0
 24 25  2  0
 25 26  1  0
 26 27  2  0
 27 28  1  0
 28 29  2  0
 29 30  1  0
 30 31  2  0
 25  5  1  0
 31 26  1  0
 23  9  1  0
 19 15  1  0
  1 32  1  0
  1 33  1  0
  1 34  1  0
  6 35  1  0
  7 36  1  0
 10 37  1  0
 11 38  1  0
 13 39  1  0
 13 40  1  0
 14 41  1  0
 14 42  1  0
 16 43  1  0
 16 44  1  0
 17 45  1  0
 17 46  1  0
 18 47  1  0
 18 48  1  0
 19 49  1  6
 20 50  1  0
 20 51  1  0
 21 52  1  0
 22 53  1  0
 23 54  1  0
 24 55  1  0
 27 56  1  0
 28 57  1  0
 29 58  1  0
 30 59  1  0
 31 60  1  0
M  END
>  <UniqueID>  (14) 
14

>  <SMILES>  (14) 
CS(=O)(=O)c1ccc(-c2ccc(CCN3CCC[C@H]3CO)cc2)cc1-c1ccccc1

>  <Energy>  (14) 
78.86832130556185

>  <Genealogy>  (14) 
CS(=O)(=O)c1ccc(-c2ccc(CCN3CCC[C@H]3CO)cc2)cc1-c1ccccc1 (chirality)
CS(=O)(=O)c1ccc(-c2ccc(CCN3CCC[C@H]3CO)cc2)cc1-c1ccccc1 (3D coordinates assigned)
CS(=O)(=O)c1ccc(-c2ccc(CCN3CCC[C@H]3CO)cc2)cc1-c1ccccc1 (nonaromatic ring conformer: 78.86832130556185 kcal/mol)

>  <smiles>  (14) 
CS(=O)(=O)c1ccc(-c2ccc(CCN3CCCC3CO)cc2)cc1-c1ccccc1

>  <score_type>  (14) 
oracle

>  <origin>  (14) 
adg

>  <m_score__min__energy>  (14) 
-9.4199999999999999

>  <m_primary>  (14) 
energy

$$$$
14:0
     RDKit          3D

 62 64  0  0  0  0  0  0  0  0999 V2000
   59.6150   35.2560   46.5350 C   0  0  0  0  0  0  0  0  0  0  0  0
   59.3830   34.2550   45.4080 C   0  0  0  0  0  0  0  0  0  0  0  0
   57.8890   34.1600   45.0560 C   0  0  0  0  0  0  0  0  0  0  0  0
   57.3260   32.7400   45.2250 C   0  0  0  0  0  0  0  0  0  0  0  0
   58.3260   31.6480   44.8100 C   0  0  0  0  0  0  0  0  0  0  0  0
   57.6110   30.3440   44.5560 C   0  0  0  0  0  0  0  0  0  0  0  0
   56.3900   30.3200   44.6480 O   0  0  0  0  0  0  0  0  0  0  0  0
   58.3450   29.1260   44.2440 N   0  0  0  0  0  0  0  0  0  0  0  0
   57.7550   27.9600   44.9380 C   0  0  0  0  0  0  0  0  0  0  0  0
   57.9630   28.0150   46.4600 C   0  0  0  0  0  0  0  0  0  0  0  0
   59.3080   28.4890   46.7860 N   0  0  0  0  0  0  0  0  0  0  0  0
   59.6850   28.6490   48.1610 C   0  0  0  0  0  0  0  0  0  0  0  0
   60.3690   27.6170   48.8220 C   0  0  0  0  0  0  0  0  0  0  0  0
   60.7030   27.7440   50.1740 C   0  0  0  0  0  0  0  0  0  0  0  0
   60.3720   28.9060   50.8750 C   0  0  0  0  0  0  0  0  0  0  0  0
   59.7050   29.9460   50.2220 C   0  0  0  0  0  0  0  0  0  0  0  0
   59.3310   29.8130   48.8720 C   0  0  0  0  0  0  0  0  0  0  0  0
   58.6300   30.8670   48.1900 N   0  0  0  0  0  0  0  0  0  0  0  0
   58.7450   32.2770   48.4270 C   0  0  0  0  0  0  0  0  0  0  0  0
   57.7320   32.9930   48.2110 O   0  0  0  0  0  0  0  0  0  0  0  0
   59.9200   32.8760   49.0310 N   0  0  0  0  0  0  0  0  0  0  0  0
   59.7810   33.6380   50.2840 C   0  0  0  0  0  0  0  0  0  0  0  0
   61.2150   32.8210   48.4100 C   0  0  0  0  0  0  0  0  0  0  0  0
   62.0850   33.9180   48.4870 C   0  0  0  0  0  0  0  0  0  0  0  0
   63.3650   33.8380   47.9320 C   0  0  0  0  0  0  0  0  0  0  0  0
   63.7690   32.6770   47.2630 C   0  0  0  0  0  0  0  0  0  0  0  0
   62.8920   31.5940   47.1490 C   0  0  0  0  0  0  0  0  0  0  0  0
   61.6130   31.6660   47.7120 C   0  0  0  0  0  0  0  0  0  0  0  0
   60.3320   28.5600   45.7410 C   0  0  0  0  0  0  0  0  0  0  0  0
   59.8090   29.2870   44.4850 C   0  0  0  0  0  0  0  0  0  0  0  0
   59.4977   34.7501   47.5047 H   0  0  0  0  0  0  0  0  0  0  0  0
   60.6323   35.6672   46.4566 H   0  0  0  0  0  0  0  0  0  0  0  0
   58.8823   36.0727   46.4566 H   0  0  0  0  0  0  0  0  0  0  0  0
   59.9426   34.5788   44.5181 H   0  0  0  0  0  0  0  0  0  0  0  0
   59.7288   33.2653   45.7409 H   0  0  0  0  0  0  0  0  0  0  0  0
   57.3290   34.8406   45.7141 H   0  0  0  0  0  0  0  0  0  0  0  0
   57.7804   34.4352   43.9965 H   0  0  0  0  0  0  0  0  0  0  0  0
   57.0614   32.5906   46.2822 H   0  0  0  0  0  0  0  0  0  0  0  0
   56.4484   32.6518   44.5677 H   0  0  0  0  0  0  0  0  0  0  0  0
   58.8436   31.9616   43.8915 H   0  0  0  0  0  0  0  0  0  0  0  0
   59.0514   31.5027   45.6240 H   0  0  0  0  0  0  0  0  0  0  0  0
   58.2330   28.9440   43.2190 H   0  0  0  0  0  0  0  0  0  0  0  0
   56.6751   27.9347   44.7300 H   0  0  0  0  0  0  0  0  0  0  0  0
   58.2597   27.0571   44.5636 H   0  0  0  0  0  0  0  0  0  0  0  0
   57.2232   28.6998   46.9001 H   0  0  0  0  0  0  0  0  0  0  0  0
   57.8388   27.0013   46.8687 H   0  0  0  0  0  0  0  0  0  0  0  0
   60.6437   26.7037   48.2739 H   0  0  0  0  0  0  0  0  0  0  0  0
   61.2286   26.9255   50.6876 H   0  0  0  0  0  0  0  0  0  0  0  0
   60.6358   29.0022   51.9386 H   0  0  0  0  0  0  0  0  0  0  0  0
   59.4712   30.8731   50.7659 H   0  0  0  0  0  0  0  0  0  0  0  0
   59.9047   32.9598   51.1412 H   0  0  0  0  0  0  0  0  0  0  0  0
   60.5508   34.4228   50.3232 H   0  0  0  0  0  0  0  0  0  0  0  0
   58.7837   34.1004   50.3232 H   0  0  0  0  0  0  0  0  0  0  0  0
   61.7594   34.8431   48.9851 H   0  0  0  0  0  0  0  0  0  0  0  0
   64.0562   34.6890   48.0211 H   0  0  0  0  0  0  0  0  0  0  0  0
   64.7769   32.6165   46.8267 H   0  0  0  0  0  0  0  0  0  0  0  0
   63.2077   30.6848   46.6164 H   0  0  0  0  0  0  0  0  0  0  0  0
   60.9184   30.8193   47.6088 H   0  0  0  0  0  0  0  0  0  0  0  0
   61.2043   29.1044   46.1318 H   0  0  0  0  0  0  0  0  0  0  0  0
   60.6062   27.5335   45.4564 H   0  0  0  0  0  0  0  0  0  0  0  0
   60.0236   30.3603   44.5944 H   0  0  0  0  0  0  0  0  0  0  0  0
   60.3207   28.8329   43.6236 H   0  0  0  0  0  0  0  0  0  0  0  0
  1  2  1  0
  2  3  1  0
  3  4  1  0
  4  5  1  0
  5  6  1  0
  6  7  2  0
  6  8  1  0
  8  9  1  0
  9 10  1  0
 10 11  1  0
 11 12  1  0
 12 13  2  0
 13 14  1  0
 14 15  2  0
 15 16  1  0
 16 17  2  0
 17 18  1  0
 18 19  1  0
 19 20  2  0
 19 21  1  0
 21 22  1  0
 21 23  1  0
 23 24  2  0
 24 25  1  0
 25 26  2  0
 26 27  1  0
 27 28  2  0
 11 29  1  0
 29 30  1  0
 30  8  1  0
 17 12  1  0
 28 23  1  0
  1 31  1  0
  1 32  1  0
  1 33  1  0
  2 34  1  0
  2 35  1  0
  3 36  1  0
  3 37  1  0
  4 38  1  0
  4 39  1  0
  5 40  1  0
  5 41  1  0
  8 42  1  0
  9 43  1  0
  9 44  1  0
 10 45  1  0
 10 46  1  0
 13 47  1  0
 14 48  1  0
 15 49  1  0
 16 50  1  0
 22 51  1  0
 22 52  1  0
 22 53  1  0
 24 54  1  0
 25 55  1  0
 26 56  1  0
 27 57  1  0
 28 58  1  0
 29 59  1  0
 29 60  1  0
 30 61  1  0
 30 62  1  0
M  CHG  2   8   1  18  -1
M  END
>  <UniqueID>  (15) 
15

>  <SMILES>  (15) 
CCCCCC(=O)[NH+]1CCN(c2ccccc2[N-]C(=O)N(C)c2ccccc2)CC1

>  <Energy>  (15) 
77.63702224389573

>  <Genealogy>  (15) 
CCCCCC(=O)[NH+]1CCN(c2ccccc2[N-]C(=O)N(C)c2ccccc2)CC1 (protonated)
CCCCCC(=O)[NH+]1CCN(c2ccccc2[N-]C(=O)N(C)c2ccccc2)CC1 (3D coordinates assigned)
CCCCCC(=O)[NH+]1CCN(c2ccccc2[N-]C(=O)N(C)c2ccccc2)CC1 (nonaromatic ring conformer: 77.63702224389573 kcal/mol)

>  <smiles>  (15) 
CCCCCC(=O)N1CCN(c2ccccc2NC(=O)N(C)c2ccccc2)CC1

>  <score_type>  (15) 
oracle

>  <origin>  (15) 
adg

>  <m_score__min__energy>  (15) 
-8.0299999999999994

>  <m_primary>  (15) 
energy

$$$$
15:0
     RDKit          3D

 46 49  0  0  0  0  0  0  0  0999 V2000
   61.8280   33.4690   51.7080 O   0  0  0  0  0  0  0  0  0  0  0  0
   61.3090   33.1060   50.6170 C   0  0  0  0  0  0  0  0  0  0  0  0
   62.1690   33.0260   49.4010 C   0  0  0  0  0  0  0  0  0  0  0  0
   62.5030   31.7890   48.8090 C   0  0  0  0  0  0  0  0  0  0  0  0
   63.2970   31.7430   47.6610 C   0  0  0  0  0  0  0  0  0  0  0  0
   63.7640   32.9240   47.0810 C   0  0  0  0  0  0  0  0  0  0  0  0
   63.4450   34.1550   47.6550 C   0  0  0  0  0  0  0  0  0  0  0  0
   62.6570   34.2090   48.8080 C   0  0  0  0  0  0  0  0  0  0  0  0
   59.8240   32.7630   50.5740 C   0  0  1  0  0  0  0  0  0  0  0  0
   58.9070   33.8150   51.2530 C   0  0  0  0  0  0  0  0  0  0  0  0
   58.1400   33.3350   52.5020 C   0  0  0  0  0  0  0  0  0  0  0  0
   57.7090   31.9370   52.4020 N   0  0  0  0  0  0  0  0  0  0  0  0
   58.3500   30.8720   52.9130 C   0  0  0  0  0  0  0  0  0  0  0  0
   57.6910   29.7360   52.4980 C   0  0  0  0  0  0  0  0  0  0  0  0
   56.6590   30.0790   51.7020 N   0  0  0  0  0  0  0  0  0  0  0  0
   56.7080   31.4270   51.6520 C   0  0  0  0  0  0  0  0  0  0  0  0
   59.3320   32.3950   49.2140 N   0  0  0  0  0  0  0  0  0  0  0  0
   59.0110   31.0960   48.8700 C   0  0  0  0  0  0  0  0  0  0  0  0
   59.1330   30.1560   49.7030 O   0  0  0  0  0  0  0  0  0  0  0  0
   58.5800   30.7950   47.6170 N   0  0  0  0  0  0  0  0  0  0  0  0
   58.4800   31.7450   46.6530 C   0  0  0  0  0  0  0  0  0  0  0  0
   58.0460   31.4060   45.3610 C   0  0  0  0  0  0  0  0  0  0  0  0
   57.9580   32.3870   44.3690 C   0  0  0  0  0  0  0  0  0  0  0  0
   57.4170   31.9570   42.7560 Cl  0  0  0  0  0  0  0  0  0  0  0  0
   58.3040   33.7090   44.6600 C   0  0  0  0  0  0  0  0  0  0  0  0
   58.7350   34.0550   45.9430 C   0  0  0  0  0  0  0  0  0  0  0  0
   58.8250   33.0740   46.9500 C   0  0  0  0  0  0  0  0  0  0  0  0
   59.2540   33.3790   48.2520 C   0  0  0  0  0  0  0  0  0  0  0  0
   59.5800   34.5680   48.5310 O   0  0  0  0  0  0  0  0  0  0  0  0
   62.1349   30.8535   49.2555 H   0  0  0  0  0  0  0  0  0  0  0  0
   63.5554   30.7726   47.2121 H   0  0  0  0  0  0  0  0  0  0  0  0
   64.3828   32.8840   46.1724 H   0  0  0  0  0  0  0  0  0  0  0  0
   63.8146   35.0853   47.1990 H   0  0  0  0  0  0  0  0  0  0  0  0
   62.4151   35.1835   49.2573 H   0  0  0  0  0  0  0  0  0  0  0  0
   59.7501   31.8550   51.1906 H   0  0  0  0  0  0  0  0  0  0  0  0
   59.5352   34.6676   51.5504 H   0  0  0  0  0  0  0  0  0  0  0  0
   58.1366   34.0630   50.5080 H   0  0  0  0  0  0  0  0  0  0  0  0
   58.7962   33.4386   53.3787 H   0  0  0  0  0  0  0  0  0  0  0  0
   57.2357   33.9545   52.5936 H   0  0  0  0  0  0  0  0  0  0  0  0
   59.2452   30.9023   53.5516 H   0  0  0  0  0  0  0  0  0  0  0  0
   57.9649   28.7070   52.7739 H   0  0  0  0  0  0  0  0  0  0  0  0
   56.0099   32.0422   51.0653 H   0  0  0  0  0  0  0  0  0  0  0  0
   58.3370   29.8020   47.3930 H   0  0  0  0  0  0  0  0  0  0  0  0
   57.7746   30.3656   45.1290 H   0  0  0  0  0  0  0  0  0  0  0  0
   58.2369   34.4789   43.8773 H   0  0  0  0  0  0  0  0  0  0  0  0
   59.0051   35.0974   46.1678 H   0  0  0  0  0  0  0  0  0  0  0  0
  1  2  2  0
  2  3  1  0
  3  4  2  0
  4  5  1  0
  5  6  2  0
  6  7  1  0
  7  8  2  0
  2  9  1  0
  9 10  1  0
 10 11  1  0
 11 12  1  0
 12 13  1  0
 13 14  2  0
 14 15  1  0
 15 16  2  0
  9 17  1  0
 17 18  1  0
 18 19  2  0
 18 20  1  0
 20 21  1  0
 21 22  2  0
 22 23  1  0
 23 24  1  0
 23 25  2  0
 25 26  1  0
 26 27  2  0
 27 28  1  0
 28 29  2  0
  8  3  1  0
 16 12  1  0
 28 17  1  0
 27 21  1  0
  4 30  1  0
  5 31  1  0
  6 32  1  0
  7 33  1  0
  8 34  1  0
  9 35  1  1
 10 36  1  0
 10 37  1  0
 11 38  1  0
 11 39  1  0
 13 40  1  0
 14 41  1  0
 16 42  1  0
 20 43  1  0
 22 44  1  0
 25 45  1  0
 26 46  1  0
M  END
>  <UniqueID>  (16) 
16

>  <SMILES>  (16) 
O=C(c1ccccc1)[C@@H](CCn1ccnc1)n1c(=O)[nH]c2cc(Cl)ccc2c1=O

>  <Energy>  (16) 
92.42069174304174

>  <Genealogy>  (16) 
O=C(c1ccccc1)[C@@H](CCn1ccnc1)n1c(=O)[nH]c2cc(Cl)ccc2c1=O (chirality)
O=C(c1ccccc1)[C@@H](CCn1ccnc1)n1c(=O)[nH]c2cc(Cl)ccc2c1=O (3D coordinates assigned)
O=C(c1ccccc1)[C@@H](CCn1ccnc1)n1c(=O)[nH]c2cc(Cl)ccc2c1=O (optimized conformer: 92.42069174304174 kcal/mol)

>  <smiles>  (16) 
O=C(c1ccccc1)C(CCn1ccnc1)n1c(=O)[nH]c2cc(Cl)ccc2c1=O

>  <score_type>  (16) 
oracle

>  <origin>  (16) 
adg

>  <m_score__min__energy>  (16) 
-8.0899999999999999

>  <m_primary>  (16) 
energy

$$$$
16:0
     RDKit          3D

 48 50  0  0  0  0  0  0  0  0999 V2000
   60.7419   25.1392   46.2400 H   0  0  0  0  0  0  0  0  0  0  0  0
   59.9410   25.8860   46.3440 C   0  0  0  0  0  0  0  0  0  0  0  0
   58.6510   25.4820   46.4810 N   0  0  0  0  0  0  0  0  0  0  0  0
   57.6240   26.3720   46.5990 C   0  0  0  0  0  0  0  0  0  0  0  0
   56.4020   25.9660   46.7890 N   0  0  0  0  0  0  0  0  0  0  0  0
   55.6260   25.1850   45.8690 C   0  0  0  0  0  0  0  0  0  0  0  0
   54.4300   25.5140   45.6470 O   0  0  0  0  0  0  0  0  0  0  0  0
   56.2000   24.0300   45.1470 C   0  0  0  0  0  0  0  0  0  0  0  0
   56.1080   23.9770   43.7480 C   0  0  0  0  0  0  0  0  0  0  0  0
   55.6128   24.7932   43.2016 H   0  0  0  0  0  0  0  0  0  0  0  0
   56.6410   22.8950   43.0450 C   0  0  0  0  0  0  0  0  0  0  0  0
   56.5557   22.8552   41.9490 H   0  0  0  0  0  0  0  0  0  0  0  0
   57.2820   21.8640   43.7330 C   0  0  0  0  0  0  0  0  0  0  0  0
   57.6933   21.0076   43.1785 H   0  0  0  0  0  0  0  0  0  0  0  0
   57.4030   21.9160   45.1240 C   0  0  0  0  0  0  0  0  0  0  0  0
   57.9156   21.1031   45.6592 H   0  0  0  0  0  0  0  0  0  0  0  0
   56.8720   23.0040   45.8450 C   0  0  0  0  0  0  0  0  0  0  0  0
   57.0170   23.1080   47.2380 O   0  0  0  0  0  0  0  0  0  0  0  0
   55.9970   22.7890   48.1800 C   0  0  0  0  0  0  0  0  0  0  0  0
   56.3890   22.9116   49.2005 H   0  0  0  0  0  0  0  0  0  0  0  0
   55.1391   23.4618   48.0335 H   0  0  0  0  0  0  0  0  0  0  0  0
   55.6753   21.7473   48.0335 H   0  0  0  0  0  0  0  0  0  0  0  0
   57.8950   27.7450   46.5740 C   0  0  0  0  0  0  0  0  0  0  0  0
   57.0724   28.4709   46.6543 H   0  0  0  0  0  0  0  0  0  0  0  0
   59.2210   28.1940   46.4460 C   0  0  0  0  0  0  0  0  0  0  0  0
   59.5170   29.6070   46.4000 N   0  0  0  0  0  0  0  0  0  0  0  0
   60.5330   29.7310   46.1830 H   0  0  0  0  0  0  0  0  0  0  0  0
   59.3430   30.0530   47.3310 H   0  0  0  0  0  0  0  0  0  0  0  0
   58.7260   30.2990   45.3680 C   0  0  0  0  0  0  0  0  0  0  0  0
   57.7049   29.8899   45.3694 H   0  0  0  0  0  0  0  0  0  0  0  0
   59.2180   30.1374   44.3975 H   0  0  0  0  0  0  0  0  0  0  0  0
   58.6550   31.7930   45.6140 C   0  0  0  0  0  0  0  0  0  0  0  0
   57.6250   32.5400   45.0200 C   0  0  0  0  0  0  0  0  0  0  0  0
   56.8605   32.0314   44.4143 H   0  0  0  0  0  0  0  0  0  0  0  0
   57.5650   33.9230   45.1930 C   0  0  0  0  0  0  0  0  0  0  0  0
   56.7532   34.5002   44.7263 H   0  0  0  0  0  0  0  0  0  0  0  0
   58.5330   34.5750   45.9570 C   0  0  0  0  0  0  0  0  0  0  0  0
   58.4808   35.6651   46.0949 H   0  0  0  0  0  0  0  0  0  0  0  0
   59.5680   33.8470   46.5470 C   0  0  0  0  0  0  0  0  0  0  0  0
   60.3259   34.3666   47.1516 H   0  0  0  0  0  0  0  0  0  0  0  0
   59.6480   32.4510   46.3730 C   0  0  0  0  0  0  0  0  0  0  0  0
   60.6910   31.6960   46.9350 O   0  0  0  0  0  0  0  0  0  0  0  0
   61.9080   32.2380   47.4330 C   0  0  0  0  0  0  0  0  0  0  0  0
   61.8900   32.2300   48.5328 H   0  0  0  0  0  0  0  0  0  0  0  0
   62.7530   31.6311   47.0757 H   0  0  0  0  0  0  0  0  0  0  0  0
   62.0222   33.2721   47.0757 H   0  0  0  0  0  0  0  0  0  0  0  0
   60.2520   27.2460   46.3350 C   0  0  0  0  0  0  0  0  0  0  0  0
   61.2978   27.5740   46.2416 H   0  0  0  0  0  0  0  0  0  0  0  0
  1  2  1  0
  2  3  1  0
  3  4  1  0
  4  5  2  0
  5  6  1  0
  6  7  2  0
  6  8  1  0
  8  9  2  0
  9 10  1  0
  9 11  1  0
 11 12  1  0
 11 13  2  0
 13 14  1  0
 13 15  1  0
 15 16  1  0
 15 17  2  0
 17 18  1  0
 18 19  1  0
 19 20  1  0
 19 21  1  0
 19 22  1  0
  4 23  1  0
 23 24  1  0
 23 25  2  0
 25 26  1  0
 26 27  1  0
 26 28  1  0
 26 29  1  0
 29 30  1  0
 29 31  1  0
 29 32  1  0
 32 33  2  0
 33 34  1  0
 33 35  1  0
 35 36  1  0
 35 37  2  0
 37 38  1  0
 37 39  1  0
 39 40  1  0
 39 41  2  0
 41 42  1  0
 42 43  1  0
 43 44  1  0
 43 45  1  0
 43 46  1  0
 25 47  1  0
 47 48  1  0
 47  2  2  0
 17  8  1  0
 41 32  1  0
M  CHG  2   3  -1  26   1
M  END
>  <UniqueID>  (17) 
17

>  <SMILES>  (17) 
COc1ccccc1C[NH2+]c1cc[n-]/c(=N\C(=O)c2ccccc2OC)c1

>  <Energy>  (17) 
57.697878826176215

>  <Genealogy>  (17) 
COc1ccccc1C[NH2+]c1cc[n-]c(=NC(=O)c2ccccc2OC)c1 (protonated)
COc1ccccc1C[NH2+]c1cc[n-]/c(=N\C(=O)c2ccccc2OC)c1 (cis-trans isomerization)
COc1ccccc1C[NH2+]c1cc[n-]/c(=N\C(=O)c2ccccc2OC)c1 (3D coordinates assigned)
COc1ccccc1C[NH2+]c1cc[n-]/c(=N\C(=O)c2ccccc2OC)c1 (optimized conformer: 57.697878826176215 kcal/mol)

>  <smiles>  (17) 
COc1ccccc1CNc1cc[nH]c(=NC(=O)c2ccccc2OC)c1

>  <score_type>  (17) 
oracle

>  <origin>  (17) 
adg

>  <m_score__min__energy>  (17) 
-8.0999999999999996

>  <m_primary>  (17) 
energy

$$$$
17:0
     RDKit          3D

 39 40  0  0  0  0  0  0  0  0999 V2000
   58.8000   34.4300   45.9010 C   0  0  0  0  0  0  0  0  0  0  0  0
   57.7710   33.5300   46.5770 C   0  0  0  0  0  0  0  0  0  0  0  0
   57.0830   32.7370   45.6110 O   0  0  0  0  0  0  0  0  0  0  0  0
   57.7180   31.8040   44.7850 C   0  0  0  0  0  0  0  0  0  0  0  0
   58.4320   32.1940   43.8220 O   0  0  0  0  0  0  0  0  0  0  0  0
   57.5660   30.3570   45.0510 C   0  0  0  0  0  0  0  0  0  0  0  0
   56.6700   29.4910   44.4360 C   0  0  0  0  0  0  0  0  0  0  0  0
   55.6540   29.8500   43.3950 C   0  0  0  0  0  0  0  0  0  0  0  0
   56.8590   28.2330   44.8750 N   0  0  0  0  0  0  0  0  0  0  0  0
   57.8680   28.2660   45.7670 C   0  0  0  0  0  0  0  0  0  0  0  0
   58.3990   27.0520   46.4170 C   0  0  0  0  0  0  0  0  0  0  0  0
   59.4450   27.1320   47.1150 O   0  0  0  0  0  0  0  0  0  0  0  0
   57.7280   25.8310   46.2910 O   0  0  0  0  0  0  0  0  0  0  0  0
   57.4020   25.2410   45.0340 C   0  0  0  0  0  0  0  0  0  0  0  0
   56.0730   24.6030   45.1000 N   0  0  0  0  0  0  0  0  0  0  0  0
   55.8690   23.3280   44.6350 C   0  0  0  0  0  0  0  0  0  0  0  0
   56.8160   22.6550   44.1470 O   0  0  0  0  0  0  0  0  0  0  0  0
   54.6340   22.7710   44.6950 N   0  0  0  0  0  0  0  0  0  0  0  0
   53.5930   23.4640   45.2110 C   0  0  0  0  0  0  0  0  0  0  0  0
   52.4500   22.9400   45.2630 O   0  0  0  0  0  0  0  0  0  0  0  0
   53.7830   24.7220   45.6730 N   0  0  0  0  0  0  0  0  0  0  0  0
   55.0110   25.2940   45.6200 C   0  0  0  0  0  0  0  0  0  0  0  0
   55.1580   26.4680   46.0580 O   0  0  0  0  0  0  0  0  0  0  0  0
   58.3190   29.5740   45.9260 C   0  0  0  0  0  0  0  0  0  0  0  0
   59.4000   30.0470   46.8560 C   0  0  0  0  0  0  0  0  0  0  0  0
   59.3934   34.9490   46.6681 H   0  0  0  0  0  0  0  0  0  0  0  0
   59.4657   33.8190   45.2737 H   0  0  0  0  0  0  0  0  0  0  0  0
   58.2831   35.1711   45.2737 H   0  0  0  0  0  0  0  0  0  0  0  0
   58.2837   32.8670   47.2895 H   0  0  0  0  0  0  0  0  0  0  0  0
   57.0393   34.1615   47.1022 H   0  0  0  0  0  0  0  0  0  0  0  0
   54.7260   30.1779   43.8861 H   0  0  0  0  0  0  0  0  0  0  0  0
   56.0443   30.6647   42.7673 H   0  0  0  0  0  0  0  0  0  0  0  0
   55.4458   28.9710   42.7673 H   0  0  0  0  0  0  0  0  0  0  0  0
   56.3370   27.3840   44.5590 H   0  0  0  0  0  0  0  0  0  0  0  0
   57.3926   26.0207   44.2581 H   0  0  0  0  0  0  0  0  0  0  0  0
   58.1551   24.4773   44.7898 H   0  0  0  0  0  0  0  0  0  0  0  0
   59.0757   29.9051   47.8975 H   0  0  0  0  0  0  0  0  0  0  0  0
   60.3179   29.4683   46.6757 H   0  0  0  0  0  0  0  0  0  0  0  0
   59.5979   31.1139   46.6757 H   0  0  0  0  0  0  0  0  0  0  0  0
  1  2  1  0
  2  3  1  0
  3  4  1  0
  4  5  2  0
  4  6  1  0
  6  7  2  0
  7  8  1  0
  7  9  1  0
  9 10  1  0
 10 11  1  0
 11 12  2  0
 11 13  1  0
 13 14  1  0
 14 15  1  0
 15 16  1  0
 16 17  2  0
 16 18  1  0
 18 19  1  0
 19 20  2  0
 19 21  1  0
 21 22  1  0
 22 23  2  0
 10 24  2  0
 24 25  1  0
 24  6  1  0
 22 15  1  0
  1 26  1  0
  1 27  1  0
  1 28  1  0
  2 29  1  0
  2 30  1  0
  8 31  1  0
  8 32  1  0
  8 33  1  0
  9 34  1  0
 14 35  1  0
 14 36  1  0
 25 37  1  0
 25 38  1  0
 25 39  1  0
M  CHG  2  18  -1  21  -1
M  END
>  <UniqueID>  (18) 
18

>  <SMILES>  (18) 
CCOC(=O)c1c(C)[nH]c(C(=O)OCn2c(=O)[n-]c(=O)[n-]c2=O)c1C

>  <Energy>  (18) 
64.16059889239848

>  <Genealogy>  (18) 
CCOC(=O)c1c(C)[nH]c(C(=O)OCn2c(=O)[n-]c(=O)[n-]c2=O)c1C (protonated)
CCOC(=O)c1c(C)[nH]c(C(=O)OCn2c(=O)[n-]c(=O)[n-]c2=O)c1C (3D coordinates assigned)
CCOC(=O)c1c(C)[nH]c(C(=O)OCn2c(=O)[n-]c(=O)[n-]c2=O)c1C (optimized conformer: 64.16059889239848 kcal/mol)

>  <smiles>  (18) 
CCOC(=O)c1c(C)[nH]c(C(=O)OCn2c(=O)[nH]c(=O)[nH]c2=O)c1C

>  <score_type>  (18) 
oracle

>  <origin>  (18) 
adg

>  <m_score__min__energy>  (18) 
-10.66

>  <m_primary>  (18) 
energy

$$$$
18:0
     RDKit          3D

 59 63  0  0  0  0  0  0  0  0999 V2000
   56.5530   29.3300   45.6070 O   0  0  0  0  0  0  0  0  0  0  0  0
   57.7350   29.0710   44.8860 C   0  0  1  0  0  0  0  0  0  0  0  0
   57.3850   28.4250   43.5320 C   0  0  0  0  0  0  0  0  0  0  0  0
   56.4810   29.3400   42.6780 C   0  0  0  0  0  0  0  0  0  0  0  0
   56.7210   30.8440   42.9330 C   0  0  0  0  0  0  0  0  0  0  0  0
   58.1660   31.1230   43.3620 C   0  0  0  0  0  0  0  0  0  0  0  0
   58.5430   30.3900   44.6790 C   0  0  1  0  0  0  0  0  0  0  0  0
   58.3740   31.2900   45.7840 O   0  0  0  0  0  0  0  0  0  0  0  0
   58.8740   32.6020   45.8220 C   0  0  0  0  0  0  0  0  0  0  0  0
   58.1480   33.5900   45.1410 C   0  0  0  0  0  0  0  0  0  0  0  0
   58.5170   34.9350   45.2320 C   0  0  0  0  0  0  0  0  0  0  0  0
   59.6180   35.3060   46.0040 C   0  0  0  0  0  0  0  0  0  0  0  0
   60.3800   34.3280   46.6450 C   0  0  0  0  0  0  0  0  0  0  0  0
   60.0470   32.9680   46.5250 C   0  0  0  0  0  0  0  0  0  0  0  0
   61.1900   31.7590   47.2220 S   0  0  0  0  0  0  0  0  0  0  0  0
   60.1410   31.3610   48.6430 C   0  0  0  0  0  0  0  0  0  0  0  0
   59.4750   30.1230   48.6480 C   0  0  0  0  0  0  0  0  0  0  0  0
   58.5510   29.8110   49.6440 C   0  0  0  0  0  0  0  0  0  0  0  0
   58.3070   30.7120   50.6890 C   0  0  0  0  0  0  0  0  0  0  0  0
   57.3080   30.3880   51.7300 C   0  0  0  0  0  0  0  0  0  0  0  0
   57.7040   29.8680   52.9750 C   0  0  0  0  0  0  0  0  0  0  0  0
   56.7410   29.5750   53.9400 C   0  0  0  0  0  0  0  0  0  0  0  0
   55.3860   29.8100   53.6670 C   0  0  0  0  0  0  0  0  0  0  0  0
   54.3940   29.5430   54.6210 C   0  0  0  0  0  0  0  0  0  0  0  0
   53.0490   29.8030   54.3230 C   0  0  0  0  0  0  0  0  0  0  0  0
   52.6870   30.3230   53.0740 C   0  0  0  0  0  0  0  0  0  0  0  0
   53.6700   30.5880   52.1140 C   0  0  0  0  0  0  0  0  0  0  0  0
   55.0190   30.3340   52.4040 C   0  0  0  0  0  0  0  0  0  0  0  0
   55.9800   30.5980   51.4780 N   0  0  0  0  0  0  0  0  0  0  0  0
   59.0140   31.9260   50.7270 C   0  0  0  0  0  0  0  0  0  0  0  0
   59.9560   32.2540   49.7310 C   0  0  0  0  0  0  0  0  0  0  0  0
   60.6880   33.5800   49.8370 C   0  0  0  0  0  0  0  0  0  0  0  0
   59.8790   34.5840   49.3460 F   0  0  0  0  0  0  0  0  0  0  0  0
   60.9970   33.8710   51.1580 F   0  0  0  0  0  0  0  0  0  0  0  0
   61.8820   33.5550   49.1340 F   0  0  0  0  0  0  0  0  0  0  0  0
   56.6450   30.2460   45.9880 H   0  0  0  0  0  0  0  0  0  0  0  0
   58.3633   28.3727   45.4583 H   0  0  0  0  0  0  0  0  0  0  0  0
   58.3159   28.2283   42.9799 H   0  0  0  0  0  0  0  0  0  0  0  0
   56.8381   27.4912   43.7294 H   0  0  0  0  0  0  0  0  0  0  0  0
   56.6756   29.1304   41.6158 H   0  0  0  0  0  0  0  0  0  0  0  0
   55.4396   29.1236   42.9586 H   0  0  0  0  0  0  0  0  0  0  0  0
   56.5101   31.4005   42.0079 H   0  0  0  0  0  0  0  0  0  0  0  0
   56.0538   31.1645   43.7467 H   0  0  0  0  0  0  0  0  0  0  0  0
   58.8433   30.7860   42.5634 H   0  0  0  0  0  0  0  0  0  0  0  0
   58.2609   32.2043   43.5401 H   0  0  0  0  0  0  0  0  0  0  0  0
   59.5979   30.0852   44.6130 H   0  0  0  0  0  0  0  0  0  0  0  0
   57.2798   33.3036   44.5293 H   0  0  0  0  0  0  0  0  0  0  0  0
   57.9390   35.7013   44.6946 H   0  0  0  0  0  0  0  0  0  0  0  0
   59.8853   36.3680   46.1075 H   0  0  0  0  0  0  0  0  0  0  0  0
   61.2495   34.6246   47.2499 H   0  0  0  0  0  0  0  0  0  0  0  0
   59.6859   29.3904   47.8550 H   0  0  0  0  0  0  0  0  0  0  0  0
   58.0110   28.8533   49.6094 H   0  0  0  0  0  0  0  0  0  0  0  0
   58.7691   29.6931   53.1868 H   0  0  0  0  0  0  0  0  0  0  0  0
   57.0436   29.1606   54.9130 H   0  0  0  0  0  0  0  0  0  0  0  0
   54.6707   29.1300   55.6022 H   0  0  0  0  0  0  0  0  0  0  0  0
   52.2730   29.5973   55.0750 H   0  0  0  0  0  0  0  0  0  0  0  0
   51.6294   30.5232   52.8475 H   0  0  0  0  0  0  0  0  0  0  0  0
   53.3853   30.9952   51.1326 H   0  0  0  0  0  0  0  0  0  0  0  0
   58.8289   32.6332   51.5490 H   0  0  0  0  0  0  0  0  0  0  0  0
  1  2  1  0
  2  3  1  0
  3  4  1  0
  4  5  1  0
  5  6  1  0
  6  7  1  0
  7  8  1  0
  8  9  1  0
  9 10  2  0
 10 11  1  0
 11 12  2  0
 12 13  1  0
 13 14  2  0
 14 15  1  0
 15 16  1  0
 16 17  2  0
 17 18  1  0
 18 19  2  0
 19 20  1  0
 20 21  2  0
 21 22  1  0
 22 23  2  0
 23 24  1  0
 24 25  2  0
 25 26  1  0
 26 27  2  0
 27 28  1  0
 28 29  2  0
 19 30  1  0
 30 31  2  0
 31 32  1  0
 32 33  1  0
 32 34  1  0
 32 35  1  0
  7  2  1  0
 14  9  1  0
 31 16  1  0
 29 20  1  0
 28 23  1  0
  1 36  1  0
  2 37  1  1
  3 38  1  0
  3 39  1  0
  4 40  1  0
  4 41  1  0
  5 42  1  0
  5 43  1  0
  6 44  1  0
  6 45  1  0
  7 46  1  6
 10 47  1  0
 11 48  1  0
 12 49  1  0
 13 50  1  0
 17 51  1  0
 18 52  1  0
 21 53  1  0
 22 54  1  0
 24 55  1  0
 25 56  1  0
 26 57  1  0
 27 58  1  0
 30 59  1  0
M  END
>  <UniqueID>  (19) 
19

>  <SMILES>  (19) 
O[C@H]1CCCC[C@H]1Oc1ccccc1Sc1ccc(-c2ccc3ccccc3n2)cc1C(F)(F)F

>  <Energy>  (19) 
83.72555972168617

>  <Genealogy>  (19) 
O[C@H]1CCCC[C@H]1Oc1ccccc1Sc1ccc(-c2ccc3ccccc3n2)cc1C(F)(F)F (chirality)
O[C@H]1CCCC[C@H]1Oc1ccccc1Sc1ccc(-c2ccc3ccccc3n2)cc1C(F)(F)F (3D coordinates assigned)
O[C@H]1CCCC[C@H]1Oc1ccccc1Sc1ccc(-c2ccc3ccccc3n2)cc1C(F)(F)F (nonaromatic ring conformer: 83.72555972168617 kcal/mol)

>  <smiles>  (19) 
OC1CCCCC1Oc1ccccc1Sc1ccc(-c2ccc3ccccc3n2)cc1C(F)(F)F

>  <score_type>  (19) 
oracle

>  <origin>  (19) 
adg

>  <m_score__min__energy>  (19) 
-9.5999999999999996

>  <m_primary>  (19) 
energy

$$$$
19:0
     RDKit          3D

 47 48  0  0  0  0  0  0  0  0999 V2000
   63.3930   33.8620   46.3180 C   0  0  0  0  0  0  0  0  0  0  0  0
   63.3120   33.7480   48.1350 S   0  0  0  0  0  0  0  0  0  0  0  0
   63.0910   31.9300   48.2040 C   0  0  0  0  0  0  0  0  0  0  0  0
   61.8570   31.5330   49.0230 C   0  0  0  0  0  0  0  0  0  0  0  0
   60.8760   30.7340   48.2040 C   0  0  0  0  0  0  0  0  0  0  0  0
   59.8050   30.0740   48.8290 C   0  0  0  0  0  0  0  0  0  0  0  0
   58.9020   29.3200   48.0750 C   0  0  0  0  0  0  0  0  0  0  0  0
   59.0630   29.2120   46.6870 C   0  0  0  0  0  0  0  0  0  0  0  0
   57.9250   28.2920   45.7110 S   0  0  0  0  0  0  0  0  0  0  0  0
   58.6370   27.7990   44.4830 O   0  0  0  0  0  0  0  0  0  0  0  0
   57.3930   27.1120   46.4770 O   0  0  0  0  0  0  0  0  0  0  0  0
   56.6090   29.3350   45.2840 N   0  0  0  0  0  0  0  0  0  0  0  0
   56.4460   29.9290   43.9940 C   0  0  0  0  0  0  0  0  0  0  0  0
   55.2940   30.0950   43.5090 O   0  0  0  0  0  0  0  0  0  0  0  0
   57.6030   30.3340   43.2430 N   0  0  0  0  0  0  0  0  0  0  0  0
   57.9890   31.7200   43.5560 C   0  0  0  0  0  0  0  0  0  0  0  0
   57.1720   32.3000   44.7230 C   0  0  0  0  0  0  0  0  0  0  0  0
   58.0500   33.1370   45.6150 C   0  0  0  0  0  0  0  0  0  0  0  0
   58.1330   32.8600   46.9910 C   0  0  0  0  0  0  0  0  0  0  0  0
   58.9790   33.6150   47.8100 C   0  0  0  0  0  0  0  0  0  0  0  0
   59.7520   34.6430   47.2630 C   0  0  0  0  0  0  0  0  0  0  0  0
   59.6820   34.9170   45.8940 C   0  0  0  0  0  0  0  0  0  0  0  0
   58.8390   34.1640   45.0710 C   0  0  0  0  0  0  0  0  0  0  0  0
   60.1370   29.8590   46.0610 C   0  0  0  0  0  0  0  0  0  0  0  0
   61.0400   30.6150   46.8140 C   0  0  0  0  0  0  0  0  0  0  0  0
   64.0082   34.7279   46.0320 H   0  0  0  0  0  0  0  0  0  0  0  0
   63.8420   32.9433   45.9126 H   0  0  0  0  0  0  0  0  0  0  0  0
   62.3777   33.9837   45.9126 H   0  0  0  0  0  0  0  0  0  0  0  0
   62.9757   31.5470   47.1793 H   0  0  0  0  0  0  0  0  0  0  0  0
   63.9769   31.4979   48.6924 H   0  0  0  0  0  0  0  0  0  0  0  0
   62.1798   30.9274   49.8827 H   0  0  0  0  0  0  0  0  0  0  0  0
   61.3556   32.4541   49.3548 H   0  0  0  0  0  0  0  0  0  0  0  0
   59.6764   30.1512   49.9187 H   0  0  0  0  0  0  0  0  0  0  0  0
   58.0633   28.8103   48.5717 H   0  0  0  0  0  0  0  0  0  0  0  0
   58.4060   29.6880   43.4330 H   0  0  0  0  0  0  0  0  0  0  0  0
   57.3690   30.2710   42.2250 H   0  0  0  0  0  0  0  0  0  0  0  0
   59.0552   31.7387   43.8260 H   0  0  0  0  0  0  0  0  0  0  0  0
   57.7912   32.3354   42.6659 H   0  0  0  0  0  0  0  0  0  0  0  0
   56.3615   32.9262   44.3218 H   0  0  0  0  0  0  0  0  0  0  0  0
   56.7535   31.4705   45.3119 H   0  0  0  0  0  0  0  0  0  0  0  0
   57.5312   32.0476   47.4244 H   0  0  0  0  0  0  0  0  0  0  0  0
   59.0361   33.3992   48.8871 H   0  0  0  0  0  0  0  0  0  0  0  0
   60.4153   35.2363   47.9096 H   0  0  0  0  0  0  0  0  0  0  0  0
   60.2908   35.7259   45.4638 H   0  0  0  0  0  0  0  0  0  0  0  0
   58.7934   34.3768   43.9927 H   0  0  0  0  0  0  0  0  0  0  0  0
   60.2700   29.7716   44.9726 H   0  0  0  0  0  0  0  0  0  0  0  0
   61.8819   31.1185   46.3163 H   0  0  0  0  0  0  0  0  0  0  0  0
  1  2  1  0
  2  3  1  0
  3  4  1  0
  4  5  1  0
  5  6  2  0
  6  7  1  0
  7  8  2  0
  8  9  1  0
  9 10  2  0
  9 11  2  0
  9 12  1  0
 12 13  1  0
 13 14  2  0
 13 15  1  0
 15 16  1  0
 16 17  1  0
 17 18  1  0
 18 19  2  0
 19 20  1  0
 20 21  2  0
 21 22  1  0
 22 23  2  0
  8 24  1  0
 24 25  2  0
 25  5  1  0
 23 18  1  0
  1 26  1  0
  1 27  1  0
  1 28  1  0
  3 29  1  0
  3 30  1  0
  4 31  1  0
  4 32  1  0
  6 33  1  0
  7 34  1  0
 15 35  1  0
 15 36  1  0
 16 37  1  0
 16 38  1  0
 17 39  1  0
 17 40  1  0
 19 41  1  0
 20 42  1  0
 21 43  1  0
 22 44  1  0
 23 45  1  0
 24 46  1  0
 25 47  1  0
M  CHG  2  12  -1  15   1
M  END
>  <UniqueID>  (20) 
20

>  <SMILES>  (20) 
CSCCc1ccc(S(=O)(=O)[N-]C(=O)[NH2+]CCc2ccccc2)cc1

>  <Energy>  (20) 
41.538545451086016

>  <Genealogy>  (20) 
CSCCc1ccc(S(=O)(=O)[N-]C(=O)[NH2+]CCc2ccccc2)cc1 (protonated)
CSCCc1ccc(S(=O)(=O)[N-]C(=O)[NH2+]CCc2ccccc2)cc1 (3D coordinates assigned)
CSCCc1ccc(S(=O)(=O)[N-]C(=O)[NH2+]CCc2ccccc2)cc1 (optimized conformer: 41.538545451086016 kcal/mol)

>  <smiles>  (20) 
CSCCc1ccc(S(=O)(=O)NC(=O)NCCc2ccccc2)cc1

>  <score_type>  (20) 
oracle

>  <origin>  (20) 
adg

>  <m_score__min__energy>  (20) 
-8.1199999999999992

>  <m_primary>  (20) 
energy

$$$$
20:0
     RDKit          3D

 79 84  0  0  0  0  0  0  0  0999 V2000
   55.9190   27.5390   45.6070 O   0  0  0  0  0  0  0  0  0  0  0  0
   55.7010   26.3760   46.0430 C   0  0  0  0  0  0  0  0  0  0  0  0
   56.7460   25.6400   46.6800 N   0  0  0  0  0  0  0  0  0  0  0  0
   58.1630   25.8200   46.3760 C   0  0  1  0  0  0  0  0  0  0  0  0
   58.3900   25.7050   44.8620 C   0  0  0  0  0  0  0  0  0  0  0  0
   57.6240   24.5460   44.2910 C   0  0  0  0  0  0  0  0  0  0  0  0
   56.9700   24.5170   43.0620 C   0  0  0  0  0  0  0  0  0  0  0  0
   56.4750   23.2820   42.8200 N   0  0  0  0  0  0  0  0  0  0  0  0
   56.8190   22.5290   43.8780 C   0  0  0  0  0  0  0  0  0  0  0  0
   56.5560   21.1730   44.0690 C   0  0  0  0  0  0  0  0  0  0  0  0
   57.0390   20.5700   45.2450 C   0  0  0  0  0  0  0  0  0  0  0  0
   57.7660   21.3260   46.1920 C   0  0  0  0  0  0  0  0  0  0  0  0
   58.0190   22.6920   45.9710 C   0  0  0  0  0  0  0  0  0  0  0  0
   57.5250   23.2640   44.7970 C   0  0  0  0  0  0  0  0  0  0  0  0
   58.6180   27.1630   46.8770 C   0  0  0  0  0  0  0  0  0  0  0  0
   59.2120   27.2450   47.9880 O   0  0  0  0  0  0  0  0  0  0  0  0
   58.3850   28.3430   46.0940 N   0  0  0  0  0  0  0  0  0  0  0  0
   58.8120   29.6710   46.5420 C   0  0  1  0  0  0  0  0  0  0  0  0
   60.3420   29.8040   46.4310 C   0  0  0  0  0  0  0  0  0  0  0  0
   60.9640   30.1980   47.7420 C   0  0  0  0  0  0  0  0  0  0  0  0
   60.6790   29.6520   48.9900 C   0  0  0  0  0  0  0  0  0  0  0  0
   61.3550   30.3080   49.9580 N   0  0  0  0  0  0  0  0  0  0  0  0
   62.0530   31.2740   49.3370 C   0  0  0  0  0  0  0  0  0  0  0  0
   62.8820   32.2290   49.9230 C   0  0  0  0  0  0  0  0  0  0  0  0
   63.5020   33.1690   49.0790 C   0  0  0  0  0  0  0  0  0  0  0  0
   63.2810   33.1350   47.6840 C   0  0  0  0  0  0  0  0  0  0  0  0
   62.4410   32.1590   47.1210 C   0  0  0  0  0  0  0  0  0  0  0  0
   61.8390   31.2400   47.9810 C   0  0  0  0  0  0  0  0  0  0  0  0
   58.1260   30.7230   45.7170 C   0  0  0  0  0  0  0  0  0  0  0  0
   57.0060   30.4740   45.1900 O   0  0  0  0  0  0  0  0  0  0  0  0
   58.7110   31.9840   45.5790 O   0  0  0  0  0  0  0  0  0  0  0  0
   58.1400   33.1610   46.1400 C   0  0  0  0  0  0  0  0  0  0  0  0
   58.7100   33.3800   47.5100 C   0  0  0  0  0  0  0  0  0  0  0  0
   59.6400   34.4090   47.7340 C   0  0  0  0  0  0  0  0  0  0  0  0
   60.1960   34.5920   49.0040 C   0  0  0  0  0  0  0  0  0  0  0  0
   59.8400   33.7400   50.0540 C   0  0  0  0  0  0  0  0  0  0  0  0
   58.9290   32.7010   49.8350 C   0  0  0  0  0  0  0  0  0  0  0  0
   58.3680   32.5170   48.5660 C   0  0  0  0  0  0  0  0  0  0  0  0
   54.4330   25.7970   45.9270 O   0  0  0  0  0  0  0  0  0  0  0  0
   54.1930   24.5680   45.2440 C   0  0  0  0  0  0  0  0  0  0  0  0
   54.0730   23.4380   46.2300 C   0  0  0  0  0  0  0  0  0  0  0  0
   53.0400   22.4910   46.1130 C   0  0  0  0  0  0  0  0  0  0  0  0
   52.9260   21.4580   47.0490 C   0  0  0  0  0  0  0  0  0  0  0  0
   53.8400   21.3610   48.1030 C   0  0  0  0  0  0  0  0  0  0  0  0
   54.8670   22.3020   48.2270 C   0  0  0  0  0  0  0  0  0  0  0  0
   54.9830   23.3380   47.2970 C   0  0  0  0  0  0  0  0  0  0  0  0
   58.7494   25.0362   46.8778 H   0  0  0  0  0  0  0  0  0  0  0  0
   58.0541   26.6329   44.3761 H   0  0  0  0  0  0  0  0  0  0  0  0
   59.4623   25.5415   44.6791 H   0  0  0  0  0  0  0  0  0  0  0  0
   56.8701   25.3772   42.3837 H   0  0  0  0  0  0  0  0  0  0  0  0
   55.9530   22.9740   41.9700 H   0  0  0  0  0  0  0  0  0  0  0  0
   55.9896   20.5938   43.3249 H   0  0  0  0  0  0  0  0  0  0  0  0
   56.8493   19.5021   45.4285 H   0  0  0  0  0  0  0  0  0  0  0  0
   58.1366   20.8430   47.1082 H   0  0  0  0  0  0  0  0  0  0  0  0
   58.5872   23.2897   46.6990 H   0  0  0  0  0  0  0  0  0  0  0  0
   57.8700   28.2490   45.1850 H   0  0  0  0  0  0  0  0  0  0  0  0
   58.5324   29.8075   47.5971 H   0  0  0  0  0  0  0  0  0  0  0  0
   60.7615   28.8379   46.1138 H   0  0  0  0  0  0  0  0  0  0  0  0
   60.5647   30.5916   45.6961 H   0  0  0  0  0  0  0  0  0  0  0  0
   59.9988   28.8052   49.1637 H   0  0  0  0  0  0  0  0  0  0  0  0
   61.3200   30.1140   50.9840 H   0  0  0  0  0  0  0  0  0  0  0  0
   63.0464   32.2473   51.0105 H   0  0  0  0  0  0  0  0  0  0  0  0
   64.1635   33.9358   49.5085 H   0  0  0  0  0  0  0  0  0  0  0  0
   63.7692   33.8767   47.0348 H   0  0  0  0  0  0  0  0  0  0  0  0
   62.2637   32.1208   46.0361 H   0  0  0  0  0  0  0  0  0  0  0  0
   58.3754   34.0249   45.5010 H   0  0  0  0  0  0  0  0  0  0  0  0
   57.0481   33.0464   46.2076 H   0  0  0  0  0  0  0  0  0  0  0  0
   59.9319   35.0732   46.9072 H   0  0  0  0  0  0  0  0  0  0  0  0
   60.9141   35.4070   49.1772 H   0  0  0  0  0  0  0  0  0  0  0  0
   60.2765   33.8868   51.0530 H   0  0  0  0  0  0  0  0  0  0  0  0
   58.6535   32.0283   50.6606 H   0  0  0  0  0  0  0  0  0  0  0  0
   57.6576   31.6949   48.3944 H   0  0  0  0  0  0  0  0  0  0  0  0
   53.2587   24.6487   44.6690 H   0  0  0  0  0  0  0  0  0  0  0  0
   55.0356   24.3643   44.5668 H   0  0  0  0  0  0  0  0  0  0  0  0
   52.3205   22.5628   45.2840 H   0  0  0  0  0  0  0  0  0  0  0  0
   52.1155   20.7201   46.9559 H   0  0  0  0  0  0  0  0  0  0  0  0
   53.7511   20.5444   48.8346 H   0  0  0  0  0  0  0  0  0  0  0  0
   55.5842   22.2264   49.0576 H   0  0  0  0  0  0  0  0  0  0  0  0
   55.7898   24.0786   47.4000 H   0  0  0  0  0  0  0  0  0  0  0  0
  1  2  2  0
  2  3  1  0
  3  4  1  0
  4  5  1  0
  5  6  1  0
  6  7  2  0
  7  8  1  0
  8  9  1  0
  9 10  2  0
 10 11  1  0
 11 12  2  0
 12 13  1  0
 13 14  2  0
  4 15  1  0
 15 16  2  0
 15 17  1  0
 17 18  1  0
 18 19  1  0
 19 20  1  0
 20 21  2  0
 21 22  1  0
 22 23  1  0
 23 24  2  0
 24 25  1  0
 25 26  2  0
 26 27  1  0
 27 28  2  0
 18 29  1  0
 29 30  2  0
 29 31  1  0
 31 32  1  0
 32 33  1  0
 33 34  2  0
 34 35  1  0
 35 36  2  0
 36 37  1  0
 37 38  2  0
  2 39  1  0
 39 40  1  0
 40 41  1  0
 41 42  2  0
 42 43  1  0
 43 44  2  0
 44 45  1  0
 45 46  2  0
 14  6  1  0
 28 20  1  0
 38 33  1  0
 46 41  1  0
 14  9  1  0
 28 23  1  0
  4 47  1  1
  5 48  1  0
  5 49  1  0
  7 50  1  0
  8 51  1  0
 10 52  1  0
 11 53  1  0
 12 54  1  0
 13 55  1  0
 17 56  1  0
 18 57  1  1
 19 58  1  0
 19 59  1  0
 21 60  1  0
 22 61  1  0
 24 62  1  0
 25 63  1  0
 26 64  1  0
 27 65  1  0
 32 66  1  0
 32 67  1  0
 34 68  1  0
 35 69  1  0
 36 70  1  0
 37 71  1  0
 38 72  1  0
 40 73  1  0
 40 74  1  0
 42 75  1  0
 43 76  1  0
 44 77  1  0
 45 78  1  0
 46 79  1  0
M  CHG  1   3  -1
M  END
>  <UniqueID>  (21) 
21

>  <SMILES>  (21) 
O=C([N-][C@@H](Cc1c[nH]c2ccccc12)C(=O)N[C@@H](Cc1c[nH]c2ccccc12)C(=O)OCc1ccccc1)OCc1ccccc1

>  <Energy>  (21) 
135.39852800341845

>  <Genealogy>  (21) 
O=C([N-]C(Cc1c[nH]c2ccccc12)C(=O)NC(Cc1c[nH]c2ccccc12)C(=O)OCc1ccccc1)OCc1ccccc1 (protonated)
O=C([N-][C@@H](Cc1c[nH]c2ccccc12)C(=O)N[C@@H](Cc1c[nH]c2ccccc12)C(=O)OCc1ccccc1)OCc1ccccc1 (chirality)
O=C([N-][C@@H](Cc1c[nH]c2ccccc12)C(=O)N[C@@H](Cc1c[nH]c2ccccc12)C(=O)OCc1ccccc1)OCc1ccccc1 (3D coordinates assigned)
O=C([N-][C@@H](Cc1c[nH]c2ccccc12)C(=O)N[C@@H](Cc1c[nH]c2ccccc12)C(=O)OCc1ccccc1)OCc1ccccc1 (optimized conformer: 135.39852800341845 kcal/mol)

>  <smiles>  (21) 
O=C(NC(Cc1c[nH]c2ccccc12)C(=O)NC(Cc1c[nH]c2ccccc12)C(=O)OCc1ccccc1)OCc1ccccc1

>  <score_type>  (21) 
oracle

>  <origin>  (21) 
adg

>  <m_score__min__energy>  (21) 
-12.68

>  <m_primary>  (21) 
energy

$$$$
21:0
     RDKit          3D

 46 48  0  0  0  0  0  0  0  0999 V2000
   55.9060   21.8330   42.2560 N   0  0  0  0  0  0  0  0  0  0  0  0
   56.7170   21.6650   43.2550 C   0  0  0  0  0  0  0  0  0  0  0  0
   57.0050   20.3370   43.7110 N   0  0  0  0  0  0  0  0  0  0  0  0
   57.3080   22.8490   43.9290 C   0  0  0  0  0  0  0  0  0  0  0  0
   58.2070   22.6980   45.0000 C   0  0  0  0  0  0  0  0  0  0  0  0
   58.7480   23.8180   45.6380 C   0  0  0  0  0  0  0  0  0  0  0  0
   58.3960   25.1130   45.2240 C   0  0  0  0  0  0  0  0  0  0  0  0
   58.9440   26.2800   45.8600 N   0  0  0  0  0  0  0  0  0  0  0  0
   58.3940   26.8900   47.0340 C   0  0  0  0  0  0  0  0  0  0  0  0
   57.2850   26.5040   47.4940 O   0  0  0  0  0  0  0  0  0  0  0  0
   59.1240   27.9360   47.6860 N   0  0  0  0  0  0  0  0  0  0  0  0
   59.1140   29.3290   47.3430 C   0  0  0  0  0  0  0  0  0  0  0  0
   58.4860   29.8100   46.1780 C   0  0  0  0  0  0  0  0  0  0  0  0
   58.5050   31.1750   45.8800 C   0  0  0  0  0  0  0  0  0  0  0  0
   59.1590   32.0740   46.7290 C   0  0  0  0  0  0  0  0  0  0  0  0
   59.1460   33.7940   46.3530 S   0  0  0  0  0  0  0  0  0  0  0  0
   58.4990   34.0490   45.0210 O   0  0  0  0  0  0  0  0  0  0  0  0
   58.3720   34.5170   47.4180 O   0  0  0  0  0  0  0  0  0  0  0  0
   60.7720   34.3950   46.3230 N   0  0  0  0  0  0  0  0  0  0  0  0
   61.8120   34.0060   47.2300 C   0  0  0  0  0  0  0  0  0  0  0  0
   61.6040   34.1780   48.6060 C   0  0  0  0  0  0  0  0  0  0  0  0
   62.5900   33.8060   49.5240 C   0  0  0  0  0  0  0  0  0  0  0  0
   63.7970   33.2630   49.0740 C   0  0  0  0  0  0  0  0  0  0  0  0
   64.0160   33.0910   47.7040 C   0  0  0  0  0  0  0  0  0  0  0  0
   63.0300   33.4570   46.7830 C   0  0  0  0  0  0  0  0  0  0  0  0
   59.8140   31.5960   47.8710 C   0  0  0  0  0  0  0  0  0  0  0  0
   59.7960   30.2300   48.1710 C   0  0  0  0  0  0  0  0  0  0  0  0
   57.5360   25.2670   44.1280 C   0  0  0  0  0  0  0  0  0  0  0  0
   56.9920   24.1490   43.4900 C   0  0  0  0  0  0  0  0  0  0  0  0
   56.0290   22.6110   41.5700 H   0  0  0  0  0  0  0  0  0  0  0  0
   57.5110   20.1640   44.6070 H   0  0  0  0  0  0  0  0  0  0  0  0
   56.6400   19.5070   43.1920 H   0  0  0  0  0  0  0  0  0  0  0  0
   58.4869   21.6896   45.3386 H   0  0  0  0  0  0  0  0  0  0  0  0
   59.4546   23.6840   46.4704 H   0  0  0  0  0  0  0  0  0  0  0  0
   59.7370   26.7730   45.3900 H   0  0  0  0  0  0  0  0  0  0  0  0
   57.9784   29.1083   45.4998 H   0  0  0  0  0  0  0  0  0  0  0  0
   58.0033   31.5444   44.9735 H   0  0  0  0  0  0  0  0  0  0  0  0
   60.6579   34.6089   48.9655 H   0  0  0  0  0  0  0  0  0  0  0  0
   62.4161   33.9406   50.6018 H   0  0  0  0  0  0  0  0  0  0  0  0
   64.5733   32.9715   49.7968 H   0  0  0  0  0  0  0  0  0  0  0  0
   64.9669   32.6664   47.3497 H   0  0  0  0  0  0  0  0  0  0  0  0
   63.2057   33.3159   45.7063 H   0  0  0  0  0  0  0  0  0  0  0  0
   60.3437   32.2964   48.5334 H   0  0  0  0  0  0  0  0  0  0  0  0
   60.3214   29.8603   49.0639 H   0  0  0  0  0  0  0  0  0  0  0  0
   57.2873   26.2759   43.7672 H   0  0  0  0  0  0  0  0  0  0  0  0
   56.3108   24.2858   42.6372 H   0  0  0  0  0  0  0  0  0  0  0  0
  1  2  2  3
  2  3  1  0
  2  4  1  0
  4  5  2  0
  5  6  1  0
  6  7  2  0
  7  8  1  0
  8  9  1  0
  9 10  2  0
  9 11  1  0
 11 12  1  0
 12 13  2  0
 13 14  1  0
 14 15  2  0
 15 16  1  0
 16 17  2  0
 16 18  2  0
 16 19  1  0
 19 20  1  0
 20 21  2  0
 21 22  1  0
 22 23  2  0
 23 24  1  0
 24 25  2  0
 15 26  1  0
 26 27  2  0
  7 28  1  0
 28 29  2  0
 29  4  1  0
 27 12  1  0
 25 20  1  0
  1 30  1  0
  3 31  1  0
  3 32  1  0
  5 33  1  0
  6 34  1  0
  8 35  1  0
 13 36  1  0
 14 37  1  0
 21 38  1  0
 22 39  1  0
 23 40  1  0
 24 41  1  0
 25 42  1  0
 26 43  1  0
 27 44  1  0
 28 45  1  0
 29 46  1  0
M  CHG  2  11  -1  19  -1
M  END
>  <UniqueID>  (22) 
22

>  <SMILES>  (22) 
N=C(N)c1ccc(NC(=O)[N-]c2ccc(S(=O)(=O)[N-]c3ccccc3)cc2)cc1

>  <Energy>  (22) 
60.01387224108205

>  <Genealogy>  (22) 
N=C(N)c1ccc(NC(=O)[N-]c2ccc(S(=O)(=O)[N-]c3ccccc3)cc2)cc1 (protonated)
N=C(N)c1ccc(NC(=O)[N-]c2ccc(S(=O)(=O)[N-]c3ccccc3)cc2)cc1 (3D coordinates assigned)
N=C(N)c1ccc(NC(=O)[N-]c2ccc(S(=O)(=O)[N-]c3ccccc3)cc2)cc1 (optimized conformer: 60.01387224108205 kcal/mol)

>  <smiles>  (22) 
N=C(N)c1ccc(NC(=O)Nc2ccc(S(=O)(=O)Nc3ccccc3)cc2)cc1

>  <score_type>  (22) 
oracle

>  <origin>  (22) 
adg

>  <m_score__min__energy>  (22) 
-11.43

>  <m_primary>  (22) 
energy

$$$$
22:0
     RDKit          3D

 48 50  0  0  0  0  0  0  0  0999 V2000
   57.0230   28.8970   43.1940 O   0  0  0  0  0  0  0  0  0  0  0  0
   56.3670   29.3700   44.1550 C   0  0  0  0  0  0  0  0  0  0  0  0
   56.0990   30.8410   44.2150 C   0  0  0  0  0  0  0  0  0  0  0  0
   57.3460   31.6220   44.6410 C   0  0  0  0  0  0  0  0  0  0  0  0
   57.0070   33.0020   44.9930 N   0  0  0  0  0  0  0  0  0  0  0  0
   57.8970   33.9820   45.5460 C   0  0  0  0  0  0  0  0  0  0  0  0
   58.1290   35.0230   44.8830 O   0  0  0  0  0  0  0  0  0  0  0  0
   58.5280   33.8260   46.8740 C   0  0  0  0  0  0  0  0  0  0  0  0
   59.5620   34.6830   47.2840 C   0  0  0  0  0  0  0  0  0  0  0  0
   60.1740   34.5020   48.5260 C   0  0  0  0  0  0  0  0  0  0  0  0
   59.7810   33.4540   49.3680 C   0  0  0  0  0  0  0  0  0  0  0  0
   60.4700   33.2830   50.6130 N   0  0  0  0  0  0  0  0  0  0  0  0
   61.3800   31.8760   51.0580 S   0  0  0  0  0  0  0  0  0  0  0  0
   61.2290   31.6400   52.5300 O   0  0  0  0  0  0  0  0  0  0  0  0
   60.8550   30.6860   50.3070 O   0  0  0  0  0  0  0  0  0  0  0  0
   63.0870   32.1260   50.7050 C   0  0  0  0  0  0  0  0  0  0  0  0
   63.4660   32.9100   49.6080 C   0  0  0  0  0  0  0  0  0  0  0  0
   64.8180   33.1020   49.3140 C   0  0  0  0  0  0  0  0  0  0  0  0
   65.7990   32.5170   50.1210 C   0  0  0  0  0  0  0  0  0  0  0  0
   67.1110   32.7100   49.8380 F   0  0  0  0  0  0  0  0  0  0  0  0
   65.4270   31.7400   51.2220 C   0  0  0  0  0  0  0  0  0  0  0  0
   64.0730   31.5460   51.5170 C   0  0  0  0  0  0  0  0  0  0  0  0
   58.7570   32.5880   48.9560 C   0  0  0  0  0  0  0  0  0  0  0  0
   58.1370   32.7710   47.7160 C   0  0  0  0  0  0  0  0  0  0  0  0
   55.9400   28.5420   45.2470 N   0  0  0  0  0  0  0  0  0  0  0  0
   56.5900   27.3910   45.8110 C   0  0  0  0  0  0  0  0  0  0  0  0
   57.9880   27.3140   45.9800 C   0  0  0  0  0  0  0  0  0  0  0  0
   58.5670   26.1700   46.5360 C   0  0  0  0  0  0  0  0  0  0  0  0
   57.7650   25.0880   46.9100 C   0  0  0  0  0  0  0  0  0  0  0  0
   56.3810   25.1460   46.7250 C   0  0  0  0  0  0  0  0  0  0  0  0
   55.7950   26.2900   46.1770 C   0  0  0  0  0  0  0  0  0  0  0  0
   54.4150   26.3320   45.9970 O   0  0  0  0  0  0  0  0  0  0  0  0
   55.7828   31.1876   43.2201 H   0  0  0  0  0  0  0  0  0  0  0  0
   55.3097   31.0178   44.9605 H   0  0  0  0  0  0  0  0  0  0  0  0
   57.7982   31.1289   45.5142 H   0  0  0  0  0  0  0  0  0  0  0  0
   58.0530   31.6392   43.7985 H   0  0  0  0  0  0  0  0  0  0  0  0
   59.8910   35.4997   46.6246 H   0  0  0  0  0  0  0  0  0  0  0  0
   60.9717   35.1885   48.8459 H   0  0  0  0  0  0  0  0  0  0  0  0
   62.6961   33.3763   48.9756 H   0  0  0  0  0  0  0  0  0  0  0  0
   65.1111   33.7133   48.4477 H   0  0  0  0  0  0  0  0  0  0  0  0
   66.1992   31.2809   51.8568 H   0  0  0  0  0  0  0  0  0  0  0  0
   63.7815   30.9382   52.3863 H   0  0  0  0  0  0  0  0  0  0  0  0
   58.4408   31.7624   49.6105 H   0  0  0  0  0  0  0  0  0  0  0  0
   57.3383   32.0849   47.3977 H   0  0  0  0  0  0  0  0  0  0  0  0
   58.6246   28.1570   45.6732 H   0  0  0  0  0  0  0  0  0  0  0  0
   59.6565   26.1209   46.6796 H   0  0  0  0  0  0  0  0  0  0  0  0
   58.2235   24.1903   47.3502 H   0  0  0  0  0  0  0  0  0  0  0  0
   55.7522   24.2900   47.0111 H   0  0  0  0  0  0  0  0  0  0  0  0
  1  2  2  0
  2  3  1  0
  3  4  1  0
  4  5  1  0
  5  6  1  0
  6  7  2  0
  6  8  1  0
  8  9  2  0
  9 10  1  0
 10 11  2  0
 11 12  1  0
 12 13  1  0
 13 14  2  0
 13 15  2  0
 13 16  1  0
 16 17  2  0
 17 18  1  0
 18 19  2  0
 19 20  1  0
 19 21  1  0
 21 22  2  0
 11 23  1  0
 23 24  2  0
  2 25  1  0
 25 26  1  0
 26 27  2  0
 27 28  1  0
 28 29  2  0
 29 30  1  0
 30 31  2  0
 31 32  1  0
 24  8  1  0
 31 26  1  0
 22 16  1  0
  3 33  1  0
  3 34  1  0
  4 35  1  0
  4 36  1  0
  9 37  1  0
 10 38  1  0
 17 39  1  0
 18 40  1  0
 21 41  1  0
 22 42  1  0
 23 43  1  0
 24 44  1  0
 27 45  1  0
 28 46  1  0
 29 47  1  0
 30 48  1  0
M  CHG  4   5  -1  12  -1  25  -1  32  -1
M  END
>  <UniqueID>  (23) 
23

>  <SMILES>  (23) 
O=C(CC[N-]C(=O)c1ccc([N-]S(=O)(=O)c2ccc(F)cc2)cc1)[N-]c1ccccc1[O-]

>  <Energy>  (23) 
54.35338011370586

>  <Genealogy>  (23) 
O=C(CC[N-]C(=O)c1ccc([N-]S(=O)(=O)c2ccc(F)cc2)cc1)[N-]c1ccccc1[O-] (protonated)
O=C(CC[N-]C(=O)c1ccc([N-]S(=O)(=O)c2ccc(F)cc2)cc1)[N-]c1ccccc1[O-] (3D coordinates assigned)
O=C(CC[N-]C(=O)c1ccc([N-]S(=O)(=O)c2ccc(F)cc2)cc1)[N-]c1ccccc1[O-] (optimized conformer: 54.35338011370586 kcal/mol)

>  <smiles>  (23) 
O=C(CCNC(=O)c1ccc(NS(=O)(=O)c2ccc(F)cc2)cc1)Nc1ccccc1O

>  <score_type>  (23) 
oracle

>  <origin>  (23) 
adg

>  <m_score__min__energy>  (23) 
-16.469999999999999

>  <m_primary>  (23) 
energy

$$$$
23:0
     RDKit          3D

 32 33  0  0  0  0  0  0  0  0999 V2000
   56.7080   30.2030   43.4600 C   0  0  0  0  0  0  0  0  0  0  0  0
   56.9240   30.4700   44.8420 O   0  0  0  0  0  0  0  0  0  0  0  0
   57.6290   31.5790   45.3340 C   0  0  0  0  0  0  0  0  0  0  0  0
   57.8330   32.7420   44.5690 C   0  0  0  0  0  0  0  0  0  0  0  0
   58.5420   33.8180   45.1040 C   0  0  0  0  0  0  0  0  0  0  0  0
   59.0630   33.7490   46.4000 C   0  0  0  0  0  0  0  0  0  0  0  0
   59.9830   35.1460   47.0550 S   0  0  0  0  0  0  0  0  0  0  0  0
   61.4770   34.1760   47.2850 C   0  0  0  0  0  0  0  0  0  0  0  0
   62.2220   33.7200   46.2580 N   0  0  0  0  0  0  0  0  0  0  0  0
   63.2640   33.0830   46.8230 C   0  0  0  0  0  0  0  0  0  0  0  0
   63.1290   33.1600   48.1930 C   0  0  0  0  0  0  0  0  0  0  0  0
   64.2640   32.5210   49.3700 Cl  0  0  0  0  0  0  0  0  0  0  0  0
   61.9970   33.8320   48.4830 N   0  0  0  0  0  0  0  0  0  0  0  0
   61.5190   34.2110   49.8100 C   0  0  0  0  0  0  0  0  0  0  0  0
   58.8600   32.5980   47.1810 C   0  0  0  0  0  0  0  0  0  0  0  0
   59.3820   32.5640   48.4840 O   0  0  0  0  0  0  0  0  0  0  0  0
   58.7070   32.0160   49.6110 C   0  0  0  0  0  0  0  0  0  0  0  0
   58.1420   31.5160   46.6350 C   0  0  0  0  0  0  0  0  0  0  0  0
   56.0194   29.3518   43.3543 H   0  0  0  0  0  0  0  0  0  0  0  0
   56.2706   31.0904   42.9791 H   0  0  0  0  0  0  0  0  0  0  0  0
   57.6672   29.9606   42.9791 H   0  0  0  0  0  0  0  0  0  0  0  0
   57.4324   32.8031   43.5463 H   0  0  0  0  0  0  0  0  0  0  0  0
   58.6922   34.7266   44.5024 H   0  0  0  0  0  0  0  0  0  0  0  0
   62.0420   33.8490   45.2390 H   0  0  0  0  0  0  0  0  0  0  0  0
   64.0837   32.5857   46.2838 H   0  0  0  0  0  0  0  0  0  0  0  0
   62.1374   33.7207   50.5763 H   0  0  0  0  0  0  0  0  0  0  0  0
   61.5878   35.3026   49.9266 H   0  0  0  0  0  0  0  0  0  0  0  0
   60.4718   33.8951   49.9266 H   0  0  0  0  0  0  0  0  0  0  0  0
   59.1706   32.3924   50.5348 H   0  0  0  0  0  0  0  0  0  0  0  0
   57.6483   32.3133   49.5846 H   0  0  0  0  0  0  0  0  0  0  0  0
   58.7805   30.9188   49.5846 H   0  0  0  0  0  0  0  0  0  0  0  0
   57.9824   30.6103   47.2385 H   0  0  0  0  0  0  0  0  0  0  0  0
  1  2  1  0
  2  3  1  0
  3  4  2  0
  4  5  1  0
  5  6  2  0
  6  7  1  0
  7  8  1  0
  8  9  2  0
  9 10  1  0
 10 11  2  0
 11 12  1  0
 11 13  1  0
 13 14  1  0
  6 15  1  0
 15 16  1  0
 16 17  1  0
 15 18  2  0
 18  3  1  0
 13  8  1  0
  1 19  1  0
  1 20  1  0
  1 21  1  0
  4 22  1  0
  5 23  1  0
  9 24  1  0
 10 25  1  0
 14 26  1  0
 14 27  1  0
 14 28  1  0
 17 29  1  0
 17 30  1  0
 17 31  1  0
 18 32  1  0
M  CHG  1   9   1
M  END
>  <UniqueID>  (24) 
24

>  <SMILES>  (24) 
COc1ccc(Sc2[nH+]cc(Cl)n2C)c(OC)c1

>  <Energy>  (24) 
56.698991261012914

>  <Genealogy>  (24) 
COc1ccc(Sc2[nH+]cc(Cl)n2C)c(OC)c1 (protonated)
COc1ccc(Sc2[nH+]cc(Cl)n2C)c(OC)c1 (3D coordinates assigned)
COc1ccc(Sc2[nH+]cc(Cl)n2C)c(OC)c1 (optimized conformer: 56.698991261012914 kcal/mol)

>  <smiles>  (24) 
COc1ccc(Sc2ncc(Cl)n2C)c(OC)c1

>  <score_type>  (24) 
oracle

>  <origin>  (24) 
adg

>  <m_score__min__energy>  (24) 
-4.2699999999999996

>  <m_primary>  (24) 
energy

$$$$
24:0
     RDKit          3D

 65 68  0  0  0  0  0  0  0  0999 V2000
   57.3970   33.1180   44.0090 C   0  0  0  0  0  0  0  0  0  0  0  0
   57.7220   31.6770   44.2390 C   0  0  0  0  0  0  0  0  0  0  0  0
   57.0240   30.4090   43.3810 S   0  0  0  0  0  0  0  0  0  0  0  0
   57.8330   29.1870   44.1960 C   0  0  0  0  0  0  0  0  0  0  0  0
   57.6990   27.7980   43.8940 N   0  0  0  0  0  0  0  0  0  0  0  0
   58.6790   29.7410   45.1570 C   0  0  0  0  0  0  0  0  0  0  0  0
   59.5110   28.9220   46.0650 C   0  0  0  0  0  0  0  0  0  0  0  0
   59.9350   27.8060   45.6580 O   0  0  0  0  0  0  0  0  0  0  0  0
   59.8400   29.3710   47.4370 C   0  0  0  0  0  0  0  0  0  0  0  0
   58.9380   29.1780   48.4920 C   0  0  0  0  0  0  0  0  0  0  0  0
   59.2680   29.5730   49.7910 C   0  0  0  0  0  0  0  0  0  0  0  0
   60.5120   30.1820   50.0740 C   0  0  0  0  0  0  0  0  0  0  0  0
   60.9280   30.6120   51.4950 C   0  0  0  0  0  0  0  0  0  0  0  0
   60.5170   29.5170   52.5030 C   0  0  0  0  0  0  0  0  0  0  0  0
   60.2700   31.9390   51.9450 C   0  0  0  0  0  0  0  0  0  0  0  0
   62.4600   30.8100   51.5490 C   0  0  0  0  0  0  0  0  0  0  0  0
   61.4000   30.3890   48.9950 C   0  0  0  0  0  0  0  0  0  0  0  0
   61.0660   29.9970   47.6970 C   0  0  0  0  0  0  0  0  0  0  0  0
   58.5990   31.1560   45.1990 C   0  0  0  0  0  0  0  0  0  0  0  0
   59.3670   32.0230   46.1760 C   0  0  0  0  0  0  0  0  0  0  0  0
   58.4610   32.9030   46.9460 N   0  0  0  0  0  0  0  0  0  0  0  0
   58.6700   34.3430   46.6630 C   0  0  0  0  0  0  0  0  0  0  0  0
   60.0330   34.8410   47.1750 C   0  0  0  0  0  0  0  0  0  0  0  0
   60.4220   34.1160   48.3890 N   0  0  0  0  0  0  0  0  0  0  0  0
   61.8110   33.8470   48.6610 C   0  0  0  0  0  0  0  0  0  0  0  0
   62.3290   34.0520   49.9530 C   0  0  0  0  0  0  0  0  0  0  0  0
   63.6710   33.7730   50.2280 C   0  0  0  0  0  0  0  0  0  0  0  0
   64.5060   33.2860   49.2200 C   0  0  0  0  0  0  0  0  0  0  0  0
   64.0000   33.0740   47.9350 C   0  0  0  0  0  0  0  0  0  0  0  0
   62.6580   33.3500   47.6530 C   0  0  0  0  0  0  0  0  0  0  0  0
   62.1940   33.1600   46.3930 F   0  0  0  0  0  0  0  0  0  0  0  0
   59.3620   33.5520   49.2270 C   0  0  0  0  0  0  0  0  0  0  0  0
   58.4740   32.6000   48.4020 C   0  0  0  0  0  0  0  0  0  0  0  0
   57.2822   33.6271   44.9773 H   0  0  0  0  0  0  0  0  0  0  0  0
   58.2110   33.5912   43.4402 H   0  0  0  0  0  0  0  0  0  0  0  0
   56.4587   33.1960   43.4402 H   0  0  0  0  0  0  0  0  0  0  0  0
   56.9250   27.4460   43.2880 H   0  0  0  0  0  0  0  0  0  0  0  0
   58.3610   27.1070   44.3130 H   0  0  0  0  0  0  0  0  0  0  0  0
   57.9614   28.7113   48.2957 H   0  0  0  0  0  0  0  0  0  0  0  0
   58.5484   29.4075   50.6064 H   0  0  0  0  0  0  0  0  0  0  0  0
   60.6573   29.8908   53.5280 H   0  0  0  0  0  0  0  0  0  0  0  0
   59.4596   29.2556   52.3496 H   0  0  0  0  0  0  0  0  0  0  0  0
   61.1413   28.6244   52.3496 H   0  0  0  0  0  0  0  0  0  0  0  0
   60.2481   31.9832   53.0439 H   0  0  0  0  0  0  0  0  0  0  0  0
   60.8518   32.7874   51.5554 H   0  0  0  0  0  0  0  0  0  0  0  0
   59.2425   31.9894   51.5554 H   0  0  0  0  0  0  0  0  0  0  0  0
   62.7875   30.8523   52.5983 H   0  0  0  0  0  0  0  0  0  0  0  0
   62.9565   29.9686   51.0436 H   0  0  0  0  0  0  0  0  0  0  0  0
   62.7263   31.7500   51.0436 H   0  0  0  0  0  0  0  0  0  0  0  0
   62.3727   30.8679   49.1807 H   0  0  0  0  0  0  0  0  0  0  0  0
   61.7707   30.1811   46.8727 H   0  0  0  0  0  0  0  0  0  0  0  0
   59.9154   31.3745   46.8751 H   0  0  0  0  0  0  0  0  0  0  0  0
   60.0610   32.6566   45.6043 H   0  0  0  0  0  0  0  0  0  0  0  0
   58.6198   34.5018   45.5757 H   0  0  0  0  0  0  0  0  0  0  0  0
   57.8844   34.9087   47.1853 H   0  0  0  0  0  0  0  0  0  0  0  0
   60.7934   34.6783   46.3969 H   0  0  0  0  0  0  0  0  0  0  0  0
   59.9545   35.9126   47.4105 H   0  0  0  0  0  0  0  0  0  0  0  0
   61.6748   34.4337   50.7507 H   0  0  0  0  0  0  0  0  0  0  0  0
   64.0699   33.9373   51.2399 H   0  0  0  0  0  0  0  0  0  0  0  0
   65.5622   33.0693   49.4378 H   0  0  0  0  0  0  0  0  0  0  0  0
   64.6589   32.6889   47.1428 H   0  0  0  0  0  0  0  0  0  0  0  0
   59.8161   32.9940   50.0591 H   0  0  0  0  0  0  0  0  0  0  0  0
   58.7406   34.3720   49.6162 H   0  0  0  0  0  0  0  0  0  0  0  0
   58.8447   31.5735   48.5394 H   0  0  0  0  0  0  0  0  0  0  0  0
   57.4435   32.7274   48.7652 H   0  0  0  0  0  0  0  0  0  0  0  0
  1  2  1  0
  2  3  1  0
  3  4  1  0
  4  5  1  0
  4  6  2  0
  6  7  1  0
  7  8  2  0
  7  9  1  0
  9 10  2  0
 10 11  1  0
 11 12  2  0
 12 13  1  0
 13 14  1  0
 13 15  1  0
 13 16  1  0
 12 17  1  0
 17 18  2  0
  6 19  1  0
 19 20  1  0
 20 21  1  0
 21 22  1  0
 22 23  1  0
 23 24  1  0
 24 25  1  0
 25 26  2  0
 26 27  1  0
 27 28  2  0
 28 29  1  0
 29 30  2  0
 30 31  1  0
 24 32  1  0
 32 33  1  0
 19  2  2  0
 33 21  1  0
 18  9  1  0
 30 25  1  0
  1 34  1  0
  1 35  1  0
  1 36  1  0
  5 37  1  0
  5 38  1  0
 10 39  1  0
 11 40  1  0
 14 41  1  0
 14 42  1  0
 14 43  1  0
 15 44  1  0
 15 45  1  0
 15 46  1  0
 16 47  1  0
 16 48  1  0
 16 49  1  0
 17 50  1  0
 18 51  1  0
 20 52  1  0
 20 53  1  0
 22 54  1  0
 22 55  1  0
 23 56  1  0
 23 57  1  0
 26 58  1  0
 27 59  1  0
 28 60  1  0
 29 61  1  0
 32 62  1  0
 32 63  1  0
 33 64  1  0
 33 65  1  0
M  END
>  <UniqueID>  (25) 
25

>  <SMILES>  (25) 
Cc1sc(N)c(C(=O)c2ccc(C(C)(C)C)cc2)c1CN1CCN(c2ccccc2F)CC1

>  <Energy>  (25) 
112.00614502833939

>  <Genealogy>  (25) 
Cc1sc(N)c(C(=O)c2ccc(C(C)(C)C)cc2)c1CN1CCN(c2ccccc2F)CC1 (3D coordinates assigned)
Cc1sc(N)c(C(=O)c2ccc(C(C)(C)C)cc2)c1CN1CCN(c2ccccc2F)CC1 (nonaromatic ring conformer: 112.00614502833939 kcal/mol)

>  <smiles>  (25) 
Cc1sc(N)c(C(=O)c2ccc(C(C)(C)C)cc2)c1CN1CCN(c2ccccc2F)CC1

>  <score_type>  (25) 
oracle

>  <origin>  (25) 
adg

>  <m_score__min__energy>  (25) 
-8.8100000000000005

>  <m_primary>  (25) 
energy

$$$$
25:0
     RDKit          3D

 48 50  0  0  0  0  0  0  0  0999 V2000
   51.4080   32.6020   51.1960 N   0  0  0  0  0  0  0  0  0  0  0  0
   51.6810   30.9150   51.4520 S   0  0  0  0  0  0  0  0  0  0  0  0
   51.6120   30.2010   50.1290 O   0  0  0  0  0  0  0  0  0  0  0  0
   50.6170   30.3610   52.3580 O   0  0  0  0  0  0  0  0  0  0  0  0
   53.2620   30.6800   52.1930 C   0  0  0  0  0  0  0  0  0  0  0  0
   53.3470   30.3410   53.5490 C   0  0  0  0  0  0  0  0  0  0  0  0
   54.5940   30.1420   54.1450 C   0  0  0  0  0  0  0  0  0  0  0  0
   55.7630   30.2940   53.3960 C   0  0  0  0  0  0  0  0  0  0  0  0
   55.6910   30.6670   52.0410 C   0  0  0  0  0  0  0  0  0  0  0  0
   56.8690   30.8200   51.2330 N   0  0  0  0  0  0  0  0  0  0  0  0
   58.1840   30.3490   51.5590 C   0  0  0  0  0  0  0  0  0  0  0  0
   58.7160   30.6720   52.6550 O   0  0  0  0  0  0  0  0  0  0  0  0
   58.9360   29.5140   50.5940 C   0  0  0  0  0  0  0  0  0  0  0  0
   60.0970   28.8280   50.9890 C   0  0  0  0  0  0  0  0  0  0  0  0
   60.8220   28.0700   50.0660 C   0  0  0  0  0  0  0  0  0  0  0  0
   60.3980   27.9870   48.7360 C   0  0  0  0  0  0  0  0  0  0  0  0
   59.2360   28.6540   48.3250 C   0  0  0  0  0  0  0  0  0  0  0  0
   58.6820   28.5450   46.6580 S   0  0  0  0  0  0  0  0  0  0  0  0
   59.7780   28.0340   45.7650 O   0  0  0  0  0  0  0  0  0  0  0  0
   58.3050   29.9180   46.1750 O   0  0  0  0  0  0  0  0  0  0  0  0
   57.2840   27.5230   46.5600 N   0  0  0  0  0  0  0  0  0  0  0  0
   57.1720   26.2790   45.8560 C   0  0  0  0  0  0  0  0  0  0  0  0
   56.6270   25.1800   46.5320 C   0  0  0  0  0  0  0  0  0  0  0  0
   56.4690   23.9510   45.8820 C   0  0  0  0  0  0  0  0  0  0  0  0
   56.8650   23.8050   44.5470 C   0  0  0  0  0  0  0  0  0  0  0  0
   56.6570   22.2540   43.7390 S   0  0  0  0  0  0  0  0  0  0  0  0
   55.8070   22.4820   42.2510 N   0  0  0  0  0  0  0  0  0  0  0  0
   55.8770   21.3330   44.6320 O   0  0  0  0  0  0  0  0  0  0  0  0
   57.9950   21.6300   43.4480 O   0  0  0  0  0  0  0  0  0  0  0  0
   57.4110   24.9000   43.8660 C   0  0  0  0  0  0  0  0  0  0  0  0
   57.5690   26.1270   44.5160 C   0  0  0  0  0  0  0  0  0  0  0  0
   58.5070   29.4110   49.2550 C   0  0  0  0  0  0  0  0  0  0  0  0
   54.4360   30.8340   51.4380 C   0  0  0  0  0  0  0  0  0  0  0  0
   51.0380   32.7120   50.2270 H   0  0  0  0  0  0  0  0  0  0  0  0
   52.4296   30.2312   54.1459 H   0  0  0  0  0  0  0  0  0  0  0  0
   54.6558   29.8647   55.2077 H   0  0  0  0  0  0  0  0  0  0  0  0
   56.7423   30.1217   53.8664 H   0  0  0  0  0  0  0  0  0  0  0  0
   60.4378   28.8882   52.0332 H   0  0  0  0  0  0  0  0  0  0  0  0
   61.7292   27.5368   50.3865 H   0  0  0  0  0  0  0  0  0  0  0  0
   60.9777   27.3970   48.0109 H   0  0  0  0  0  0  0  0  0  0  0  0
   56.3204   25.2840   47.5833 H   0  0  0  0  0  0  0  0  0  0  0  0
   56.0326   23.0973   46.4212 H   0  0  0  0  0  0  0  0  0  0  0  0
   56.4520   22.1920   41.4810 H   0  0  0  0  0  0  0  0  0  0  0  0
   55.6530   23.5090   42.1440 H   0  0  0  0  0  0  0  0  0  0  0  0
   57.7169   24.7939   42.8147 H   0  0  0  0  0  0  0  0  0  0  0  0
   58.0068   26.9793   43.9757 H   0  0  0  0  0  0  0  0  0  0  0  0
   57.5910   29.9296   48.9358 H   0  0  0  0  0  0  0  0  0  0  0  0
   54.3709   31.0866   50.3694 H   0  0  0  0  0  0  0  0  0  0  0  0
  1  2  1  0
  2  3  2  0
  2  4  2  0
  2  5  1  0
  5  6  2  0
  6  7  1  0
  7  8  2  0
  8  9  1  0
  9 10  1  0
 10 11  1  0
 11 12  2  0
 11 13  1  0
 13 14  2  0
 14 15  1  0
 15 16  2  0
 16 17  1  0
 17 18  1  0
 18 19  2  0
 18 20  2  0
 18 21  1  0
 21 22  1  0
 22 23  2  0
 23 24  1  0
 24 25  2  0
 25 26  1  0
 26 27  1  0
 26 28  2  0
 26 29  2  0
 25 30  1  0
 30 31  2  0
 17 32  2  0
  9 33  2  0
 33  5  1  0
 32 13  1  0
 31 22  1  0
  1 34  1  0
  6 35  1  0
  7 36  1  0
  8 37  1  0
 14 38  1  0
 15 39  1  0
 16 40  1  0
 23 41  1  0
 24 42  1  0
 27 43  1  0
 27 44  1  0
 30 45  1  0
 31 46  1  0
 32 47  1  0
 33 48  1  0
M  CHG  3   1  -1  10  -1  21  -1
M  END
>  <UniqueID>  (26) 
26

>  <SMILES>  (26) 
[NH-]S(=O)(=O)c1cccc([N-]C(=O)c2cccc(S(=O)(=O)[N-]c3ccc(S(N)(=O)=O)cc3)c2)c1

>  <Energy>  (26) 
58.59479874410122

>  <Genealogy>  (26) 
[NH-]S(=O)(=O)c1cccc([N-]C(=O)c2cccc(S(=O)(=O)[N-]c3ccc(S(N)(=O)=O)cc3)c2)c1 (protonated)
[NH-]S(=O)(=O)c1cccc([N-]C(=O)c2cccc(S(=O)(=O)[N-]c3ccc(S(N)(=O)=O)cc3)c2)c1 (3D coordinates assigned)
[NH-]S(=O)(=O)c1cccc([N-]C(=O)c2cccc(S(=O)(=O)[N-]c3ccc(S(N)(=O)=O)cc3)c2)c1 (optimized conformer: 58.59479874410122 kcal/mol)

>  <smiles>  (26) 
NS(=O)(=O)c1ccc(NS(=O)(=O)c2cccc(C(=O)Nc3cccc(S(N)(=O)=O)c3)c2)cc1

>  <score_type>  (26) 
oracle

>  <origin>  (26) 
adg

>  <m_score__min__energy>  (26) 
-15.630000000000001

>  <m_primary>  (26) 
energy

$$$$
26:0
     RDKit          3D

 59 62  0  0  0  0  0  0  0  0999 V2000
   55.5680   30.5480   54.0590 O   0  0  0  0  0  0  0  0  0  0  0  0
   55.8390   30.0970   52.9120 C   0  0  0  0  0  0  0  0  0  0  0  0
   57.2690   30.0360   52.4500 C   0  0  0  0  0  0  0  0  0  0  0  0
   58.0100   31.3050   52.7820 C   0  0  0  0  0  0  0  0  0  0  0  0
   58.3940   31.5780   54.1060 C   0  0  0  0  0  0  0  0  0  0  0  0
   59.1060   32.7410   54.4040 C   0  0  0  0  0  0  0  0  0  0  0  0
   59.4700   33.6210   53.3840 C   0  0  0  0  0  0  0  0  0  0  0  0
   59.1300   33.3430   52.0540 C   0  0  0  0  0  0  0  0  0  0  0  0
   59.5120   34.2740   51.0330 N   0  0  0  0  0  0  0  0  0  0  0  0
   60.3240   34.0100   49.8770 C   0  0  0  0  0  0  0  0  0  0  0  0
   61.4960   34.4820   49.8590 O   0  0  0  0  0  0  0  0  0  0  0  0
   59.8430   33.1280   48.7300 C   0  0  0  0  0  0  0  0  0  0  0  0
   60.7300   31.8560   48.5910 C   0  0  0  0  0  0  0  0  0  0  0  0
   60.8320   31.3350   47.1480 C   0  0  0  0  0  0  0  0  0  0  0  0
   59.6030   31.6260   46.4050 N   0  0  0  0  0  0  0  0  0  0  0  0
   58.7130   30.5580   46.0340 C   0  0  0  0  0  0  0  0  0  0  0  0
   58.5120   29.6100   46.8410 O   0  0  0  0  0  0  0  0  0  0  0  0
   58.0030   30.5790   44.7380 C   0  0  0  0  0  0  0  0  0  0  0  0
   57.0000   29.6340   44.4590 C   0  0  0  0  0  0  0  0  0  0  0  0
   56.3160   29.6740   43.2420 C   0  0  0  0  0  0  0  0  0  0  0  0
   56.6260   30.6510   42.2900 C   0  0  0  0  0  0  0  0  0  0  0  0
   57.6230   31.5940   42.5620 C   0  0  0  0  0  0  0  0  0  0  0  0
   58.3050   31.5630   43.7830 C   0  0  0  0  0  0  0  0  0  0  0  0
   59.1420   33.0210   46.2980 C   0  0  0  0  0  0  0  0  0  0  0  0
   59.7690   33.9010   47.3930 C   0  0  0  0  0  0  0  0  0  0  0  0
   58.3670   32.2020   51.7600 C   0  0  0  0  0  0  0  0  0  0  0  0
   54.7890   29.6830   52.0260 N   0  0  0  0  0  0  0  0  0  0  0  0
   53.4040   30.0490   52.1820 C   0  0  0  0  0  0  0  0  0  0  0  0
   52.5300   29.1680   52.8430 C   0  0  0  0  0  0  0  0  0  0  0  0
   51.1770   29.4880   52.9870 C   0  0  0  0  0  0  0  0  0  0  0  0
   50.6780   30.6820   52.4630 C   0  0  0  0  0  0  0  0  0  0  0  0
   51.5300   31.5530   51.7790 C   0  0  0  0  0  0  0  0  0  0  0  0
   51.0310   32.7320   51.2410 O   0  0  0  0  0  0  0  0  0  0  0  0
   52.8850   31.2360   51.6300 C   0  0  0  0  0  0  0  0  0  0  0  0
   57.7689   29.1901   52.9446 H   0  0  0  0  0  0  0  0  0  0  0  0
   57.2740   29.9086   51.3574 H   0  0  0  0  0  0  0  0  0  0  0  0
   58.1328   30.8735   54.9094 H   0  0  0  0  0  0  0  0  0  0  0  0
   59.3808   32.9644   55.4454 H   0  0  0  0  0  0  0  0  0  0  0  0
   60.0271   34.5382   53.6258 H   0  0  0  0  0  0  0  0  0  0  0  0
   58.8197   32.8085   48.9766 H   0  0  0  0  0  0  0  0  0  0  0  0
   61.7426   32.0969   48.9467 H   0  0  0  0  0  0  0  0  0  0  0  0
   60.2558   31.0636   49.1887 H   0  0  0  0  0  0  0  0  0  0  0  0
   61.6811   31.8228   46.6470 H   0  0  0  0  0  0  0  0  0  0  0  0
   60.9799   30.2453   47.1747 H   0  0  0  0  0  0  0  0  0  0  0  0
   56.7533   28.8608   45.2015 H   0  0  0  0  0  0  0  0  0  0  0  0
   55.5300   28.9339   43.0311 H   0  0  0  0  0  0  0  0  0  0  0  0
   56.0878   30.6777   41.3310 H   0  0  0  0  0  0  0  0  0  0  0  0
   57.8712   32.3615   41.8141 H   0  0  0  0  0  0  0  0  0  0  0  0
   59.0812   32.3128   43.9959 H   0  0  0  0  0  0  0  0  0  0  0  0
   59.4264   33.4180   45.3123 H   0  0  0  0  0  0  0  0  0  0  0  0
   58.0492   33.0367   46.4226 H   0  0  0  0  0  0  0  0  0  0  0  0
   60.7844   34.1925   47.0863 H   0  0  0  0  0  0  0  0  0  0  0  0
   59.1444   34.7957   47.5325 H   0  0  0  0  0  0  0  0  0  0  0  0
   58.0470   32.0089   50.7254 H   0  0  0  0  0  0  0  0  0  0  0  0
   55.0400   29.0320   51.2460 H   0  0  0  0  0  0  0  0  0  0  0  0
   52.9136   28.2206   53.2495 H   0  0  0  0  0  0  0  0  0  0  0  0
   50.5033   28.7970   53.5148 H   0  0  0  0  0  0  0  0  0  0  0  0
   49.6153   30.9368   52.5885 H   0  0  0  0  0  0  0  0  0  0  0  0
   53.5486   31.9182   51.0784 H   0  0  0  0  0  0  0  0  0  0  0  0
  1  2  2  0
  2  3  1  0
  3  4  1  0
  4  5  2  0
  5  6  1  0
  6  7  2  0
  7  8  1  0
  8  9  1  0
  9 10  1  0
 10 11  2  0
 10 12  1  0
 12 13  1  0
 13 14  1  0
 14 15  1  0
 15 16  1  0
 16 17  2  0
 16 18  1  0
 18 19  2  0
 19 20  1  0
 20 21  2  0
 21 22  1  0
 22 23  2  0
 15 24  1  0
 24 25  1  0
  8 26  2  0
  2 27  1  0
 27 28  1  0
 28 29  2  0
 29 30  1  0
 30 31  2  0
 31 32  1  0
 32 33  1  0
 32 34  2  0
 26  4  1  0
 34 28  1  0
 25 12  1  0
 23 18  1  0
  3 35  1  0
  3 36  1  0
  5 37  1  0
  6 38  1  0
  7 39  1  0
 12 40  1  0
 13 41  1  0
 13 42  1  0
 14 43  1  0
 14 44  1  0
 19 45  1  0
 20 46  1  0
 21 47  1  0
 22 48  1  0
 23 49  1  0
 24 50  1  0
 24 51  1  0
 25 52  1  0
 25 53  1  0
 26 54  1  0
 27 55  1  0
 29 56  1  0
 30 57  1  0
 31 58  1  0
 34 59  1  0
M  CHG  2   9  -1  33  -1
M  END
>  <UniqueID>  (27) 
27

>  <SMILES>  (27) 
O=C(Cc1cccc([N-]C(=O)C2CCN(C(=O)c3ccccc3)CC2)c1)Nc1cccc([O-])c1

>  <Energy>  (27) 
76.92716897523698

>  <Genealogy>  (27) 
O=C(Cc1cccc([N-]C(=O)C2CCN(C(=O)c3ccccc3)CC2)c1)Nc1cccc([O-])c1 (protonated)
O=C(Cc1cccc([N-]C(=O)C2CCN(C(=O)c3ccccc3)CC2)c1)Nc1cccc([O-])c1 (3D coordinates assigned)
O=C(Cc1cccc([N-]C(=O)C2CCN(C(=O)c3ccccc3)CC2)c1)Nc1cccc([O-])c1 (nonaromatic ring conformer: 76.92716897523698 kcal/mol)

>  <smiles>  (27) 
O=C(Cc1cccc(NC(=O)C2CCN(C(=O)c3ccccc3)CC2)c1)Nc1cccc(O)c1

>  <score_type>  (27) 
oracle

>  <origin>  (27) 
adg

>  <m_score__min__energy>  (27) 
-15.31

>  <m_primary>  (27) 
energy

$$$$
27:0
     RDKit          3D

 27 28  0  0  0  0  0  0  0  0999 V2000
   60.0223   27.1467   45.7809 H   0  0  0  0  0  0  0  0  0  0  0  0
   58.9280   27.0480   45.8330 C   0  0  0  0  0  0  0  0  0  0  0  0
   58.1340   28.0990   45.4960 N   0  0  0  0  0  0  0  0  0  0  0  0
   56.7720   28.0230   45.5460 C   0  0  0  0  0  0  0  0  0  0  0  0
   56.0260   29.0400   45.2200 N   0  0  0  0  0  0  0  0  0  0  0  0
   56.1230   29.8450   44.0320 C   0  0  0  0  0  0  0  0  0  0  0  0
   55.4830   29.5340   42.9910 O   0  0  0  0  0  0  0  0  0  0  0  0
   56.9850   31.0520   44.0300 C   0  0  0  0  0  0  0  0  0  0  0  0
   57.3580   31.6730   45.2330 C   0  0  0  0  0  0  0  0  0  0  0  0
   57.0027   31.2667   46.1915 H   0  0  0  0  0  0  0  0  0  0  0  0
   58.1800   32.8070   45.2190 C   0  0  0  0  0  0  0  0  0  0  0  0
   58.5490   33.4980   46.4990 C   0  0  0  0  0  0  0  0  0  0  0  0
   58.2225   32.8865   47.3531 H   0  0  0  0  0  0  0  0  0  0  0  0
   59.6398   33.6339   46.5411 H   0  0  0  0  0  0  0  0  0  0  0  0
   58.0552   34.4801   46.5411 H   0  0  0  0  0  0  0  0  0  0  0  0
   58.5960   33.3260   43.9870 C   0  0  0  0  0  0  0  0  0  0  0  0
   59.2221   34.2299   43.9566 H   0  0  0  0  0  0  0  0  0  0  0  0
   58.2290   32.7170   42.8280 N   0  0  0  0  0  0  0  0  0  0  0  0
   58.5540   33.1150   41.9190 H   0  0  0  0  0  0  0  0  0  0  0  0
   57.4460   31.6040   42.8220 C   0  0  0  0  0  0  0  0  0  0  0  0
   57.1721   31.1334   41.8662 H   0  0  0  0  0  0  0  0  0  0  0  0
   56.1660   26.8260   45.9560 C   0  0  0  0  0  0  0  0  0  0  0  0
   54.7800   26.7150   46.0190 O   0  0  0  0  0  0  0  0  0  0  0  0
   56.9660   25.7350   46.3060 C   0  0  0  0  0  0  0  0  0  0  0  0
   56.5010   24.7919   46.6290 H   0  0  0  0  0  0  0  0  0  0  0  0
   58.3550   25.8440   46.2450 C   0  0  0  0  0  0  0  0  0  0  0  0
   58.9921   24.9901   46.5187 H   0  0  0  0  0  0  0  0  0  0  0  0
  1  2  1  0
  2  3  1  0
  3  4  1  0
  4  5  2  0
  5  6  1  0
  6  7  2  0
  6  8  1  0
  8  9  2  0
  9 10  1  0
  9 11  1  0
 11 12  1  0
 12 13  1  0
 12 14  1  0
 12 15  1  0
 11 16  2  0
 16 17  1  0
 16 18  1  0
 18 19  1  0
 18 20  2  0
 20 21  1  0
  4 22  1  0
 22 23  1  0
 22 24  2  0
 24 25  1  0
 24 26  1  0
 26 27  1  0
 26  2  2  0
 20  8  1  0
M  CHG  3   3  -1  18   1  23  -1
M  END
>  <UniqueID>  (28) 
28

>  <SMILES>  (28) 
Cc1c[nH+]cc(C(=O)/N=c2\[n-]cccc2[O-])c1

>  <Energy>  (28) 
31.447223725995503

>  <Genealogy>  (28) 
Cc1c[nH+]cc(C(=O)N=c2[n-]cccc2[O-])c1 (protonated)
Cc1c[nH+]cc(C(=O)/N=c2\[n-]cccc2[O-])c1 (cis-trans isomerization)
Cc1c[nH+]cc(C(=O)/N=c2\[n-]cccc2[O-])c1 (3D coordinates assigned)
Cc1c[nH+]cc(C(=O)/N=c2\[n-]cccc2[O-])c1 (optimized conformer: 31.447223725995503 kcal/mol)

>  <smiles>  (28) 
Cc1cncc(C(=O)N=c2[nH]cccc2O)c1

>  <score_type>  (28) 
oracle

>  <origin>  (28) 
adg

>  <m_score__min__energy>  (28) 
-10.25

>  <m_primary>  (28) 
energy

$$$$
28:0
     RDKit          3D

 63 66  0  0  0  0  0  0  0  0999 V2000
   62.3030   29.0300   52.4720 C   0  0  0  0  0  0  0  0  0  0  0  0
   61.2100   29.5740   53.8220 S   0  0  0  0  0  0  0  0  0  0  0  0
   59.8830   30.0600   52.7170 C   0  0  0  0  0  0  0  0  0  0  0  0
   58.6860   30.5670   53.2380 C   0  0  0  0  0  0  0  0  0  0  0  0
   57.6480   30.9290   52.3760 C   0  0  0  0  0  0  0  0  0  0  0  0
   57.8050   30.7960   50.9930 C   0  0  0  0  0  0  0  0  0  0  0  0
   59.0100   30.3160   50.4590 C   0  0  0  0  0  0  0  0  0  0  0  0
   59.1450   30.1780   49.0350 N   0  0  0  0  0  0  0  0  0  0  0  0
   59.2100   28.9120   48.3620 C   0  0  0  0  0  0  0  0  0  0  0  0
   59.5580   27.8810   48.9960 O   0  0  0  0  0  0  0  0  0  0  0  0
   58.9570   28.8180   46.9080 C   0  0  0  0  0  0  0  0  0  0  0  0
   57.9880   29.6640   46.3430 C   0  0  0  0  0  0  0  0  0  0  0  0
   57.6980   29.6080   44.9740 C   0  0  0  0  0  0  0  0  0  0  0  0
   56.4980   30.7000   44.2860 S   0  0  0  0  0  0  0  0  0  0  0  0
   55.1490   30.0380   44.3000 O   0  0  0  0  0  0  0  0  0  0  0  0
   56.8650   31.0090   42.8610 O   0  0  0  0  0  0  0  0  0  0  0  0
   56.4190   32.1810   45.1810 N   0  0  0  0  0  0  0  0  0  0  0  0
   57.5870   32.9450   45.4800 C   0  0  0  0  0  0  0  0  0  0  0  0
   58.1000   33.8570   44.5490 C   0  0  0  0  0  0  0  0  0  0  0  0
   59.2620   34.5770   44.8430 C   0  0  0  0  0  0  0  0  0  0  0  0
   59.9110   34.3930   46.0670 C   0  0  0  0  0  0  0  0  0  0  0  0
   59.3940   33.4900   47.0090 C   0  0  0  0  0  0  0  0  0  0  0  0
   60.2350   33.2220   48.5350 S   0  0  0  0  0  0  0  0  0  0  0  0
   60.9940   34.4680   48.8980 O   0  0  0  0  0  0  0  0  0  0  0  0
   59.2240   32.9690   49.6200 O   0  0  0  0  0  0  0  0  0  0  0  0
   61.3470   31.8700   48.4530 N   0  0  0  0  0  0  0  0  0  0  0  0
   62.2460   31.7950   49.6260 C   0  0  0  0  0  0  0  0  0  0  0  0
   63.6610   32.3170   49.3320 C   0  0  0  0  0  0  0  0  0  0  0  0
   63.6190   33.3120   48.3370 O   0  0  0  0  0  0  0  0  0  0  0  0
   63.2910   32.7290   47.0930 C   0  0  0  0  0  0  0  0  0  0  0  0
   62.0570   31.7980   47.1610 C   0  0  0  0  0  0  0  0  0  0  0  0
   58.2220   32.7800   46.7150 C   0  0  0  0  0  0  0  0  0  0  0  0
   58.3850   28.7040   44.1580 C   0  0  0  0  0  0  0  0  0  0  0  0
   59.3590   27.8670   44.7030 C   0  0  0  0  0  0  0  0  0  0  0  0
   59.6720   27.9250   46.0710 C   0  0  0  0  0  0  0  0  0  0  0  0
   60.7690   27.0350   46.5990 C   0  0  0  0  0  0  0  0  0  0  0  0
   60.0460   29.9330   51.3330 C   0  0  0  0  0  0  0  0  0  0  0  0
   63.2118   28.5777   52.8957 H   0  0  0  0  0  0  0  0  0  0  0  0
   61.7787   28.2877   51.8522 H   0  0  0  0  0  0  0  0  0  0  0  0
   62.5791   29.8958   51.8522 H   0  0  0  0  0  0  0  0  0  0  0  0
   58.5632   30.6801   54.3253 H   0  0  0  0  0  0  0  0  0  0  0  0
   56.7050   31.3196   52.7862 H   0  0  0  0  0  0  0  0  0  0  0  0
   56.9790   31.0693   50.3200 H   0  0  0  0  0  0  0  0  0  0  0  0
   59.3010   31.0390   48.4660 H   0  0  0  0  0  0  0  0  0  0  0  0
   57.4507   30.3789   46.9835 H   0  0  0  0  0  0  0  0  0  0  0  0
   57.5888   34.0068   43.5866 H   0  0  0  0  0  0  0  0  0  0  0  0
   59.6663   35.2899   44.1092 H   0  0  0  0  0  0  0  0  0  0  0  0
   60.8283   34.9567   46.2925 H   0  0  0  0  0  0  0  0  0  0  0  0
   61.8125   32.3960   50.4389 H   0  0  0  0  0  0  0  0  0  0  0  0
   62.3374   30.7345   49.9033 H   0  0  0  0  0  0  0  0  0  0  0  0
   64.0892   32.7418   50.2519 H   0  0  0  0  0  0  0  0  0  0  0  0
   64.2831   31.4823   48.9766 H   0  0  0  0  0  0  0  0  0  0  0  0
   63.0815   33.5347   46.3740 H   0  0  0  0  0  0  0  0  0  0  0  0
   64.1484   32.1123   46.7855 H   0  0  0  0  0  0  0  0  0  0  0  0
   61.3581   32.0843   46.3612 H   0  0  0  0  0  0  0  0  0  0  0  0
   62.4184   30.7658   47.0428 H   0  0  0  0  0  0  0  0  0  0  0  0
   57.7994   32.0893   47.4596 H   0  0  0  0  0  0  0  0  0  0  0  0
   58.1568   28.6526   43.0832 H   0  0  0  0  0  0  0  0  0  0  0  0
   59.8879   27.1535   44.0540 H   0  0  0  0  0  0  0  0  0  0  0  0
   60.7537   27.0474   47.6988 H   0  0  0  0  0  0  0  0  0  0  0  0
   60.6108   26.0068   46.2416 H   0  0  0  0  0  0  0  0  0  0  0  0
   61.7426   27.4017   46.2416 H   0  0  0  0  0  0  0  0  0  0  0  0
   60.9864   29.5327   50.9263 H   0  0  0  0  0  0  0  0  0  0  0  0
  1  2  1  0
  2  3  1  0
  3  4  2  0
  4  5  1  0
  5  6  2  0
  6  7  1  0
  7  8  1  0
  8  9  1  0
  9 10  2  0
  9 11  1  0
 11 12  2  0
 12 13  1  0
 13 14  1  0
 14 15  2  0
 14 16  2  0
 14 17  1  0
 17 18  1  0
 18 19  2  0
 19 20  1  0
 20 21  2  0
 21 22  1  0
 22 23  1  0
 23 24  2  0
 23 25  2  0
 23 26  1  0
 26 27  1  0
 27 28  1  0
 28 29  1  0
 29 30  1  0
 30 31  1  0
 22 32  2  0
 13 33  2  0
 33 34  1  0
 34 35  2  0
 35 36  1  0
  7 37  2  0
 37  3  1  0
 35 11  1  0
 32 18  1  0
 31 26  1  0
  1 38  1  0
  1 39  1  0
  1 40  1  0
  4 41  1  0
  5 42  1  0
  6 43  1  0
  8 44  1  0
 12 45  1  0
 19 46  1  0
 20 47  1  0
 21 48  1  0
 27 49  1  0
 27 50  1  0
 28 51  1  0
 28 52  1  0
 30 53  1  0
 30 54  1  0
 31 55  1  0
 31 56  1  0
 32 57  1  0
 33 58  1  0
 34 59  1  0
 36 60  1  0
 36 61  1  0
 36 62  1  0
 37 63  1  0
M  CHG  1  17  -1
M  END
>  <UniqueID>  (29) 
29

>  <SMILES>  (29) 
CSc1cccc(NC(=O)c2cc(S(=O)(=O)[N-]c3cccc(S(=O)(=O)N4CCOCC4)c3)ccc2C)c1

>  <Energy>  (29) 
87.00667579182068

>  <Genealogy>  (29) 
CSc1cccc(NC(=O)c2cc(S(=O)(=O)[N-]c3cccc(S(=O)(=O)N4CCOCC4)c3)ccc2C)c1 (protonated)
CSc1cccc(NC(=O)c2cc(S(=O)(=O)[N-]c3cccc(S(=O)(=O)N4CCOCC4)c3)ccc2C)c1 (3D coordinates assigned)
CSc1cccc(NC(=O)c2cc(S(=O)(=O)[N-]c3cccc(S(=O)(=O)N4CCOCC4)c3)ccc2C)c1 (nonaromatic ring conformer: 87.00667579182068 kcal/mol)

>  <smiles>  (29) 
CSc1cccc(NC(=O)c2cc(S(=O)(=O)Nc3cccc(S(=O)(=O)N4CCOCC4)c3)ccc2C)c1

>  <score_type>  (29) 
oracle

>  <origin>  (29) 
adg

>  <m_score__min__energy>  (29) 
-12.85

>  <m_primary>  (29) 
energy

$$$$
29:0
     RDKit          3D

 53 57  0  0  0  0  0  0  0  0999 V2000
   56.3668   20.6120   46.2353 H   0  0  0  0  0  0  0  0  0  0  0  0
   56.1800   21.6950   46.1870 C   0  0  0  0  0  0  0  0  0  0  0  0
   55.3860   22.3100   47.1560 C   0  0  0  0  0  0  0  0  0  0  0  0
   54.9561   21.7125   47.9734 H   0  0  0  0  0  0  0  0  0  0  0  0
   55.1360   23.6830   47.0900 C   0  0  0  0  0  0  0  0  0  0  0  0
   54.5193   24.1649   47.8630 H   0  0  0  0  0  0  0  0  0  0  0  0
   55.6670   24.4490   46.0440 C   0  0  0  0  0  0  0  0  0  0  0  0
   55.3680   25.8530   45.9940 N   0  0  0  0  0  0  0  0  0  0  0  0
   56.2660   26.7910   46.0100 C   0  0  0  0  0  0  0  0  0  0  0  0
   57.4540   26.6080   46.6430 N   0  0  0  0  0  0  0  0  0  0  0  0
   58.3940   27.5880   46.6430 C   0  0  0  0  0  0  0  0  0  0  0  0
   59.5290   27.4230   47.2540 N   0  0  0  0  0  0  0  0  0  0  0  0
   60.0330   28.3030   48.3130 C   0  0  0  0  0  0  0  0  0  0  0  0
   60.6157   27.6683   48.9969 H   0  0  0  0  0  0  0  0  0  0  0  0
   58.8610   28.9880   49.0490 C   0  0  0  0  0  0  0  0  0  0  0  0
   57.9226   28.8693   48.4875 H   0  0  0  0  0  0  0  0  0  0  0  0
   58.6736   28.5579   50.0439 H   0  0  0  0  0  0  0  0  0  0  0  0
   59.2650   30.4120   49.1070 C   0  0  0  0  0  0  0  0  0  0  0  0
   58.5980   31.4450   49.7700 C   0  0  0  0  0  0  0  0  0  0  0  0
   57.6782   31.2437   50.3387 H   0  0  0  0  0  0  0  0  0  0  0  0
   59.1230   32.7440   49.6970 C   0  0  0  0  0  0  0  0  0  0  0  0
   58.6164   33.5709   50.2163 H   0  0  0  0  0  0  0  0  0  0  0  0
   60.2960   32.9910   48.9610 C   0  0  0  0  0  0  0  0  0  0  0  0
   60.7049   34.0107   48.9066 H   0  0  0  0  0  0  0  0  0  0  0  0
   60.9460   31.9400   48.2960 C   0  0  0  0  0  0  0  0  0  0  0  0
   61.8606   32.1254   47.7136 H   0  0  0  0  0  0  0  0  0  0  0  0
   60.4090   30.6540   48.3880 C   0  0  0  0  0  0  0  0  0  0  0  0
   60.9290   29.4280   47.7420 C   0  0  0  0  0  0  0  0  0  0  0  0
   60.8315   29.4897   46.6481 H   0  0  0  0  0  0  0  0  0  0  0  0
   61.9983   29.2628   47.9404 H   0  0  0  0  0  0  0  0  0  0  0  0
   58.1440   28.7530   45.9960 N   0  0  0  0  0  0  0  0  0  0  0  0
   56.9630   28.9420   45.3470 C   0  0  0  0  0  0  0  0  0  0  0  0
   56.6970   30.0630   44.7420 N   0  0  0  0  0  0  0  0  0  0  0  0
   57.3600   31.3250   44.9280 C   0  0  0  0  0  0  0  0  0  0  0  0
   57.5430   32.2350   43.8720 C   0  0  0  0  0  0  0  0  0  0  0  0
   57.1976   31.9749   42.8605 H   0  0  0  0  0  0  0  0  0  0  0  0
   58.1610   33.4680   44.0990 C   0  0  0  0  0  0  0  0  0  0  0  0
   58.3154   34.1637   43.2610 H   0  0  0  0  0  0  0  0  0  0  0  0
   58.5870   33.8260   45.3910 C   0  0  0  0  0  0  0  0  0  0  0  0
   59.2500   35.1280   45.6510 C   0  0  0  0  0  0  0  0  0  0  0  0
   59.6120   35.8480   44.6810 O   0  0  0  0  0  0  0  0  0  0  0  0
   59.5050   35.5870   46.9820 N   0  0  0  0  0  0  0  0  0  0  0  0
   59.3710   34.9700   47.8130 H   0  0  0  0  0  0  0  0  0  0  0  0
   59.9230   36.5320   47.1350 H   0  0  0  0  0  0  0  0  0  0  0  0
   58.3840   32.9200   46.4470 C   0  0  0  0  0  0  0  0  0  0  0  0
   58.7157   33.1826   47.4624 H   0  0  0  0  0  0  0  0  0  0  0  0
   57.7640   31.6880   46.2170 C   0  0  0  0  0  0  0  0  0  0  0  0
   57.5925   30.9985   47.0568 H   0  0  0  0  0  0  0  0  0  0  0  0
   56.0250   27.9600   45.3650 N   0  0  0  0  0  0  0  0  0  0  0  0
   56.4950   23.8320   45.0800 C   0  0  0  0  0  0  0  0  0  0  0  0
   57.3620   24.8360   43.6950 Br  0  0  0  0  0  0  0  0  0  0  0  0
   56.7380   22.4550   45.1550 C   0  0  0  0  0  0  0  0  0  0  0  0
   57.3711   21.9690   44.3981 H   0  0  0  0  0  0  0  0  0  0  0  0
  1  2  1  0
  2  3  2  0
  3  4  1  0
  3  5  1  0
  5  6  1  0
  5  7  2  0
  7  8  1  0
  8  9  2  0
  9 10  1  0
 10 11  1  0
 11 12  2  3
 12 13  1  0
 13 14  1  0
 13 15  1  0
 15 16  1  0
 15 17  1  0
 15 18  1  0
 18 19  2  0
 19 20  1  0
 19 21  1  0
 21 22  1  0
 21 23  2  0
 23 24  1  0
 23 25  1  0
 25 26  1  0
 25 27  2  0
 27 28  1  0
 28 29  1  0
 28 30  1  0
 11 31  1  0
 31 32  1  0
 32 33  2  0
 33 34  1  0
 34 35  2  0
 35 36  1  0
 35 37  1  0
 37 38  1  0
 37 39  2  0
 39 40  1  0
 40 41  2  0
 40 42  1  0
 42 43  1  0
 42 44  1  0
 39 45  1  0
 45 46  1  0
 45 47  2  0
 47 48  1  0
 32 49  1  0
  7 50  1  0
 50 51  1  0
 50 52  2  0
 52 53  1  0
 52  2  1  0
 49  9  1  0
 28 13  1  0
 47 34  1  0
 27 18  1  0
M  CHG  3  10  -1  31  -1  49  -1
M  END
>  <UniqueID>  (30) 
30

>  <SMILES>  (30) 
NC(=O)c1ccc(/N=c2\[n-]c(=NC3Cc4ccccc4C3)[n-]/c(=N\c3ccccc3Br)[n-]2)cc1

>  <Energy>  (30) 
82.9560571711524

>  <Genealogy>  (30) 
NC(=O)c1ccc(N=c2[n-]c(=Nc3ccccc3Br)[n-]c(=NC3Cc4ccccc4C3)[n-]2)cc1 (protonated)
NC(=O)c1ccc(/N=c2\[n-]c(=NC3Cc4ccccc4C3)[n-]/c(=N\c3ccccc3Br)[n-]2)cc1 (cis-trans isomerization)
NC(=O)c1ccc(/N=c2\[n-]c(=NC3Cc4ccccc4C3)[n-]/c(=N\c3ccccc3Br)[n-]2)cc1 (3D coordinates assigned)
NC(=O)c1ccc(/N=c2\[n-]c(=NC3Cc4ccccc4C3)[n-]/c(=N\c3ccccc3Br)[n-]2)cc1 (nonaromatic ring conformer: 82.9560571711524 kcal/mol)

>  <smiles>  (30) 
NC(=O)c1ccc(N=c2[nH]c(=Nc3ccccc3Br)[nH]c(=NC3Cc4ccccc4C3)[nH]2)cc1

>  <score_type>  (30) 
oracle

>  <origin>  (30) 
adg

>  <m_score__min__energy>  (30) 
-15.26

>  <m_primary>  (30) 
energy

$$$$
30:0
     RDKit          3D

 41 43  0  0  0  0  0  0  0  0999 V2000
   58.8933   35.1533   46.0810 H   0  0  0  0  0  0  0  0  0  0  0  0
   58.4330   34.1660   45.9280 C   0  0  0  0  0  0  0  0  0  0  0  0
   57.6510   33.6500   44.5300 S   0  0  0  0  0  0  0  0  0  0  0  0
   57.3120   32.1300   45.1520 C   0  0  0  0  0  0  0  0  0  0  0  0
   56.6460   31.2240   44.5000 N   0  0  0  0  0  0  0  0  0  0  0  0
   56.6670   29.8150   44.7600 C   0  0  0  0  0  0  0  0  0  0  0  0
   55.6000   29.2410   45.1030 O   0  0  0  0  0  0  0  0  0  0  0  0
   57.9030   28.9890   44.5120 C   0  0  0  0  0  0  0  0  0  0  0  0
   57.7569   27.9900   44.9487 H   0  0  0  0  0  0  0  0  0  0  0  0
   58.0597   28.9270   43.4250 H   0  0  0  0  0  0  0  0  0  0  0  0
   59.1500   29.6260   45.1370 C   0  0  0  0  0  0  0  0  0  0  0  0
   60.0285   29.3508   44.5349 H   0  0  0  0  0  0  0  0  0  0  0  0
   59.0019   30.7159   45.1523 H   0  0  0  0  0  0  0  0  0  0  0  0
   59.4120   29.0820   46.8220 S   0  0  0  0  0  0  0  0  0  0  0  0
   59.8690   27.6500   46.8380 O   0  0  0  0  0  0  0  0  0  0  0  0
   58.1330   29.1890   47.6060 O   0  0  0  0  0  0  0  0  0  0  0  0
   60.6400   30.1010   47.5650 C   0  0  0  0  0  0  0  0  0  0  0  0
   60.9250   29.9780   48.9330 C   0  0  0  0  0  0  0  0  0  0  0  0
   60.3711   29.2517   49.5460 H   0  0  0  0  0  0  0  0  0  0  0  0
   61.9120   30.7770   49.5190 C   0  0  0  0  0  0  0  0  0  0  0  0
   62.1299   30.6814   50.5929 H   0  0  0  0  0  0  0  0  0  0  0  0
   62.6220   31.6970   48.7420 C   0  0  0  0  0  0  0  0  0  0  0  0
   63.3962   32.3267   49.2046 H   0  0  0  0  0  0  0  0  0  0  0  0
   62.3470   31.8160   47.3760 C   0  0  0  0  0  0  0  0  0  0  0  0
   62.9078   32.5374   46.7635 H   0  0  0  0  0  0  0  0  0  0  0  0
   61.3600   31.0190   46.7880 C   0  0  0  0  0  0  0  0  0  0  0  0
   61.1480   31.1127   45.7127 H   0  0  0  0  0  0  0  0  0  0  0  0
   57.7650   32.0000   46.4220 N   0  0  0  0  0  0  0  0  0  0  0  0
   57.5910   31.1660   47.0250 H   0  0  0  0  0  0  0  0  0  0  0  0
   58.3980   33.1260   46.8620 C   0  0  0  0  0  0  0  0  0  0  0  0
   58.9860   33.2270   48.2200 C   0  0  0  0  0  0  0  0  0  0  0  0
   58.4880   32.4460   49.2810 C   0  0  0  0  0  0  0  0  0  0  0  0
   57.6528   31.7525   49.1035 H   0  0  0  0  0  0  0  0  0  0  0  0
   59.0480   32.5460   50.5590 C   0  0  0  0  0  0  0  0  0  0  0  0
   58.6542   31.9295   51.3805 H   0  0  0  0  0  0  0  0  0  0  0  0
   60.1050   33.4260   50.7940 C   0  0  0  0  0  0  0  0  0  0  0  0
   60.5436   33.5032   51.7998 H   0  0  0  0  0  0  0  0  0  0  0  0
   60.6060   34.2090   49.7510 C   0  0  0  0  0  0  0  0  0  0  0  0
   61.4392   34.9027   49.9369 H   0  0  0  0  0  0  0  0  0  0  0  0
   60.0510   34.1130   48.4720 C   0  0  0  0  0  0  0  0  0  0  0  0
   60.4491   34.7342   47.6561 H   0  0  0  0  0  0  0  0  0  0  0  0
  1  2  1  0
  2  3  1  0
  3  4  1  0
  4  5  2  0
  5  6  1  0
  6  7  2  0
  6  8  1  0
  8  9  1  0
  8 10  1  0
  8 11  1  0
 11 12  1  0
 11 13  1  0
 11 14  1  0
 14 15  2  0
 14 16  2  0
 14 17  1  0
 17 18  2  0
 18 19  1  0
 18 20  1  0
 20 21  1  0
 20 22  2  0
 22 23  1  0
 22 24  1  0
 24 25  1  0
 24 26  2  0
 26 27  1  0
  4 28  1  0
 28 29  1  0
 28 30  1  0
 30 31  1  0
 31 32  2  0
 32 33  1  0
 32 34  1  0
 34 35  1  0
 34 36  2  0
 36 37  1  0
 36 38  1  0
 38 39  1  0
 38 40  2  0
 40 41  1  0
 30  2  2  0
 40 31  1  0
 26 17  1  0
M  END
>  <UniqueID>  (31) 
31

>  <SMILES>  (31) 
O=C(CCS(=O)(=O)c1ccccc1)/N=c1\[nH]c(-c2ccccc2)cs1

>  <Energy>  (31) 
78.75556812725148

>  <Genealogy>  (31) 
O=C(CCS(=O)(=O)c1ccccc1)/N=c1\[nH]c(-c2ccccc2)cs1 (cis-trans isomerization)
O=C(CCS(=O)(=O)c1ccccc1)/N=c1\[nH]c(-c2ccccc2)cs1 (3D coordinates assigned)
O=C(CCS(=O)(=O)c1ccccc1)/N=c1\[nH]c(-c2ccccc2)cs1 (optimized conformer: 78.75556812725148 kcal/mol)

>  <smiles>  (31) 
O=C(CCS(=O)(=O)c1ccccc1)N=c1[nH]c(-c2ccccc2)cs1

>  <score_type>  (31) 
oracle

>  <origin>  (31) 
adg

>  <m_score__min__energy>  (31) 
-8.4299999999999997

>  <m_primary>  (31) 
energy

$$$$
31:0
     RDKit          3D

 54 58  0  0  1  0  0  0  0  0999 V2000
   63.7610   34.2270   45.5920 N   0  0  0  0  0  0  0  0  0  0  0  0
   63.1630   33.8140   46.6400 C   0  0  0  0  0  0  0  0  0  0  0  0
   61.9250   34.1610   46.9210 N   0  0  0  0  0  0  0  0  0  0  0  0
   61.2310   33.7580   48.0180 C   0  0  0  0  0  0  0  0  0  0  0  0
   60.0870   34.1590   48.1040 N   0  0  0  0  0  0  0  0  0  0  0  0
   59.0610   34.2500   47.1850 C   0  0  0  0  0  0  0  0  0  0  0  0
   58.9360   32.7390   46.8310 C   0  0  0  0  0  0  0  0  0  0  0  0
   58.8540   31.8670   47.8950 C   0  0  0  0  0  0  0  0  0  0  0  0
   58.7070   30.5300   47.6150 C   0  0  0  0  0  0  0  0  0  0  0  0
   58.6560   30.1720   46.2880 C   0  0  0  0  0  0  0  0  0  0  0  0
   58.5030   28.7870   46.0040 N   0  0  0  0  0  0  0  0  0  0  0  0
   57.2780   28.3510   45.4780 C   0  0  0  0  0  0  0  0  0  0  0  0
   56.2980   29.1030   45.2380 O   0  0  0  0  0  0  0  0  0  0  0  0
   57.1210   26.9360   45.1860 C   0  0  0  0  0  0  0  0  0  0  0  0
   57.7550   26.1140   44.3050 C   0  0  0  0  0  0  0  0  0  0  0  0
   57.4060   24.8290   44.2410 C   0  0  0  0  0  0  0  0  0  0  0  0
   56.4090   24.3810   45.0770 C   0  0  0  0  0  0  0  0  0  0  0  0
   55.9310   25.8600   46.0110 S   0  0  0  0  0  0  0  0  0  0  0  0
   58.7370   31.0300   45.2340 C   0  0  0  0  0  0  0  0  0  0  0  0
   58.8830   32.3690   45.5130 C   0  0  0  0  0  0  0  0  0  0  0  0
   61.8270   32.9020   48.9710 C   0  0  0  0  0  0  0  0  0  0  0  0
   61.3450   32.4090   50.0860 C   0  0  0  0  0  0  0  0  0  0  0  0
   60.1650   32.4040   50.9540 C   0  0  0  0  0  0  0  0  0  0  0  0
   59.2900   31.2900   50.9760 C   0  0  0  0  0  0  0  0  0  0  0  0
   58.1050   31.3240   51.6720 C   0  0  0  0  0  0  0  0  0  0  0  0
   57.8010   32.4850   52.3460 C   0  0  0  0  0  0  0  0  0  0  0  0
   56.6340   32.5130   53.0290 F   0  0  0  0  0  0  0  0  0  0  0  0
   58.5900   33.5980   52.3720 C   0  0  0  0  0  0  0  0  0  0  0  0
   59.7760   33.5560   51.6730 C   0  0  0  0  0  0  0  0  0  0  0  0
   62.3130   31.5500   50.7970 C   0  0  0  0  0  0  0  0  0  0  0  0
   62.1670   30.8620   52.0070 C   0  0  0  0  0  0  0  0  0  0  0  0
   61.8230   29.6500   52.1830 O   0  0  0  0  0  0  0  0  0  0  0  0
   62.4200   31.5450   53.1940 O   0  0  0  0  0  0  0  0  0  0  0  0
   63.8000   31.5580   49.7790 S   0  0  0  0  0  0  0  0  0  0  0  0
   63.1150   32.5960   48.5910 C   0  0  0  0  0  0  0  0  0  0  0  0
   63.7790   33.0060   47.5010 N   0  0  0  0  0  0  0  0  0  0  0  0
   64.1280   35.1900   45.4970 H   0  0  0  0  0  0  0  0  0  0  0  0
   61.4490   34.8080   46.2230 H   0  0  0  0  0  0  0  0  0  0  0  0
   58.1383   34.6490   47.6316 H   0  0  0  0  0  0  0  0  0  0  0  0
   59.2377   34.9271   46.3363 H   0  0  0  0  0  0  0  0  0  0  0  0
   58.9045   32.2289   48.9325 H   0  0  0  0  0  0  0  0  0  0  0  0
   58.6334   29.7797   48.4160 H   0  0  0  0  0  0  0  0  0  0  0  0
   59.2930   28.1040   46.1840 H   0  0  0  0  0  0  0  0  0  0  0  0
   58.5482   26.5067   43.6518 H   0  0  0  0  0  0  0  0  0  0  0  0
   57.9024   24.1442   43.5377 H   0  0  0  0  0  0  0  0  0  0  0  0
   55.9982   23.3639   45.1594 H   0  0  0  0  0  0  0  0  0  0  0  0
   58.6875   30.6658   44.1972 H   0  0  0  0  0  0  0  0  0  0  0  0
   58.9545   33.1150   44.7078 H   0  0  0  0  0  0  0  0  0  0  0  0
   59.5646   30.3787   50.4246 H   0  0  0  0  0  0  0  0  0  0  0  0
   57.4269   30.4581   51.6896 H   0  0  0  0  0  0  0  0  0  0  0  0
   58.2896   34.4964   52.9311 H   0  0  0  0  0  0  0  0  0  0  0  0
   60.4338   34.4376   51.6747 H   0  0  0  0  0  0  0  0  0  0  0  0
   62.9040   31.0900   53.9690 H   0  0  0  0  0  0  0  0  0  0  0  0
   64.7550   32.7270   47.2840 H   0  0  0  0  0  0  0  0  0  0  0  0
  1  2  2  3
  2  3  1  0
  3  4  1  0
  4  5  2  0
  5  6  1  0
  6  7  1  0
  7  8  2  0
  8  9  1  0
  9 10  2  0
 10 11  1  0
 11 12  1  0
 12 13  2  0
 12 14  1  0
 14 15  2  0
 15 16  1  0
 16 17  2  0
 17 18  1  0
 10 19  1  0
 19 20  2  0
  4 21  1  0
 21 22  1  0
 22 23  1  0
 23 24  2  0
 24 25  1  0
 25 26  2  0
 26 27  1  0
 26 28  1  0
 28 29  2  0
 22 30  2  0
 30 31  1  0
 31 32  2  0
 31 33  1  0
 30 34  1  0
 34 35  1  0
 35 36  1  0
 36  2  1  0
 20  7  1  0
 35 21  2  0
 18 14  1  0
 29 23  1  0
  1 37  1  0
  3 38  1  0
  6 39  1  0
  6 40  1  0
  8 41  1  0
  9 42  1  0
 11 43  1  0
 15 44  1  0
 16 45  1  0
 17 46  1  0
 19 47  1  0
 20 48  1  0
 24 49  1  0
 25 50  1  0
 28 51  1  0
 29 52  1  0
 33 53  1  0
 36 54  1  0
M  END
>  <smiles>  (32) 
N=c1[nH]c(=NCc2ccc(NC(=O)c3cccs3)cc2)c2c(-c3ccc(F)cc3)c(C(=O)O)sc2[nH]1

>  <score_type>  (32) 
oracle

>  <origin>  (32) 
adg

>  <m_score__min__energy>  (32) 
-9.6400000000000006

>  <m_primary>  (32) 
energy

$$$$
32:0
     RDKit          3D

 66 69  0  0  0  0  0  0  0  0999 V2000
   53.0130   24.4780   45.3630 C   0  0  0  0  0  0  0  0  0  0  0  0
   54.3590   24.8730   45.6120 O   0  0  0  0  0  0  0  0  0  0  0  0
   55.4890   24.2120   45.1000 C   0  0  0  0  0  0  0  0  0  0  0  0
   55.4800   23.5920   43.8350 C   0  0  0  0  0  0  0  0  0  0  0  0
   56.6130   22.9270   43.3630 C   0  0  0  0  0  0  0  0  0  0  0  0
   57.7680   22.8700   44.1440 C   0  0  0  0  0  0  0  0  0  0  0  0
   57.7930   23.4800   45.3990 C   0  0  0  0  0  0  0  0  0  0  0  0
   56.6640   24.1640   45.8810 C   0  0  0  0  0  0  0  0  0  0  0  0
   56.7050   24.7960   47.2460 C   0  0  0  0  0  0  0  0  0  0  0  0
   56.8810   26.2380   47.1090 N   0  0  0  0  0  0  0  0  0  0  0  0
   57.9700   26.8510   46.4110 C   0  0  0  0  0  0  0  0  0  0  0  0
   59.0120   26.1790   46.1990 O   0  0  0  0  0  0  0  0  0  0  0  0
   57.8970   28.2460   45.9210 C   0  0  0  0  0  0  0  0  0  0  0  0
   57.0000   28.5690   44.8990 C   0  0  0  0  0  0  0  0  0  0  0  0
   56.8850   29.8490   44.4280 N   0  0  0  0  0  0  0  0  0  0  0  0
   55.9210   30.1050   43.3450 C   0  0  0  0  0  0  0  0  0  0  0  0
   57.6590   30.8620   44.9580 C   0  0  0  0  0  0  0  0  0  0  0  0
   57.5690   32.1920   44.4860 C   0  0  0  0  0  0  0  0  0  0  0  0
   58.3630   33.2020   45.0350 C   0  0  0  0  0  0  0  0  0  0  0  0
   59.2580   32.9150   46.0670 C   0  0  0  0  0  0  0  0  0  0  0  0
   60.2920   34.1760   46.7370 S   0  0  0  0  0  0  0  0  0  0  0  0
   61.6140   34.1980   46.0190 O   0  0  0  0  0  0  0  0  0  0  0  0
   59.6170   35.5050   46.5380 O   0  0  0  0  0  0  0  0  0  0  0  0
   60.5380   33.8830   48.4410 N   0  0  0  0  0  0  0  0  0  0  0  0
   61.6120   32.8800   48.6330 C   0  0  0  0  0  0  0  0  0  0  0  0
   61.5950   32.2300   50.0450 C   0  0  1  0  0  0  0  0  0  0  0  0
   63.0170   31.9110   50.5250 C   0  0  0  0  0  0  0  0  0  0  0  0
   60.8620   33.1200   51.0630 C   0  0  0  0  0  0  0  0  0  0  0  0
   59.4110   33.4200   50.6140 C   0  0  2  0  0  0  0  0  0  0  0  0
   58.4150   32.4240   51.2200 C   0  0  0  0  0  0  0  0  0  0  0  0
   59.2760   33.4530   49.0700 C   0  0  0  0  0  0  0  0  0  0  0  0
   59.3640   31.6080   46.5490 C   0  0  0  0  0  0  0  0  0  0  0  0
   58.5720   30.5760   46.0090 C   0  0  0  0  0  0  0  0  0  0  0  0
   58.6700   29.2630   46.4970 C   0  0  0  0  0  0  0  0  0  0  0  0
   59.4370   28.9990   47.4660 O   0  0  0  0  0  0  0  0  0  0  0  0
   52.4927   24.3253   46.3200 H   0  0  0  0  0  0  0  0  0  0  0  0
   52.5006   25.2637   44.7883 H   0  0  0  0  0  0  0  0  0  0  0  0
   53.0065   23.5401   44.7883 H   0  0  0  0  0  0  0  0  0  0  0  0
   54.5728   23.6322   43.2142 H   0  0  0  0  0  0  0  0  0  0  0  0
   56.5953   22.4470   42.3734 H   0  0  0  0  0  0  0  0  0  0  0  0
   58.6590   22.3441   43.7704 H   0  0  0  0  0  0  0  0  0  0  0  0
   58.7026   23.4250   46.0151 H   0  0  0  0  0  0  0  0  0  0  0  0
   55.7622   24.5902   47.7739 H   0  0  0  0  0  0  0  0  0  0  0  0
   57.5451   24.3768   47.8192 H   0  0  0  0  0  0  0  0  0  0  0  0
   56.3727   27.7772   44.4636 H   0  0  0  0  0  0  0  0  0  0  0  0
   54.9436   30.3646   43.7779 H   0  0  0  0  0  0  0  0  0  0  0  0
   56.2801   30.9389   42.7240 H   0  0  0  0  0  0  0  0  0  0  0  0
   55.8191   29.2028   42.7240 H   0  0  0  0  0  0  0  0  0  0  0  0
   56.8649   32.4344   43.6764 H   0  0  0  0  0  0  0  0  0  0  0  0
   58.2823   34.2298   44.6516 H   0  0  0  0  0  0  0  0  0  0  0  0
   60.8360   34.7930   48.8640 H   0  0  0  0  0  0  0  0  0  0  0  0
   61.4885   32.0867   47.8811 H   0  0  0  0  0  0  0  0  0  0  0  0
   62.5730   33.4042   48.5251 H   0  0  0  0  0  0  0  0  0  0  0  0
   61.0413   31.2828   49.9653 H   0  0  0  0  0  0  0  0  0  0  0  0
   63.0402   31.9058   51.6247 H   0  0  0  0  0  0  0  0  0  0  0  0
   63.3185   30.9229   50.1472 H   0  0  0  0  0  0  0  0  0  0  0  0
   63.7117   32.6756   50.1472 H   0  0  0  0  0  0  0  0  0  0  0  0
   60.8361   32.6049   52.0346 H   0  0  0  0  0  0  0  0  0  0  0  0
   61.4036   34.0744   51.1397 H   0  0  0  0  0  0  0  0  0  0  0  0
   59.1662   34.4231   50.9932 H   0  0  0  0  0  0  0  0  0  0  0  0
   58.4667   32.4757   52.3176 H   0  0  0  0  0  0  0  0  0  0  0  0
   57.3968   32.6760   50.8886 H   0  0  0  0  0  0  0  0  0  0  0  0
   58.6670   31.4058   50.8886 H   0  0  0  0  0  0  0  0  0  0  0  0
   59.0185   32.4462   48.7093 H   0  0  0  0  0  0  0  0  0  0  0  0
   58.4869   34.1707   48.8013 H   0  0  0  0  0  0  0  0  0  0  0  0
   60.0735   31.3825   47.3588 H   0  0  0  0  0  0  0  0  0  0  0  0
  1  2  1  0
  2  3  1  0
  3  4  2  0
  4  5  1  0
  5  6  2  0
  6  7  1  0
  7  8  2  0
  8  9  1  0
  9 10  1  0
 10 11  1  0
 11 12  2  0
 11 13  1  0
 13 14  2  0
 14 15  1  0
 15 16  1  0
 15 17  1  0
 17 18  2  0
 18 19  1  0
 19 20  2  0
 20 21  1  0
 21 22  2  0
 21 23  2  0
 21 24  1  0
 24 25  1  0
 25 26  1  0
 26 27  1  0
 26 28  1  0
 28 29  1  0
 29 30  1  0
 29 31  1  0
 20 32  1  0
 32 33  2  0
 33 34  1  0
 34 35  2  0
  8  3  1  0
 34 13  1  0
 33 17  1  0
 31 24  1  0
  1 36  1  0
  1 37  1  0
  1 38  1  0
  4 39  1  0
  5 40  1  0
  6 41  1  0
  7 42  1  0
  9 43  1  0
  9 44  1  0
 14 45  1  0
 16 46  1  0
 16 47  1  0
 16 48  1  0
 18 49  1  0
 19 50  1  0
 24 51  1  0
 25 52  1  0
 25 53  1  0
 26 54  1  6
 27 55  1  0
 27 56  1  0
 27 57  1  0
 28 58  1  0
 28 59  1  0
 29 60  1  1
 30 61  1  0
 30 62  1  0
 30 63  1  0
 31 64  1  0
 31 65  1  0
 32 66  1  0
M  CHG  2  10  -1  24   1
M  END
>  <UniqueID>  (33) 
32

>  <SMILES>  (33) 
COc1ccccc1C[N-]C(=O)c1cn(C)c2ccc(S(=O)(=O)[NH+]3C[C@@H](C)C[C@H](C)C3)cc2c1=O

>  <Energy>  (33) 
83.61610428809323

>  <Genealogy>  (33) 
COc1ccccc1C[N-]C(=O)c1cn(C)c2ccc(S(=O)(=O)[NH+]3CC(C)CC(C)C3)cc2c1=O (protonated)
COc1ccccc1C[N-]C(=O)c1cn(C)c2ccc(S(=O)(=O)[NH+]3C[C@@H](C)C[C@H](C)C3)cc2c1=O (chirality)
COc1ccccc1C[N-]C(=O)c1cn(C)c2ccc(S(=O)(=O)[NH+]3C[C@@H](C)C[C@H](C)C3)cc2c1=O (3D coordinates assigned)
COc1ccccc1C[N-]C(=O)c1cn(C)c2ccc(S(=O)(=O)[NH+]3C[C@@H](C)C[C@H](C)C3)cc2c1=O (nonaromatic ring conformer: 83.61610428809323 kcal/mol)

>  <smiles>  (33) 
COc1ccccc1CNC(=O)c1cn(C)c2ccc(S(=O)(=O)N3CC(C)CC(C)C3)cc2c1=O

>  <score_type>  (33) 
oracle

>  <origin>  (33) 
adg

>  <m_score__min__energy>  (33) 
-10.34

>  <m_primary>  (33) 
energy

$$$$
33:0
     RDKit          3D

 34 35  0  0  0  0  0  0  0  0999 V2000
   55.5010   26.8260   45.9770 N   0  0  0  0  0  0  0  0  0  0  0  0
   56.9040   27.0900   45.8250 C   0  0  0  0  0  0  0  0  0  0  0  0
   57.8670   26.1990   46.3700 C   0  0  0  0  0  0  0  0  0  0  0  0
   57.5120   24.9290   47.0460 C   0  0  0  0  0  0  0  0  0  0  0  0
   56.3540   24.7130   47.4890 O   0  0  0  0  0  0  0  0  0  0  0  0
   59.2330   26.4910   46.2310 C   0  0  0  0  0  0  0  0  0  0  0  0
   59.6510   27.6160   45.5290 C   0  0  0  0  0  0  0  0  0  0  0  0
   58.7160   28.4820   44.9700 C   0  0  0  0  0  0  0  0  0  0  0  0
   57.3400   28.2470   45.1230 C   0  0  0  0  0  0  0  0  0  0  0  0
   56.3960   29.2570   44.5890 C   0  0  0  0  0  0  0  0  0  0  0  0
   55.1520   29.0660   44.6600 O   0  0  0  0  0  0  0  0  0  0  0  0
   56.9080   30.4540   43.9850 N   0  0  0  0  0  0  0  0  0  0  0  0
   57.6690   31.4830   44.6330 C   0  0  0  0  0  0  0  0  0  0  0  0
   58.0900   32.6410   43.9530 C   0  0  0  0  0  0  0  0  0  0  0  0
   58.8110   33.6300   44.6300 C   0  0  0  0  0  0  0  0  0  0  0  0
   59.1020   33.4860   45.9920 C   0  0  0  0  0  0  0  0  0  0  0  0
   60.0230   34.7280   46.8360 S   0  0  0  0  0  0  0  0  0  0  0  0
   59.3510   34.9710   48.4100 N   0  0  0  0  0  0  0  0  0  0  0  0
   61.4590   34.3000   46.9590 O   0  0  0  0  0  0  0  0  0  0  0  0
   59.9670   36.0160   46.0640 O   0  0  0  0  0  0  0  0  0  0  0  0
   58.6690   32.3420   46.6740 C   0  0  0  0  0  0  0  0  0  0  0  0
   57.9470   31.3530   45.9990 C   0  0  0  0  0  0  0  0  0  0  0  0
   55.1250   26.3880   46.8460 H   0  0  0  0  0  0  0  0  0  0  0  0
   54.8180   27.1000   45.2380 H   0  0  0  0  0  0  0  0  0  0  0  0
   58.2826   24.1529   47.1640 H   0  0  0  0  0  0  0  0  0  0  0  0
   59.9809   25.8225   46.6824 H   0  0  0  0  0  0  0  0  0  0  0  0
   60.7254   27.8224   45.4150 H   0  0  0  0  0  0  0  0  0  0  0  0
   59.0584   29.3598   44.4023 H   0  0  0  0  0  0  0  0  0  0  0  0
   57.8515   32.7686   42.8868 H   0  0  0  0  0  0  0  0  0  0  0  0
   59.1512   34.5257   44.0896 H   0  0  0  0  0  0  0  0  0  0  0  0
   58.9030   35.9140   48.4090 H   0  0  0  0  0  0  0  0  0  0  0  0
   60.1510   35.0170   49.0790 H   0  0  0  0  0  0  0  0  0  0  0  0
   58.8974   32.2212   47.7432 H   0  0  0  0  0  0  0  0  0  0  0  0
   57.5946   30.4658   46.5455 H   0  0  0  0  0  0  0  0  0  0  0  0
  1  2  1  0
  2  3  2  0
  3  4  1  0
  4  5  2  0
  3  6  1  0
  6  7  2  0
  7  8  1  0
  8  9  2  0
  9 10  1  0
 10 11  2  0
 10 12  1  0
 12 13  1  0
 13 14  2  0
 14 15  1  0
 15 16  2  0
 16 17  1  0
 17 18  1  0
 17 19  2  0
 17 20  2  0
 16 21  1  0
 21 22  2  0
  9  2  1  0
 22 13  1  0
  1 23  1  0
  1 24  1  0
  4 25  1  0
  6 26  1  0
  7 27  1  0
  8 28  1  0
 14 29  1  0
 15 30  1  0
 18 31  1  0
 18 32  1  0
 21 33  1  0
 22 34  1  0
M  CHG  1  12  -1
M  END
>  <UniqueID>  (34) 
33

>  <SMILES>  (34) 
Nc1c(C=O)cccc1C(=O)[N-]c1ccc(S(N)(=O)=O)cc1

>  <Energy>  (34) 
47.90208203848445

>  <Genealogy>  (34) 
Nc1c(C=O)cccc1C(=O)[N-]c1ccc(S(N)(=O)=O)cc1 (protonated)
Nc1c(C=O)cccc1C(=O)[N-]c1ccc(S(N)(=O)=O)cc1 (3D coordinates assigned)
Nc1c(C=O)cccc1C(=O)[N-]c1ccc(S(N)(=O)=O)cc1 (optimized conformer: 47.90208203848445 kcal/mol)

>  <smiles>  (34) 
Nc1c(C=O)cccc1C(=O)Nc1ccc(S(N)(=O)=O)cc1

>  <score_type>  (34) 
oracle

>  <origin>  (34) 
adg

>  <m_score__min__energy>  (34) 
-9.7699999999999996

>  <m_primary>  (34) 
energy

$$$$
34:0
     RDKit          3D

 47 49  0  0  0  0  0  0  0  0999 V2000
   56.3540   30.0110   43.3090 C   0  0  0  0  0  0  0  0  0  0  0  0
   56.3000   30.8160   44.4850 O   0  0  0  0  0  0  0  0  0  0  0  0
   57.4270   31.2970   45.1640 C   0  0  0  0  0  0  0  0  0  0  0  0
   58.3590   30.3720   45.6480 C   0  0  0  0  0  0  0  0  0  0  0  0
   59.5040   30.8030   46.3250 C   0  0  0  0  0  0  0  0  0  0  0  0
   59.7280   32.1680   46.5390 C   0  0  0  0  0  0  0  0  0  0  0  0
   60.9110   32.5710   47.2410 N   0  0  0  0  0  0  0  0  0  0  0  0
   61.3970   31.9620   48.7890 S   0  0  0  0  0  0  0  0  0  0  0  0
   62.7270   32.5510   49.1520 O   0  0  0  0  0  0  0  0  0  0  0  0
   61.5310   30.4680   48.6990 O   0  0  0  0  0  0  0  0  0  0  0  0
   60.2110   32.4370   50.0090 C   0  0  0  0  0  0  0  0  0  0  0  0
   58.9810   31.7730   50.0480 C   0  0  0  0  0  0  0  0  0  0  0  0
   58.0080   32.1180   51.0000 C   0  0  0  0  0  0  0  0  0  0  0  0
   56.7270   31.4760   51.0450 N   0  0  0  0  0  0  0  0  0  0  0  0
   56.1600   30.4940   52.3560 S   0  0  0  0  0  0  0  0  0  0  0  0
   56.8120   29.1450   52.2800 O   0  0  0  0  0  0  0  0  0  0  0  0
   56.5430   31.1480   53.6540 O   0  0  0  0  0  0  0  0  0  0  0  0
   54.4120   30.3040   52.2530 C   0  0  0  0  0  0  0  0  0  0  0  0
   53.8130   29.1190   52.7000 C   0  0  0  0  0  0  0  0  0  0  0  0
   52.4260   28.9790   52.6650 C   0  0  0  0  0  0  0  0  0  0  0  0
   51.6270   30.0230   52.1850 C   0  0  0  0  0  0  0  0  0  0  0  0
   52.2140   31.2130   51.7130 C   0  0  0  0  0  0  0  0  0  0  0  0
   51.3730   32.3130   51.1850 C   0  0  0  0  0  0  0  0  0  0  0  0
   51.0500   32.3420   49.9680 O   0  0  0  0  0  0  0  0  0  0  0  0
   50.9250   33.3260   52.0250 O   0  0  0  0  0  0  0  0  0  0  0  0
   53.6150   31.3430   51.7520 C   0  0  0  0  0  0  0  0  0  0  0  0
   58.2870   33.1250   51.9290 C   0  0  0  0  0  0  0  0  0  0  0  0
   59.5070   33.8070   51.8890 C   0  0  0  0  0  0  0  0  0  0  0  0
   60.4700   33.4750   50.9250 C   0  0  0  0  0  0  0  0  0  0  0  0
   61.6710   34.1760   50.8780 O   0  0  0  0  0  0  0  0  0  0  0  0
   58.7910   33.1030   46.0600 C   0  0  0  0  0  0  0  0  0  0  0  0
   57.6520   32.6690   45.3760 C   0  0  0  0  0  0  0  0  0  0  0  0
   56.4251   28.9508   43.5934 H   0  0  0  0  0  0  0  0  0  0  0  0
   55.4431   30.1705   42.7133 H   0  0  0  0  0  0  0  0  0  0  0  0
   57.2354   30.2908   42.7133 H   0  0  0  0  0  0  0  0  0  0  0  0
   58.1893   29.2961   45.4944 H   0  0  0  0  0  0  0  0  0  0  0  0
   60.2329   30.0652   46.6915 H   0  0  0  0  0  0  0  0  0  0  0  0
   58.7731   30.9710   49.3244 H   0  0  0  0  0  0  0  0  0  0  0  0
   54.4381   28.2973   53.0794 H   0  0  0  0  0  0  0  0  0  0  0  0
   51.9592   28.0466   53.0152 H   0  0  0  0  0  0  0  0  0  0  0  0
   50.5325   29.9133   52.1763 H   0  0  0  0  0  0  0  0  0  0  0  0
   54.0880   32.2665   51.3867 H   0  0  0  0  0  0  0  0  0  0  0  0
   57.5420   33.3824   52.6963 H   0  0  0  0  0  0  0  0  0  0  0  0
   59.7121   34.6066   52.6160 H   0  0  0  0  0  0  0  0  0  0  0  0
   62.4350   33.8820   50.2820 H   0  0  0  0  0  0  0  0  0  0  0  0
   58.9557   34.1781   46.2245 H   0  0  0  0  0  0  0  0  0  0  0  0
   56.9264   33.4058   45.0008 H   0  0  0  0  0  0  0  0  0  0  0  0
  1  2  1  0
  2  3  1  0
  3  4  2  0
  4  5  1  0
  5  6  2  0
  6  7  1  0
  7  8  1  0
  8  9  2  0
  8 10  2  0
  8 11  1  0
 11 12  2  0
 12 13  1  0
 13 14  1  0
 14 15  1  0
 15 16  2  0
 15 17  2  0
 15 18  1  0
 18 19  2  0
 19 20  1  0
 20 21  2  0
 21 22  1  0
 22 23  1  0
 23 24  2  0
 23 25  1  0
 22 26  2  0
 13 27  2  0
 27 28  1  0
 28 29  2  0
 29 30  1  0
  6 31  1  0
 31 32  2  0
 32  3  1  0
 29 11  1  0
 26 18  1  0
  1 33  1  0
  1 34  1  0
  1 35  1  0
  4 36  1  0
  5 37  1  0
 12 38  1  0
 19 39  1  0
 20 40  1  0
 21 41  1  0
 26 42  1  0
 27 43  1  0
 28 44  1  0
 30 45  1  0
 31 46  1  0
 32 47  1  0
M  CHG  3   7  -1  14  -1  25  -1
M  END
>  <UniqueID>  (35) 
34

>  <SMILES>  (35) 
COc1ccc([N-]S(=O)(=O)c2cc([N-]S(=O)(=O)c3cccc(C(=O)[O-])c3)ccc2O)cc1

>  <Energy>  (35) 
52.172776733624985

>  <Genealogy>  (35) 
COc1ccc([N-]S(=O)(=O)c2cc([N-]S(=O)(=O)c3cccc(C(=O)[O-])c3)ccc2O)cc1 (protonated)
COc1ccc([N-]S(=O)(=O)c2cc([N-]S(=O)(=O)c3cccc(C(=O)[O-])c3)ccc2O)cc1 (3D coordinates assigned)
COc1ccc([N-]S(=O)(=O)c2cc([N-]S(=O)(=O)c3cccc(C(=O)[O-])c3)ccc2O)cc1 (optimized conformer: 52.172776733624985 kcal/mol)

>  <smiles>  (35) 
COc1ccc(NS(=O)(=O)c2cc(NS(=O)(=O)c3cccc(C(=O)O)c3)ccc2O)cc1

>  <score_type>  (35) 
oracle

>  <origin>  (35) 
adg

>  <m_score__min__energy>  (35) 
-14.550000000000001

>  <m_primary>  (35) 
energy

$$$$
35:0
     RDKit          3D

 40 42  0  0  0  0  0  0  0  0999 V2000
   55.6390   28.4070   44.4920 H   0  0  0  0  0  0  0  0  0  0  0  0
   55.4650   29.4280   44.6330 N   0  0  0  0  0  0  0  0  0  0  0  0
   56.1980   30.3410   44.0800 C   0  0  0  0  0  0  0  0  0  0  0  0
   56.2800   30.4000   42.7240 N   0  0  0  0  0  0  0  0  0  0  0  0
   57.0380   31.3350   42.0910 C   0  0  0  0  0  0  0  0  0  0  0  0
   57.0816   31.3539   40.9920 H   0  0  0  0  0  0  0  0  0  0  0  0
   57.7610   32.2710   42.8330 C   0  0  0  0  0  0  0  0  0  0  0  0
   58.3775   33.0259   42.3231 H   0  0  0  0  0  0  0  0  0  0  0  0
   57.6950   32.2410   44.2320 C   0  0  0  0  0  0  0  0  0  0  0  0
   58.5020   33.2180   45.0440 C   0  0  0  0  0  0  0  0  0  0  0  0
   59.4313   33.4566   44.5060 H   0  0  0  0  0  0  0  0  0  0  0  0
   57.9095   34.1322   45.1963 H   0  0  0  0  0  0  0  0  0  0  0  0
   58.8330   32.6430   46.3470 N   0  0  0  0  0  0  0  0  0  0  0  0
   58.0470   32.4940   47.0200 H   0  0  0  0  0  0  0  0  0  0  0  0
   60.1830   32.3910   46.7830 C   0  0  0  0  0  0  0  0  0  0  0  0
   61.1410   33.4230   46.7530 C   0  0  0  0  0  0  0  0  0  0  0  0
   60.8438   34.4332   46.4350 H   0  0  0  0  0  0  0  0  0  0  0  0
   62.4640   33.1760   47.1230 C   0  0  0  0  0  0  0  0  0  0  0  0
   63.2024   33.9910   47.0980 H   0  0  0  0  0  0  0  0  0  0  0  0
   62.8510   31.8990   47.5240 C   0  0  0  0  0  0  0  0  0  0  0  0
   63.8949   31.7072   47.8128 H   0  0  0  0  0  0  0  0  0  0  0  0
   61.9170   30.8630   47.5600 C   0  0  0  0  0  0  0  0  0  0  0  0
   62.2303   29.8575   47.8774 H   0  0  0  0  0  0  0  0  0  0  0  0
   60.5780   31.0930   47.1940 C   0  0  0  0  0  0  0  0  0  0  0  0
   59.5990   29.9900   47.3140 C   0  0  0  0  0  0  0  0  0  0  0  0
   58.4950   30.2060   47.8840 O   0  0  0  0  0  0  0  0  0  0  0  0
   59.9180   28.6730   46.8280 N   0  0  0  0  0  0  0  0  0  0  0  0
   60.9030   28.4700   46.5470 H   0  0  0  0  0  0  0  0  0  0  0  0
   58.9750   27.5900   46.7680 C   0  0  0  0  0  0  0  0  0  0  0  0
   59.3270   26.2850   47.1490 C   0  0  0  0  0  0  0  0  0  0  0  0
   60.3506   26.0636   47.4854 H   0  0  0  0  0  0  0  0  0  0  0  0
   58.3690   25.2700   47.0980 C   0  0  0  0  0  0  0  0  0  0  0  0
   58.6421   24.2430   47.3822 H   0  0  0  0  0  0  0  0  0  0  0  0
   57.1000   25.5480   46.6980 N   0  0  0  0  0  0  0  0  0  0  0  0
   56.7250   26.8050   46.3430 C   0  0  0  0  0  0  0  0  0  0  0  0
   55.5380   27.0250   45.9830 O   0  0  0  0  0  0  0  0  0  0  0  0
   57.6530   27.8500   46.3800 C   0  0  0  0  0  0  0  0  0  0  0  0
   57.3476   28.8707   46.1062 H   0  0  0  0  0  0  0  0  0  0  0  0
   56.9100   31.2640   44.8620 C   0  0  0  0  0  0  0  0  0  0  0  0
   56.8528   31.2215   45.9597 H   0  0  0  0  0  0  0  0  0  0  0  0
  1  2  1  0
  2  3  2  0
  3  4  1  0
  4  5  1  0
  5  6  1  0
  5  7  2  0
  7  8  1  0
  7  9  1  0
  9 10  1  0
 10 11  1  0
 10 12  1  0
 10 13  1  0
 13 14  1  0
 13 15  1  0
 15 16  2  0
 16 17  1  0
 16 18  1  0
 18 19  1  0
 18 20  2  0
 20 21  1  0
 20 22  1  0
 22 23  1  0
 22 24  2  0
 24 25  1  0
 25 26  2  0
 25 27  1  0
 27 28  1  0
 27 29  1  0
 29 30  1  0
 30 31  1  0
 30 32  2  0
 32 33  1  0
 32 34  1  0
 34 35  1  0
 35 36  2  0
 35 37  1  0
 37 38  1  0
  9 39  2  0
 39 40  1  0
 39  3  1  0
 24 15  1  0
 37 29  2  0
M  CHG  2   4  -1  34  -1
M  END
>  <UniqueID>  (36) 
35

>  <SMILES>  (36) 
[H]/N=c1\cc(CNc2ccccc2C(=O)Nc2cc[n-]c(=O)c2)cc[n-]1

>  <Energy>  (36) 
53.657515242985724

>  <Genealogy>  (36) 
N=c1cc(CNc2ccccc2C(=O)Nc2cc[n-]c(=O)c2)cc[n-]1 (protonated)
[H]/N=c1\cc(CNc2ccccc2C(=O)Nc2cc[n-]c(=O)c2)cc[n-]1 (cis-trans isomerization)
[H]/N=c1\cc(CNc2ccccc2C(=O)Nc2cc[n-]c(=O)c2)cc[n-]1 (3D coordinates assigned)
[H]/N=c1\cc(CNc2ccccc2C(=O)Nc2cc[n-]c(=O)c2)cc[n-]1 (optimized conformer: 53.657515242985724 kcal/mol)

>  <smiles>  (36) 
N=c1cc(CNc2ccccc2C(=O)Nc2cc[nH]c(=O)c2)cc[nH]1

>  <score_type>  (36) 
oracle

>  <origin>  (36) 
adg

>  <m_score__min__energy>  (36) 
-10.880000000000001

>  <m_primary>  (36) 
energy

$$$$
36:0
     RDKit          3D

 53 57  0  0  0  0  0  0  0  0999 V2000
   57.9661   23.9853   48.2951 H   0  0  0  0  0  0  0  0  0  0  0  0
   57.3580   24.4840   47.5260 C   0  0  0  0  0  0  0  0  0  0  0  0
   59.7780   26.7140   47.7070 N   0  0  0  0  0  0  0  0  0  0  0  0
   57.5850   26.7740   46.8810 N   0  0  0  0  0  0  0  0  0  0  0  0
   56.8530   27.3950   45.9170 C   0  0  0  0  0  0  0  0  0  0  0  0
   55.5190   27.0810   45.6820 O   0  0  0  0  0  0  0  0  0  0  0  0
   57.5410   28.3630   45.1890 C   0  0  0  0  0  0  0  0  0  0  0  0
   57.0040   29.1610   44.0430 C   0  0  0  0  0  0  0  0  0  0  0  0
   55.9481   28.8994   43.8798 H   0  0  0  0  0  0  0  0  0  0  0  0
   57.5882   28.9337   43.1391 H   0  0  0  0  0  0  0  0  0  0  0  0
   57.1120   30.6250   44.3440 C   0  0  0  0  0  0  0  0  0  0  0  0
   56.0600   31.3040   44.4970 O   0  0  0  0  0  0  0  0  0  0  0  0
   58.4050   31.2390   44.4750 N   0  0  0  0  0  0  0  0  0  0  0  0
   59.2250   30.7500   44.0510 H   0  0  0  0  0  0  0  0  0  0  0  0
   58.6260   32.5190   45.0890 C   0  0  0  0  0  0  0  0  0  0  0  0
   58.7340   32.6530   46.4870 C   0  0  0  0  0  0  0  0  0  0  0  0
   58.6182   31.7703   47.1331 H   0  0  0  0  0  0  0  0  0  0  0  0
   58.9880   33.9050   47.0560 C   0  0  0  0  0  0  0  0  0  0  0  0
   59.0620   34.0060   48.1488 H   0  0  0  0  0  0  0  0  0  0  0  0
   59.1480   35.0280   46.2400 C   0  0  0  0  0  0  0  0  0  0  0  0
   59.3416   36.0125   46.6908 H   0  0  0  0  0  0  0  0  0  0  0  0
   59.0620   34.9000   44.8520 C   0  0  0  0  0  0  0  0  0  0  0  0
   59.1928   35.7836   44.2100 H   0  0  0  0  0  0  0  0  0  0  0  0
   58.8100   33.6510   44.2770 C   0  0  0  0  0  0  0  0  0  0  0  0
   58.7554   33.5537   43.1827 H   0  0  0  0  0  0  0  0  0  0  0  0
   59.1300   28.4100   45.7460 S   0  0  0  0  0  0  0  0  0  0  0  0
   58.8780   27.1980   46.8990 C   0  0  0  0  0  0  0  0  0  0  0  0
   57.0460   25.7380   47.6690 N   0  0  0  0  0  0  0  0  0  0  0  0
   60.3680   27.3780   48.8350 C   0  0  0  0  0  0  0  0  0  0  0  0
   60.4270   28.7790   48.8380 C   0  0  0  0  0  0  0  0  0  0  0  0
   60.0508   29.3445   47.9728 H   0  0  0  0  0  0  0  0  0  0  0  0
   60.9620   29.4610   49.9360 C   0  0  0  0  0  0  0  0  0  0  0  0
   61.0237   30.5592   49.9247 H   0  0  0  0  0  0  0  0  0  0  0  0
   61.4180   28.7470   51.0470 C   0  0  0  0  0  0  0  0  0  0  0  0
   61.8466   29.2830   51.9066 H   0  0  0  0  0  0  0  0  0  0  0  0
   61.3300   27.3530   51.0670 C   0  0  0  0  0  0  0  0  0  0  0  0
   61.6813   26.7929   51.9461 H   0  0  0  0  0  0  0  0  0  0  0  0
   60.7960   26.6690   49.9710 C   0  0  0  0  0  0  0  0  0  0  0  0
   60.7104   25.5727   49.9975 H   0  0  0  0  0  0  0  0  0  0  0  0
   56.9080   23.7210   46.3470 C   0  0  0  0  0  0  0  0  0  0  0  0
   55.5470   23.7310   45.9340 C   0  0  0  0  0  0  0  0  0  0  0  0
   54.8076   24.3114   46.5053 H   0  0  0  0  0  0  0  0  0  0  0  0
   55.1390   23.0040   44.8000 C   0  0  0  0  0  0  0  0  0  0  0  0
   54.0889   23.0062   44.4723 H   0  0  0  0  0  0  0  0  0  0  0  0
   56.1050   22.2830   44.1070 C   0  0  0  0  0  0  0  0  0  0  0  0
   57.4060   22.2680   44.4950 C   0  0  0  0  0  0  0  0  0  0  0  0
   57.8530   22.9730   45.6090 C   0  0  0  0  0  0  0  0  0  0  0  0
   58.9118   22.9486   45.9064 H   0  0  0  0  0  0  0  0  0  0  0  0
   58.1350   21.4760   43.6290 O   0  0  0  0  0  0  0  0  0  0  0  0
   57.2380   20.9640   42.6340 C   0  0  0  0  0  0  0  0  0  0  0  0
   57.5413   21.2993   41.6312 H   0  0  0  0  0  0  0  0  0  0  0  0
   57.2320   19.8643   42.6108 H   0  0  0  0  0  0  0  0  0  0  0  0
   55.9530   21.5020   42.9780 O   0  0  0  0  0  0  0  0  0  0  0  0
  1  2  1  0
  2  3  2  0
  3  4  1  0
  4  5  1  0
  5  6  1  0
  5  7  2  0
  7  8  1  0
  8  9  1  0
  8 10  1  0
  8 11  1  0
 11 12  2  0
 11 13  1  0
 13 14  1  0
 13 15  1  0
 15 16  2  0
 16 17  1  0
 16 18  1  0
 18 19  1  0
 18 20  2  0
 20 21  1  0
 20 22  1  0
 22 23  1  0
 22 24  2  0
 24 25  1  0
  7 26  1  0
 26 27  1  0
 27 28  2  0
 28 29  1  0
 29 30  2  0
 30 31  1  0
 30 32  1  0
 32 33  1  0
 32 34  2  0
 34 35  1  0
 34 36  1  0
 36 37  1  0
 36 38  2  0
 38 39  1  0
  2 40  1  0
 40 41  2  0
 41 42  1  0
 41 43  1  0
 43 44  1  0
 43 45  2  0
 45 46  1  0
 46 47  2  0
 47 48  1  0
 46 49  1  0
 49 50  1  0
 50 51  1  0
 50 52  1  0
 50 53  1  0
 27  4  1  0
 38 29  1  0
 47 40  1  0
 24 15  1  0
 53 45  1  0
M  CHG  1   6  -1
M  END
>  <UniqueID>  (37) 
36

>  <SMILES>  (37) 
O=C(Cc1s/c(=N\c2ccccc2)n(/N=C/c2ccc3c(c2)OCO3)c1[O-])Nc1ccccc1

>  <Energy>  (37) 
131.10221372300168

>  <Genealogy>  (37) 
O=C(Cc1sc(=Nc2ccccc2)n(N=Cc2ccc3c(c2)OCO3)c1[O-])Nc1ccccc1 (protonated)
O=C(Cc1s/c(=N\c2ccccc2)n(/N=C/c2ccc3c(c2)OCO3)c1[O-])Nc1ccccc1 (cis-trans isomerization)
O=C(Cc1s/c(=N\c2ccccc2)n(/N=C/c2ccc3c(c2)OCO3)c1[O-])Nc1ccccc1 (3D coordinates assigned)
O=C(Cc1s/c(=N\c2ccccc2)n(/N=C/c2ccc3c(c2)OCO3)c1[O-])Nc1ccccc1 (nonaromatic ring conformer: 131.10221372300168 kcal/mol)

>  <smiles>  (37) 
O=C(Cc1sc(=Nc2ccccc2)n(N=Cc2ccc3c(c2)OCO3)c1O)Nc1ccccc1

>  <score_type>  (37) 
oracle

>  <origin>  (37) 
adg

>  <m_score__min__energy>  (37) 
-12.58

>  <m_primary>  (37) 
energy

$$$$
37:0
     RDKit          3D

 75 80  0  0  0  0  0  0  0  0999 V2000
   57.0890   24.5960   43.8390 C   0  0  0  0  0  0  0  0  0  0  0  0
   57.1120   24.5430   45.3350 C   0  0  0  0  0  0  0  0  0  0  0  0
   56.8740   23.4050   46.0200 N   0  0  0  0  0  0  0  0  0  0  0  0
   57.0150   23.7570   47.3140 C   0  0  0  0  0  0  0  0  0  0  0  0
   57.3320   25.0940   47.3970 C   0  0  0  0  0  0  0  0  0  0  0  0
   57.3810   25.5910   46.1470 N   0  0  0  0  0  0  0  0  0  0  0  0
   57.6660   26.9570   45.7960 C   0  0  0  0  0  0  0  0  0  0  0  0
   58.9680   27.4660   45.8980 C   0  0  0  0  0  0  0  0  0  0  0  0
   59.2500   28.7850   45.5310 C   0  0  0  0  0  0  0  0  0  0  0  0
   60.9180   29.3410   45.6320 Cl  0  0  0  0  0  0  0  0  0  0  0  0
   58.2210   29.6180   45.0450 C   0  0  0  0  0  0  0  0  0  0  0  0
   58.5170   31.0070   44.6400 C   0  0  0  0  0  0  0  0  0  0  0  0
   58.6030   31.2820   43.4120 O   0  0  0  0  0  0  0  0  0  0  0  0
   58.7220   32.0390   45.6220 N   0  0  0  0  0  0  0  0  0  0  0  0
   57.6700   33.0370   45.8730 C   0  0  0  0  0  0  0  0  0  0  0  0
   58.2600   34.3260   46.4570 C   0  0  0  0  0  0  0  0  0  0  0  0
   59.0920   34.0690   47.7280 C   0  0  0  0  0  0  0  0  0  0  0  0
   59.8000   32.6910   47.7340 C   0  0  2  0  0  0  0  0  0  0  0  0
   61.0920   32.7230   48.5150 C   0  0  0  0  0  0  0  0  0  0  0  0
   61.1460   33.1820   49.8380 C   0  0  0  0  0  0  0  0  0  0  0  0
   62.3710   33.2130   50.4990 C   0  0  0  0  0  0  0  0  0  0  0  0
   63.5220   32.7760   49.8360 C   0  0  0  0  0  0  0  0  0  0  0  0
   64.8050   32.8250   50.4890 N   0  0  0  0  0  0  0  0  0  0  0  0
   66.0200   32.4490   49.7570 C   0  0  0  0  0  0  0  0  0  0  0  0
   67.0830   31.9020   50.7260 C   0  0  0  0  0  0  0  0  0  0  0  0
   66.4690   31.1120   51.8160 N   0  0  0  0  0  0  0  0  0  0  0  0
   65.8260   29.8790   51.3080 C   0  0  0  0  0  0  0  0  0  0  0  0
   66.7760   28.7150   51.4050 C   0  0  0  0  0  0  0  0  0  0  0  0
   66.6480   27.7710   52.4390 C   0  0  0  0  0  0  0  0  0  0  0  0
   67.5370   26.6950   52.5240 C   0  0  0  0  0  0  0  0  0  0  0  0
   68.5590   26.5540   51.5820 C   0  0  0  0  0  0  0  0  0  0  0  0
   68.6930   27.4900   50.5520 C   0  0  0  0  0  0  0  0  0  0  0  0
   67.8060   28.5670   50.4630 C   0  0  0  0  0  0  0  0  0  0  0  0
   65.5510   31.9240   52.6600 C   0  0  0  0  0  0  0  0  0  0  0  0
   64.9180   33.1180   51.9190 C   0  0  0  0  0  0  0  0  0  0  0  0
   63.4170   32.3390   48.5480 N   0  0  0  0  0  0  0  0  0  0  0  0
   62.2430   32.3170   47.9150 N   0  0  0  0  0  0  0  0  0  0  0  0
   60.0140   32.1400   46.3130 C   0  0  0  0  0  0  0  0  0  0  0  0
   56.9150   29.1030   44.9240 C   0  0  0  0  0  0  0  0  0  0  0  0
   55.5810   30.0970   44.3450 Cl  0  0  0  0  0  0  0  0  0  0  0  0
   56.6470   27.7820   45.2960 C   0  0  0  0  0  0  0  0  0  0  0  0
   56.6708   25.5597   43.5126 H   0  0  0  0  0  0  0  0  0  0  0  0
   58.1135   24.4912   43.4526 H   0  0  0  0  0  0  0  0  0  0  0  0
   56.4657   23.7761   43.4526 H   0  0  0  0  0  0  0  0  0  0  0  0
   56.8950   23.0793   48.1721 H   0  0  0  0  0  0  0  0  0  0  0  0
   57.5137   25.6581   48.3237 H   0  0  0  0  0  0  0  0  0  0  0  0
   59.7768   26.8204   46.2709 H   0  0  0  0  0  0  0  0  0  0  0  0
   57.1633   33.2711   44.9251 H   0  0  0  0  0  0  0  0  0  0  0  0
   56.9576   32.6185   46.5992 H   0  0  0  0  0  0  0  0  0  0  0  0
   58.9071   34.7929   45.6998 H   0  0  0  0  0  0  0  0  0  0  0  0
   57.4220   34.9833   46.7324 H   0  0  0  0  0  0  0  0  0  0  0  0
   59.8579   34.8545   47.8077 H   0  0  0  0  0  0  0  0  0  0  0  0
   58.3950   34.0787   48.5789 H   0  0  0  0  0  0  0  0  0  0  0  0
   59.1227   31.9949   48.2504 H   0  0  0  0  0  0  0  0  0  0  0  0
   60.2302   33.5143   50.3488 H   0  0  0  0  0  0  0  0  0  0  0  0
   62.4329   33.5784   51.5347 H   0  0  0  0  0  0  0  0  0  0  0  0
   65.7718   31.6744   49.0165 H   0  0  0  0  0  0  0  0  0  0  0  0
   66.4222   33.3397   49.2522 H   0  0  0  0  0  0  0  0  0  0  0  0
   67.7789   31.2591   50.1671 H   0  0  0  0  0  0  0  0  0  0  0  0
   67.6123   32.7555   51.1747 H   0  0  0  0  0  0  0  0  0  0  0  0
   64.9281   29.6652   51.9064 H   0  0  0  0  0  0  0  0  0  0  0  0
   65.5500   30.0282   50.2537 H   0  0  0  0  0  0  0  0  0  0  0  0
   65.8457   27.8792   53.1837 H   0  0  0  0  0  0  0  0  0  0  0  0
   67.4315   25.9583   53.3340 H   0  0  0  0  0  0  0  0  0  0  0  0
   69.2578   25.7072   51.6506 H   0  0  0  0  0  0  0  0  0  0  0  0
   69.4977   27.3788   49.8104 H   0  0  0  0  0  0  0  0  0  0  0  0
   67.9158   29.3014   49.6514 H   0  0  0  0  0  0  0  0  0  0  0  0
   64.7423   31.2711   53.0202 H   0  0  0  0  0  0  0  0  0  0  0  0
   66.1538   32.3394   53.4810 H   0  0  0  0  0  0  0  0  0  0  0  0
   63.9162   33.3109   52.3304 H   0  0  0  0  0  0  0  0  0  0  0  0
   65.5570   34.0031   52.0540 H   0  0  0  0  0  0  0  0  0  0  0  0
   64.2700   32.0430   48.0230 H   0  0  0  0  0  0  0  0  0  0  0  0
   60.6759   32.8177   45.7538 H   0  0  0  0  0  0  0  0  0  0  0  0
   60.4736   31.1425   46.3742 H   0  0  0  0  0  0  0  0  0  0  0  0
   55.6260   27.3851   45.1956 H   0  0  0  0  0  0  0  0  0  0  0  0
  1  2  1  0
  2  3  2  0
  3  4  1  0
  4  5  2  0
  5  6  1  0
  6  7  1  0
  7  8  2  0
  8  9  1  0
  9 10  1  0
  9 11  2  0
 11 12  1  0
 12 13  2  0
 12 14  1  0
 14 15  1  0
 15 16  1  0
 16 17  1  0
 17 18  1  0
 18 19  1  0
 19 20  2  0
 20 21  1  0
 21 22  2  0
 22 23  1  0
 23 24  1  0
 24 25  1  0
 25 26  1  0
 26 27  1  0
 27 28  1  0
 28 29  2  0
 29 30  1  0
 30 31  2  0
 31 32  1  0
 32 33  2  0
 26 34  1  0
 34 35  1  0
 22 36  1  0
 36 37  2  0
 18 38  1  0
 11 39  1  0
 39 40  1  0
 39 41  2  0
  6  2  1  0
 41  7  1  0
 38 14  1  0
 37 19  1  0
 35 23  1  0
 33 28  1  0
  1 42  1  0
  1 43  1  0
  1 44  1  0
  4 45  1  0
  5 46  1  0
  8 47  1  0
 15 48  1  0
 15 49  1  0
 16 50  1  0
 16 51  1  0
 17 52  1  0
 17 53  1  0
 18 54  1  1
 20 55  1  0
 21 56  1  0
 24 57  1  0
 24 58  1  0
 25 59  1  0
 25 60  1  0
 27 61  1  0
 27 62  1  0
 29 63  1  0
 30 64  1  0
 31 65  1  0
 32 66  1  0
 33 67  1  0
 34 68  1  0
 34 69  1  0
 35 70  1  0
 35 71  1  0
 36 72  1  0
 38 73  1  0
 38 74  1  0
 41 75  1  0
M  CHG  1  36   1
M  END
>  <UniqueID>  (38) 
37

>  <SMILES>  (38) 
Cc1nccn1-c1cc(Cl)c(C(=O)N2CCC[C@H](c3ccc(N4CCN(Cc5ccccc5)CC4)[nH+]n3)C2)c(Cl)c1

>  <Energy>  (38) 
136.56856109493273

>  <Genealogy>  (38) 
Cc1nccn1-c1cc(Cl)c(C(=O)N2CCCC(c3ccc(N4CCN(Cc5ccccc5)CC4)[nH+]n3)C2)c(Cl)c1 (protonated)
Cc1nccn1-c1cc(Cl)c(C(=O)N2CCC[C@H](c3ccc(N4CCN(Cc5ccccc5)CC4)[nH+]n3)C2)c(Cl)c1 (chirality)
Cc1nccn1-c1cc(Cl)c(C(=O)N2CCC[C@H](c3ccc(N4CCN(Cc5ccccc5)CC4)[nH+]n3)C2)c(Cl)c1 (3D coordinates assigned)
Cc1nccn1-c1cc(Cl)c(C(=O)N2CCC[C@H](c3ccc(N4CCN(Cc5ccccc5)CC4)[nH+]n3)C2)c(Cl)c1 (nonaromatic ring conformer: 136.56856109493273 kcal/mol)

>  <smiles>  (38) 
Cc1nccn1-c1cc(Cl)c(C(=O)N2CCCC(c3ccc(N4CCN(Cc5ccccc5)CC4)nn3)C2)c(Cl)c1

>  <score_type>  (38) 
oracle

>  <origin>  (38) 
adg

>  <m_score__min__energy>  (38) 
-8.9900000000000002

>  <m_primary>  (38) 
energy

$$$$
38:0
     RDKit          3D

 52 55  0  0  1  0  0  0  0  0999 V2000
   55.5130   26.5500   46.1490 O   0  0  0  0  0  0  0  0  0  0  0  0
   56.2940   25.6170   45.9090 C   0  0  0  0  0  0  0  0  0  0  0  0
   57.6680   25.8720   45.8280 N   0  0  0  0  0  0  0  0  0  0  0  0
   58.3260   27.1070   45.9890 C   0  0  0  0  0  0  0  0  0  0  0  0
   58.9120   27.8460   45.0080 C   0  0  0  0  0  0  0  0  0  0  0  0
   59.5500   29.0700   45.2500 C   0  0  0  0  0  0  0  0  0  0  0  0
   59.6120   29.5890   46.5220 C   0  0  0  0  0  0  0  0  0  0  0  0
   60.2560   30.8530   46.8500 C   0  0  0  0  0  0  0  0  0  0  0  0
   59.7510   32.0080   46.3790 N   0  0  0  0  0  0  0  0  0  0  0  0
   60.2670   33.2050   46.6240 C   0  0  0  0  0  0  0  0  0  0  0  0
   59.7570   34.2740   46.1570 N   0  0  0  0  0  0  0  0  0  0  0  0
   58.4480   34.4310   45.6050 C   0  0  0  0  0  0  0  0  0  0  0  0
   57.9980   33.2730   44.7890 C   0  0  0  0  0  0  0  0  0  0  0  0
   58.4820   33.0710   43.4920 C   0  0  0  0  0  0  0  0  0  0  0  0
   58.0770   32.0080   42.7200 C   0  0  0  0  0  0  0  0  0  0  0  0
   57.1740   31.0980   43.2040 C   0  0  0  0  0  0  0  0  0  0  0  0
   56.7530   30.0180   42.4440 O   0  0  0  0  0  0  0  0  0  0  0  0
   56.6800   31.2630   44.4680 C   0  0  0  0  0  0  0  0  0  0  0  0
   57.0930   32.3350   45.2350 C   0  0  0  0  0  0  0  0  0  0  0  0
   61.3940   33.2980   47.4080 C   0  0  0  0  0  0  0  0  0  0  0  0
   61.9290   32.1420   47.9010 C   0  0  0  0  0  0  0  0  0  0  0  0
   61.3570   30.9450   47.6170 N   0  0  0  0  0  0  0  0  0  0  0  0
   59.0210   28.8530   47.5270 C   0  0  0  0  0  0  0  0  0  0  0  0
   58.3990   27.6540   47.2800 C   0  0  0  0  0  0  0  0  0  0  0  0
   55.7760   24.3240   45.7250 N   0  0  0  0  0  0  0  0  0  0  0  0
   54.4370   23.9150   45.7750 C   0  0  0  0  0  0  0  0  0  0  0  0
   54.0590   22.9800   46.7520 C   0  0  0  0  0  0  0  0  0  0  0  0
   52.7650   22.5270   46.8690 C   0  0  0  0  0  0  0  0  0  0  0  0
   51.7620   22.9640   46.0340 C   0  0  0  0  0  0  0  0  0  0  0  0
   50.1360   22.3510   46.2320 Cl  0  0  0  0  0  0  0  0  0  0  0  0
   52.1110   23.8820   45.0670 C   0  0  0  0  0  0  0  0  0  0  0  0
   50.8690   24.4660   43.9820 Cl  0  0  0  0  0  0  0  0  0  0  0  0
   53.4250   24.3400   44.9520 C   0  0  0  0  0  0  0  0  0  0  0  0
   58.2880   25.0320   45.6200 H   0  0  0  0  0  0  0  0  0  0  0  0
   58.8835   27.4646   43.9766 H   0  0  0  0  0  0  0  0  0  0  0  0
   60.0057   29.6211   44.4142 H   0  0  0  0  0  0  0  0  0  0  0  0
   57.7369   34.5692   46.4328 H   0  0  0  0  0  0  0  0  0  0  0  0
   58.4861   35.3009   44.9329 H   0  0  0  0  0  0  0  0  0  0  0  0
   59.2090   33.7847   43.0771 H   0  0  0  0  0  0  0  0  0  0  0  0
   58.4816   31.8868   41.7043 H   0  0  0  0  0  0  0  0  0  0  0  0
   57.3940   29.2770   42.2270 H   0  0  0  0  0  0  0  0  0  0  0  0
   55.9543   30.5428   44.8739 H   0  0  0  0  0  0  0  0  0  0  0  0
   56.6802   32.4448   46.2487 H   0  0  0  0  0  0  0  0  0  0  0  0
   61.8503   34.2738   47.6309 H   0  0  0  0  0  0  0  0  0  0  0  0
   62.8291   32.1818   48.5321 H   0  0  0  0  0  0  0  0  0  0  0  0
   61.7990   30.0930   48.0140 H   0  0  0  0  0  0  0  0  0  0  0  0
   59.0486   29.2377   48.5572 H   0  0  0  0  0  0  0  0  0  0  0  0
   57.9445   27.1058   48.1184 H   0  0  0  0  0  0  0  0  0  0  0  0
   56.4940   23.5640   45.5220 H   0  0  0  0  0  0  0  0  0  0  0  0
   54.8218   22.5974   47.4461 H   0  0  0  0  0  0  0  0  0  0  0  0
   52.5251   21.7938   47.6532 H   0  0  0  0  0  0  0  0  0  0  0  0
   53.6591   25.0740   44.1668 H   0  0  0  0  0  0  0  0  0  0  0  0
  1  2  2  0
  2  3  1  0
  3  4  1  0
  4  5  2  0
  5  6  1  0
  6  7  2  0
  7  8  1  0
  8  9  2  0
  9 10  1  0
 10 11  2  0
 11 12  1  0
 12 13  1  0
 13 14  2  0
 14 15  1  0
 15 16  2  0
 16 17  1  0
 16 18  1  0
 18 19  2  0
 10 20  1  0
 20 21  2  0
 21 22  1  0
  7 23  1  0
 23 24  2  0
  2 25  1  0
 25 26  1  0
 26 27  2  0
 27 28  1  0
 28 29  2  0
 29 30  1  0
 29 31  1  0
 31 32  1  0
 31 33  2  0
 24  4  1  0
 33 26  1  0
 22  8  1  0
 19 13  1  0
  3 34  1  0
  5 35  1  0
  6 36  1  0
 12 37  1  0
 12 38  1  0
 14 39  1  0
 15 40  1  0
 17 41  1  0
 18 42  1  0
 19 43  1  0
 20 44  1  0
 21 45  1  0
 22 46  1  0
 23 47  1  0
 24 48  1  0
 25 49  1  0
 27 50  1  0
 28 51  1  0
 33 52  1  0
M  END
>  <smiles>  (39) 
O=C(Nc1ccc(-c2nc(=NCc3ccc(O)cc3)cc[nH]2)cc1)Nc1ccc(Cl)c(Cl)c1

>  <score_type>  (39) 
oracle

>  <origin>  (39) 
adg

>  <m_score__min__energy>  (39) 
-8.9199999999999999

>  <m_primary>  (39) 
energy

$$$$
39:0
     RDKit          3D

 47 49  0  0  0  0  0  0  0  0999 V2000
   62.6730   30.1860   50.8630 C   0  0  0  0  0  0  0  0  0  0  0  0
   61.7770   29.9940   49.7720 O   0  0  0  0  0  0  0  0  0  0  0  0
   60.9700   31.0030   49.2200 C   0  0  0  0  0  0  0  0  0  0  0  0
   59.6090   31.1380   49.5540 C   0  0  0  0  0  0  0  0  0  0  0  0
   58.8390   32.1530   48.9850 C   0  0  0  0  0  0  0  0  0  0  0  0
   59.4140   33.0560   48.0800 C   0  0  0  0  0  0  0  0  0  0  0  0
   58.5680   34.1150   47.4300 C   0  0  0  0  0  0  0  0  0  0  0  0
   58.4020   33.8090   45.9740 C   0  0  0  0  0  0  0  0  0  0  0  0
   58.5380   34.7330   45.1270 O   0  0  0  0  0  0  0  0  0  0  0  0
   58.0830   32.4730   45.5530 N   0  0  0  0  0  0  0  0  0  0  0  0
   57.8360   32.1200   44.1830 C   0  0  0  0  0  0  0  0  0  0  0  0
   58.4080   32.8850   43.1500 C   0  0  0  0  0  0  0  0  0  0  0  0
   58.0990   32.6170   41.8150 C   0  0  0  0  0  0  0  0  0  0  0  0
   57.2030   31.5970   41.4960 C   0  0  0  0  0  0  0  0  0  0  0  0
   56.6210   30.8330   42.5120 C   0  0  0  0  0  0  0  0  0  0  0  0
   56.9450   31.0680   43.8540 C   0  0  0  0  0  0  0  0  0  0  0  0
   56.3290   30.2430   44.8550 N   0  0  0  0  0  0  0  0  0  0  0  0
   56.7500   28.9320   45.2560 C   0  0  0  0  0  0  0  0  0  0  0  0
   55.8990   28.0040   45.2750 O   0  0  0  0  0  0  0  0  0  0  0  0
   58.1510   28.6290   45.6050 C   0  0  0  0  0  0  0  0  0  0  0  0
   58.6130   28.3190   46.8790 C   0  0  0  0  0  0  0  0  0  0  0  0
   59.9880   28.0580   46.9230 C   0  0  0  0  0  0  0  0  0  0  0  0
   60.6120   28.1460   45.6870 C   0  0  0  0  0  0  0  0  0  0  0  0
   59.4520   28.5500   44.5390 S   0  0  0  0  0  0  0  0  0  0  0  0
   60.7670   32.9190   47.7350 C   0  0  0  0  0  0  0  0  0  0  0  0
   61.5510   31.8950   48.3040 C   0  0  0  0  0  0  0  0  0  0  0  0
   62.9080   31.7310   47.9840 O   0  0  0  0  0  0  0  0  0  0  0  0
   63.6850   32.6750   47.2550 C   0  0  0  0  0  0  0  0  0  0  0  0
   62.1271   30.0690   51.8108 H   0  0  0  0  0  0  0  0  0  0  0  0
   63.4800   29.4404   50.8103 H   0  0  0  0  0  0  0  0  0  0  0  0
   63.1037   31.1968   50.8103 H   0  0  0  0  0  0  0  0  0  0  0  0
   59.1497   30.4387   50.2682 H   0  0  0  0  0  0  0  0  0  0  0  0
   57.7749   32.2451   49.2480 H   0  0  0  0  0  0  0  0  0  0  0  0
   57.5799   34.1402   47.9128 H   0  0  0  0  0  0  0  0  0  0  0  0
   59.0604   35.0923   47.5418 H   0  0  0  0  0  0  0  0  0  0  0  0
   58.1110   31.7090   46.2650 H   0  0  0  0  0  0  0  0  0  0  0  0
   59.1040   33.7005   43.3960 H   0  0  0  0  0  0  0  0  0  0  0  0
   58.5629   33.2111   41.0139 H   0  0  0  0  0  0  0  0  0  0  0  0
   56.9540   31.3934   40.4441 H   0  0  0  0  0  0  0  0  0  0  0  0
   55.9025   30.0406   42.2551 H   0  0  0  0  0  0  0  0  0  0  0  0
   57.9624   28.2824   47.7652 H   0  0  0  0  0  0  0  0  0  0  0  0
   60.5232   27.8068   47.8506 H   0  0  0  0  0  0  0  0  0  0  0  0
   61.6817   27.9800   45.4917 H   0  0  0  0  0  0  0  0  0  0  0  0
   61.2196   33.6163   47.0147 H   0  0  0  0  0  0  0  0  0  0  0  0
   64.2227   33.3282   47.9580 H   0  0  0  0  0  0  0  0  0  0  0  0
   64.4098   32.1423   46.6218 H   0  0  0  0  0  0  0  0  0  0  0  0
   63.0229   33.2839   46.6218 H   0  0  0  0  0  0  0  0  0  0  0  0
  1  2  1  0
  2  3  1  0
  3  4  2  0
  4  5  1  0
  5  6  2  0
  6  7  1  0
  7  8  1  0
  8  9  2  0
  8 10  1  0
 10 11  1  0
 11 12  2  0
 12 13  1  0
 13 14  2  0
 14 15  1  0
 15 16  2  0
 16 17  1  0
 17 18  1  0
 18 19  2  0
 18 20  1  0
 20 21  2  0
 21 22  1  0
 22 23  2  0
 23 24  1  0
  6 25  1  0
 25 26  2  0
 26 27  1  0
 27 28  1  0
 26  3  1  0
 16 11  1  0
 24 20  1  0
  1 29  1  0
  1 30  1  0
  1 31  1  0
  4 32  1  0
  5 33  1  0
  7 34  1  0
  7 35  1  0
 10 36  1  0
 12 37  1  0
 13 38  1  0
 14 39  1  0
 15 40  1  0
 21 41  1  0
 22 42  1  0
 23 43  1  0
 25 44  1  0
 28 45  1  0
 28 46  1  0
 28 47  1  0
M  CHG  1  17  -1
M  END
>  <UniqueID>  (40) 
38

>  <SMILES>  (40) 
COc1ccc(CC(=O)Nc2ccccc2[N-]C(=O)c2cccs2)cc1OC

>  <Energy>  (40) 
80.80539904918139

>  <Genealogy>  (40) 
COc1ccc(CC(=O)Nc2ccccc2[N-]C(=O)c2cccs2)cc1OC (protonated)
COc1ccc(CC(=O)Nc2ccccc2[N-]C(=O)c2cccs2)cc1OC (3D coordinates assigned)
COc1ccc(CC(=O)Nc2ccccc2[N-]C(=O)c2cccs2)cc1OC (optimized conformer: 80.80539904918139 kcal/mol)

>  <smiles>  (40) 
COc1ccc(CC(=O)Nc2ccccc2NC(=O)c2cccs2)cc1OC

>  <score_type>  (40) 
oracle

>  <origin>  (40) 
adg

>  <m_score__min__energy>  (40) 
-9.3200000000000003

>  <m_primary>  (40) 
energy

$$$$
40:0
     RDKit          3D

 52 55  0  0  0  0  0  0  0  0999 V2000
   56.5700   31.9820   45.2450 O   0  0  0  0  0  0  0  0  0  0  0  0
   57.6090   32.5330   44.7900 C   0  0  0  0  0  0  0  0  0  0  0  0
   57.8220   32.5840   43.2960 C   0  0  0  0  0  0  0  0  0  0  0  0
   56.9780   31.2260   42.4040 S   0  0  0  0  0  0  0  0  0  0  0  0
   57.6870   29.9360   43.4240 C   0  0  0  0  0  0  0  0  0  0  0  0
   57.2290   28.6760   43.4870 N   0  0  0  0  0  0  0  0  0  0  0  0
   58.0130   28.0100   44.3170 N   0  0  0  0  0  0  0  0  0  0  0  0
   58.9260   28.9060   44.7420 C   0  0  0  0  0  0  0  0  0  0  0  0
   60.0420   28.5810   45.6820 C   0  0  0  0  0  0  0  0  0  0  0  0
   60.4980   29.7630   46.3390 O   0  0  0  0  0  0  0  0  0  0  0  0
   60.3320   30.0570   47.7030 C   0  0  0  0  0  0  0  0  0  0  0  0
   59.0320   30.0520   48.2250 C   0  0  0  0  0  0  0  0  0  0  0  0
   58.8050   30.3540   49.5710 C   0  0  0  0  0  0  0  0  0  0  0  0
   59.8770   30.6680   50.4090 C   0  0  0  0  0  0  0  0  0  0  0  0
   61.1790   30.6700   49.9020 C   0  0  0  0  0  0  0  0  0  0  0  0
   61.4100   30.3660   48.5570 C   0  0  0  0  0  0  0  0  0  0  0  0
   58.7330   30.0880   44.1980 O   0  0  0  0  0  0  0  0  0  0  0  0
   58.5620   33.1130   45.7110 N   0  0  0  0  0  0  0  0  0  0  0  0
   59.7800   33.8030   45.2510 C   0  0  0  0  0  0  0  0  0  0  0  0
   60.9580   33.4610   46.1690 C   0  0  0  0  0  0  0  0  0  0  0  0
   60.6170   33.6550   47.5870 N   0  0  0  0  0  0  0  0  0  0  0  0
   61.6700   33.7070   48.5730 C   0  0  0  0  0  0  0  0  0  0  0  0
   62.9980   33.4000   48.2190 C   0  0  0  0  0  0  0  0  0  0  0  0
   64.0180   33.4550   49.1750 C   0  0  0  0  0  0  0  0  0  0  0  0
   63.7260   33.8170   50.4910 C   0  0  0  0  0  0  0  0  0  0  0  0
   62.4150   34.1300   50.8540 C   0  0  0  0  0  0  0  0  0  0  0  0
   61.3900   34.0760   49.9030 C   0  0  0  0  0  0  0  0  0  0  0  0
   59.2260   33.9340   47.9720 C   0  0  0  0  0  0  0  0  0  0  0  0
   58.2580   33.0740   47.1520 C   0  0  0  0  0  0  0  0  0  0  0  0
   57.4362   33.5430   42.9198 H   0  0  0  0  0  0  0  0  0  0  0  0
   58.9014   32.4749   43.1145 H   0  0  0  0  0  0  0  0  0  0  0  0
   56.4150   28.2710   42.9730 H   0  0  0  0  0  0  0  0  0  0  0  0
   59.6847   27.8627   46.4346 H   0  0  0  0  0  0  0  0  0  0  0  0
   60.8751   28.1459   45.1105 H   0  0  0  0  0  0  0  0  0  0  0  0
   58.1824   29.8083   47.5701 H   0  0  0  0  0  0  0  0  0  0  0  0
   57.7802   30.3443   49.9706 H   0  0  0  0  0  0  0  0  0  0  0  0
   59.6968   30.9133   51.4661 H   0  0  0  0  0  0  0  0  0  0  0  0
   62.0246   30.9114   50.5628 H   0  0  0  0  0  0  0  0  0  0  0  0
   62.4373   30.3680   48.1636 H   0  0  0  0  0  0  0  0  0  0  0  0
   60.0137   33.4831   44.2248 H   0  0  0  0  0  0  0  0  0  0  0  0
   59.6089   34.8893   45.2748 H   0  0  0  0  0  0  0  0  0  0  0  0
   61.2397   32.4095   46.0107 H   0  0  0  0  0  0  0  0  0  0  0  0
   61.7921   34.1341   45.9217 H   0  0  0  0  0  0  0  0  0  0  0  0
   63.2351   33.1149   47.1834 H   0  0  0  0  0  0  0  0  0  0  0  0
   65.0521   33.2125   48.8890 H   0  0  0  0  0  0  0  0  0  0  0  0
   64.5289   33.8556   51.2420 H   0  0  0  0  0  0  0  0  0  0  0  0
   62.1871   34.4199   51.8904 H   0  0  0  0  0  0  0  0  0  0  0  0
   60.3590   34.3233   50.1960 H   0  0  0  0  0  0  0  0  0  0  0  0
   59.0942   33.7083   49.0405 H   0  0  0  0  0  0  0  0  0  0  0  0
   59.0098   34.9950   47.7784 H   0  0  0  0  0  0  0  0  0  0  0  0
   58.3270   32.0329   47.5004 H   0  0  0  0  0  0  0  0  0  0  0  0
   57.2447   33.4777   47.2941 H   0  0  0  0  0  0  0  0  0  0  0  0
  1  2  2  0
  2  3  1  0
  3  4  1  0
  4  5  1  0
  5  6  2  0
  6  7  1  0
  7  8  2  0
  8  9  1  0
  9 10  1  0
 10 11  1  0
 11 12  2  0
 12 13  1  0
 13 14  2  0
 14 15  1  0
 15 16  2  0
  8 17  1  0
  2 18  1  0
 18 19  1  0
 19 20  1  0
 20 21  1  0
 21 22  1  0
 22 23  2  0
 23 24  1  0
 24 25  2  0
 25 26  1  0
 26 27  2  0
 21 28  1  0
 28 29  1  0
 17  5  1  0
 29 18  1  0
 16 11  1  0
 27 22  1  0
  3 30  1  0
  3 31  1  0
  6 32  1  0
  9 33  1  0
  9 34  1  0
 12 35  1  0
 13 36  1  0
 14 37  1  0
 15 38  1  0
 16 39  1  0
 19 40  1  0
 19 41  1  0
 20 42  1  0
 20 43  1  0
 23 44  1  0
 24 45  1  0
 25 46  1  0
 26 47  1  0
 27 48  1  0
 28 49  1  0
 28 50  1  0
 29 51  1  0
 29 52  1  0
M  CHG  1   6   1
M  END
>  <UniqueID>  (41) 
39

>  <SMILES>  (41) 
O=C(CSc1[nH+]nc(COc2ccccc2)o1)N1CCN(c2ccccc2)CC1

>  <Energy>  (41) 
89.07800320681345

>  <Genealogy>  (41) 
O=C(CSc1[nH+]nc(COc2ccccc2)o1)N1CCN(c2ccccc2)CC1 (protonated)
O=C(CSc1[nH+]nc(COc2ccccc2)o1)N1CCN(c2ccccc2)CC1 (3D coordinates assigned)
O=C(CSc1[nH+]nc(COc2ccccc2)o1)N1CCN(c2ccccc2)CC1 (nonaromatic ring conformer: 89.07800320681345 kcal/mol)

>  <smiles>  (41) 
O=C(CSc1nnc(COc2ccccc2)o1)N1CCN(c2ccccc2)CC1

>  <score_type>  (41) 
oracle

>  <origin>  (41) 
adg

>  <m_score__min__energy>  (41) 
-7.6900000000000004

>  <m_primary>  (41) 
energy

$$$$
41:0
     RDKit          3D

 27 27  0  0  0  0  0  0  0  0999 V2000
   54.8460   26.4230   45.9820 O   0  0  0  0  0  0  0  0  0  0  0  0
   55.8810   25.7910   46.3140 C   0  0  0  0  0  0  0  0  0  0  0  0
   55.7740   24.6700   47.1290 O   0  0  0  0  0  0  0  0  0  0  0  0
   57.2210   26.2080   45.7880 C   0  0  0  0  0  0  0  0  0  0  0  0
   57.0690   27.2530   44.7650 N   0  0  0  0  0  0  0  0  0  0  0  0
   57.9110   28.4170   45.0870 C   0  0  0  0  0  0  0  0  0  0  0  0
   57.0570   29.6780   45.3090 C   0  0  2  0  0  0  0  0  0  0  0  0
   55.6940   29.3500   45.2170 O   0  0  0  0  0  0  0  0  0  0  0  0
   57.4110   30.7320   44.2820 C   0  0  0  0  0  0  0  0  0  0  0  0
   56.9940   30.5870   42.9460 C   0  0  0  0  0  0  0  0  0  0  0  0
   57.2960   31.5730   42.0020 C   0  0  0  0  0  0  0  0  0  0  0  0
   58.0060   32.7140   42.3820 C   0  0  0  0  0  0  0  0  0  0  0  0
   58.4130   32.8740   43.7080 C   0  0  0  0  0  0  0  0  0  0  0  0
   58.1140   31.8920   44.6570 C   0  0  0  0  0  0  0  0  0  0  0  0
   57.8299   26.5983   46.6168 H   0  0  0  0  0  0  0  0  0  0  0  0
   57.7133   25.3349   45.3349 H   0  0  0  0  0  0  0  0  0  0  0  0
   56.0660   27.5520   44.7270 H   0  0  0  0  0  0  0  0  0  0  0  0
   57.3540   26.8640   43.8360 H   0  0  0  0  0  0  0  0  0  0  0  0
   58.4817   28.2045   46.0030 H   0  0  0  0  0  0  0  0  0  0  0  0
   58.5894   28.6006   44.2408 H   0  0  0  0  0  0  0  0  0  0  0  0
   57.2618   30.0805   46.3120 H   0  0  0  0  0  0  0  0  0  0  0  0
   55.1910   30.1070   45.6180 H   0  0  0  0  0  0  0  0  0  0  0  0
   56.4279   29.6939   42.6430 H   0  0  0  0  0  0  0  0  0  0  0  0
   56.9736   31.4498   40.9575 H   0  0  0  0  0  0  0  0  0  0  0  0
   58.2446   33.4868   41.6365 H   0  0  0  0  0  0  0  0  0  0  0  0
   58.9699   33.7744   44.0065 H   0  0  0  0  0  0  0  0  0  0  0  0
   58.4298   32.0267   45.7020 H   0  0  0  0  0  0  0  0  0  0  0  0
  1  2  2  0
  2  3  1  0
  2  4  1  0
  4  5  1  0
  5  6  1  0
  6  7  1  0
  7  8  1  0
  7  9  1  0
  9 10  2  0
 10 11  1  0
 11 12  2  0
 12 13  1  0
 13 14  2  0
 14  9  1  0
  4 15  1  0
  4 16  1  0
  5 17  1  0
  5 18  1  0
  6 19  1  0
  6 20  1  0
  7 21  1  1
  8 22  1  0
 10 23  1  0
 11 24  1  0
 12 25  1  0
 13 26  1  0
 14 27  1  0
M  CHG  2   3  -1   5   1
M  END
>  <UniqueID>  (42) 
40

>  <SMILES>  (42) 
O=C([O-])C[NH2+]C[C@H](O)c1ccccc1

>  <Energy>  (42) 
21.886967601609612

>  <Genealogy>  (42) 
O=C([O-])C[NH2+]CC(O)c1ccccc1 (protonated)
O=C([O-])C[NH2+]C[C@H](O)c1ccccc1 (chirality)
O=C([O-])C[NH2+]C[C@H](O)c1ccccc1 (3D coordinates assigned)
O=C([O-])C[NH2+]C[C@H](O)c1ccccc1 (optimized conformer: 21.886967601609612 kcal/mol)

>  <smiles>  (42) 
O=C(O)CNCC(O)c1ccccc1

>  <score_type>  (42) 
oracle

>  <origin>  (42) 
adg

>  <m_score__min__energy>  (42) 
-7.4800000000000004

>  <m_primary>  (42) 
energy

$$$$
42:0
     RDKit          3D

 48 49  0  0  0  0  0  0  0  0999 V2000
   64.0632   34.6635   46.0563 H   0  0  0  0  0  0  0  0  0  0  0  0
   63.4120   33.8480   46.4040 C   0  0  0  0  0  0  0  0  0  0  0  0
   62.4965   33.5997   45.8470 H   0  0  0  0  0  0  0  0  0  0  0  0
   63.7330   33.1590   47.5030 C   0  0  0  0  0  0  0  0  0  0  0  0
   64.6523   33.4215   48.0470 H   0  0  0  0  0  0  0  0  0  0  0  0
   62.8720   32.0300   48.0220 C   0  0  0  0  0  0  0  0  0  0  0  0
   62.0127   31.9065   47.3464 H   0  0  0  0  0  0  0  0  0  0  0  0
   63.5016   31.1287   48.0585 H   0  0  0  0  0  0  0  0  0  0  0  0
   62.3640   32.2670   49.3900 N   0  0  0  0  0  0  0  0  0  0  0  0
   61.6490   31.0920   49.9330 C   0  0  0  0  0  0  0  0  0  0  0  0
   62.3331   30.5221   50.5790 H   0  0  0  0  0  0  0  0  0  0  0  0
   60.7802   31.4464   50.5072 H   0  0  0  0  0  0  0  0  0  0  0  0
   61.1480   30.1790   48.8040 C   0  0  0  0  0  0  0  0  0  0  0  0
   61.1925   30.7291   47.8524 H   0  0  0  0  0  0  0  0  0  0  0  0
   61.7904   29.2867   48.7693 H   0  0  0  0  0  0  0  0  0  0  0  0
   59.7100   29.7270   49.0500 C   0  0  0  0  0  0  0  0  0  0  0  0
   59.5241   29.6686   50.1326 H   0  0  0  0  0  0  0  0  0  0  0  0
   59.0158   30.4503   48.5973 H   0  0  0  0  0  0  0  0  0  0  0  0
   59.5544   28.7366   48.5973 H   0  0  0  0  0  0  0  0  0  0  0  0
   61.3970   33.7320   49.4690 S   0  0  0  0  0  0  0  0  0  0  0  0
   62.2810   34.9440   49.3720 O   0  0  0  0  0  0  0  0  0  0  0  0
   60.6360   33.7910   50.7640 O   0  0  0  0  0  0  0  0  0  0  0  0
   60.2230   33.7330   48.1570 C   0  0  0  0  0  0  0  0  0  0  0  0
   60.4370   34.5450   47.0370 C   0  0  0  0  0  0  0  0  0  0  0  0
   61.3366   35.1757   46.9828 H   0  0  0  0  0  0  0  0  0  0  0  0
   59.5150   34.5590   45.9880 C   0  0  0  0  0  0  0  0  0  0  0  0
   59.6929   35.2013   45.1129 H   0  0  0  0  0  0  0  0  0  0  0  0
   58.3600   33.7570   46.0430 C   0  0  0  0  0  0  0  0  0  0  0  0
   57.3800   33.7680   44.9300 C   0  0  0  0  0  0  0  0  0  0  0  0
   56.6150   34.7620   44.7800 O   0  0  0  0  0  0  0  0  0  0  0  0
   57.3040   32.6440   44.0330 N   0  0  0  0  0  0  0  0  0  0  0  0
   57.3560   31.3810   44.3490 C   0  0  0  0  0  0  0  0  0  0  0  0
   56.2220   30.6390   44.4960 N   0  0  0  0  0  0  0  0  0  0  0  0
   56.2600   29.3190   44.8250 C   0  0  0  0  0  0  0  0  0  0  0  0
   55.3229   28.7532   44.9328 H   0  0  0  0  0  0  0  0  0  0  0  0
   57.4920   28.6780   45.0270 C   0  0  0  0  0  0  0  0  0  0  0  0
   57.5610   27.2240   45.3820 C   0  0  0  0  0  0  0  0  0  0  0  0
   57.5662   27.1136   46.4764 H   0  0  0  0  0  0  0  0  0  0  0  0
   56.6866   26.7029   44.9651 H   0  0  0  0  0  0  0  0  0  0  0  0
   58.4808   26.7880   44.9651 H   0  0  0  0  0  0  0  0  0  0  0  0
   58.6690   29.4230   44.8770 C   0  0  0  0  0  0  0  0  0  0  0  0
   59.6466   28.9410   45.0250 H   0  0  0  0  0  0  0  0  0  0  0  0
   58.6030   30.7760   44.5400 C   0  0  0  0  0  0  0  0  0  0  0  0
   59.5261   31.3632   44.4253 H   0  0  0  0  0  0  0  0  0  0  0  0
   58.1510   32.9420   47.1710 C   0  0  0  0  0  0  0  0  0  0  0  0
   57.2528   32.3096   47.2295 H   0  0  0  0  0  0  0  0  0  0  0  0
   59.0780   32.9310   48.2180 C   0  0  0  0  0  0  0  0  0  0  0  0
   58.9061   32.2885   49.0941 H   0  0  0  0  0  0  0  0  0  0  0  0
  1  2  1  0
  2  3  1  0
  2  4  2  0
  4  5  1  0
  4  6  1  0
  6  7  1  0
  6  8  1  0
  6  9  1  0
  9 10  1  0
 10 11  1  0
 10 12  1  0
 10 13  1  0
 13 14  1  0
 13 15  1  0
 13 16  1  0
 16 17  1  0
 16 18  1  0
 16 19  1  0
  9 20  1  0
 20 21  2  0
 20 22  2  0
 20 23  1  0
 23 24  2  0
 24 25  1  0
 24 26  1  0
 26 27  1  0
 26 28  2  0
 28 29  1  0
 29 30  2  0
 29 31  1  0
 31 32  2  0
 32 33  1  0
 33 34  1  0
 34 35  1  0
 34 36  2  0
 36 37  1  0
 37 38  1  0
 37 39  1  0
 37 40  1  0
 36 41  1  0
 41 42  1  0
 41 43  2  0
 43 44  1  0
 28 45  1  0
 45 46  1  0
 45 47  2  0
 47 48  1  0
 47 23  1  0
 43 32  1  0
M  CHG  1  33  -1
M  END
>  <UniqueID>  (43) 
41

>  <SMILES>  (43) 
C=CCN(CCC)S(=O)(=O)c1ccc(C(=O)/N=c2/ccc(C)c[n-]2)cc1

>  <Energy>  (43) 
47.792902790280145

>  <Genealogy>  (43) 
C=CCN(CCC)S(=O)(=O)c1ccc(C(=O)N=c2ccc(C)c[n-]2)cc1 (protonated)
C=CCN(CCC)S(=O)(=O)c1ccc(C(=O)/N=c2/ccc(C)c[n-]2)cc1 (cis-trans isomerization)
C=CCN(CCC)S(=O)(=O)c1ccc(C(=O)/N=c2/ccc(C)c[n-]2)cc1 (3D coordinates assigned)
C=CCN(CCC)S(=O)(=O)c1ccc(C(=O)/N=c2/ccc(C)c[n-]2)cc1 (optimized conformer: 47.792902790280145 kcal/mol)

>  <smiles>  (43) 
C=CCN(CCC)S(=O)(=O)c1ccc(C(=O)N=c2ccc(C)c[nH]2)cc1

>  <score_type>  (43) 
oracle

>  <origin>  (43) 
adg

>  <m_score__min__energy>  (43) 
-10.18

>  <m_primary>  (43) 
energy

$$$$
43:0
     RDKit          3D

 15 15  0  0  0  0  0  0  0  0999 V2000
   57.0450   30.3620   45.1990 O   0  0  0  0  0  0  0  0  0  0  0  0
   56.5030   29.2250   45.2160 C   0  0  0  0  0  0  0  0  0  0  0  0
   55.1540   29.1270   44.8960 O   0  0  0  0  0  0  0  0  0  0  0  0
   57.2980   28.0200   45.5700 C   0  0  0  0  0  0  0  0  0  0  0  0
   58.7050   28.0760   45.5180 C   0  0  0  0  0  0  0  0  0  0  0  0
   59.4760   26.9600   45.8460 C   0  0  0  0  0  0  0  0  0  0  0  0
   58.8580   25.7700   46.2310 C   0  0  0  0  0  0  0  0  0  0  0  0
   57.4660   25.6950   46.2880 C   0  0  0  0  0  0  0  0  0  0  0  0
   56.6790   26.8090   45.9620 C   0  0  0  0  0  0  0  0  0  0  0  0
   55.2890   26.7070   46.0280 O   0  0  0  0  0  0  0  0  0  0  0  0
   59.2012   29.0099   45.2155 H   0  0  0  0  0  0  0  0  0  0  0  0
   60.5735   27.0188   45.8009 H   0  0  0  0  0  0  0  0  0  0  0  0
   59.4677   24.8916   46.4894 H   0  0  0  0  0  0  0  0  0  0  0  0
   56.9821   24.7548   46.5910 H   0  0  0  0  0  0  0  0  0  0  0  0
   54.7140   27.4710   46.3610 H   0  0  0  0  0  0  0  0  0  0  0  0
  1  2  2  0
  2  3  1  0
  2  4  1  0
  4  5  2  0
  5  6  1  0
  6  7  2  0
  7  8  1  0
  8  9  2  0
  9 10  1  0
  9  4  1  0
  5 11  1  0
  6 12  1  0
  7 13  1  0
  8 14  1  0
 10 15  1  0
M  CHG  1   3  -1
M  END
>  <UniqueID>  (44) 
42

>  <SMILES>  (44) 
O=C([O-])c1ccccc1O

>  <Energy>  (44) 
15.729263522318686

>  <Genealogy>  (44) 
O=C([O-])c1ccccc1O (protonated)
O=C([O-])c1ccccc1O (3D coordinates assigned)
O=C([O-])c1ccccc1O (optimized conformer: 15.729263522318686 kcal/mol)

>  <smiles>  (44) 
O=C(O)c1ccccc1O

>  <score_type>  (44) 
oracle

>  <origin>  (44) 
adg

>  <m_score__min__energy>  (44) 
-8.5999999999999996

>  <m_primary>  (44) 
energy

$$$$
44:0
     RDKit          3D

 39 41  0  0  0  0  0  0  0  0999 V2000
   59.2820   35.7410   49.4260 H   0  0  0  0  0  0  0  0  0  0  0  0
   59.7120   34.9450   48.9670 O   0  0  0  0  0  0  0  0  0  0  0  0
   59.3770   34.5900   47.6630 C   0  0  0  0  0  0  0  0  0  0  0  0
   59.9510   35.2540   46.5690 C   0  0  0  0  0  0  0  0  0  0  0  0
   60.6648   36.0739   46.7368 H   0  0  0  0  0  0  0  0  0  0  0  0
   59.6170   34.8750   45.2660 C   0  0  0  0  0  0  0  0  0  0  0  0
   60.0761   35.3908   44.4098 H   0  0  0  0  0  0  0  0  0  0  0  0
   58.7000   33.8410   45.0480 C   0  0  0  0  0  0  0  0  0  0  0  0
   58.4529   33.5325   44.0215 H   0  0  0  0  0  0  0  0  0  0  0  0
   58.0970   33.1990   46.1360 C   0  0  0  0  0  0  0  0  0  0  0  0
   57.1840   32.1180   45.9090 N   0  0  0  0  0  0  0  0  0  0  0  0
   57.3860   31.0070   45.2520 C   0  0  0  0  0  0  0  0  0  0  0  0
   56.3460   30.5210   44.5200 N   0  0  0  0  0  0  0  0  0  0  0  0
   56.4380   29.3980   43.7620 C   0  0  0  0  0  0  0  0  0  0  0  0
   55.5686   29.0526   43.1834 H   0  0  0  0  0  0  0  0  0  0  0  0
   57.6300   28.6850   43.7170 C   0  0  0  0  0  0  0  0  0  0  0  0
   57.7172   27.7866   43.0883 H   0  0  0  0  0  0  0  0  0  0  0  0
   58.7120   29.1200   44.4760 C   0  0  0  0  0  0  0  0  0  0  0  0
   59.6506   28.5465   44.4654 H   0  0  0  0  0  0  0  0  0  0  0  0
   58.6170   30.2850   45.2560 C   0  0  0  0  0  0  0  0  0  0  0  0
   59.7150   30.5570   46.2070 C   0  0  0  0  0  0  0  0  0  0  0  0
   60.6534   30.9569   45.7953 H   0  0  0  0  0  0  0  0  0  0  0  0
   59.6590   30.3550   47.5340 C   0  0  0  0  0  0  0  0  0  0  0  0
   58.6964   30.0234   47.9506 H   0  0  0  0  0  0  0  0  0  0  0  0
   60.7830   30.5400   48.4890 C   0  0  0  0  0  0  0  0  0  0  0  0
   60.9710   29.7100   49.4190 O   0  0  0  0  0  0  0  0  0  0  0  0
   61.7040   31.6970   48.3720 C   0  0  0  0  0  0  0  0  0  0  0  0
   61.7200   32.7230   49.3380 C   0  0  0  0  0  0  0  0  0  0  0  0
   61.0498   32.6648   50.2083 H   0  0  0  0  0  0  0  0  0  0  0  0
   62.5830   33.8150   49.1970 C   0  0  0  0  0  0  0  0  0  0  0  0
   62.5900   34.6103   49.9569 H   0  0  0  0  0  0  0  0  0  0  0  0
   63.4350   33.8980   48.0950 C   0  0  0  0  0  0  0  0  0  0  0  0
   64.1171   34.7546   47.9899 H   0  0  0  0  0  0  0  0  0  0  0  0
   63.4210   32.8930   47.1260 C   0  0  0  0  0  0  0  0  0  0  0  0
   64.0904   32.9605   46.2557 H   0  0  0  0  0  0  0  0  0  0  0  0
   62.5590   31.8020   47.2590 C   0  0  0  0  0  0  0  0  0  0  0  0
   62.5483   31.0182   46.4873 H   0  0  0  0  0  0  0  0  0  0  0  0
   58.4590   33.5570   47.4430 C   0  0  0  0  0  0  0  0  0  0  0  0
   58.0194   33.0235   48.2987 H   0  0  0  0  0  0  0  0  0  0  0  0
  1  2  1  0
  2  3  1  0
  3  4  2  0
  4  5  1  0
  4  6  1  0
  6  7  1  0
  6  8  2  0
  8  9  1  0
  8 10  1  0
 10 11  1  0
 11 12  2  3
 12 13  1  0
 13 14  1  0
 14 15  1  0
 14 16  2  0
 16 17  1  0
 16 18  1  0
 18 19  1  0
 18 20  2  0
 20 21  1  0
 21 22  1  0
 21 23  2  0
 23 24  1  0
 23 25  1  0
 25 26  2  0
 25 27  1  0
 27 28  2  0
 28 29  1  0
 28 30  1  0
 30 31  1  0
 30 32  2  0
 32 33  1  0
 32 34  1  0
 34 35  1  0
 34 36  2  0
 36 37  1  0
 10 38  2  0
 38 39  1  0
 38  3  1  0
 20 12  1  0
 36 27  1  0
M  CHG  1  13  -1
M  END
>  <UniqueID>  (45) 
43

>  <SMILES>  (45) 
O=C(/C=C\c1ccc[n-]c1=Nc1cccc(O)c1)c1ccccc1

>  <Energy>  (45) 
67.58949893719117

>  <Genealogy>  (45) 
O=C(C=Cc1ccc[n-]c1=Nc1cccc(O)c1)c1ccccc1 (protonated)
O=C(/C=C\c1ccc[n-]c1=Nc1cccc(O)c1)c1ccccc1 (cis-trans isomerization)
O=C(/C=C\c1ccc[n-]c1=Nc1cccc(O)c1)c1ccccc1 (3D coordinates assigned)
O=C(/C=C\c1ccc[n-]c1=Nc1cccc(O)c1)c1ccccc1 (optimized conformer: 67.58949893719117 kcal/mol)

>  <smiles>  (45) 
O=C(C=Cc1ccc[nH]c1=Nc1cccc(O)c1)c1ccccc1

>  <score_type>  (45) 
oracle

>  <origin>  (45) 
adg

>  <m_score__min__energy>  (45) 
-9.8100000000000005

>  <m_primary>  (45) 
energy

$$$$
45:0
     RDKit          3D

 73 77  0  0  0  0  0  0  0  0999 V2000
   65.5008   33.4363   49.2073 H   0  0  0  0  0  0  0  0  0  0  0  0
   64.4660   33.1520   49.4490 C   0  0  0  0  0  0  0  0  0  0  0  0
   63.7580   33.8580   50.4210 C   0  0  0  0  0  0  0  0  0  0  0  0
   64.2391   34.6927   50.9518 H   0  0  0  0  0  0  0  0  0  0  0  0
   62.4380   33.5080   50.7230 C   0  0  0  0  0  0  0  0  0  0  0  0
   61.8791   34.0802   51.4782 H   0  0  0  0  0  0  0  0  0  0  0  0
   61.8200   32.4250   50.0640 C   0  0  0  0  0  0  0  0  0  0  0  0
   60.4980   32.0300   50.3350 O   0  0  0  0  0  0  0  0  0  0  0  0
   59.3320   32.8170   50.0920 C   0  0  0  0  0  0  0  0  0  0  0  0
   59.6346   33.8049   49.7145 H   0  0  0  0  0  0  0  0  0  0  0  0
   58.7046   32.3023   49.3494 H   0  0  0  0  0  0  0  0  0  0  0  0
   58.5260   32.9960   51.3810 C   0  0  0  0  0  0  0  0  0  0  0  0
   59.1524   32.7140   52.2401 H   0  0  0  0  0  0  0  0  0  0  0  0
   58.2180   34.0490   51.4611 H   0  0  0  0  0  0  0  0  0  0  0  0
   57.3310   32.1590   51.3650 N   0  0  0  0  0  0  0  0  0  0  0  0
   57.3600   30.7310   51.3580 C   0  0  0  0  0  0  0  0  0  0  0  0
   56.4450   30.0950   51.9460 O   0  0  0  0  0  0  0  0  0  0  0  0
   58.3960   30.0490   50.7060 O   0  0  0  0  0  0  0  0  0  0  0  0
   59.3510   29.2350   51.3890 C   0  0  2  0  0  0  0  0  0  0  0  0
   58.8328   28.3898   51.8655 H   0  0  0  0  0  0  0  0  0  0  0  0
   60.0620   30.0490   52.4800 C   0  0  0  0  0  0  0  0  0  0  0  0
   60.5084   30.9466   52.0272 H   0  0  0  0  0  0  0  0  0  0  0  0
   59.3248   30.3331   53.2454 H   0  0  0  0  0  0  0  0  0  0  0  0
   61.1700   29.2160   53.1470 C   0  0  0  0  0  0  0  0  0  0  0  0
   61.7124   29.8577   53.8570 H   0  0  0  0  0  0  0  0  0  0  0  0
   60.6862   28.3661   53.6505 H   0  0  0  0  0  0  0  0  0  0  0  0
   62.1410   28.6620   52.1730 N   0  0  2  0  0  0  0  0  0  0  0  0
   62.7390   27.9790   52.6970 H   0  0  0  0  0  0  0  0  0  0  0  0
   63.0570   29.6940   51.6490 C   0  0  0  0  0  0  0  0  0  0  0  0
   63.5289   30.2257   52.4884 H   0  0  0  0  0  0  0  0  0  0  0  0
   63.8341   29.2165   51.0341 H   0  0  0  0  0  0  0  0  0  0  0  0
   62.4906   30.4089   51.0341 H   0  0  0  0  0  0  0  0  0  0  0  0
   61.4740   27.9010   51.0900 C   0  0  0  0  0  0  0  0  0  0  0  0
   62.2313   27.6108   50.3468 H   0  0  0  0  0  0  0  0  0  0  0  0
   60.9947   27.0238   51.5491 H   0  0  0  0  0  0  0  0  0  0  0  0
   60.3750   28.7100   50.3810 C   0  0  0  0  0  0  0  0  0  0  0  0
   60.8347   29.5612   49.8574 H   0  0  0  0  0  0  0  0  0  0  0  0
   59.8599   28.0529   49.6649 H   0  0  0  0  0  0  0  0  0  0  0  0
   62.5590   31.6910   49.1150 C   0  0  0  0  0  0  0  0  0  0  0  0
   61.9330   30.6460   48.3630 N   0  0  0  0  0  0  0  0  0  0  0  0
   60.8860   30.6630   47.5810 C   0  0  0  0  0  0  0  0  0  0  0  0
   60.1450   29.5250   47.5530 N   0  0  0  0  0  0  0  0  0  0  0  0
   59.0480   29.3530   46.7720 C   0  0  0  0  0  0  0  0  0  0  0  0
   58.3690   28.1310   46.7830 C   0  0  0  0  0  0  0  0  0  0  0  0
   58.7660   27.2100   47.5480 O   0  0  0  0  0  0  0  0  0  0  0  0
   57.2650   27.9370   45.9330 C   0  0  0  0  0  0  0  0  0  0  0  0
   56.5230   26.6490   45.8780 C   0  0  0  0  0  0  0  0  0  0  0  0
   57.1320   25.5560   45.7330 O   0  0  0  0  0  0  0  0  0  0  0  0
   55.1380   26.6310   45.9870 O   0  0  0  0  0  0  0  0  0  0  0  0
   56.8590   29.0020   45.1130 C   0  0  0  0  0  0  0  0  0  0  0  0
   56.0181   28.8549   44.4193 H   0  0  0  0  0  0  0  0  0  0  0  0
   57.4850   30.2200   45.1560 N   0  0  0  0  0  0  0  0  0  0  0  0
   56.9820   31.2900   44.2700 C   0  0  0  0  0  0  0  0  0  0  0  0
   56.4476   31.8509   45.0509 H   0  0  0  0  0  0  0  0  0  0  0  0
   56.6770   30.8220   42.8490 C   0  0  0  0  0  0  0  0  0  0  0  0
   56.7899   29.7603   42.5843 H   0  0  0  0  0  0  0  0  0  0  0  0
   55.8105   30.8989   42.1758 H   0  0  0  0  0  0  0  0  0  0  0  0
   57.9050   31.6710   43.1130 C   0  0  0  0  0  0  0  0  0  0  0  0
   58.9077   31.2245   43.0401 H   0  0  0  0  0  0  0  0  0  0  0  0
   58.2962   32.6171   42.7107 H   0  0  0  0  0  0  0  0  0  0  0  0
   58.6080   30.3950   45.9370 C   0  0  0  0  0  0  0  0  0  0  0  0
   59.3460   31.5940   45.9430 C   0  0  0  0  0  0  0  0  0  0  0  0
   59.0344   32.4176   45.2838 H   0  0  0  0  0  0  0  0  0  0  0  0
   60.4720   31.7670   46.7700 C   0  0  0  0  0  0  0  0  0  0  0  0
   61.0280   33.1780   46.8620 C   0  0  0  0  0  0  0  0  0  0  0  0
   61.6794   33.3650   45.9955 H   0  0  0  0  0  0  0  0  0  0  0  0
   61.5967   33.2698   47.7991 H   0  0  0  0  0  0  0  0  0  0  0  0
   59.9040   34.2100   46.8730 C   0  0  0  0  0  0  0  0  0  0  0  0
   59.6394   34.4529   47.9127 H   0  0  0  0  0  0  0  0  0  0  0  0
   60.2386   35.1221   46.3571 H   0  0  0  0  0  0  0  0  0  0  0  0
   59.0237   33.7989   46.3571 H   0  0  0  0  0  0  0  0  0  0  0  0
   63.8620   32.0850   48.7830 C   0  0  0  0  0  0  0  0  0  0  0  0
   64.4112   31.5507   47.9938 H   0  0  0  0  0  0  0  0  0  0  0  0
  1  2  1  0
  2  3  2  0
  3  4  1  0
  3  5  1  0
  5  6  1  0
  5  7  2  0
  7  8  1  0
  8  9  1  0
  9 10  1  0
  9 11  1  0
  9 12  1  0
 12 13  1  0
 12 14  1  0
 12 15  1  0
 15 16  1  0
 16 17  2  0
 16 18  1  0
 18 19  1  0
 19 20  1  6
 19 21  1  0
 21 22  1  0
 21 23  1  0
 21 24  1  0
 24 25  1  0
 24 26  1  0
 24 27  1  0
 27 28  1  6
 27 29  1  0
 29 30  1  0
 29 31  1  0
 29 32  1  0
 27 33  1  0
 33 34  1  0
 33 35  1  0
 33 36  1  0
 36 37  1  0
 36 38  1  0
  7 39  1  0
 39 40  1  0
 40 41  2  0
 41 42  1  0
 42 43  1  0
 43 44  1  0
 44 45  2  0
 44 46  1  0
 46 47  1  0
 47 48  2  0
 47 49  1  0
 46 50  2  0
 50 51  1  0
 50 52  1  0
 52 53  1  0
 53 54  1  0
 53 55  1  0
 55 56  1  0
 55 57  1  0
 55 58  1  0
 58 59  1  0
 58 60  1  0
 52 61  1  0
 61 62  1  0
 62 63  1  0
 62 64  2  0
 64 65  1  0
 65 66  1  0
 65 67  1  0
 65 68  1  0
 68 69  1  0
 68 70  1  0
 68 71  1  0
 39 72  2  0
 72 73  1  0
 72  2  1  0
 36 19  1  0
 64 41  1  0
 61 43  2  0
 58 53  1  0
M  CHG  4  15  -1  27   1  42  -1  49  -1
M  END
>  <UniqueID>  (46) 
44

>  <SMILES>  (46) 
CCc1cc2c([n-]/c1=N/c1ccccc1OCC[N-]C(=O)OC1CC[NH+](C)CC1)c(=O)c(C(=O)[O-])cn2C1CC1

>  <Energy>  (46) 
364.34251940848634

>  <Genealogy>  (46) 
CCc1cc2c([n-]c1=Nc1ccccc1OCC[N-]C(=O)OC1CC[NH+](C)CC1)c(=O)c(C(=O)[O-])cn2C1CC1 (protonated)
CCc1cc2c([n-]/c1=N/c1ccccc1OCC[N-]C(=O)OC1CC[NH+](C)CC1)c(=O)c(C(=O)[O-])cn2C1CC1 (cis-trans isomerization)
CCc1cc2c([n-]/c1=N/c1ccccc1OCC[N-]C(=O)OC1CC[NH+](C)CC1)c(=O)c(C(=O)[O-])cn2C1CC1 (3D coordinates assigned)
CCc1cc2c([n-]/c1=N/c1ccccc1OCC[N-]C(=O)OC1CC[NH+](C)CC1)c(=O)c(C(=O)[O-])cn2C1CC1 (nonaromatic ring conformer: 364.34251940848634 kcal/mol)

>  <smiles>  (46) 
CCc1cc2c([nH]c1=Nc1ccccc1OCCNC(=O)OC1CCN(C)CC1)c(=O)c(C(=O)O)cn2C1CC1

>  <score_type>  (46) 
oracle

>  <origin>  (46) 
adg

>  <m_score__min__energy>  (46) 
-12.789999999999999

>  <m_primary>  (46) 
energy

$$$$
46:0
     RDKit          3D

 49 51  0  0  0  0  0  0  0  0999 V2000
   56.1720   30.0410   52.5030 C   0  0  0  0  0  0  0  0  0  0  0  0
   57.2790   30.1150   51.6110 O   0  0  0  0  0  0  0  0  0  0  0  0
   58.2830   31.0940   51.6710 C   0  0  0  0  0  0  0  0  0  0  0  0
   57.9760   32.3880   51.2320 C   0  0  0  0  0  0  0  0  0  0  0  0
   58.9330   33.4030   51.2970 C   0  0  0  0  0  0  0  0  0  0  0  0
   60.2110   33.1330   51.7880 C   0  0  0  0  0  0  0  0  0  0  0  0
   60.5490   31.8350   52.2020 C   0  0  0  0  0  0  0  0  0  0  0  0
   61.9280   31.5290   52.7370 C   0  0  0  0  0  0  0  0  0  0  0  0
   62.8120   31.0800   51.7070 O   0  0  0  0  0  0  0  0  0  0  0  0
   63.1900   31.8240   50.5770 C   0  0  0  0  0  0  0  0  0  0  0  0
   64.4940   32.3300   50.5220 C   0  0  0  0  0  0  0  0  0  0  0  0
   64.9180   33.0800   49.4220 C   0  0  0  0  0  0  0  0  0  0  0  0
   64.0340   33.3490   48.3740 C   0  0  0  0  0  0  0  0  0  0  0  0
   62.7160   32.8780   48.4250 C   0  0  0  0  0  0  0  0  0  0  0  0
   61.8060   33.1920   47.3580 N   0  0  0  0  0  0  0  0  0  0  0  0
   60.6690   34.0470   47.5260 C   0  0  0  0  0  0  0  0  0  0  0  0
   60.5660   34.7710   48.5540 O   0  0  0  0  0  0  0  0  0  0  0  0
   59.6970   34.1350   46.4760 N   0  0  0  0  0  0  0  0  0  0  0  0
   58.9460   33.0450   45.9200 C   0  0  0  0  0  0  0  0  0  0  0  0
   58.3110   33.2290   44.6840 C   0  0  0  0  0  0  0  0  0  0  0  0
   57.5850   32.1890   44.0980 C   0  0  0  0  0  0  0  0  0  0  0  0
   57.4940   30.9450   44.7380 C   0  0  0  0  0  0  0  0  0  0  0  0
   56.5960   29.6190   44.0070 S   0  0  0  0  0  0  0  0  0  0  0  0
   55.1270   29.3650   44.8800 N   0  0  0  0  0  0  0  0  0  0  0  0
   57.4140   28.3570   44.0400 O   0  0  0  0  0  0  0  0  0  0  0  0
   56.2820   29.9550   42.5760 O   0  0  0  0  0  0  0  0  0  0  0  0
   58.1510   30.7480   45.9580 C   0  0  0  0  0  0  0  0  0  0  0  0
   58.8790   31.7870   46.5440 C   0  0  0  0  0  0  0  0  0  0  0  0
   62.3080   32.0840   49.5100 C   0  0  0  0  0  0  0  0  0  0  0  0
   59.5760   30.8220   52.1580 C   0  0  0  0  0  0  0  0  0  0  0  0
   56.5353   30.0653   53.5410 H   0  0  0  0  0  0  0  0  0  0  0  0
   55.5028   30.8964   52.3286 H   0  0  0  0  0  0  0  0  0  0  0  0
   55.6226   29.1041   52.3286 H   0  0  0  0  0  0  0  0  0  0  0  0
   56.9743   32.6063   50.8333 H   0  0  0  0  0  0  0  0  0  0  0  0
   58.6785   34.4187   50.9600 H   0  0  0  0  0  0  0  0  0  0  0  0
   60.9559   33.9399   51.8508 H   0  0  0  0  0  0  0  0  0  0  0  0
   62.3441   32.4409   53.1901 H   0  0  0  0  0  0  0  0  0  0  0  0
   61.8342   30.7239   53.4806 H   0  0  0  0  0  0  0  0  0  0  0  0
   65.1903   32.1357   51.3511 H   0  0  0  0  0  0  0  0  0  0  0  0
   65.9497   33.4594   49.3810 H   0  0  0  0  0  0  0  0  0  0  0  0
   64.3743   33.9327   47.5059 H   0  0  0  0  0  0  0  0  0  0  0  0
   62.0340   32.8620   46.3920 H   0  0  0  0  0  0  0  0  0  0  0  0
   58.3848   34.1995   44.1715 H   0  0  0  0  0  0  0  0  0  0  0  0
   57.0834   32.3467   43.1318 H   0  0  0  0  0  0  0  0  0  0  0  0
   55.3280   28.6500   45.6160 H   0  0  0  0  0  0  0  0  0  0  0  0
   58.0940   29.7700   46.4583 H   0  0  0  0  0  0  0  0  0  0  0  0
   59.4017   31.6199   47.4973 H   0  0  0  0  0  0  0  0  0  0  0  0
   61.2922   31.6623   49.5263 H   0  0  0  0  0  0  0  0  0  0  0  0
   59.8262   29.8091   52.5065 H   0  0  0  0  0  0  0  0  0  0  0  0
  1  2  1  0
  2  3  1  0
  3  4  2  0
  4  5  1  0
  5  6  2  0
  6  7  1  0
  7  8  1  0
  8  9  1  0
  9 10  1  0
 10 11  2  0
 11 12  1  0
 12 13  2  0
 13 14  1  0
 14 15  1  0
 15 16  1  0
 16 17  2  0
 16 18  1  0
 18 19  1  0
 19 20  2  0
 20 21  1  0
 21 22  2  0
 22 23  1  0
 23 24  1  0
 23 25  2  0
 23 26  2  0
 22 27  1  0
 27 28  2  0
 14 29  2  0
  7 30  2  0
 30  3  1  0
 29 10  1  0
 28 19  1  0
  1 31  1  0
  1 32  1  0
  1 33  1  0
  4 34  1  0
  5 35  1  0
  6 36  1  0
  8 37  1  0
  8 38  1  0
 11 39  1  0
 12 40  1  0
 13 41  1  0
 15 42  1  0
 20 43  1  0
 21 44  1  0
 24 45  1  0
 27 46  1  0
 28 47  1  0
 29 48  1  0
 30 49  1  0
M  CHG  2  18  -1  24  -1
M  END
>  <UniqueID>  (47) 
45

>  <SMILES>  (47) 
COc1cccc(COc2cccc(NC(=O)[N-]c3ccc(S([NH-])(=O)=O)cc3)c2)c1

>  <Energy>  (47) 
54.44075079503629

>  <Genealogy>  (47) 
COc1cccc(COc2cccc(NC(=O)[N-]c3ccc(S([NH-])(=O)=O)cc3)c2)c1 (protonated)
COc1cccc(COc2cccc(NC(=O)[N-]c3ccc(S([NH-])(=O)=O)cc3)c2)c1 (3D coordinates assigned)
COc1cccc(COc2cccc(NC(=O)[N-]c3ccc(S([NH-])(=O)=O)cc3)c2)c1 (optimized conformer: 54.44075079503629 kcal/mol)

>  <smiles>  (47) 
COc1cccc(COc2cccc(NC(=O)Nc3ccc(S(N)(=O)=O)cc3)c2)c1

>  <score_type>  (47) 
oracle

>  <origin>  (47) 
adg

>  <m_score__min__energy>  (47) 
-12.48

>  <m_primary>  (47) 
energy

$$$$
47:0
     RDKit          3D

 53 56  0  0  0  0  0  0  0  0999 V2000
   56.9680   24.9500   47.0680 C   0  0  0  0  0  0  0  0  0  0  0  0
   57.8930   25.9970   46.5210 C   0  0  0  0  0  0  0  0  0  0  0  0
   59.1760   26.1550   47.0560 C   0  0  0  0  0  0  0  0  0  0  0  0
   60.0470   27.1060   46.5250 C   0  0  0  0  0  0  0  0  0  0  0  0
   59.6540   27.9150   45.4470 C   0  0  0  0  0  0  0  0  0  0  0  0
   60.6110   28.9460   44.9130 C   0  0  0  0  0  0  0  0  0  0  0  0
   58.3650   27.7490   44.8840 C   0  0  0  0  0  0  0  0  0  0  0  0
   57.9410   28.5550   43.7690 N   0  0  0  0  0  0  0  0  0  0  0  0
   56.6860   29.7460   43.8990 S   0  0  0  0  0  0  0  0  0  0  0  0
   55.5410   29.1730   44.6870 O   0  0  0  0  0  0  0  0  0  0  0  0
   56.2000   30.1130   42.5250 O   0  0  0  0  0  0  0  0  0  0  0  0
   57.3210   31.1920   44.6760 C   0  0  0  0  0  0  0  0  0  0  0  0
   57.3780   32.3950   43.9620 C   0  0  0  0  0  0  0  0  0  0  0  0
   57.9030   33.5450   44.5560 C   0  0  0  0  0  0  0  0  0  0  0  0
   58.3860   33.5020   45.8740 C   0  0  0  0  0  0  0  0  0  0  0  0
   58.8940   34.7560   46.5360 C   0  0  0  0  0  0  0  0  0  0  0  0
   60.3940   34.9660   46.2830 C   0  0  0  0  0  0  0  0  0  0  0  0
   61.2060   34.2180   47.2430 N   0  0  0  0  0  0  0  0  0  0  0  0
   62.5740   33.8330   47.0740 C   0  0  0  0  0  0  0  0  0  0  0  0
   63.1780   33.8270   45.9690 O   0  0  0  0  0  0  0  0  0  0  0  0
   63.1620   33.4960   48.3640 C   0  0  0  0  0  0  0  0  0  0  0  0
   64.4550   33.0920   48.6970 C   0  0  0  0  0  0  0  0  0  0  0  0
   64.7450   32.8650   50.0530 C   0  0  0  0  0  0  0  0  0  0  0  0
   63.7510   33.0500   51.0390 C   0  0  0  0  0  0  0  0  0  0  0  0
   62.4570   33.4650   50.6780 C   0  0  0  0  0  0  0  0  0  0  0  0
   62.1920   33.6770   49.3270 C   0  0  0  0  0  0  0  0  0  0  0  0
   60.9820   34.1330   48.6530 C   0  0  0  0  0  0  0  0  0  0  0  0
   59.9000   34.4420   49.2190 O   0  0  0  0  0  0  0  0  0  0  0  0
   58.3260   32.2960   46.5900 C   0  0  0  0  0  0  0  0  0  0  0  0
   57.7960   31.1470   45.9940 C   0  0  0  0  0  0  0  0  0  0  0  0
   57.5020   26.7760   45.4230 C   0  0  0  0  0  0  0  0  0  0  0  0
   56.9923   24.9775   48.1674 H   0  0  0  0  0  0  0  0  0  0  0  0
   55.9437   25.1471   46.7188 H   0  0  0  0  0  0  0  0  0  0  0  0
   57.2899   23.9578   46.7188 H   0  0  0  0  0  0  0  0  0  0  0  0
   59.4991   25.5265   47.8990 H   0  0  0  0  0  0  0  0  0  0  0  0
   61.0525   27.2235   46.9553 H   0  0  0  0  0  0  0  0  0  0  0  0
   61.0946   29.4670   45.7525 H   0  0  0  0  0  0  0  0  0  0  0  0
   61.3773   28.4513   44.2981 H   0  0  0  0  0  0  0  0  0  0  0  0
   60.0607   29.6734   44.2981 H   0  0  0  0  0  0  0  0  0  0  0  0
   58.4710   28.5290   42.8700 H   0  0  0  0  0  0  0  0  0  0  0  0
   57.0071   32.4347   42.9272 H   0  0  0  0  0  0  0  0  0  0  0  0
   57.9382   34.4873   43.9896 H   0  0  0  0  0  0  0  0  0  0  0  0
   58.3411   35.6189   46.1362 H   0  0  0  0  0  0  0  0  0  0  0  0
   58.7405   34.6566   47.6207 H   0  0  0  0  0  0  0  0  0  0  0  0
   60.6368   34.6247   45.2659 H   0  0  0  0  0  0  0  0  0  0  0  0
   60.6186   36.0366   46.3989 H   0  0  0  0  0  0  0  0  0  0  0  0
   65.2237   32.9554   47.9221 H   0  0  0  0  0  0  0  0  0  0  0  0
   65.7537   32.5408   50.3487 H   0  0  0  0  0  0  0  0  0  0  0  0
   63.9908   32.8681   52.0970 H   0  0  0  0  0  0  0  0  0  0  0  0
   61.6777   33.6176   51.4392 H   0  0  0  0  0  0  0  0  0  0  0  0
   58.6975   32.2544   47.6245 H   0  0  0  0  0  0  0  0  0  0  0  0
   57.7518   30.2055   46.5611 H   0  0  0  0  0  0  0  0  0  0  0  0
   56.5080   26.6250   44.9768 H   0  0  0  0  0  0  0  0  0  0  0  0
  1  2  1  0
  2  3  2  0
  3  4  1  0
  4  5  2  0
  5  6  1  0
  5  7  1  0
  7  8  1  0
  8  9  1  0
  9 10  2  0
  9 11  2  0
  9 12  1  0
 12 13  2  0
 13 14  1  0
 14 15  2  0
 15 16  1  0
 16 17  1  0
 17 18  1  0
 18 19  1  0
 19 20  2  0
 19 21  1  0
 21 22  2  0
 22 23  1  0
 23 24  2  0
 24 25  1  0
 25 26  2  0
 26 27  1  0
 27 28  2  0
 15 29  1  0
 29 30  2  0
  7 31  2  0
 31  2  1  0
 30 12  1  0
 27 18  1  0
 26 21  1  0
  1 32  1  0
  1 33  1  0
  1 34  1  0
  3 35  1  0
  4 36  1  0
  6 37  1  0
  6 38  1  0
  6 39  1  0
  8 40  1  0
 13 41  1  0
 14 42  1  0
 16 43  1  0
 16 44  1  0
 17 45  1  0
 17 46  1  0
 22 47  1  0
 23 48  1  0
 24 49  1  0
 25 50  1  0
 29 51  1  0
 30 52  1  0
 31 53  1  0
M  END
>  <UniqueID>  (48) 
46

>  <SMILES>  (48) 
Cc1ccc(C)c(NS(=O)(=O)c2ccc(CCN3C(=O)c4ccccc4C3=O)cc2)c1

>  <Energy>  (48) 
86.53581021642589

>  <Genealogy>  (48) 
Cc1ccc(C)c(NS(=O)(=O)c2ccc(CCN3C(=O)c4ccccc4C3=O)cc2)c1 (3D coordinates assigned)
Cc1ccc(C)c(NS(=O)(=O)c2ccc(CCN3C(=O)c4ccccc4C3=O)cc2)c1 (nonaromatic ring conformer: 86.53581021642589 kcal/mol)

>  <smiles>  (48) 
Cc1ccc(C)c(NS(=O)(=O)c2ccc(CCN3C(=O)c4ccccc4C3=O)cc2)c1

>  <score_type>  (48) 
oracle

>  <origin>  (48) 
adg

>  <m_score__min__energy>  (48) 
-11.050000000000001

>  <m_primary>  (48) 
energy

$$$$
48:0
     RDKit          3D

 29 30  0  0  0  0  0  0  0  0999 V2000
   58.1210   32.2080   44.6790 C   0  0  0  0  0  0  0  0  0  0  0  0
   58.9150   32.2680   45.9620 C   0  0  0  0  0  0  0  0  0  0  0  0
   58.7230   33.3710   46.8040 C   0  0  0  0  0  0  0  0  0  0  0  0
   59.4330   33.4450   47.9950 C   0  0  0  0  0  0  0  0  0  0  0  0
   59.2800   34.4280   48.7650 O   0  0  0  0  0  0  0  0  0  0  0  0
   60.2920   32.4550   48.3260 N   0  0  0  0  0  0  0  0  0  0  0  0
   60.4790   31.3790   47.5210 C   0  0  0  0  0  0  0  0  0  0  0  0
   61.2910   30.4880   47.8890 O   0  0  0  0  0  0  0  0  0  0  0  0
   59.7910   31.2630   46.3310 N   0  0  0  0  0  0  0  0  0  0  0  0
   59.9910   30.1210   45.5020 N   0  0  0  0  0  0  0  0  0  0  0  0
   58.9700   29.1280   45.7520 C   0  0  0  0  0  0  0  0  0  0  0  0
   57.7680   29.1480   45.0240 C   0  0  0  0  0  0  0  0  0  0  0  0
   56.7890   28.1750   45.2420 C   0  0  0  0  0  0  0  0  0  0  0  0
   56.9970   27.1510   46.1810 C   0  0  0  0  0  0  0  0  0  0  0  0
   55.9580   26.1240   46.4100 C   0  0  0  0  0  0  0  0  0  0  0  0
   56.2390   25.0470   46.9990 O   0  0  0  0  0  0  0  0  0  0  0  0
   54.6520   26.3330   45.9780 O   0  0  0  0  0  0  0  0  0  0  0  0
   58.2090   27.1160   46.8920 C   0  0  0  0  0  0  0  0  0  0  0  0
   59.1880   28.0900   46.6740 C   0  0  0  0  0  0  0  0  0  0  0  0
   57.0495   32.1270   44.9143 H   0  0  0  0  0  0  0  0  0  0  0  0
   58.2999   33.1222   44.0940 H   0  0  0  0  0  0  0  0  0  0  0  0
   58.4352   31.3310   44.0940 H   0  0  0  0  0  0  0  0  0  0  0  0
   58.0186   34.1685   46.5251 H   0  0  0  0  0  0  0  0  0  0  0  0
   60.0050   30.4180   44.5000 H   0  0  0  0  0  0  0  0  0  0  0  0
   60.9230   29.6820   45.6750 H   0  0  0  0  0  0  0  0  0  0  0  0
   57.5964   29.9363   44.2762 H   0  0  0  0  0  0  0  0  0  0  0  0
   55.8478   28.2112   44.6737 H   0  0  0  0  0  0  0  0  0  0  0  0
   58.3886   26.3162   47.6255 H   0  0  0  0  0  0  0  0  0  0  0  0
   60.1367   28.0435   47.2287 H   0  0  0  0  0  0  0  0  0  0  0  0
  1  2  1  0
  2  3  2  0
  3  4  1  0
  4  5  2  0
  4  6  1  0
  6  7  1  0
  7  8  2  0
  7  9  1  0
  9 10  1  0
 10 11  1  0
 11 12  2  0
 12 13  1  0
 13 14  2  0
 14 15  1  0
 15 16  2  0
 15 17  1  0
 14 18  1  0
 18 19  2  0
  9  2  1  0
 19 11  1  0
  1 20  1  0
  1 21  1  0
  1 22  1  0
  3 23  1  0
 10 24  1  0
 10 25  1  0
 12 26  1  0
 13 27  1  0
 18 28  1  0
 19 29  1  0
M  CHG  3   6  -1  10   1  17  -1
M  END
>  <UniqueID>  (49) 
47

>  <SMILES>  (49) 
Cc1cc(=O)[n-]c(=O)n1[NH2+]c1ccc(C(=O)[O-])cc1

>  <Energy>  (49) 
39.343167130827275

>  <Genealogy>  (49) 
Cc1cc(=O)[n-]c(=O)n1[NH2+]c1ccc(C(=O)[O-])cc1 (protonated)
Cc1cc(=O)[n-]c(=O)n1[NH2+]c1ccc(C(=O)[O-])cc1 (3D coordinates assigned)
Cc1cc(=O)[n-]c(=O)n1[NH2+]c1ccc(C(=O)[O-])cc1 (optimized conformer: 39.343167130827275 kcal/mol)

>  <smiles>  (49) 
Cc1cc(=O)[nH]c(=O)n1Nc1ccc(C(=O)O)cc1

>  <score_type>  (49) 
oracle

>  <origin>  (49) 
adg

>  <m_score__min__energy>  (49) 
-8.6799999999999997

>  <m_primary>  (49) 
energy

$$$$
49:0
     RDKit          3D

 84 89  0  0  0  0  0  0  0  0999 V2000
   56.0400   20.2360   43.6860 N   0  0  0  0  0  0  0  0  0  0  0  0
   56.6410   21.2580   43.1380 C   0  0  0  0  0  0  0  0  0  0  0  0
   55.9140   22.0870   42.3210 O   0  0  0  0  0  0  0  0  0  0  0  0
   58.0840   21.4760   43.4230 C   0  0  0  0  0  0  0  0  0  0  0  0
   58.1880   22.5960   44.4020 C   0  0  0  0  0  0  0  0  0  0  0  0
   59.4420   22.8530   44.9310 C   0  0  0  0  0  0  0  0  0  0  0  0
   59.5540   23.8890   45.8420 C   0  0  0  0  0  0  0  0  0  0  0  0
   58.4840   24.6630   46.2370 C   0  0  0  0  0  0  0  0  0  0  0  0
   58.6840   25.7150   47.1820 N   0  0  0  0  0  0  0  0  0  0  0  0
   59.6750   26.7190   46.8220 C   0  0  0  0  0  0  0  0  0  0  0  0
   58.9830   27.9090   46.3400 C   0  0  0  0  0  0  0  0  0  0  0  0
   58.4470   27.9530   45.0700 C   0  0  0  0  0  0  0  0  0  0  0  0
   57.7840   29.0430   44.5550 C   0  0  0  0  0  0  0  0  0  0  0  0
   57.6550   30.1530   45.3640 C   0  0  0  0  0  0  0  0  0  0  0  0
   58.1850   30.1290   46.6380 C   0  0  0  0  0  0  0  0  0  0  0  0
   58.8510   29.0370   47.1600 C   0  0  0  0  0  0  0  0  0  0  0  0
   59.4120   29.0420   48.5510 C   0  0  0  0  0  0  0  0  0  0  0  0
   59.6800   30.4230   48.8890 N   0  0  0  0  0  0  0  0  0  0  0  0
   59.1480   31.1320   49.8730 C   0  0  0  0  0  0  0  0  0  0  0  0
   58.1800   30.8360   50.8940 C   0  0  0  0  0  0  0  0  0  0  0  0
   57.2710   31.8370   51.2450 C   0  0  0  0  0  0  0  0  0  0  0  0
   56.2980   31.6410   52.2000 C   0  0  0  0  0  0  0  0  0  0  0  0
   56.2030   30.4320   52.8380 C   0  0  0  0  0  0  0  0  0  0  0  0
   55.2410   30.2000   53.7990 O   0  0  0  0  0  0  0  0  0  0  0  0
   53.8770   30.2150   53.5400 C   0  0  0  0  0  0  0  0  0  0  0  0
   53.4790   30.0650   52.2280 C   0  0  0  0  0  0  0  0  0  0  0  0
   52.1120   30.0790   51.9570 C   0  0  0  0  0  0  0  0  0  0  0  0
   51.2150   30.2400   53.0010 C   0  0  0  0  0  0  0  0  0  0  0  0
   51.6460   30.3850   54.2920 C   0  0  0  0  0  0  0  0  0  0  0  0
   52.9840   30.3750   54.5840 C   0  0  0  0  0  0  0  0  0  0  0  0
   57.0770   29.4120   52.5240 C   0  0  0  0  0  0  0  0  0  0  0  0
   58.0460   29.6420   51.5570 C   0  0  0  0  0  0  0  0  0  0  0  0
   59.7610   32.3940   49.7790 C   0  0  0  0  0  0  0  0  0  0  0  0
   60.6220   32.4190   48.7710 N   0  0  0  0  0  0  0  0  0  0  0  0
   61.4570   33.4820   48.3140 C   0  0  0  0  0  0  0  0  0  0  0  0
   61.1540   33.9250   46.9380 C   0  0  0  0  0  0  0  0  0  0  0  0
   62.0880   34.1400   46.1130 O   0  0  0  0  0  0  0  0  0  0  0  0
   59.8240   34.1270   46.4840 N   0  0  0  0  0  0  0  0  0  0  0  0
   59.5790   34.5630   45.1270 C   0  0  0  0  0  0  0  0  0  0  0  0
   58.5670   33.6960   44.4200 C   0  0  0  0  0  0  0  0  0  0  0  0
   57.6600   33.1100   45.2850 O   0  0  0  0  0  0  0  0  0  0  0  0
   57.4500   33.8610   46.4360 C   0  0  0  0  0  0  0  0  0  0  0  0
   58.6670   33.9150   47.3340 C   0  0  0  0  0  0  0  0  0  0  0  0
   60.5780   31.1960   48.2110 C   0  0  0  0  0  0  0  0  0  0  0  0
   61.2720   30.8290   47.2050 O   0  0  0  0  0  0  0  0  0  0  0  0
   57.2220   24.4030   45.7030 C   0  0  0  0  0  0  0  0  0  0  0  0
   57.1040   23.3590   44.7850 C   0  0  0  0  0  0  0  0  0  0  0  0
   56.6470   19.4080   43.8780 H   0  0  0  0  0  0  0  0  0  0  0  0
   56.3740   22.7340   41.6670 H   0  0  0  0  0  0  0  0  0  0  0  0
   58.5237   20.5627   43.8503 H   0  0  0  0  0  0  0  0  0  0  0  0
   58.6269   21.7207   42.4982 H   0  0  0  0  0  0  0  0  0  0  0  0
   60.3175   22.2552   44.6376 H   0  0  0  0  0  0  0  0  0  0  0  0
   60.5436   24.1049   46.2710 H   0  0  0  0  0  0  0  0  0  0  0  0
   58.1580   25.7610   48.0660 H   0  0  0  0  0  0  0  0  0  0  0  0
   60.2799   26.9748   47.7044 H   0  0  0  0  0  0  0  0  0  0  0  0
   60.3368   26.3266   46.0358 H   0  0  0  0  0  0  0  0  0  0  0  0
   58.5560   27.0642   44.4311 H   0  0  0  0  0  0  0  0  0  0  0  0
   57.3718   29.0299   43.5353 H   0  0  0  0  0  0  0  0  0  0  0  0
   57.1341   31.0495   44.9967 H   0  0  0  0  0  0  0  0  0  0  0  0
   58.0716   31.0231   47.2687 H   0  0  0  0  0  0  0  0  0  0  0  0
   58.6827   28.6146   49.2549 H   0  0  0  0  0  0  0  0  0  0  0  0
   60.3286   28.4366   48.6090 H   0  0  0  0  0  0  0  0  0  0  0  0
   57.3343   32.8134   50.7424 H   0  0  0  0  0  0  0  0  0  0  0  0
   55.5991   32.4528   52.4499 H   0  0  0  0  0  0  0  0  0  0  0  0
   54.2165   29.9384   51.4217 H   0  0  0  0  0  0  0  0  0  0  0  0
   51.7488   29.9635   50.9251 H   0  0  0  0  0  0  0  0  0  0  0  0
   50.1359   30.2515   52.7881 H   0  0  0  0  0  0  0  0  0  0  0  0
   50.9118   30.5106   55.1015 H   0  0  0  0  0  0  0  0  0  0  0  0
   53.3382   30.4909   55.6189 H   0  0  0  0  0  0  0  0  0  0  0  0
   57.0076   28.4373   53.0291 H   0  0  0  0  0  0  0  0  0  0  0  0
   58.7413   28.8263   51.3098 H   0  0  0  0  0  0  0  0  0  0  0  0
   59.5550   33.2422   50.4484 H   0  0  0  0  0  0  0  0  0  0  0  0
   61.3294   34.3395   48.9910 H   0  0  0  0  0  0  0  0  0  0  0  0
   62.4889   33.1011   48.3093 H   0  0  0  0  0  0  0  0  0  0  0  0
   59.2042   35.5969   45.1501 H   0  0  0  0  0  0  0  0  0  0  0  0
   60.5275   34.4912   44.5745 H   0  0  0  0  0  0  0  0  0  0  0  0
   58.0141   34.3179   43.7006 H   0  0  0  0  0  0  0  0  0  0  0  0
   59.1187   32.8850   43.9221 H   0  0  0  0  0  0  0  0  0  0  0  0
   57.1849   34.8873   46.1420 H   0  0  0  0  0  0  0  0  0  0  0  0
   56.6421   33.3763   47.0037 H   0  0  0  0  0  0  0  0  0  0  0  0
   58.5695   34.7443   48.0501 H   0  0  0  0  0  0  0  0  0  0  0  0
   58.7703   32.9805   47.9050 H   0  0  0  0  0  0  0  0  0  0  0  0
   56.3474   25.0021   45.9964 H   0  0  0  0  0  0  0  0  0  0  0  0
   56.1168   23.1374   44.3534 H   0  0  0  0  0  0  0  0  0  0  0  0
  1  2  2  3
  2  3  1  0
  2  4  1  0
  4  5  1  0
  5  6  2  0
  6  7  1  0
  7  8  2  0
  8  9  1  0
  9 10  1  0
 10 11  1  0
 11 12  2  0
 12 13  1  0
 13 14  2  0
 14 15  1  0
 15 16  2  0
 16 17  1  0
 17 18  1  0
 18 19  1  0
 19 20  1  0
 20 21  2  0
 21 22  1  0
 22 23  2  0
 23 24  1  0
 24 25  1  0
 25 26  2  0
 26 27  1  0
 27 28  2  0
 28 29  1  0
 29 30  2  0
 23 31  1  0
 31 32  2  0
 19 33  2  0
 33 34  1  0
 34 35  1  0
 35 36  1  0
 36 37  2  0
 36 38  1  0
 38 39  1  0
 39 40  1  0
 40 41  1  0
 41 42  1  0
 42 43  1  0
 34 44  1  0
 44 45  2  0
  8 46  1  0
 46 47  2  0
 47  5  1  0
 16 11  1  0
 44 18  1  0
 32 20  1  0
 43 38  1  0
 30 25  1  0
  1 48  1  0
  3 49  1  0
  4 50  1  0
  4 51  1  0
  6 52  1  0
  7 53  1  0
  9 54  1  0
 10 55  1  0
 10 56  1  0
 12 57  1  0
 13 58  1  0
 14 59  1  0
 15 60  1  0
 17 61  1  0
 17 62  1  0
 21 63  1  0
 22 64  1  0
 26 65  1  0
 27 66  1  0
 28 67  1  0
 29 68  1  0
 30 69  1  0
 31 70  1  0
 32 71  1  0
 33 72  1  0
 35 73  1  0
 35 74  1  0
 39 75  1  0
 39 76  1  0
 40 77  1  0
 40 78  1  0
 42 79  1  0
 42 80  1  0
 43 81  1  0
 43 82  1  0
 46 83  1  0
 47 84  1  0
M  END
>  <smiles>  (50) 
N=C(O)Cc1ccc(NCc2ccccc2Cn2c(-c3ccc(Oc4ccccc4)cc3)cn(CC(=O)N3CCOCC3)c2=O)cc1

>  <score_type>  (50) 
oracle

>  <origin>  (50) 
adg

>  <m_score__min__energy>  (50) 
-12.27

>  <m_primary>  (50) 
energy

$$$$
50:0
     RDKit          3D

 26 28  0  0  0  0  0  0  0  0999 V2000
   55.8690   30.2100   44.8170 N   0  0  0  0  0  0  0  0  0  0  0  0
   56.5700   29.2740   45.3470 C   0  0  0  0  0  0  0  0  0  0  0  0
   56.0870   28.0240   45.3210 N   0  0  0  0  0  0  0  0  0  0  0  0
   56.7160   26.9600   45.8370 C   0  0  0  0  0  0  0  0  0  0  0  0
   57.9460   27.1820   46.4340 C   0  0  0  0  0  0  0  0  0  0  0  0
   58.4610   28.4580   46.4720 C   0  0  0  0  0  0  0  0  0  0  0  0
   57.7870   29.5520   45.9270 C   0  0  0  0  0  0  0  0  0  0  0  0
   58.3680   30.8850   45.9890 C   0  0  0  0  0  0  0  0  0  0  0  0
   57.8360   31.9540   45.3730 N   0  0  0  0  0  0  0  0  0  0  0  0
   58.5760   33.0510   45.5970 C   0  0  0  0  0  0  0  0  0  0  0  0
   58.4790   34.3800   45.2090 C   0  0  0  0  0  0  0  0  0  0  0  0
   59.4070   35.3260   45.5940 C   0  0  0  0  0  0  0  0  0  0  0  0
   60.4590   34.8960   46.3990 C   0  0  0  0  0  0  0  0  0  0  0  0
   60.5810   33.5780   46.8010 C   0  0  0  0  0  0  0  0  0  0  0  0
   59.6310   32.6630   46.3930 C   0  0  0  0  0  0  0  0  0  0  0  0
   59.4620   31.3300   46.6080 N   0  0  0  0  0  0  0  0  0  0  0  0
   55.8200   31.1740   45.1630 H   0  0  0  0  0  0  0  0  0  0  0  0
   55.1440   27.8560   44.8630 H   0  0  0  0  0  0  0  0  0  0  0  0
   56.2749   25.9535   45.7888 H   0  0  0  0  0  0  0  0  0  0  0  0
   58.5072   26.3447   46.8745 H   0  0  0  0  0  0  0  0  0  0  0  0
   59.4387   28.6213   46.9489 H   0  0  0  0  0  0  0  0  0  0  0  0
   57.6354   34.6891   44.5743 H   0  0  0  0  0  0  0  0  0  0  0  0
   59.3195   36.3761   45.2782 H   0  0  0  0  0  0  0  0  0  0  0  0
   61.2150   35.6257   46.7247 H   0  0  0  0  0  0  0  0  0  0  0  0
   61.4223   33.2637   47.4362 H   0  0  0  0  0  0  0  0  0  0  0  0
   60.1190   30.7870   47.1770 H   0  0  0  0  0  0  0  0  0  0  0  0
  1  2  2  3
  2  3  1  0
  3  4  1  0
  4  5  2  0
  5  6  1  0
  6  7  2  0
  7  8  1  0
  8  9  2  0
  9 10  1  0
 10 11  2  0
 11 12  1  0
 12 13  2  0
 13 14  1  0
 14 15  2  0
 15 16  1  0
  7  2  1  0
 16  8  1  0
 15 10  1  0
  1 17  1  0
  3 18  1  0
  4 19  1  0
  5 20  1  0
  6 21  1  0
 11 22  1  0
 12 23  1  0
 13 24  1  0
 14 25  1  0
 16 26  1  0
M  END
>  <smiles>  (51) 
N=c1[nH]cccc1-c1nc2ccccc2[nH]1

>  <score_type>  (51) 
oracle

>  <origin>  (51) 
adg

>  <m_score__min__energy>  (51) 
-6.21

>  <m_primary>  (51) 
energy

$$$$
51:0
     RDKit          3D

 34 34  0  0  0  0  0  0  0  0999 V2000
   52.7628   32.1746   53.3867 H   0  0  0  0  0  0  0  0  0  0  0  0
   52.5270   31.1440   53.0830 C   0  0  0  0  0  0  0  0  0  0  0  0
   52.6470   30.2010   53.9740 N   0  0  0  0  0  0  0  0  0  0  0  0
   53.8750   29.5080   54.3680 C   0  0  0  0  0  0  0  0  0  0  0  0
   54.0833   28.7002   53.6510 H   0  0  0  0  0  0  0  0  0  0  0  0
   53.7446   29.0879   55.3762 H   0  0  0  0  0  0  0  0  0  0  0  0
   55.0490   30.4890   54.3810 C   0  0  0  0  0  0  0  0  0  0  0  0
   55.5286   30.4633   55.3706 H   0  0  0  0  0  0  0  0  0  0  0  0
   54.6662   31.4974   54.1651 H   0  0  0  0  0  0  0  0  0  0  0  0
   56.0880   30.1180   53.3080 C   0  0  0  0  0  0  0  0  0  0  0  0
   55.5818   29.5338   52.5254 H   0  0  0  0  0  0  0  0  0  0  0  0
   56.8803   29.5511   53.8187 H   0  0  0  0  0  0  0  0  0  0  0  0
   56.7730   31.3340   52.6390 C   0  0  2  0  0  0  0  0  0  0  0  0
   55.9671   32.0430   52.3984 H   0  0  0  0  0  0  0  0  0  0  0  0
   57.4190   31.0130   51.3100 C   0  0  0  0  0  0  0  0  0  0  0  0
   57.7280   31.9300   50.5030 O   0  0  0  0  0  0  0  0  0  0  0  0
   57.7820   29.7040   51.0120 O   0  0  0  0  0  0  0  0  0  0  0  0
   57.7240   32.0330   53.5940 C   0  0  0  0  0  0  0  0  0  0  0  0
   57.7280   31.7030   54.7710 O   0  0  0  0  0  0  0  0  0  0  0  0
   58.6930   33.0920   53.1440 C   0  0  0  0  0  0  0  0  0  0  0  0
   59.1386   33.5790   54.0239 H   0  0  0  0  0  0  0  0  0  0  0  0
   59.4871   32.6294   52.5395 H   0  0  0  0  0  0  0  0  0  0  0  0
   58.1619   33.8420   52.5395 H   0  0  0  0  0  0  0  0  0  0  0  0
   52.0930   30.9130   51.6880 C   0  0  0  0  0  0  0  0  0  0  0  0
   52.4440   29.7320   51.0130 C   0  0  0  0  0  0  0  0  0  0  0  0
   53.0282   28.9581   51.5324 H   0  0  0  0  0  0  0  0  0  0  0  0
   52.0550   29.5350   49.6850 C   0  0  0  0  0  0  0  0  0  0  0  0
   52.3205   28.6014   49.1674 H   0  0  0  0  0  0  0  0  0  0  0  0
   51.3290   30.5230   49.0140 C   0  0  0  0  0  0  0  0  0  0  0  0
   50.9440   30.3200   47.6930 O   0  0  0  0  0  0  0  0  0  0  0  0
   50.9970   31.7150   49.6690 C   0  0  0  0  0  0  0  0  0  0  0  0
   50.2840   32.7010   48.9970 O   0  0  0  0  0  0  0  0  0  0  0  0
   51.3840   31.9150   51.0010 C   0  0  0  0  0  0  0  0  0  0  0  0
   51.0530   33.1060   51.6400 O   0  0  0  0  0  0  0  0  0  0  0  0
  1  2  1  0
  2  3  2  0
  3  4  1  0
  4  5  1  0
  4  6  1  0
  4  7  1  0
  7  8  1  0
  7  9  1  0
  7 10  1  0
 10 11  1  0
 10 12  1  0
 10 13  1  0
 13 14  1  6
 13 15  1  0
 15 16  2  0
 15 17  1  0
 13 18  1  0
 18 19  2  0
 18 20  1  0
 20 21  1  0
 20 22  1  0
 20 23  1  0
  2 24  1  0
 24 25  2  0
 25 26  1  0
 25 27  1  0
 27 28  1  0
 27 29  2  0
 29 30  1  0
 29 31  1  0
 31 32  1  0
 31 33  2  0
 33 34  1  0
 33 24  1  0
M  CHG  4  17  -1  30  -1  32  -1  34  -1
M  END
>  <UniqueID>  (52) 
48

>  <SMILES>  (52) 
CC(=O)[C@H](CCC/N=C\c1ccc([O-])c([O-])c1[O-])C(=O)[O-]

>  <Energy>  (52) 
36.941546255026715

>  <Genealogy>  (52) 
CC(=O)C(CCCN=Cc1ccc([O-])c([O-])c1[O-])C(=O)[O-] (protonated)
CC(=O)[C@H](CCCN=Cc1ccc([O-])c([O-])c1[O-])C(=O)[O-] (chirality)
CC(=O)[C@H](CCC/N=C\c1ccc([O-])c([O-])c1[O-])C(=O)[O-] (cis-trans isomerization)
CC(=O)[C@H](CCC/N=C\c1ccc([O-])c([O-])c1[O-])C(=O)[O-] (3D coordinates assigned)
CC(=O)[C@H](CCC/N=C\c1ccc([O-])c([O-])c1[O-])C(=O)[O-] (optimized conformer: 36.941546255026715 kcal/mol)

>  <smiles>  (52) 
CC(=O)C(CCCN=Cc1ccc(O)c(O)c1O)C(=O)O

>  <score_type>  (52) 
oracle

>  <origin>  (52) 
adg

>  <m_score__min__energy>  (52) 
-16.82

>  <m_primary>  (52) 
energy

$$$$
52:0
     RDKit          3D

 26 28  0  0  0  0  0  0  0  0999 V2000
   59.2670   30.8020   48.0000 C   0  0  0  0  0  0  0  0  0  0  0  0
   58.8120   31.3590   46.7510 N   0  0  0  0  0  0  0  0  0  0  0  0
   58.1330   30.5860   45.8550 C   0  0  0  0  0  0  0  0  0  0  0  0
   57.8970   29.2800   46.1750 N   0  0  0  0  0  0  0  0  0  0  0  0
   57.2230   28.4830   45.3060 C   0  0  0  0  0  0  0  0  0  0  0  0
   56.9600   26.9230   45.7230 S   0  0  0  0  0  0  0  0  0  0  0  0
   56.7850   28.9660   44.1300 N   0  0  0  0  0  0  0  0  0  0  0  0
   56.9700   30.2350   43.7330 C   0  0  0  0  0  0  0  0  0  0  0  0
   56.5390   30.6480   42.6170 O   0  0  0  0  0  0  0  0  0  0  0  0
   57.6540   31.0900   44.5880 C   0  0  0  0  0  0  0  0  0  0  0  0
   57.8890   32.4070   44.2590 C   0  0  0  0  0  0  0  0  0  0  0  0
   58.5800   33.1630   45.1890 C   0  0  0  0  0  0  0  0  0  0  0  0
   58.8230   34.4840   44.8740 C   0  0  0  0  0  0  0  0  0  0  0  0
   59.5090   35.3380   45.7330 C   0  0  0  0  0  0  0  0  0  0  0  0
   59.9340   34.7890   46.9210 C   0  0  0  0  0  0  0  0  0  0  0  0
   59.6970   33.4680   47.2460 C   0  0  0  0  0  0  0  0  0  0  0  0
   59.0160   32.6300   46.3870 C   0  0  0  0  0  0  0  0  0  0  0  0
   58.8142   31.3563   48.8353 H   0  0  0  0  0  0  0  0  0  0  0  0
   58.9715   29.7441   48.0590 H   0  0  0  0  0  0  0  0  0  0  0  0
   60.3626   30.8805   48.0590 H   0  0  0  0  0  0  0  0  0  0  0  0
   56.2720   28.2780   43.5200 H   0  0  0  0  0  0  0  0  0  0  0  0
   57.5450   32.8354   43.3060 H   0  0  0  0  0  0  0  0  0  0  0  0
   58.4625   34.8757   43.9114 H   0  0  0  0  0  0  0  0  0  0  0  0
   59.7002   36.3906   45.4770 H   0  0  0  0  0  0  0  0  0  0  0  0
   60.4802   35.4230   47.6350 H   0  0  0  0  0  0  0  0  0  0  0  0
   60.0581   33.0762   48.2083 H   0  0  0  0  0  0  0  0  0  0  0  0
  1  2  1  0
  2  3  1  0
  3  4  2  0
  4  5  1  0
  5  6  2  0
  5  7  1  0
  7  8  1  0
  8  9  2  0
  8 10  1  0
 10 11  2  0
 11 12  1  0
 12 13  2  0
 13 14  1  0
 14 15  2  0
 15 16  1  0
 16 17  2  0
 17  2  1  0
 10  3  1  0
 17 12  1  0
  1 18  1  0
  1 19  1  0
  1 20  1  0
  7 21  1  0
 11 22  1  0
 13 23  1  0
 14 24  1  0
 15 25  1  0
 16 26  1  0
M  END
>  <smiles>  (53) 
Cn1c2nc(=S)[nH]c(=O)c-2cc2ccccc21

>  <score_type>  (53) 
oracle

>  <origin>  (53) 
adg

>  <m_score__min__energy>  (53) 
-6.9000000000000004

>  <m_primary>  (53) 
energy

$$$$
53:0
     RDKit          3D

 58 61  0  0  0  0  0  0  0  0999 V2000
   55.2730   29.0440   44.7840 O   0  0  0  0  0  0  0  0  0  0  0  0
   56.3320   29.7280   44.7770 C   0  0  0  0  0  0  0  0  0  0  0  0
   56.2430   31.1310   44.4910 N   0  0  0  0  0  0  0  0  0  0  0  0
   57.2120   32.1200   44.8640 C   0  0  0  0  0  0  0  0  0  0  0  0
   57.4300   32.3830   46.2210 C   0  0  0  0  0  0  0  0  0  0  0  0
   58.3980   33.3130   46.6150 C   0  0  0  0  0  0  0  0  0  0  0  0
   59.1390   34.0140   45.6480 C   0  0  0  0  0  0  0  0  0  0  0  0
   60.2390   34.9520   46.0650 C   0  0  0  0  0  0  0  0  0  0  0  0
   61.3170   34.1980   46.8060 C   0  0  0  0  0  0  0  0  0  0  0  0
   62.4520   34.2140   46.3610 O   0  0  0  0  0  0  0  0  0  0  0  0
   61.0130   33.4510   48.0220 N   0  0  1  0  0  0  0  0  0  0  0  0
   61.4510   32.0250   47.9300 C   0  0  0  0  0  0  0  0  0  0  0  0
   62.6090   31.6590   48.8790 C   0  0  0  0  0  0  0  0  0  0  0  0
   63.6700   32.7720   48.9180 C   0  0  2  0  0  0  0  0  0  0  0  0
   64.8200   32.4060   49.8320 C   0  0  0  0  0  0  0  0  0  0  0  0
   64.7310   31.2840   50.6760 C   0  0  0  0  0  0  0  0  0  0  0  0
   65.8270   30.9250   51.4850 C   0  0  0  0  0  0  0  0  0  0  0  0
   65.7480   29.7150   52.3910 C   0  0  0  0  0  0  0  0  0  0  0  0
   64.4980   29.1310   52.2750 F   0  0  0  0  0  0  0  0  0  0  0  0
   65.9530   30.0530   53.7190 F   0  0  0  0  0  0  0  0  0  0  0  0
   66.7150   28.7950   52.0240 F   0  0  0  0  0  0  0  0  0  0  0  0
   67.0070   31.7020   51.4150 C   0  0  0  0  0  0  0  0  0  0  0  0
   68.4330   31.3100   52.3830 Cl  0  0  0  0  0  0  0  0  0  0  0  0
   67.0520   32.8070   50.5520 C   0  0  0  0  0  0  0  0  0  0  0  0
   68.0900   33.5150   50.4750 O   0  0  0  0  0  0  0  0  0  0  0  0
   65.9770   33.1220   49.7860 N   0  0  0  0  0  0  0  0  0  0  0  0
   63.0580   34.1300   49.3320 C   0  0  0  0  0  0  0  0  0  0  0  0
   61.5220   34.1620   49.2150 C   0  0  0  0  0  0  0  0  0  0  0  0
   58.8950   33.7750   44.2870 C   0  0  0  0  0  0  0  0  0  0  0  0
   57.9320   32.8420   43.8960 C   0  0  0  0  0  0  0  0  0  0  0  0
   57.6230   29.0800   45.1240 C   0  0  0  0  0  0  0  0  0  0  0  0
   57.6670   28.0850   46.1170 C   0  0  0  0  0  0  0  0  0  0  0  0
   58.8810   27.4810   46.4590 C   0  0  0  0  0  0  0  0  0  0  0  0
   60.0640   27.8660   45.8190 C   0  0  0  0  0  0  0  0  0  0  0  0
   60.0330   28.8540   44.8340 C   0  0  0  0  0  0  0  0  0  0  0  0
   58.8220   29.4680   44.4930 C   0  0  0  0  0  0  0  0  0  0  0  0
   56.8368   31.8554   46.9824 H   0  0  0  0  0  0  0  0  0  0  0  0
   58.5797   33.4961   47.6843 H   0  0  0  0  0  0  0  0  0  0  0  0
   60.6740   35.4217   45.1705 H   0  0  0  0  0  0  0  0  0  0  0  0
   59.8200   35.7225   46.7289 H   0  0  0  0  0  0  0  0  0  0  0  0
   59.9710   33.4320   48.1240 H   0  0  0  0  0  0  0  0  0  0  0  0
   61.7759   31.8295   46.8974 H   0  0  0  0  0  0  0  0  0  0  0  0
   60.5899   31.4092   48.2287 H   0  0  0  0  0  0  0  0  0  0  0  0
   63.0787   30.7278   48.5293 H   0  0  0  0  0  0  0  0  0  0  0  0
   62.2012   31.5312   49.8926 H   0  0  0  0  0  0  0  0  0  0  0  0
   64.0636   32.8770   47.8962 H   0  0  0  0  0  0  0  0  0  0  0  0
   63.8070   30.6879   50.7042 H   0  0  0  0  0  0  0  0  0  0  0  0
   63.4749   34.9142   48.6830 H   0  0  0  0  0  0  0  0  0  0  0  0
   63.3097   34.2940   50.3902 H   0  0  0  0  0  0  0  0  0  0  0  0
   61.1974   35.2116   49.1613 H   0  0  0  0  0  0  0  0  0  0  0  0
   61.1163   33.6484   50.0991 H   0  0  0  0  0  0  0  0  0  0  0  0
   59.4651   34.3253   43.5240 H   0  0  0  0  0  0  0  0  0  0  0  0
   57.7362   32.6715   42.8271 H   0  0  0  0  0  0  0  0  0  0  0  0
   56.7415   27.7802   46.6274 H   0  0  0  0  0  0  0  0  0  0  0  0
   58.9059   26.7006   47.2338 H   0  0  0  0  0  0  0  0  0  0  0  0
   61.0176   27.3904   46.0920 H   0  0  0  0  0  0  0  0  0  0  0  0
   60.9617   29.1509   44.3246 H   0  0  0  0  0  0  0  0  0  0  0  0
   58.8062   30.2581   43.7279 H   0  0  0  0  0  0  0  0  0  0  0  0
  1  2  2  0
  2  3  1  0
  3  4  1  0
  4  5  2  0
  5  6  1  0
  6  7  2  0
  7  8  1  0
  8  9  1  0
  9 10  2  0
  9 11  1  0
 11 12  1  0
 12 13  1  0
 13 14  1  0
 14 15  1  0
 15 16  2  0
 16 17  1  0
 17 18  1  0
 18 19  1  0
 18 20  1  0
 18 21  1  0
 17 22  2  0
 22 23  1  0
 22 24  1  0
 24 25  2  0
 24 26  1  0
 14 27  1  0
 27 28  1  0
  7 29  1  0
 29 30  2  0
  2 31  1  0
 31 32  2  0
 32 33  1  0
 33 34  2  0
 34 35  1  0
 35 36  2  0
 30  4  1  0
 36 31  1  0
 28 11  1  0
 26 15  1  0
  5 37  1  0
  6 38  1  0
  8 39  1  0
  8 40  1  0
 11 41  1  1
 12 42  1  0
 12 43  1  0
 13 44  1  0
 13 45  1  0
 14 46  1  6
 16 47  1  0
 27 48  1  0
 27 49  1  0
 28 50  1  0
 28 51  1  0
 29 52  1  0
 30 53  1  0
 32 54  1  0
 33 55  1  0
 34 56  1  0
 35 57  1  0
 36 58  1  0
M  CHG  3   3  -1  11   1  26  -1
M  END
>  <UniqueID>  (54) 
49

>  <SMILES>  (54) 
O=C([N-]c1ccc(CC(=O)[NH+]2CCC(c3cc(C(F)(F)F)c(Cl)c(=O)[n-]3)CC2)cc1)c1ccccc1

>  <Energy>  (54) 
80.55524452376689

>  <Genealogy>  (54) 
O=C([N-]c1ccc(CC(=O)[NH+]2CCC(c3cc(C(F)(F)F)c(Cl)c(=O)[n-]3)CC2)cc1)c1ccccc1 (protonated)
O=C([N-]c1ccc(CC(=O)[NH+]2CCC(c3cc(C(F)(F)F)c(Cl)c(=O)[n-]3)CC2)cc1)c1ccccc1 (3D coordinates assigned)
O=C([N-]c1ccc(CC(=O)[NH+]2CCC(c3cc(C(F)(F)F)c(Cl)c(=O)[n-]3)CC2)cc1)c1ccccc1 (nonaromatic ring conformer: 80.55524452376689 kcal/mol)

>  <smiles>  (54) 
O=C(Nc1ccc(CC(=O)N2CCC(c3cc(C(F)(F)F)c(Cl)c(=O)[nH]3)CC2)cc1)c1ccccc1

>  <score_type>  (54) 
oracle

>  <origin>  (54) 
adg

>  <m_score__min__energy>  (54) 
-10.380000000000001

>  <m_primary>  (54) 
energy

$$$$
54:0
     RDKit          3D

 56 60  0  0  1  0  0  0  0  0999 V2000
   60.0000   35.0190   46.3140 C   0  0  0  0  0  0  0  0  0  0  0  0
   59.1800   33.9070   45.8910 N   0  0  0  0  0  0  0  0  0  0  0  0
   58.0210   33.7080   46.7480 C   0  0  0  0  0  0  0  0  0  0  0  0
   57.0160   32.9910   45.8090 C   0  0  0  0  0  0  0  0  0  0  0  0
   57.7690   32.0360   44.9660 C   0  0  0  0  0  0  0  0  0  0  0  0
   57.4940   30.6710   44.8980 N   0  0  0  0  0  0  0  0  0  0  0  0
   57.9740   29.7610   45.6050 C   0  0  0  0  0  0  0  0  0  0  0  0
   58.4690   30.0550   46.8570 C   0  0  0  0  0  0  0  0  0  0  0  0
   59.0030   29.0640   47.6560 C   0  0  0  0  0  0  0  0  0  0  0  0
   59.5090   29.3940   48.9460 N   0  0  0  0  0  0  0  0  0  0  0  0
   59.6320   30.7590   49.2930 C   0  0  0  0  0  0  0  0  0  0  0  0
   58.7350   31.3240   50.1810 C   0  0  0  0  0  0  0  0  0  0  0  0
   58.8920   32.6600   50.4930 C   0  0  0  0  0  0  0  0  0  0  0  0
   59.8980   33.4250   49.9550 C   0  0  0  0  0  0  0  0  0  0  0  0
   60.8020   32.8540   49.0600 C   0  0  0  0  0  0  0  0  0  0  0  0
   61.8130   33.5930   48.5080 F   0  0  0  0  0  0  0  0  0  0  0  0
   60.6530   31.5220   48.7420 C   0  0  0  0  0  0  0  0  0  0  0  0
   59.0160   27.8140   47.1580 N   0  0  0  0  0  0  0  0  0  0  0  0
   58.5300   27.5360   45.9330 C   0  0  0  0  0  0  0  0  0  0  0  0
   58.4270   26.3600   45.2000 C   0  0  0  0  0  0  0  0  0  0  0  0
   58.8360   25.1840   45.6360 C   0  0  0  0  0  0  0  0  0  0  0  0
   58.3940   23.9230   45.0370 C   0  0  0  0  0  0  0  0  0  0  0  0
   57.2260   23.7120   44.4010 N   0  0  0  0  0  0  0  0  0  0  0  0
   57.2110   22.4140   44.0010 C   0  0  0  0  0  0  0  0  0  0  0  0
   56.2590   21.8780   43.3730 O   0  0  0  0  0  0  0  0  0  0  0  0
   58.3580   21.8180   44.3840 N   0  0  0  0  0  0  0  0  0  0  0  0
   59.0960   22.7360   45.0230 C   0  0  0  0  0  0  0  0  0  0  0  0
   60.3650   22.5630   45.5930 O   0  0  0  0  0  0  0  0  0  0  0  0
   57.8300   26.6730   43.9740 C   0  0  0  0  0  0  0  0  0  0  0  0
   57.6090   27.9960   44.0290 N   0  0  0  0  0  0  0  0  0  0  0  0
   58.0210   28.4930   45.1760 N   0  0  0  0  0  0  0  0  0  0  0  0
   58.4430   32.7450   43.8280 C   0  0  0  0  0  0  0  0  0  0  0  0
   58.8800   34.0580   44.4990 C   0  0  0  0  0  0  0  0  0  0  0  0
   60.0279   35.0568   47.4130 H   0  0  0  0  0  0  0  0  0  0  0  0
   61.0210   34.8903   45.9255 H   0  0  0  0  0  0  0  0  0  0  0  0
   59.5753   35.9564   45.9255 H   0  0  0  0  0  0  0  0  0  0  0  0
   58.2724   33.0780   47.6139 H   0  0  0  0  0  0  0  0  0  0  0  0
   57.6281   34.6438   47.1721 H   0  0  0  0  0  0  0  0  0  0  0  0
   56.2686   32.4498   46.4076 H   0  0  0  0  0  0  0  0  0  0  0  0
   56.4961   33.7264   45.1774 H   0  0  0  0  0  0  0  0  0  0  0  0
   58.5201   31.6306   45.6599 H   0  0  0  0  0  0  0  0  0  0  0  0
   58.4383   31.0915   47.2240 H   0  0  0  0  0  0  0  0  0  0  0  0
   59.7660   28.6300   49.5780 H   0  0  0  0  0  0  0  0  0  0  0  0
   57.9231   30.7287   50.6243 H   0  0  0  0  0  0  0  0  0  0  0  0
   58.1873   33.1276   51.1964 H   0  0  0  0  0  0  0  0  0  0  0  0
   59.9903   34.4861   50.2297 H   0  0  0  0  0  0  0  0  0  0  0  0
   61.3565   31.0537   48.0379 H   0  0  0  0  0  0  0  0  0  0  0  0
   59.5369   25.1493   46.4831 H   0  0  0  0  0  0  0  0  0  0  0  0
   56.4420   24.3820   44.2190 H   0  0  0  0  0  0  0  0  0  0  0  0
   58.5970   20.8210   44.2000 H   0  0  0  0  0  0  0  0  0  0  0  0
   61.1300   22.2790   44.9890 H   0  0  0  0  0  0  0  0  0  0  0  0
   57.5939   25.9866   43.1475 H   0  0  0  0  0  0  0  0  0  0  0  0
   59.3083   32.1764   43.4566 H   0  0  0  0  0  0  0  0  0  0  0  0
   57.8023   32.8848   42.9448 H   0  0  0  0  0  0  0  0  0  0  0  0
   59.7789   34.4306   43.9860 H   0  0  0  0  0  0  0  0  0  0  0  0
   58.0381   34.7615   44.4203 H   0  0  0  0  0  0  0  0  0  0  0  0
  1  2  1  0
  2  3  1  0
  3  4  1  0
  4  5  1  0
  5  6  1  0
  6  7  2  0
  7  8  1  0
  8  9  2  0
  9 10  1  0
 10 11  1  0
 11 12  2  0
 12 13  1  0
 13 14  2  0
 14 15  1  0
 15 16  1  0
 15 17  2  0
  9 18  1  0
 18 19  2  0
 19 20  1  0
 20 21  2  0
 21 22  1  0
 22 23  1  0
 23 24  1  0
 24 25  2  0
 24 26  1  0
 26 27  1  0
 27 28  1  0
 20 29  1  0
 29 30  2  0
 30 31  1  0
  5 32  1  0
 32 33  1  0
 33  2  1  0
 31  7  1  0
 17 11  1  0
 31 19  1  0
 27 22  2  0
  1 34  1  0
  1 35  1  0
  1 36  1  0
  3 37  1  0
  3 38  1  0
  4 39  1  0
  4 40  1  0
  5 41  1  0
  8 42  1  0
 10 43  1  0
 12 44  1  0
 13 45  1  0
 14 46  1  0
 17 47  1  0
 21 48  1  0
 23 49  1  0
 26 50  1  0
 28 51  1  0
 29 52  1  0
 32 53  1  0
 32 54  1  0
 33 55  1  0
 33 56  1  0
M  END
>  <smiles>  (55) 
CN1CCC(N=c2cc(Nc3cccc(F)c3)nc3c(=Cc4[nH]c(=O)[nH]c4O)cnn23)CC1

>  <score_type>  (55) 
oracle

>  <origin>  (55) 
adg

>  <m_score__min__energy>  (55) 
-9.7799999999999994

>  <m_primary>  (55) 
energy

$$$$
55:0
     RDKit          3D

 28 29  0  0  0  0  0  0  0  0999 V2000
   53.3460   24.2510   45.4630 C   0  0  0  0  0  0  0  0  0  0  0  0
   54.6840   24.5610   45.9670 N   0  0  0  0  0  0  0  0  0  0  0  0
   55.1870   25.7790   45.7410 N   0  0  0  0  0  0  0  0  0  0  0  0
   56.4230   26.1500   46.1760 C   0  0  0  0  0  0  0  0  0  0  0  0
   56.9260   27.5100   45.8900 C   0  0  0  0  0  0  0  0  0  0  0  0
   58.0090   27.8970   46.4090 O   0  0  0  0  0  0  0  0  0  0  0  0
   56.1670   28.4050   45.0590 N   0  0  0  0  0  0  0  0  0  0  0  0
   56.6920   29.6240   44.5040 C   0  0  0  0  0  0  0  0  0  0  0  0
   56.5070   29.8930   43.1380 C   0  0  0  0  0  0  0  0  0  0  0  0
   57.0270   31.0610   42.5710 C   0  0  0  0  0  0  0  0  0  0  0  0
   57.7490   31.9610   43.3580 C   0  0  0  0  0  0  0  0  0  0  0  0
   57.9590   31.6910   44.7130 C   0  0  0  0  0  0  0  0  0  0  0  0
   57.4390   30.5250   45.2850 C   0  0  0  0  0  0  0  0  0  0  0  0
   57.1960   25.2200   46.8810 C   0  0  0  0  0  0  0  0  0  0  0  0
   56.6830   23.9490   47.1200 C   0  0  0  0  0  0  0  0  0  0  0  0
   55.4090   23.6270   46.6540 C   0  0  0  0  0  0  0  0  0  0  0  0
   54.9400   22.4760   46.8700 O   0  0  0  0  0  0  0  0  0  0  0  0
   52.6626   24.0927   46.3103 H   0  0  0  0  0  0  0  0  0  0  0  0
   52.9820   25.0886   44.8499 H   0  0  0  0  0  0  0  0  0  0  0  0
   53.3874   23.3387   44.8499 H   0  0  0  0  0  0  0  0  0  0  0  0
   55.1500   28.2070   44.9210 H   0  0  0  0  0  0  0  0  0  0  0  0
   55.9502   29.1813   42.5108 H   0  0  0  0  0  0  0  0  0  0  0  0
   56.8670   31.2712   41.5032 H   0  0  0  0  0  0  0  0  0  0  0  0
   58.1522   32.8819   42.9115 H   0  0  0  0  0  0  0  0  0  0  0  0
   58.5341   32.3964   45.3308 H   0  0  0  0  0  0  0  0  0  0  0  0
   57.6148   30.3117   46.3497 H   0  0  0  0  0  0  0  0  0  0  0  0
   58.1989   25.4913   47.2424 H   0  0  0  0  0  0  0  0  0  0  0  0
   57.2769   23.2052   47.6714 H   0  0  0  0  0  0  0  0  0  0  0  0
  1  2  1  0
  2  3  1  0
  3  4  2  0
  4  5  1  0
  5  6  2  0
  5  7  1  0
  7  8  1  0
  8  9  2  0
  9 10  1  0
 10 11  2  0
 11 12  1  0
 12 13  2  0
  4 14  1  0
 14 15  2  0
 15 16  1  0
 16 17  2  0
 16  2  1  0
 13  8  1  0
  1 18  1  0
  1 19  1  0
  1 20  1  0
  7 21  1  0
  9 22  1  0
 10 23  1  0
 11 24  1  0
 12 25  1  0
 13 26  1  0
 14 27  1  0
 15 28  1  0
M  END
>  <UniqueID>  (56) 
50

>  <SMILES>  (56) 
Cn1nc(C(=O)Nc2ccccc2)ccc1=O

>  <Energy>  (56) 
33.249763943348725

>  <Genealogy>  (56) 
Cn1nc(C(=O)Nc2ccccc2)ccc1=O (3D coordinates assigned)
Cn1nc(C(=O)Nc2ccccc2)ccc1=O (optimized conformer: 33.249763943348725 kcal/mol)

>  <smiles>  (56) 
Cn1nc(C(=O)Nc2ccccc2)ccc1=O

>  <score_type>  (56) 
oracle

>  <origin>  (56) 
adg

>  <m_score__min__energy>  (56) 
-6.1100000000000003

>  <m_primary>  (56) 
energy

$$$$
56:0
     RDKit          3D

 40 42  0  0  0  0  0  0  0  0999 V2000
   60.6490   34.5550   47.9880 N   0  0  0  0  0  0  0  0  0  0  0  0
   59.8640   34.8900   46.8400 C   0  0  0  0  0  0  0  0  0  0  0  0
   59.9560   36.0530   46.3610 O   0  0  0  0  0  0  0  0  0  0  0  0
   58.9340   33.9130   46.2200 C   0  0  0  0  0  0  0  0  0  0  0  0
   58.3140   34.1760   44.9850 C   0  0  0  0  0  0  0  0  0  0  0  0
   57.4460   33.2410   44.4130 C   0  0  0  0  0  0  0  0  0  0  0  0
   57.1840   32.0250   45.0560 C   0  0  0  0  0  0  0  0  0  0  0  0
   56.2780   31.0990   44.4380 N   0  0  0  0  0  0  0  0  0  0  0  0
   56.3430   29.6690   44.5120 C   0  0  0  0  0  0  0  0  0  0  0  0
   55.5290   29.0210   45.2240 O   0  0  0  0  0  0  0  0  0  0  0  0
   57.4620   28.9490   43.8340 C   0  0  0  0  0  0  0  0  0  0  0  0
   58.0640   27.6120   44.9160 S   0  0  0  0  0  0  0  0  0  0  0  0
   59.0810   28.7100   45.9000 C   0  0  0  0  0  0  0  0  0  0  0  0
   58.9550   28.7390   47.2870 C   0  0  0  0  0  0  0  0  0  0  0  0
   59.7620   29.6020   48.0240 C   0  0  0  0  0  0  0  0  0  0  0  0
   60.6860   30.4210   47.3570 C   0  0  0  0  0  0  0  0  0  0  0  0
   61.5790   31.3570   48.0890 C   0  0  0  0  0  0  0  0  0  0  0  0
   62.8230   31.7180   47.5450 C   0  0  0  0  0  0  0  0  0  0  0  0
   63.6650   32.5930   48.2340 C   0  0  0  0  0  0  0  0  0  0  0  0
   63.2640   33.0940   49.4720 C   0  0  0  0  0  0  0  0  0  0  0  0
   62.0660   32.7280   49.9990 N   0  0  0  0  0  0  0  0  0  0  0  0
   61.2240   31.8830   49.3450 C   0  0  0  0  0  0  0  0  0  0  0  0
   60.7490   30.3600   45.9980 N   0  0  0  0  0  0  0  0  0  0  0  0
   59.9740   29.5340   45.2930 N   0  0  0  0  0  0  0  0  0  0  0  0
   57.7640   31.7770   46.3120 C   0  0  0  0  0  0  0  0  0  0  0  0
   58.6350   32.7100   46.8850 C   0  0  0  0  0  0  0  0  0  0  0  0
   61.3230   35.2520   48.3770 H   0  0  0  0  0  0  0  0  0  0  0  0
   60.5190   33.6580   48.5050 H   0  0  0  0  0  0  0  0  0  0  0  0
   58.5136   35.1247   44.4652 H   0  0  0  0  0  0  0  0  0  0  0  0
   56.9645   33.4626   43.4491 H   0  0  0  0  0  0  0  0  0  0  0  0
   57.1025   28.5208   42.8867 H   0  0  0  0  0  0  0  0  0  0  0  0
   58.2817   29.6533   43.6290 H   0  0  0  0  0  0  0  0  0  0  0  0
   58.2271   28.0883   47.7938 H   0  0  0  0  0  0  0  0  0  0  0  0
   59.6759   29.6414   49.1199 H   0  0  0  0  0  0  0  0  0  0  0  0
   63.1349   31.3097   46.5724 H   0  0  0  0  0  0  0  0  0  0  0  0
   64.6349   32.8842   47.8046 H   0  0  0  0  0  0  0  0  0  0  0  0
   63.9180   33.7862   50.0226 H   0  0  0  0  0  0  0  0  0  0  0  0
   60.2607   31.6095   49.8003 H   0  0  0  0  0  0  0  0  0  0  0  0
   57.5319   30.8445   46.8473 H   0  0  0  0  0  0  0  0  0  0  0  0
   59.0901   32.5009   47.8644 H   0  0  0  0  0  0  0  0  0  0  0  0
  1  2  1  0
  2  3  2  0
  2  4  1  0
  4  5  2  0
  5  6  1  0
  6  7  2  0
  7  8  1  0
  8  9  1  0
  9 10  2  0
  9 11  1  0
 11 12  1  0
 12 13  1  0
 13 14  2  0
 14 15  1  0
 15 16  2  0
 16 17  1  0
 17 18  2  0
 18 19  1  0
 19 20  2  0
 20 21  1  0
 21 22  2  0
 16 23  1  0
 23 24  2  0
  7 25  1  0
 25 26  2  0
 26  4  1  0
 24 13  1  0
 22 17  1  0
  1 27  1  0
  1 28  1  0
  5 29  1  0
  6 30  1  0
 11 31  1  0
 11 32  1  0
 14 33  1  0
 15 34  1  0
 18 35  1  0
 19 36  1  0
 20 37  1  0
 22 38  1  0
 25 39  1  0
 26 40  1  0
M  CHG  1   8  -1
M  END
>  <UniqueID>  (57) 
51

>  <SMILES>  (57) 
NC(=O)c1ccc([N-]C(=O)CSc2ccc(-c3cccnc3)nn2)cc1

>  <Energy>  (57) 
48.21794739719575

>  <Genealogy>  (57) 
NC(=O)c1ccc([N-]C(=O)CSc2ccc(-c3cccnc3)nn2)cc1 (protonated)
NC(=O)c1ccc([N-]C(=O)CSc2ccc(-c3cccnc3)nn2)cc1 (3D coordinates assigned)
NC(=O)c1ccc([N-]C(=O)CSc2ccc(-c3cccnc3)nn2)cc1 (optimized conformer: 48.21794739719575 kcal/mol)

>  <smiles>  (57) 
NC(=O)c1ccc(NC(=O)CSc2ccc(-c3cccnc3)nn2)cc1

>  <score_type>  (57) 
oracle

>  <origin>  (57) 
adg

>  <m_score__min__energy>  (57) 
-10.51

>  <m_primary>  (57) 
energy

$$$$
57:0
     RDKit          3D

 54 57  0  0  0  0  0  0  0  0999 V2000
   55.5580   23.6110   48.0870 O   0  0  0  0  0  0  0  0  0  0  0  0
   56.6320   23.0730   47.7100 C   0  0  0  0  0  0  0  0  0  0  0  0
   57.2930   23.5630   46.4510 C   0  0  0  0  0  0  0  0  0  0  0  0
   57.1070   25.0430   46.3240 C   0  0  0  0  0  0  0  0  0  0  0  0
   56.0510   25.6860   45.6990 C   0  0  0  0  0  0  0  0  0  0  0  0
   56.3360   27.0360   45.7800 C   0  0  0  0  0  0  0  0  0  0  0  0
   55.5340   28.0410   45.2470 O   0  0  0  0  0  0  0  0  0  0  0  0
   57.5090   27.2530   46.4150 N   0  0  0  0  0  0  0  0  0  0  0  0
   58.1240   28.5240   46.6950 C   0  0  0  0  0  0  0  0  0  0  0  0
   58.8370   28.7200   47.8900 C   0  0  0  0  0  0  0  0  0  0  0  0
   59.4520   29.9490   48.1530 C   0  0  0  0  0  0  0  0  0  0  0  0
   59.3620   30.9960   47.2290 C   0  0  0  0  0  0  0  0  0  0  0  0
   60.1880   32.5190   47.5530 S   0  0  0  0  0  0  0  0  0  0  0  0
   59.7520   33.5660   46.5640 O   0  0  0  0  0  0  0  0  0  0  0  0
   59.8200   32.9810   48.9370 O   0  0  0  0  0  0  0  0  0  0  0  0
   61.9160   32.2890   47.4500 N   0  0  0  0  0  0  0  0  0  0  0  0
   62.5780   33.5780   47.1700 C   0  0  0  0  0  0  0  0  0  0  0  0
   64.0670   33.5130   47.5520 C   0  0  0  0  0  0  0  0  0  0  0  0
   64.3070   33.2160   48.9240 O   0  0  0  0  0  0  0  0  0  0  0  0
   63.2120   32.5910   49.5750 C   0  0  0  0  0  0  0  0  0  0  0  0
   62.4400   31.6200   48.6630 C   0  0  0  0  0  0  0  0  0  0  0  0
   58.6520   30.8070   46.0360 C   0  0  0  0  0  0  0  0  0  0  0  0
   58.0350   29.5800   45.7710 C   0  0  0  0  0  0  0  0  0  0  0  0
   57.9810   26.0300   46.7410 C   0  0  0  0  0  0  0  0  0  0  0  0
   59.1710   25.8050   47.4250 O   0  0  0  0  0  0  0  0  0  0  0  0
   57.2650   22.1170   48.5710 N   0  0  0  0  0  0  0  0  0  0  0  0
   57.0460   21.9830   49.9830 C   0  0  0  0  0  0  0  0  0  0  0  0
   55.8150   21.5390   50.4890 C   0  0  0  0  0  0  0  0  0  0  0  0
   55.6100   21.4520   51.8710 C   0  0  0  0  0  0  0  0  0  0  0  0
   56.6270   21.8260   52.7700 C   0  0  0  0  0  0  0  0  0  0  0  0
   56.4210   21.7390   54.1920 N   0  0  0  0  0  0  0  0  0  0  0  0
   55.7950   22.6330   54.8010 O   0  0  0  0  0  0  0  0  0  0  0  0
   56.9120   20.6680   54.9080 O   0  0  0  0  0  0  0  0  0  0  0  0
   57.8470   22.2970   52.2540 C   0  0  0  0  0  0  0  0  0  0  0  0
   58.0490   22.3850   50.8720 C   0  0  0  0  0  0  0  0  0  0  0  0
   58.3678   23.3319   46.4890 H   0  0  0  0  0  0  0  0  0  0  0  0
   56.8372   23.0637   45.5833 H   0  0  0  0  0  0  0  0  0  0  0  0
   55.1695   25.2194   45.2350 H   0  0  0  0  0  0  0  0  0  0  0  0
   58.9120   27.9029   48.6226 H   0  0  0  0  0  0  0  0  0  0  0  0
   60.0089   30.0928   49.0906 H   0  0  0  0  0  0  0  0  0  0  0  0
   62.4890   33.8052   46.0974 H   0  0  0  0  0  0  0  0  0  0  0  0
   62.0918   34.3645   47.7658 H   0  0  0  0  0  0  0  0  0  0  0  0
   64.5456   32.7330   46.9417 H   0  0  0  0  0  0  0  0  0  0  0  0
   64.4836   34.5144   47.3686 H   0  0  0  0  0  0  0  0  0  0  0  0
   63.5936   32.0295   50.4405 H   0  0  0  0  0  0  0  0  0  0  0  0
   62.5124   33.3852   49.8746 H   0  0  0  0  0  0  0  0  0  0  0  0
   63.1165   30.8088   48.3559 H   0  0  0  0  0  0  0  0  0  0  0  0
   61.5822   31.2320   49.2320 H   0  0  0  0  0  0  0  0  0  0  0  0
   58.5796   31.6262   45.3054 H   0  0  0  0  0  0  0  0  0  0  0  0
   57.4765   29.4403   44.8337 H   0  0  0  0  0  0  0  0  0  0  0  0
   55.0076   21.2581   49.7968 H   0  0  0  0  0  0  0  0  0  0  0  0
   54.6465   21.0885   52.2578 H   0  0  0  0  0  0  0  0  0  0  0  0
   58.6499   22.5990   52.9426 H   0  0  0  0  0  0  0  0  0  0  0  0
   59.0019   22.7725   50.4823 H   0  0  0  0  0  0  0  0  0  0  0  0
  1  2  2  0
  2  3  1  0
  3  4  1  0
  4  5  1  0
  5  6  2  0
  6  7  1  0
  6  8  1  0
  8  9  1  0
  9 10  2  0
 10 11  1  0
 11 12  2  0
 12 13  1  0
 13 14  2  0
 13 15  2  0
 13 16  1  0
 16 17  1  0
 17 18  1  0
 18 19  1  0
 19 20  1  0
 20 21  1  0
 12 22  1  0
 22 23  2  0
  8 24  1  0
 24 25  1  0
  2 26  1  0
 26 27  1  0
 27 28  2  0
 28 29  1  0
 29 30  2  0
 30 31  1  0
 31 32  2  0
 31 33  1  0
 30 34  1  0
 34 35  2  0
 24  4  2  0
 35 27  1  0
 23  9  1  0
 21 16  1  0
  3 36  1  0
  3 37  1  0
  5 38  1  0
 10 39  1  0
 11 40  1  0
 17 41  1  0
 17 42  1  0
 18 43  1  0
 18 44  1  0
 20 45  1  0
 20 46  1  0
 21 47  1  0
 21 48  1  0
 22 49  1  0
 23 50  1  0
 28 51  1  0
 29 52  1  0
 34 53  1  0
 35 54  1  0
M  CHG  5   7  -1  25  -1  26  -1  31   1  33  -1
M  END
>  <UniqueID>  (58) 
52

>  <SMILES>  (58) 
O=C(Cc1cc([O-])n(-c2ccc(S(=O)(=O)N3CCOCC3)cc2)c1[O-])[N-]c1ccc([N+](=O)[O-])cc1

>  <Energy>  (58) 
108.05286811053809

>  <Genealogy>  (58) 
O=C(Cc1cc([O-])n(-c2ccc(S(=O)(=O)N3CCOCC3)cc2)c1[O-])[N-]c1ccc([N+](=O)[O-])cc1 (protonated)
O=C(Cc1cc([O-])n(-c2ccc(S(=O)(=O)N3CCOCC3)cc2)c1[O-])[N-]c1ccc([N+](=O)[O-])cc1 (3D coordinates assigned)
O=C(Cc1cc([O-])n(-c2ccc(S(=O)(=O)N3CCOCC3)cc2)c1[O-])[N-]c1ccc([N+](=O)[O-])cc1 (nonaromatic ring conformer: 108.05286811053809 kcal/mol)

>  <smiles>  (58) 
O=C(Cc1cc(O)n(-c2ccc(S(=O)(=O)N3CCOCC3)cc2)c1O)Nc1ccc([N+](=O)[O-])cc1

>  <score_type>  (58) 
oracle

>  <origin>  (58) 
adg

>  <m_score__min__energy>  (58) 
-14.140000000000001

>  <m_primary>  (58) 
energy

$$$$
58:0
     RDKit          3D

 47 49  0  0  0  0  0  0  0  0999 V2000
   57.7190   25.5930   43.7210 C   0  0  0  0  0  0  0  0  0  0  0  0
   57.4960   25.1320   44.9580 C   0  0  0  0  0  0  0  0  0  0  0  0
   56.9410   26.0140   46.0410 C   0  0  0  0  0  0  0  0  0  0  0  0
   57.4310   27.3810   45.8770 N   0  0  0  0  0  0  0  0  0  0  0  0
   58.3010   27.9470   46.6590 C   0  0  0  0  0  0  0  0  0  0  0  0
   58.0110   28.9470   47.5190 N   0  0  0  0  0  0  0  0  0  0  0  0
   59.1120   29.3490   48.2140 C   0  0  0  0  0  0  0  0  0  0  0  0
   59.0430   30.4470   49.2130 C   0  0  0  0  0  0  0  0  0  0  0  0
   58.5710   30.1840   50.5120 C   0  0  0  0  0  0  0  0  0  0  0  0
   58.4870   31.2090   51.4560 C   0  0  0  0  0  0  0  0  0  0  0  0
   58.8660   32.5100   51.1170 C   0  0  0  0  0  0  0  0  0  0  0  0
   59.3330   32.7980   49.8240 C   0  0  0  0  0  0  0  0  0  0  0  0
   59.6910   34.2140   49.4380 C   0  0  0  0  0  0  0  0  0  0  0  0
   60.3900   34.2580   48.1010 C   0  0  0  0  0  0  0  0  0  0  0  0
   61.6420   34.1580   48.0580 O   0  0  0  0  0  0  0  0  0  0  0  0
   59.6630   34.3740   46.8680 N   0  0  0  0  0  0  0  0  0  0  0  0
   58.9820   33.2820   46.2490 C   0  0  0  0  0  0  0  0  0  0  0  0
   59.6730   32.0780   45.9850 C   0  0  0  0  0  0  0  0  0  0  0  0
   59.0350   31.0450   45.2950 C   0  0  0  0  0  0  0  0  0  0  0  0
   57.7050   31.2110   44.8600 C   0  0  0  0  0  0  0  0  0  0  0  0
   56.9350   29.9280   43.9330 S   0  0  0  0  0  0  0  0  0  0  0  0
   55.7950   29.0990   44.9320 N   0  0  0  0  0  0  0  0  0  0  0  0
   57.9710   28.9570   43.4390 O   0  0  0  0  0  0  0  0  0  0  0  0
   56.2310   30.5170   42.7450 O   0  0  0  0  0  0  0  0  0  0  0  0
   57.0170   32.4160   45.1270 C   0  0  0  0  0  0  0  0  0  0  0  0
   57.6500   33.4420   45.8340 C   0  0  0  0  0  0  0  0  0  0  0  0
   59.4430   31.7580   48.8860 C   0  0  0  0  0  0  0  0  0  0  0  0
   60.2850   28.6580   47.8900 C   0  0  0  0  0  0  0  0  0  0  0  0
   59.9190   27.5160   46.7090 S   0  0  0  0  0  0  0  0  0  0  0  0
   58.1261   24.9230   42.9494 H   0  0  0  0  0  0  0  0  0  0  0  0
   57.4952   26.6418   43.4762 H   0  0  0  0  0  0  0  0  0  0  0  0
   57.7248   24.0808   45.1876 H   0  0  0  0  0  0  0  0  0  0  0  0
   55.8425   26.0122   45.9842 H   0  0  0  0  0  0  0  0  0  0  0  0
   57.2663   25.6303   47.0192 H   0  0  0  0  0  0  0  0  0  0  0  0
   58.2659   29.1632   50.7858 H   0  0  0  0  0  0  0  0  0  0  0  0
   58.1211   30.9914   52.4703 H   0  0  0  0  0  0  0  0  0  0  0  0
   58.7984   33.3127   51.8661 H   0  0  0  0  0  0  0  0  0  0  0  0
   58.7705   34.8134   49.3809 H   0  0  0  0  0  0  0  0  0  0  0  0
   60.3730   34.6196   50.1998 H   0  0  0  0  0  0  0  0  0  0  0  0
   60.7126   31.9545   46.3227 H   0  0  0  0  0  0  0  0  0  0  0  0
   59.5689   30.1050   45.0918 H   0  0  0  0  0  0  0  0  0  0  0  0
   55.8080   28.0940   44.6460 H   0  0  0  0  0  0  0  0  0  0  0  0
   56.1670   29.1350   45.9080 H   0  0  0  0  0  0  0  0  0  0  0  0
   55.9820   32.5467   44.7780 H   0  0  0  0  0  0  0  0  0  0  0  0
   57.1073   34.3707   46.0643 H   0  0  0  0  0  0  0  0  0  0  0  0
   59.8461   31.9695   47.8846 H   0  0  0  0  0  0  0  0  0  0  0  0
   61.2773   28.8316   48.3319 H   0  0  0  0  0  0  0  0  0  0  0  0
  1  2  2  0
  2  3  1  0
  3  4  1  0
  4  5  2  3
  5  6  1  0
  6  7  1  0
  7  8  1  0
  8  9  2  0
  9 10  1  0
 10 11  2  0
 11 12  1  0
 12 13  1  0
 13 14  1  0
 14 15  2  0
 14 16  1  0
 16 17  1  0
 17 18  2  0
 18 19  1  0
 19 20  2  0
 20 21  1  0
 21 22  1  0
 21 23  2  0
 21 24  2  0
 20 25  1  0
 25 26  2  0
 12 27  2  0
  7 28  2  0
 28 29  1  0
 29  5  1  0
 27  8  1  0
 26 17  1  0
  1 30  1  0
  1 31  1  0
  2 32  1  0
  3 33  1  0
  3 34  1  0
  9 35  1  0
 10 36  1  0
 11 37  1  0
 13 38  1  0
 13 39  1  0
 18 40  1  0
 19 41  1  0
 22 42  1  0
 22 43  1  0
 25 44  1  0
 26 45  1  0
 27 46  1  0
 28 47  1  0
M  CHG  2   6  -1  16  -1
M  END
>  <UniqueID>  (59) 
53

>  <SMILES>  (59) 
C=CCN=c1[n-]c(-c2cccc(CC(=O)[N-]c3ccc(S(N)(=O)=O)cc3)c2)cs1

>  <Energy>  (59) 
80.33789286400093

>  <Genealogy>  (59) 
C=CCN=c1[n-]c(-c2cccc(CC(=O)[N-]c3ccc(S(N)(=O)=O)cc3)c2)cs1 (protonated)
C=CCN=c1[n-]c(-c2cccc(CC(=O)[N-]c3ccc(S(N)(=O)=O)cc3)c2)cs1 (3D coordinates assigned)
C=CCN=c1[n-]c(-c2cccc(CC(=O)[N-]c3ccc(S(N)(=O)=O)cc3)c2)cs1 (optimized conformer: 80.33789286400093 kcal/mol)

>  <smiles>  (59) 
C=CCN=c1[nH]c(-c2cccc(CC(=O)Nc3ccc(S(N)(=O)=O)cc3)c2)cs1

>  <score_type>  (59) 
oracle

>  <origin>  (59) 
adg

>  <m_score__min__energy>  (59) 
-12.029999999999999

>  <m_primary>  (59) 
energy

$$$$
59:0
     RDKit          3D

 42 45  0  0  0  0  0  0  0  0999 V2000
   53.6810   26.3600   46.0010 H   0  0  0  0  0  0  0  0  0  0  0  0
   54.5640   25.9160   45.6720 N   0  0  0  0  0  0  0  0  0  0  0  0
   55.7480   26.4290   45.8120 C   0  0  0  0  0  0  0  0  0  0  0  0
   55.8920   27.7690   45.6250 N   0  0  0  0  0  0  0  0  0  0  0  0
   57.0870   28.3980   45.7550 C   0  0  0  0  0  0  0  0  0  0  0  0
   57.1710   29.7380   45.5560 N   0  0  0  0  0  0  0  0  0  0  0  0
   58.3540   30.4010   45.6820 C   0  0  0  0  0  0  0  0  0  0  0  0
   58.4170   31.8270   45.4660 N   0  0  0  0  0  0  0  0  0  0  0  0
   59.4490   32.6230   46.1460 C   0  0  0  0  0  0  0  0  0  0  0  0
   59.6017   32.2264   47.1606 H   0  0  0  0  0  0  0  0  0  0  0  0
   60.3835   32.5604   45.5691 H   0  0  0  0  0  0  0  0  0  0  0  0
   59.0220   34.0910   46.2380 C   0  0  0  0  0  0  0  0  0  0  0  0
   58.1796   34.1782   46.9400 H   0  0  0  0  0  0  0  0  0  0  0  0
   59.8777   34.6855   46.5907 H   0  0  0  0  0  0  0  0  0  0  0  0
   58.6230   34.5780   44.9730 O   0  0  0  0  0  0  0  0  0  0  0  0
   57.4490   33.9070   44.5600 C   0  0  0  0  0  0  0  0  0  0  0  0
   56.6838   34.0035   45.3443 H   0  0  0  0  0  0  0  0  0  0  0  0
   57.0958   34.3602   43.6220 H   0  0  0  0  0  0  0  0  0  0  0  0
   57.7290   32.4220   44.3120 C   0  0  0  0  0  0  0  0  0  0  0  0
   56.7765   31.8967   44.1484 H   0  0  0  0  0  0  0  0  0  0  0  0
   58.3733   32.3252   43.4257 H   0  0  0  0  0  0  0  0  0  0  0  0
   59.4760   29.7040   46.0130 N   0  0  0  0  0  0  0  0  0  0  0  0
   59.4470   28.3620   46.2210 C   0  0  0  0  0  0  0  0  0  0  0  0
   60.5120   27.7610   46.5270 O   0  0  0  0  0  0  0  0  0  0  0  0
   58.2350   27.6660   46.0940 C   0  0  0  0  0  0  0  0  0  0  0  0
   58.1230   26.2850   46.2940 C   0  0  0  0  0  0  0  0  0  0  0  0
   59.0135   25.6989   46.5651 H   0  0  0  0  0  0  0  0  0  0  0  0
   56.8810   25.6410   46.1510 C   0  0  0  0  0  0  0  0  0  0  0  0
   56.8030   24.1500   46.4060 C   0  0  0  0  0  0  0  0  0  0  0  0
   57.6634   23.8455   47.0199 H   0  0  0  0  0  0  0  0  0  0  0  0
   55.8588   23.9347   46.9277 H   0  0  0  0  0  0  0  0  0  0  0  0
   56.8220   23.3740   45.1130 C   0  0  0  0  0  0  0  0  0  0  0  0
   57.7250   22.3110   44.9290 C   0  0  0  0  0  0  0  0  0  0  0  0
   58.4281   22.0449   45.7320 H   0  0  0  0  0  0  0  0  0  0  0  0
   57.7330   21.5910   43.7300 C   0  0  0  0  0  0  0  0  0  0  0  0
   58.4452   20.7643   43.5907 H   0  0  0  0  0  0  0  0  0  0  0  0
   56.8380   21.9200   42.7090 C   0  0  0  0  0  0  0  0  0  0  0  0
   56.8498   21.3561   41.7646 H   0  0  0  0  0  0  0  0  0  0  0  0
   55.9280   22.9650   42.8870 C   0  0  0  0  0  0  0  0  0  0  0  0
   55.2200   23.2194   42.0845 H   0  0  0  0  0  0  0  0  0  0  0  0
   55.9160   23.6880   44.0840 C   0  0  0  0  0  0  0  0  0  0  0  0
   55.1942   24.5066   44.2215 H   0  0  0  0  0  0  0  0  0  0  0  0
  1  2  1  0
  2  3  2  0
  3  4  1  0
  4  5  1  0
  5  6  1  0
  6  7  1  0
  7  8  1  0
  8  9  1  0
  9 10  1  0
  9 11  1  0
  9 12  1  0
 12 13  1  0
 12 14  1  0
 12 15  1  0
 15 16  1  0
 16 17  1  0
 16 18  1  0
 16 19  1  0
 19 20  1  0
 19 21  1  0
  7 22  2  0
 22 23  1  0
 23 24  2  0
 23 25  1  0
 25 26  1  0
 26 27  1  0
 26 28  2  0
 28 29  1  0
 29 30  1  0
 29 31  1  0
 29 32  1  0
 32 33  2  0
 33 34  1  0
 33 35  1  0
 35 36  1  0
 35 37  2  0
 37 38  1  0
 37 39  1  0
 39 40  1  0
 39 41  2  0
 41 42  1  0
 28  3  1  0
 41 32  1  0
 25  5  2  0
 19  8  1  0
M  CHG  2   4  -1   6  -1
M  END
>  <UniqueID>  (60) 
54

>  <SMILES>  (60) 
[H]/N=c1/[n-]c2[n-]c(N3CCOCC3)nc(=O)c2cc1Cc1ccccc1

>  <Energy>  (60) 
54.89850310280178

>  <Genealogy>  (60) 
N=c1[n-]c2[n-]c(N3CCOCC3)nc(=O)c2cc1Cc1ccccc1 (protonated)
[H]/N=c1/[n-]c2[n-]c(N3CCOCC3)nc(=O)c2cc1Cc1ccccc1 (cis-trans isomerization)
[H]/N=c1/[n-]c2[n-]c(N3CCOCC3)nc(=O)c2cc1Cc1ccccc1 (3D coordinates assigned)
[H]/N=c1/[n-]c2[n-]c(N3CCOCC3)nc(=O)c2cc1Cc1ccccc1 (nonaromatic ring conformer: 54.89850310280178 kcal/mol)

>  <smiles>  (60) 
N=c1[nH]c2[nH]c(N3CCOCC3)nc(=O)c2cc1Cc1ccccc1

>  <score_type>  (60) 
oracle

>  <origin>  (60) 
adg

>  <m_score__min__energy>  (60) 
-12.109999999999999

>  <m_primary>  (60) 
energy

$$$$
60:0
     RDKit          3D

 74 78  0  0  0  0  0  0  0  0999 V2000
   60.8280   33.1120   46.7400 O   0  0  0  0  0  0  0  0  0  0  0  0
   60.6870   34.2220   47.3200 C   0  0  0  0  0  0  0  0  0  0  0  0
   59.7300   35.1700   46.8320 N   0  0  0  0  0  0  0  0  0  0  0  0
   59.2420   35.2140   45.4560 C   0  0  0  0  0  0  0  0  0  0  0  0
   58.5870   33.9120   45.0780 C   0  0  0  0  0  0  0  0  0  0  0  0
   57.9900   33.1070   46.0610 C   0  0  0  0  0  0  0  0  0  0  0  0
   57.4400   31.8670   45.7190 C   0  0  0  0  0  0  0  0  0  0  0  0
   57.4930   31.4120   44.3930 C   0  0  0  0  0  0  0  0  0  0  0  0
   56.8740   29.8150   43.9710 S   0  0  0  0  0  0  0  0  0  0  0  0
   55.5480   29.6070   44.6430 O   0  0  0  0  0  0  0  0  0  0  0  0
   56.6470   29.7540   42.4870 O   0  0  0  0  0  0  0  0  0  0  0  0
   57.9990   28.5430   44.4150 N   0  0  0  0  0  0  0  0  0  0  0  0
   57.8810   27.3580   43.5210 C   0  0  0  0  0  0  0  0  0  0  0  0
   57.8090   26.0150   44.2230 C   0  0  0  0  0  0  0  0  0  0  0  0
   57.3760   24.8750   43.5250 C   0  0  0  0  0  0  0  0  0  0  0  0
   57.2670   23.6420   44.1770 C   0  0  0  0  0  0  0  0  0  0  0  0
   57.5940   23.5360   45.5320 C   0  0  0  0  0  0  0  0  0  0  0  0
   57.4670   22.3460   46.1670 F   0  0  0  0  0  0  0  0  0  0  0  0
   58.0330   24.6640   46.2310 C   0  0  0  0  0  0  0  0  0  0  0  0
   58.1470   25.8960   45.5810 C   0  0  0  0  0  0  0  0  0  0  0  0
   59.3600   29.0580   44.6720 C   0  0  0  0  0  0  0  0  0  0  0  0
   59.5350   29.3750   46.1340 C   0  0  0  0  0  0  0  0  0  0  0  0
   60.5880   30.2100   46.5440 C   0  0  0  0  0  0  0  0  0  0  0  0
   60.7760   30.4990   47.8990 C   0  0  0  0  0  0  0  0  0  0  0  0
   59.9180   29.9450   48.8690 C   0  0  0  0  0  0  0  0  0  0  0  0
   60.0750   30.1750   50.2460 O   0  0  0  0  0  0  0  0  0  0  0  0
   59.2430   31.0160   51.0520 C   0  0  1  0  0  0  0  0  0  0  0  0
   60.0150   31.4800   52.2760 C   0  0  0  0  0  0  0  0  0  0  0  0
   59.6320   32.7960   52.6000 O   0  0  0  0  0  0  0  0  0  0  0  0
   59.0180   33.3660   51.4640 C   0  0  0  0  0  0  0  0  0  0  0  0
   58.9160   32.3190   50.3570 C   0  0  2  0  0  0  0  0  0  0  0  0
   57.6460   32.3080   49.7510 O   0  0  0  0  0  0  0  0  0  0  0  0
   58.8570   29.1300   48.4550 C   0  0  0  0  0  0  0  0  0  0  0  0
   58.6600   28.8490   47.0980 C   0  0  0  0  0  0  0  0  0  0  0  0
   58.0690   32.2260   43.4080 C   0  0  0  0  0  0  0  0  0  0  0  0
   58.6130   33.4670   43.7480 C   0  0  0  0  0  0  0  0  0  0  0  0
   61.4410   34.5330   48.5010 N   0  0  0  0  0  0  0  0  0  0  0  0
   62.3450   33.6150   49.1440 C   0  0  0  0  0  0  0  0  0  0  0  0
   62.1590   33.2400   50.4880 C   0  0  0  0  0  0  0  0  0  0  0  0
   63.0450   32.3540   51.1090 C   0  0  0  0  0  0  0  0  0  0  0  0
   64.1150   31.8170   50.3910 C   0  0  0  0  0  0  0  0  0  0  0  0
   64.2950   32.1570   49.0480 C   0  0  0  0  0  0  0  0  0  0  0  0
   63.4150   33.0490   48.4190 C   0  0  0  0  0  0  0  0  0  0  0  0
   63.7170   33.4770   46.7390 Cl  0  0  0  0  0  0  0  0  0  0  0  0
   58.5083   36.0279   45.3596 H   0  0  0  0  0  0  0  0  0  0  0  0
   60.0962   35.3864   44.7848 H   0  0  0  0  0  0  0  0  0  0  0  0
   57.9545   33.4527   47.1047 H   0  0  0  0  0  0  0  0  0  0  0  0
   56.9642   31.2465   46.4927 H   0  0  0  0  0  0  0  0  0  0  0  0
   56.9669   27.4761   42.9206 H   0  0  0  0  0  0  0  0  0  0  0  0
   58.8043   27.3373   42.9234 H   0  0  0  0  0  0  0  0  0  0  0  0
   57.1208   24.9526   42.4578 H   0  0  0  0  0  0  0  0  0  0  0  0
   56.9239   22.7557   43.6232 H   0  0  0  0  0  0  0  0  0  0  0  0
   58.2899   24.5817   47.2974 H   0  0  0  0  0  0  0  0  0  0  0  0
   58.5031   26.7766   46.1356 H   0  0  0  0  0  0  0  0  0  0  0  0
   60.0972   28.2973   44.3755 H   0  0  0  0  0  0  0  0  0  0  0  0
   59.5093   29.9778   44.0875 H   0  0  0  0  0  0  0  0  0  0  0  0
   61.2689   30.6391   45.7941 H   0  0  0  0  0  0  0  0  0  0  0  0
   61.5974   31.1618   48.2088 H   0  0  0  0  0  0  0  0  0  0  0  0
   58.3455   30.4205   51.2752 H   0  0  0  0  0  0  0  0  0  0  0  0
   59.7939   30.8144   53.1234 H   0  0  0  0  0  0  0  0  0  0  0  0
   61.0936   31.4537   52.0617 H   0  0  0  0  0  0  0  0  0  0  0  0
   58.0100   33.7168   51.7300 H   0  0  0  0  0  0  0  0  0  0  0  0
   59.6217   34.2145   51.1097 H   0  0  0  0  0  0  0  0  0  0  0  0
   59.6024   32.5225   49.5219 H   0  0  0  0  0  0  0  0  0  0  0  0
   56.9820   32.6280   50.4160 H   0  0  0  0  0  0  0  0  0  0  0  0
   58.1715   28.7064   49.2038 H   0  0  0  0  0  0  0  0  0  0  0  0
   57.8174   28.2144   46.7859 H   0  0  0  0  0  0  0  0  0  0  0  0
   58.0928   31.8860   42.3621 H   0  0  0  0  0  0  0  0  0  0  0  0
   59.0642   34.0986   42.9685 H   0  0  0  0  0  0  0  0  0  0  0  0
   61.2250   35.4390   48.9740 H   0  0  0  0  0  0  0  0  0  0  0  0
   61.3090   33.6476   51.0549 H   0  0  0  0  0  0  0  0  0  0  0  0
   62.8987   32.0800   52.1642 H   0  0  0  0  0  0  0  0  0  0  0  0
   64.8161   31.1264   50.8825 H   0  0  0  0  0  0  0  0  0  0  0  0
   65.1316   31.7226   48.4810 H   0  0  0  0  0  0  0  0  0  0  0  0
  1  2  2  0
  2  3  1  0
  3  4  1  0
  4  5  1  0
  5  6  2  0
  6  7  1  0
  7  8  2  0
  8  9  1  0
  9 10  2  0
  9 11  2  0
  9 12  1  0
 12 13  1  0
 13 14  1  0
 14 15  2  0
 15 16  1  0
 16 17  2  0
 17 18  1  0
 17 19  1  0
 19 20  2  0
 12 21  1  0
 21 22  1  0
 22 23  2  0
 23 24  1  0
 24 25  2  0
 25 26  1  0
 26 27  1  0
 27 28  1  0
 28 29  1  0
 29 30  1  0
 30 31  1  0
 31 32  1  0
 25 33  1  0
 33 34  2  0
  8 35  1  0
 35 36  2  0
  2 37  1  0
 37 38  1  0
 38 39  2  0
 39 40  1  0
 40 41  2  0
 41 42  1  0
 42 43  2  0
 43 44  1  0
 36  5  1  0
 43 38  1  0
 20 14  1  0
 34 22  1  0
 31 27  1  0
  4 45  1  0
  4 46  1  0
  6 47  1  0
  7 48  1  0
 13 49  1  0
 13 50  1  0
 15 51  1  0
 16 52  1  0
 19 53  1  0
 20 54  1  0
 21 55  1  0
 21 56  1  0
 23 57  1  0
 24 58  1  0
 27 59  1  1
 28 60  1  0
 28 61  1  0
 30 62  1  0
 30 63  1  0
 31 64  1  6
 32 65  1  0
 33 66  1  0
 34 67  1  0
 35 68  1  0
 36 69  1  0
 37 70  1  0
 39 71  1  0
 40 72  1  0
 41 73  1  0
 42 74  1  0
M  CHG  1   3  -1
M  END
>  <UniqueID>  (61) 
55

>  <SMILES>  (61) 
O=C([N-]Cc1ccc(S(=O)(=O)N(Cc2ccc(F)cc2)Cc2ccc(O[C@H]3COC[C@@H]3O)cc2)cc1)Nc1ccccc1Cl

>  <Energy>  (61) 
88.71327203838197

>  <Genealogy>  (61) 
O=C([N-]Cc1ccc(S(=O)(=O)N(Cc2ccc(F)cc2)Cc2ccc(OC3COCC3O)cc2)cc1)Nc1ccccc1Cl (protonated)
O=C([N-]Cc1ccc(S(=O)(=O)N(Cc2ccc(F)cc2)Cc2ccc(O[C@H]3COC[C@@H]3O)cc2)cc1)Nc1ccccc1Cl (chirality)
O=C([N-]Cc1ccc(S(=O)(=O)N(Cc2ccc(F)cc2)Cc2ccc(O[C@H]3COC[C@@H]3O)cc2)cc1)Nc1ccccc1Cl (3D coordinates assigned)
O=C([N-]Cc1ccc(S(=O)(=O)N(Cc2ccc(F)cc2)Cc2ccc(O[C@H]3COC[C@@H]3O)cc2)cc1)Nc1ccccc1Cl (nonaromatic ring conformer: 88.71327203838197 kcal/mol)

>  <smiles>  (61) 
O=C(NCc1ccc(S(=O)(=O)N(Cc2ccc(F)cc2)Cc2ccc(OC3COCC3O)cc2)cc1)Nc1ccccc1Cl

>  <score_type>  (61) 
oracle

>  <origin>  (61) 
adg

>  <m_score__min__energy>  (61) 
-12.44

>  <m_primary>  (61) 
energy

$$$$
61:0
     RDKit          3D

 52 54  0  0  0  0  0  0  0  0999 V2000
   64.8719   34.1756   49.2087 H   0  0  0  0  0  0  0  0  0  0  0  0
   64.1330   33.4340   48.8710 C   0  0  0  0  0  0  0  0  0  0  0  0
   63.5910   33.5220   47.5860 C   0  0  0  0  0  0  0  0  0  0  0  0
   63.8996   34.3373   46.9151 H   0  0  0  0  0  0  0  0  0  0  0  0
   62.6580   32.5770   47.1510 C   0  0  0  0  0  0  0  0  0  0  0  0
   62.2273   32.6566   46.1420 H   0  0  0  0  0  0  0  0  0  0  0  0
   62.2680   31.5260   47.9970 C   0  0  0  0  0  0  0  0  0  0  0  0
   61.2650   30.5300   47.5600 C   0  0  0  0  0  0  0  0  0  0  0  0
   61.0690   30.1690   46.2410 C   0  0  0  0  0  0  0  0  0  0  0  0
   61.6267   30.5394   45.3683 H   0  0  0  0  0  0  0  0  0  0  0  0
   60.0370   29.2530   46.2320 C   0  0  0  0  0  0  0  0  0  0  0  0
   59.5010   28.5900   45.0270 C   0  0  0  0  0  0  0  0  0  0  0  0
   60.2950   28.2140   44.1210 O   0  0  0  0  0  0  0  0  0  0  0  0
   58.1240   28.3820   44.8900 O   0  0  0  0  0  0  0  0  0  0  0  0
   57.3330   28.9880   43.8700 C   0  0  0  0  0  0  0  0  0  0  0  0
   56.7945   28.2044   43.3168 H   0  0  0  0  0  0  0  0  0  0  0  0
   57.9957   29.5457   43.1920 H   0  0  0  0  0  0  0  0  0  0  0  0
   56.3220   29.9580   44.4780 C   0  0  0  0  0  0  0  0  0  0  0  0
   55.6667   29.4173   45.1768 H   0  0  0  0  0  0  0  0  0  0  0  0
   55.7101   30.4045   43.6803 H   0  0  0  0  0  0  0  0  0  0  0  0
   57.0160   30.9730   45.1700 O   0  0  0  0  0  0  0  0  0  0  0  0
   57.7750   31.7290   44.2520 C   0  0  0  0  0  0  0  0  0  0  0  0
   58.4504   32.4017   44.8009 H   0  0  0  0  0  0  0  0  0  0  0  0
   58.3670   31.0510   43.6197 H   0  0  0  0  0  0  0  0  0  0  0  0
   57.0994   32.3237   43.6197 H   0  0  0  0  0  0  0  0  0  0  0  0
   59.6240   29.1010   47.5500 C   0  0  0  0  0  0  0  0  0  0  0  0
   58.4920   28.2200   48.0070 C   0  0  0  0  0  0  0  0  0  0  0  0
   58.4647   28.1988   49.1065 H   0  0  0  0  0  0  0  0  0  0  0  0
   57.5404   28.6175   47.6242 H   0  0  0  0  0  0  0  0  0  0  0  0
   58.6437   27.2000   47.6242 H   0  0  0  0  0  0  0  0  0  0  0  0
   60.3820   29.8820   48.3620 N   0  0  0  0  0  0  0  0  0  0  0  0
   60.2090   30.0590   49.8120 C   0  0  0  0  0  0  0  0  0  0  0  0
   60.4395   29.1116   50.3213 H   0  0  0  0  0  0  0  0  0  0  0  0
   60.8894   30.8525   50.1546 H   0  0  0  0  0  0  0  0  0  0  0  0
   58.7950   30.4620   50.1350 C   0  0  0  0  0  0  0  0  0  0  0  0
   58.0920   29.7190   50.8680 O   0  0  0  0  0  0  0  0  0  0  0  0
   58.1860   31.6160   49.5360 N   0  0  0  0  0  0  0  0  0  0  0  0
   58.7460   32.5180   48.7750 C   0  0  0  0  0  0  0  0  0  0  0  0
   59.5960   33.5210   49.2900 C   0  0  0  0  0  0  0  0  0  0  0  0
   59.8154   33.5611   50.3672 H   0  0  0  0  0  0  0  0  0  0  0  0
   60.1560   34.4610   48.4240 C   0  0  0  0  0  0  0  0  0  0  0  0
   60.8274   35.2392   48.8159 H   0  0  0  0  0  0  0  0  0  0  0  0
   59.8640   34.4130   47.0620 C   0  0  0  0  0  0  0  0  0  0  0  0
   60.3073   35.1456   46.3716 H   0  0  0  0  0  0  0  0  0  0  0  0
   59.0030   33.4250   46.5850 C   0  0  0  0  0  0  0  0  0  0  0  0
   58.7599   33.3816   45.5131 H   0  0  0  0  0  0  0  0  0  0  0  0
   58.4620   32.5140   47.4400 N   0  0  0  0  0  0  0  0  0  0  0  0
   57.8210   31.7870   47.0490 H   0  0  0  0  0  0  0  0  0  0  0  0
   62.8020   31.4550   49.2950 C   0  0  0  0  0  0  0  0  0  0  0  0
   62.4847   30.6505   49.9748 H   0  0  0  0  0  0  0  0  0  0  0  0
   63.7360   32.4040   49.7260 C   0  0  0  0  0  0  0  0  0  0  0  0
   64.1579   32.3383   50.7397 H   0  0  0  0  0  0  0  0  0  0  0  0
  1  2  1  0
  2  3  2  0
  3  4  1  0
  3  5  1  0
  5  6  1  0
  5  7  2  0
  7  8  1  0
  8  9  2  0
  9 10  1  0
  9 11  1  0
 11 12  1  0
 12 13  2  0
 12 14  1  0
 14 15  1  0
 15 16  1  0
 15 17  1  0
 15 18  1  0
 18 19  1  0
 18 20  1  0
 18 21  1  0
 21 22  1  0
 22 23  1  0
 22 24  1  0
 22 25  1  0
 11 26  2  0
 26 27  1  0
 27 28  1  0
 27 29  1  0
 27 30  1  0
 26 31  1  0
 31 32  1  0
 32 33  1  0
 32 34  1  0
 32 35  1  0
 35 36  2  0
 35 37  1  0
 37 38  2  0
 38 39  1  0
 39 40  1  0
 39 41  2  0
 41 42  1  0
 41 43  1  0
 43 44  1  0
 43 45  2  0
 45 46  1  0
 45 47  1  0
 47 48  1  0
  7 49  1  0
 49 50  1  0
 49 51  2  0
 51 52  1  0
 51  2  1  0
 31  8  1  0
 47 38  1  0
M  END
>  <UniqueID>  (62) 
56

>  <SMILES>  (62) 
COCCOC(=O)c1cc(-c2ccccc2)n(CC(=O)/N=c2\cccc[nH]2)c1C

>  <Energy>  (62) 
91.8475054136415

>  <Genealogy>  (62) 
COCCOC(=O)c1cc(-c2ccccc2)n(CC(=O)/N=c2\cccc[nH]2)c1C (cis-trans isomerization)
COCCOC(=O)c1cc(-c2ccccc2)n(CC(=O)/N=c2\cccc[nH]2)c1C (3D coordinates assigned)
COCCOC(=O)c1cc(-c2ccccc2)n(CC(=O)/N=c2\cccc[nH]2)c1C (optimized conformer: 91.8475054136415 kcal/mol)

>  <smiles>  (62) 
COCCOC(=O)c1cc(-c2ccccc2)n(CC(=O)N=c2cccc[nH]2)c1C

>  <score_type>  (62) 
oracle

>  <origin>  (62) 
adg

>  <m_score__min__energy>  (62) 
-8.3200000000000003

>  <m_primary>  (62) 
energy

$$$$
62:0
     RDKit          3D

 50 52  0  0  0  0  0  0  0  0999 V2000
   57.1710   29.4090   53.0270 C   0  0  0  0  0  0  0  0  0  0  0  0
   56.9950   29.9210   51.7240 O   0  0  0  0  0  0  0  0  0  0  0  0
   56.4570   31.2280   51.7790 C   0  0  0  0  0  0  0  0  0  0  0  0
   57.5540   32.2470   51.7810 C   0  0  0  0  0  0  0  0  0  0  0  0
   58.8260   32.0840   51.2810 C   0  0  0  0  0  0  0  0  0  0  0  0
   59.4890   33.2100   51.5890 N   0  0  0  0  0  0  0  0  0  0  0  0
   60.9060   33.4760   51.3550 C   0  0  0  0  0  0  0  0  0  0  0  0
   61.1360   33.9500   49.9100 C   0  0  2  0  0  0  0  0  0  0  0  0
   60.8940   32.8100   48.8720 C   0  0  0  0  0  0  0  0  0  0  0  0
   61.7130   32.9770   47.6550 N   0  0  0  0  0  0  0  0  0  0  0  0
   61.0830   33.7490   46.5590 C   0  0  0  0  0  0  0  0  0  0  0  0
   59.8040   33.1330   46.0390 C   0  0  0  0  0  0  0  0  0  0  0  0
   58.8310   33.9240   45.4050 C   0  0  0  0  0  0  0  0  0  0  0  0
   57.6260   33.3550   44.9820 C   0  0  0  0  0  0  0  0  0  0  0  0
   57.3720   31.9950   45.1940 C   0  0  0  0  0  0  0  0  0  0  0  0
   56.1180   31.4470   44.7720 N   0  0  0  0  0  0  0  0  0  0  0  0
   55.9230   30.1230   44.2550 C   0  0  0  0  0  0  0  0  0  0  0  0
   56.6340   29.6410   43.0260 C   0  0  0  0  0  0  0  0  0  0  0  0
   55.1560   29.3350   44.8670 O   0  0  0  0  0  0  0  0  0  0  0  0
   58.3700   31.1870   45.7660 C   0  0  0  0  0  0  0  0  0  0  0  0
   58.1990   29.8460   45.8680 F   0  0  0  0  0  0  0  0  0  0  0  0
   59.5710   31.7560   46.1950 C   0  0  0  0  0  0  0  0  0  0  0  0
   63.1390   33.2850   47.9080 C   0  0  0  0  0  0  0  0  0  0  0  0
   63.3980   33.6820   49.3660 C   0  0  0  0  0  0  0  0  0  0  0  0
   62.4040   34.5820   49.8020 O   0  0  0  0  0  0  0  0  0  0  0  0
   58.6740   34.0120   52.2570 N   0  0  0  0  0  0  0  0  0  0  0  0
   57.4820   33.4480   52.3900 N   0  0  0  0  0  0  0  0  0  0  0  0
   56.9054   30.1816   53.7635 H   0  0  0  0  0  0  0  0  0  0  0  0
   56.5230   28.5311   53.1666 H   0  0  0  0  0  0  0  0  0  0  0  0
   58.2218   29.1151   53.1666 H   0  0  0  0  0  0  0  0  0  0  0  0
   55.8127   31.3914   50.9025 H   0  0  0  0  0  0  0  0  0  0  0  0
   55.8720   31.3332   52.7046 H   0  0  0  0  0  0  0  0  0  0  0  0
   59.2187   31.2104   50.7401 H   0  0  0  0  0  0  0  0  0  0  0  0
   61.2469   34.2572   52.0504 H   0  0  0  0  0  0  0  0  0  0  0  0
   61.4730   32.5476   51.5183 H   0  0  0  0  0  0  0  0  0  0  0  0
   60.3831   34.7107   49.6559 H   0  0  0  0  0  0  0  0  0  0  0  0
   61.1469   31.8468   49.3391 H   0  0  0  0  0  0  0  0  0  0  0  0
   59.8360   32.8461   48.5731 H   0  0  0  0  0  0  0  0  0  0  0  0
   60.8557   34.7587   46.9315 H   0  0  0  0  0  0  0  0  0  0  0  0
   61.7972   33.7612   45.7225 H   0  0  0  0  0  0  0  0  0  0  0  0
   59.0181   34.9955   45.2408 H   0  0  0  0  0  0  0  0  0  0  0  0
   56.8730   33.9799   44.4795 H   0  0  0  0  0  0  0  0  0  0  0  0
   57.5115   29.0461   43.3196 H   0  0  0  0  0  0  0  0  0  0  0  0
   55.9521   29.0182   42.4284 H   0  0  0  0  0  0  0  0  0  0  0  0
   56.9600   30.5050   42.4284 H   0  0  0  0  0  0  0  0  0  0  0  0
   60.3406   31.1214   46.6586 H   0  0  0  0  0  0  0  0  0  0  0  0
   63.7406   32.3950   47.6714 H   0  0  0  0  0  0  0  0  0  0  0  0
   63.4172   34.1383   47.2721 H   0  0  0  0  0  0  0  0  0  0  0  0
   63.3779   32.7820   49.9982 H   0  0  0  0  0  0  0  0  0  0  0  0
   64.3828   34.1664   49.4400 H   0  0  0  0  0  0  0  0  0  0  0  0
  1  2  1  0
  2  3  1  0
  3  4  1  0
  4  5  2  0
  5  6  1  0
  6  7  1  0
  7  8  1  0
  8  9  1  0
  9 10  1  0
 10 11  1  0
 11 12  1  0
 12 13  2  0
 13 14  1  0
 14 15  2  0
 15 16  1  0
 16 17  1  0
 17 18  1  0
 17 19  2  0
 15 20  1  0
 20 21  1  0
 20 22  2  0
 10 23  1  0
 23 24  1  0
 24 25  1  0
  6 26  1  0
 26 27  2  0
 27  4  1  0
 25  8  1  0
 22 12  1  0
  1 28  1  0
  1 29  1  0
  1 30  1  0
  3 31  1  0
  3 32  1  0
  5 33  1  0
  7 34  1  0
  7 35  1  0
  8 36  1  6
  9 37  1  0
  9 38  1  0
 11 39  1  0
 11 40  1  0
 13 41  1  0
 14 42  1  0
 18 43  1  0
 18 44  1  0
 18 45  1  0
 22 46  1  0
 23 47  1  0
 23 48  1  0
 24 49  1  0
 24 50  1  0
M  CHG  1  16  -1
M  END
>  <UniqueID>  (63) 
57

>  <SMILES>  (63) 
COCc1cn(C[C@@H]2CN(Cc3ccc([N-]C(C)=O)c(F)c3)CCO2)nn1

>  <Energy>  (63) 
102.45275891990786

>  <Genealogy>  (63) 
COCc1cn(CC2CN(Cc3ccc([N-]C(C)=O)c(F)c3)CCO2)nn1 (protonated)
COCc1cn(C[C@@H]2CN(Cc3ccc([N-]C(C)=O)c(F)c3)CCO2)nn1 (chirality)
COCc1cn(C[C@@H]2CN(Cc3ccc([N-]C(C)=O)c(F)c3)CCO2)nn1 (3D coordinates assigned)
COCc1cn(C[C@@H]2CN(Cc3ccc([N-]C(C)=O)c(F)c3)CCO2)nn1 (nonaromatic ring conformer: 102.45275891990786 kcal/mol)

>  <smiles>  (63) 
COCc1cn(CC2CN(Cc3ccc(NC(C)=O)c(F)c3)CCO2)nn1

>  <score_type>  (63) 
oracle

>  <origin>  (63) 
adg

>  <m_score__min__energy>  (63) 
-10.51

>  <m_primary>  (63) 
energy

$$$$
63:0
     RDKit          3D

 44 45  0  0  0  0  0  0  0  0999 V2000
   58.5170   22.9360   45.4010 C   0  0  0  0  0  0  0  0  0  0  0  0
   58.2920   23.9480   46.3760 O   0  0  0  0  0  0  0  0  0  0  0  0
   58.2740   25.3270   46.1070 C   0  0  0  0  0  0  0  0  0  0  0  0
   59.4350   26.1190   46.1830 C   0  0  0  0  0  0  0  0  0  0  0  0
   59.3830   27.5000   45.9090 C   0  0  0  0  0  0  0  0  0  0  0  0
   60.5270   28.3130   45.9780 O   0  0  0  0  0  0  0  0  0  0  0  0
   61.1400   28.9470   44.8600 C   0  0  0  0  0  0  0  0  0  0  0  0
   58.1540   28.0930   45.5670 C   0  0  0  0  0  0  0  0  0  0  0  0
   58.1000   29.4980   45.2610 N   0  0  0  0  0  0  0  0  0  0  0  0
   56.9080   30.1840   44.8570 C   0  0  0  0  0  0  0  0  0  0  0  0
   55.7830   29.6150   44.9250 O   0  0  0  0  0  0  0  0  0  0  0  0
   56.9970   31.5400   44.4120 N   0  0  0  0  0  0  0  0  0  0  0  0
   56.9810   32.6740   45.3250 C   0  0  0  0  0  0  0  0  0  0  0  0
   58.3650   32.9020   45.8610 C   0  0  0  0  0  0  0  0  0  0  0  0
   59.1020   34.0260   45.4610 C   0  0  0  0  0  0  0  0  0  0  0  0
   60.4050   34.2190   45.9310 C   0  0  0  0  0  0  0  0  0  0  0  0
   60.9860   33.2880   46.8030 C   0  0  0  0  0  0  0  0  0  0  0  0
   62.6320   33.5230   47.3780 S   0  0  0  0  0  0  0  0  0  0  0  0
   63.3920   31.9390   47.6560 C   0  0  0  0  0  0  0  0  0  0  0  0
   62.6170   34.3050   48.6620 O   0  0  0  0  0  0  0  0  0  0  0  0
   63.4240   34.2880   46.3560 O   0  0  0  0  0  0  0  0  0  0  0  0
   60.2600   32.1520   47.1860 C   0  0  0  0  0  0  0  0  0  0  0  0
   58.9570   31.9580   46.7150 C   0  0  0  0  0  0  0  0  0  0  0  0
   57.0020   27.2950   45.4740 C   0  0  0  0  0  0  0  0  0  0  0  0
   57.0610   25.9260   45.7480 C   0  0  0  0  0  0  0  0  0  0  0  0
   55.5950   24.9640   45.6230 Cl  0  0  0  0  0  0  0  0  0  0  0  0
   58.7292   21.9817   45.9053 H   0  0  0  0  0  0  0  0  0  0  0  0
   57.6211   22.8271   44.7721 H   0  0  0  0  0  0  0  0  0  0  0  0
   59.3746   23.2170   44.7721 H   0  0  0  0  0  0  0  0  0  0  0  0
   60.3932   25.6548   46.4593 H   0  0  0  0  0  0  0  0  0  0  0  0
   61.8638   29.6956   45.2144 H   0  0  0  0  0  0  0  0  0  0  0  0
   61.6605   28.1933   44.2510 H   0  0  0  0  0  0  0  0  0  0  0  0
   60.3692   29.4419   44.2510 H   0  0  0  0  0  0  0  0  0  0  0  0
   58.9580   30.0760   45.4100 H   0  0  0  0  0  0  0  0  0  0  0  0
   56.6426   33.5726   44.7883 H   0  0  0  0  0  0  0  0  0  0  0  0
   56.2939   32.4653   46.1583 H   0  0  0  0  0  0  0  0  0  0  0  0
   58.6533   34.7591   44.7745 H   0  0  0  0  0  0  0  0  0  0  0  0
   60.9759   35.1046   45.6152 H   0  0  0  0  0  0  0  0  0  0  0  0
   63.4785   31.7586   48.7377 H   0  0  0  0  0  0  0  0  0  0  0  0
   62.7740   31.1509   47.2011 H   0  0  0  0  0  0  0  0  0  0  0  0
   64.3935   31.9279   47.2011 H   0  0  0  0  0  0  0  0  0  0  0  0
   60.7160   31.4108   47.8589 H   0  0  0  0  0  0  0  0  0  0  0  0
   58.3939   31.0620   47.0151 H   0  0  0  0  0  0  0  0  0  0  0  0
   56.0446   27.7518   45.1828 H   0  0  0  0  0  0  0  0  0  0  0  0
  1  2  1  0
  2  3  1  0
  3  4  2  0
  4  5  1  0
  5  6  1  0
  6  7  1  0
  5  8  2  0
  8  9  1  0
  9 10  1  0
 10 11  2  0
 10 12  1  0
 12 13  1  0
 13 14  1  0
 14 15  2  0
 15 16  1  0
 16 17  2  0
 17 18  1  0
 18 19  1  0
 18 20  2  0
 18 21  2  0
 17 22  1  0
 22 23  2  0
  8 24  1  0
 24 25  2  0
 25 26  1  0
 25  3  1  0
 23 14  1  0
  1 27  1  0
  1 28  1  0
  1 29  1  0
  4 30  1  0
  7 31  1  0
  7 32  1  0
  7 33  1  0
  9 34  1  0
 13 35  1  0
 13 36  1  0
 15 37  1  0
 16 38  1  0
 19 39  1  0
 19 40  1  0
 19 41  1  0
 22 42  1  0
 23 43  1  0
 24 44  1  0
M  CHG  1  12  -1
M  END
>  <UniqueID>  (64) 
58

>  <SMILES>  (64) 
COc1cc(OC)c(NC(=O)[N-]Cc2ccc(S(C)(=O)=O)cc2)cc1Cl

>  <Energy>  (64) 
41.37954429535033

>  <Genealogy>  (64) 
COc1cc(OC)c(NC(=O)[N-]Cc2ccc(S(C)(=O)=O)cc2)cc1Cl (protonated)
COc1cc(OC)c(NC(=O)[N-]Cc2ccc(S(C)(=O)=O)cc2)cc1Cl (3D coordinates assigned)
COc1cc(OC)c(NC(=O)[N-]Cc2ccc(S(C)(=O)=O)cc2)cc1Cl (optimized conformer: 41.37954429535033 kcal/mol)

>  <smiles>  (64) 
COc1cc(OC)c(NC(=O)NCc2ccc(S(C)(=O)=O)cc2)cc1Cl

>  <score_type>  (64) 
oracle

>  <origin>  (64) 
adg

>  <m_score__min__energy>  (64) 
-9.4100000000000001

>  <m_primary>  (64) 
energy

$$$$
64:0
     RDKit          3D

 56 60  0  0  0  0  0  0  0  0999 V2000
   58.9720   25.2240   46.0730 C   0  0  0  0  0  0  0  0  0  0  0  0
   57.9240   25.8870   45.1870 C   0  0  0  0  0  0  0  0  0  0  0  0
   56.9240   26.6230   46.0190 C   0  0  0  0  0  0  0  0  0  0  0  0
   55.8560   26.0480   46.3680 O   0  0  0  0  0  0  0  0  0  0  0  0
   57.1610   27.9610   46.3550 O   0  0  0  0  0  0  0  0  0  0  0  0
   58.4670   28.5110   46.5400 C   0  0  2  0  0  0  0  0  0  0  0  0
   58.7290   28.6520   48.0370 C   0  0  0  0  0  0  0  0  0  0  0  0
   60.0310   29.4260   48.2880 C   0  0  2  0  0  0  0  0  0  0  0  0
   60.3680   29.3190   49.7670 C   0  0  0  0  0  0  0  0  0  0  0  0
   60.7470   28.2580   50.2410 O   0  0  0  0  0  0  0  0  0  0  0  0
   60.3370   30.5410   50.6480 C   0  0  0  0  0  0  0  0  0  0  0  0
   58.9680   30.8530   51.0470 N   0  0  0  0  0  0  0  0  0  0  0  0
   58.1700   30.1190   51.8480 C   0  0  0  0  0  0  0  0  0  0  0  0
   56.9780   30.7950   51.9990 C   0  0  0  0  0  0  0  0  0  0  0  0
   57.0390   31.9400   51.2940 N   0  0  0  0  0  0  0  0  0  0  0  0
   58.2590   31.9530   50.7250 C   0  0  0  0  0  0  0  0  0  0  0  0
   59.8870   30.9040   47.7930 C   0  0  1  0  0  0  0  0  0  0  0  0
   61.2060   31.6500   47.5590 C   0  0  0  0  0  0  0  0  0  0  0  0
   62.4240   31.2460   48.1420 C   0  0  0  0  0  0  0  0  0  0  0  0
   63.5930   31.9780   47.9390 C   0  0  0  0  0  0  0  0  0  0  0  0
   63.5710   33.1260   47.1540 C   0  0  0  0  0  0  0  0  0  0  0  0
   62.3770   33.5570   46.5760 C   0  0  0  0  0  0  0  0  0  0  0  0
   61.1800   32.8430   46.7860 C   0  0  0  0  0  0  0  0  0  0  0  0
   59.8950   33.2790   46.1630 C   0  0  0  0  0  0  0  0  0  0  0  0
   59.6730   34.5980   45.7150 C   0  0  0  0  0  0  0  0  0  0  0  0
   58.4530   34.9510   45.1330 C   0  0  0  0  0  0  0  0  0  0  0  0
   57.4360   34.0040   45.0050 C   0  0  0  0  0  0  0  0  0  0  0  0
   57.6330   32.7010   45.4640 C   0  0  0  0  0  0  0  0  0  0  0  0
   58.8610   32.3300   46.0370 C   0  0  0  0  0  0  0  0  0  0  0  0
   59.0690   31.0050   46.5640 N   0  0  0  0  0  0  0  0  0  0  0  0
   58.5720   29.8470   45.8590 C   0  0  0  0  0  0  0  0  0  0  0  0
   58.2710   29.9340   44.6370 O   0  0  0  0  0  0  0  0  0  0  0  0
   58.7146   25.3868   47.1300 H   0  0  0  0  0  0  0  0  0  0  0  0
   58.9987   24.1443   45.8642 H   0  0  0  0  0  0  0  0  0  0  0  0
   59.9591   25.6623   45.8642 H   0  0  0  0  0  0  0  0  0  0  0  0
   58.4204   26.5951   44.5072 H   0  0  0  0  0  0  0  0  0  0  0  0
   57.4026   25.1090   44.6100 H   0  0  0  0  0  0  0  0  0  0  0  0
   59.2194   27.8437   46.0942 H   0  0  0  0  0  0  0  0  0  0  0  0
   57.8915   29.1936   48.5010 H   0  0  0  0  0  0  0  0  0  0  0  0
   58.8234   27.6479   48.4763 H   0  0  0  0  0  0  0  0  0  0  0  0
   60.8660   28.9963   47.7151 H   0  0  0  0  0  0  0  0  0  0  0  0
   60.9417   30.3534   51.5475 H   0  0  0  0  0  0  0  0  0  0  0  0
   60.7452   31.3937   50.0856 H   0  0  0  0  0  0  0  0  0  0  0  0
   58.4253   29.1500   52.3018 H   0  0  0  0  0  0  0  0  0  0  0  0
   56.1194   30.4550   52.5966 H   0  0  0  0  0  0  0  0  0  0  0  0
   56.2970   32.6690   51.2110 H   0  0  0  0  0  0  0  0  0  0  0  0
   58.6309   32.7609   50.0778 H   0  0  0  0  0  0  0  0  0  0  0  0
   59.3817   31.3967   48.6367 H   0  0  0  0  0  0  0  0  0  0  0  0
   62.4526   30.3405   48.7659 H   0  0  0  0  0  0  0  0  0  0  0  0
   64.5349   31.6469   48.4007 H   0  0  0  0  0  0  0  0  0  0  0  0
   64.4975   33.6954   46.9886 H   0  0  0  0  0  0  0  0  0  0  0  0
   62.3695   34.4620   45.9508 H   0  0  0  0  0  0  0  0  0  0  0  0
   60.4653   35.3532   45.8246 H   0  0  0  0  0  0  0  0  0  0  0  0
   58.2935   35.9786   44.7745 H   0  0  0  0  0  0  0  0  0  0  0  0
   56.4785   34.2848   44.5420 H   0  0  0  0  0  0  0  0  0  0  0  0
   56.8235   31.9613   45.3768 H   0  0  0  0  0  0  0  0  0  0  0  0
  1  2  1  0
  2  3  1  0
  3  4  2  0
  3  5  1  0
  5  6  1  0
  6  7  1  0
  7  8  1  0
  8  9  1  0
  9 10  2  0
  9 11  1  0
 11 12  1  0
 12 13  1  0
 13 14  2  0
 14 15  1  0
 15 16  2  0
  8 17  1  0
 17 18  1  0
 18 19  2  0
 19 20  1  0
 20 21  2  0
 21 22  1  0
 22 23  2  0
 23 24  1  0
 24 25  2  0
 25 26  1  0
 26 27  2  0
 27 28  1  0
 28 29  2  0
 29 30  1  0
 30 31  1  0
 31 32  2  0
 31  6  1  0
 16 12  1  0
 30 17  1  0
 23 18  1  0
 29 24  1  0
  1 33  1  0
  1 34  1  0
  1 35  1  0
  2 36  1  0
  2 37  1  0
  6 38  1  6
  7 39  1  0
  7 40  1  0
  8 41  1  6
 11 42  1  0
 11 43  1  0
 13 44  1  0
 14 45  1  0
 15 46  1  0
 16 47  1  0
 17 48  1  1
 19 49  1  0
 20 50  1  0
 21 51  1  0
 22 52  1  0
 25 53  1  0
 26 54  1  0
 27 55  1  0
 28 56  1  0
M  CHG  1  15   1
M  END
>  <UniqueID>  (65) 
59

>  <SMILES>  (65) 
CCC(=O)O[C@@H]1C[C@H](C(=O)Cn2cc[nH+]c2)C2c3ccccc3-c3ccccc3N2C1=O

>  <Energy>  (65) 
101.57688668516683

>  <Genealogy>  (65) 
CCC(=O)OC1CC(C(=O)Cn2cc[nH+]c2)C2c3ccccc3-c3ccccc3N2C1=O (protonated)
CCC(=O)O[C@@H]1C[C@H](C(=O)Cn2cc[nH+]c2)C2c3ccccc3-c3ccccc3N2C1=O (chirality)
CCC(=O)O[C@@H]1C[C@H](C(=O)Cn2cc[nH+]c2)C2c3ccccc3-c3ccccc3N2C1=O (3D coordinates assigned)
CCC(=O)O[C@@H]1C[C@H](C(=O)Cn2cc[nH+]c2)C2c3ccccc3-c3ccccc3N2C1=O (nonaromatic ring conformer: 101.57688668516683 kcal/mol)

>  <smiles>  (65) 
CCC(=O)OC1CC(C(=O)Cn2ccnc2)C2c3ccccc3-c3ccccc3N2C1=O

>  <score_type>  (65) 
oracle

>  <origin>  (65) 
adg

>  <m_score__min__energy>  (65) 
-8.2200000000000006

>  <m_primary>  (65) 
energy

$$$$
65:0
     RDKit          3D

 47 49  0  0  0  0  0  0  0  0999 V2000
   59.1730   28.1550   48.3650 O   0  0  0  0  0  0  0  0  0  0  0  0
   58.4460   28.4500   47.3800 C   0  0  0  0  0  0  0  0  0  0  0  0
   57.6400   27.4490   46.7460 N   0  0  0  0  0  0  0  0  0  0  0  0
   58.0590   26.1240   46.3840 C   0  0  0  0  0  0  0  0  0  0  0  0
   59.4290   25.8100   46.3030 C   0  0  0  0  0  0  0  0  0  0  0  0
   59.8440   24.5370   45.9110 C   0  0  0  0  0  0  0  0  0  0  0  0
   58.9020   23.5680   45.5810 C   0  0  0  0  0  0  0  0  0  0  0  0
   57.5400   23.8680   45.6300 C   0  0  0  0  0  0  0  0  0  0  0  0
   57.0970   25.1460   46.0250 C   0  0  0  0  0  0  0  0  0  0  0  0
   55.6360   25.4190   46.0670 C   0  0  0  0  0  0  0  0  0  0  0  0
   54.8140   24.4710   46.1740 O   0  0  0  0  0  0  0  0  0  0  0  0
   55.1440   26.7180   46.0120 O   0  0  0  0  0  0  0  0  0  0  0  0
   58.3740   29.8020   46.9150 N   0  0  0  0  0  0  0  0  0  0  0  0
   59.1480   30.8890   47.5100 C   0  0  0  0  0  0  0  0  0  0  0  0
   58.9600   32.1740   46.7330 C   0  0  0  0  0  0  0  0  0  0  0  0
   58.0960   32.1690   45.6220 C   0  0  0  0  0  0  0  0  0  0  0  0
   57.8750   33.3320   44.8840 C   0  0  0  0  0  0  0  0  0  0  0  0
   58.5060   34.5200   45.2450 C   0  0  0  0  0  0  0  0  0  0  0  0
   59.3630   34.5480   46.3440 C   0  0  0  0  0  0  0  0  0  0  0  0
   59.6050   33.3860   47.1000 C   0  0  0  0  0  0  0  0  0  0  0  0
   60.5570   33.4680   48.2740 C   0  0  0  0  0  0  0  0  0  0  0  0
   61.8000   34.1750   47.8910 N   0  0  0  0  0  0  0  0  0  0  0  0
   62.4140   33.5590   46.7070 C   0  0  0  0  0  0  0  0  0  0  0  0
   63.3810   32.4920   47.1900 C   0  0  0  0  0  0  0  0  0  0  0  0
   63.7140   32.8760   48.6190 C   0  0  0  0  0  0  0  0  0  0  0  0
   62.8260   34.0720   48.9400 C   0  0  0  0  0  0  0  0  0  0  0  0
   60.1791   26.5754   46.5511 H   0  0  0  0  0  0  0  0  0  0  0  0
   60.9169   24.2993   45.8628 H   0  0  0  0  0  0  0  0  0  0  0  0
   59.2317   22.5625   45.2806 H   0  0  0  0  0  0  0  0  0  0  0  0
   56.8036   23.0978   45.3571 H   0  0  0  0  0  0  0  0  0  0  0  0
   57.6990   30.0300   46.1490 H   0  0  0  0  0  0  0  0  0  0  0  0
   58.8145   31.0430   48.5469 H   0  0  0  0  0  0  0  0  0  0  0  0
   60.2134   30.6162   47.4856 H   0  0  0  0  0  0  0  0  0  0  0  0
   57.5889   31.2369   45.3321 H   0  0  0  0  0  0  0  0  0  0  0  0
   57.2009   33.3107   44.0150 H   0  0  0  0  0  0  0  0  0  0  0  0
   58.3281   35.4362   44.6628 H   0  0  0  0  0  0  0  0  0  0  0  0
   59.8564   35.4904   46.6239 H   0  0  0  0  0  0  0  0  0  0  0  0
   60.0703   34.0130   49.0963 H   0  0  0  0  0  0  0  0  0  0  0  0
   60.8145   32.4471   48.5926 H   0  0  0  0  0  0  0  0  0  0  0  0
   61.6367   33.1024   46.0767 H   0  0  0  0  0  0  0  0  0  0  0  0
   62.9430   34.3162   46.1096 H   0  0  0  0  0  0  0  0  0  0  0  0
   62.9081   31.4994   47.1573 H   0  0  0  0  0  0  0  0  0  0  0  0
   64.2802   32.4354   46.5589 H   0  0  0  0  0  0  0  0  0  0  0  0
   63.4956   32.0415   49.3016 H   0  0  0  0  0  0  0  0  0  0  0  0
   64.7806   33.1178   48.7373 H   0  0  0  0  0  0  0  0  0  0  0  0
   62.3452   33.9272   49.9187 H   0  0  0  0  0  0  0  0  0  0  0  0
   63.4264   34.9929   48.9771 H   0  0  0  0  0  0  0  0  0  0  0  0
  1  2  2  0
  2  3  1  0
  3  4  1  0
  4  5  2  0
  5  6  1  0
  6  7  2  0
  7  8  1  0
  8  9  2  0
  9 10  1  0
 10 11  2  0
 10 12  1  0
  2 13  1  0
 13 14  1  0
 14 15  1  0
 15 16  2  0
 16 17  1  0
 17 18  2  0
 18 19  1  0
 19 20  2  0
 20 21  1  0
 21 22  1  0
 22 23  1  0
 23 24  1  0
 24 25  1  0
 25 26  1  0
  9  4  1  0
 20 15  1  0
 26 22  1  0
  5 27  1  0
  6 28  1  0
  7 29  1  0
  8 30  1  0
 13 31  1  0
 14 32  1  0
 14 33  1  0
 16 34  1  0
 17 35  1  0
 18 36  1  0
 19 37  1  0
 21 38  1  0
 21 39  1  0
 23 40  1  0
 23 41  1  0
 24 42  1  0
 24 43  1  0
 25 44  1  0
 25 45  1  0
 26 46  1  0
 26 47  1  0
M  CHG  2   3  -1  12  -1
M  END
>  <UniqueID>  (66) 
60

>  <SMILES>  (66) 
O=C([N-]c1ccccc1C(=O)[O-])NCc1ccccc1CN1CCCC1

>  <Energy>  (66) 
56.37894142048733

>  <Genealogy>  (66) 
O=C([N-]c1ccccc1C(=O)[O-])NCc1ccccc1CN1CCCC1 (protonated)
O=C([N-]c1ccccc1C(=O)[O-])NCc1ccccc1CN1CCCC1 (3D coordinates assigned)
O=C([N-]c1ccccc1C(=O)[O-])NCc1ccccc1CN1CCCC1 (nonaromatic ring conformer: 56.37894142048733 kcal/mol)

>  <smiles>  (66) 
O=C(NCc1ccccc1CN1CCCC1)Nc1ccccc1C(=O)O

>  <score_type>  (66) 
oracle

>  <origin>  (66) 
adg

>  <m_score__min__energy>  (66) 
-13.029999999999999

>  <m_primary>  (66) 
energy

$$$$
66:0
     RDKit          3D

 37 39  0  0  0  0  0  0  0  0999 V2000
   55.1420   29.3640   44.8600 O   0  0  0  0  0  0  0  0  0  0  0  0
   56.3370   29.7560   44.7840 C   0  0  0  0  0  0  0  0  0  0  0  0
   56.6220   31.1300   44.4760 N   0  0  0  0  0  0  0  0  0  0  0  0
   57.4830   32.0100   45.2130 C   0  0  0  0  0  0  0  0  0  0  0  0
   57.9120   33.2440   44.6920 C   0  0  0  0  0  0  0  0  0  0  0  0
   58.7710   34.0620   45.4330 C   0  0  0  0  0  0  0  0  0  0  0  0
   59.2110   33.6610   46.7070 C   0  0  0  0  0  0  0  0  0  0  0  0
   60.1160   34.4730   47.4740 N   0  0  0  0  0  0  0  0  0  0  0  0
   61.4590   34.0900   47.8180 C   0  0  0  0  0  0  0  0  0  0  0  0
   61.9350   34.1960   49.1390 C   0  0  0  0  0  0  0  0  0  0  0  0
   63.2360   33.7900   49.4540 C   0  0  0  0  0  0  0  0  0  0  0  0
   64.0660   33.2650   48.4610 C   0  0  0  0  0  0  0  0  0  0  0  0
   63.5930   33.1340   47.1530 C   0  0  0  0  0  0  0  0  0  0  0  0
   62.2930   33.5380   46.8330 C   0  0  0  0  0  0  0  0  0  0  0  0
   58.8200   32.4090   47.2020 C   0  0  0  0  0  0  0  0  0  0  0  0
   57.9620   31.5910   46.4590 C   0  0  0  0  0  0  0  0  0  0  0  0
   57.4520   28.8150   45.0640 C   0  0  0  0  0  0  0  0  0  0  0  0
   58.7760   29.1760   44.7410 C   0  0  0  0  0  0  0  0  0  0  0  0
   59.8350   28.3000   44.9990 C   0  0  0  0  0  0  0  0  0  0  0  0
   59.5900   27.0560   45.5800 C   0  0  0  0  0  0  0  0  0  0  0  0
   58.2860   26.6830   45.9050 C   0  0  0  0  0  0  0  0  0  0  0  0
   57.2190   27.5520   45.6520 C   0  0  0  0  0  0  0  0  0  0  0  0
   55.9640   27.1500   45.9810 F   0  0  0  0  0  0  0  0  0  0  0  0
   57.5705   33.5671   43.6975 H   0  0  0  0  0  0  0  0  0  0  0  0
   59.1042   35.0242   45.0170 H   0  0  0  0  0  0  0  0  0  0  0  0
   59.7750   35.4040   47.8040 H   0  0  0  0  0  0  0  0  0  0  0  0
   61.2813   34.5996   49.9262 H   0  0  0  0  0  0  0  0  0  0  0  0
   63.6060   33.8844   50.4856 H   0  0  0  0  0  0  0  0  0  0  0  0
   65.0919   32.9547   48.7087 H   0  0  0  0  0  0  0  0  0  0  0  0
   64.2444   32.7123   46.3734 H   0  0  0  0  0  0  0  0  0  0  0  0
   61.9220   33.4226   45.8039 H   0  0  0  0  0  0  0  0  0  0  0  0
   59.1899   32.0678   48.1801 H   0  0  0  0  0  0  0  0  0  0  0  0
   57.6616   30.6107   46.8576 H   0  0  0  0  0  0  0  0  0  0  0  0
   58.9777   30.1551   44.2821 H   0  0  0  0  0  0  0  0  0  0  0  0
   60.8639   28.5928   44.7430 H   0  0  0  0  0  0  0  0  0  0  0  0
   60.4251   26.3691   45.7819 H   0  0  0  0  0  0  0  0  0  0  0  0
   58.0955   25.7009   46.3624 H   0  0  0  0  0  0  0  0  0  0  0  0
  1  2  2  0
  2  3  1  0
  3  4  1  0
  4  5  2  0
  5  6  1  0
  6  7  2  0
  7  8  1  0
  8  9  1  0
  9 10  2  0
 10 11  1  0
 11 12  2  0
 12 13  1  0
 13 14  2  0
  7 15  1  0
 15 16  2  0
  2 17  1  0
 17 18  2  0
 18 19  1  0
 19 20  2  0
 20 21  1  0
 21 22  2  0
 22 23  1  0
 16  4  1  0
 22 17  1  0
 14  9  1  0
  5 24  1  0
  6 25  1  0
  8 26  1  0
 10 27  1  0
 11 28  1  0
 12 29  1  0
 13 30  1  0
 14 31  1  0
 15 32  1  0
 16 33  1  0
 18 34  1  0
 19 35  1  0
 20 36  1  0
 21 37  1  0
M  CHG  1   3  -1
M  END
>  <UniqueID>  (67) 
61

>  <SMILES>  (67) 
O=C([N-]c1ccc(Nc2ccccc2)cc1)c1ccccc1F

>  <Energy>  (67) 
50.80628767617375

>  <Genealogy>  (67) 
O=C([N-]c1ccc(Nc2ccccc2)cc1)c1ccccc1F (protonated)
O=C([N-]c1ccc(Nc2ccccc2)cc1)c1ccccc1F (3D coordinates assigned)
O=C([N-]c1ccc(Nc2ccccc2)cc1)c1ccccc1F (optimized conformer: 50.80628767617375 kcal/mol)

>  <smiles>  (67) 
O=C(Nc1ccc(Nc2ccccc2)cc1)c1ccccc1F

>  <score_type>  (67) 
oracle

>  <origin>  (67) 
adg

>  <m_score__min__energy>  (67) 
-10.15

>  <m_primary>  (67) 
energy

$$$$
67:0
     RDKit          3D

 31 32  0  0  0  0  0  0  0  0999 V2000
   55.1550   28.7270   45.6290 H   0  0  0  0  0  0  0  0  0  0  0  0
   55.1460   29.4130   44.8400 N   0  0  0  0  0  0  0  0  0  0  0  0
   56.7930   29.7000   44.4030 S   0  0  0  0  0  0  0  0  0  0  0  0
   56.8640   30.0830   42.9510 O   0  0  0  0  0  0  0  0  0  0  0  0
   57.3370   30.8260   45.2360 O   0  0  0  0  0  0  0  0  0  0  0  0
   57.7700   28.2300   44.6950 C   0  0  0  0  0  0  0  0  0  0  0  0
   57.6330   27.5383   43.8507 H   0  0  0  0  0  0  0  0  0  0  0  0
   58.8228   28.5337   44.7916 H   0  0  0  0  0  0  0  0  0  0  0  0
   57.3610   27.5220   45.9850 C   0  0  0  0  0  0  0  0  0  0  0  0
   58.0524   26.6881   46.1763 H   0  0  0  0  0  0  0  0  0  0  0  0
   57.3998   28.2414   46.8163 H   0  0  0  0  0  0  0  0  0  0  0  0
   56.0000   27.0030   45.8680 N   0  0  0  0  0  0  0  0  0  0  0  0
   55.6700   25.7670   46.0950 C   0  0  0  0  0  0  0  0  0  0  0  0
   54.4400   25.3270   45.7210 N   0  0  0  0  0  0  0  0  0  0  0  0
   54.0440   24.0410   45.9330 C   0  0  0  0  0  0  0  0  0  0  0  0
   52.6850   23.6190   45.5070 C   0  0  0  0  0  0  0  0  0  0  0  0
   52.1150   24.0820   44.3040 C   0  0  0  0  0  0  0  0  0  0  0  0
   52.6841   24.7661   43.6574 H   0  0  0  0  0  0  0  0  0  0  0  0
   50.8300   23.6770   43.9270 C   0  0  0  0  0  0  0  0  0  0  0  0
   50.3956   24.0393   42.9836 H   0  0  0  0  0  0  0  0  0  0  0  0
   50.0970   22.8140   44.7450 C   0  0  0  0  0  0  0  0  0  0  0  0
   49.0885   22.4941   44.4441 H   0  0  0  0  0  0  0  0  0  0  0  0
   50.6460   22.3580   45.9450 C   0  0  0  0  0  0  0  0  0  0  0  0
   50.0676   21.6813   46.5912 H   0  0  0  0  0  0  0  0  0  0  0  0
   51.9300   22.7600   46.3270 C   0  0  0  0  0  0  0  0  0  0  0  0
   52.3534   22.4015   47.2768 H   0  0  0  0  0  0  0  0  0  0  0  0
   54.9300   23.1540   46.5670 C   0  0  0  0  0  0  0  0  0  0  0  0
   54.6364   22.1120   46.7619 H   0  0  0  0  0  0  0  0  0  0  0  0
   56.1910   23.6210   46.9450 C   0  0  0  0  0  0  0  0  0  0  0  0
   57.0070   22.8510   47.5140 O   0  0  0  0  0  0  0  0  0  0  0  0
   56.5360   24.9110   46.7020 N   0  0  0  0  0  0  0  0  0  0  0  0
  1  2  1  0
  2  3  1  0
  3  4  2  0
  3  5  2  0
  3  6  1  0
  6  7  1  0
  6  8  1  0
  6  9  1  0
  9 10  1  0
  9 11  1  0
  9 12  1  0
 12 13  2  0
 13 14  1  0
 14 15  1  0
 15 16  1  0
 16 17  2  0
 17 18  1  0
 17 19  1  0
 19 20  1  0
 19 21  2  0
 21 22  1  0
 21 23  1  0
 23 24  1  0
 23 25  2  0
 25 26  1  0
 15 27  2  0
 27 28  1  0
 27 29  1  0
 29 30  2  0
 29 31  1  0
 31 13  1  0
 25 16  1  0
M  CHG  3   2  -1  14  -1  31  -1
M  END
>  <UniqueID>  (68) 
62

>  <SMILES>  (68) 
[NH-]S(=O)(=O)CC/N=c1/[n-]c(-c2ccccc2)cc(=O)[n-]1

>  <Energy>  (68) 
28.610157729835304

>  <Genealogy>  (68) 
[NH-]S(=O)(=O)CCN=c1[n-]c(-c2ccccc2)cc(=O)[n-]1 (protonated)
[NH-]S(=O)(=O)CC/N=c1/[n-]c(-c2ccccc2)cc(=O)[n-]1 (cis-trans isomerization)
[NH-]S(=O)(=O)CC/N=c1/[n-]c(-c2ccccc2)cc(=O)[n-]1 (3D coordinates assigned)
[NH-]S(=O)(=O)CC/N=c1/[n-]c(-c2ccccc2)cc(=O)[n-]1 (optimized conformer: 28.610157729835304 kcal/mol)

>  <smiles>  (68) 
NS(=O)(=O)CCN=c1[nH]c(-c2ccccc2)cc(=O)[nH]1

>  <score_type>  (68) 
oracle

>  <origin>  (68) 
adg

>  <m_score__min__energy>  (68) 
-13.529999999999999

>  <m_primary>  (68) 
energy

$$$$
68:0
     RDKit          3D

 57 60  0  0  0  0  0  0  0  0999 V2000
   52.1080   31.5830   50.9730 C   0  0  0  0  0  0  0  0  0  0  0  0
   53.0960   30.4530   51.2650 C   0  0  0  0  0  0  0  0  0  0  0  0
   53.6460   30.4930   52.7010 C   0  0  0  0  0  0  0  0  0  0  0  0
   54.8670   29.5830   52.9270 C   0  0  0  0  0  0  0  0  0  0  0  0
   56.1480   30.2180   52.4430 C   0  0  0  0  0  0  0  0  0  0  0  0
   56.1710   31.5790   52.0920 C   0  0  0  0  0  0  0  0  0  0  0  0
   57.3590   32.1770   51.6610 C   0  0  0  0  0  0  0  0  0  0  0  0
   58.5410   31.4290   51.5880 C   0  0  0  0  0  0  0  0  0  0  0  0
   59.7480   32.0590   51.1410 N   0  0  0  0  0  0  0  0  0  0  0  0
   59.7960   33.1080   49.7520 S   0  0  0  0  0  0  0  0  0  0  0  0
   58.6410   32.7500   48.8520 O   0  0  0  0  0  0  0  0  0  0  0  0
   59.6050   34.5340   50.1990 O   0  0  0  0  0  0  0  0  0  0  0  0
   61.3130   32.9430   48.8360 C   0  0  0  0  0  0  0  0  0  0  0  0
   62.3500   33.8530   49.1230 C   0  0  0  0  0  0  0  0  0  0  0  0
   63.5560   33.8140   48.4220 C   0  0  0  0  0  0  0  0  0  0  0  0
   63.7470   32.8670   47.4190 C   0  0  0  0  0  0  0  0  0  0  0  0
   62.7350   31.9550   47.1140 C   0  0  0  0  0  0  0  0  0  0  0  0
   61.5070   31.9730   47.8050 C   0  0  0  0  0  0  0  0  0  0  0  0
   60.4570   30.9520   47.4090 C   0  0  0  0  0  0  0  0  0  0  0  0
   59.4580   31.5540   46.4450 C   0  0  0  0  0  0  0  0  0  0  0  0
   59.6680   32.8620   46.1250 N   0  0  0  0  0  0  0  0  0  0  0  0
   58.8390   33.5570   45.3110 C   0  0  0  0  0  0  0  0  0  0  0  0
   59.1480   34.9790   44.9690 C   0  0  0  0  0  0  0  0  0  0  0  0
   57.7550   32.9490   44.7750 N   0  0  0  0  0  0  0  0  0  0  0  0
   57.4690   31.6530   45.0510 C   0  0  0  0  0  0  0  0  0  0  0  0
   56.3590   31.0980   44.5020 N   0  0  0  0  0  0  0  0  0  0  0  0
   56.0270   29.8070   44.7470 C   0  0  0  0  0  0  0  0  0  0  0  0
   54.9880   29.3180   44.2320 O   0  0  0  0  0  0  0  0  0  0  0  0
   56.8120   29.0440   45.5440 N   0  0  0  0  0  0  0  0  0  0  0  0
   57.9390   29.5360   46.1220 C   0  0  0  0  0  0  0  0  0  0  0  0
   58.6200   28.7600   46.8370 O   0  0  0  0  0  0  0  0  0  0  0  0
   58.3140   30.8910   45.9010 C   0  0  0  0  0  0  0  0  0  0  0  0
   58.5140   30.0620   51.9080 C   0  0  0  0  0  0  0  0  0  0  0  0
   57.3280   29.4630   52.3480 C   0  0  0  0  0  0  0  0  0  0  0  0
   51.7407   32.0030   51.9210 H   0  0  0  0  0  0  0  0  0  0  0  0
   52.6124   32.3706   50.3940 H   0  0  0  0  0  0  0  0  0  0  0  0
   51.2601   31.1882   50.3940 H   0  0  0  0  0  0  0  0  0  0  0  0
   52.5842   29.4914   51.1121 H   0  0  0  0  0  0  0  0  0  0  0  0
   53.9492   30.5766   50.5818 H   0  0  0  0  0  0  0  0  0  0  0  0
   53.9382   31.5282   52.9312 H   0  0  0  0  0  0  0  0  0  0  0  0
   52.8462   30.1235   53.3596 H   0  0  0  0  0  0  0  0  0  0  0  0
   54.9593   29.3746   54.0031 H   0  0  0  0  0  0  0  0  0  0  0  0
   54.7102   28.6582   52.3525 H   0  0  0  0  0  0  0  0  0  0  0  0
   55.2497   32.1765   52.1568 H   0  0  0  0  0  0  0  0  0  0  0  0
   57.3655   33.2399   51.3779 H   0  0  0  0  0  0  0  0  0  0  0  0
   60.6650   31.6440   51.4450 H   0  0  0  0  0  0  0  0  0  0  0  0
   62.2066   34.6059   49.9120 H   0  0  0  0  0  0  0  0  0  0  0  0
   64.3552   34.5308   48.6615 H   0  0  0  0  0  0  0  0  0  0  0  0
   64.6973   32.8375   46.8658 H   0  0  0  0  0  0  0  0  0  0  0  0
   62.8989   31.2102   46.3213 H   0  0  0  0  0  0  0  0  0  0  0  0
   60.9509   30.0949   46.9279 H   0  0  0  0  0  0  0  0  0  0  0  0
   59.9221   30.6276   48.3138 H   0  0  0  0  0  0  0  0  0  0  0  0
   59.2742   35.5597   45.8947 H   0  0  0  0  0  0  0  0  0  0  0  0
   60.0763   35.0212   44.3803 H   0  0  0  0  0  0  0  0  0  0  0  0
   58.3209   35.4026   44.3803 H   0  0  0  0  0  0  0  0  0  0  0  0
   59.4291   29.4592   51.8124 H   0  0  0  0  0  0  0  0  0  0  0  0
   57.3203   28.3973   52.6203 H   0  0  0  0  0  0  0  0  0  0  0  0
  1  2  1  0
  2  3  1  0
  3  4  1  0
  4  5  1  0
  5  6  2  0
  6  7  1  0
  7  8  2  0
  8  9  1  0
  9 10  1  0
 10 11  2  0
 10 12  2  0
 10 13  1  0
 13 14  2  0
 14 15  1  0
 15 16  2  0
 16 17  1  0
 17 18  2  0
 18 19  1  0
 19 20  1  0
 20 21  2  0
 21 22  1  0
 22 23  1  0
 22 24  2  0
 24 25  1  0
 25 26  1  0
 26 27  1  0
 27 28  2  0
 27 29  1  0
 29 30  1  0
 30 31  2  0
 30 32  1  0
  8 33  1  0
 33 34  2  0
 34  5  1  0
 18 13  1  0
 32 20  1  0
 32 25  2  0
  1 35  1  0
  1 36  1  0
  1 37  1  0
  2 38  1  0
  2 39  1  0
  3 40  1  0
  3 41  1  0
  4 42  1  0
  4 43  1  0
  6 44  1  0
  7 45  1  0
  9 46  1  0
 14 47  1  0
 15 48  1  0
 16 49  1  0
 17 50  1  0
 19 51  1  0
 19 52  1  0
 23 53  1  0
 23 54  1  0
 23 55  1  0
 33 56  1  0
 34 57  1  0
M  CHG  2  26  -1  29  -1
M  END
>  <UniqueID>  (69) 
63

>  <SMILES>  (69) 
CCCCc1ccc(NS(=O)(=O)c2ccccc2Cc2nc(C)nc3[n-]c(=O)[n-]c(=O)c23)cc1

>  <Energy>  (69) 
72.75892826795466

>  <Genealogy>  (69) 
CCCCc1ccc(NS(=O)(=O)c2ccccc2Cc2nc(C)nc3[n-]c(=O)[n-]c(=O)c23)cc1 (protonated)
CCCCc1ccc(NS(=O)(=O)c2ccccc2Cc2nc(C)nc3[n-]c(=O)[n-]c(=O)c23)cc1 (3D coordinates assigned)
CCCCc1ccc(NS(=O)(=O)c2ccccc2Cc2nc(C)nc3[n-]c(=O)[n-]c(=O)c23)cc1 (optimized conformer: 72.75892826795466 kcal/mol)

>  <smiles>  (69) 
CCCCc1ccc(NS(=O)(=O)c2ccccc2Cc2nc(C)nc3[nH]c(=O)[nH]c(=O)c23)cc1

>  <score_type>  (69) 
oracle

>  <origin>  (69) 
adg

>  <m_score__min__energy>  (69) 
-12.789999999999999

>  <m_primary>  (69) 
energy

$$$$
69:0
     RDKit          3D

 33 35  0  0  0  0  0  0  0  0999 V2000
   57.3620   32.6990   40.8100 C   0  0  0  0  0  0  0  0  0  0  0  0
   57.3760   31.5660   41.8290 C   0  0  0  0  0  0  0  0  0  0  0  0
   57.5180   32.1070   43.2210 C   0  0  0  0  0  0  0  0  0  0  0  0
   58.3200   33.1540   43.5130 N   0  0  0  0  0  0  0  0  0  0  0  0
   58.1370   33.3580   44.8340 C   0  0  0  0  0  0  0  0  0  0  0  0
   57.2290   32.4450   45.3200 C   0  0  0  0  0  0  0  0  0  0  0  0
   56.8290   31.6670   44.3000 N   0  0  0  0  0  0  0  0  0  0  0  0
   55.9090   30.5340   44.3950 C   0  0  0  0  0  0  0  0  0  0  0  0
   56.6530   29.2970   44.8040 C   0  0  0  0  0  0  0  0  0  0  0  0
   58.0460   29.2280   44.6720 C   0  0  0  0  0  0  0  0  0  0  0  0
   58.7190   28.0550   45.0260 C   0  0  0  0  0  0  0  0  0  0  0  0
   59.9730   28.0020   44.9080 O   0  0  0  0  0  0  0  0  0  0  0  0
   57.9910   26.9510   45.5060 C   0  0  0  0  0  0  0  0  0  0  0  0
   58.6160   25.7450   45.8750 C   0  0  0  0  0  0  0  0  0  0  0  0
   57.8530   24.6720   46.3420 C   0  0  0  0  0  0  0  0  0  0  0  0
   56.4640   24.7880   46.4460 C   0  0  0  0  0  0  0  0  0  0  0  0
   55.8290   25.9790   46.0820 C   0  0  0  0  0  0  0  0  0  0  0  0
   56.5840   27.0610   45.6150 C   0  0  0  0  0  0  0  0  0  0  0  0
   55.9630   28.2180   45.2620 N   0  0  0  0  0  0  0  0  0  0  0  0
   57.3501   33.6650   41.3359 H   0  0  0  0  0  0  0  0  0  0  0  0
   58.2610   32.6360   40.1793 H   0  0  0  0  0  0  0  0  0  0  0  0
   56.4648   32.6138   40.1793 H   0  0  0  0  0  0  0  0  0  0  0  0
   56.4345   31.0021   41.7550 H   0  0  0  0  0  0  0  0  0  0  0  0
   58.2320   30.9089   41.6157 H   0  0  0  0  0  0  0  0  0  0  0  0
   58.6369   34.1349   45.4311 H   0  0  0  0  0  0  0  0  0  0  0  0
   56.8894   32.3658   46.3633 H   0  0  0  0  0  0  0  0  0  0  0  0
   55.1343   30.7565   45.1435 H   0  0  0  0  0  0  0  0  0  0  0  0
   55.4437   30.3654   43.4126 H   0  0  0  0  0  0  0  0  0  0  0  0
   58.6080   30.0935   44.2913 H   0  0  0  0  0  0  0  0  0  0  0  0
   59.7087   25.6471   45.7954 H   0  0  0  0  0  0  0  0  0  0  0  0
   58.3473   23.7322   46.6290 H   0  0  0  0  0  0  0  0  0  0  0  0
   55.8689   23.9398   46.8153 H   0  0  0  0  0  0  0  0  0  0  0  0
   54.7354   26.0658   46.1627 H   0  0  0  0  0  0  0  0  0  0  0  0
  1  2  1  0
  2  3  1  0
  3  4  2  0
  4  5  1  0
  5  6  2  0
  6  7  1  0
  7  8  1  0
  8  9  1  0
  9 10  2  0
 10 11  1  0
 11 12  2  0
 11 13  1  0
 13 14  2  0
 14 15  1  0
 15 16  2  0
 16 17  1  0
 17 18  2  0
 18 19  1  0
  7  3  1  0
 19  9  1  0
 18 13  1  0
  1 20  1  0
  1 21  1  0
  1 22  1  0
  2 23  1  0
  2 24  1  0
  5 25  1  0
  6 26  1  0
  8 27  1  0
  8 28  1  0
 10 29  1  0
 14 30  1  0
 15 31  1  0
 16 32  1  0
 17 33  1  0
M  CHG  1  19  -1
M  END
>  <UniqueID>  (70) 
64

>  <SMILES>  (70) 
CCc1nccn1Cc1cc(=O)c2ccccc2[n-]1

>  <Energy>  (70) 
63.18240912790286

>  <Genealogy>  (70) 
CCc1nccn1Cc1cc(=O)c2ccccc2[n-]1 (protonated)
CCc1nccn1Cc1cc(=O)c2ccccc2[n-]1 (3D coordinates assigned)
CCc1nccn1Cc1cc(=O)c2ccccc2[n-]1 (optimized conformer: 63.18240912790286 kcal/mol)

>  <smiles>  (70) 
CCc1nccn1Cc1cc(=O)c2ccccc2[nH]1

>  <score_type>  (70) 
oracle

>  <origin>  (70) 
adg

>  <m_score__min__energy>  (70) 
-7.9699999999999998

>  <m_primary>  (70) 
energy

$$$$
70:0
     RDKit          3D

 55 58  0  0  0  0  0  0  0  0999 V2000
   60.0560   34.1950   52.0130 O   0  0  0  0  0  0  0  0  0  0  0  0
   60.5820   33.4910   51.1110 C   0  0  0  0  0  0  0  0  0  0  0  0
   61.7270   32.6840   51.4290 N   0  0  0  0  0  0  0  0  0  0  0  0
   62.4170   32.8200   52.6750 C   0  0  0  0  0  0  0  0  0  0  0  0
   61.6780   32.8830   53.8620 C   0  0  0  0  0  0  0  0  0  0  0  0
   62.3250   32.9700   55.0950 C   0  0  0  0  0  0  0  0  0  0  0  0
   63.7190   32.9920   55.1500 C   0  0  0  0  0  0  0  0  0  0  0  0
   64.4680   32.9210   53.9740 C   0  0  0  0  0  0  0  0  0  0  0  0
   63.8280   32.8260   52.7240 C   0  0  0  0  0  0  0  0  0  0  0  0
   64.6440   32.7770   51.4870 C   0  0  0  0  0  0  0  0  0  0  0  0
   65.6830   33.4860   51.4010 O   0  0  0  0  0  0  0  0  0  0  0  0
   64.3510   31.8640   50.4190 N   0  0  0  0  0  0  0  0  0  0  0  0
   63.7500   32.1490   49.3030 C   0  0  0  0  0  0  0  0  0  0  0  0
   62.7710   31.3680   48.7970 N   0  0  0  0  0  0  0  0  0  0  0  0
   62.3230   31.8340   47.6050 C   0  0  0  0  0  0  0  0  0  0  0  0
   62.9530   32.9840   47.1480 C   0  0  0  0  0  0  0  0  0  0  0  0
   64.1140   33.4330   48.2780 S   0  0  0  0  0  0  0  0  0  0  0  0
   60.0150   33.5240   49.7380 C   0  0  0  0  0  0  0  0  0  0  0  0
   60.4580   34.4590   48.7870 C   0  0  0  0  0  0  0  0  0  0  0  0
   59.9010   34.4890   47.5070 C   0  0  0  0  0  0  0  0  0  0  0  0
   58.8710   33.6120   47.1600 C   0  0  0  0  0  0  0  0  0  0  0  0
   58.1340   33.6980   45.5580 S   0  0  0  0  0  0  0  0  0  0  0  0
   58.6770   34.8930   44.8240 O   0  0  0  0  0  0  0  0  0  0  0  0
   56.6510   33.8810   45.7080 O   0  0  0  0  0  0  0  0  0  0  0  0
   58.4550   32.2540   44.6240 N   0  0  0  0  0  0  0  0  0  0  0  0
   59.1260   31.2130   45.4440 C   0  0  0  0  0  0  0  0  0  0  0  0
   58.1680   30.1010   45.8970 C   0  0  0  0  0  0  0  0  0  0  0  0
   57.5460   29.3880   44.6760 C   0  0  0  0  0  0  0  0  0  0  0  0
   56.2650   28.7110   45.0780 C   0  0  0  0  0  0  0  0  0  0  0  0
   56.2940   27.5820   45.6320 O   0  0  0  0  0  0  0  0  0  0  0  0
   55.0460   29.3490   44.8910 O   0  0  0  0  0  0  0  0  0  0  0  0
   57.3310   30.3430   43.4790 C   0  0  0  0  0  0  0  0  0  0  0  0
   57.2240   31.8020   43.9360 C   0  0  0  0  0  0  0  0  0  0  0  0
   58.4190   32.6820   48.1000 C   0  0  0  0  0  0  0  0  0  0  0  0
   58.9830   32.6400   49.3790 C   0  0  0  0  0  0  0  0  0  0  0  0
   62.0780   31.9550   50.7600 H   0  0  0  0  0  0  0  0  0  0  0  0
   60.5789   32.8638   53.8224 H   0  0  0  0  0  0  0  0  0  0  0  0
   61.7366   33.0212   56.0230 H   0  0  0  0  0  0  0  0  0  0  0  0
   64.2289   33.0654   56.1219 H   0  0  0  0  0  0  0  0  0  0  0  0
   65.5667   32.9394   54.0247 H   0  0  0  0  0  0  0  0  0  0  0  0
   61.5194   31.3374   47.0414 H   0  0  0  0  0  0  0  0  0  0  0  0
   62.7306   33.5107   46.2082 H   0  0  0  0  0  0  0  0  0  0  0  0
   61.2507   35.1736   49.0534 H   0  0  0  0  0  0  0  0  0  0  0  0
   60.2767   35.2095   46.7656 H   0  0  0  0  0  0  0  0  0  0  0  0
   59.9316   30.7608   44.8469 H   0  0  0  0  0  0  0  0  0  0  0  0
   59.5139   31.7040   46.3487 H   0  0  0  0  0  0  0  0  0  0  0  0
   58.7244   29.3676   46.4991 H   0  0  0  0  0  0  0  0  0  0  0  0
   57.3609   30.5500   46.4944 H   0  0  0  0  0  0  0  0  0  0  0  0
   58.2597   28.6250   44.3318 H   0  0  0  0  0  0  0  0  0  0  0  0
   58.1812   30.2465   42.7877 H   0  0  0  0  0  0  0  0  0  0  0  0
   56.3890   30.0671   42.9825 H   0  0  0  0  0  0  0  0  0  0  0  0
   57.0535   32.4393   43.0558 H   0  0  0  0  0  0  0  0  0  0  0  0
   56.3876   31.8775   44.6465 H   0  0  0  0  0  0  0  0  0  0  0  0
   57.6158   31.9796   47.8326 H   0  0  0  0  0  0  0  0  0  0  0  0
   58.6149   31.9071   50.1121 H   0  0  0  0  0  0  0  0  0  0  0  0
  1  2  2  0
  2  3  1  0
  3  4  1  0
  4  5  2  0
  5  6  1  0
  6  7  2  0
  7  8  1  0
  8  9  2  0
  9 10  1  0
 10 11  2  0
 10 12  1  0
 12 13  2  3
 13 14  1  0
 14 15  1  0
 15 16  2  0
 16 17  1  0
  2 18  1  0
 18 19  2  0
 19 20  1  0
 20 21  2  0
 21 22  1  0
 22 23  2  0
 22 24  2  0
 22 25  1  0
 25 26  1  0
 26 27  1  0
 27 28  1  0
 28 29  1  0
 29 30  2  0
 29 31  1  0
 28 32  1  0
 32 33  1  0
 21 34  1  0
 34 35  2  0
  9  4  1  0
 17 13  1  0
 35 18  1  0
 33 25  1  0
  3 36  1  0
  5 37  1  0
  6 38  1  0
  7 39  1  0
  8 40  1  0
 15 41  1  0
 16 42  1  0
 19 43  1  0
 20 44  1  0
 26 45  1  0
 26 46  1  0
 27 47  1  0
 27 48  1  0
 28 49  1  0
 32 50  1  0
 32 51  1  0
 33 52  1  0
 33 53  1  0
 34 54  1  0
 35 55  1  0
M  CHG  2  14  -1  31  -1
M  END
>  <UniqueID>  (71) 
65

>  <SMILES>  (71) 
O=C(Nc1ccccc1C(=O)N=c1[n-]ccs1)c1ccc(S(=O)(=O)N2CCC(C(=O)[O-])CC2)cc1

>  <Energy>  (71) 
112.83717646184334

>  <Genealogy>  (71) 
O=C(Nc1ccccc1C(=O)N=c1[n-]ccs1)c1ccc(S(=O)(=O)N2CCC(C(=O)[O-])CC2)cc1 (protonated)
O=C(Nc1ccccc1C(=O)N=c1[n-]ccs1)c1ccc(S(=O)(=O)N2CCC(C(=O)[O-])CC2)cc1 (3D coordinates assigned)
O=C(Nc1ccccc1C(=O)N=c1[n-]ccs1)c1ccc(S(=O)(=O)N2CCC(C(=O)[O-])CC2)cc1 (nonaromatic ring conformer: 112.83717646184334 kcal/mol)

>  <smiles>  (71) 
O=C(Nc1ccccc1C(=O)N=c1[nH]ccs1)c1ccc(S(=O)(=O)N2CCC(C(=O)O)CC2)cc1

>  <score_type>  (71) 
oracle

>  <origin>  (71) 
adg

>  <m_score__min__energy>  (71) 
-14.960000000000001

>  <m_primary>  (71) 
energy

$$$$
71:0
     RDKit          3D

 66 69  0  0  1  0  0  0  0  0999 V2000
   54.4740   30.1190   52.0000 C   0  0  0  0  0  0  0  0  0  0  0  0
   55.5080   31.1940   52.2090 C   0  0  0  0  0  0  0  0  0  0  0  0
   56.8890   30.6710   51.9070 C   0  0  0  0  0  0  0  0  0  0  0  0
   57.0190   29.4430   51.6530 O   0  0  0  0  0  0  0  0  0  0  0  0
   58.0120   31.6020   51.9240 C   0  0  0  0  0  0  0  0  0  0  0  0
   58.8540   31.7550   53.0050 C   0  0  0  0  0  0  0  0  0  0  0  0
   59.8950   32.6690   52.9220 C   0  0  0  0  0  0  0  0  0  0  0  0
   60.1240   33.4360   51.7960 C   0  0  0  0  0  0  0  0  0  0  0  0
   59.2750   33.2720   50.7250 C   0  0  0  0  0  0  0  0  0  0  0  0
   59.3980   33.9970   49.5070 N   0  0  0  0  0  0  0  0  0  0  0  0
   59.3410   33.4710   48.3390 C   0  0  0  0  0  0  0  0  0  0  0  0
   58.9680   34.2740   47.2850 C   0  0  0  0  0  0  0  0  0  0  0  0
   58.9100   33.7020   46.0320 C   0  0  0  0  0  0  0  0  0  0  0  0
   58.5120   34.5340   44.8680 C   0  0  0  0  0  0  0  0  0  0  0  0
   59.2520   35.7060   44.9450 F   0  0  0  0  0  0  0  0  0  0  0  0
   58.8650   33.8240   43.7300 F   0  0  0  0  0  0  0  0  0  0  0  0
   57.1520   34.7770   44.8970 F   0  0  0  0  0  0  0  0  0  0  0  0
   59.2240   32.3900   45.9200 N   0  0  0  0  0  0  0  0  0  0  0  0
   59.5850   31.6330   46.9710 C   0  0  0  0  0  0  0  0  0  0  0  0
   59.9110   30.2930   46.8830 O   0  0  0  0  0  0  0  0  0  0  0  0
   59.0590   29.2800   46.5470 C   0  0  0  0  0  0  0  0  0  0  0  0
   59.4180   27.9890   46.9460 C   0  0  0  0  0  0  0  0  0  0  0  0
   58.6050   26.9150   46.6430 C   0  0  0  0  0  0  0  0  0  0  0  0
   57.4230   27.0560   45.9460 C   0  0  0  0  0  0  0  0  0  0  0  0
   56.5460   25.9440   45.6120 C   0  0  0  0  0  0  0  0  0  0  0  0
   55.3610   25.8820   46.0850 O   0  0  0  0  0  0  0  0  0  0  0  0
   56.9370   24.8780   44.7600 N   0  0  0  0  0  0  0  0  0  0  0  0
   56.0730   23.7660   44.4210 C   0  0  2  0  0  0  0  0  0  0  0  0
   55.9080   22.7600   45.5090 C   0  0  0  0  0  0  0  0  0  0  0  0
   56.3140   21.4150   44.9690 C   0  0  0  0  0  0  0  0  0  0  0  0
   56.9300   21.6530   43.6190 C   0  0  2  0  0  0  0  0  0  0  0  0
   58.3120   21.4920   43.6410 O   0  0  0  0  0  0  0  0  0  0  0  0
   56.5560   23.0340   43.1900 C   0  0  0  0  0  0  0  0  0  0  0  0
   57.0660   28.3280   45.5520 C   0  0  0  0  0  0  0  0  0  0  0  0
   57.8800   29.4260   45.8520 C   0  0  0  0  0  0  0  0  0  0  0  0
   57.4950   30.7080   45.4430 O   0  0  0  0  0  0  0  0  0  0  0  0
   57.0370   30.9390   44.1300 C   0  0  0  0  0  0  0  0  0  0  0  0
   59.6510   32.1730   48.2250 N   0  0  0  0  0  0  0  0  0  0  0  0
   58.2200   32.3560   50.7880 C   0  0  0  0  0  0  0  0  0  0  0  0
   54.1225   29.7536   52.9762 H   0  0  0  0  0  0  0  0  0  0  0  0
   53.6248   30.5318   51.4356 H   0  0  0  0  0  0  0  0  0  0  0  0
   54.9195   29.2865   51.4356 H   0  0  0  0  0  0  0  0  0  0  0  0
   55.2886   32.0406   51.5418 H   0  0  0  0  0  0  0  0  0  0  0  0
   55.4744   31.5175   53.2598 H   0  0  0  0  0  0  0  0  0  0  0  0
   58.7030   31.1619   53.9190 H   0  0  0  0  0  0  0  0  0  0  0  0
   60.5642   32.7874   53.7869 H   0  0  0  0  0  0  0  0  0  0  0  0
   60.9568   34.1536   51.7567 H   0  0  0  0  0  0  0  0  0  0  0  0
   58.7245   35.3358   47.4373 H   0  0  0  0  0  0  0  0  0  0  0  0
   59.1800   31.9840   44.9800 H   0  0  0  0  0  0  0  0  0  0  0  0
   60.3523   27.8282   47.5038 H   0  0  0  0  0  0  0  0  0  0  0  0
   58.9110   25.9101   46.9694 H   0  0  0  0  0  0  0  0  0  0  0  0
   57.8940   24.8650   44.3390 H   0  0  0  0  0  0  0  0  0  0  0  0
   55.0971   24.2402   44.2401 H   0  0  0  0  0  0  0  0  0  0  0  0
   56.5472   23.0269   46.3635 H   0  0  0  0  0  0  0  0  0  0  0  0
   54.8619   22.7341   45.8481 H   0  0  0  0  0  0  0  0  0  0  0  0
   57.0462   20.9433   45.6408 H   0  0  0  0  0  0  0  0  0  0  0  0
   55.4459   20.7437   44.8923 H   0  0  0  0  0  0  0  0  0  0  0  0
   56.5497   20.9098   42.9028 H   0  0  0  0  0  0  0  0  0  0  0  0
   58.5300   20.6760   44.1390 H   0  0  0  0  0  0  0  0  0  0  0  0
   57.4312   23.5471   42.7649 H   0  0  0  0  0  0  0  0  0  0  0  0
   55.7724   23.0057   42.4185 H   0  0  0  0  0  0  0  0  0  0  0  0
   56.1299   28.4817   44.9951 H   0  0  0  0  0  0  0  0  0  0  0  0
   56.0554   31.4341   44.1659 H   0  0  0  0  0  0  0  0  0  0  0  0
   57.7536   31.5835   43.5998 H   0  0  0  0  0  0  0  0  0  0  0  0
   56.9447   29.9797   43.5998 H   0  0  0  0  0  0  0  0  0  0  0  0
   57.5501   32.2358   49.9238 H   0  0  0  0  0  0  0  0  0  0  0  0
  1  2  1  0
  2  3  1  0
  3  4  2  0
  3  5  1  0
  5  6  2  0
  6  7  1  0
  7  8  2  0
  8  9  1  0
  9 10  1  0
 10 11  2  0
 11 12  1  0
 12 13  2  0
 13 14  1  0
 14 15  1  0
 14 16  1  0
 14 17  1  0
 13 18  1  0
 18 19  1  0
 19 20  1  0
 20 21  1  0
 21 22  2  0
 22 23  1  0
 23 24  2  0
 24 25  1  0
 25 26  2  0
 25 27  1  0
 27 28  1  0
 28 29  1  0
 29 30  1  0
 30 31  1  0
 31 32  1  0
 31 33  1  0
 24 34  1  0
 34 35  2  0
 35 36  1  0
 36 37  1  0
 19 38  2  0
  9 39  2  0
 39  5  1  0
 38 11  1  0
 35 21  1  0
 33 28  1  0
  1 40  1  0
  1 41  1  0
  1 42  1  0
  2 43  1  0
  2 44  1  0
  6 45  1  0
  7 46  1  0
  8 47  1  0
 12 48  1  0
 18 49  1  0
 22 50  1  0
 23 51  1  0
 27 52  1  0
 28 53  1  6
 29 54  1  0
 29 55  1  0
 30 56  1  0
 30 57  1  0
 31 58  1  6
 32 59  1  0
 33 60  1  0
 33 61  1  0
 34 62  1  0
 37 63  1  0
 37 64  1  0
 37 65  1  0
 39 66  1  0
M  END
>  <smiles>  (72) 
CCC(=O)c1cccc(N=c2cc(C(F)(F)F)[nH]c(Oc3ccc(C(=O)NC4CCC(O)C4)cc3OC)n2)c1

>  <score_type>  (72) 
oracle

>  <origin>  (72) 
adg

>  <m_score__min__energy>  (72) 
-10.369999999999999

>  <m_primary>  (72) 
energy

$$$$
72:0
     RDKit          3D

 55 58  0  0  0  0  0  0  0  0999 V2000
   63.3700   33.8470   46.0080 C   0  0  0  0  0  0  0  0  0  0  0  0
   63.8730   33.6890   47.3310 O   0  0  0  0  0  0  0  0  0  0  0  0
   63.0830   33.3640   48.4450 C   0  0  0  0  0  0  0  0  0  0  0  0
   63.6410   32.9610   49.6730 C   0  0  0  0  0  0  0  0  0  0  0  0
   62.8100   32.6420   50.7500 C   0  0  0  0  0  0  0  0  0  0  0  0
   61.4230   32.7230   50.6160 C   0  0  0  0  0  0  0  0  0  0  0  0
   60.8530   33.1340   49.4020 C   0  0  0  0  0  0  0  0  0  0  0  0
   59.3570   33.1820   49.2500 C   0  0  0  0  0  0  0  0  0  0  0  0
   58.9590   32.5540   47.9860 N   0  0  0  0  0  0  0  0  0  0  0  0
   58.9060   31.2200   47.9420 N   0  0  0  0  0  0  0  0  0  0  0  0
   58.5810   30.5300   46.8190 C   0  0  0  0  0  0  0  0  0  0  0  0
   58.4990   29.0580   46.9240 C   0  0  0  0  0  0  0  0  0  0  0  0
   59.3220   28.4530   47.6640 O   0  0  0  0  0  0  0  0  0  0  0  0
   57.4250   28.3390   46.2990 N   0  0  0  0  0  0  0  0  0  0  0  0
   57.4330   26.9190   46.0730 C   0  0  0  0  0  0  0  0  0  0  0  0
   58.6140   26.2350   45.7360 C   0  0  0  0  0  0  0  0  0  0  0  0
   58.5880   24.8590   45.4950 C   0  0  0  0  0  0  0  0  0  0  0  0
   57.3860   24.1440   45.5700 C   0  0  0  0  0  0  0  0  0  0  0  0
   57.4120   22.7340   45.3110 N   0  0  0  0  0  0  0  0  0  0  0  0
   56.1660   21.8250   44.5180 S   0  0  0  0  0  0  0  0  0  0  0  0
   56.2960   20.1020   44.9480 C   0  0  0  0  0  0  0  0  0  0  0  0
   56.2640   22.0040   43.0300 O   0  0  0  0  0  0  0  0  0  0  0  0
   54.8300   22.3350   44.9790 O   0  0  0  0  0  0  0  0  0  0  0  0
   56.2010   24.8300   45.8890 C   0  0  0  0  0  0  0  0  0  0  0  0
   56.2260   26.2060   46.1300 C   0  0  0  0  0  0  0  0  0  0  0  0
   58.3330   31.2400   45.6240 C   0  0  0  0  0  0  0  0  0  0  0  0
   58.0920   30.5960   44.3910 C   0  0  0  0  0  0  0  0  0  0  0  0
   57.8430   31.3430   43.2370 C   0  0  0  0  0  0  0  0  0  0  0  0
   57.8470   32.7350   43.2880 C   0  0  0  0  0  0  0  0  0  0  0  0
   58.1180   33.3910   44.4890 C   0  0  0  0  0  0  0  0  0  0  0  0
   58.3750   32.6550   45.6620 C   0  0  0  0  0  0  0  0  0  0  0  0
   58.6950   33.2990   46.8700 C   0  0  0  0  0  0  0  0  0  0  0  0
   58.7490   34.5610   46.9220 O   0  0  0  0  0  0  0  0  0  0  0  0
   61.6910   33.4440   48.3180 C   0  0  0  0  0  0  0  0  0  0  0  0
   62.3214   34.1764   46.0513 H   0  0  0  0  0  0  0  0  0  0  0  0
   63.9692   34.6002   45.4754 H   0  0  0  0  0  0  0  0  0  0  0  0
   63.4309   32.8865   45.4754 H   0  0  0  0  0  0  0  0  0  0  0  0
   64.7334   32.8971   49.7849 H   0  0  0  0  0  0  0  0  0  0  0  0
   63.2505   32.3258   51.7071 H   0  0  0  0  0  0  0  0  0  0  0  0
   60.7744   32.4635   51.4657 H   0  0  0  0  0  0  0  0  0  0  0  0
   58.8887   32.6436   50.0872 H   0  0  0  0  0  0  0  0  0  0  0  0
   59.0284   34.2318   49.2498 H   0  0  0  0  0  0  0  0  0  0  0  0
   56.5610   28.8730   46.0520 H   0  0  0  0  0  0  0  0  0  0  0  0
   59.5633   26.7858   45.6617 H   0  0  0  0  0  0  0  0  0  0  0  0
   59.5205   24.3322   45.2440 H   0  0  0  0  0  0  0  0  0  0  0  0
   56.3039   19.9969   46.0429 H   0  0  0  0  0  0  0  0  0  0  0  0
   55.4366   19.5547   44.5334 H   0  0  0  0  0  0  0  0  0  0  0  0
   57.2278   19.6899   44.5334 H   0  0  0  0  0  0  0  0  0  0  0  0
   55.2498   24.2809   45.9491 H   0  0  0  0  0  0  0  0  0  0  0  0
   55.2910   26.7350   46.3665 H   0  0  0  0  0  0  0  0  0  0  0  0
   58.1003   29.4973   44.3385 H   0  0  0  0  0  0  0  0  0  0  0  0
   57.6431   30.8301   42.2847 H   0  0  0  0  0  0  0  0  0  0  0  0
   57.6361   33.3182   42.3795 H   0  0  0  0  0  0  0  0  0  0  0  0
   58.1311   34.4905   44.5201 H   0  0  0  0  0  0  0  0  0  0  0  0
   61.2489   33.7529   47.3593 H   0  0  0  0  0  0  0  0  0  0  0  0
  1  2  1  0
  2  3  1  0
  3  4  2  0
  4  5  1  0
  5  6  2  0
  6  7  1  0
  7  8  1  0
  8  9  1  0
  9 10  1  0
 10 11  2  0
 11 12  1  0
 12 13  2  0
 12 14  1  0
 14 15  1  0
 15 16  2  0
 16 17  1  0
 17 18  2  0
 18 19  1  0
 19 20  1  0
 20 21  1  0
 20 22  2  0
 20 23  2  0
 18 24  1  0
 24 25  2  0
 11 26  1  0
 26 27  2  0
 27 28  1  0
 28 29  2  0
 29 30  1  0
 30 31  2  0
 31 32  1  0
 32 33  2  0
  7 34  2  0
 34  3  1  0
 32  9  1  0
 25 15  1  0
 31 26  1  0
  1 35  1  0
  1 36  1  0
  1 37  1  0
  4 38  1  0
  5 39  1  0
  6 40  1  0
  8 41  1  0
  8 42  1  0
 14 43  1  0
 16 44  1  0
 17 45  1  0
 21 46  1  0
 21 47  1  0
 21 48  1  0
 24 49  1  0
 25 50  1  0
 27 51  1  0
 28 52  1  0
 29 53  1  0
 30 54  1  0
 34 55  1  0
M  CHG  1  19  -1
M  END
>  <UniqueID>  (73) 
66

>  <SMILES>  (73) 
COc1cccc(Cn2nc(C(=O)Nc3ccc([N-]S(C)(=O)=O)cc3)c3ccccc3c2=O)c1

>  <Energy>  (73) 
72.53262689288118

>  <Genealogy>  (73) 
COc1cccc(Cn2nc(C(=O)Nc3ccc([N-]S(C)(=O)=O)cc3)c3ccccc3c2=O)c1 (protonated)
COc1cccc(Cn2nc(C(=O)Nc3ccc([N-]S(C)(=O)=O)cc3)c3ccccc3c2=O)c1 (3D coordinates assigned)
COc1cccc(Cn2nc(C(=O)Nc3ccc([N-]S(C)(=O)=O)cc3)c3ccccc3c2=O)c1 (optimized conformer: 72.53262689288118 kcal/mol)

>  <smiles>  (73) 
COc1cccc(Cn2nc(C(=O)Nc3ccc(NS(C)(=O)=O)cc3)c3ccccc3c2=O)c1

>  <score_type>  (73) 
oracle

>  <origin>  (73) 
adg

>  <m_score__min__energy>  (73) 
-11.07

>  <m_primary>  (73) 
energy

$$$$
73:0
     RDKit          3D

 50 53  0  0  0  0  0  0  0  0999 V2000
   50.5490   23.7840   43.9780 C   0  0  0  0  0  0  0  0  0  0  0  0
   51.4700   23.2910   45.0470 C   0  0  0  0  0  0  0  0  0  0  0  0
   50.9540   22.7850   46.2480 C   0  0  0  0  0  0  0  0  0  0  0  0
   51.8340   22.3370   47.2340 C   0  0  0  0  0  0  0  0  0  0  0  0
   53.2110   22.4060   47.0200 C   0  0  0  0  0  0  0  0  0  0  0  0
   53.6970   22.9370   45.8160 C   0  0  0  0  0  0  0  0  0  0  0  0
   55.1710   22.9880   45.5400 C   0  0  0  0  0  0  0  0  0  0  0  0
   55.5170   24.2610   44.9210 N   0  0  0  0  0  0  0  0  0  0  0  0
   55.5710   25.4930   45.6460 C   0  0  0  0  0  0  0  0  0  0  0  0
   54.4990   26.0750   45.9720 O   0  0  0  0  0  0  0  0  0  0  0  0
   56.8800   26.0840   46.0140 C   0  0  0  0  0  0  0  0  0  0  0  0
   57.9950   25.2590   46.2450 C   0  0  0  0  0  0  0  0  0  0  0  0
   59.2250   25.8170   46.5970 C   0  0  0  0  0  0  0  0  0  0  0  0
   59.3610   27.2020   46.7170 C   0  0  0  0  0  0  0  0  0  0  0  0
   58.2660   28.0460   46.4700 C   0  0  0  0  0  0  0  0  0  0  0  0
   58.3710   29.4730   46.6110 N   0  0  0  0  0  0  0  0  0  0  0  0
   57.7630   30.4190   45.7170 C   0  0  0  0  0  0  0  0  0  0  0  0
   56.8030   30.0680   44.9790 O   0  0  0  0  0  0  0  0  0  0  0  0
   58.1830   31.8380   45.7320 C   0  0  0  0  0  0  0  0  0  0  0  0
   57.2920   32.7940   45.2180 C   0  0  0  0  0  0  0  0  0  0  0  0
   57.5940   34.1550   45.2680 C   0  0  0  0  0  0  0  0  0  0  0  0
   58.7940   34.5880   45.8270 C   0  0  0  0  0  0  0  0  0  0  0  0
   59.7180   33.6580   46.3220 C   0  0  0  0  0  0  0  0  0  0  0  0
   60.9360   34.1020   46.8630 C   0  0  0  0  0  0  0  0  0  0  0  0
   61.8790   33.1840   47.3210 C   0  0  0  0  0  0  0  0  0  0  0  0
   61.6210   31.8150   47.2380 C   0  0  0  0  0  0  0  0  0  0  0  0
   60.4110   31.3560   46.7110 C   0  0  0  0  0  0  0  0  0  0  0  0
   59.4290   32.2670   46.2660 C   0  0  0  0  0  0  0  0  0  0  0  0
   57.0260   27.4780   46.1360 C   0  0  0  0  0  0  0  0  0  0  0  0
   52.8170   23.3480   44.8630 N   0  0  0  0  0  0  0  0  0  0  0  0
   49.6691   24.2550   44.4406 H   0  0  0  0  0  0  0  0  0  0  0  0
   51.0739   24.5218   43.3533 H   0  0  0  0  0  0  0  0  0  0  0  0
   50.2262   22.9381   43.3533 H   0  0  0  0  0  0  0  0  0  0  0  0
   49.8671   22.7415   46.4115 H   0  0  0  0  0  0  0  0  0  0  0  0
   51.4428   21.9302   48.1782 H   0  0  0  0  0  0  0  0  0  0  0  0
   53.9102   22.0468   47.7895 H   0  0  0  0  0  0  0  0  0  0  0  0
   55.7228   22.8805   46.4855 H   0  0  0  0  0  0  0  0  0  0  0  0
   55.4396   22.1688   44.8568 H   0  0  0  0  0  0  0  0  0  0  0  0
   57.8973   24.1677   46.1477 H   0  0  0  0  0  0  0  0  0  0  0  0
   60.0906   25.1635   46.7806 H   0  0  0  0  0  0  0  0  0  0  0  0
   60.3305   27.6337   47.0064 H   0  0  0  0  0  0  0  0  0  0  0  0
   58.8690   29.8510   47.4500 H   0  0  0  0  0  0  0  0  0  0  0  0
   56.3428   32.4651   44.7698 H   0  0  0  0  0  0  0  0  0  0  0  0
   56.8814   34.8893   44.8643 H   0  0  0  0  0  0  0  0  0  0  0  0
   59.0172   35.6638   45.8801 H   0  0  0  0  0  0  0  0  0  0  0  0
   61.1464   35.1799   46.9254 H   0  0  0  0  0  0  0  0  0  0  0  0
   62.8283   33.5389   47.7486 H   0  0  0  0  0  0  0  0  0  0  0  0
   62.3738   31.0938   47.5891 H   0  0  0  0  0  0  0  0  0  0  0  0
   60.2220   30.2745   46.6423 H   0  0  0  0  0  0  0  0  0  0  0  0
   56.1574   28.1315   45.9675 H   0  0  0  0  0  0  0  0  0  0  0  0
  1  2  1  0
  2  3  2  0
  3  4  1  0
  4  5  2  0
  5  6  1  0
  6  7  1  0
  7  8  1  0
  8  9  1  0
  9 10  2  0
  9 11  1  0
 11 12  2  0
 12 13  1  0
 13 14  2  0
 14 15  1  0
 15 16  1  0
 16 17  1  0
 17 18  2  0
 17 19  1  0
 19 20  2  0
 20 21  1  0
 21 22  2  0
 22 23  1  0
 23 24  2  0
 24 25  1  0
 25 26  2  0
 26 27  1  0
 27 28  2  0
 15 29  2  0
  6 30  2  0
 30  2  1  0
 29 11  1  0
 28 19  1  0
 28 23  1  0
  1 31  1  0
  1 32  1  0
  1 33  1  0
  3 34  1  0
  4 35  1  0
  5 36  1  0
  7 37  1  0
  7 38  1  0
 12 39  1  0
 13 40  1  0
 14 41  1  0
 16 42  1  0
 20 43  1  0
 21 44  1  0
 22 45  1  0
 24 46  1  0
 25 47  1  0
 26 48  1  0
 27 49  1  0
 29 50  1  0
M  CHG  1   8  -1
M  END
>  <UniqueID>  (74) 
67

>  <SMILES>  (74) 
Cc1cccc(C[N-]C(=O)c2cccc(NC(=O)c3cccc4ccccc34)c2)n1

>  <Energy>  (74) 
65.6803955912862

>  <Genealogy>  (74) 
Cc1cccc(C[N-]C(=O)c2cccc(NC(=O)c3cccc4ccccc34)c2)n1 (protonated)
Cc1cccc(C[N-]C(=O)c2cccc(NC(=O)c3cccc4ccccc34)c2)n1 (3D coordinates assigned)
Cc1cccc(C[N-]C(=O)c2cccc(NC(=O)c3cccc4ccccc34)c2)n1 (optimized conformer: 65.6803955912862 kcal/mol)

>  <smiles>  (74) 
Cc1cccc(CNC(=O)c2cccc(NC(=O)c3cccc4ccccc34)c2)n1

>  <score_type>  (74) 
oracle

>  <origin>  (74) 
adg

>  <m_score__min__energy>  (74) 
-12.17

>  <m_primary>  (74) 
energy

$$$$
74:0
     RDKit          3D

 93 97  0  0  1  0  0  0  0  0999 V2000
   58.9510   21.8720   44.5000 C   0  0  0  0  0  0  0  0  0  0  0  0
   59.2550   22.7040   45.6040 O   0  0  0  0  0  0  0  0  0  0  0  0
   58.4290   23.7510   45.9940 C   0  0  0  0  0  0  0  0  0  0  0  0
   58.6660   25.0480   45.5240 C   0  0  0  0  0  0  0  0  0  0  0  0
   57.8680   26.1120   45.8910 C   0  0  0  0  0  0  0  0  0  0  0  0
   58.1470   27.4340   45.4060 N   0  0  0  0  0  0  0  0  0  0  0  0
   57.7930   27.8080   44.0530 C   0  0  0  0  0  0  0  0  0  0  0  0
   57.3610   29.2230   43.8790 C   0  0  0  0  0  0  0  0  0  0  0  0
   57.8950   30.1410   44.8680 N   0  0  0  0  0  0  0  0  0  0  0  0
   65.6680   25.9710   52.8900 C   0  0  0  0  0  0  0  0  0  0  0  0
   66.0600   26.7270   51.6850 C   0  0  0  0  0  0  0  0  0  0  0  0
   66.5260   25.4830   53.6660 O   0  0  0  0  0  0  0  0  0  0  0  0
   57.8680   29.6480   46.2570 C   0  0  0  0  0  0  0  0  0  0  0  0
   58.8020   28.4380   46.2220 C   0  0  0  0  0  0  0  0  0  0  0  0
   56.8230   25.8360   46.7440 C   0  0  0  0  0  0  0  0  0  0  0  0
   56.5630   24.5580   47.2260 C   0  0  0  0  0  0  0  0  0  0  0  0
   57.3660   23.5080   46.8540 C   0  0  0  0  0  0  0  0  0  0  0  0
   57.1950   22.1690   47.2870 N   0  0  0  0  0  0  0  0  0  0  0  0
   56.6590   21.8340   48.3890 C   0  0  0  0  0  0  0  0  0  0  0  0
   55.5040   21.1230   50.7250 N   0  0  0  0  0  0  0  0  0  0  0  0
   54.7280   21.3520   49.6470 C   0  0  0  0  0  0  0  0  0  0  0  0
   55.2930   21.7150   48.4450 C   0  0  0  0  0  0  0  0  0  0  0  0
   54.4940   21.9850   47.2170 C   0  0  0  0  0  0  0  0  0  0  0  0
   55.1900   21.6620   46.0680 F   0  0  0  0  0  0  0  0  0  0  0  0
   54.1540   23.3330   47.1420 F   0  0  0  0  0  0  0  0  0  0  0  0
   53.2940   21.3020   47.2420 F   0  0  0  0  0  0  0  0  0  0  0  0
   56.8450   21.2520   50.6270 C   0  0  0  0  0  0  0  0  0  0  0  0
   57.5730   21.0390   51.6710 N   0  0  0  0  0  0  0  0  0  0  0  0
   58.6860   21.8790   51.9980 C   0  0  0  0  0  0  0  0  0  0  0  0
   58.4810   22.8870   52.9160 C   0  0  0  0  0  0  0  0  0  0  0  0
   59.5340   23.7370   53.2650 C   0  0  0  0  0  0  0  0  0  0  0  0
   60.7970   23.6010   52.7140 C   0  0  0  0  0  0  0  0  0  0  0  0
   61.8620   24.4920   53.0810 N   0  0  0  0  0  0  0  0  0  0  0  0
   62.9680   23.9150   53.8510 C   0  0  0  0  0  0  0  0  0  0  0  0
   63.8190   25.0580   54.3520 C   0  0  0  0  0  0  0  0  0  0  0  0
   64.2980   25.7870   53.1880 N   0  0  0  0  0  0  0  0  0  0  0  0
   58.4130   31.4230   44.5490 C   0  0  0  0  0  0  0  0  0  0  0  0
   58.4190   31.8090   43.3540 O   0  0  0  0  0  0  0  0  0  0  0  0
   58.8970   32.2000   45.5970 O   0  0  0  0  0  0  0  0  0  0  0  0
   58.5020   33.5570   45.7850 C   0  0  0  0  0  0  0  0  0  0  0  0
   59.3180   34.4870   44.9130 C   0  0  0  0  0  0  0  0  0  0  0  0
   58.7240   33.8730   47.2480 C   0  0  0  0  0  0  0  0  0  0  0  0
   57.0210   33.7370   45.5030 C   0  0  0  0  0  0  0  0  0  0  0  0
   63.2760   26.3370   52.3140 C   0  0  0  0  0  0  0  0  0  0  0  0
   61.8960   25.8790   52.7450 C   0  0  0  0  0  0  0  0  0  0  0  0
   60.9620   22.5830   51.8030 C   0  0  0  0  0  0  0  0  0  0  0  0
   59.9290   21.7230   51.4380 C   0  0  0  0  0  0  0  0  0  0  0  0
   60.1600   20.7020   50.5040 O   0  0  0  0  0  0  0  0  0  0  0  0
   60.4550   19.3770   50.8960 C   0  0  0  0  0  0  0  0  0  0  0  0
   57.4260   21.6060   49.4640 N   0  0  0  0  0  0  0  0  0  0  0  0
   58.5946   20.8967   44.8630 H   0  0  0  0  0  0  0  0  0  0  0  0
   58.1675   22.3446   43.8895 H   0  0  0  0  0  0  0  0  0  0  0  0
   59.8546   21.7281   43.8895 H   0  0  0  0  0  0  0  0  0  0  0  0
   59.5119   25.2238   44.8432 H   0  0  0  0  0  0  0  0  0  0  0  0
   58.6710   27.6389   43.4123 H   0  0  0  0  0  0  0  0  0  0  0  0
   56.9256   27.1883   43.7818 H   0  0  0  0  0  0  0  0  0  0  0  0
   57.6866   29.5619   42.8845 H   0  0  0  0  0  0  0  0  0  0  0  0
   56.2678   29.2336   44.0003 H   0  0  0  0  0  0  0  0  0  0  0  0
   66.5473   27.6667   51.9841 H   0  0  0  0  0  0  0  0  0  0  0  0
   66.7598   26.1255   51.0863 H   0  0  0  0  0  0  0  0  0  0  0  0
   65.1651   26.9524   51.0863 H   0  0  0  0  0  0  0  0  0  0  0  0
   58.2412   30.4132   46.9536 H   0  0  0  0  0  0  0  0  0  0  0  0
   56.8546   29.3982   46.6043 H   0  0  0  0  0  0  0  0  0  0  0  0
   59.7687   28.7172   45.7775 H   0  0  0  0  0  0  0  0  0  0  0  0
   58.9993   28.0591   47.2357 H   0  0  0  0  0  0  0  0  0  0  0  0
   56.1664   26.6611   47.0572 H   0  0  0  0  0  0  0  0  0  0  0  0
   55.7144   24.3881   47.9050 H   0  0  0  0  0  0  0  0  0  0  0  0
   55.0110   20.8480   51.5960 H   0  0  0  0  0  0  0  0  0  0  0  0
   53.6359   21.2482   49.7281 H   0  0  0  0  0  0  0  0  0  0  0  0
   57.4897   23.0221   53.3732 H   0  0  0  0  0  0  0  0  0  0  0  0
   59.3543   24.5369   53.9984 H   0  0  0  0  0  0  0  0  0  0  0  0
   62.5733   23.3400   54.7016 H   0  0  0  0  0  0  0  0  0  0  0  0
   63.5633   23.2356   53.2233 H   0  0  0  0  0  0  0  0  0  0  0  0
   63.2181   25.7223   54.9905 H   0  0  0  0  0  0  0  0  0  0  0  0
   64.6630   24.6812   54.9484 H   0  0  0  0  0  0  0  0  0  0  0  0
   59.9097   35.1614   45.5495 H   0  0  0  0  0  0  0  0  0  0  0  0
   59.9938   33.8954   44.2779 H   0  0  0  0  0  0  0  0  0  0  0  0
   58.6435   35.0801   44.2779 H   0  0  0  0  0  0  0  0  0  0  0  0
   58.2014   33.1291   47.8672 H   0  0  0  0  0  0  0  0  0  0  0  0
   59.8009   33.8435   47.4702 H   0  0  0  0  0  0  0  0  0  0  0  0
   58.3311   34.8761   47.4702 H   0  0  0  0  0  0  0  0  0  0  0  0
   56.4721   33.8037   46.4539 H   0  0  0  0  0  0  0  0  0  0  0  0
   56.8673   34.6604   44.9254 H   0  0  0  0  0  0  0  0  0  0  0  0
   56.6506   32.8773   44.9254 H   0  0  0  0  0  0  0  0  0  0  0  0
   63.3203   27.4354   52.3538 H   0  0  0  0  0  0  0  0  0  0  0  0
   63.4609   25.9834   51.2889 H   0  0  0  0  0  0  0  0  0  0  0  0
   61.5891   26.4631   53.6251 H   0  0  0  0  0  0  0  0  0  0  0  0
   61.2116   26.0353   51.8981 H   0  0  0  0  0  0  0  0  0  0  0  0
   61.9516   22.4425   51.3436 H   0  0  0  0  0  0  0  0  0  0  0  0
   60.4690   19.3140   51.9941 H   0  0  0  0  0  0  0  0  0  0  0  0
   59.6861   18.6975   50.4995 H   0  0  0  0  0  0  0  0  0  0  0  0
   61.4395   19.0879   50.4995 H   0  0  0  0  0  0  0  0  0  0  0  0
   58.4550   21.6960   49.4120 H   0  0  0  0  0  0  0  0  0  0  0  0
  1  2  1  0
  2  3  1  0
  3  4  2  0
  4  5  1  0
  5  6  1  0
  6  7  1  0
  7  8  1  0
  8  9  1  0
  9 10  1  0
 10 11  1  0
 10 12  2  0
  9 13  1  0
 13 14  1  0
  5 15  2  0
 15 16  1  0
 16 17  2  0
 17 18  1  0
 18 19  2  0
 19 20  1  0
 20 21  1  0
 21 22  2  0
 22 23  1  0
 23 24  1  0
 23 25  1  0
 23 26  1  0
 22 27  1  0
 27 28  2  0
 28 29  1  0
 29 30  2  0
 30 31  1  0
 31 32  2  0
 32 33  1  0
 33 34  1  0
 34 35  1  0
 35 36  1  0
 36 37  1  0
 37 38  2  0
 37 39  1  0
 39 40  1  0
 40 41  1  0
 40 42  1  0
 40 43  1  0
 36 44  1  0
 44 45  1  0
 32 46  1  0
 46 47  2  0
 47 48  1  0
 48 49  1  0
 27 50  1  0
 17  3  1  0
 50 19  1  0
 14  6  1  0
 47 29  1  0
 45 33  1  0
  1 51  1  0
  1 52  1  0
  1 53  1  0
  4 54  1  0
  7 55  1  0
  7 56  1  0
  8 57  1  0
  8 58  1  0
 11 59  1  0
 11 60  1  0
 11 61  1  0
 13 62  1  0
 13 63  1  0
 14 64  1  0
 14 65  1  0
 15 66  1  0
 16 67  1  0
 20 68  1  0
 21 69  1  0
 30 70  1  0
 31 71  1  0
 34 72  1  0
 34 73  1  0
 35 74  1  0
 35 75  1  0
 41 76  1  0
 41 77  1  0
 41 78  1  0
 42 79  1  0
 42 80  1  0
 42 81  1  0
 43 82  1  0
 43 83  1  0
 43 84  1  0
 44 85  1  0
 44 86  1  0
 45 87  1  0
 45 88  1  0
 46 89  1  0
 49 90  1  0
 49 91  1  0
 49 92  1  0
 50 93  1  0
M  END
>  <smiles>  (75) 
COc1cc(N2CCN(C(C)=O)CC2)ccc1N=c1[nH]cc(C(F)(F)F)c(=Nc2ccc(N3CCN(C(=O)OC(C)(C)C)CC3)cc2OC)[nH]1

>  <score_type>  (75) 
oracle

>  <origin>  (75) 
adg

>  <m_score__min__energy>  (75) 
-9.3800000000000008

>  <m_primary>  (75) 
energy

$$$$
75:0
     RDKit          3D

 61 63  0  0  0  0  0  0  0  0999 V2000
   55.9180   30.6120   52.3680 C   0  0  0  0  0  0  0  0  0  0  0  0
   56.9640   29.9820   51.6360 O   0  0  0  0  0  0  0  0  0  0  0  0
   58.2520   30.5140   51.4790 C   0  0  0  0  0  0  0  0  0  0  0  0
   59.3620   30.0220   52.1880 C   0  0  0  0  0  0  0  0  0  0  0  0
   60.6230   30.5830   51.9940 C   0  0  0  0  0  0  0  0  0  0  0  0
   60.8050   31.6450   51.0940 C   0  0  0  0  0  0  0  0  0  0  0  0
   62.1920   32.2080   50.9060 C   0  0  0  0  0  0  0  0  0  0  0  0
   62.3690   32.6610   49.5070 N   0  0  0  0  0  0  0  0  0  0  0  0
   63.5370   33.5520   49.3980 C   0  0  0  0  0  0  0  0  0  0  0  0
   62.5180   31.5150   48.5860 C   0  0  0  0  0  0  0  0  0  0  0  0
   61.6160   31.6830   47.4000 C   0  0  0  0  0  0  0  0  0  0  0  0
   61.5570   30.7720   46.5300 O   0  0  0  0  0  0  0  0  0  0  0  0
   60.8550   32.8900   47.2460 N   0  0  0  0  0  0  0  0  0  0  0  0
   59.6830   33.0000   46.4210 C   0  0  0  0  0  0  0  0  0  0  0  0
   59.1730   34.2540   46.0390 C   0  0  0  0  0  0  0  0  0  0  0  0
   58.0590   34.3350   45.1990 C   0  0  0  0  0  0  0  0  0  0  0  0
   57.4510   33.1710   44.7260 C   0  0  0  0  0  0  0  0  0  0  0  0
   57.9630   31.9150   45.0800 C   0  0  0  0  0  0  0  0  0  0  0  0
   57.2180   30.4410   44.4570 S   0  0  0  0  0  0  0  0  0  0  0  0
   57.3070   30.4360   42.9560 O   0  0  0  0  0  0  0  0  0  0  0  0
   55.7630   30.4280   44.8360 O   0  0  0  0  0  0  0  0  0  0  0  0
   57.9910   29.0090   45.0890 N   0  0  0  0  0  0  0  0  0  0  0  0
   59.4410   29.0550   44.8510 C   0  0  0  0  0  0  0  0  0  0  0  0
   60.1100   27.7960   45.4430 C   0  0  0  0  0  0  0  0  0  0  0  0
   59.1620   26.8370   45.8800 O   0  0  0  0  0  0  0  0  0  0  0  0
   58.2500   26.5540   44.8360 C   0  0  0  0  0  0  0  0  0  0  0  0
   57.4130   27.8000   44.4780 C   0  0  0  0  0  0  0  0  0  0  0  0
   59.0790   31.8360   45.9250 C   0  0  0  0  0  0  0  0  0  0  0  0
   59.7000   32.1450   50.3730 C   0  0  0  0  0  0  0  0  0  0  0  0
   59.8950   33.1980   49.4660 O   0  0  0  0  0  0  0  0  0  0  0  0
   59.6510   34.5700   49.7550 C   0  0  0  0  0  0  0  0  0  0  0  0
   58.4290   31.5710   50.5790 C   0  0  0  0  0  0  0  0  0  0  0  0
   56.1054   30.4991   53.4460 H   0  0  0  0  0  0  0  0  0  0  0  0
   55.8836   31.6812   52.1118 H   0  0  0  0  0  0  0  0  0  0  0  0
   54.9568   30.1424   52.1118 H   0  0  0  0  0  0  0  0  0  0  0  0
   59.2348   29.1916   52.8981 H   0  0  0  0  0  0  0  0  0  0  0  0
   61.4852   30.1893   52.5522 H   0  0  0  0  0  0  0  0  0  0  0  0
   62.3343   33.0609   51.5859 H   0  0  0  0  0  0  0  0  0  0  0  0
   62.9327   31.4259   51.1289 H   0  0  0  0  0  0  0  0  0  0  0  0
   63.8887   33.8203   50.4051 H   0  0  0  0  0  0  0  0  0  0  0  0
   64.3420   33.0364   48.8537 H   0  0  0  0  0  0  0  0  0  0  0  0
   63.2525   34.4646   48.8537 H   0  0  0  0  0  0  0  0  0  0  0  0
   63.5617   31.4575   48.2434 H   0  0  0  0  0  0  0  0  0  0  0  0
   62.2453   30.5906   49.1162 H   0  0  0  0  0  0  0  0  0  0  0  0
   61.1800   33.7410   47.7600 H   0  0  0  0  0  0  0  0  0  0  0  0
   59.6529   35.1745   46.4028 H   0  0  0  0  0  0  0  0  0  0  0  0
   57.6603   35.3186   44.9099 H   0  0  0  0  0  0  0  0  0  0  0  0
   56.5678   33.2395   44.0738 H   0  0  0  0  0  0  0  0  0  0  0  0
   59.6320   29.0948   43.7684 H   0  0  0  0  0  0  0  0  0  0  0  0
   59.8596   29.9496   45.3352 H   0  0  0  0  0  0  0  0  0  0  0  0
   60.7464   27.3379   44.6716 H   0  0  0  0  0  0  0  0  0  0  0  0
   60.6996   28.1084   46.3175 H   0  0  0  0  0  0  0  0  0  0  0  0
   58.8107   26.2300   43.9468 H   0  0  0  0  0  0  0  0  0  0  0  0
   57.5680   25.7595   45.1730 H   0  0  0  0  0  0  0  0  0  0  0  0
   57.3953   27.9211   43.3848 H   0  0  0  0  0  0  0  0  0  0  0  0
   56.3920   27.6627   44.8635 H   0  0  0  0  0  0  0  0  0  0  0  0
   59.4845   30.8515   46.2014 H   0  0  0  0  0  0  0  0  0  0  0  0
   59.6250   34.7161   50.8449 H   0  0  0  0  0  0  0  0  0  0  0  0
   60.4540   35.1844   49.3217 H   0  0  0  0  0  0  0  0  0  0  0  0
   58.6854   34.8699   49.3217 H   0  0  0  0  0  0  0  0  0  0  0  0
   57.5628   31.9600   50.0236 H   0  0  0  0  0  0  0  0  0  0  0  0
  1  2  1  0
  2  3  1  0
  3  4  2  0
  4  5  1  0
  5  6  2  0
  6  7  1  0
  7  8  1  0
  8  9  1  0
  8 10  1  0
 10 11  1  0
 11 12  2  0
 11 13  1  0
 13 14  1  0
 14 15  2  0
 15 16  1  0
 16 17  2  0
 17 18  1  0
 18 19  1  0
 19 20  2  0
 19 21  2  0
 19 22  1  0
 22 23  1  0
 23 24  1  0
 24 25  1  0
 25 26  1  0
 26 27  1  0
 18 28  2  0
  6 29  1  0
 29 30  1  0
 30 31  1  0
 29 32  2  0
 32  3  1  0
 28 14  1  0
 27 22  1  0
  1 33  1  0
  1 34  1  0
  1 35  1  0
  4 36  1  0
  5 37  1  0
  7 38  1  0
  7 39  1  0
  9 40  1  0
  9 41  1  0
  9 42  1  0
 10 43  1  0
 10 44  1  0
 13 45  1  0
 15 46  1  0
 16 47  1  0
 17 48  1  0
 23 49  1  0
 23 50  1  0
 24 51  1  0
 24 52  1  0
 26 53  1  0
 26 54  1  0
 27 55  1  0
 27 56  1  0
 28 57  1  0
 31 58  1  0
 31 59  1  0
 31 60  1  0
 32 61  1  0
M  END
>  <UniqueID>  (76) 
68

>  <SMILES>  (76) 
COc1ccc(CN(C)CC(=O)Nc2cccc(S(=O)(=O)N3CCOCC3)c2)c(OC)c1

>  <Energy>  (76) 
69.72128238269464

>  <Genealogy>  (76) 
COc1ccc(CN(C)CC(=O)Nc2cccc(S(=O)(=O)N3CCOCC3)c2)c(OC)c1 (3D coordinates assigned)
COc1ccc(CN(C)CC(=O)Nc2cccc(S(=O)(=O)N3CCOCC3)c2)c(OC)c1 (nonaromatic ring conformer: 69.72128238269464 kcal/mol)

>  <smiles>  (76) 
COc1ccc(CN(C)CC(=O)Nc2cccc(S(=O)(=O)N3CCOCC3)c2)c(OC)c1

>  <score_type>  (76) 
oracle

>  <origin>  (76) 
adg

>  <m_score__min__energy>  (76) 
-8.1600000000000001

>  <m_primary>  (76) 
energy

$$$$
76:0
     RDKit          3D

 51 54  0  0  0  0  0  0  0  0999 V2000
   57.6808   32.2306   42.9290 H   0  0  0  0  0  0  0  0  0  0  0  0
   57.3550   31.9870   43.9510 C   0  0  0  0  0  0  0  0  0  0  0  0
   57.0520   30.5750   44.2620 C   0  0  0  0  0  0  0  0  0  0  0  0
   55.9320   30.0980   43.9390 O   0  0  0  0  0  0  0  0  0  0  0  0
   58.0530   29.7350   44.8490 N   0  0  0  0  0  0  0  0  0  0  0  0
   58.7350   29.9540   46.0900 C   0  0  0  0  0  0  0  0  0  0  0  0
   58.1840   29.4040   47.2540 C   0  0  0  0  0  0  0  0  0  0  0  0
   57.1905   28.9332   47.2171 H   0  0  0  0  0  0  0  0  0  0  0  0
   58.8850   29.4480   48.4620 C   0  0  0  0  0  0  0  0  0  0  0  0
   58.4450   29.0072   49.3687 H   0  0  0  0  0  0  0  0  0  0  0  0
   60.1460   30.0520   48.5200 C   0  0  0  0  0  0  0  0  0  0  0  0
   61.0610   30.0260   50.0260 S   0  0  0  0  0  0  0  0  0  0  0  0
   62.1970   31.0090   49.9600 O   0  0  0  0  0  0  0  0  0  0  0  0
   61.6150   28.6450   50.2310 O   0  0  0  0  0  0  0  0  0  0  0  0
   60.0470   30.4290   51.3760 N   0  0  0  0  0  0  0  0  0  0  0  0
   59.5700   31.6120   51.6230 C   0  0  0  0  0  0  0  0  0  0  0  0
   58.2930   31.8920   52.6740 S   0  0  0  0  0  0  0  0  0  0  0  0
   58.2810   33.5520   52.3800 C   0  0  0  0  0  0  0  0  0  0  0  0
   57.5976   34.2834   52.8360 H   0  0  0  0  0  0  0  0  0  0  0  0
   59.2850   33.8360   51.4610 C   0  0  0  0  0  0  0  0  0  0  0  0
   59.4826   34.8547   51.0959 H   0  0  0  0  0  0  0  0  0  0  0  0
   60.0040   32.7580   51.0480 N   0  0  0  0  0  0  0  0  0  0  0  0
   60.7880   32.8340   50.3660 H   0  0  0  0  0  0  0  0  0  0  0  0
   60.6880   30.6360   47.3680 C   0  0  0  0  0  0  0  0  0  0  0  0
   61.6617   31.1453   47.4180 H   0  0  0  0  0  0  0  0  0  0  0  0
   59.9960   30.5740   46.1550 C   0  0  0  0  0  0  0  0  0  0  0  0
   60.4391   31.0115   45.2482 H   0  0  0  0  0  0  0  0  0  0  0  0
   57.2580   32.9930   44.8370 C   0  0  0  0  0  0  0  0  0  0  0  0
   56.3761   33.6485   44.7853 H   0  0  0  0  0  0  0  0  0  0  0  0
   58.2710   33.2660   45.8760 C   0  0  0  0  0  0  0  0  0  0  0  0
   59.4910   33.8740   45.5420 C   0  0  0  0  0  0  0  0  0  0  0  0
   59.7469   34.0443   44.4858 H   0  0  0  0  0  0  0  0  0  0  0  0
   60.3820   34.2640   46.5450 C   0  0  0  0  0  0  0  0  0  0  0  0
   61.3295   34.7543   46.2770 H   0  0  0  0  0  0  0  0  0  0  0  0
   60.0700   34.0310   47.8980 C   0  0  0  0  0  0  0  0  0  0  0  0
   60.8840   34.4960   48.9410 O   0  0  0  0  0  0  0  0  0  0  0  0
   62.1760   34.0360   49.2270 C   0  0  0  0  0  0  0  0  0  0  0  0
   62.9450   33.3600   48.2640 C   0  0  0  0  0  0  0  0  0  0  0  0
   62.5409   33.1973   47.2539 H   0  0  0  0  0  0  0  0  0  0  0  0
   64.2230   32.8940   48.5880 C   0  0  0  0  0  0  0  0  0  0  0  0
   64.8212   32.3616   47.8339 H   0  0  0  0  0  0  0  0  0  0  0  0
   64.7410   33.1040   49.8690 C   0  0  0  0  0  0  0  0  0  0  0  0
   65.7525   32.7506   50.1178 H   0  0  0  0  0  0  0  0  0  0  0  0
   63.9740   33.7630   50.8340 C   0  0  0  0  0  0  0  0  0  0  0  0
   64.3801   33.9238   51.8436 H   0  0  0  0  0  0  0  0  0  0  0  0
   62.6900   34.2180   50.5160 C   0  0  0  0  0  0  0  0  0  0  0  0
   62.0818   34.7209   51.2822 H   0  0  0  0  0  0  0  0  0  0  0  0
   58.8780   33.3740   48.2210 C   0  0  0  0  0  0  0  0  0  0  0  0
   58.6404   33.1635   49.2742 H   0  0  0  0  0  0  0  0  0  0  0  0
   57.9850   32.9820   47.2180 C   0  0  0  0  0  0  0  0  0  0  0  0
   57.0587   32.4510   47.4827 H   0  0  0  0  0  0  0  0  0  0  0  0
  1  2  1  0
  2  3  1  0
  3  4  2  0
  3  5  1  0
  5  6  1  0
  6  7  2  0
  7  8  1  0
  7  9  1  0
  9 10  1  0
  9 11  2  0
 11 12  1  0
 12 13  2  0
 12 14  2  0
 12 15  1  0
 15 16  2  0
 16 17  1  0
 17 18  1  0
 18 19  1  0
 18 20  2  0
 20 21  1  0
 20 22  1  0
 22 23  1  0
 11 24  1  0
 24 25  1  0
 24 26  2  0
 26 27  1  0
  2 28  2  3
 28 29  1  0
 28 30  1  0
 30 31  2  0
 31 32  1  0
 31 33  1  0
 33 34  1  0
 33 35  2  0
 35 36  1  0
 36 37  1  0
 37 38  2  0
 38 39  1  0
 38 40  1  0
 40 41  1  0
 40 42  2  0
 42 43  1  0
 42 44  1  0
 44 45  1  0
 44 46  2  0
 46 47  1  0
 35 48  1  0
 48 49  1  0
 48 50  2  0
 50 51  1  0
 26  6  1  0
 50 30  1  0
 22 16  1  0
 46 37  1  0
M  CHG  1   5  -1
M  END
>  <UniqueID>  (77) 
69

>  <SMILES>  (77) 
O=C(C=Cc1ccc(Oc2ccccc2)cc1)[N-]c1ccc(S(=O)(=O)/N=c2\[nH]ccs2)cc1

>  <Energy>  (77) 
102.25199892139473

>  <Genealogy>  (77) 
O=C(C=Cc1ccc(Oc2ccccc2)cc1)[N-]c1ccc(S(=O)(=O)N=c2[nH]ccs2)cc1 (protonated)
O=C(C=Cc1ccc(Oc2ccccc2)cc1)[N-]c1ccc(S(=O)(=O)/N=c2\[nH]ccs2)cc1 (cis-trans isomerization)
O=C(C=Cc1ccc(Oc2ccccc2)cc1)[N-]c1ccc(S(=O)(=O)/N=c2\[nH]ccs2)cc1 (3D coordinates assigned)
O=C(C=Cc1ccc(Oc2ccccc2)cc1)[N-]c1ccc(S(=O)(=O)/N=c2\[nH]ccs2)cc1 (optimized conformer: 102.25199892139473 kcal/mol)

>  <smiles>  (77) 
O=C(C=Cc1ccc(Oc2ccccc2)cc1)Nc1ccc(S(=O)(=O)N=c2[nH]ccs2)cc1

>  <score_type>  (77) 
oracle

>  <origin>  (77) 
adg

>  <m_score__min__energy>  (77) 
-10.31

>  <m_primary>  (77) 
energy

$$$$
77:0
     RDKit          3D

 55 58  0  0  0  0  0  0  0  0999 V2000
   61.9830   30.8660   49.4090 C   0  0  0  0  0  0  0  0  0  0  0  0
   62.0610   31.9660   48.3920 C   0  0  0  0  0  0  0  0  0  0  0  0
   63.2320   32.1520   47.6410 C   0  0  0  0  0  0  0  0  0  0  0  0
   63.2920   33.1570   46.6700 C   0  0  0  0  0  0  0  0  0  0  0  0
   62.1810   33.9700   46.4310 C   0  0  0  0  0  0  0  0  0  0  0  0
   61.0000   33.7840   47.1650 C   0  0  0  0  0  0  0  0  0  0  0  0
   59.5970   34.8140   46.8690 S   0  0  0  0  0  0  0  0  0  0  0  0
   60.0120   35.9900   46.0280 O   0  0  0  0  0  0  0  0  0  0  0  0
   59.0830   35.3400   48.1810 O   0  0  0  0  0  0  0  0  0  0  0  0
   58.3190   33.9410   46.0550 N   0  0  0  0  0  0  0  0  0  0  0  0
   58.6410   33.7750   44.6200 C   0  0  0  0  0  0  0  0  0  0  0  0
   57.7650   32.6940   43.9810 C   0  0  0  0  0  0  0  0  0  0  0  0
   58.0500   31.3030   44.6090 C   0  0  0  0  0  0  0  0  0  0  0  0
   56.8570   30.3750   44.5000 C   0  0  0  0  0  0  0  0  0  0  0  0
   55.6830   30.8350   44.4580 O   0  0  0  0  0  0  0  0  0  0  0  0
   57.0690   28.9660   44.3690 N   0  0  0  0  0  0  0  0  0  0  0  0
   56.5170   27.9890   45.2980 C   0  0  0  0  0  0  0  0  0  0  0  0
   57.6030   27.0260   45.7140 C   0  0  0  0  0  0  0  0  0  0  0  0
   57.6700   25.7730   45.0790 C   0  0  0  0  0  0  0  0  0  0  0  0
   58.6650   24.8560   45.4130 C   0  0  0  0  0  0  0  0  0  0  0  0
   59.6170   25.1700   46.3810 C   0  0  0  0  0  0  0  0  0  0  0  0
   59.5870   26.4140   47.0240 C   0  0  0  0  0  0  0  0  0  0  0  0
   60.5600   26.7290   47.9860 C   0  0  0  0  0  0  0  0  0  0  0  0
   60.5450   27.9700   48.6240 C   0  0  0  0  0  0  0  0  0  0  0  0
   59.5590   28.9050   48.3100 C   0  0  0  0  0  0  0  0  0  0  0  0
   58.5800   28.6070   47.3580 C   0  0  0  0  0  0  0  0  0  0  0  0
   58.5760   27.3590   46.6970 C   0  0  0  0  0  0  0  0  0  0  0  0
   58.5550   31.4320   46.0730 C   0  0  0  0  0  0  0  0  0  0  0  0
   57.9790   32.6790   46.7620 C   0  0  0  0  0  0  0  0  0  0  0  0
   60.9410   32.7730   48.1370 C   0  0  0  0  0  0  0  0  0  0  0  0
   62.0137   31.2985   50.4200 H   0  0  0  0  0  0  0  0  0  0  0  0
   61.0432   30.3100   49.2764 H   0  0  0  0  0  0  0  0  0  0  0  0
   62.8350   30.1829   49.2764 H   0  0  0  0  0  0  0  0  0  0  0  0
   64.1047   31.5058   47.8165 H   0  0  0  0  0  0  0  0  0  0  0  0
   64.2163   33.3077   46.0930 H   0  0  0  0  0  0  0  0  0  0  0  0
   62.2325   34.7580   45.6652 H   0  0  0  0  0  0  0  0  0  0  0  0
   58.4703   34.7295   44.1006 H   0  0  0  0  0  0  0  0  0  0  0  0
   59.6940   33.4698   44.5308 H   0  0  0  0  0  0  0  0  0  0  0  0
   56.7067   32.9495   44.1380 H   0  0  0  0  0  0  0  0  0  0  0  0
   57.9950   32.6468   42.9063 H   0  0  0  0  0  0  0  0  0  0  0  0
   58.8605   30.8430   44.0246 H   0  0  0  0  0  0  0  0  0  0  0  0
   56.1253   28.5069   46.1859 H   0  0  0  0  0  0  0  0  0  0  0  0
   55.7017   27.4357   44.8091 H   0  0  0  0  0  0  0  0  0  0  0  0
   56.9281   25.5135   44.3094 H   0  0  0  0  0  0  0  0  0  0  0  0
   58.6990   23.8786   44.9095 H   0  0  0  0  0  0  0  0  0  0  0  0
   60.3954   24.4377   46.6413 H   0  0  0  0  0  0  0  0  0  0  0  0
   61.3383   25.9936   48.2381 H   0  0  0  0  0  0  0  0  0  0  0  0
   61.3115   28.2110   49.3752 H   0  0  0  0  0  0  0  0  0  0  0  0
   59.5517   29.8825   48.8144 H   0  0  0  0  0  0  0  0  0  0  0  0
   57.8055   29.3514   47.1214 H   0  0  0  0  0  0  0  0  0  0  0  0
   58.2478   30.5387   46.6366 H   0  0  0  0  0  0  0  0  0  0  0  0
   59.6508   31.5256   46.0521 H   0  0  0  0  0  0  0  0  0  0  0  0
   56.8839   32.5834   46.8018 H   0  0  0  0  0  0  0  0  0  0  0  0
   58.4226   32.7346   47.7671 H   0  0  0  0  0  0  0  0  0  0  0  0
   60.0113   32.6121   48.7025 H   0  0  0  0  0  0  0  0  0  0  0  0
  1  2  1  0
  2  3  2  0
  3  4  1  0
  4  5  2  0
  5  6  1  0
  6  7  1  0
  7  8  2  0
  7  9  2  0
  7 10  1  0
 10 11  1  0
 11 12  1  0
 12 13  1  0
 13 14  1  0
 14 15  2  0
 14 16  1  0
 16 17  1  0
 17 18  1  0
 18 19  2  0
 19 20  1  0
 20 21  2  0
 21 22  1  0
 22 23  2  0
 23 24  1  0
 24 25  2  0
 25 26  1  0
 26 27  2  0
 13 28  1  0
 28 29  1  0
  6 30  2  0
 30  2  1  0
 29 10  1  0
 27 18  1  0
 27 22  1  0
  1 31  1  0
  1 32  1  0
  1 33  1  0
  3 34  1  0
  4 35  1  0
  5 36  1  0
 11 37  1  0
 11 38  1  0
 12 39  1  0
 12 40  1  0
 13 41  1  0
 17 42  1  0
 17 43  1  0
 19 44  1  0
 20 45  1  0
 21 46  1  0
 23 47  1  0
 24 48  1  0
 25 49  1  0
 26 50  1  0
 28 51  1  0
 28 52  1  0
 29 53  1  0
 29 54  1  0
 30 55  1  0
M  CHG  1  16  -1
M  END
>  <UniqueID>  (78) 
70

>  <SMILES>  (78) 
Cc1cccc(S(=O)(=O)N2CCC(C(=O)[N-]Cc3cccc4ccccc34)CC2)c1

>  <Energy>  (78) 
67.42673062008507

>  <Genealogy>  (78) 
Cc1cccc(S(=O)(=O)N2CCC(C(=O)[N-]Cc3cccc4ccccc34)CC2)c1 (protonated)
Cc1cccc(S(=O)(=O)N2CCC(C(=O)[N-]Cc3cccc4ccccc34)CC2)c1 (3D coordinates assigned)
Cc1cccc(S(=O)(=O)N2CCC(C(=O)[N-]Cc3cccc4ccccc34)CC2)c1 (nonaromatic ring conformer: 67.42673062008507 kcal/mol)

>  <smiles>  (78) 
Cc1cccc(S(=O)(=O)N2CCC(C(=O)NCc3cccc4ccccc34)CC2)c1

>  <score_type>  (78) 
oracle

>  <origin>  (78) 
adg

>  <m_score__min__energy>  (78) 
-11.41

>  <m_primary>  (78) 
energy

$$$$
78:0
     RDKit          3D

 43 45  0  0  0  0  0  0  0  0999 V2000
   60.2184   33.3348   48.9695 H   0  0  0  0  0  0  0  0  0  0  0  0
   60.2940   32.3820   48.4250 C   0  0  0  0  0  0  0  0  0  0  0  0
   59.2200   31.4880   48.4290 C   0  0  0  0  0  0  0  0  0  0  0  0
   58.2988   31.7391   48.9753 H   0  0  0  0  0  0  0  0  0  0  0  0
   59.3140   30.2750   47.7400 C   0  0  0  0  0  0  0  0  0  0  0  0
   58.4655   29.5749   47.7457 H   0  0  0  0  0  0  0  0  0  0  0  0
   60.4880   29.9460   47.0400 C   0  0  0  0  0  0  0  0  0  0  0  0
   60.5850   28.6980   46.3240 N   0  0  0  0  0  0  0  0  0  0  0  0
   61.0670   28.6830   44.9410 C   0  0  0  0  0  0  0  0  0  0  0  0
   62.1665   28.6488   44.9362 H   0  0  0  0  0  0  0  0  0  0  0  0
   60.6703   27.7968   44.4240 H   0  0  0  0  0  0  0  0  0  0  0  0
   60.7262   29.5922   44.4240 H   0  0  0  0  0  0  0  0  0  0  0  0
   59.9410   27.4930   46.8650 C   0  0  0  0  0  0  0  0  0  0  0  0
   60.0013   27.5097   47.9632 H   0  0  0  0  0  0  0  0  0  0  0  0
   60.4569   26.6026   46.4764 H   0  0  0  0  0  0  0  0  0  0  0  0
   58.4970   27.4490   46.4460 C   0  0  0  0  0  0  0  0  0  0  0  0
   57.7330   26.3020   46.6830 C   0  0  0  0  0  0  0  0  0  0  0  0
   58.1705   25.4306   47.1921 H   0  0  0  0  0  0  0  0  0  0  0  0
   56.4050   26.2870   46.2600 C   0  0  0  0  0  0  0  0  0  0  0  0
   55.6830   25.2790   46.4760 O   0  0  0  0  0  0  0  0  0  0  0  0
   55.8910   27.3600   45.6110 N   0  0  0  0  0  0  0  0  0  0  0  0
   56.6440   28.4600   45.3490 C   0  0  0  0  0  0  0  0  0  0  0  0
   56.0910   29.4560   44.7160 N   0  0  0  0  0  0  0  0  0  0  0  0
   56.7620   30.5310   44.0400 C   0  0  0  0  0  0  0  0  0  0  0  0
   56.7720   30.6110   42.6380 C   0  0  0  0  0  0  0  0  0  0  0  0
   56.2947   29.8204   42.0404 H   0  0  0  0  0  0  0  0  0  0  0  0
   57.3860   31.6910   42.0000 C   0  0  0  0  0  0  0  0  0  0  0  0
   57.4078   31.7399   40.9013 H   0  0  0  0  0  0  0  0  0  0  0  0
   57.9730   32.7100   42.7560 C   0  0  0  0  0  0  0  0  0  0  0  0
   58.4749   33.5482   42.2504 H   0  0  0  0  0  0  0  0  0  0  0  0
   57.9240   32.6670   44.1570 C   0  0  0  0  0  0  0  0  0  0  0  0
   58.5710   33.7490   44.9700 C   0  0  0  0  0  0  0  0  0  0  0  0
   58.4407   33.5311   46.0403 H   0  0  0  0  0  0  0  0  0  0  0  0
   59.6442   33.7937   44.7329 H   0  0  0  0  0  0  0  0  0  0  0  0
   58.1025   34.7156   44.7329 H   0  0  0  0  0  0  0  0  0  0  0  0
   57.3180   31.5720   44.7940 C   0  0  0  0  0  0  0  0  0  0  0  0
   57.2798   31.5317   45.8926 H   0  0  0  0  0  0  0  0  0  0  0  0
   57.9440   28.5040   45.7810 N   0  0  0  0  0  0  0  0  0  0  0  0
   58.5270   29.3580   45.6410 H   0  0  0  0  0  0  0  0  0  0  0  0
   61.5620   30.8530   47.0400 C   0  0  0  0  0  0  0  0  0  0  0  0
   62.4852   30.6077   46.4946 H   0  0  0  0  0  0  0  0  0  0  0  0
   61.4630   32.0660   47.7300 C   0  0  0  0  0  0  0  0  0  0  0  0
   62.3070   32.7715   47.7250 H   0  0  0  0  0  0  0  0  0  0  0  0
  1  2  1  0
  2  3  2  0
  3  4  1  0
  3  5  1  0
  5  6  1  0
  5  7  2  0
  7  8  1  0
  8  9  1  0
  9 10  1  0
  9 11  1  0
  9 12  1  0
  8 13  1  0
 13 14  1  0
 13 15  1  0
 13 16  1  0
 16 17  2  0
 17 18  1  0
 17 19  1  0
 19 20  2  0
 19 21  1  0
 21 22  1  0
 22 23  2  0
 23 24  1  0
 24 25  2  0
 25 26  1  0
 25 27  1  0
 27 28  1  0
 27 29  2  0
 29 30  1  0
 29 31  1  0
 31 32  1  0
 32 33  1  0
 32 34  1  0
 32 35  1  0
 31 36  2  0
 36 37  1  0
 22 38  1  0
 38 39  1  0
  7 40  1  0
 40 41  1  0
 40 42  2  0
 42 43  1  0
 42  2  1  0
 38 16  1  0
 36 24  1  0
M  CHG  1  21  -1
M  END
>  <UniqueID>  (79) 
71

>  <SMILES>  (79) 
Cc1cccc(/N=c2/[n-]c(=O)cc(CN(C)c3ccccc3)[nH]2)c1

>  <Energy>  (79) 
53.026901308059735

>  <Genealogy>  (79) 
Cc1cccc(N=c2[n-]c(=O)cc(CN(C)c3ccccc3)[nH]2)c1 (protonated)
Cc1cccc(/N=c2/[n-]c(=O)cc(CN(C)c3ccccc3)[nH]2)c1 (cis-trans isomerization)
Cc1cccc(/N=c2/[n-]c(=O)cc(CN(C)c3ccccc3)[nH]2)c1 (3D coordinates assigned)
Cc1cccc(/N=c2/[n-]c(=O)cc(CN(C)c3ccccc3)[nH]2)c1 (optimized conformer: 53.026901308059735 kcal/mol)

>  <smiles>  (79) 
Cc1cccc(N=c2[nH]c(CN(C)c3ccccc3)cc(=O)[nH]2)c1

>  <score_type>  (79) 
oracle

>  <origin>  (79) 
adg

>  <m_score__min__energy>  (79) 
-9.5500000000000007

>  <m_primary>  (79) 
energy

$$$$
79:0
     RDKit          3D

 38 40  0  0  0  0  0  0  0  0999 V2000
   59.5850   26.5690   45.7210 O   0  0  0  0  0  0  0  0  0  0  0  0
   58.3310   26.6250   45.6090 C   0  0  0  0  0  0  0  0  0  0  0  0
   57.7360   27.3970   44.4660 C   0  0  0  0  0  0  0  0  0  0  0  0
   57.6490   28.8460   44.8260 C   0  0  0  0  0  0  0  0  0  0  0  0
   58.9630   29.8820   45.0050 S   0  0  0  0  0  0  0  0  0  0  0  0
   57.9900   31.2370   45.2770 C   0  0  0  0  0  0  0  0  0  0  0  0
   58.4710   32.5750   45.5190 N   0  0  0  0  0  0  0  0  0  0  0  0
   57.7460   33.7280   44.9710 C   0  0  0  0  0  0  0  0  0  0  0  0
   58.6710   34.9460   44.8730 C   0  0  0  0  0  0  0  0  0  0  0  0
   59.3340   35.1740   46.1000 O   0  0  0  0  0  0  0  0  0  0  0  0
   60.2130   34.0990   46.3680 C   0  0  0  0  0  0  0  0  0  0  0  0
   59.4300   32.8050   46.6070 C   0  0  0  0  0  0  0  0  0  0  0  0
   56.6760   30.9200   45.2170 N   0  0  0  0  0  0  0  0  0  0  0  0
   56.4860   29.5990   44.9630 C   0  0  0  0  0  0  0  0  0  0  0  0
   55.2140   29.0530   44.8480 O   0  0  0  0  0  0  0  0  0  0  0  0
   57.5230   25.8230   46.4780 N   0  0  0  0  0  0  0  0  0  0  0  0
   56.4990   24.9050   46.0670 C   0  0  0  0  0  0  0  0  0  0  0  0
   56.8100   23.5640   45.7780 C   0  0  0  0  0  0  0  0  0  0  0  0
   55.8150   22.6870   45.3360 C   0  0  0  0  0  0  0  0  0  0  0  0
   54.5070   23.1450   45.1590 C   0  0  0  0  0  0  0  0  0  0  0  0
   54.1950   24.4840   45.4130 C   0  0  0  0  0  0  0  0  0  0  0  0
   55.1840   25.3690   45.8600 C   0  0  0  0  0  0  0  0  0  0  0  0
   54.8370   26.7000   46.0980 O   0  0  0  0  0  0  0  0  0  0  0  0
   58.3710   27.2792   43.5756 H   0  0  0  0  0  0  0  0  0  0  0  0
   56.7270   27.0136   44.2542 H   0  0  0  0  0  0  0  0  0  0  0  0
   57.3710   33.4765   43.9679 H   0  0  0  0  0  0  0  0  0  0  0  0
   56.9069   33.9712   45.6394 H   0  0  0  0  0  0  0  0  0  0  0  0
   59.4193   34.7679   44.0866 H   0  0  0  0  0  0  0  0  0  0  0  0
   58.0637   35.8307   44.6312 H   0  0  0  0  0  0  0  0  0  0  0  0
   60.8859   33.9602   45.5090 H   0  0  0  0  0  0  0  0  0  0  0  0
   60.7923   34.3336   47.2732 H   0  0  0  0  0  0  0  0  0  0  0  0
   60.1329   31.9602   46.6544 H   0  0  0  0  0  0  0  0  0  0  0  0
   58.8782   32.8933   47.5545 H   0  0  0  0  0  0  0  0  0  0  0  0
   57.8419   23.2033   45.9005 H   0  0  0  0  0  0  0  0  0  0  0  0
   56.0621   21.6356   45.1274 H   0  0  0  0  0  0  0  0  0  0  0  0
   53.7228   22.4522   44.8199 H   0  0  0  0  0  0  0  0  0  0  0  0
   53.1669   24.8444   45.2609 H   0  0  0  0  0  0  0  0  0  0  0  0
   55.1460   27.4560   45.4970 H   0  0  0  0  0  0  0  0  0  0  0  0
  1  2  2  0
  2  3  1  0
  3  4  1  0
  4  5  1  0
  5  6  1  0
  6  7  1  0
  7  8  1  0
  8  9  1  0
  9 10  1  0
 10 11  1  0
 11 12  1  0
  6 13  2  0
 13 14  1  0
 14 15  1  0
  2 16  1  0
 16 17  1  0
 17 18  2  0
 18 19  1  0
 19 20  2  0
 20 21  1  0
 21 22  2  0
 22 23  1  0
 14  4  2  0
 22 17  1  0
 12  7  1  0
  3 24  1  0
  3 25  1  0
  8 26  1  0
  8 27  1  0
  9 28  1  0
  9 29  1  0
 11 30  1  0
 11 31  1  0
 12 32  1  0
 12 33  1  0
 18 34  1  0
 19 35  1  0
 20 36  1  0
 21 37  1  0
 23 38  1  0
M  CHG  2  15  -1  16  -1
M  END
>  <UniqueID>  (80) 
72

>  <SMILES>  (80) 
O=C(Cc1sc(N2CCOCC2)nc1[O-])[N-]c1ccccc1O

>  <Energy>  (80) 
74.72848968747756

>  <Genealogy>  (80) 
O=C(Cc1sc(N2CCOCC2)nc1[O-])[N-]c1ccccc1O (protonated)
O=C(Cc1sc(N2CCOCC2)nc1[O-])[N-]c1ccccc1O (3D coordinates assigned)
O=C(Cc1sc(N2CCOCC2)nc1[O-])[N-]c1ccccc1O (nonaromatic ring conformer: 74.72848968747756 kcal/mol)

>  <smiles>  (80) 
O=C(Cc1sc(N2CCOCC2)nc1O)Nc1ccccc1O

>  <score_type>  (80) 
oracle

>  <origin>  (80) 
adg

>  <m_score__min__energy>  (80) 
-13.300000000000001

>  <m_primary>  (80) 
energy

$$$$
80:0
     RDKit          3D

 45 47  0  0  0  0  0  0  0  0999 V2000
   63.5730   32.7280   47.5260 C   0  0  0  0  0  0  0  0  0  0  0  0
   62.3090   32.5000   48.2270 N   0  0  0  0  0  0  0  0  0  0  0  0
   61.5670   31.2810   48.0210 C   0  0  0  0  0  0  0  0  0  0  0  0
   61.2890   30.4250   49.0990 C   0  0  0  0  0  0  0  0  0  0  0  0
   60.5610   29.2490   48.8990 C   0  0  0  0  0  0  0  0  0  0  0  0
   60.1090   28.9130   47.6220 C   0  0  0  0  0  0  0  0  0  0  0  0
   60.3730   29.7570   46.5310 C   0  0  0  0  0  0  0  0  0  0  0  0
   59.9310   29.3950   45.2050 N   0  0  0  0  0  0  0  0  0  0  0  0
   58.8380   28.4110   45.2560 C   0  0  0  0  0  0  0  0  0  0  0  0
   57.4990   29.0560   45.0380 C   0  0  0  0  0  0  0  0  0  0  0  0
   56.2740   28.4720   45.2470 C   0  0  0  0  0  0  0  0  0  0  0  0
   55.3130   29.3290   44.8670 N   0  0  0  0  0  0  0  0  0  0  0  0
   55.9910   30.4120   44.4320 C   0  0  0  0  0  0  0  0  0  0  0  0
   57.3320   30.2820   44.5120 N   0  0  0  0  0  0  0  0  0  0  0  0
   61.1030   30.9400   46.7400 C   0  0  0  0  0  0  0  0  0  0  0  0
   61.8420   33.6130   49.4840 S   0  0  0  0  0  0  0  0  0  0  0  0
   61.4780   32.8460   50.7250 O   0  0  0  0  0  0  0  0  0  0  0  0
   62.9950   34.5220   49.8030 O   0  0  0  0  0  0  0  0  0  0  0  0
   60.4200   34.5910   48.9960 C   0  0  0  0  0  0  0  0  0  0  0  0
   59.7070   33.9910   47.8040 C   0  0  0  0  0  0  0  0  0  0  0  0
   59.9950   34.4840   46.5170 C   0  0  0  0  0  0  0  0  0  0  0  0
   59.3280   33.9840   45.3960 C   0  0  0  0  0  0  0  0  0  0  0  0
   58.3770   32.9740   45.5410 C   0  0  0  0  0  0  0  0  0  0  0  0
   58.1010   32.4520   46.8050 C   0  0  0  0  0  0  0  0  0  0  0  0
   58.7630   32.9430   47.9380 C   0  0  0  0  0  0  0  0  0  0  0  0
   58.3800   32.2030   49.4910 Cl  0  0  0  0  0  0  0  0  0  0  0  0
   64.3787   32.8733   48.2607 H   0  0  0  0  0  0  0  0  0  0  0  0
   63.8047   31.8572   46.8952 H   0  0  0  0  0  0  0  0  0  0  0  0
   63.4858   33.6249   46.8952 H   0  0  0  0  0  0  0  0  0  0  0  0
   61.6465   30.6818   50.1071 H   0  0  0  0  0  0  0  0  0  0  0  0
   60.3437   28.5867   49.7499 H   0  0  0  0  0  0  0  0  0  0  0  0
   59.5430   27.9822   47.4693 H   0  0  0  0  0  0  0  0  0  0  0  0
   59.5890   30.2520   44.7100 H   0  0  0  0  0  0  0  0  0  0  0  0
   60.7290   29.0150   44.6420 H   0  0  0  0  0  0  0  0  0  0  0  0
   59.0015   27.6557   44.4732 H   0  0  0  0  0  0  0  0  0  0  0  0
   58.8380   27.9500   46.2548 H   0  0  0  0  0  0  0  0  0  0  0  0
   56.1072   27.4657   45.6588 H   0  0  0  0  0  0  0  0  0  0  0  0
   55.4966   31.3165   44.0480 H   0  0  0  0  0  0  0  0  0  0  0  0
   61.3133   31.6063   45.8904 H   0  0  0  0  0  0  0  0  0  0  0  0
   59.7178   34.6444   49.8410 H   0  0  0  0  0  0  0  0  0  0  0  0
   60.7752   35.5928   48.7129 H   0  0  0  0  0  0  0  0  0  0  0  0
   60.7532   35.2712   46.3929 H   0  0  0  0  0  0  0  0  0  0  0  0
   59.5531   34.3873   44.3977 H   0  0  0  0  0  0  0  0  0  0  0  0
   57.8446   32.5891   44.6587 H   0  0  0  0  0  0  0  0  0  0  0  0
   57.3576   31.6484   46.9130 H   0  0  0  0  0  0  0  0  0  0  0  0
  1  2  1  0
  2  3  1  0
  3  4  2  0
  4  5  1  0
  5  6  2  0
  6  7  1  0
  7  8  1  0
  8  9  1  0
  9 10  1  0
 10 11  2  0
 11 12  1  0
 12 13  1  0
 13 14  2  0
  7 15  2  0
  2 16  1  0
 16 17  2  0
 16 18  2  0
 16 19  1  0
 19 20  1  0
 20 21  2  0
 21 22  1  0
 22 23  2  0
 23 24  1  0
 24 25  2  0
 25 26  1  0
 15  3  1  0
 25 20  1  0
 14 10  1  0
  1 27  1  0
  1 28  1  0
  1 29  1  0
  4 30  1  0
  5 31  1  0
  6 32  1  0
  8 33  1  0
  8 34  1  0
  9 35  1  0
  9 36  1  0
 11 37  1  0
 13 38  1  0
 15 39  1  0
 19 40  1  0
 19 41  1  0
 21 42  1  0
 22 43  1  0
 23 44  1  0
 24 45  1  0
M  CHG  2   8   1  12  -1
M  END
>  <UniqueID>  (81) 
73

>  <SMILES>  (81) 
CN(c1cccc([NH2+]Cc2c[n-]cn2)c1)S(=O)(=O)Cc1ccccc1Cl

>  <Energy>  (81) 
73.07402291188903

>  <Genealogy>  (81) 
CN(c1cccc([NH2+]Cc2c[n-]cn2)c1)S(=O)(=O)Cc1ccccc1Cl (protonated)
CN(c1cccc([NH2+]Cc2c[n-]cn2)c1)S(=O)(=O)Cc1ccccc1Cl (3D coordinates assigned)
CN(c1cccc([NH2+]Cc2c[n-]cn2)c1)S(=O)(=O)Cc1ccccc1Cl (optimized conformer: 73.07402291188903 kcal/mol)

>  <smiles>  (81) 
CN(c1cccc(NCc2c[nH]cn2)c1)S(=O)(=O)Cc1ccccc1Cl

>  <score_type>  (81) 
oracle

>  <origin>  (81) 
adg

>  <m_score__min__energy>  (81) 
-8.7100000000000009

>  <m_primary>  (81) 
energy

$$$$
81:0
     RDKit          3D

 28 28  0  0  0  0  0  0  0  0999 V2000
   53.5760   24.0010   45.0570 N   0  0  0  0  0  0  0  0  0  0  0  0
   54.9580   23.7750   44.7690 C   0  0  0  0  0  0  0  0  0  0  0  0
   55.2790   22.7740   44.0730 O   0  0  0  0  0  0  0  0  0  0  0  0
   56.0090   24.6940   45.2740 C   0  0  0  0  0  0  0  0  0  0  0  0
   57.3650   24.3310   45.1860 C   0  0  0  0  0  0  0  0  0  0  0  0
   58.3640   25.1830   45.6650 C   0  0  0  0  0  0  0  0  0  0  0  0
   58.0260   26.4200   46.2370 C   0  0  0  0  0  0  0  0  0  0  0  0
   59.0190   27.3160   46.7590 N   0  0  0  0  0  0  0  0  0  0  0  0
   58.7840   28.5830   47.3860 C   0  0  0  0  0  0  0  0  0  0  0  0
   58.9120   28.7210   48.6320 O   0  0  0  0  0  0  0  0  0  0  0  0
   58.4480   29.7690   46.5430 C   0  0  0  0  0  0  0  0  0  0  0  0
   58.9980   29.5240   44.8160 S   0  0  0  0  0  0  0  0  0  0  0  0
   57.3870   28.9910   44.1310 C   0  0  0  0  0  0  0  0  0  0  0  0
   56.2720   29.8300   44.6690 C   0  0  0  0  0  0  0  0  0  0  0  0
   55.1470   29.3170   44.9060 O   0  0  0  0  0  0  0  0  0  0  0  0
   56.4600   31.1920   44.8660 O   0  0  0  0  0  0  0  0  0  0  0  0
   56.6780   26.7720   46.3570 C   0  0  0  0  0  0  0  0  0  0  0  0
   55.6730   25.9260   45.8750 C   0  0  0  0  0  0  0  0  0  0  0  0
   54.3460   26.3290   45.9870 O   0  0  0  0  0  0  0  0  0  0  0  0
   52.8480   23.3750   44.6480 H   0  0  0  0  0  0  0  0  0  0  0  0
   53.2730   24.7370   45.7320 H   0  0  0  0  0  0  0  0  0  0  0  0
   57.6421   23.3665   44.7355 H   0  0  0  0  0  0  0  0  0  0  0  0
   59.4199   24.8831   45.5936 H   0  0  0  0  0  0  0  0  0  0  0  0
   57.3587   29.9218   46.5552 H   0  0  0  0  0  0  0  0  0  0  0  0
   58.9656   30.6484   46.9538 H   0  0  0  0  0  0  0  0  0  0  0  0
   57.4127   29.0864   43.0354 H   0  0  0  0  0  0  0  0  0  0  0  0
   57.2109   27.9451   44.4227 H   0  0  0  0  0  0  0  0  0  0  0  0
   56.4047   27.7241   46.8354 H   0  0  0  0  0  0  0  0  0  0  0  0
  1  2  1  0
  2  3  2  0
  2  4  1  0
  4  5  2  0
  5  6  1  0
  6  7  2  0
  7  8  1  0
  8  9  1  0
  9 10  2  0
  9 11  1  0
 11 12  1  0
 12 13  1  0
 13 14  1  0
 14 15  2  0
 14 16  1  0
  7 17  1  0
 17 18  2  0
 18 19  1  0
 18  4  1  0
  1 20  1  0
  1 21  1  0
  5 22  1  0
  6 23  1  0
 11 24  1  0
 11 25  1  0
 13 26  1  0
 13 27  1  0
 17 28  1  0
M  CHG  3   8  -1  16  -1  19  -1
M  END
>  <UniqueID>  (82) 
74

>  <SMILES>  (82) 
NC(=O)c1ccc([N-]C(=O)CSCC(=O)[O-])cc1[O-]

>  <Energy>  (82) 
27.561193462094405

>  <Genealogy>  (82) 
NC(=O)c1ccc([N-]C(=O)CSCC(=O)[O-])cc1[O-] (protonated)
NC(=O)c1ccc([N-]C(=O)CSCC(=O)[O-])cc1[O-] (3D coordinates assigned)
NC(=O)c1ccc([N-]C(=O)CSCC(=O)[O-])cc1[O-] (optimized conformer: 27.561193462094405 kcal/mol)

>  <smiles>  (82) 
NC(=O)c1ccc(NC(=O)CSCC(=O)O)cc1O

>  <score_type>  (82) 
oracle

>  <origin>  (82) 
adg

>  <m_score__min__energy>  (82) 
-13.27

>  <m_primary>  (82) 
energy

$$$$
82:0
     RDKit          3D

 48 50  0  0  0  0  0  0  0  0999 V2000
   52.7300   22.4030   46.5450 C   0  0  0  0  0  0  0  0  0  0  0  0
   53.7220   21.3120   46.9630 C   0  0  0  0  0  0  0  0  0  0  0  0
   54.2170   21.5080   48.4010 C   0  0  0  0  0  0  0  0  0  0  0  0
   54.8530   21.1530   45.9460 C   0  0  0  0  0  0  0  0  0  0  0  0
   54.9470   19.9220   45.2730 C   0  0  0  0  0  0  0  0  0  0  0  0
   55.8980   19.7180   44.2830 C   0  0  0  0  0  0  0  0  0  0  0  0
   56.7560   20.7460   43.9160 C   0  0  0  0  0  0  0  0  0  0  0  0
   56.6940   22.0050   44.5390 C   0  0  0  0  0  0  0  0  0  0  0  0
   57.6660   23.0740   44.0270 C   0  0  0  0  0  0  0  0  0  0  0  0
   58.8570   23.2600   44.9710 C   0  0  0  0  0  0  0  0  0  0  0  0
   57.0100   24.4170   43.6690 C   0  0  0  0  0  0  0  0  0  0  0  0
   55.7680   22.1940   45.6080 C   0  0  0  0  0  0  0  0  0  0  0  0
   55.7460   23.4300   46.3340 N   0  0  0  0  0  0  0  0  0  0  0  0
   56.6570   23.6810   47.4150 C   0  0  0  0  0  0  0  0  0  0  0  0
   57.3500   22.7400   47.8840 O   0  0  0  0  0  0  0  0  0  0  0  0
   56.8520   25.0040   47.9280 N   0  0  0  0  0  0  0  0  0  0  0  0
   57.0670   26.1400   47.1290 N   0  0  0  0  0  0  0  0  0  0  0  0
   58.2590   26.7370   46.8690 C   0  0  0  0  0  0  0  0  0  0  0  0
   58.0470   27.7410   45.9430 C   0  0  0  0  0  0  0  0  0  0  0  0
   58.9170   28.6370   45.3330 C   0  0  0  0  0  0  0  0  0  0  0  0
   58.3700   29.5300   44.3940 C   0  0  0  0  0  0  0  0  0  0  0  0
   56.9840   29.4850   44.0980 C   0  0  0  0  0  0  0  0  0  0  0  0
   56.4960   30.2830   43.2570 O   0  0  0  0  0  0  0  0  0  0  0  0
   56.1710   28.5770   44.7210 N   0  0  0  0  0  0  0  0  0  0  0  0
   56.7160   27.7290   45.6280 C   0  0  0  0  0  0  0  0  0  0  0  0
   56.1290   26.7270   46.3570 C   0  0  0  0  0  0  0  0  0  0  0  0
   54.7910   26.3530   46.3150 O   0  0  0  0  0  0  0  0  0  0  0  0
   52.3024   22.8733   47.4428 H   0  0  0  0  0  0  0  0  0  0  0  0
   53.2523   23.1636   45.9461 H   0  0  0  0  0  0  0  0  0  0  0  0
   51.9233   21.9552   45.9461 H   0  0  0  0  0  0  0  0  0  0  0  0
   53.1814   20.3540   46.9629 H   0  0  0  0  0  0  0  0  0  0  0  0
   53.4311   21.1968   49.1049 H   0  0  0  0  0  0  0  0  0  0  0  0
   55.1182   20.8988   48.5648 H   0  0  0  0  0  0  0  0  0  0  0  0
   54.4568   22.5690   48.5648 H   0  0  0  0  0  0  0  0  0  0  0  0
   54.2557   19.1076   45.5354 H   0  0  0  0  0  0  0  0  0  0  0  0
   55.9722   18.7387   43.7875 H   0  0  0  0  0  0  0  0  0  0  0  0
   57.4982   20.5723   43.1230 H   0  0  0  0  0  0  0  0  0  0  0  0
   58.0425   22.6777   43.0724 H   0  0  0  0  0  0  0  0  0  0  0  0
   58.5104   23.2059   46.0136 H   0  0  0  0  0  0  0  0  0  0  0  0
   59.5967   22.4665   44.7888 H   0  0  0  0  0  0  0  0  0  0  0  0
   59.3195   24.2413   44.7888 H   0  0  0  0  0  0  0  0  0  0  0  0
   56.7475   24.9545   44.5922 H   0  0  0  0  0  0  0  0  0  0  0  0
   57.7135   25.0231   43.0793 H   0  0  0  0  0  0  0  0  0  0  0  0
   56.0995   24.2347   43.0793 H   0  0  0  0  0  0  0  0  0  0  0  0
   55.1740   24.2080   45.9430 H   0  0  0  0  0  0  0  0  0  0  0  0
   59.2264   26.4678   47.3180 H   0  0  0  0  0  0  0  0  0  0  0  0
   59.9900   28.6473   45.5748 H   0  0  0  0  0  0  0  0  0  0  0  0
   59.0170   30.2628   43.8896 H   0  0  0  0  0  0  0  0  0  0  0  0
  1  2  1  0
  2  3  1  0
  2  4  1  0
  4  5  2  0
  5  6  1  0
  6  7  2  0
  7  8  1  0
  8  9  1  0
  9 10  1  0
  9 11  1  0
  8 12  2  0
 12 13  1  0
 13 14  1  0
 14 15  2  0
 14 16  1  0
 16 17  1  0
 17 18  1  0
 18 19  2  0
 19 20  1  0
 20 21  2  0
 21 22  1  0
 22 23  2  0
 22 24  1  0
 24 25  1  0
 25 26  2  0
 26 27  1  0
 12  4  1  0
 26 17  1  0
 25 19  1  0
  1 28  1  0
  1 29  1  0
  1 30  1  0
  2 31  1  0
  3 32  1  0
  3 33  1  0
  3 34  1  0
  5 35  1  0
  6 36  1  0
  7 37  1  0
  9 38  1  0
 10 39  1  0
 10 40  1  0
 10 41  1  0
 11 42  1  0
 11 43  1  0
 11 44  1  0
 13 45  1  0
 18 46  1  0
 20 47  1  0
 21 48  1  0
M  CHG  3  16  -1  24  -1  27  -1
M  END
>  <UniqueID>  (83) 
75

>  <SMILES>  (83) 
CC(C)c1cccc(C(C)C)c1NC(=O)[N-]n1cc2ccc(=O)[n-]c2c1[O-]

>  <Energy>  (83) 
100.54312452534388

>  <Genealogy>  (83) 
CC(C)c1cccc(C(C)C)c1NC(=O)[N-]n1cc2ccc(=O)[n-]c2c1[O-] (protonated)
CC(C)c1cccc(C(C)C)c1NC(=O)[N-]n1cc2ccc(=O)[n-]c2c1[O-] (3D coordinates assigned)
CC(C)c1cccc(C(C)C)c1NC(=O)[N-]n1cc2ccc(=O)[n-]c2c1[O-] (optimized conformer: 100.54312452534388 kcal/mol)

>  <smiles>  (83) 
CC(C)c1cccc(C(C)C)c1NC(=O)Nn1cc2ccc(=O)[nH]c2c1O

>  <score_type>  (83) 
oracle

>  <origin>  (83) 
adg

>  <m_score__min__energy>  (83) 
-14.77

>  <m_primary>  (83) 
energy

$$$$
83:0
     RDKit          3D

 30 32  0  0  0  0  0  0  0  0999 V2000
   56.5120   25.8400   46.0230 O   0  0  0  0  0  0  0  0  0  0  0  0
   57.4040   26.6360   46.4150 C   0  0  0  0  0  0  0  0  0  0  0  0
   58.1310   26.4830   47.6290 N   0  0  0  0  0  0  0  0  0  0  0  0
   58.9380   27.4970   47.6190 C   0  0  0  0  0  0  0  0  0  0  0  0
   59.8790   27.7810   48.6090 C   0  0  0  0  0  0  0  0  0  0  0  0
   60.7000   28.9110   48.4470 C   0  0  0  0  0  0  0  0  0  0  0  0
   60.5730   29.7310   47.3060 C   0  0  0  0  0  0  0  0  0  0  0  0
   61.6120   31.1320   47.1180 Cl  0  0  0  0  0  0  0  0  0  0  0  0
   59.6200   29.4320   46.3180 C   0  0  0  0  0  0  0  0  0  0  0  0
   58.8080   28.3090   46.5010 C   0  0  0  0  0  0  0  0  0  0  0  0
   57.8550   27.8280   45.7140 C   0  0  0  0  0  0  0  0  0  0  0  0
   57.4170   28.3360   44.3700 C   0  0  0  0  0  0  0  0  0  0  0  0
   56.6370   29.6190   44.4990 C   0  0  0  0  0  0  0  0  0  0  0  0
   55.4170   29.5650   44.8220 O   0  0  0  0  0  0  0  0  0  0  0  0
   57.2730   30.9440   44.2970 C   0  0  0  0  0  0  0  0  0  0  0  0
   57.5430   31.4380   43.0050 C   0  0  0  0  0  0  0  0  0  0  0  0
   58.1440   32.6890   42.8370 C   0  0  0  0  0  0  0  0  0  0  0  0
   58.4860   33.4590   43.9490 C   0  0  0  0  0  0  0  0  0  0  0  0
   58.2330   32.9770   45.2370 C   0  0  0  0  0  0  0  0  0  0  0  0
   58.7060   34.0290   46.7590 Br  0  0  0  0  0  0  0  0  0  0  0  0
   57.6340   31.7250   45.4110 C   0  0  0  0  0  0  0  0  0  0  0  0
   59.9764   27.1364   49.4950 H   0  0  0  0  0  0  0  0  0  0  0  0
   61.4471   29.1576   49.2158 H   0  0  0  0  0  0  0  0  0  0  0  0
   59.5156   30.0647   45.4243 H   0  0  0  0  0  0  0  0  0  0  0  0
   58.3060   28.5177   43.7482 H   0  0  0  0  0  0  0  0  0  0  0  0
   56.7672   27.5789   43.9068 H   0  0  0  0  0  0  0  0  0  0  0  0
   57.2792   30.8355   42.1233 H   0  0  0  0  0  0  0  0  0  0  0  0
   58.3480   33.0675   41.8245 H   0  0  0  0  0  0  0  0  0  0  0  0
   58.9545   34.4449   43.8126 H   0  0  0  0  0  0  0  0  0  0  0  0
   57.4435   31.3477   46.4266 H   0  0  0  0  0  0  0  0  0  0  0  0
  1  2  2  0
  2  3  1  0
  3  4  2  0
  4  5  1  0
  5  6  2  0
  6  7  1  0
  7  8  1  0
  7  9  2  0
  9 10  1  0
 10 11  2  0
 11 12  1  0
 12 13  1  0
 13 14  2  0
 13 15  1  0
 15 16  2  0
 16 17  1  0
 17 18  2  0
 18 19  1  0
 19 20  1  0
 19 21  2  0
 11  2  1  0
 21 15  1  0
 10  4  1  0
  5 22  1  0
  6 23  1  0
  9 24  1  0
 12 25  1  0
 12 26  1  0
 16 27  1  0
 17 28  1  0
 18 29  1  0
 21 30  1  0
M  END
>  <UniqueID>  (84) 
76

>  <SMILES>  (84) 
O=C1N=c2ccc(Cl)cc2=C1CC(=O)c1cccc(Br)c1

>  <Energy>  (84) 
66.07832829770969

>  <Genealogy>  (84) 
O=C1N=c2ccc(Cl)cc2=C1CC(=O)c1cccc(Br)c1 (3D coordinates assigned)
O=C1N=c2ccc(Cl)cc2=C1CC(=O)c1cccc(Br)c1 (nonaromatic ring conformer: 66.07832829770969 kcal/mol)

>  <smiles>  (84) 
O=C1N=c2ccc(Cl)cc2=C1CC(=O)c1cccc(Br)c1

>  <score_type>  (84) 
oracle

>  <origin>  (84) 
adg

>  <m_score__min__energy>  (84) 
-8.4900000000000002

>  <m_primary>  (84) 
energy

$$$$
84:0
     RDKit          3D

 56 59  0  0  1  0  0  0  0  0999 V2000
   57.7760   32.0050   42.0570 C   0  0  0  0  0  0  0  0  0  0  0  0
   57.0380   31.5350   43.2160 N   0  0  0  0  0  0  0  0  0  0  0  0
   56.9870   30.1090   43.2430 C   0  0  0  0  0  0  0  0  0  0  0  0
   56.8330   29.6590   44.6960 C   0  0  0  0  0  0  0  0  0  0  0  0
   58.0850   30.0020   45.3340 N   0  0  0  0  0  0  0  0  0  0  0  0
   58.8820   29.0980   46.0770 C   0  0  0  0  0  0  0  0  0  0  0  0
   59.5960   28.0620   45.5240 C   0  0  0  0  0  0  0  0  0  0  0  0
   60.3700   27.1890   46.2620 C   0  0  0  0  0  0  0  0  0  0  0  0
   60.4390   27.3530   47.6290 C   0  0  0  0  0  0  0  0  0  0  0  0
   59.7320   28.3870   48.2290 C   0  0  0  0  0  0  0  0  0  0  0  0
   59.8030   28.5540   49.6390 N   0  0  0  0  0  0  0  0  0  0  0  0
   59.5610   29.7170   50.1370 C   0  0  0  0  0  0  0  0  0  0  0  0
   58.6610   29.7660   51.1630 N   0  0  0  0  0  0  0  0  0  0  0  0
   58.3460   30.9360   51.7460 C   0  0  0  0  0  0  0  0  0  0  0  0
   58.9460   32.0890   51.2920 C   0  0  0  0  0  0  0  0  0  0  0  0
   58.5810   33.6540   52.0090 Cl  0  0  0  0  0  0  0  0  0  0  0  0
   59.8560   31.9970   50.2460 C   0  0  0  0  0  0  0  0  0  0  0  0
   60.4290   33.0620   49.8070 N   0  0  0  0  0  0  0  0  0  0  0  0
   60.3550   33.4380   48.4370 C   0  0  0  0  0  0  0  0  0  0  0  0
   59.1320   33.8740   47.9620 C   0  0  0  0  0  0  0  0  0  0  0  0
   59.0150   34.2490   46.6340 C   0  0  0  0  0  0  0  0  0  0  0  0
   57.8140   34.6750   46.1770 F   0  0  0  0  0  0  0  0  0  0  0  0
   60.1390   34.1740   45.8180 C   0  0  0  0  0  0  0  0  0  0  0  0
   61.3640   33.7330   46.3020 C   0  0  0  0  0  0  0  0  0  0  0  0
   61.4480   33.3670   47.6300 C   0  0  0  0  0  0  0  0  0  0  0  0
   62.9670   32.8120   48.2790 S   0  0  0  0  0  0  0  0  0  0  0  0
   64.1300   32.6680   46.9950 N   0  0  0  0  0  0  0  0  0  0  0  0
   62.8870   31.4990   48.9640 O   0  0  0  0  0  0  0  0  0  0  0  0
   63.5180   33.9050   49.1840 O   0  0  0  0  0  0  0  0  0  0  0  0
   60.1650   30.8240   49.6700 N   0  0  0  0  0  0  0  0  0  0  0  0
   58.9640   29.2450   47.4510 C   0  0  0  0  0  0  0  0  0  0  0  0
   58.5210   31.3960   45.1750 C   0  0  0  0  0  0  0  0  0  0  0  0
   57.4580   32.1760   44.4200 C   0  0  0  0  0  0  0  0  0  0  0  0
   58.6605   32.5683   42.3892 H   0  0  0  0  0  0  0  0  0  0  0  0
   58.0957   31.1438   41.4519 H   0  0  0  0  0  0  0  0  0  0  0  0
   57.1308   32.6589   41.4519 H   0  0  0  0  0  0  0  0  0  0  0  0
   56.1287   29.7567   42.6520 H   0  0  0  0  0  0  0  0  0  0  0  0
   57.9086   29.6897   42.8132 H   0  0  0  0  0  0  0  0  0  0  0  0
   55.9972   30.1881   45.1772 H   0  0  0  0  0  0  0  0  0  0  0  0
   56.6137   28.5838   44.7723 H   0  0  0  0  0  0  0  0  0  0  0  0
   59.5481   27.9208   44.4342 H   0  0  0  0  0  0  0  0  0  0  0  0
   60.9223   26.3763   45.7676 H   0  0  0  0  0  0  0  0  0  0  0  0
   61.0488   26.6707   48.2394 H   0  0  0  0  0  0  0  0  0  0  0  0
   58.1920   28.8990   51.5260 H   0  0  0  0  0  0  0  0  0  0  0  0
   57.6207   30.9714   52.5723 H   0  0  0  0  0  0  0  0  0  0  0  0
   58.2609   33.9225   48.6320 H   0  0  0  0  0  0  0  0  0  0  0  0
   60.0556   34.4716   44.7623 H   0  0  0  0  0  0  0  0  0  0  0  0
   62.2439   33.6770   45.6442 H   0  0  0  0  0  0  0  0  0  0  0  0
   64.9320   33.2890   47.1370 H   0  0  0  0  0  0  0  0  0  0  0  0
   64.3140   31.6920   46.7460 H   0  0  0  0  0  0  0  0  0  0  0  0
   60.8580   30.7870   48.8790 H   0  0  0  0  0  0  0  0  0  0  0  0
   58.4084   30.0598   47.9383 H   0  0  0  0  0  0  0  0  0  0  0  0
   58.6728   31.8481   46.1663 H   0  0  0  0  0  0  0  0  0  0  0  0
   59.4652   31.4229   44.6113 H   0  0  0  0  0  0  0  0  0  0  0  0
   56.5826   32.2975   45.0749 H   0  0  0  0  0  0  0  0  0  0  0  0
   57.9009   33.1425   44.1379 H   0  0  0  0  0  0  0  0  0  0  0  0
  1  2  1  0
  2  3  1  0
  3  4  1  0
  4  5  1  0
  5  6  1  0
  6  7  2  0
  7  8  1  0
  8  9  2  0
  9 10  1  0
 10 11  1  0
 11 12  2  0
 12 13  1  0
 13 14  1  0
 14 15  2  0
 15 16  1  0
 15 17  1  0
 17 18  2  0
 18 19  1  0
 19 20  2  0
 20 21  1  0
 21 22  1  0
 21 23  2  0
 23 24  1  0
 24 25  2  0
 25 26  1  0
 26 27  1  0
 26 28  2  0
 26 29  2  0
 17 30  1  0
 10 31  2  0
  5 32  1  0
 32 33  1  0
 33  2  1  0
 31  6  1  0
 30 12  1  0
 25 19  1  0
  1 34  1  0
  1 35  1  0
  1 36  1  0
  3 37  1  0
  3 38  1  0
  4 39  1  0
  4 40  1  0
  7 41  1  0
  8 42  1  0
  9 43  1  0
 13 44  1  0
 14 45  1  0
 20 46  1  0
 23 47  1  0
 24 48  1  0
 27 49  1  0
 27 50  1  0
 30 51  1  0
 31 52  1  0
 32 53  1  0
 32 54  1  0
 33 55  1  0
 33 56  1  0
M  END
>  <smiles>  (85) 
CN1CCN(c2cccc(N=c3[nH]cc(Cl)c(=Nc4cc(F)ccc4S(N)(=O)=O)[nH]3)c2)CC1

>  <score_type>  (85) 
oracle

>  <origin>  (85) 
adg

>  <m_score__min__energy>  (85) 
-9.6600000000000001

>  <m_primary>  (85) 
energy

$$$$
85:0
     RDKit          3D

 47 49  0  0  0  0  0  0  0  0999 V2000
   56.0530   24.9230   47.2080 O   0  0  0  0  0  0  0  0  0  0  0  0
   55.8640   25.5350   46.1360 N   0  0  0  0  0  0  0  0  0  0  0  0
   54.7510   26.3300   45.9970 O   0  0  0  0  0  0  0  0  0  0  0  0
   56.7310   25.2870   44.9890 C   0  0  0  0  0  0  0  0  0  0  0  0
   57.9370   26.2310   45.0000 C   0  0  0  0  0  0  0  0  0  0  0  0
   58.1870   27.0430   43.3800 S   0  0  0  0  0  0  0  0  0  0  0  0
   57.7850   28.6940   43.9700 C   0  0  0  0  0  0  0  0  0  0  0  0
   56.5750   29.2520   43.8250 N   0  0  0  0  0  0  0  0  0  0  0  0
   56.6240   30.4710   44.3300 N   0  0  0  0  0  0  0  0  0  0  0  0
   57.8790   30.6500   44.7940 C   0  0  0  0  0  0  0  0  0  0  0  0
   58.3030   31.9890   45.3700 C   0  0  0  0  0  0  0  0  0  0  0  0
   57.6380   33.2170   44.7250 C   0  0  0  0  0  0  0  0  0  0  0  0
   58.3390   34.5150   45.1730 C   0  0  0  0  0  0  0  0  0  0  0  0
   58.8450   34.4650   46.6330 C   0  0  0  0  0  0  0  0  0  0  0  0
   58.0740   33.4460   47.4830 C   0  0  0  0  0  0  0  0  0  0  0  0
   58.1990   32.0180   46.9140 C   0  0  0  0  0  0  0  0  0  0  0  0
   58.6470   29.5450   44.5720 N   0  0  0  0  0  0  0  0  0  0  0  0
   60.0620   29.2750   44.8700 C   0  0  0  0  0  0  0  0  0  0  0  0
   60.3610   29.4420   46.3360 C   0  0  0  0  0  0  0  0  0  0  0  0
   61.1360   30.5280   46.7830 C   0  0  0  0  0  0  0  0  0  0  0  0
   61.4210   30.6770   48.1440 C   0  0  0  0  0  0  0  0  0  0  0  0
   60.9540   29.7370   49.0650 C   0  0  0  0  0  0  0  0  0  0  0  0
   60.2110   28.6390   48.6260 C   0  0  0  0  0  0  0  0  0  0  0  0
   59.9240   28.4840   47.2660 C   0  0  0  0  0  0  0  0  0  0  0  0
   57.0876   24.2470   45.0255 H   0  0  0  0  0  0  0  0  0  0  0  0
   56.1550   25.4641   44.0688 H   0  0  0  0  0  0  0  0  0  0  0  0
   57.7747   27.0055   45.7641 H   0  0  0  0  0  0  0  0  0  0  0  0
   58.8336   25.6339   45.2226 H   0  0  0  0  0  0  0  0  0  0  0  0
   55.7340   28.8230   43.3810 H   0  0  0  0  0  0  0  0  0  0  0  0
   59.3653   32.0777   45.0988 H   0  0  0  0  0  0  0  0  0  0  0  0
   57.7042   33.1302   43.6304 H   0  0  0  0  0  0  0  0  0  0  0  0
   56.5854   33.2562   45.0419 H   0  0  0  0  0  0  0  0  0  0  0  0
   59.1995   34.6932   44.5113 H   0  0  0  0  0  0  0  0  0  0  0  0
   57.5956   35.3236   45.1137 H   0  0  0  0  0  0  0  0  0  0  0  0
   59.9097   34.1886   46.6289 H   0  0  0  0  0  0  0  0  0  0  0  0
   58.6893   35.4593   47.0769 H   0  0  0  0  0  0  0  0  0  0  0  0
   58.4765   33.4584   48.5066 H   0  0  0  0  0  0  0  0  0  0  0  0
   57.0105   33.7268   47.4743 H   0  0  0  0  0  0  0  0  0  0  0  0
   59.1015   31.5507   47.3349 H   0  0  0  0  0  0  0  0  0  0  0  0
   57.2857   31.4718   47.1925 H   0  0  0  0  0  0  0  0  0  0  0  0
   60.2988   28.2428   44.5727 H   0  0  0  0  0  0  0  0  0  0  0  0
   60.6754   29.9957   44.3094 H   0  0  0  0  0  0  0  0  0  0  0  0
   61.5191   31.2625   46.0593 H   0  0  0  0  0  0  0  0  0  0  0  0
   62.0142   31.5364   48.4897 H   0  0  0  0  0  0  0  0  0  0  0  0
   61.1713   29.8613   50.1361 H   0  0  0  0  0  0  0  0  0  0  0  0
   59.8508   27.8946   49.3513 H   0  0  0  0  0  0  0  0  0  0  0  0
   59.3536   27.6082   46.9230 H   0  0  0  0  0  0  0  0  0  0  0  0
  1  2  2  0
  2  3  1  0
  2  4  1  0
  4  5  1  0
  5  6  1  0
  6  7  1  0
  7  8  2  0
  8  9  1  0
  9 10  2  0
 10 11  1  0
 11 12  1  0
 12 13  1  0
 13 14  1  0
 14 15  1  0
 15 16  1  0
 10 17  1  0
 17 18  1  0
 18 19  1  0
 19 20  2  0
 20 21  1  0
 21 22  2  0
 22 23  1  0
 23 24  2  0
 17  7  1  0
 24 19  1  0
 16 11  1  0
  4 25  1  0
  4 26  1  0
  5 27  1  0
  5 28  1  0
  8 29  1  0
 11 30  1  0
 12 31  1  0
 12 32  1  0
 13 33  1  0
 13 34  1  0
 14 35  1  0
 14 36  1  0
 15 37  1  0
 15 38  1  0
 16 39  1  0
 16 40  1  0
 18 41  1  0
 18 42  1  0
 20 43  1  0
 21 44  1  0
 22 45  1  0
 23 46  1  0
 24 47  1  0
M  CHG  3   2   1   3  -1   8   1
M  END
>  <UniqueID>  (86) 
77

>  <SMILES>  (86) 
O=[N+]([O-])CCSc1[nH+]nc(C2CCCCC2)n1Cc1ccccc1

>  <Energy>  (86) 
80.06979509406783

>  <Genealogy>  (86) 
O=[N+]([O-])CCSc1[nH+]nc(C2CCCCC2)n1Cc1ccccc1 (protonated)
O=[N+]([O-])CCSc1[nH+]nc(C2CCCCC2)n1Cc1ccccc1 (3D coordinates assigned)
O=[N+]([O-])CCSc1[nH+]nc(C2CCCCC2)n1Cc1ccccc1 (nonaromatic ring conformer: 80.06979509406783 kcal/mol)

>  <smiles>  (86) 
O=[N+]([O-])CCSc1nnc(C2CCCCC2)n1Cc1ccccc1

>  <score_type>  (86) 
oracle

>  <origin>  (86) 
adg

>  <m_score__min__energy>  (86) 
-8.2799999999999994

>  <m_primary>  (86) 
energy

$$$$
86:0
     RDKit          3D

 44 46  0  0  0  0  0  0  0  0999 V2000
   54.8890   26.3230   46.0020 N   0  0  0  0  0  0  0  0  0  0  0  0
   56.3590   25.4410   46.2130 S   0  0  0  0  0  0  0  0  0  0  0  0
   56.2730   24.6150   47.4660 O   0  0  0  0  0  0  0  0  0  0  0  0
   56.5650   24.5200   45.0430 O   0  0  0  0  0  0  0  0  0  0  0  0
   57.7090   26.5650   46.3230 C   0  0  0  0  0  0  0  0  0  0  0  0
   59.0270   26.0960   46.2610 C   0  0  0  0  0  0  0  0  0  0  0  0
   60.0950   26.9940   46.3280 C   0  0  0  0  0  0  0  0  0  0  0  0
   59.8530   28.3610   46.4690 C   0  0  0  0  0  0  0  0  0  0  0  0
   58.5350   28.8450   46.5490 C   0  0  0  0  0  0  0  0  0  0  0  0
   58.2590   30.2480   46.7190 N   0  0  0  0  0  0  0  0  0  0  0  0
   58.1910   31.1740   45.6240 C   0  0  0  0  0  0  0  0  0  0  0  0
   58.1670   30.6690   44.3160 C   0  0  0  0  0  0  0  0  0  0  0  0
   58.0150   31.5310   43.2280 C   0  0  0  0  0  0  0  0  0  0  0  0
   57.8920   32.9040   43.4360 C   0  0  0  0  0  0  0  0  0  0  0  0
   57.9410   33.4250   44.7320 C   0  0  0  0  0  0  0  0  0  0  0  0
   58.1140   32.5730   45.8370 C   0  0  0  0  0  0  0  0  0  0  0  0
   58.2570   33.1630   47.1860 C   0  0  0  0  0  0  0  0  0  0  0  0
   58.4310   34.4050   47.3180 O   0  0  0  0  0  0  0  0  0  0  0  0
   58.1750   32.3270   48.3460 N   0  0  0  0  0  0  0  0  0  0  0  0
   59.2360   32.2300   49.3430 C   0  0  0  0  0  0  0  0  0  0  0  0
   60.5830   32.4240   48.6990 C   0  0  0  0  0  0  0  0  0  0  0  0
   61.2580   33.6480   48.8360 C   0  0  0  0  0  0  0  0  0  0  0  0
   62.5080   33.8320   48.2360 C   0  0  0  0  0  0  0  0  0  0  0  0
   63.0940   32.7970   47.5040 C   0  0  0  0  0  0  0  0  0  0  0  0
   62.4380   31.5690   47.3810 C   0  0  0  0  0  0  0  0  0  0  0  0
   61.1870   31.3810   47.9760 C   0  0  0  0  0  0  0  0  0  0  0  0
   57.4680   27.9360   46.4830 C   0  0  0  0  0  0  0  0  0  0  0  0
   55.1420   27.3370   45.9930 H   0  0  0  0  0  0  0  0  0  0  0  0
   59.2218   25.0182   46.1593 H   0  0  0  0  0  0  0  0  0  0  0  0
   61.1288   26.6227   46.2695 H   0  0  0  0  0  0  0  0  0  0  0  0
   60.6977   29.0639   46.5178 H   0  0  0  0  0  0  0  0  0  0  0  0
   58.2040   30.6340   47.6890 H   0  0  0  0  0  0  0  0  0  0  0  0
   58.2686   29.5870   44.1460 H   0  0  0  0  0  0  0  0  0  0  0  0
   57.9923   31.1262   42.2055 H   0  0  0  0  0  0  0  0  0  0  0  0
   57.7561   33.5789   42.5781 H   0  0  0  0  0  0  0  0  0  0  0  0
   57.8435   34.5094   44.8886 H   0  0  0  0  0  0  0  0  0  0  0  0
   59.0856   33.0054   50.1085 H   0  0  0  0  0  0  0  0  0  0  0  0
   59.2019   31.2315   49.8033 H   0  0  0  0  0  0  0  0  0  0  0  0
   60.8026   34.4638   49.4165 H   0  0  0  0  0  0  0  0  0  0  0  0
   63.0307   34.7942   48.3409 H   0  0  0  0  0  0  0  0  0  0  0  0
   64.0722   32.9483   47.0241 H   0  0  0  0  0  0  0  0  0  0  0  0
   62.9064   30.7499   46.8156 H   0  0  0  0  0  0  0  0  0  0  0  0
   60.6735   30.4132   47.8780 H   0  0  0  0  0  0  0  0  0  0  0  0
   56.4337   28.3028   46.5575 H   0  0  0  0  0  0  0  0  0  0  0  0
  1  2  1  0
  2  3  2  0
  2  4  2  0
  2  5  1  0
  5  6  2  0
  6  7  1  0
  7  8  2  0
  8  9  1  0
  9 10  1  0
 10 11  1  0
 11 12  2  0
 12 13  1  0
 13 14  2  0
 14 15  1  0
 15 16  2  0
 16 17  1  0
 17 18  2  0
 17 19  1  0
 19 20  1  0
 20 21  1  0
 21 22  2  0
 22 23  1  0
 23 24  2  0
 24 25  1  0
 25 26  2  0
  9 27  2  0
 27  5  1  0
 16 11  1  0
 26 21  1  0
  1 28  1  0
  6 29  1  0
  7 30  1  0
  8 31  1  0
 10 32  1  0
 12 33  1  0
 13 34  1  0
 14 35  1  0
 15 36  1  0
 20 37  1  0
 20 38  1  0
 22 39  1  0
 23 40  1  0
 24 41  1  0
 25 42  1  0
 26 43  1  0
 27 44  1  0
M  CHG  2   1  -1  19  -1
M  END
>  <UniqueID>  (87) 
78

>  <SMILES>  (87) 
[NH-]S(=O)(=O)c1cccc(Nc2ccccc2C(=O)[N-]Cc2ccccc2)c1

>  <Energy>  (87) 
49.28205324306213

>  <Genealogy>  (87) 
[NH-]S(=O)(=O)c1cccc(Nc2ccccc2C(=O)[N-]Cc2ccccc2)c1 (protonated)
[NH-]S(=O)(=O)c1cccc(Nc2ccccc2C(=O)[N-]Cc2ccccc2)c1 (3D coordinates assigned)
[NH-]S(=O)(=O)c1cccc(Nc2ccccc2C(=O)[N-]Cc2ccccc2)c1 (optimized conformer: 49.28205324306213 kcal/mol)

>  <smiles>  (87) 
NS(=O)(=O)c1cccc(Nc2ccccc2C(=O)NCc2ccccc2)c1

>  <score_type>  (87) 
oracle

>  <origin>  (87) 
adg

>  <m_score__min__energy>  (87) 
-12.77

>  <m_primary>  (87) 
energy

$$$$
87:0
     RDKit          3D

 48 53  0  0  0  0  0  0  0  0999 V2000
   56.2788   30.3020   41.6451 H   0  0  0  0  0  0  0  0  0  0  0  0
   56.6460   30.3930   42.6780 C   0  0  0  0  0  0  0  0  0  0  0  0
   56.5900   29.3250   43.5160 N   0  0  0  0  0  0  0  0  0  0  0  0
   57.0370   29.4130   44.7960 C   0  0  0  0  0  0  0  0  0  0  0  0
   56.9950   28.3580   45.5570 N   0  0  0  0  0  0  0  0  0  0  0  0
   57.9730   27.9610   46.5330 C   0  0  0  0  0  0  0  0  0  0  0  0
   58.5610   26.6940   46.4170 C   0  0  0  0  0  0  0  0  0  0  0  0
   58.2816   26.0383   45.5792 H   0  0  0  0  0  0  0  0  0  0  0  0
   59.4990   26.2560   47.3560 C   0  0  0  0  0  0  0  0  0  0  0  0
   59.9652   25.2658   47.2463 H   0  0  0  0  0  0  0  0  0  0  0  0
   59.8450   27.0750   48.4340 C   0  0  0  0  0  0  0  0  0  0  0  0
   60.7550   26.6550   49.3470 N   0  0  0  0  0  0  0  0  0  0  0  0
   61.0910   27.4410   50.4070 C   0  0  0  0  0  0  0  0  0  0  0  0
   62.0880   26.9730   51.3990 C   0  0  0  0  0  0  0  0  0  0  0  0
   62.2750   25.5960   51.6190 C   0  0  0  0  0  0  0  0  0  0  0  0
   61.6787   24.8662   51.0518 H   0  0  0  0  0  0  0  0  0  0  0  0
   63.2140   25.1490   52.5540 C   0  0  0  0  0  0  0  0  0  0  0  0
   63.3526   24.0705   52.7202 H   0  0  0  0  0  0  0  0  0  0  0  0
   63.9760   26.0690   53.2770 C   0  0  0  0  0  0  0  0  0  0  0  0
   64.7145   25.7154   54.0116 H   0  0  0  0  0  0  0  0  0  0  0  0
   63.8000   27.4380   53.0670 C   0  0  0  0  0  0  0  0  0  0  0  0
   64.4002   28.1623   53.6372 H   0  0  0  0  0  0  0  0  0  0  0  0
   62.8630   27.8900   52.1340 C   0  0  0  0  0  0  0  0  0  0  0  0
   62.7301   28.9700   51.9728 H   0  0  0  0  0  0  0  0  0  0  0  0
   60.5190   28.6350   50.5510 O   0  0  0  0  0  0  0  0  0  0  0  0
   59.6210   29.1050   49.6940 C   0  0  0  0  0  0  0  0  0  0  0  0
   59.1200   30.2440   49.8920 O   0  0  0  0  0  0  0  0  0  0  0  0
   59.2420   28.3360   48.5820 C   0  0  0  0  0  0  0  0  0  0  0  0
   58.2970   28.7730   47.6380 C   0  0  0  0  0  0  0  0  0  0  0  0
   57.8092   29.7511   47.7621 H   0  0  0  0  0  0  0  0  0  0  0  0
   57.5600   30.5880   45.2440 N   0  0  0  0  0  0  0  0  0  0  0  0
   57.6160   31.6910   44.4510 C   0  0  0  0  0  0  0  0  0  0  0  0
   58.1970   32.8970   44.9660 N   0  0  0  0  0  0  0  0  0  0  0  0
   58.4560   33.9560   44.2040 N   0  0  0  0  0  0  0  0  0  0  0  0
   59.0080   34.9190   44.9790 C   0  0  0  0  0  0  0  0  0  0  0  0
   59.3222   35.9171   44.6397 H   0  0  0  0  0  0  0  0  0  0  0  0
   59.1090   34.4360   46.2640 C   0  0  0  0  0  0  0  0  0  0  0  0
   59.6400   34.9920   47.4230 C   0  0  0  0  0  0  0  0  0  0  0  0
   60.0363   36.0181   47.4331 H   0  0  0  0  0  0  0  0  0  0  0  0
   59.6520   34.1940   48.5830 C   0  0  0  0  0  0  0  0  0  0  0  0
   60.0502   34.6021   49.5237 H   0  0  0  0  0  0  0  0  0  0  0  0
   59.1550   32.8710   48.5450 C   0  0  0  0  0  0  0  0  0  0  0  0
   59.1789   32.2531   49.4547 H   0  0  0  0  0  0  0  0  0  0  0  0
   58.6300   32.3380   47.3530 C   0  0  0  0  0  0  0  0  0  0  0  0
   58.2552   31.3048   47.3087 H   0  0  0  0  0  0  0  0  0  0  0  0
   58.6010   33.1670   46.2260 C   0  0  0  0  0  0  0  0  0  0  0  0
   57.1690   31.6040   43.1280 C   0  0  0  0  0  0  0  0  0  0  0  0
   57.2291   32.4735   42.4569 H   0  0  0  0  0  0  0  0  0  0  0  0
  1  2  1  0
  2  3  1  0
  3  4  1  0
  4  5  2  0
  5  6  1  0
  6  7  2  0
  7  8  1  0
  7  9  1  0
  9 10  1  0
  9 11  2  0
 11 12  1  0
 12 13  2  0
 13 14  1  0
 14 15  2  0
 15 16  1  0
 15 17  1  0
 17 18  1  0
 17 19  2  0
 19 20  1  0
 19 21  1  0
 21 22  1  0
 21 23  2  0
 23 24  1  0
 13 25  1  0
 25 26  1  0
 26 27  2  0
 26 28  1  0
 28 29  2  0
 29 30  1  0
  4 31  1  0
 31 32  2  0
 32 33  1  0
 33 34  1  0
 34 35  2  0
 35 36  1  0
 35 37  1  0
 37 38  2  0
 38 39  1  0
 38 40  1  0
 40 41  1  0
 40 42  2  0
 42 43  1  0
 42 44  1  0
 44 45  1  0
 44 46  2  0
 32 47  1  0
 47 48  1  0
 47  2  2  0
 29  6  1  0
 46 33  1  0
 28 11  1  0
 46 37  1  0
 23 14  1  0
M  CHG  1   3  -1
M  END
>  <UniqueID>  (88) 
79

>  <SMILES>  (88) 
O=c1oc(-c2ccccc2)nc2ccc(/N=c3\nc(-n4ncc5ccccc54)cc[n-]3)cc12

>  <Energy>  (88) 
114.36413556136132

>  <Genealogy>  (88) 
O=c1oc(-c2ccccc2)nc2ccc(N=c3nc(-n4ncc5ccccc54)cc[n-]3)cc12 (protonated)
O=c1oc(-c2ccccc2)nc2ccc(/N=c3\nc(-n4ncc5ccccc54)cc[n-]3)cc12 (cis-trans isomerization)
O=c1oc(-c2ccccc2)nc2ccc(/N=c3\nc(-n4ncc5ccccc54)cc[n-]3)cc12 (3D coordinates assigned)
O=c1oc(-c2ccccc2)nc2ccc(/N=c3\nc(-n4ncc5ccccc54)cc[n-]3)cc12 (optimized conformer: 114.36413556136132 kcal/mol)

>  <smiles>  (88) 
O=c1oc(-c2ccccc2)nc2ccc(N=c3nc(-n4ncc5ccccc54)cc[nH]3)cc12

>  <score_type>  (88) 
oracle

>  <origin>  (88) 
adg

>  <m_score__min__energy>  (88) 
-10.81

>  <m_primary>  (88) 
energy

$$$$
88:0
     RDKit          3D

 34 36  0  0  0  0  0  0  0  0999 V2000
   57.2467   32.5720   40.7637 H   0  0  0  0  0  0  0  0  0  0  0  0
   57.3510   32.0820   41.7430 C   0  0  0  0  0  0  0  0  0  0  0  0
   58.1440   32.6640   42.7340 C   0  0  0  0  0  0  0  0  0  0  0  0
   58.6646   33.6121   42.5338 H   0  0  0  0  0  0  0  0  0  0  0  0
   58.2780   32.0440   43.9810 C   0  0  0  0  0  0  0  0  0  0  0  0
   58.9070   32.5066   44.7558 H   0  0  0  0  0  0  0  0  0  0  0  0
   57.6130   30.8310   44.2520 C   0  0  0  0  0  0  0  0  0  0  0  0
   57.7610   30.1740   45.5810 C   0  0  0  0  0  0  0  0  0  0  0  0
   58.1530   30.8960   46.5960 N   0  0  0  0  0  0  0  0  0  0  0  0
   59.4490   31.4860   46.7970 C   0  0  0  0  0  0  0  0  0  0  0  0
   60.5940   30.6880   46.9770 C   0  0  0  0  0  0  0  0  0  0  0  0
   60.5084   29.5918   46.9436 H   0  0  0  0  0  0  0  0  0  0  0  0
   61.8390   31.2820   47.1980 C   0  0  0  0  0  0  0  0  0  0  0  0
   62.7332   30.6530   47.3196 H   0  0  0  0  0  0  0  0  0  0  0  0
   61.9510   32.6730   47.2650 C   0  0  0  0  0  0  0  0  0  0  0  0
   63.6540   33.4820   47.5700 Br  0  0  0  0  0  0  0  0  0  0  0  0
   60.8130   33.4720   47.1210 C   0  0  0  0  0  0  0  0  0  0  0  0
   60.9007   34.5667   47.1831 H   0  0  0  0  0  0  0  0  0  0  0  0
   59.5620   32.8840   46.8980 C   0  0  0  0  0  0  0  0  0  0  0  0
   58.1490   33.9140   46.7220 Cl  0  0  0  0  0  0  0  0  0  0  0  0
   57.5350   28.7090   45.7140 C   0  0  0  0  0  0  0  0  0  0  0  0
   56.2620   28.1570   45.5010 C   0  0  0  0  0  0  0  0  0  0  0  0
   55.1850   28.9760   45.1770 O   0  0  0  0  0  0  0  0  0  0  0  0
   56.0720   26.8170   45.6250 N   0  0  0  0  0  0  0  0  0  0  0  0
   55.1190   26.4170   45.4700 H   0  0  0  0  0  0  0  0  0  0  0  0
   57.1030   25.9920   45.9520 C   0  0  0  0  0  0  0  0  0  0  0  0
   56.9120   24.7540   46.0670 O   0  0  0  0  0  0  0  0  0  0  0  0
   58.3450   26.5020   46.1540 N   0  0  0  0  0  0  0  0  0  0  0  0
   58.5850   27.8340   46.0390 C   0  0  0  0  0  0  0  0  0  0  0  0
   59.7550   28.2680   46.2170 O   0  0  0  0  0  0  0  0  0  0  0  0
   56.8200   30.2540   43.2390 C   0  0  0  0  0  0  0  0  0  0  0  0
   56.2985   29.3043   43.4290 H   0  0  0  0  0  0  0  0  0  0  0  0
   56.6910   30.8790   41.9950 C   0  0  0  0  0  0  0  0  0  0  0  0
   56.0675   30.4210   41.2130 H   0  0  0  0  0  0  0  0  0  0  0  0
  1  2  1  0
  2  3  2  0
  3  4  1  0
  3  5  1  0
  5  6  1  0
  5  7  2  0
  7  8  1  0
  8  9  2  0
  9 10  1  0
 10 11  2  0
 11 12  1  0
 11 13  1  0
 13 14  1  0
 13 15  2  0
 15 16  1  0
 15 17  1  0
 17 18  1  0
 17 19  2  0
 19 20  1  0
  8 21  1  0
 21 22  2  0
 22 23  1  0
 22 24  1  0
 24 25  1  0
 24 26  1  0
 26 27  2  0
 26 28  1  0
 28 29  1  0
 29 30  2  0
  7 31  1  0
 31 32  1  0
 31 33  2  0
 33 34  1  0
 33  2  1  0
 19 10  1  0
 29 21  1  0
M  CHG  2  23  -1  28  -1
M  END
>  <UniqueID>  (89) 
80

>  <SMILES>  (89) 
O=c1[n-]c(=O)c(/C(=N\c2ccc(Br)cc2Cl)c2ccccc2)c([O-])[nH]1

>  <Energy>  (89) 
54.139016166775384

>  <Genealogy>  (89) 
O=c1[n-]c(=O)c(C(=Nc2ccc(Br)cc2Cl)c2ccccc2)c([O-])[nH]1 (protonated)
O=c1[n-]c(=O)c(/C(=N\c2ccc(Br)cc2Cl)c2ccccc2)c([O-])[nH]1 (cis-trans isomerization)
O=c1[n-]c(=O)c(/C(=N\c2ccc(Br)cc2Cl)c2ccccc2)c([O-])[nH]1 (3D coordinates assigned)
O=c1[n-]c(=O)c(/C(=N\c2ccc(Br)cc2Cl)c2ccccc2)c([O-])[nH]1 (optimized conformer: 54.139016166775384 kcal/mol)

>  <smiles>  (89) 
O=c1[nH]c(O)c(C(=Nc2ccc(Br)cc2Cl)c2ccccc2)c(=O)[nH]1

>  <score_type>  (89) 
oracle

>  <origin>  (89) 
adg

>  <m_score__min__energy>  (89) 
-13.49

>  <m_primary>  (89) 
energy

$$$$
89:0
     RDKit          3D

 51 55  0  0  0  0  0  0  0  0999 V2000
   55.5035   22.7587   41.7769 H   0  0  0  0  0  0  0  0  0  0  0  0
   55.9370   22.6970   42.7860 C   0  0  0  0  0  0  0  0  0  0  0  0
   55.4270   23.4560   43.7920 N   0  0  0  0  0  0  0  0  0  0  0  0
   55.9250   23.4060   45.0590 C   0  0  0  0  0  0  0  0  0  0  0  0
   55.3330   24.2720   46.1020 C   0  0  0  0  0  0  0  0  0  0  0  0
   54.8100   23.7370   47.1150 O   0  0  0  0  0  0  0  0  0  0  0  0
   55.2880   25.7030   45.9780 N   0  0  0  0  0  0  0  0  0  0  0  0
   56.3200   26.4970   45.9740 C   0  0  0  0  0  0  0  0  0  0  0  0
   56.2000   27.8050   45.6100 N   0  0  0  0  0  0  0  0  0  0  0  0
   57.2630   28.6520   45.5990 C   0  0  0  0  0  0  0  0  0  0  0  0
   57.1244   29.7016   45.3006 H   0  0  0  0  0  0  0  0  0  0  0  0
   58.5370   28.1920   45.9670 C   0  0  0  0  0  0  0  0  0  0  0  0
   59.7110   29.0970   45.9500 C   0  0  0  0  0  0  0  0  0  0  0  0
   60.4120   29.1750   44.9050 O   0  0  0  0  0  0  0  0  0  0  0  0
   60.0640   29.8960   47.0940 N   0  0  0  0  0  0  0  0  0  0  0  0
   61.1560   30.8790   46.9820 C   0  0  0  0  0  0  0  0  0  0  0  0
   61.8753   30.5329   46.2252 H   0  0  0  0  0  0  0  0  0  0  0  0
   60.7262   31.8486   46.6902 H   0  0  0  0  0  0  0  0  0  0  0  0
   61.8660   31.0460   48.2940 C   0  0  0  0  0  0  0  0  0  0  0  0
   61.3810   30.4960   49.4690 C   0  0  0  0  0  0  0  0  0  0  0  0
   62.4360   30.8670   50.7180 S   0  0  0  0  0  0  0  0  0  0  0  0
   63.5120   31.7750   49.7830 C   0  0  0  0  0  0  0  0  0  0  0  0
   64.7360   32.4680   50.2550 C   0  0  0  0  0  0  0  0  0  0  0  0
   66.0230   31.9760   50.1260 C   0  0  0  0  0  0  0  0  0  0  0  0
   66.3347   31.0261   49.6672 H   0  0  0  0  0  0  0  0  0  0  0  0
   66.8300   32.9380   50.6990 C   0  0  0  0  0  0  0  0  0  0  0  0
   67.9261   32.8840   50.7735 H   0  0  0  0  0  0  0  0  0  0  0  0
   66.0700   33.9530   51.1530 N   0  0  0  0  0  0  0  0  0  0  0  0
   64.8050   33.6670   50.8850 N   0  0  0  0  0  0  0  0  0  0  0  0
   63.7070   34.5520   51.2590 C   0  0  0  0  0  0  0  0  0  0  0  0
   63.6380   34.6076   52.3554 H   0  0  0  0  0  0  0  0  0  0  0  0
   63.8912   35.5571   50.8518 H   0  0  0  0  0  0  0  0  0  0  0  0
   62.7639   34.1585   50.8518 H   0  0  0  0  0  0  0  0  0  0  0  0
   63.0460   31.7810   48.4670 C   0  0  0  0  0  0  0  0  0  0  0  0
   63.5546   32.3101   47.6476 H   0  0  0  0  0  0  0  0  0  0  0  0
   60.1940   29.5920   49.5440 C   0  0  0  0  0  0  0  0  0  0  0  0
   60.5328   28.5455   49.5434 H   0  0  0  0  0  0  0  0  0  0  0  0
   59.6372   29.8040   50.4687 H   0  0  0  0  0  0  0  0  0  0  0  0
   59.2750   29.8290   48.3380 C   0  0  0  0  0  0  0  0  0  0  0  0
   58.5530   29.0024   48.2649 H   0  0  0  0  0  0  0  0  0  0  0  0
   58.7455   30.7833   48.4758 H   0  0  0  0  0  0  0  0  0  0  0  0
   58.6860   26.8400   46.3110 C   0  0  0  0  0  0  0  0  0  0  0  0
   59.6784   26.4478   46.5781 H   0  0  0  0  0  0  0  0  0  0  0  0
   57.5770   25.9910   46.3150 C   0  0  0  0  0  0  0  0  0  0  0  0
   57.6924   24.9309   46.5848 H   0  0  0  0  0  0  0  0  0  0  0  0
   57.0170   22.5660   45.3360 C   0  0  0  0  0  0  0  0  0  0  0  0
   57.4454   22.5295   46.3485 H   0  0  0  0  0  0  0  0  0  0  0  0
   57.5540   21.7780   44.3160 C   0  0  0  0  0  0  0  0  0  0  0  0
   58.4034   21.1107   44.5240 H   0  0  0  0  0  0  0  0  0  0  0  0
   57.0110   21.8390   43.0330 C   0  0  0  0  0  0  0  0  0  0  0  0
   57.4240   21.2181   42.2243 H   0  0  0  0  0  0  0  0  0  0  0  0
  1  2  1  0
  2  3  2  0
  3  4  1  0
  4  5  1  0
  5  6  2  0
  5  7  1  0
  7  8  2  0
  8  9  1  0
  9 10  1  0
 10 11  1  0
 10 12  2  0
 12 13  1  0
 13 14  2  0
 13 15  1  0
 15 16  1  0
 16 17  1  0
 16 18  1  0
 16 19  1  0
 19 20  2  0
 20 21  1  0
 21 22  1  0
 22 23  1  0
 23 24  2  0
 24 25  1  0
 24 26  1  0
 26 27  1  0
 26 28  2  0
 28 29  1  0
 29 30  1  0
 30 31  1  0
 30 32  1  0
 30 33  1  0
 22 34  2  0
 34 35  1  0
 20 36  1  0
 36 37  1  0
 36 38  1  0
 36 39  1  0
 39 40  1  0
 39 41  1  0
 12 42  1  0
 42 43  1  0
 42 44  2  0
 44 45  1  0
  4 46  2  0
 46 47  1  0
 46 48  1  0
 48 49  1  0
 48 50  2  0
 50 51  1  0
 50  2  1  0
 44  8  1  0
 39 15  1  0
 34 19  1  0
 29 23  1  0
M  CHG  1   9  -1
M  END
>  <UniqueID>  (90) 
81

>  <SMILES>  (90) 
Cn1nccc1-c1cc2c(s1)CCN(C(=O)c1cc/c(=N/C(=O)c3ccccn3)[n-]c1)C2

>  <Energy>  (90) 
129.6242309893762

>  <Genealogy>  (90) 
Cn1nccc1-c1cc2c(s1)CCN(C(=O)c1ccc(=NC(=O)c3ccccn3)[n-]c1)C2 (protonated)
Cn1nccc1-c1cc2c(s1)CCN(C(=O)c1cc/c(=N/C(=O)c3ccccn3)[n-]c1)C2 (cis-trans isomerization)
Cn1nccc1-c1cc2c(s1)CCN(C(=O)c1cc/c(=N/C(=O)c3ccccn3)[n-]c1)C2 (3D coordinates assigned)
Cn1nccc1-c1cc2c(s1)CCN(C(=O)c1cc/c(=N/C(=O)c3ccccn3)[n-]c1)C2 (nonaromatic ring conformer: 129.6242309893762 kcal/mol)

>  <smiles>  (90) 
Cn1nccc1-c1cc2c(s1)CCN(C(=O)c1ccc(=NC(=O)c3ccccn3)[nH]c1)C2

>  <score_type>  (90) 
oracle

>  <origin>  (90) 
adg

>  <m_score__min__energy>  (90) 
-11.34

>  <m_primary>  (90) 
energy

$$$$
90:0
     RDKit          3D

 38 41  0  0  0  0  0  0  0  0999 V2000
   55.1890   30.3270   44.3160 O   0  0  0  0  0  0  0  0  0  0  0  0
   56.1730   29.7130   44.8050 C   0  0  0  0  0  0  0  0  0  0  0  0
   57.4080   30.3570   44.9220 C   0  0  0  0  0  0  0  0  0  0  0  0
   58.4960   29.6600   45.4480 C   0  0  0  0  0  0  0  0  0  0  0  0
   59.7340   30.3080   45.5290 O   0  0  0  0  0  0  0  0  0  0  0  0
   60.2450   30.8300   46.7220 C   0  0  0  0  0  0  0  0  0  0  0  0
   61.4820   30.5050   47.1840 N   0  0  0  0  0  0  0  0  0  0  0  0
   61.5330   31.3970   48.5710 S   0  0  0  0  0  0  0  0  0  0  0  0
   60.0880   32.1910   48.6470 N   0  0  0  0  0  0  0  0  0  0  0  0
   59.4960   31.7420   47.5080 C   0  0  0  0  0  0  0  0  0  0  0  0
   58.2130   32.1460   47.1260 O   0  0  0  0  0  0  0  0  0  0  0  0
   57.8150   33.5130   47.0090 C   0  0  0  0  0  0  0  0  0  0  0  0
   59.0450   34.4350   47.0080 C   0  0  0  0  0  0  0  0  0  0  0  0
   59.8300   34.2740   45.6990 C   0  0  0  0  0  0  0  0  0  0  0  0
   59.0070   34.5520   44.5800 O   0  0  0  0  0  0  0  0  0  0  0  0
   57.9650   33.5990   44.4960 C   0  0  0  0  0  0  0  0  0  0  0  0
   57.0280   33.7020   45.7080 C   0  0  0  0  0  0  0  0  0  0  0  0
   58.3090   28.3350   45.8930 C   0  0  0  0  0  0  0  0  0  0  0  0
   59.3340   27.5900   46.5060 C   0  0  0  0  0  0  0  0  0  0  0  0
   59.0940   26.2770   46.9220 C   0  0  0  0  0  0  0  0  0  0  0  0
   57.8340   25.7000   46.7420 C   0  0  0  0  0  0  0  0  0  0  0  0
   56.8020   26.4380   46.1550 C   0  0  0  0  0  0  0  0  0  0  0  0
   57.0270   27.7530   45.7380 C   0  0  0  0  0  0  0  0  0  0  0  0
   56.0300   28.4540   45.2050 O   0  0  0  0  0  0  0  0  0  0  0  0
   57.5210   31.4035   44.6024 H   0  0  0  0  0  0  0  0  0  0  0  0
   57.1817   33.7750   47.8694 H   0  0  0  0  0  0  0  0  0  0  0  0
   58.7155   35.4798   47.1074 H   0  0  0  0  0  0  0  0  0  0  0  0
   59.6965   34.1636   47.8517 H   0  0  0  0  0  0  0  0  0  0  0  0
   60.6818   34.9700   45.7017 H   0  0  0  0  0  0  0  0  0  0  0  0
   60.1839   33.2350   45.6263 H   0  0  0  0  0  0  0  0  0  0  0  0
   57.3866   33.7780   43.5776 H   0  0  0  0  0  0  0  0  0  0  0  0
   58.4097   32.5930   44.4806 H   0  0  0  0  0  0  0  0  0  0  0  0
   56.5506   34.6930   45.7139 H   0  0  0  0  0  0  0  0  0  0  0  0
   56.2633   32.9145   45.6359 H   0  0  0  0  0  0  0  0  0  0  0  0
   60.3254   28.0416   46.6580 H   0  0  0  0  0  0  0  0  0  0  0  0
   59.9004   25.6957   47.3930 H   0  0  0  0  0  0  0  0  0  0  0  0
   57.6540   24.6633   47.0628 H   0  0  0  0  0  0  0  0  0  0  0  0
   55.8098   25.9824   46.0209 H   0  0  0  0  0  0  0  0  0  0  0  0
  1  2  2  0
  2  3  1  0
  3  4  2  0
  4  5  1  0
  5  6  1  0
  6  7  2  0
  7  8  1  0
  8  9  1  0
  9 10  2  0
 10 11  1  0
 11 12  1  0
 12 13  1  0
 13 14  1  0
 14 15  1  0
 15 16  1  0
 16 17  1  0
  4 18  1  0
 18 19  2  0
 19 20  1  0
 20 21  2  0
 21 22  1  0
 22 23  2  0
 23 24  1  0
 24  2  1  0
 10  6  1  0
 17 12  1  0
 23 18  1  0
  3 25  1  0
 12 26  1  0
 13 27  1  0
 13 28  1  0
 14 29  1  0
 14 30  1  0
 16 31  1  0
 16 32  1  0
 17 33  1  0
 17 34  1  0
 19 35  1  0
 20 36  1  0
 21 37  1  0
 22 38  1  0
M  END
>  <UniqueID>  (91) 
82

>  <SMILES>  (91) 
O=c1cc(Oc2nsnc2OC2CCOCC2)c2ccccc2o1

>  <Energy>  (91) 
85.84990045445252

>  <Genealogy>  (91) 
O=c1cc(Oc2nsnc2OC2CCOCC2)c2ccccc2o1 (3D coordinates assigned)
O=c1cc(Oc2nsnc2OC2CCOCC2)c2ccccc2o1 (nonaromatic ring conformer: 85.84990045445252 kcal/mol)

>  <smiles>  (91) 
O=c1cc(Oc2nsnc2OC2CCOCC2)c2ccccc2o1

>  <score_type>  (91) 
oracle

>  <origin>  (91) 
adg

>  <m_score__min__energy>  (91) 
-7.29

>  <m_primary>  (91) 
energy

$$$$
91:0
     RDKit          3D

 42 44  0  0  0  0  0  0  0  0999 V2000
   56.8630   30.0800   52.0000 N   0  0  0  0  0  0  0  0  0  0  0  0
   58.0940   31.2310   51.6180 S   0  0  0  0  0  0  0  0  0  0  0  0
   57.6050   32.6160   51.9380 O   0  0  0  0  0  0  0  0  0  0  0  0
   59.3150   30.9480   52.4480 O   0  0  0  0  0  0  0  0  0  0  0  0
   58.4940   31.1190   49.9080 C   0  0  0  0  0  0  0  0  0  0  0  0
   58.4190   32.2540   49.0910 C   0  0  0  0  0  0  0  0  0  0  0  0
   58.7260   32.1650   47.7300 C   0  0  0  0  0  0  0  0  0  0  0  0
   59.0940   30.9350   47.1640 C   0  0  0  0  0  0  0  0  0  0  0  0
   59.4270   30.8720   45.7660 N   0  0  0  0  0  0  0  0  0  0  0  0
   58.4540   30.8750   44.7050 C   0  0  0  0  0  0  0  0  0  0  0  0
   58.4470   31.9110   43.7550 C   0  0  0  0  0  0  0  0  0  0  0  0
   57.5370   31.8940   42.6950 C   0  0  0  0  0  0  0  0  0  0  0  0
   56.6330   30.8400   42.5680 C   0  0  0  0  0  0  0  0  0  0  0  0
   56.6390   29.7960   43.4950 C   0  0  0  0  0  0  0  0  0  0  0  0
   57.5580   29.7920   44.5590 C   0  0  0  0  0  0  0  0  0  0  0  0
   57.5310   28.7380   45.5380 N   0  0  0  0  0  0  0  0  0  0  0  0
   58.3420   27.5540   45.4490 C   0  0  0  0  0  0  0  0  0  0  0  0
   59.2650   27.4820   44.5920 O   0  0  0  0  0  0  0  0  0  0  0  0
   58.1030   26.4190   46.3640 C   0  0  0  0  0  0  0  0  0  0  0  0
   58.9500   26.1640   47.2620 O   0  0  0  0  0  0  0  0  0  0  0  0
   56.8750   25.5930   46.2760 C   0  0  0  0  0  0  0  0  0  0  0  0
   55.6360   26.1560   45.9230 C   0  0  0  0  0  0  0  0  0  0  0  0
   55.5260   27.5090   45.6210 O   0  0  0  0  0  0  0  0  0  0  0  0
   54.5310   25.3700   45.8480 N   0  0  0  0  0  0  0  0  0  0  0  0
   54.5970   24.0390   46.0970 C   0  0  0  0  0  0  0  0  0  0  0  0
   53.2500   23.1220   45.9980 S   0  0  0  0  0  0  0  0  0  0  0  0
   55.7840   23.4670   46.4210 N   0  0  0  0  0  0  0  0  0  0  0  0
   56.9190   24.2060   46.5120 C   0  0  0  0  0  0  0  0  0  0  0  0
   58.0000   23.6390   46.8230 O   0  0  0  0  0  0  0  0  0  0  0  0
   59.1810   29.8000   47.9890 C   0  0  0  0  0  0  0  0  0  0  0  0
   58.8750   29.8910   49.3500 C   0  0  0  0  0  0  0  0  0  0  0  0
   57.1940   29.1530   51.6490 H   0  0  0  0  0  0  0  0  0  0  0  0
   58.1172   33.2199   49.5221 H   0  0  0  0  0  0  0  0  0  0  0  0
   58.6788   33.0648   47.0990 H   0  0  0  0  0  0  0  0  0  0  0  0
   60.4390   30.8490   45.5020 H   0  0  0  0  0  0  0  0  0  0  0  0
   59.1630   32.7410   43.8468 H   0  0  0  0  0  0  0  0  0  0  0  0
   57.5337   32.7126   41.9602 H   0  0  0  0  0  0  0  0  0  0  0  0
   55.9137   30.8310   41.7358 H   0  0  0  0  0  0  0  0  0  0  0  0
   55.9194   28.9705   43.3921 H   0  0  0  0  0  0  0  0  0  0  0  0
   56.9450   28.8730   46.3930 H   0  0  0  0  0  0  0  0  0  0  0  0
   59.4915   28.8353   47.5613 H   0  0  0  0  0  0  0  0  0  0  0  0
   58.9335   28.9952   49.9856 H   0  0  0  0  0  0  0  0  0  0  0  0
  1  2  1  0
  2  3  2  0
  2  4  2  0
  2  5  1  0
  5  6  2  0
  6  7  1  0
  7  8  2  0
  8  9  1  0
  9 10  1  0
 10 11  2  0
 11 12  1  0
 12 13  2  0
 13 14  1  0
 14 15  2  0
 15 16  1  0
 16 17  1  0
 17 18  2  0
 17 19  1  0
 19 20  2  0
 19 21  1  0
 21 22  2  0
 22 23  1  0
 22 24  1  0
 24 25  1  0
 25 26  2  0
 25 27  1  0
 27 28  1  0
 28 29  2  0
  8 30  1  0
 30 31  2  0
 31  5  1  0
 15 10  1  0
 28 21  1  0
  1 32  1  0
  6 33  1  0
  7 34  1  0
  9 35  1  0
 11 36  1  0
 12 37  1  0
 13 38  1  0
 14 39  1  0
 16 40  1  0
 30 41  1  0
 31 42  1  0
M  CHG  4   1  -1  23  -1  24  -1  27  -1
M  END
>  <UniqueID>  (92) 
83

>  <SMILES>  (92) 
[NH-]S(=O)(=O)c1ccc(Nc2ccccc2NC(=O)C(=O)c2c([O-])[n-]c(=S)[n-]c2=O)cc1

>  <Energy>  (92) 
62.14008300484775

>  <Genealogy>  (92) 
[NH-]S(=O)(=O)c1ccc(Nc2ccccc2NC(=O)C(=O)c2c([O-])[n-]c(=S)[n-]c2=O)cc1 (protonated)
[NH-]S(=O)(=O)c1ccc(Nc2ccccc2NC(=O)C(=O)c2c([O-])[n-]c(=S)[n-]c2=O)cc1 (3D coordinates assigned)
[NH-]S(=O)(=O)c1ccc(Nc2ccccc2NC(=O)C(=O)c2c([O-])[n-]c(=S)[n-]c2=O)cc1 (optimized conformer: 62.14008300484775 kcal/mol)

>  <smiles>  (92) 
NS(=O)(=O)c1ccc(Nc2ccccc2NC(=O)C(=O)c2c(O)[nH]c(=S)[nH]c2=O)cc1

>  <score_type>  (92) 
oracle

>  <origin>  (92) 
adg

>  <m_score__min__energy>  (92) 
-16.09

>  <m_primary>  (92) 
energy

$$$$
92:0
     RDKit          3D

 31 32  0  0  0  0  0  0  0  0999 V2000
   63.9350   32.1330   47.6930 N   0  0  0  0  0  0  0  0  0  0  0  0
   62.8970   33.4690   47.3360 S   0  0  0  0  0  0  0  0  0  0  0  0
   63.4610   34.2530   46.1830 O   0  0  0  0  0  0  0  0  0  0  0  0
   62.8100   34.3700   48.5350 O   0  0  0  0  0  0  0  0  0  0  0  0
   61.2950   32.8700   46.9220 C   0  0  0  0  0  0  0  0  0  0  0  0
   60.9140   31.5730   47.2860 C   0  0  0  0  0  0  0  0  0  0  0  0
   59.6370   31.0980   46.9700 C   0  0  0  0  0  0  0  0  0  0  0  0
   58.7260   31.9160   46.2760 C   0  0  0  0  0  0  0  0  0  0  0  0
   57.4000   31.4650   45.9620 N   0  0  0  0  0  0  0  0  0  0  0  0
   57.0250   30.6230   44.8640 C   0  0  0  0  0  0  0  0  0  0  0  0
   55.9550   30.8270   44.2290 O   0  0  0  0  0  0  0  0  0  0  0  0
   57.9090   29.4810   44.4790 C   0  0  0  0  0  0  0  0  0  0  0  0
   57.5490   28.2670   45.2810 C   0  0  0  0  0  0  0  0  0  0  0  0
   58.5030   27.6350   46.0910 C   0  0  0  0  0  0  0  0  0  0  0  0
   58.1070   26.5310   46.8480 C   0  0  0  0  0  0  0  0  0  0  0  0
   58.9390   25.9360   47.5820 O   0  0  0  0  0  0  0  0  0  0  0  0
   56.8210   26.0980   46.7920 N   0  0  0  0  0  0  0  0  0  0  0  0
   55.9050   26.7270   46.0110 C   0  0  0  0  0  0  0  0  0  0  0  0
   54.7170   26.3140   45.9770 O   0  0  0  0  0  0  0  0  0  0  0  0
   56.2710   27.8030   45.2670 N   0  0  0  0  0  0  0  0  0  0  0  0
   59.1000   33.2290   45.9430 C   0  0  0  0  0  0  0  0  0  0  0  0
   57.9800   34.3010   45.1140 Cl  0  0  0  0  0  0  0  0  0  0  0  0
   60.3810   33.6990   46.2600 C   0  0  0  0  0  0  0  0  0  0  0  0
   63.4240   31.2660   47.4120 H   0  0  0  0  0  0  0  0  0  0  0  0
   64.7630   32.2130   47.0610 H   0  0  0  0  0  0  0  0  0  0  0  0
   61.6221   30.9246   47.8229 H   0  0  0  0  0  0  0  0  0  0  0  0
   59.3432   30.0799   47.2654 H   0  0  0  0  0  0  0  0  0  0  0  0
   57.7789   29.2633   43.4086 H   0  0  0  0  0  0  0  0  0  0  0  0
   58.9569   29.7499   44.6780 H   0  0  0  0  0  0  0  0  0  0  0  0
   59.5397   28.0007   46.1291 H   0  0  0  0  0  0  0  0  0  0  0  0
   60.6704   34.7246   45.9875 H   0  0  0  0  0  0  0  0  0  0  0  0
  1  2  1  0
  2  3  2  0
  2  4  2  0
  2  5  1  0
  5  6  2  0
  6  7  1  0
  7  8  2  0
  8  9  1  0
  9 10  1  0
 10 11  2  0
 10 12  1  0
 12 13  1  0
 13 14  2  0
 14 15  1  0
 15 16  2  0
 15 17  1  0
 17 18  1  0
 18 19  2  0
 18 20  1  0
  8 21  1  0
 21 22  1  0
 21 23  2  0
 23  5  1  0
 20 13  1  0
  1 24  1  0
  1 25  1  0
  6 26  1  0
  7 27  1  0
 12 28  1  0
 12 29  1  0
 14 30  1  0
 23 31  1  0
M  CHG  3   9  -1  17  -1  20  -1
M  END
>  <UniqueID>  (93) 
84

>  <SMILES>  (93) 
NS(=O)(=O)c1ccc([N-]C(=O)Cc2cc(=O)[n-]c(=O)[n-]2)c(Cl)c1

>  <Energy>  (93) 
33.1471378064405

>  <Genealogy>  (93) 
NS(=O)(=O)c1ccc([N-]C(=O)Cc2cc(=O)[n-]c(=O)[n-]2)c(Cl)c1 (protonated)
NS(=O)(=O)c1ccc([N-]C(=O)Cc2cc(=O)[n-]c(=O)[n-]2)c(Cl)c1 (3D coordinates assigned)
NS(=O)(=O)c1ccc([N-]C(=O)Cc2cc(=O)[n-]c(=O)[n-]2)c(Cl)c1 (optimized conformer: 33.1471378064405 kcal/mol)

>  <smiles>  (93) 
NS(=O)(=O)c1ccc(NC(=O)Cc2cc(=O)[nH]c(=O)[nH]2)c(Cl)c1

>  <score_type>  (93) 
oracle

>  <origin>  (93) 
adg

>  <m_score__min__energy>  (93) 
-14

>  <m_primary>  (93) 
energy

$$$$
93:0
     RDKit          3D

 38 39  0  0  0  0  0  0  0  0999 V2000
   57.6490   34.2130   45.4990 C   0  0  0  0  0  0  0  0  0  0  0  0
   58.8840   33.3260   45.3950 C   0  0  0  0  0  0  0  0  0  0  0  0
   58.7060   31.7940   46.3150 S   0  0  0  0  0  0  0  0  0  0  0  0
   58.4310   32.1530   47.7480 O   0  0  0  0  0  0  0  0  0  0  0  0
   60.0040   31.0360   46.2610 O   0  0  0  0  0  0  0  0  0  0  0  0
   57.4020   30.7720   45.7540 N   0  0  0  0  0  0  0  0  0  0  0  0
   56.9800   31.1330   44.3950 C   0  0  0  0  0  0  0  0  0  0  0  0
   55.7440   30.2980   43.9960 C   0  0  0  0  0  0  0  0  0  0  0  0
   55.5730   29.1390   44.7980 O   0  0  0  0  0  0  0  0  0  0  0  0
   56.8120   28.4780   44.9780 C   0  0  2  0  0  0  0  0  0  0  0  0
   56.5780   27.1400   45.6120 C   0  0  0  0  0  0  0  0  0  0  0  0
   57.5700   26.2840   45.9260 N   0  0  0  0  0  0  0  0  0  0  0  0
   56.8870   25.2830   46.5180 C   0  0  0  0  0  0  0  0  0  0  0  0
   57.5310   24.0460   47.0810 C   0  0  0  0  0  0  0  0  0  0  0  0
   58.0190   23.1400   45.9470 C   0  0  0  0  0  0  0  0  0  0  0  0
   56.5530   23.3020   47.9940 C   0  0  0  0  0  0  0  0  0  0  0  0
   55.5640   25.5250   46.5790 N   0  0  0  0  0  0  0  0  0  0  0  0
   55.3700   26.7010   46.0100 N   0  0  0  0  0  0  0  0  0  0  0  0
   57.7490   29.3410   45.8560 C   0  0  0  0  0  0  0  0  0  0  0  0
   57.4094   34.3851   46.5587 H   0  0  0  0  0  0  0  0  0  0  0  0
   57.8471   35.1765   45.0067 H   0  0  0  0  0  0  0  0  0  0  0  0
   56.7992   33.7176   45.0067 H   0  0  0  0  0  0  0  0  0  0  0  0
   59.0570   33.0840   44.3360 H   0  0  0  0  0  0  0  0  0  0  0  0
   59.7316   33.8793   45.8257 H   0  0  0  0  0  0  0  0  0  0  0  0
   56.7248   32.2025   44.3631 H   0  0  0  0  0  0  0  0  0  0  0  0
   57.8008   30.9285   43.6918 H   0  0  0  0  0  0  0  0  0  0  0  0
   54.8482   30.9285   44.0962 H   0  0  0  0  0  0  0  0  0  0  0  0
   55.8961   29.9608   42.9601 H   0  0  0  0  0  0  0  0  0  0  0  0
   57.2939   28.3285   44.0005 H   0  0  0  0  0  0  0  0  0  0  0  0
   58.4016   24.3428   47.6842 H   0  0  0  0  0  0  0  0  0  0  0  0
   58.5001   22.2469   46.3724 H   0  0  0  0  0  0  0  0  0  0  0  0
   57.1630   22.8352   45.3270 H   0  0  0  0  0  0  0  0  0  0  0  0
   58.7445   23.6871   45.3270 H   0  0  0  0  0  0  0  0  0  0  0  0
   56.8110   23.4983   49.0451 H   0  0  0  0  0  0  0  0  0  0  0  0
   55.5288   23.6514   47.7964 H   0  0  0  0  0  0  0  0  0  0  0  0
   56.6164   22.2217   47.7964 H   0  0  0  0  0  0  0  0  0  0  0  0
   57.6541   29.0219   46.9044 H   0  0  0  0  0  0  0  0  0  0  0  0
   58.7821   29.2055   45.5033 H   0  0  0  0  0  0  0  0  0  0  0  0
  1  2  1  0
  2  3  1  0
  3  4  2  0
  3  5  2  0
  3  6  1  0
  6  7  1  0
  7  8  1  0
  8  9  1  0
  9 10  1  0
 10 11  1  0
 11 12  2  0
 12 13  1  0
 13 14  1  0
 14 15  1  0
 14 16  1  0
 13 17  2  0
 17 18  1  0
 10 19  1  0
 19  6  1  0
 18 11  1  0
  1 20  1  0
  1 21  1  0
  1 22  1  0
  2 23  1  0
  2 24  1  0
  7 25  1  0
  7 26  1  0
  8 27  1  0
  8 28  1  0
 10 29  1  6
 14 30  1  0
 15 31  1  0
 15 32  1  0
 15 33  1  0
 16 34  1  0
 16 35  1  0
 16 36  1  0
 19 37  1  0
 19 38  1  0
M  CHG  1  18  -1
M  END
>  <UniqueID>  (94) 
85

>  <SMILES>  (94) 
CCS(=O)(=O)N1CCO[C@H](c2nc(C(C)C)n[n-]2)C1

>  <Energy>  (94) 
65.14377317630925

>  <Genealogy>  (94) 
CCS(=O)(=O)N1CCOC(c2nc(C(C)C)n[n-]2)C1 (protonated)
CCS(=O)(=O)N1CCO[C@H](c2nc(C(C)C)n[n-]2)C1 (chirality)
CCS(=O)(=O)N1CCO[C@H](c2nc(C(C)C)n[n-]2)C1 (3D coordinates assigned)
CCS(=O)(=O)N1CCO[C@H](c2nc(C(C)C)n[n-]2)C1 (nonaromatic ring conformer: 65.14377317630925 kcal/mol)

>  <smiles>  (94) 
CCS(=O)(=O)N1CCOC(c2nc(C(C)C)n[nH]2)C1

>  <score_type>  (94) 
oracle

>  <origin>  (94) 
adg

>  <m_score__min__energy>  (94) 
-9.2599999999999998

>  <m_primary>  (94) 
energy

$$$$
94:0
     RDKit          3D

 39 41  0  0  0  0  0  0  0  0999 V2000
   55.1550   29.3750   44.8650 O   0  0  0  0  0  0  0  0  0  0  0  0
   56.4140   29.3730   44.7990 C   0  0  0  0  0  0  0  0  0  0  0  0
   57.1270   28.1310   44.7070 N   0  0  0  0  0  0  0  0  0  0  0  0
   58.1740   27.6770   45.5770 C   0  0  0  0  0  0  0  0  0  0  0  0
   57.9140   26.8660   46.6980 C   0  0  0  0  0  0  0  0  0  0  0  0
   58.9670   26.4250   47.5060 C   0  0  0  0  0  0  0  0  0  0  0  0
   60.2840   26.7770   47.1960 C   0  0  0  0  0  0  0  0  0  0  0  0
   61.3040   26.3470   47.9800 F   0  0  0  0  0  0  0  0  0  0  0  0
   60.5500   27.5610   46.0710 C   0  0  0  0  0  0  0  0  0  0  0  0
   59.4990   28.0020   45.2610 C   0  0  0  0  0  0  0  0  0  0  0  0
   57.1580   30.6510   44.8690 C   0  0  0  0  0  0  0  0  0  0  0  0
   57.9000   30.9900   46.0110 C   0  0  0  0  0  0  0  0  0  0  0  0
   58.5960   32.1980   46.0650 C   0  0  0  0  0  0  0  0  0  0  0  0
   58.5500   33.0650   44.9720 C   0  0  0  0  0  0  0  0  0  0  0  0
   59.4410   34.6210   45.0250 S   0  0  0  0  0  0  0  0  0  0  0  0
   59.4790   34.6720   46.8460 C   0  0  0  0  0  0  0  0  0  0  0  0
   60.8070   34.1720   47.3330 C   0  0  0  0  0  0  0  0  0  0  0  0
   61.8080   33.8100   46.4160 C   0  0  0  0  0  0  0  0  0  0  0  0
   63.0570   33.3750   46.8720 C   0  0  0  0  0  0  0  0  0  0  0  0
   63.3180   33.3090   48.2420 C   0  0  0  0  0  0  0  0  0  0  0  0
   62.3320   33.6820   49.1610 C   0  0  0  0  0  0  0  0  0  0  0  0
   61.0820   34.1170   48.7100 C   0  0  0  0  0  0  0  0  0  0  0  0
   57.8240   32.7310   43.8690 N   0  0  0  0  0  0  0  0  0  0  0  0
   57.1380   31.5590   43.7940 C   0  0  0  0  0  0  0  0  0  0  0  0
   56.8800   26.5784   46.9390 H   0  0  0  0  0  0  0  0  0  0  0  0
   58.7586   25.8001   48.3869 H   0  0  0  0  0  0  0  0  0  0  0  0
   61.5867   27.8316   45.8221 H   0  0  0  0  0  0  0  0  0  0  0  0
   59.7145   28.6086   44.3691 H   0  0  0  0  0  0  0  0  0  0  0  0
   57.9330   30.3003   46.8673 H   0  0  0  0  0  0  0  0  0  0  0  0
   59.1758   32.4648   46.9609 H   0  0  0  0  0  0  0  0  0  0  0  0
   59.3295   35.7071   47.1870 H   0  0  0  0  0  0  0  0  0  0  0  0
   58.6776   34.0342   47.2473 H   0  0  0  0  0  0  0  0  0  0  0  0
   61.6090   33.8688   45.3358 H   0  0  0  0  0  0  0  0  0  0  0  0
   63.8345   33.0846   46.1502 H   0  0  0  0  0  0  0  0  0  0  0  0
   64.2995   32.9635   48.5987 H   0  0  0  0  0  0  0  0  0  0  0  0
   62.5401   33.6331   50.2400 H   0  0  0  0  0  0  0  0  0  0  0  0
   60.3114   34.4171   49.4354 H   0  0  0  0  0  0  0  0  0  0  0  0
   57.7940   33.3870   43.0560 H   0  0  0  0  0  0  0  0  0  0  0  0
   56.5637   31.3192   42.8870 H   0  0  0  0  0  0  0  0  0  0  0  0
  1  2  2  0
  2  3  1  0
  3  4  1  0
  4  5  2  0
  5  6  1  0
  6  7  2  0
  7  8  1  0
  7  9  1  0
  9 10  2  0
  2 11  1  0
 11 12  2  0
 12 13  1  0
 13 14  2  0
 14 15  1  0
 15 16  1  0
 16 17  1  0
 17 18  2  0
 18 19  1  0
 19 20  2  0
 20 21  1  0
 21 22  2  0
 14 23  1  0
 23 24  2  0
 10  4  1  0
 24 11  1  0
 22 17  1  0
  5 25  1  0
  6 26  1  0
  9 27  1  0
 10 28  1  0
 12 29  1  0
 13 30  1  0
 16 31  1  0
 16 32  1  0
 18 33  1  0
 19 34  1  0
 20 35  1  0
 21 36  1  0
 22 37  1  0
 23 38  1  0
 24 39  1  0
M  CHG  2   3  -1  23   1
M  END
>  <UniqueID>  (95) 
86

>  <SMILES>  (95) 
O=C([N-]c1ccc(F)cc1)c1ccc(SCc2ccccc2)[nH+]c1

>  <Energy>  (95) 
41.50140830825192

>  <Genealogy>  (95) 
O=C([N-]c1ccc(F)cc1)c1ccc(SCc2ccccc2)[nH+]c1 (protonated)
O=C([N-]c1ccc(F)cc1)c1ccc(SCc2ccccc2)[nH+]c1 (3D coordinates assigned)
O=C([N-]c1ccc(F)cc1)c1ccc(SCc2ccccc2)[nH+]c1 (optimized conformer: 41.50140830825192 kcal/mol)

>  <smiles>  (95) 
O=C(Nc1ccc(F)cc1)c1ccc(SCc2ccccc2)nc1

>  <score_type>  (95) 
oracle

>  <origin>  (95) 
adg

>  <m_score__min__energy>  (95) 
-8.0800000000000001

>  <m_primary>  (95) 
energy

$$$$
