0:0
     RDKit          3D

 44 48  0  0  0  0  0  0  0  0999 V2000
   55.1420   27.5140   45.4110 H   0  0  0  0  0  0  0  0  0  0  0  0
   54.9870   26.7050   45.9990 O   0  0  0  0  0  0  0  0  0  0  0  0
   56.0400   25.8650   46.3430 C   0  0  0  0  0  0  0  0  0  0  0  0
   55.9010   24.7670   47.1060 N   0  0  0  0  0  0  0  0  0  0  0  0
   57.1460   24.2450   47.1070 C   0  0  0  0  0  0  0  0  0  0  0  0
   57.4350   23.1850   47.7200 O   0  0  0  0  0  0  0  0  0  0  0  0
   58.0540   24.9440   46.3910 N   0  0  0  0  0  0  0  0  0  0  0  0
   57.3480   25.9900   45.9250 C   0  0  0  0  0  0  0  0  0  0  0  0
   57.9120   27.0020   45.0170 C   0  0  0  0  0  0  0  0  0  0  0  0
   58.5445   26.6561   44.1861 H   0  0  0  0  0  0  0  0  0  0  0  0
   57.7010   28.3200   45.1420 C   0  0  0  0  0  0  0  0  0  0  0  0
   56.8480   29.1520   44.4150 C   0  0  0  0  0  0  0  0  0  0  0  0
   56.2178   28.8320   43.5722 H   0  0  0  0  0  0  0  0  0  0  0  0
   56.9140   30.4140   44.9050 N   0  0  0  0  0  0  0  0  0  0  0  0
   57.7740   30.3990   45.9110 N   0  0  0  0  0  0  0  0  0  0  0  0
   58.1720   31.4250   46.7180 C   0  0  0  0  0  0  0  0  0  0  0  0
   57.7350   32.6460   46.5890 N   0  0  0  0  0  0  0  0  0  0  0  0
   58.3610   33.7150   45.8180 C   0  0  0  0  0  0  0  0  0  0  0  0
   57.6192   33.7696   45.0076 H   0  0  0  0  0  0  0  0  0  0  0  0
   59.8790   33.7100   45.8750 C   0  0  0  0  0  0  0  0  0  0  0  0
   60.4082   32.8846   46.3737 H   0  0  0  0  0  0  0  0  0  0  0  0
   60.6861   33.7772   45.1306 H   0  0  0  0  0  0  0  0  0  0  0  0
   59.0880   34.7150   46.6990 C   0  0  0  0  0  0  0  0  0  0  0  0
   59.0454   34.6166   47.7938 H   0  0  0  0  0  0  0  0  0  0  0  0
   59.0862   35.8106   46.7975 H   0  0  0  0  0  0  0  0  0  0  0  0
   59.0740   31.1470   47.6990 N   0  0  0  0  0  0  0  0  0  0  0  0
   59.5640   29.8780   47.8710 C   0  0  0  0  0  0  0  0  0  0  0  0
   60.4230   29.6200   48.8090 N   0  0  0  0  0  0  0  0  0  0  0  0
   60.9910   30.6260   49.7000 C   0  0  0  0  0  0  0  0  0  0  0  0
   60.1863   31.0927   50.2871 H   0  0  0  0  0  0  0  0  0  0  0  0
   61.7112   30.1492   50.3811 H   0  0  0  0  0  0  0  0  0  0  0  0
   61.6910   31.6770   48.8840 C   0  0  0  0  0  0  0  0  0  0  0  0
   62.6160   31.3000   47.8960 C   0  0  0  0  0  0  0  0  0  0  0  0
   62.8070   30.2341   47.7029 H   0  0  0  0  0  0  0  0  0  0  0  0
   63.2950   32.2740   47.1570 C   0  0  0  0  0  0  0  0  0  0  0  0
   64.0121   31.9724   46.3793 H   0  0  0  0  0  0  0  0  0  0  0  0
   63.0640   33.6300   47.4050 C   0  0  0  0  0  0  0  0  0  0  0  0
   63.7240   34.5720   46.6890 F   0  0  0  0  0  0  0  0  0  0  0  0
   62.1570   34.0130   48.3980 C   0  0  0  0  0  0  0  0  0  0  0  0
   61.9790   35.0804   48.5957 H   0  0  0  0  0  0  0  0  0  0  0  0
   61.4750   33.0430   49.1410 C   0  0  0  0  0  0  0  0  0  0  0  0
   60.6110   33.4370   50.1110 F   0  0  0  0  0  0  0  0  0  0  0  0
   59.1490   28.8720   47.0520 N   0  0  0  0  0  0  0  0  0  0  0  0
   58.2530   29.1630   46.0790 C   0  0  0  0  0  0  0  0  0  0  0  0
  1  2  1  0
  2  3  1  0
  3  4  1  0
  4  5  1  0
  5  6  2  0
  5  7  1  0
  7  8  1  0
  8  9  1  0
  9 10  1  0
  9 11  2  0
 11 12  1  0
 12 13  1  0
 12 14  2  0
 14 15  1  0
 15 16  1  0
 16 17  2  3
 17 18  1  0
 18 19  1  0
 18 20  1  0
 20 21  1  0
 20 22  1  0
 20 23  1  0
 23 24  1  0
 23 25  1  0
 16 26  1  0
 26 27  1  0
 27 28  2  3
 28 29  1  0
 29 30  1  0
 29 31  1  0
 29 32  1  0
 32 33  2  0
 33 34  1  0
 33 35  1  0
 35 36  1  0
 35 37  2  0
 37 38  1  0
 37 39  1  0
 39 40  1  0
 39 41  2  0
 41 42  1  0
 27 43  1  0
 43 44  2  0
  8  3  2  0
 44 11  1  0
 44 15  1  0
 23 18  1  0
 41 32  1  0
M  CHG  3   4  -1   7  -1  26  -1
M  END
>  <UniqueID>  (1) 
1

>  <SMILES>  (1) 
O=c1[n-]c(O)c(/C=c2\cnn3c(=NC4CC4)[n-]c(=NCc4ccc(F)cc4F)nc23)[n-]1

>  <Energy>  (1) 
388.53844729503373

>  <Genealogy>  (1) 
O=c1[n-]c(O)c(C=c2cnn3c(=NC4CC4)[n-]c(=NCc4ccc(F)cc4F)nc23)[n-]1 (protonated)
O=c1[n-]c(O)c(/C=c2\cnn3c(=NC4CC4)[n-]c(=NCc4ccc(F)cc4F)nc23)[n-]1 (cis-trans isomerization)
O=c1[n-]c(O)c(/C=c2\cnn3c(=NC4CC4)[n-]c(=NCc4ccc(F)cc4F)nc23)[n-]1 (3D coordinates assigned)
O=c1[n-]c(O)c(/C=c2\cnn3c(=NC4CC4)[n-]c(=NCc4ccc(F)cc4F)nc23)[n-]1 (nonaromatic ring conformer: 388.53844729503373 kcal/mol)

>  <smiles>  (1) 
O=c1[nH]c(O)c(C=c2cnn3c(=NC4CC4)[nH]c(=NCc4ccc(F)cc4F)nc23)[nH]1

>  <score_type>  (1) 
oracle

>  <origin>  (1) 
adg

>  <m_score__min__energy>  (1) 
-14.35

>  <m_primary>  (1) 
energy

$$$$
1:0
     RDKit          3D

 54 57  0  0  0  0  0  0  0  0999 V2000
   59.4780   35.2910   45.3060 C   0  0  0  0  0  0  0  0  0  0  0  0
   59.1540   33.8730   45.7780 C   0  0  0  0  0  0  0  0  0  0  0  0
   59.6400   33.6560   47.2140 C   0  0  0  0  0  0  0  0  0  0  0  0
   57.3960   33.5260   45.6610 S   0  0  0  0  0  0  0  0  0  0  0  0
   56.7700   33.4720   47.0260 O   0  0  0  0  0  0  0  0  0  0  0  0
   56.7470   34.6460   44.8990 O   0  0  0  0  0  0  0  0  0  0  0  0
   57.1070   32.0470   44.7960 N   0  0  0  0  0  0  0  0  0  0  0  0
   57.4680   30.7180   45.1970 C   0  0  0  0  0  0  0  0  0  0  0  0
   57.1350   29.5790   44.4420 C   0  0  0  0  0  0  0  0  0  0  0  0
   57.4890   28.3040   44.8930 C   0  0  0  0  0  0  0  0  0  0  0  0
   58.1970   28.1470   46.0950 C   0  0  0  0  0  0  0  0  0  0  0  0
   58.4940   26.7730   46.6300 C   0  0  0  0  0  0  0  0  0  0  0  0
   57.5010   25.8070   46.0700 C   0  0  0  0  0  0  0  0  0  0  0  0
   56.2320   25.7140   46.5470 N   0  0  0  0  0  0  0  0  0  0  0  0
   55.6560   24.8770   45.6740 C   0  0  0  0  0  0  0  0  0  0  0  0
   54.3240   24.4830   45.6320 C   0  0  0  0  0  0  0  0  0  0  0  0
   53.8990   23.7070   44.5290 C   0  0  0  0  0  0  0  0  0  0  0  0
   52.5180   23.3750   44.3410 N   0  0  0  0  0  0  0  0  0  0  0  0
   51.7110   22.6090   45.2500 C   0  0  0  0  0  0  0  0  0  0  0  0
   50.5040   22.9220   45.4050 O   0  0  0  0  0  0  0  0  0  0  0  0
   52.2390   21.4920   45.9830 N   0  0  0  0  0  0  0  0  0  0  0  0
   53.4430   21.4940   46.7670 C   0  0  0  0  0  0  0  0  0  0  0  0
   53.5610   22.2830   47.9240 C   0  0  0  0  0  0  0  0  0  0  0  0
   54.7610   22.3050   48.6410 C   0  0  0  0  0  0  0  0  0  0  0  0
   55.8440   21.5310   48.2170 C   0  0  0  0  0  0  0  0  0  0  0  0
   55.7240   20.7230   47.0830 C   0  0  0  0  0  0  0  0  0  0  0  0
   54.5230   20.6950   46.3650 C   0  0  0  0  0  0  0  0  0  0  0  0
   54.4240   19.9210   45.2560 F   0  0  0  0  0  0  0  0  0  0  0  0
   54.8440   23.2810   43.5640 C   0  0  0  0  0  0  0  0  0  0  0  0
   56.1880   23.6910   43.6490 C   0  0  0  0  0  0  0  0  0  0  0  0
   56.5490   24.5050   44.7180 C   0  0  0  0  0  0  0  0  0  0  0  0
   57.7340   25.0920   44.9380 N   0  0  0  0  0  0  0  0  0  0  0  0
   58.5330   29.2850   46.8450 C   0  0  0  0  0  0  0  0  0  0  0  0
   58.1770   30.5580   46.3950 C   0  0  0  0  0  0  0  0  0  0  0  0
   59.6270   35.9431   46.1793 H   0  0  0  0  0  0  0  0  0  0  0  0
   60.3956   35.2749   44.6996 H   0  0  0  0  0  0  0  0  0  0  0  0
   58.6445   35.6750   44.6996 H   0  0  0  0  0  0  0  0  0  0  0  0
   59.6841   33.1749   45.1135 H   0  0  0  0  0  0  0  0  0  0  0  0
   58.8684   34.0005   47.9182 H   0  0  0  0  0  0  0  0  0  0  0  0
   59.8342   32.5857   47.3776 H   0  0  0  0  0  0  0  0  0  0  0  0
   60.5665   34.2259   47.3776 H   0  0  0  0  0  0  0  0  0  0  0  0
   56.5931   29.6921   43.4915 H   0  0  0  0  0  0  0  0  0  0  0  0
   57.2111   27.4185   44.3025 H   0  0  0  0  0  0  0  0  0  0  0  0
   59.5092   26.4727   46.3316 H   0  0  0  0  0  0  0  0  0  0  0  0
   58.4272   26.7796   47.7280 H   0  0  0  0  0  0  0  0  0  0  0  0
   53.6229   24.7657   46.4311 H   0  0  0  0  0  0  0  0  0  0  0  0
   52.7065   22.8851   48.2665 H   0  0  0  0  0  0  0  0  0  0  0  0
   54.8525   22.9324   49.5399 H   0  0  0  0  0  0  0  0  0  0  0  0
   56.7912   21.5575   48.7757 H   0  0  0  0  0  0  0  0  0  0  0  0
   56.5748   20.1081   46.7543 H   0  0  0  0  0  0  0  0  0  0  0  0
   54.5251   22.6243   42.7412 H   0  0  0  0  0  0  0  0  0  0  0  0
   56.9270   23.3787   42.8965 H   0  0  0  0  0  0  0  0  0  0  0  0
   59.0800   29.1733   47.7928 H   0  0  0  0  0  0  0  0  0  0  0  0
   58.4555   31.4429   46.9861 H   0  0  0  0  0  0  0  0  0  0  0  0
  1  2  1  0
  2  3  1  0
  2  4  1  0
  4  5  2  0
  4  6  2  0
  4  7  1  0
  7  8  1  0
  8  9  2  0
  9 10  1  0
 10 11  2  0
 11 12  1  0
 12 13  1  0
 13 14  2  0
 14 15  1  0
 15 16  2  0
 16 17  1  0
 17 18  1  0
 18 19  1  0
 19 20  2  0
 19 21  1  0
 21 22  1  0
 22 23  2  0
 23 24  1  0
 24 25  2  0
 25 26  1  0
 26 27  2  0
 27 28  1  0
 17 29  2  0
 29 30  1  0
 30 31  2  0
 31 32  1  0
 11 33  1  0
 33 34  2  0
 34  8  1  0
 32 13  1  0
 31 15  1  0
 27 22  1  0
  1 35  1  0
  1 36  1  0
  1 37  1  0
  2 38  1  0
  3 39  1  0
  3 40  1  0
  3 41  1  0
  9 42  1  0
 10 43  1  0
 12 44  1  0
 12 45  1  0
 16 46  1  0
 23 47  1  0
 24 48  1  0
 25 49  1  0
 26 50  1  0
 29 51  1  0
 30 52  1  0
 33 53  1  0
 34 54  1  0
M  CHG  4   7  -1  18  -1  21  -1  32  -1
M  END
>  <UniqueID>  (2) 
2

>  <SMILES>  (2) 
CC(C)S(=O)(=O)[N-]c1ccc(Cc2nc3cc([N-]C(=O)[N-]c4ccccc4F)ccc3[n-]2)cc1

>  <Energy>  (2) 
91.05229777332518

>  <Genealogy>  (2) 
CC(C)S(=O)(=O)[N-]c1ccc(Cc2nc3cc([N-]C(=O)[N-]c4ccccc4F)ccc3[n-]2)cc1 (protonated)
CC(C)S(=O)(=O)[N-]c1ccc(Cc2nc3cc([N-]C(=O)[N-]c4ccccc4F)ccc3[n-]2)cc1 (3D coordinates assigned)
CC(C)S(=O)(=O)[N-]c1ccc(Cc2nc3cc([N-]C(=O)[N-]c4ccccc4F)ccc3[n-]2)cc1 (optimized conformer: 91.05229777332518 kcal/mol)

>  <smiles>  (2) 
CC(C)S(=O)(=O)Nc1ccc(Cc2nc3cc(NC(=O)Nc4ccccc4F)ccc3[nH]2)cc1

>  <score_type>  (2) 
oracle

>  <origin>  (2) 
adg

>  <m_score__min__energy>  (2) 
-14.279999999999999

>  <m_primary>  (2) 
energy

$$$$
2:0
     RDKit          3D

 59 62  0  0  0  0  0  0  0  0999 V2000
   55.5110   26.7340   45.9830 N   0  0  0  0  0  0  0  0  0  0  0  0
   56.6280   27.5740   45.6980 C   0  0  0  0  0  0  0  0  0  0  0  0
   56.4410   28.6460   45.0600 O   0  0  0  0  0  0  0  0  0  0  0  0
   57.9900   27.1930   46.1390 C   0  0  0  0  0  0  0  0  0  0  0  0
   58.6090   26.0370   45.6330 C   0  0  0  0  0  0  0  0  0  0  0  0
   59.8960   25.6840   46.0450 C   0  0  0  0  0  0  0  0  0  0  0  0
   60.5850   26.4820   46.9590 C   0  0  0  0  0  0  0  0  0  0  0  0
   59.9910   27.6480   47.4680 C   0  0  0  0  0  0  0  0  0  0  0  0
   60.7450   28.5190   48.4390 C   0  0  0  0  0  0  0  0  0  0  0  0
   60.4620   29.9400   48.1860 N   0  0  0  0  0  0  0  0  0  0  0  0
   61.0200   30.5490   47.0110 C   0  0  0  0  0  0  0  0  0  0  0  0
   60.6070   30.1890   45.8760 O   0  0  0  0  0  0  0  0  0  0  0  0
   62.0630   31.6270   47.1250 C   0  0  2  0  0  0  0  0  0  0  0  0
   63.2110   31.2730   48.1090 C   0  0  0  0  0  0  0  0  0  0  0  0
   63.8950   32.4340   48.7130 N   0  0  0  0  0  0  0  0  0  0  0  0
   63.8780   32.4530   50.1880 C   0  0  1  0  0  0  0  0  0  0  0  0
   63.4100   33.7860   50.7040 C   0  0  0  0  0  0  0  0  0  0  0  0
   63.0430   34.6530   49.9270 O   0  0  0  0  0  0  0  0  0  0  0  0
   62.9370   31.3980   50.6910 C   0  0  0  0  0  0  0  0  0  0  0  0
   61.7520   31.6980   50.9970 O   0  0  0  0  0  0  0  0  0  0  0  0
   63.3550   30.0760   50.7910 O   0  0  0  0  0  0  0  0  0  0  0  0
   61.3740   32.9070   47.5090 C   0  0  0  0  0  0  0  0  0  0  0  0
   62.0040   33.9940   47.6210 O   0  0  0  0  0  0  0  0  0  0  0  0
   59.9760   32.8660   47.7930 N   0  0  0  0  0  0  0  0  0  0  0  0
   59.0820   33.3840   46.7860 C   0  0  0  0  0  0  0  0  0  0  0  0
   57.8180   32.7990   46.5870 C   0  0  0  0  0  0  0  0  0  0  0  0
   56.9630   33.2850   45.5940 C   0  0  0  0  0  0  0  0  0  0  0  0
   57.3630   34.3540   44.7880 C   0  0  0  0  0  0  0  0  0  0  0  0
   58.6190   34.9370   44.9720 C   0  0  0  0  0  0  0  0  0  0  0  0
   59.4770   34.4540   45.9650 C   0  0  0  0  0  0  0  0  0  0  0  0
   59.4730   32.1340   48.9410 C   0  0  0  0  0  0  0  0  0  0  0  0
   58.7630   32.8420   49.9340 C   0  0  0  0  0  0  0  0  0  0  0  0
   58.2250   32.1860   51.0400 C   0  0  0  0  0  0  0  0  0  0  0  0
   58.3830   30.8120   51.1800 C   0  0  0  0  0  0  0  0  0  0  0  0
   59.1000   30.0900   50.2280 C   0  0  0  0  0  0  0  0  0  0  0  0
   59.6830   30.7310   49.1160 C   0  0  0  0  0  0  0  0  0  0  0  0
   58.6870   27.9880   47.0680 C   0  0  0  0  0  0  0  0  0  0  0  0
   54.7280   27.0680   46.5890 H   0  0  0  0  0  0  0  0  0  0  0  0
   58.0758   25.4056   44.9071 H   0  0  0  0  0  0  0  0  0  0  0  0
   60.3682   24.7735   45.6475 H   0  0  0  0  0  0  0  0  0  0  0  0
   61.5971   26.1966   47.2819 H   0  0  0  0  0  0  0  0  0  0  0  0
   60.4386   28.2663   49.4648 H   0  0  0  0  0  0  0  0  0  0  0  0
   61.8232   28.3433   48.3102 H   0  0  0  0  0  0  0  0  0  0  0  0
   62.5578   31.7389   46.1490 H   0  0  0  0  0  0  0  0  0  0  0  0
   62.7881   30.6650   48.9223 H   0  0  0  0  0  0  0  0  0  0  0  0
   63.9709   30.7421   47.5168 H   0  0  0  0  0  0  0  0  0  0  0  0
   63.4800   33.3160   48.3340 H   0  0  0  0  0  0  0  0  0  0  0  0
   64.9019   32.2648   50.5433 H   0  0  0  0  0  0  0  0  0  0  0  0
   63.3984   33.9805   51.7866 H   0  0  0  0  0  0  0  0  0  0  0  0
   57.5010   31.9544   47.2165 H   0  0  0  0  0  0  0  0  0  0  0  0
   55.9744   32.8256   45.4469 H   0  0  0  0  0  0  0  0  0  0  0  0
   56.6884   34.7367   44.0080 H   0  0  0  0  0  0  0  0  0  0  0  0
   58.9335   35.7769   44.3351 H   0  0  0  0  0  0  0  0  0  0  0  0
   60.4664   34.9141   46.1042 H   0  0  0  0  0  0  0  0  0  0  0  0
   58.6320   33.9295   49.8336 H   0  0  0  0  0  0  0  0  0  0  0  0
   57.6748   32.7563   51.8029 H   0  0  0  0  0  0  0  0  0  0  0  0
   57.9412   30.2938   52.0439 H   0  0  0  0  0  0  0  0  0  0  0  0
   59.2129   29.0022   50.3461 H   0  0  0  0  0  0  0  0  0  0  0  0
   58.2062   28.8850   47.4855 H   0  0  0  0  0  0  0  0  0  0  0  0
  1  2  1  0
  2  3  2  0
  2  4  1  0
  4  5  2  0
  5  6  1  0
  6  7  2  0
  7  8  1  0
  8  9  1  0
  9 10  1  0
 10 11  1  0
 11 12  2  0
 11 13  1  0
 13 14  1  0
 14 15  1  0
 15 16  1  0
 16 17  1  0
 17 18  2  0
 16 19  1  0
 19 20  2  0
 19 21  1  0
 13 22  1  0
 22 23  2  0
 22 24  1  0
 24 25  1  0
 25 26  2  0
 26 27  1  0
 27 28  2  0
 28 29  1  0
 29 30  2  0
 24 31  1  0
 31 32  2  0
 32 33  1  0
 33 34  2  0
 34 35  1  0
 35 36  2  0
  8 37  2  0
 37  4  1  0
 36 10  1  0
 30 25  1  0
 36 31  1  0
  1 38  1  0
  5 39  1  0
  6 40  1  0
  7 41  1  0
  9 42  1  0
  9 43  1  0
 13 44  1  6
 14 45  1  0
 14 46  1  0
 15 47  1  0
 16 48  1  1
 17 49  1  0
 26 50  1  0
 27 51  1  0
 28 52  1  0
 29 53  1  0
 30 54  1  0
 32 55  1  0
 33 56  1  0
 34 57  1  0
 35 58  1  0
 37 59  1  0
M  CHG  2   1  -1  21  -1
M  END
>  <UniqueID>  (3) 
3

>  <SMILES>  (3) 
[NH-]C(=O)c1cccc(CN2C(=O)[C@H](CN[C@@H](C=O)C(=O)[O-])C(=O)N(c3ccccc3)c3ccccc32)c1

>  <Energy>  (3) 
95.17019597824718

>  <Genealogy>  (3) 
[NH-]C(=O)c1cccc(CN2C(=O)C(CNC(C=O)C(=O)[O-])C(=O)N(c3ccccc3)c3ccccc32)c1 (protonated)
[NH-]C(=O)c1cccc(CN2C(=O)[C@H](CN[C@@H](C=O)C(=O)[O-])C(=O)N(c3ccccc3)c3ccccc32)c1 (chirality)
[NH-]C(=O)c1cccc(CN2C(=O)[C@H](CN[C@@H](C=O)C(=O)[O-])C(=O)N(c3ccccc3)c3ccccc32)c1 (3D coordinates assigned)
[NH-]C(=O)c1cccc(CN2C(=O)[C@H](CN[C@@H](C=O)C(=O)[O-])C(=O)N(c3ccccc3)c3ccccc32)c1 (nonaromatic ring conformer: 95.17019597824718 kcal/mol)

>  <smiles>  (3) 
NC(=O)c1cccc(CN2C(=O)C(CNC(C=O)C(=O)O)C(=O)N(c3ccccc3)c3ccccc32)c1

>  <score_type>  (3) 
oracle

>  <origin>  (3) 
adg

>  <m_score__min__energy>  (3) 
-11.92

>  <m_primary>  (3) 
energy

$$$$
3:0
     RDKit          3D

 43 45  0  0  1  0  0  0  0  0999 V2000
   56.8770   21.6750   43.1990 C   0  0  0  0  0  0  0  0  0  0  0  0
   55.8610   22.5300   43.6900 O   0  0  0  0  0  0  0  0  0  0  0  0
   56.2170   23.7250   44.3000 C   0  0  0  0  0  0  0  0  0  0  0  0
   55.5140   24.1680   45.4170 C   0  0  0  0  0  0  0  0  0  0  0  0
   55.9020   25.3720   45.9990 C   0  0  0  0  0  0  0  0  0  0  0  0
   56.9460   26.1070   45.4950 C   0  0  0  0  0  0  0  0  0  0  0  0
   57.3750   27.3220   46.1060 N   0  0  0  0  0  0  0  0  0  0  0  0
   57.0810   28.6100   45.5860 C   0  0  0  0  0  0  0  0  0  0  0  0
   58.0000   29.6220   45.7090 C   0  0  0  0  0  0  0  0  0  0  0  0
   57.6610   30.8620   45.2140 C   0  0  0  0  0  0  0  0  0  0  0  0
   58.4590   31.8410   45.2970 N   0  0  0  0  0  0  0  0  0  0  0  0
   59.1590   32.2370   46.4710 C   0  0  0  0  0  0  0  0  0  0  0  0
   58.5760   32.3130   47.7160 C   0  0  0  0  0  0  0  0  0  0  0  0
   59.2820   32.7100   48.8310 C   0  0  0  0  0  0  0  0  0  0  0  0
   60.6220   33.0520   48.7430 C   0  0  0  0  0  0  0  0  0  0  0  0
   61.2210   32.9810   47.5080 C   0  0  0  0  0  0  0  0  0  0  0  0
   62.9210   33.4230   47.4000 S   0  0  0  0  0  0  0  0  0  0  0  0
   63.8150   31.9240   47.4670 N   0  0  0  0  0  0  0  0  0  0  0  0
   63.2240   34.2180   46.1890 O   0  0  0  0  0  0  0  0  0  0  0  0
   63.2620   34.1580   48.6840 O   0  0  0  0  0  0  0  0  0  0  0  0
   60.5110   32.5840   46.3930 C   0  0  0  0  0  0  0  0  0  0  0  0
   56.4550   31.0910   44.6180 N   0  0  0  0  0  0  0  0  0  0  0  0
   55.5730   30.0940   44.5080 C   0  0  0  0  0  0  0  0  0  0  0  0
   55.9100   28.8750   44.9970 N   0  0  0  0  0  0  0  0  0  0  0  0
   57.6540   25.6850   44.3900 C   0  0  0  0  0  0  0  0  0  0  0  0
   57.2630   24.4930   43.8190 C   0  0  0  0  0  0  0  0  0  0  0  0
   57.4153   21.2220   44.0446 H   0  0  0  0  0  0  0  0  0  0  0  0
   56.4242   20.8822   42.5855 H   0  0  0  0  0  0  0  0  0  0  0  0
   57.5808   22.2565   42.5855 H   0  0  0  0  0  0  0  0  0  0  0  0
   54.6769   23.5843   45.8276 H   0  0  0  0  0  0  0  0  0  0  0  0
   55.3601   25.7422   46.8818 H   0  0  0  0  0  0  0  0  0  0  0  0
   57.9470   27.2390   46.9960 H   0  0  0  0  0  0  0  0  0  0  0  0
   58.9753   29.4485   46.1872 H   0  0  0  0  0  0  0  0  0  0  0  0
   57.5137   32.0486   47.8241 H   0  0  0  0  0  0  0  0  0  0  0  0
   58.7741   32.7561   49.8056 H   0  0  0  0  0  0  0  0  0  0  0  0
   61.1872   33.3696   49.6316 H   0  0  0  0  0  0  0  0  0  0  0  0
   64.4470   31.9380   48.3060 H   0  0  0  0  0  0  0  0  0  0  0  0
   64.3570   31.7680   46.5890 H   0  0  0  0  0  0  0  0  0  0  0  0
   61.0212   32.5396   45.4195 H   0  0  0  0  0  0  0  0  0  0  0  0
   54.5953   30.2581   44.0314 H   0  0  0  0  0  0  0  0  0  0  0  0
   55.1440   28.1450   44.8780 H   0  0  0  0  0  0  0  0  0  0  0  0
   58.4910   26.2716   43.9834 H   0  0  0  0  0  0  0  0  0  0  0  0
   57.8106   24.1336   42.9353 H   0  0  0  0  0  0  0  0  0  0  0  0
  1  2  1  0
  2  3  1  0
  3  4  2  0
  4  5  1  0
  5  6  2  0
  6  7  1  0
  7  8  1  0
  8  9  2  0
  9 10  1  0
 10 11  2  0
 11 12  1  0
 12 13  2  0
 13 14  1  0
 14 15  2  0
 15 16  1  0
 16 17  1  0
 17 18  1  0
 17 19  2  0
 17 20  2  0
 16 21  2  0
 10 22  1  0
 22 23  2  0
 23 24  1  0
  6 25  1  0
 25 26  2  0
 26  3  1  0
 24  8  1  0
 21 12  1  0
  1 27  1  0
  1 28  1  0
  1 29  1  0
  4 30  1  0
  5 31  1  0
  7 32  1  0
  9 33  1  0
 13 34  1  0
 14 35  1  0
 15 36  1  0
 18 37  1  0
 18 38  1  0
 21 39  1  0
 23 40  1  0
 24 41  1  0
 25 42  1  0
 26 43  1  0
M  END
>  <smiles>  (4) 
COc1ccc(Nc2cc(=Nc3cccc(S(N)(=O)=O)c3)nc[nH]2)cc1

>  <score_type>  (4) 
oracle

>  <origin>  (4) 
adg

>  <m_score__min__energy>  (4) 
-8.7400000000000002

>  <m_primary>  (4) 
energy

$$$$
4:0
     RDKit          3D

 41 43  0  0  0  0  0  0  0  0999 V2000
   54.4074   29.5266   43.8296 H   0  0  0  0  0  0  0  0  0  0  0  0
   55.3900   29.6550   44.3070 C   0  0  0  0  0  0  0  0  0  0  0  0
   55.9490   28.6240   44.9910 N   0  0  0  0  0  0  0  0  0  0  0  0
   57.1580   28.7390   45.5980 C   0  0  0  0  0  0  0  0  0  0  0  0
   57.6900   27.6470   46.2940 C   0  0  0  0  0  0  0  0  0  0  0  0
   57.1276   26.7030   46.3452 H   0  0  0  0  0  0  0  0  0  0  0  0
   58.9330   27.7520   46.9240 C   0  0  0  0  0  0  0  0  0  0  0  0
   59.5950   26.3790   47.7930 Cl  0  0  0  0  0  0  0  0  0  0  0  0
   59.6490   28.9500   46.8610 C   0  0  0  0  0  0  0  0  0  0  0  0
   60.6270   29.0293   47.3583 H   0  0  0  0  0  0  0  0  0  0  0  0
   59.1300   30.0480   46.1700 C   0  0  0  0  0  0  0  0  0  0  0  0
   59.7014   30.9869   46.1258 H   0  0  0  0  0  0  0  0  0  0  0  0
   57.8770   29.9580   45.5290 C   0  0  0  0  0  0  0  0  0  0  0  0
   57.3150   31.0450   44.8200 C   0  0  0  0  0  0  0  0  0  0  0  0
   57.9680   32.1740   44.7480 N   0  0  0  0  0  0  0  0  0  0  0  0
   57.4920   33.4860   45.1880 C   0  0  0  0  0  0  0  0  0  0  0  0
   57.3107   33.4623   46.2727 H   0  0  0  0  0  0  0  0  0  0  0  0
   56.5588   33.7270   44.6579 H   0  0  0  0  0  0  0  0  0  0  0  0
   58.5380   34.5570   44.8730 C   0  0  0  0  0  0  0  0  0  0  0  0
   58.0437   35.5392   44.8433 H   0  0  0  0  0  0  0  0  0  0  0  0
   58.9940   34.3136   43.9020 H   0  0  0  0  0  0  0  0  0  0  0  0
   59.6520   34.5940   45.9260 C   0  0  0  0  0  0  0  0  0  0  0  0
   59.5503   35.5086   46.5287 H   0  0  0  0  0  0  0  0  0  0  0  0
   60.6257   34.5834   45.4144 H   0  0  0  0  0  0  0  0  0  0  0  0
   59.5660   33.4280   46.8030 N   0  0  0  0  0  0  0  0  0  0  0  0
   59.3880   32.5010   46.3570 H   0  0  0  0  0  0  0  0  0  0  0  0
   59.7470   33.5210   48.2260 C   0  0  0  0  0  0  0  0  0  0  0  0
   60.0850   34.6220   48.7410 O   0  0  0  0  0  0  0  0  0  0  0  0
   59.5580   32.3400   49.1030 C   0  0  0  0  0  0  0  0  0  0  0  0
   60.4480   31.2490   49.0610 C   0  0  0  0  0  0  0  0  0  0  0  0
   61.3042   31.2684   48.3707 H   0  0  0  0  0  0  0  0  0  0  0  0
   60.2500   30.1420   49.8910 C   0  0  0  0  0  0  0  0  0  0  0  0
   60.9536   29.2972   49.8554 H   0  0  0  0  0  0  0  0  0  0  0  0
   59.1610   30.1050   50.7660 C   0  0  0  0  0  0  0  0  0  0  0  0
   59.0103   29.2342   51.4210 H   0  0  0  0  0  0  0  0  0  0  0  0
   58.2640   31.1750   50.8080 C   0  0  0  0  0  0  0  0  0  0  0  0
   56.7730   31.1220   52.0000 Br  0  0  0  0  0  0  0  0  0  0  0  0
   58.4580   32.2860   49.9790 C   0  0  0  0  0  0  0  0  0  0  0  0
   57.7453   33.1232   50.0125 H   0  0  0  0  0  0  0  0  0  0  0  0
   56.0560   30.8760   44.2070 C   0  0  0  0  0  0  0  0  0  0  0  0
   55.5995   31.7075   43.6500 H   0  0  0  0  0  0  0  0  0  0  0  0
  1  2  1  0
  2  3  1  0
  3  4  1  0
  4  5  2  0
  5  6  1  0
  5  7  1  0
  7  8  1  0
  7  9  2  0
  9 10  1  0
  9 11  1  0
 11 12  1  0
 11 13  2  0
 13 14  1  0
 14 15  2  0
 15 16  1  0
 16 17  1  0
 16 18  1  0
 16 19  1  0
 19 20  1  0
 19 21  1  0
 19 22  1  0
 22 23  1  0
 22 24  1  0
 22 25  1  0
 25 26  1  0
 25 27  1  0
 27 28  2  0
 27 29  1  0
 29 30  2  0
 30 31  1  0
 30 32  1  0
 32 33  1  0
 32 34  2  0
 34 35  1  0
 34 36  1  0
 36 37  1  0
 36 38  2  0
 38 39  1  0
 14 40  1  0
 40 41  1  0
 40  2  2  0
 13  4  1  0
 38 29  1  0
M  CHG  1   3  -1
M  END
>  <UniqueID>  (5) 
4

>  <SMILES>  (5) 
O=C(NCCC/N=c1\cc[n-]c2cc(Cl)ccc12)c1cccc(Br)c1

>  <Energy>  (5) 
46.14006351208441

>  <Genealogy>  (5) 
O=C(NCCCN=c1cc[n-]c2cc(Cl)ccc12)c1cccc(Br)c1 (protonated)
O=C(NCCC/N=c1\cc[n-]c2cc(Cl)ccc12)c1cccc(Br)c1 (cis-trans isomerization)
O=C(NCCC/N=c1\cc[n-]c2cc(Cl)ccc12)c1cccc(Br)c1 (3D coordinates assigned)
O=C(NCCC/N=c1\cc[n-]c2cc(Cl)ccc12)c1cccc(Br)c1 (optimized conformer: 46.14006351208441 kcal/mol)

>  <smiles>  (5) 
O=C(NCCCN=c1cc[nH]c2cc(Cl)ccc12)c1cccc(Br)c1

>  <score_type>  (5) 
oracle

>  <origin>  (5) 
adg

>  <m_score__min__energy>  (5) 
-10.4

>  <m_primary>  (5) 
energy

$$$$
5:0
     RDKit          3D

 25 25  0  0  0  0  0  0  0  0999 V2000
   59.9650   36.0030   46.0250 N   0  0  0  0  0  0  0  0  0  0  0  0
   60.4540   34.5760   46.8670 S   0  0  0  0  0  0  0  0  0  0  0  0
   61.8880   34.2660   46.5420 O   0  0  0  0  0  0  0  0  0  0  0  0
   60.3330   34.8030   48.3480 O   0  0  0  0  0  0  0  0  0  0  0  0
   59.4290   33.2280   46.3830 C   0  0  0  0  0  0  0  0  0  0  0  0
   58.4100   33.4190   45.4430 C   0  0  0  0  0  0  0  0  0  0  0  0
   57.6050   32.3470   45.0500 C   0  0  0  0  0  0  0  0  0  0  0  0
   57.8070   31.0600   45.5860 C   0  0  0  0  0  0  0  0  0  0  0  0
   56.9360   29.9310   45.1560 C   0  0  0  0  0  0  0  0  0  0  0  0
   55.9320   30.1610   44.4280 O   0  0  0  0  0  0  0  0  0  0  0  0
   57.1920   28.5110   45.5830 C   0  0  0  0  0  0  0  0  0  0  0  0
   55.9710   27.7100   45.4850 N   0  0  0  0  0  0  0  0  0  0  0  0
   55.8630   26.4280   46.1100 C   0  0  0  0  0  0  0  0  0  0  0  0
   56.8280   25.9500   46.7650 O   0  0  0  0  0  0  0  0  0  0  0  0
   54.6860   25.7020   45.9960 O   0  0  0  0  0  0  0  0  0  0  0  0
   58.8400   30.8790   46.5280 C   0  0  0  0  0  0  0  0  0  0  0  0
   59.6430   31.9540   46.9190 C   0  0  0  0  0  0  0  0  0  0  0  0
   59.6480   36.6880   46.7470 H   0  0  0  0  0  0  0  0  0  0  0  0
   58.2422   34.4170   45.0119 H   0  0  0  0  0  0  0  0  0  0  0  0
   56.8042   32.5097   44.3136 H   0  0  0  0  0  0  0  0  0  0  0  0
   57.9638   28.0727   44.9332 H   0  0  0  0  0  0  0  0  0  0  0  0
   57.5288   28.5133   46.6302 H   0  0  0  0  0  0  0  0  0  0  0  0
   55.1480   28.0690   44.9500 H   0  0  0  0  0  0  0  0  0  0  0  0
   59.0157   29.8825   46.9593 H   0  0  0  0  0  0  0  0  0  0  0  0
   60.4478   31.7972   47.6523 H   0  0  0  0  0  0  0  0  0  0  0  0
  1  2  1  0
  2  3  2  0
  2  4  2  0
  2  5  1  0
  5  6  2  0
  6  7  1  0
  7  8  2  0
  8  9  1  0
  9 10  2  0
  9 11  1  0
 11 12  1  0
 12 13  1  0
 13 14  2  0
 13 15  1  0
  8 16  1  0
 16 17  2  0
 17  5  1  0
  1 18  1  0
  6 19  1  0
  7 20  1  0
 11 21  1  0
 11 22  1  0
 12 23  1  0
 16 24  1  0
 17 25  1  0
M  CHG  2   1  -1  15  -1
M  END
>  <UniqueID>  (6) 
5

>  <SMILES>  (6) 
[NH-]S(=O)(=O)c1ccc(C(=O)CNC(=O)[O-])cc1

>  <Energy>  (6) 
21.836865215994457

>  <Genealogy>  (6) 
[NH-]S(=O)(=O)c1ccc(C(=O)CNC(=O)[O-])cc1 (protonated)
[NH-]S(=O)(=O)c1ccc(C(=O)CNC(=O)[O-])cc1 (3D coordinates assigned)
[NH-]S(=O)(=O)c1ccc(C(=O)CNC(=O)[O-])cc1 (optimized conformer: 21.836865215994457 kcal/mol)

>  <smiles>  (6) 
NS(=O)(=O)c1ccc(C(=O)CNC(=O)O)cc1

>  <score_type>  (6) 
oracle

>  <origin>  (6) 
adg

>  <m_score__min__energy>  (6) 
-10.01

>  <m_primary>  (6) 
energy

$$$$
6:0
     RDKit          3D

 33 34  0  0  0  0  0  0  0  0999 V2000
   61.0890   33.9730   46.4110 C   0  0  0  0  0  0  0  0  0  0  0  0
   59.5790   34.9090   46.4020 S   0  0  0  0  0  0  0  0  0  0  0  0
   59.8560   36.2830   45.8590 O   0  0  0  0  0  0  0  0  0  0  0  0
   59.0530   35.0090   47.8060 O   0  0  0  0  0  0  0  0  0  0  0  0
   58.4220   34.1010   45.3950 N   0  0  0  0  0  0  0  0  0  0  0  0
   58.2950   32.6790   45.2600 C   0  0  0  0  0  0  0  0  0  0  0  0
   57.7550   32.1640   44.0770 C   0  0  0  0  0  0  0  0  0  0  0  0
   57.6140   30.7850   43.9010 C   0  0  0  0  0  0  0  0  0  0  0  0
   58.0060   29.8920   44.9150 C   0  0  0  0  0  0  0  0  0  0  0  0
   57.8580   28.4290   44.7200 C   0  0  0  0  0  0  0  0  0  0  0  0
   58.6690   27.8180   43.9710 O   0  0  0  0  0  0  0  0  0  0  0  0
   56.7750   27.7090   45.3340 N   0  0  0  0  0  0  0  0  0  0  0  0
   56.7790   26.2820   45.5250 C   0  0  0  0  0  0  0  0  0  0  0  0
   57.9720   25.5410   45.4270 C   0  0  0  0  0  0  0  0  0  0  0  0
   57.9660   24.1590   45.6400 C   0  0  0  0  0  0  0  0  0  0  0  0
   56.7760   23.5050   45.9650 C   0  0  0  0  0  0  0  0  0  0  0  0
   55.5900   24.2320   46.0840 C   0  0  0  0  0  0  0  0  0  0  0  0
   55.5880   25.6160   45.8700 C   0  0  0  0  0  0  0  0  0  0  0  0
   54.3950   26.3210   45.9930 O   0  0  0  0  0  0  0  0  0  0  0  0
   58.5580   30.4120   46.1000 C   0  0  0  0  0  0  0  0  0  0  0  0
   58.7000   31.7920   46.2720 C   0  0  0  0  0  0  0  0  0  0  0  0
   61.3962   33.7826   47.4499 H   0  0  0  0  0  0  0  0  0  0  0  0
   60.9297   33.0151   45.8943 H   0  0  0  0  0  0  0  0  0  0  0  0
   61.8761   34.5418   45.8943 H   0  0  0  0  0  0  0  0  0  0  0  0
   57.4385   32.8507   43.2781 H   0  0  0  0  0  0  0  0  0  0  0  0
   57.1933   30.3947   42.9625 H   0  0  0  0  0  0  0  0  0  0  0  0
   55.9010   28.2340   45.5570 H   0  0  0  0  0  0  0  0  0  0  0  0
   58.9145   26.0522   45.1814 H   0  0  0  0  0  0  0  0  0  0  0  0
   58.9007   23.5859   45.5513 H   0  0  0  0  0  0  0  0  0  0  0  0
   56.7729   22.4170   46.1273 H   0  0  0  0  0  0  0  0  0  0  0  0
   54.6545   23.7163   46.3466 H   0  0  0  0  0  0  0  0  0  0  0  0
   58.8806   29.7269   46.8979 H   0  0  0  0  0  0  0  0  0  0  0  0
   59.1310   32.1857   47.2043 H   0  0  0  0  0  0  0  0  0  0  0  0
  1  2  1  0
  2  3  2  0
  2  4  2  0
  2  5  1  0
  5  6  1  0
  6  7  2  0
  7  8  1  0
  8  9  2  0
  9 10  1  0
 10 11  2  0
 10 12  1  0
 12 13  1  0
 13 14  2  0
 14 15  1  0
 15 16  2  0
 16 17  1  0
 17 18  2  0
 18 19  1  0
  9 20  1  0
 20 21  2  0
 21  6  1  0
 18 13  1  0
  1 22  1  0
  1 23  1  0
  1 24  1  0
  7 25  1  0
  8 26  1  0
 12 27  1  0
 14 28  1  0
 15 29  1  0
 16 30  1  0
 17 31  1  0
 20 32  1  0
 21 33  1  0
M  CHG  2   5  -1  19  -1
M  END
>  <UniqueID>  (7) 
6

>  <SMILES>  (7) 
CS(=O)(=O)[N-]c1ccc(C(=O)Nc2ccccc2[O-])cc1

>  <Energy>  (7) 
38.730713086423194

>  <Genealogy>  (7) 
CS(=O)(=O)[N-]c1ccc(C(=O)Nc2ccccc2[O-])cc1 (protonated)
CS(=O)(=O)[N-]c1ccc(C(=O)Nc2ccccc2[O-])cc1 (3D coordinates assigned)
CS(=O)(=O)[N-]c1ccc(C(=O)Nc2ccccc2[O-])cc1 (optimized conformer: 38.730713086423194 kcal/mol)

>  <smiles>  (7) 
CS(=O)(=O)Nc1ccc(C(=O)Nc2ccccc2O)cc1

>  <score_type>  (7) 
oracle

>  <origin>  (7) 
adg

>  <m_score__min__energy>  (7) 
-11.91

>  <m_primary>  (7) 
energy

$$$$
7:0
     RDKit          3D

 58 60  0  0  0  0  0  0  0  0999 V2000
   59.3310   34.8540   48.7110 O   0  0  0  0  0  0  0  0  0  0  0  0
   60.0720   34.5340   47.7420 C   0  0  0  0  0  0  0  0  0  0  0  0
   61.5120   34.1880   48.0110 C   0  0  0  0  0  0  0  0  0  0  0  0
   62.0980   33.4250   46.8160 C   0  0  0  0  0  0  0  0  0  0  0  0
   62.5110   31.9830   47.1710 C   0  0  0  0  0  0  0  0  0  0  0  0
   61.6920   31.3700   48.3200 C   0  0  0  0  0  0  0  0  0  0  0  0
   61.0040   30.0930   47.9170 C   0  0  0  0  0  0  0  0  0  0  0  0
   60.3800   29.2870   48.8810 C   0  0  0  0  0  0  0  0  0  0  0  0
   59.7120   28.1230   48.4940 C   0  0  0  0  0  0  0  0  0  0  0  0
   59.6680   27.7510   47.1480 C   0  0  0  0  0  0  0  0  0  0  0  0
   59.0130   26.6260   46.7720 F   0  0  0  0  0  0  0  0  0  0  0  0
   60.2880   28.5480   46.1830 C   0  0  0  0  0  0  0  0  0  0  0  0
   60.9580   29.7140   46.5630 C   0  0  0  0  0  0  0  0  0  0  0  0
   59.4870   34.3850   46.4430 N   0  0  0  0  0  0  0  0  0  0  0  0
   58.7880   33.2330   45.9550 C   0  0  0  0  0  0  0  0  0  0  0  0
   58.6380   32.0760   46.7410 C   0  0  0  0  0  0  0  0  0  0  0  0
   57.9940   30.9510   46.2180 C   0  0  0  0  0  0  0  0  0  0  0  0
   57.5070   30.9610   44.9010 C   0  0  0  0  0  0  0  0  0  0  0  0
   56.6060   29.5820   44.2830 S   0  0  0  0  0  0  0  0  0  0  0  0
   55.1840   29.6370   44.7670 O   0  0  0  0  0  0  0  0  0  0  0  0
   56.5960   29.6250   42.7830 O   0  0  0  0  0  0  0  0  0  0  0  0
   57.3960   28.1250   44.8060 N   0  0  0  0  0  0  0  0  0  0  0  0
   58.1960   27.5170   43.7400 C   0  0  0  0  0  0  0  0  0  0  0  0
   57.7700   26.0630   43.4960 C   0  0  0  0  0  0  0  0  0  0  0  0
   57.6160   25.2540   44.8000 C   0  0  0  0  0  0  0  0  0  0  0  0
   56.2340   24.6480   44.8960 C   0  0  0  0  0  0  0  0  0  0  0  0
   55.9500   23.4420   44.2330 C   0  0  0  0  0  0  0  0  0  0  0  0
   54.7190   22.8810   44.3360 N   0  0  0  0  0  0  0  0  0  0  0  0
   53.7380   23.4800   45.0670 C   0  0  0  0  0  0  0  0  0  0  0  0
   52.6040   22.9450   45.1560 O   0  0  0  0  0  0  0  0  0  0  0  0
   53.9800   24.6610   45.6970 N   0  0  0  0  0  0  0  0  0  0  0  0
   55.1980   25.2560   45.6280 C   0  0  0  0  0  0  0  0  0  0  0  0
   55.3790   26.3530   46.2230 O   0  0  0  0  0  0  0  0  0  0  0  0
   57.6690   32.1090   44.1130 C   0  0  0  0  0  0  0  0  0  0  0  0
   58.3180   33.2330   44.6340 C   0  0  0  0  0  0  0  0  0  0  0  0
   62.0858   35.1130   48.1700 H   0  0  0  0  0  0  0  0  0  0  0  0
   61.5706   33.5550   48.9087 H   0  0  0  0  0  0  0  0  0  0  0  0
   61.3417   33.3874   46.0182 H   0  0  0  0  0  0  0  0  0  0  0  0
   63.0045   33.9591   46.4949 H   0  0  0  0  0  0  0  0  0  0  0  0
   62.3804   31.3545   46.2777 H   0  0  0  0  0  0  0  0  0  0  0  0
   63.5575   32.0221   47.5075 H   0  0  0  0  0  0  0  0  0  0  0  0
   62.3681   31.1567   49.1611 H   0  0  0  0  0  0  0  0  0  0  0  0
   60.9145   32.0953   48.6017 H   0  0  0  0  0  0  0  0  0  0  0  0
   60.4169   29.5721   49.9428 H   0  0  0  0  0  0  0  0  0  0  0  0
   59.2186   27.4967   49.2519 H   0  0  0  0  0  0  0  0  0  0  0  0
   60.2488   28.2576   45.1228 H   0  0  0  0  0  0  0  0  0  0  0  0
   61.4505   30.3368   45.8017 H   0  0  0  0  0  0  0  0  0  0  0  0
   59.0283   32.0566   47.7693 H   0  0  0  0  0  0  0  0  0  0  0  0
   57.8681   30.0534   46.8412 H   0  0  0  0  0  0  0  0  0  0  0  0
   58.0579   28.0930   42.8131 H   0  0  0  0  0  0  0  0  0  0  0  0
   59.2528   27.5268   44.0450 H   0  0  0  0  0  0  0  0  0  0  0  0
   56.8050   26.0642   42.9681 H   0  0  0  0  0  0  0  0  0  0  0  0
   58.5619   25.5830   42.9022 H   0  0  0  0  0  0  0  0  0  0  0  0
   58.3649   24.4484   44.8152 H   0  0  0  0  0  0  0  0  0  0  0  0
   57.7643   25.9308   45.6544 H   0  0  0  0  0  0  0  0  0  0  0  0
   56.7276   22.9516   43.6290 H   0  0  0  0  0  0  0  0  0  0  0  0
   57.2848   32.1258   43.0824 H   0  0  0  0  0  0  0  0  0  0  0  0
   58.4607   34.1229   44.0033 H   0  0  0  0  0  0  0  0  0  0  0  0
  1  2  2  0
  2  3  1  0
  3  4  1  0
  4  5  1  0
  5  6  1  0
  6  7  1  0
  7  8  2  0
  8  9  1  0
  9 10  2  0
 10 11  1  0
 10 12  1  0
 12 13  2  0
  2 14  1  0
 14 15  1  0
 15 16  2  0
 16 17  1  0
 17 18  2  0
 18 19  1  0
 19 20  2  0
 19 21  2  0
 19 22  1  0
 22 23  1  0
 23 24  1  0
 24 25  1  0
 25 26  1  0
 26 27  2  0
 27 28  1  0
 28 29  1  0
 29 30  2  0
 29 31  1  0
 31 32  1  0
 32 33  2  0
 18 34  1  0
 34 35  2  0
 13  7  1  0
 35 15  1  0
 32 26  1  0
  3 36  1  0
  3 37  1  0
  4 38  1  0
  4 39  1  0
  5 40  1  0
  5 41  1  0
  6 42  1  0
  6 43  1  0
  8 44  1  0
  9 45  1  0
 12 46  1  0
 13 47  1  0
 16 48  1  0
 17 49  1  0
 23 50  1  0
 23 51  1  0
 24 52  1  0
 24 53  1  0
 25 54  1  0
 25 55  1  0
 27 56  1  0
 34 57  1  0
 35 58  1  0
M  CHG  4  14  -1  22  -1  28  -1  31  -1
M  END
>  <UniqueID>  (8) 
7

>  <SMILES>  (8) 
O=C(CCCCc1ccc(F)cc1)[N-]c1ccc(S(=O)(=O)[N-]CCCc2c[n-]c(=O)[n-]c2=O)cc1

>  <Energy>  (8) 
54.194431160366854

>  <Genealogy>  (8) 
O=C(CCCCc1ccc(F)cc1)[N-]c1ccc(S(=O)(=O)[N-]CCCc2c[n-]c(=O)[n-]c2=O)cc1 (protonated)
O=C(CCCCc1ccc(F)cc1)[N-]c1ccc(S(=O)(=O)[N-]CCCc2c[n-]c(=O)[n-]c2=O)cc1 (3D coordinates assigned)
O=C(CCCCc1ccc(F)cc1)[N-]c1ccc(S(=O)(=O)[N-]CCCc2c[n-]c(=O)[n-]c2=O)cc1 (optimized conformer: 54.194431160366854 kcal/mol)

>  <smiles>  (8) 
O=C(CCCCc1ccc(F)cc1)Nc1ccc(S(=O)(=O)NCCCc2c[nH]c(=O)[nH]c2=O)cc1

>  <score_type>  (8) 
oracle

>  <origin>  (8) 
adg

>  <m_score__min__energy>  (8) 
-17.649999999999999

>  <m_primary>  (8) 
energy

$$$$
8:0
     RDKit          3D

 46 49  0  0  0  0  0  0  0  0999 V2000
   58.6720   28.0390   43.7870 N   0  0  0  0  0  0  0  0  0  0  0  0
   58.9610   28.4400   44.8340 C   0  0  0  0  0  0  0  0  0  0  0  0
   59.3190   28.9390   46.1370 C   0  0  0  0  0  0  0  0  0  0  0  0
   60.0390   28.1460   47.0100 C   0  0  0  0  0  0  0  0  0  0  0  0
   60.3730   28.6240   48.2700 C   0  0  0  0  0  0  0  0  0  0  0  0
   59.9860   29.9150   48.7340 C   0  0  0  0  0  0  0  0  0  0  0  0
   59.2800   30.7460   47.8030 C   0  0  0  0  0  0  0  0  0  0  0  0
   58.9500   30.2210   46.5240 C   0  0  0  0  0  0  0  0  0  0  0  0
   58.9060   32.0810   48.0560 C   0  0  0  0  0  0  0  0  0  0  0  0
   58.7520   33.0590   46.9430 C   0  0  0  0  0  0  0  0  0  0  0  0
   57.6080   33.0410   46.1250 C   0  0  0  0  0  0  0  0  0  0  0  0
   57.4600   33.9750   45.0950 C   0  0  0  0  0  0  0  0  0  0  0  0
   58.4480   34.9390   44.8760 C   0  0  0  0  0  0  0  0  0  0  0  0
   59.5830   34.9740   45.6920 C   0  0  0  0  0  0  0  0  0  0  0  0
   59.7330   34.0430   46.7230 C   0  0  0  0  0  0  0  0  0  0  0  0
   58.4120   32.4650   49.2460 N   0  0  0  0  0  0  0  0  0  0  0  0
   58.5890   31.9560   50.4760 C   0  0  0  0  0  0  0  0  0  0  0  0
   57.8450   32.3980   51.3930 O   0  0  0  0  0  0  0  0  0  0  0  0
   59.6710   31.1480   50.8370 C   0  0  0  0  0  0  0  0  0  0  0  0
   59.9970   31.2120   52.0570 O   0  0  0  0  0  0  0  0  0  0  0  0
   60.3970   30.3280   49.9960 N   0  0  0  0  0  0  0  0  0  0  0  0
   61.6880   29.8080   50.5410 C   0  0  0  0  0  0  0  0  0  0  0  0
   62.8420   30.8480   50.6110 C   0  0  0  0  0  0  0  0  0  0  0  0
   62.8180   31.8960   49.5280 C   0  0  0  0  0  0  0  0  0  0  0  0
   63.0190   31.5340   48.1840 C   0  0  0  0  0  0  0  0  0  0  0  0
   63.0190   32.5090   47.1830 C   0  0  0  0  0  0  0  0  0  0  0  0
   62.8110   33.8510   47.5120 C   0  0  0  0  0  0  0  0  0  0  0  0
   62.5970   34.2180   48.8440 C   0  0  0  0  0  0  0  0  0  0  0  0
   62.5950   33.2470   49.8480 C   0  0  0  0  0  0  0  0  0  0  0  0
   60.3479   27.1349   46.7063 H   0  0  0  0  0  0  0  0  0  0  0  0
   60.9615   27.9788   48.9389 H   0  0  0  0  0  0  0  0  0  0  0  0
   58.3853   30.8490   45.8193 H   0  0  0  0  0  0  0  0  0  0  0  0
   56.8250   32.2877   46.2966 H   0  0  0  0  0  0  0  0  0  0  0  0
   56.5648   33.9510   44.4562 H   0  0  0  0  0  0  0  0  0  0  0  0
   58.3328   35.6699   44.0620 H   0  0  0  0  0  0  0  0  0  0  0  0
   60.3586   35.7353   45.5221 H   0  0  0  0  0  0  0  0  0  0  0  0
   60.6241   34.0797   47.3669 H   0  0  0  0  0  0  0  0  0  0  0  0
   61.5026   29.4359   51.5594 H   0  0  0  0  0  0  0  0  0  0  0  0
   62.0223   29.0266   49.8427 H   0  0  0  0  0  0  0  0  0  0  0  0
   62.7825   31.3596   51.5830 H   0  0  0  0  0  0  0  0  0  0  0  0
   63.7756   30.2829   50.4730 H   0  0  0  0  0  0  0  0  0  0  0  0
   63.1770   30.4781   47.9194 H   0  0  0  0  0  0  0  0  0  0  0  0
   63.1830   32.2196   46.1345 H   0  0  0  0  0  0  0  0  0  0  0  0
   62.8156   34.6181   46.7236 H   0  0  0  0  0  0  0  0  0  0  0  0
   62.4298   35.2742   49.1019 H   0  0  0  0  0  0  0  0  0  0  0  0
   62.4183   33.5403   50.8933 H   0  0  0  0  0  0  0  0  0  0  0  0
  1  2  3  0
  2  3  1  0
  3  4  2  0
  4  5  1  0
  5  6  2  0
  6  7  1  0
  7  8  2  0
  7  9  1  0
  9 10  1  0
 10 11  2  0
 11 12  1  0
 12 13  2  0
 13 14  1  0
 14 15  2  0
  9 16  2  0
 16 17  1  0
 17 18  2  0
 17 19  1  0
 19 20  2  0
 19 21  1  0
 21 22  1  0
 22 23  1  0
 23 24  1  0
 24 25  2  0
 25 26  1  0
 26 27  2  0
 27 28  1  0
 28 29  2  0
  8  3  1  0
 15 10  1  0
 29 24  1  0
 21  6  1  0
  4 30  1  0
  5 31  1  0
  8 32  1  0
 11 33  1  0
 12 34  1  0
 13 35  1  0
 14 36  1  0
 15 37  1  0
 22 38  1  0
 22 39  1  0
 23 40  1  0
 23 41  1  0
 25 42  1  0
 26 43  1  0
 27 44  1  0
 28 45  1  0
 29 46  1  0
M  END
>  <UniqueID>  (9) 
8

>  <SMILES>  (9) 
N#Cc1ccc2c(c1)c(-c1ccccc1)nc(=O)c(=O)n2CCc1ccccc1

>  <Energy>  (9) 
111.22186598034291

>  <Genealogy>  (9) 
N#Cc1ccc2c(c1)c(-c1ccccc1)nc(=O)c(=O)n2CCc1ccccc1 (3D coordinates assigned)
N#Cc1ccc2c(c1)c(-c1ccccc1)nc(=O)c(=O)n2CCc1ccccc1 (optimized conformer: 111.22186598034291 kcal/mol)

>  <smiles>  (9) 
N#Cc1ccc2c(c1)c(-c1ccccc1)nc(=O)c(=O)n2CCc1ccccc1

>  <score_type>  (9) 
oracle

>  <origin>  (9) 
adg

>  <m_score__min__energy>  (9) 
-7.6200000000000001

>  <m_primary>  (9) 
energy

$$$$
9:0
     RDKit          3D

 48 52  0  0  1  0  0  0  0  0999 V2000
   65.7120   32.5690   49.9020 O   0  0  0  0  0  0  0  0  0  0  0  0
   64.5220   32.7010   49.4770 C   0  0  0  0  0  0  0  0  0  0  0  0
   64.3610   33.1540   48.2160 N   0  0  0  0  0  0  0  0  0  0  0  0
   63.1180   33.3100   47.7230 C   0  0  0  0  0  0  0  0  0  0  0  0
   62.8810   33.8510   46.2130 S   0  0  0  0  0  0  0  0  0  0  0  0
   62.0270   32.9980   48.5340 C   0  0  0  0  0  0  0  0  0  0  0  0
   60.7460   33.1510   48.0450 C   0  0  0  0  0  0  0  0  0  0  0  0
   59.6390   32.8450   48.8390 C   0  0  0  0  0  0  0  0  0  0  0  0
   58.3670   33.0420   48.2290 N   0  0  0  0  0  0  0  0  0  0  0  0
   58.2180   33.0370   46.9500 C   0  0  0  0  0  0  0  0  0  0  0  0
   58.4310   34.1590   46.2350 N   0  0  0  0  0  0  0  0  0  0  0  0
   58.2900   34.2120   44.8930 C   0  0  0  0  0  0  0  0  0  0  0  0
   57.9110   33.0620   44.2330 C   0  0  0  0  0  0  0  0  0  0  0  0
   57.6920   31.9050   44.9680 C   0  0  0  0  0  0  0  0  0  0  0  0
   57.3400   30.8620   44.2930 N   0  0  0  0  0  0  0  0  0  0  0  0
   57.6700   29.5870   44.8320 C   0  0  0  0  0  0  0  0  0  0  0  0
   58.9680   29.1760   45.0590 C   0  0  0  0  0  0  0  0  0  0  0  0
   59.1410   27.9100   45.5860 C   0  0  0  0  0  0  0  0  0  0  0  0
   58.0840   27.0760   45.8820 C   0  0  0  0  0  0  0  0  0  0  0  0
   56.7890   27.4930   45.6540 C   0  0  0  0  0  0  0  0  0  0  0  0
   55.6820   26.6910   45.9330 O   0  0  0  0  0  0  0  0  0  0  0  0
   56.5900   28.7520   45.1270 C   0  0  0  0  0  0  0  0  0  0  0  0
   57.8470   31.9080   46.3040 N   0  0  0  0  0  0  0  0  0  0  0  0
   59.7930   32.3820   50.1290 C   0  0  0  0  0  0  0  0  0  0  0  0
   61.0900   32.2370   50.5920 C   0  0  0  0  0  0  0  0  0  0  0  0
   62.1950   32.5330   49.8260 C   0  0  0  0  0  0  0  0  0  0  0  0
   63.4530   32.3960   50.2680 N   0  0  0  0  0  0  0  0  0  0  0  0
   63.7830   31.9200   51.6020 C   0  0  0  0  0  0  0  0  0  0  0  0
   62.6390   32.2020   52.5210 C   0  0  0  0  0  0  0  0  0  0  0  0
   61.3100   31.7460   51.9630 C   0  0  0  0  0  0  0  0  0  0  0  0
   65.1990   33.3870   47.6120 H   0  0  0  0  0  0  0  0  0  0  0  0
   60.5952   33.5178   47.0190 H   0  0  0  0  0  0  0  0  0  0  0  0
   58.7160   35.0090   46.7670 H   0  0  0  0  0  0  0  0  0  0  0  0
   58.4724   35.1463   44.3418 H   0  0  0  0  0  0  0  0  0  0  0  0
   57.7841   33.0616   43.1403 H   0  0  0  0  0  0  0  0  0  0  0  0
   59.8254   29.8262   44.8309 H   0  0  0  0  0  0  0  0  0  0  0  0
   60.1639   27.5534   45.7770 H   0  0  0  0  0  0  0  0  0  0  0  0
   58.2735   26.0766   46.3006 H   0  0  0  0  0  0  0  0  0  0  0  0
   54.7670   27.1200   45.9720 H   0  0  0  0  0  0  0  0  0  0  0  0
   55.5654   29.1037   44.9362 H   0  0  0  0  0  0  0  0  0  0  0  0
   57.6770   31.0290   46.8340 H   0  0  0  0  0  0  0  0  0  0  0  0
   58.9258   32.1392   50.7607 H   0  0  0  0  0  0  0  0  0  0  0  0
   63.9709   30.8366   51.5701 H   0  0  0  0  0  0  0  0  0  0  0  0
   64.6847   32.4345   51.9655 H   0  0  0  0  0  0  0  0  0  0  0  0
   62.8172   31.6811   53.4733 H   0  0  0  0  0  0  0  0  0  0  0  0
   62.5842   33.2924   52.6549 H   0  0  0  0  0  0  0  0  0  0  0  0
   61.2869   30.6463   51.9545 H   0  0  0  0  0  0  0  0  0  0  0  0
   60.5142   32.1556   52.6026 H   0  0  0  0  0  0  0  0  0  0  0  0
  1  2  2  0
  2  3  1  0
  3  4  1  0
  4  5  2  0
  4  6  1  0
  6  7  2  0
  7  8  1  0
  8  9  1  0
  9 10  2  0
 10 11  1  0
 11 12  1  0
 12 13  2  0
 13 14  1  0
 14 15  2  0
 15 16  1  0
 16 17  2  0
 17 18  1  0
 18 19  2  0
 19 20  1  0
 20 21  1  0
 20 22  2  0
 14 23  1  0
  8 24  2  0
 24 25  1  0
 25 26  2  0
 26 27  1  0
 27 28  1  0
 28 29  1  0
 29 30  1  0
 27  2  1  0
 26  6  1  0
 23 10  1  0
 30 25  1  0
 22 16  1  0
  3 31  1  0
  7 32  1  0
 11 33  1  0
 12 34  1  0
 13 35  1  0
 17 36  1  0
 18 37  1  0
 19 38  1  0
 21 39  1  0
 22 40  1  0
 23 41  1  0
 24 42  1  0
 28 43  1  0
 28 44  1  0
 29 45  1  0
 29 46  1  0
 30 47  1  0
 30 48  1  0
M  END
>  <smiles>  (10) 
O=c1[nH]c(=S)c2cc(N=c3[nH]ccc(=Nc4cccc(O)c4)[nH]3)cc3c2n1CCC3

>  <score_type>  (10) 
oracle

>  <origin>  (10) 
adg

>  <m_score__min__energy>  (10) 
-9.9399999999999995

>  <m_primary>  (10) 
energy

$$$$
10:0
     RDKit          3D

 56 60  0  0  0  0  0  0  0  0999 V2000
   55.5270   20.5110   47.4230 N   0  0  0  0  0  0  0  0  0  0  0  0
   56.5850   21.3990   47.0530 C   0  0  0  0  0  0  0  0  0  0  0  0
   57.3930   21.7850   47.9370 O   0  0  0  0  0  0  0  0  0  0  0  0
   56.7290   21.8830   45.6540 C   0  0  0  0  0  0  0  0  0  0  0  0
   56.5590   20.9820   44.5850 C   0  0  0  0  0  0  0  0  0  0  0  0
   56.6560   21.4200   43.2610 C   0  0  0  0  0  0  0  0  0  0  0  0
   56.9240   22.7610   42.9850 C   0  0  0  0  0  0  0  0  0  0  0  0
   57.0930   23.6700   44.0320 C   0  0  0  0  0  0  0  0  0  0  0  0
   56.9860   23.2460   45.3660 C   0  0  0  0  0  0  0  0  0  0  0  0
   57.2380   24.1850   46.4220 N   0  0  0  0  0  0  0  0  0  0  0  0
   57.4650   25.5920   46.2160 C   0  0  0  0  0  0  0  0  0  0  0  0
   58.7370   26.1230   46.4850 C   0  0  0  0  0  0  0  0  0  0  0  0
   58.9730   27.4930   46.3590 C   0  0  0  0  0  0  0  0  0  0  0  0
   57.9470   28.3490   45.9540 C   0  0  0  0  0  0  0  0  0  0  0  0
   56.6760   27.8330   45.6460 C   0  0  0  0  0  0  0  0  0  0  0  0
   55.5890   28.6840   45.2480 N   0  0  0  0  0  0  0  0  0  0  0  0
   55.6330   29.7220   44.2580 C   0  0  0  0  0  0  0  0  0  0  0  0
   54.7810   29.7100   43.3300 O   0  0  0  0  0  0  0  0  0  0  0  0
   56.6640   30.7770   44.2630 C   0  0  0  0  0  0  0  0  0  0  0  0
   57.0360   31.5100   43.1350 C   0  0  0  0  0  0  0  0  0  0  0  0
   58.2470   32.5820   43.5900 S   0  0  0  0  0  0  0  0  0  0  0  0
   58.2360   32.0850   45.2000 C   0  0  0  0  0  0  0  0  0  0  0  0
   59.0700   32.6180   46.2470 N   0  0  0  0  0  0  0  0  0  0  0  0
   58.5300   33.5960   47.2000 C   0  0  0  0  0  0  0  0  0  0  0  0
   59.5930   34.6280   47.5590 C   0  0  0  0  0  0  0  0  0  0  0  0
   60.8380   33.9460   48.0510 C   0  0  0  0  0  0  0  0  0  0  0  0
   61.6610   34.5860   48.9930 C   0  0  0  0  0  0  0  0  0  0  0  0
   62.8390   33.9720   49.4300 C   0  0  0  0  0  0  0  0  0  0  0  0
   63.2110   32.7260   48.9170 C   0  0  0  0  0  0  0  0  0  0  0  0
   62.4080   32.0950   47.9640 C   0  0  0  0  0  0  0  0  0  0  0  0
   61.2180   32.6960   47.5230 C   0  0  0  0  0  0  0  0  0  0  0  0
   60.4000   32.0150   46.4510 C   0  0  0  0  0  0  0  0  0  0  0  0
   57.3210   31.1130   45.4070 N   0  0  0  0  0  0  0  0  0  0  0  0
   56.4350   26.4610   45.8050 C   0  0  0  0  0  0  0  0  0  0  0  0
   55.4090   20.2180   48.4200 H   0  0  0  0  0  0  0  0  0  0  0  0
   54.9220   20.0710   46.7010 H   0  0  0  0  0  0  0  0  0  0  0  0
   56.3478   19.9229   44.7940 H   0  0  0  0  0  0  0  0  0  0  0  0
   56.5208   20.7060   42.4353 H   0  0  0  0  0  0  0  0  0  0  0  0
   57.0023   23.1027   41.9423 H   0  0  0  0  0  0  0  0  0  0  0  0
   57.3114   24.7250   43.8098 H   0  0  0  0  0  0  0  0  0  0  0  0
   57.1410   23.8320   47.4040 H   0  0  0  0  0  0  0  0  0  0  0  0
   59.5530   25.4547   46.7972 H   0  0  0  0  0  0  0  0  0  0  0  0
   59.9710   27.8997   46.5796 H   0  0  0  0  0  0  0  0  0  0  0  0
   58.1337   29.4302   45.8757 H   0  0  0  0  0  0  0  0  0  0  0  0
   56.6111   31.4044   42.1259 H   0  0  0  0  0  0  0  0  0  0  0  0
   57.6674   34.1063   46.7466 H   0  0  0  0  0  0  0  0  0  0  0  0
   58.2189   33.0700   48.1146 H   0  0  0  0  0  0  0  0  0  0  0  0
   59.8347   35.2250   46.6673 H   0  0  0  0  0  0  0  0  0  0  0  0
   59.2040   35.2797   48.3552 H   0  0  0  0  0  0  0  0  0  0  0  0
   61.3779   35.5729   49.3879 H   0  0  0  0  0  0  0  0  0  0  0  0
   63.4734   34.4699   50.1781 H   0  0  0  0  0  0  0  0  0  0  0  0
   64.1361   32.2424   49.2638 H   0  0  0  0  0  0  0  0  0  0  0  0
   62.7103   31.1194   47.5557 H   0  0  0  0  0  0  0  0  0  0  0  0
   60.9553   32.0701   45.5030 H   0  0  0  0  0  0  0  0  0  0  0  0
   60.2357   30.9789   46.7818 H   0  0  0  0  0  0  0  0  0  0  0  0
   55.4306   26.0586   45.6067 H   0  0  0  0  0  0  0  0  0  0  0  0
  1  2  1  0
  2  3  2  0
  2  4  1  0
  4  5  2  0
  5  6  1  0
  6  7  2  0
  7  8  1  0
  8  9  2  0
  9 10  1  0
 10 11  1  0
 11 12  2  0
 12 13  1  0
 13 14  2  0
 14 15  1  0
 15 16  1  0
 16 17  1  0
 17 18  2  0
 17 19  1  0
 19 20  2  0
 20 21  1  0
 21 22  1  0
 22 23  1  0
 23 24  1  0
 24 25  1  0
 25 26  1  0
 26 27  2  0
 27 28  1  0
 28 29  2  0
 29 30  1  0
 30 31  2  0
 31 32  1  0
 22 33  2  0
 15 34  2  0
  9  4  1  0
 34 11  1  0
 33 19  1  0
 32 23  1  0
 31 26  1  0
  1 35  1  0
  1 36  1  0
  5 37  1  0
  6 38  1  0
  7 39  1  0
  8 40  1  0
 10 41  1  0
 12 42  1  0
 13 43  1  0
 14 44  1  0
 20 45  1  0
 24 46  1  0
 24 47  1  0
 25 48  1  0
 25 49  1  0
 27 50  1  0
 28 51  1  0
 29 52  1  0
 30 53  1  0
 32 54  1  0
 32 55  1  0
 34 56  1  0
M  CHG  1  16  -1
M  END
>  <UniqueID>  (11) 
9

>  <SMILES>  (11) 
NC(=O)c1ccccc1Nc1cccc([N-]C(=O)c2csc(N3CCc4ccccc4C3)n2)c1

>  <Energy>  (11) 
109.83450799893394

>  <Genealogy>  (11) 
NC(=O)c1ccccc1Nc1cccc([N-]C(=O)c2csc(N3CCc4ccccc4C3)n2)c1 (protonated)
NC(=O)c1ccccc1Nc1cccc([N-]C(=O)c2csc(N3CCc4ccccc4C3)n2)c1 (3D coordinates assigned)
NC(=O)c1ccccc1Nc1cccc([N-]C(=O)c2csc(N3CCc4ccccc4C3)n2)c1 (nonaromatic ring conformer: 109.83450799893394 kcal/mol)

>  <smiles>  (11) 
NC(=O)c1ccccc1Nc1cccc(NC(=O)c2csc(N3CCc4ccccc4C3)n2)c1

>  <score_type>  (11) 
oracle

>  <origin>  (11) 
adg

>  <m_score__min__energy>  (11) 
-12.69

>  <m_primary>  (11) 
energy

$$$$
11:0
     RDKit          3D

 47 49  0  0  0  0  0  0  0  0999 V2000
   50.8650   30.7120   47.9330 H   0  0  0  0  0  0  0  0  0  0  0  0
   51.3260   30.1150   48.6100 O   0  0  0  0  0  0  0  0  0  0  0  0
   51.6760   30.5830   49.8750 C   0  0  0  0  0  0  0  0  0  0  0  0
   52.3720   29.7580   50.7710 C   0  0  0  0  0  0  0  0  0  0  0  0
   52.6331   28.7303   50.4784 H   0  0  0  0  0  0  0  0  0  0  0  0
   52.7380   30.2380   52.0420 C   0  0  0  0  0  0  0  0  0  0  0  0
   53.4290   29.3720   53.0210 C   0  0  0  0  0  0  0  0  0  0  0  0
   53.0314   29.3493   54.0464 H   0  0  0  0  0  0  0  0  0  0  0  0
   54.5020   28.6120   52.7580 C   0  0  0  0  0  0  0  0  0  0  0  0
   54.4453   27.9405   51.8886 H   0  0  0  0  0  0  0  0  0  0  0  0
   55.7560   28.6040   53.5430 C   0  0  0  0  0  0  0  0  0  0  0  0
   56.2270   27.5170   53.9730 O   0  0  0  0  0  0  0  0  0  0  0  0
   56.5190   29.8030   53.7240 N   0  0  0  0  0  0  0  0  0  0  0  0
   57.1740   30.5520   52.6910 C   0  0  0  0  0  0  0  0  0  0  0  0
   57.0250   31.9420   52.6650 C   0  0  0  0  0  0  0  0  0  0  0  0
   56.4275   32.4418   53.4416 H   0  0  0  0  0  0  0  0  0  0  0  0
   57.6300   32.7010   51.6590 C   0  0  0  0  0  0  0  0  0  0  0  0
   57.5152   33.7950   51.6548 H   0  0  0  0  0  0  0  0  0  0  0  0
   58.3820   32.0750   50.6560 C   0  0  0  0  0  0  0  0  0  0  0  0
   59.0080   32.8650   49.6330 N   0  0  0  0  0  0  0  0  0  0  0  0
   58.4780   32.8300   48.2670 C   0  0  0  0  0  0  0  0  0  0  0  0
   57.4437   33.2045   48.2716 H   0  0  0  0  0  0  0  0  0  0  0  0
   58.5075   31.7922   47.9036 H   0  0  0  0  0  0  0  0  0  0  0  0
   59.3260   33.7040   47.3310 C   0  0  0  0  0  0  0  0  0  0  0  0
   59.0539   34.7586   47.4853 H   0  0  0  0  0  0  0  0  0  0  0  0
   59.1250   33.3906   46.2959 H   0  0  0  0  0  0  0  0  0  0  0  0
   60.7730   33.5410   47.5870 N   0  0  0  0  0  0  0  0  0  0  0  0
   61.2560   32.2130   47.1720 C   0  0  0  0  0  0  0  0  0  0  0  0
   61.4761   31.6078   48.0638 H   0  0  0  0  0  0  0  0  0  0  0  0
   60.4823   31.7127   46.5711 H   0  0  0  0  0  0  0  0  0  0  0  0
   62.1704   32.3267   46.5711 H   0  0  0  0  0  0  0  0  0  0  0  0
   61.1730   33.8670   48.9820 C   0  0  0  0  0  0  0  0  0  0  0  0
   61.6307   34.8673   48.9837 H   0  0  0  0  0  0  0  0  0  0  0  0
   61.8679   33.0765   49.3019 H   0  0  0  0  0  0  0  0  0  0  0  0
   60.0120   33.8670   49.9940 C   0  0  0  0  0  0  0  0  0  0  0  0
   59.5419   34.8614   50.0035 H   0  0  0  0  0  0  0  0  0  0  0  0
   60.4118   33.6230   50.9893 H   0  0  0  0  0  0  0  0  0  0  0  0
   58.5110   30.6730   50.6600 C   0  0  0  0  0  0  0  0  0  0  0  0
   59.3870   29.8360   49.3850 Cl  0  0  0  0  0  0  0  0  0  0  0  0
   57.9020   29.9180   51.6680 C   0  0  0  0  0  0  0  0  0  0  0  0
   57.9930   28.8218   51.6605 H   0  0  0  0  0  0  0  0  0  0  0  0
   52.3550   31.5330   52.4220 C   0  0  0  0  0  0  0  0  0  0  0  0
   52.6007   31.9028   53.4284 H   0  0  0  0  0  0  0  0  0  0  0  0
   51.6630   32.3560   51.5290 C   0  0  0  0  0  0  0  0  0  0  0  0
   51.3819   33.3764   51.8285 H   0  0  0  0  0  0  0  0  0  0  0  0
   51.3270   31.8850   50.2550 C   0  0  0  0  0  0  0  0  0  0  0  0
   50.6410   32.7110   49.3730 O   0  0  0  0  0  0  0  0  0  0  0  0
  1  2  1  0
  2  3  1  0
  3  4  2  0
  4  5  1  0
  4  6  1  0
  6  7  1  0
  7  8  1  0
  7  9  2  0
  9 10  1  0
  9 11  1  0
 11 12  2  0
 11 13  1  0
 13 14  1  0
 14 15  2  0
 15 16  1  0
 15 17  1  0
 17 18  1  0
 17 19  2  0
 19 20  1  0
 20 21  1  0
 21 22  1  0
 21 23  1  0
 21 24  1  0
 24 25  1  0
 24 26  1  0
 24 27  1  0
 27 28  1  0
 28 29  1  0
 28 30  1  0
 28 31  1  0
 27 32  1  0
 32 33  1  0
 32 34  1  0
 32 35  1  0
 35 36  1  0
 35 37  1  0
 19 38  1  0
 38 39  1  0
 38 40  2  0
 40 41  1  0
  6 42  2  0
 42 43  1  0
 42 44  1  0
 44 45  1  0
 44 46  2  0
 46 47  1  0
 46  3  1  0
 40 14  1  0
 35 20  1  0
M  CHG  2  13  -1  47  -1
M  END
>  <UniqueID>  (12) 
10

>  <SMILES>  (12) 
CN1CCN(c2ccc([N-]C(=O)/C=C\c3ccc([O-])c(O)c3)cc2Cl)CC1

>  <Energy>  (12) 
72.26040008345157

>  <Genealogy>  (12) 
CN1CCN(c2ccc([N-]C(=O)C=Cc3ccc([O-])c(O)c3)cc2Cl)CC1 (protonated)
CN1CCN(c2ccc([N-]C(=O)/C=C\c3ccc([O-])c(O)c3)cc2Cl)CC1 (cis-trans isomerization)
CN1CCN(c2ccc([N-]C(=O)/C=C\c3ccc([O-])c(O)c3)cc2Cl)CC1 (3D coordinates assigned)
CN1CCN(c2ccc([N-]C(=O)/C=C\c3ccc([O-])c(O)c3)cc2Cl)CC1 (nonaromatic ring conformer: 72.26040008345157 kcal/mol)

>  <smiles>  (12) 
CN1CCN(c2ccc(NC(=O)C=Cc3ccc(O)c(O)c3)cc2Cl)CC1

>  <score_type>  (12) 
oracle

>  <origin>  (12) 
adg

>  <m_score__min__energy>  (12) 
-13.140000000000001

>  <m_primary>  (12) 
energy

$$$$
12:0
     RDKit          3D

 69 73  0  0  0  0  0  0  0  0999 V2000
   62.3290   29.2870   51.3980 C   0  0  0  0  0  0  0  0  0  0  0  0
   62.6590   30.7940   51.2490 C   0  0  0  0  0  0  0  0  0  0  0  0
   62.8090   31.4120   52.6580 C   0  0  0  0  0  0  0  0  0  0  0  0
   64.0040   30.8840   50.4840 C   0  0  0  0  0  0  0  0  0  0  0  0
   64.2740   32.2840   49.9510 C   0  0  0  0  0  0  0  0  0  0  0  0
   63.2020   32.7420   48.9310 C   0  0  0  0  0  0  0  0  0  0  0  0
   63.3800   34.2700   48.7490 C   0  0  0  0  0  0  0  0  0  0  0  0
   63.4360   32.0520   47.5670 C   0  0  0  0  0  0  0  0  0  0  0  0
   61.7830   32.4160   49.4200 C   0  0  0  0  0  0  0  0  0  0  0  0
   60.6810   32.9570   48.7230 C   0  0  0  0  0  0  0  0  0  0  0  0
   59.3610   32.6920   49.1120 C   0  0  0  0  0  0  0  0  0  0  0  0
   58.2740   33.2100   48.3900 O   0  0  0  0  0  0  0  0  0  0  0  0
   58.1500   33.1970   46.9910 C   0  0  0  0  0  0  0  0  0  0  0  0
   58.7000   34.2540   46.2590 C   0  0  0  0  0  0  0  0  0  0  0  0
   58.5930   34.2810   44.8650 C   0  0  0  0  0  0  0  0  0  0  0  0
   57.9240   33.2550   44.1920 C   0  0  0  0  0  0  0  0  0  0  0  0
   57.3390   32.2020   44.9160 C   0  0  0  0  0  0  0  0  0  0  0  0
   56.6740   31.1170   44.2570 N   0  0  0  0  0  0  0  0  0  0  0  0
   56.4820   29.8010   44.7920 C   0  0  0  0  0  0  0  0  0  0  0  0
   55.3110   29.3350   44.8460 O   0  0  0  0  0  0  0  0  0  0  0  0
   57.6240   28.9480   45.2010 C   0  0  0  0  0  0  0  0  0  0  0  0
   58.9430   29.2850   44.8370 C   0  0  0  0  0  0  0  0  0  0  0  0
   60.0080   28.4440   45.1780 C   0  0  0  0  0  0  0  0  0  0  0  0
   59.7690   27.2580   45.8760 C   0  0  0  0  0  0  0  0  0  0  0  0
   58.4650   26.9130   46.2390 C   0  0  0  0  0  0  0  0  0  0  0  0
   57.3960   27.7500   45.9000 C   0  0  0  0  0  0  0  0  0  0  0  0
   57.4580   32.1760   46.3100 C   0  0  0  0  0  0  0  0  0  0  0  0
   59.1210   31.9430   50.2680 C   0  0  0  0  0  0  0  0  0  0  0  0
   57.7710   31.7220   50.7120 N   0  0  0  0  0  0  0  0  0  0  0  0
   57.4350   30.8480   51.8010 C   0  0  0  0  0  0  0  0  0  0  0  0
   58.3350   30.4090   52.5680 O   0  0  0  0  0  0  0  0  0  0  0  0
   56.0330   30.4840   52.0500 C   0  0  0  0  0  0  0  0  0  0  0  0
   54.9530   31.3450   52.0170 C   0  0  0  0  0  0  0  0  0  0  0  0
   53.8520   30.5710   52.3120 C   0  0  0  0  0  0  0  0  0  0  0  0
   54.3260   29.2890   52.5080 C   0  0  0  0  0  0  0  0  0  0  0  0
   55.6290   29.2700   52.3450 O   0  0  0  0  0  0  0  0  0  0  0  0
   60.2000   31.3510   50.9380 C   0  0  0  0  0  0  0  0  0  0  0  0
   61.5320   31.5220   50.5010 C   0  0  0  0  0  0  0  0  0  0  0  0
   62.2723   29.0279   52.4655 H   0  0  0  0  0  0  0  0  0  0  0  0
   61.3629   29.0739   50.9171 H   0  0  0  0  0  0  0  0  0  0  0  0
   63.1176   28.6897   50.9171 H   0  0  0  0  0  0  0  0  0  0  0  0
   62.6216   30.6400   53.4188 H   0  0  0  0  0  0  0  0  0  0  0  0
   63.8289   31.8060   52.7789 H   0  0  0  0  0  0  0  0  0  0  0  0
   62.0833   32.2297   52.7789 H   0  0  0  0  0  0  0  0  0  0  0  0
   64.8189   30.6025   51.1672 H   0  0  0  0  0  0  0  0  0  0  0  0
   63.9472   30.2017   49.6230 H   0  0  0  0  0  0  0  0  0  0  0  0
   64.2823   32.9885   50.7957 H   0  0  0  0  0  0  0  0  0  0  0  0
   65.2445   32.2655   49.4335 H   0  0  0  0  0  0  0  0  0  0  0  0
   63.4362   34.7527   49.7358 H   0  0  0  0  0  0  0  0  0  0  0  0
   64.3072   34.4672   48.1910 H   0  0  0  0  0  0  0  0  0  0  0  0
   62.5230   34.6751   48.1910 H   0  0  0  0  0  0  0  0  0  0  0  0
   63.7853   31.0221   47.7322 H   0  0  0  0  0  0  0  0  0  0  0  0
   62.4940   32.0331   46.9993 H   0  0  0  0  0  0  0  0  0  0  0  0
   64.1952   32.6100   46.9993 H   0  0  0  0  0  0  0  0  0  0  0  0
   60.8632   33.6034   47.8518 H   0  0  0  0  0  0  0  0  0  0  0  0
   59.2201   35.0694   46.7831 H   0  0  0  0  0  0  0  0  0  0  0  0
   59.0365   35.1119   44.2967 H   0  0  0  0  0  0  0  0  0  0  0  0
   57.8552   33.2716   43.0943 H   0  0  0  0  0  0  0  0  0  0  0  0
   59.1365   30.2146   44.2816 H   0  0  0  0  0  0  0  0  0  0  0  0
   61.0354   28.7174   44.8958 H   0  0  0  0  0  0  0  0  0  0  0  0
   60.6071   26.5961   46.1397 H   0  0  0  0  0  0  0  0  0  0  0  0
   58.2780   25.9811   46.7927 H   0  0  0  0  0  0  0  0  0  0  0  0
   56.3708   27.4686   46.1823 H   0  0  0  0  0  0  0  0  0  0  0  0
   57.0068   31.3503   46.8798 H   0  0  0  0  0  0  0  0  0  0  0  0
   57.0060   32.2840   50.2730 H   0  0  0  0  0  0  0  0  0  0  0  0
   54.9688   32.4233   51.8004 H   0  0  0  0  0  0  0  0  0  0  0  0
   52.8065   30.9066   52.3780 H   0  0  0  0  0  0  0  0  0  0  0  0
   53.7064   28.4163   52.7620 H   0  0  0  0  0  0  0  0  0  0  0  0
   60.0041   30.7362   51.8288 H   0  0  0  0  0  0  0  0  0  0  0  0
  1  2  1  0
  2  3  1  0
  2  4  1  0
  4  5  1  0
  5  6  1  0
  6  7  1  0
  6  8  1  0
  6  9  1  0
  9 10  2  0
 10 11  1  0
 11 12  1  0
 12 13  1  0
 13 14  2  0
 14 15  1  0
 15 16  2  0
 16 17  1  0
 17 18  1  0
 18 19  1  0
 19 20  2  0
 19 21  1  0
 21 22  2  0
 22 23  1  0
 23 24  2  0
 24 25  1  0
 25 26  2  0
 17 27  2  0
 11 28  2  0
 28 29  1  0
 29 30  1  0
 30 31  2  0
 30 32  1  0
 32 33  2  0
 33 34  1  0
 34 35  2  0
 35 36  1  0
 28 37  1  0
 37 38  2  0
 38  2  1  0
 38  9  1  0
 27 13  1  0
 36 32  1  0
 26 21  1  0
  1 39  1  0
  1 40  1  0
  1 41  1  0
  3 42  1  0
  3 43  1  0
  3 44  1  0
  4 45  1  0
  4 46  1  0
  5 47  1  0
  5 48  1  0
  7 49  1  0
  7 50  1  0
  7 51  1  0
  8 52  1  0
  8 53  1  0
  8 54  1  0
 10 55  1  0
 14 56  1  0
 15 57  1  0
 16 58  1  0
 22 59  1  0
 23 60  1  0
 24 61  1  0
 25 62  1  0
 26 63  1  0
 27 64  1  0
 29 65  1  0
 33 66  1  0
 34 67  1  0
 35 68  1  0
 37 69  1  0
M  CHG  1  18  -1
M  END
>  <UniqueID>  (13) 
11

>  <SMILES>  (13) 
CC1(C)CCC(C)(C)c2cc(Oc3cccc([N-]C(=O)c4ccccc4)c3)c(NC(=O)c3ccco3)cc21

>  <Energy>  (13) 
119.25547440639681

>  <Genealogy>  (13) 
CC1(C)CCC(C)(C)c2cc(Oc3cccc([N-]C(=O)c4ccccc4)c3)c(NC(=O)c3ccco3)cc21 (protonated)
CC1(C)CCC(C)(C)c2cc(Oc3cccc([N-]C(=O)c4ccccc4)c3)c(NC(=O)c3ccco3)cc21 (3D coordinates assigned)
CC1(C)CCC(C)(C)c2cc(Oc3cccc([N-]C(=O)c4ccccc4)c3)c(NC(=O)c3ccco3)cc21 (nonaromatic ring conformer: 119.25547440639681 kcal/mol)

>  <smiles>  (13) 
CC1(C)CCC(C)(C)c2cc(Oc3cccc(NC(=O)c4ccccc4)c3)c(NC(=O)c3ccco3)cc21

>  <score_type>  (13) 
oracle

>  <origin>  (13) 
adg

>  <m_score__min__energy>  (13) 
-12

>  <m_primary>  (13) 
energy

$$$$
13:0
     RDKit          3D

 42 45  0  0  0  0  0  0  0  0999 V2000
   60.7370   28.5450   49.6570 C   0  0  0  0  0  0  0  0  0  0  0  0
   60.2750   28.1600   48.3660 O   0  0  0  0  0  0  0  0  0  0  0  0
   59.5950   29.0070   47.4760 C   0  0  0  0  0  0  0  0  0  0  0  0
   59.5510   30.3670   47.7760 C   0  0  0  0  0  0  0  0  0  0  0  0
   58.8710   31.2730   46.9490 C   0  0  0  0  0  0  0  0  0  0  0  0
   58.2540   30.8000   45.7620 C   0  0  0  0  0  0  0  0  0  0  0  0
   57.5860   31.7000   44.9010 C   0  0  0  0  0  0  0  0  0  0  0  0
   57.0250   31.2350   43.7060 C   0  0  0  0  0  0  0  0  0  0  0  0
   57.0940   29.8860   43.3720 C   0  0  0  0  0  0  0  0  0  0  0  0
   57.7220   28.9680   44.2150 C   0  0  0  0  0  0  0  0  0  0  0  0
   57.7290   27.6330   43.7990 O   0  0  0  0  0  0  0  0  0  0  0  0
   58.3160   29.4160   45.4270 C   0  0  0  0  0  0  0  0  0  0  0  0
   58.9770   28.5340   46.3080 C   0  0  0  0  0  0  0  0  0  0  0  0
   57.4460   33.1180   45.2870 C   0  0  0  0  0  0  0  0  0  0  0  0
   57.0260   33.9770   44.4650 O   0  0  0  0  0  0  0  0  0  0  0  0
   57.7240   33.5160   46.7010 C   0  0  0  0  0  0  0  0  0  0  0  0
   58.9460   32.7640   47.2500 C   0  0  1  0  0  0  0  0  0  0  0  0
   59.0320   32.9750   48.6610 O   0  0  0  0  0  0  0  0  0  0  0  0
   60.1740   33.4670   49.3070 C   0  0  0  0  0  0  0  0  0  0  0  0
   60.0730   34.0310   50.4320 O   0  0  0  0  0  0  0  0  0  0  0  0
   61.4970   33.3310   48.6600 C   0  0  0  0  0  0  0  0  0  0  0  0
   62.5380   32.6270   49.2930 C   0  0  0  0  0  0  0  0  0  0  0  0
   63.7860   32.5050   48.6740 C   0  0  0  0  0  0  0  0  0  0  0  0
   64.0080   33.0800   47.4210 C   0  0  0  0  0  0  0  0  0  0  0  0
   62.9820   33.7820   46.7840 C   0  0  0  0  0  0  0  0  0  0  0  0
   61.7320   33.9080   47.3980 C   0  0  0  0  0  0  0  0  0  0  0  0
   60.1337   28.0423   50.4273 H   0  0  0  0  0  0  0  0  0  0  0  0
   61.7920   28.2551   49.7704 H   0  0  0  0  0  0  0  0  0  0  0  0
   60.6421   29.6350   49.7704 H   0  0  0  0  0  0  0  0  0  0  0  0
   60.0592   30.7371   48.6786 H   0  0  0  0  0  0  0  0  0  0  0  0
   56.5260   31.9411   43.0260 H   0  0  0  0  0  0  0  0  0  0  0  0
   56.6468   29.5378   42.4292 H   0  0  0  0  0  0  0  0  0  0  0  0
   57.0150   27.1960   43.2360 H   0  0  0  0  0  0  0  0  0  0  0  0
   59.0084   27.4592   46.0758 H   0  0  0  0  0  0  0  0  0  0  0  0
   57.9194   34.5978   46.7392 H   0  0  0  0  0  0  0  0  0  0  0  0
   56.8485   33.2626   47.3169 H   0  0  0  0  0  0  0  0  0  0  0  0
   59.8461   33.1563   46.7541 H   0  0  0  0  0  0  0  0  0  0  0  0
   62.3693   32.1704   50.2795 H   0  0  0  0  0  0  0  0  0  0  0  0
   64.5954   31.9543   49.1757 H   0  0  0  0  0  0  0  0  0  0  0  0
   64.9902   32.9802   46.9359 H   0  0  0  0  0  0  0  0  0  0  0  0
   63.1576   34.2364   45.7978 H   0  0  0  0  0  0  0  0  0  0  0  0
   60.9275   34.4614   46.8916 H   0  0  0  0  0  0  0  0  0  0  0  0
  1  2  1  0
  2  3  1  0
  3  4  2  0
  4  5  1  0
  5  6  2  0
  6  7  1  0
  7  8  2  0
  8  9  1  0
  9 10  2  0
 10 11  1  0
 10 12  1  0
 12 13  2  0
  7 14  1  0
 14 15  2  0
 14 16  1  0
 16 17  1  0
 17 18  1  0
 18 19  1  0
 19 20  2  0
 19 21  1  0
 21 22  2  0
 22 23  1  0
 23 24  2  0
 24 25  1  0
 25 26  2  0
 13  3  1  0
 26 21  1  0
 17  5  1  0
 12  6  1  0
  1 27  1  0
  1 28  1  0
  1 29  1  0
  4 30  1  0
  8 31  1  0
  9 32  1  0
 11 33  1  0
 13 34  1  0
 16 35  1  0
 16 36  1  0
 17 37  1  6
 22 38  1  0
 23 39  1  0
 24 40  1  0
 25 41  1  0
 26 42  1  0
M  END
>  <UniqueID>  (14) 
12

>  <SMILES>  (14) 
COc1cc2c3c(ccc(O)c3c1)C(=O)C[C@H]2OC(=O)c1ccccc1

>  <Energy>  (14) 
55.74488811155348

>  <Genealogy>  (14) 
COc1cc2c3c(ccc(O)c3c1)C(=O)C[C@H]2OC(=O)c1ccccc1 (chirality)
COc1cc2c3c(ccc(O)c3c1)C(=O)C[C@H]2OC(=O)c1ccccc1 (3D coordinates assigned)
COc1cc2c3c(ccc(O)c3c1)C(=O)C[C@H]2OC(=O)c1ccccc1 (nonaromatic ring conformer: 55.74488811155348 kcal/mol)

>  <smiles>  (14) 
COc1cc2c3c(ccc(O)c3c1)C(=O)CC2OC(=O)c1ccccc1

>  <score_type>  (14) 
oracle

>  <origin>  (14) 
adg

>  <m_score__min__energy>  (14) 
-7.8399999999999999

>  <m_primary>  (14) 
energy

$$$$
14:0
     RDKit          3D

 32 34  0  0  0  0  0  0  0  0999 V2000
   54.7300   30.4010   45.1050 H   0  0  0  0  0  0  0  0  0  0  0  0
   55.1550   29.5650   44.6510 N   0  0  0  0  0  0  0  0  0  0  0  0
   56.2730   29.0330   45.0370 C   0  0  0  0  0  0  0  0  0  0  0  0
   56.3170   27.8060   45.6160 N   0  0  0  0  0  0  0  0  0  0  0  0
   57.6330   27.6250   45.8260 C   0  0  0  0  0  0  0  0  0  0  0  0
   58.2550   26.5130   46.3880 C   0  0  0  0  0  0  0  0  0  0  0  0
   57.6686   25.6511   46.7391 H   0  0  0  0  0  0  0  0  0  0  0  0
   59.6580   26.5280   46.4920 C   0  0  0  0  0  0  0  0  0  0  0  0
   60.1828   25.6671   46.9318 H   0  0  0  0  0  0  0  0  0  0  0  0
   60.3970   27.6420   46.0350 C   0  0  0  0  0  0  0  0  0  0  0  0
   61.4936   27.6426   46.1214 H   0  0  0  0  0  0  0  0  0  0  0  0
   59.7400   28.7510   45.4700 C   0  0  0  0  0  0  0  0  0  0  0  0
   60.3039   29.6230   45.1073 H   0  0  0  0  0  0  0  0  0  0  0  0
   58.3450   28.7050   45.3860 C   0  0  0  0  0  0  0  0  0  0  0  0
   57.4950   29.6200   44.8870 N   0  0  0  0  0  0  0  0  0  0  0  0
   57.8430   30.8980   44.2520 C   0  0  0  0  0  0  0  0  0  0  0  0
   58.9131   31.0978   44.4101 H   0  0  0  0  0  0  0  0  0  0  0  0
   57.6168   30.8267   43.1779 H   0  0  0  0  0  0  0  0  0  0  0  0
   57.0260   32.0510   44.8450 C   0  0  0  0  0  0  0  0  0  0  0  0
   56.4986   32.5697   44.0309 H   0  0  0  0  0  0  0  0  0  0  0  0
   56.3144   31.6294   45.5702 H   0  0  0  0  0  0  0  0  0  0  0  0
   57.9020   33.0410   45.5680 C   0  0  0  0  0  0  0  0  0  0  0  0
   58.1470   32.8970   46.9440 C   0  0  0  0  0  0  0  0  0  0  0  0
   57.6694   32.0795   47.5040 H   0  0  0  0  0  0  0  0  0  0  0  0
   58.9970   33.7910   47.6030 C   0  0  0  0  0  0  0  0  0  0  0  0
   59.1840   33.6773   48.6810 H   0  0  0  0  0  0  0  0  0  0  0  0
   59.6090   34.8280   46.8950 C   0  0  0  0  0  0  0  0  0  0  0  0
   60.2761   35.5306   47.4159 H   0  0  0  0  0  0  0  0  0  0  0  0
   59.3740   34.9730   45.5250 C   0  0  0  0  0  0  0  0  0  0  0  0
   59.8571   35.7896   44.9684 H   0  0  0  0  0  0  0  0  0  0  0  0
   58.5260   34.0820   44.8610 C   0  0  0  0  0  0  0  0  0  0  0  0
   58.3468   34.1964   43.7817 H   0  0  0  0  0  0  0  0  0  0  0  0
  1  2  1  0
  2  3  2  0
  3  4  1  0
  4  5  1  0
  5  6  2  0
  6  7  1  0
  6  8  1  0
  8  9  1  0
  8 10  2  0
 10 11  1  0
 10 12  1  0
 12 13  1  0
 12 14  2  0
 14 15  1  0
 15 16  1  0
 16 17  1  0
 16 18  1  0
 16 19  1  0
 19 20  1  0
 19 21  1  0
 19 22  1  0
 22 23  2  0
 23 24  1  0
 23 25  1  0
 25 26  1  0
 25 27  2  0
 27 28  1  0
 27 29  1  0
 29 30  1  0
 29 31  2  0
 31 32  1  0
 15  3  1  0
 31 22  1  0
 14  5  1  0
M  CHG  1   4  -1
M  END
>  <UniqueID>  (15) 
13

>  <SMILES>  (15) 
[H]/N=c1/[n-]c2ccccc2n1CCc1ccccc1

>  <Energy>  (15) 
69.18394015332213

>  <Genealogy>  (15) 
N=c1[n-]c2ccccc2n1CCc1ccccc1 (protonated)
[H]/N=c1/[n-]c2ccccc2n1CCc1ccccc1 (cis-trans isomerization)
[H]/N=c1/[n-]c2ccccc2n1CCc1ccccc1 (3D coordinates assigned)
[H]/N=c1/[n-]c2ccccc2n1CCc1ccccc1 (optimized conformer: 69.18394015332213 kcal/mol)

>  <smiles>  (15) 
N=c1[nH]c2ccccc2n1CCc1ccccc1

>  <score_type>  (15) 
oracle

>  <origin>  (15) 
adg

>  <m_score__min__energy>  (15) 
-9.3100000000000005

>  <m_primary>  (15) 
energy

$$$$
15:0
     RDKit          3D

 56 59  0  0  0  0  0  0  0  0999 V2000
   57.6460   32.3420   41.9130 C   0  0  0  0  0  0  0  0  0  0  0  0
   57.4110   33.0950   43.0970 O   0  0  0  0  0  0  0  0  0  0  0  0
   58.0640   32.8860   44.3220 C   0  0  0  0  0  0  0  0  0  0  0  0
   59.1190   33.7190   44.7480 C   0  0  0  0  0  0  0  0  0  0  0  0
   59.7100   33.5300   45.9980 C   0  0  0  0  0  0  0  0  0  0  0  0
   59.2490   32.5180   46.8510 C   0  0  0  0  0  0  0  0  0  0  0  0
   59.8290   32.3510   48.1570 N   0  0  0  0  0  0  0  0  0  0  0  0
   60.3570   33.5420   48.8430 C   0  0  0  0  0  0  0  0  0  0  0  0
   61.8480   33.4280   49.0270 C   0  0  0  0  0  0  0  0  0  0  0  0
   62.4000   33.3300   50.3130 C   0  0  0  0  0  0  0  0  0  0  0  0
   63.7830   33.2400   50.4750 C   0  0  0  0  0  0  0  0  0  0  0  0
   64.6050   33.2420   49.3450 C   0  0  0  0  0  0  0  0  0  0  0  0
   64.0570   33.3320   48.1040 N   0  0  0  0  0  0  0  0  0  0  0  0
   62.7120   33.4220   47.9200 C   0  0  0  0  0  0  0  0  0  0  0  0
   60.0370   31.0150   48.6720 C   0  0  0  0  0  0  0  0  0  0  0  0
   60.7340   30.1950   48.0180 O   0  0  0  0  0  0  0  0  0  0  0  0
   59.4460   30.5610   49.9450 C   0  0  0  0  0  0  0  0  0  0  0  0
   58.2820   31.1800   50.4210 C   0  0  0  0  0  0  0  0  0  0  0  0
   57.6920   30.7620   51.6160 C   0  0  0  0  0  0  0  0  0  0  0  0
   56.2470   31.5740   52.2030 Cl  0  0  0  0  0  0  0  0  0  0  0  0
   58.2510   29.6960   52.3330 C   0  0  0  0  0  0  0  0  0  0  0  0
   57.6690   29.2640   53.5190 O   0  0  0  0  0  0  0  0  0  0  0  0
   59.4030   29.0650   51.8580 C   0  0  0  0  0  0  0  0  0  0  0  0
   60.0080   29.4910   50.6710 C   0  0  0  0  0  0  0  0  0  0  0  0
   61.1640   28.8330   50.2410 O   0  0  0  0  0  0  0  0  0  0  0  0
   58.2070   31.6780   46.4300 C   0  0  0  0  0  0  0  0  0  0  0  0
   57.6370   31.8310   45.1610 C   0  0  0  0  0  0  0  0  0  0  0  0
   56.6080   30.9110   44.7600 N   0  0  0  0  0  0  0  0  0  0  0  0
   56.5980   29.4980   45.0120 C   0  0  0  0  0  0  0  0  0  0  0  0
   55.5140   28.8690   44.8910 O   0  0  0  0  0  0  0  0  0  0  0  0
   57.8200   28.7720   45.4370 C   0  0  0  0  0  0  0  0  0  0  0  0
   59.0320   28.9190   44.7340 C   0  0  0  0  0  0  0  0  0  0  0  0
   60.1690   28.2040   45.1260 C   0  0  0  0  0  0  0  0  0  0  0  0
   60.1150   27.3420   46.2270 C   0  0  0  0  0  0  0  0  0  0  0  0
   58.9220   27.2010   46.9410 C   0  0  0  0  0  0  0  0  0  0  0  0
   57.7800   27.9170   46.5550 C   0  0  0  0  0  0  0  0  0  0  0  0
   57.9637   31.3240   42.1829 H   0  0  0  0  0  0  0  0  0  0  0  0
   56.7206   32.2923   41.3203 H   0  0  0  0  0  0  0  0  0  0  0  0
   58.4354   32.8274   41.3203 H   0  0  0  0  0  0  0  0  0  0  0  0
   59.4788   34.5238   44.0901 H   0  0  0  0  0  0  0  0  0  0  0  0
   60.5407   34.1777   46.3150 H   0  0  0  0  0  0  0  0  0  0  0  0
   60.1339   34.4351   48.2409 H   0  0  0  0  0  0  0  0  0  0  0  0
   59.8819   33.6226   49.8318 H   0  0  0  0  0  0  0  0  0  0  0  0
   61.7420   33.3241   51.1944 H   0  0  0  0  0  0  0  0  0  0  0  0
   64.2214   33.1683   51.4813 H   0  0  0  0  0  0  0  0  0  0  0  0
   65.6967   33.1707   49.4596 H   0  0  0  0  0  0  0  0  0  0  0  0
   62.3005   33.4902   46.9021 H   0  0  0  0  0  0  0  0  0  0  0  0
   57.8290   32.0026   49.8482 H   0  0  0  0  0  0  0  0  0  0  0  0
   59.8379   28.2265   52.4218 H   0  0  0  0  0  0  0  0  0  0  0  0
   61.5510   28.9590   49.3140 H   0  0  0  0  0  0  0  0  0  0  0  0
   57.8347   30.8920   47.1035 H   0  0  0  0  0  0  0  0  0  0  0  0
   59.0848   29.6000   43.8717 H   0  0  0  0  0  0  0  0  0  0  0  0
   61.1090   28.3199   44.5665 H   0  0  0  0  0  0  0  0  0  0  0  0
   61.0090   26.7770   46.5296 H   0  0  0  0  0  0  0  0  0  0  0  0
   58.8788   26.5262   47.8086 H   0  0  0  0  0  0  0  0  0  0  0  0
   56.8476   27.8102   47.1288 H   0  0  0  0  0  0  0  0  0  0  0  0
  1  2  1  0
  2  3  1  0
  3  4  2  0
  4  5  1  0
  5  6  2  0
  6  7  1  0
  7  8  1  0
  8  9  1  0
  9 10  2  0
 10 11  1  0
 11 12  2  0
 12 13  1  0
 13 14  2  0
  7 15  1  0
 15 16  2  0
 15 17  1  0
 17 18  2  0
 18 19  1  0
 19 20  1  0
 19 21  2  0
 21 22  1  0
 21 23  1  0
 23 24  2  0
 24 25  1  0
  6 26  1  0
 26 27  2  0
 27 28  1  0
 28 29  1  0
 29 30  2  0
 29 31  1  0
 31 32  2  0
 32 33  1  0
 33 34  2  0
 34 35  1  0
 35 36  2  0
 27  3  1  0
 36 31  1  0
 14  9  1  0
 24 17  1  0
  1 37  1  0
  1 38  1  0
  1 39  1  0
  4 40  1  0
  5 41  1  0
  8 42  1  0
  8 43  1  0
 10 44  1  0
 11 45  1  0
 12 46  1  0
 14 47  1  0
 18 48  1  0
 23 49  1  0
 25 50  1  0
 26 51  1  0
 32 52  1  0
 33 53  1  0
 34 54  1  0
 35 55  1  0
 36 56  1  0
M  CHG  2  22  -1  28  -1
M  END
>  <UniqueID>  (16) 
14

>  <SMILES>  (16) 
COc1ccc(N(Cc2cccnc2)C(=O)c2cc(Cl)c([O-])cc2O)cc1[N-]C(=O)c1ccccc1

>  <Energy>  (16) 
80.55242335619705

>  <Genealogy>  (16) 
COc1ccc(N(Cc2cccnc2)C(=O)c2cc(Cl)c([O-])cc2O)cc1[N-]C(=O)c1ccccc1 (protonated)
COc1ccc(N(Cc2cccnc2)C(=O)c2cc(Cl)c([O-])cc2O)cc1[N-]C(=O)c1ccccc1 (3D coordinates assigned)
COc1ccc(N(Cc2cccnc2)C(=O)c2cc(Cl)c([O-])cc2O)cc1[N-]C(=O)c1ccccc1 (optimized conformer: 80.55242335619705 kcal/mol)

>  <smiles>  (16) 
COc1ccc(N(Cc2cccnc2)C(=O)c2cc(Cl)c(O)cc2O)cc1NC(=O)c1ccccc1

>  <score_type>  (16) 
oracle

>  <origin>  (16) 
adg

>  <m_score__min__energy>  (16) 
-13.42

>  <m_primary>  (16) 
energy

$$$$
16:0
     RDKit          3D

 58 59  0  0  0  0  0  0  0  0999 V2000
   63.0250   33.3680   48.0200 C   0  0  0  0  0  0  0  0  0  0  0  0
   62.7470   31.9710   47.9790 O   0  0  0  0  0  0  0  0  0  0  0  0
   61.4860   31.4400   48.2710 C   0  0  0  0  0  0  0  0  0  0  0  0
   61.3700   30.0870   48.5930 C   0  0  0  0  0  0  0  0  0  0  0  0
   60.1050   29.5720   48.8750 C   0  0  0  0  0  0  0  0  0  0  0  0
   59.9600   28.2180   49.1900 O   0  0  0  0  0  0  0  0  0  0  0  0
   60.8030   27.5530   50.1280 C   0  0  0  0  0  0  0  0  0  0  0  0
   59.0250   30.3960   48.8500 N   0  0  0  0  0  0  0  0  0  0  0  0
   59.1490   31.7210   48.5500 C   0  0  0  0  0  0  0  0  0  0  0  0
   58.1140   32.5100   48.5410 N   0  0  0  0  0  0  0  0  0  0  0  0
   57.7900   33.4500   47.5050 C   0  0  0  0  0  0  0  0  0  0  0  0
   56.6340   33.4370   47.0080 O   0  0  0  0  0  0  0  0  0  0  0  0
   58.7680   34.3760   47.0230 N   0  0  0  0  0  0  0  0  0  0  0  0
   59.6350   34.1540   45.5420 S   0  0  0  0  0  0  0  0  0  0  0  0
   61.0840   33.8690   45.8150 O   0  0  0  0  0  0  0  0  0  0  0  0
   59.5320   35.4120   44.7300 O   0  0  0  0  0  0  0  0  0  0  0  0
   58.8940   32.8100   44.6840 C   0  0  0  0  0  0  0  0  0  0  0  0
   58.1040   33.0180   43.5450 C   0  0  0  0  0  0  0  0  0  0  0  0
   57.4100   31.9480   42.9690 C   0  0  0  0  0  0  0  0  0  0  0  0
   57.4900   30.6710   43.5350 C   0  0  0  0  0  0  0  0  0  0  0  0
   58.2820   30.4560   44.6720 C   0  0  0  0  0  0  0  0  0  0  0  0
   58.3390   29.1750   45.3110 N   0  0  0  0  0  0  0  0  0  0  0  0
   59.5890   28.5860   45.7100 C   0  0  0  0  0  0  0  0  0  0  0  0
   60.5960   29.3220   45.8960 O   0  0  0  0  0  0  0  0  0  0  0  0
   59.7500   27.0830   45.8540 C   0  0  1  0  0  0  0  0  0  0  0  0
   60.3890   26.7280   47.1280 N   0  0  0  0  0  0  0  0  0  0  0  0
   58.4170   26.2790   45.6070 C   0  0  0  0  0  0  0  0  0  0  0  0
   57.8870   26.4640   44.1640 C   0  0  0  0  0  0  0  0  0  0  0  0
   58.6750   24.7680   45.8150 C   0  0  0  0  0  0  0  0  0  0  0  0
   57.2960   26.7490   46.5800 C   0  0  0  0  0  0  0  0  0  0  0  0
   55.9970   27.0870   45.9010 C   0  0  0  0  0  0  0  0  0  0  0  0
   55.8780   28.1720   45.2740 O   0  0  0  0  0  0  0  0  0  0  0  0
   54.9150   26.2180   45.9820 O   0  0  0  0  0  0  0  0  0  0  0  0
   59.0080   31.5220   45.2180 C   0  0  0  0  0  0  0  0  0  0  0  0
   60.3750   32.2270   48.2520 N   0  0  0  0  0  0  0  0  0  0  0  0
   63.0907   33.6982   49.0672 H   0  0  0  0  0  0  0  0  0  0  0  0
   63.9803   33.5668   47.5122 H   0  0  0  0  0  0  0  0  0  0  0  0
   62.2186   33.9174   47.5122 H   0  0  0  0  0  0  0  0  0  0  0  0
   62.2588   29.4396   48.6238 H   0  0  0  0  0  0  0  0  0  0  0  0
   60.4841   27.8046   51.1503 H   0  0  0  0  0  0  0  0  0  0  0  0
   60.7314   26.4655   49.9787 H   0  0  0  0  0  0  0  0  0  0  0  0
   61.8439   27.8758   49.9787 H   0  0  0  0  0  0  0  0  0  0  0  0
   58.0295   34.0228   43.1037 H   0  0  0  0  0  0  0  0  0  0  0  0
   56.7997   32.1114   42.0685 H   0  0  0  0  0  0  0  0  0  0  0  0
   56.9315   29.8354   43.0879 H   0  0  0  0  0  0  0  0  0  0  0  0
   57.5000   28.5610   45.2030 H   0  0  0  0  0  0  0  0  0  0  0  0
   60.4279   26.7707   45.0460 H   0  0  0  0  0  0  0  0  0  0  0  0
   60.9790   27.5320   47.4490 H   0  0  0  0  0  0  0  0  0  0  0  0
   59.6780   26.5460   47.8690 H   0  0  0  0  0  0  0  0  0  0  0  0
   56.8490   26.8263   44.1983 H   0  0  0  0  0  0  0  0  0  0  0  0
   58.5137   27.1965   43.6343 H   0  0  0  0  0  0  0  0  0  0  0  0
   57.9218   25.5006   43.6343 H   0  0  0  0  0  0  0  0  0  0  0  0
   58.7127   24.5473   46.8920 H   0  0  0  0  0  0  0  0  0  0  0  0
   57.8626   24.1899   45.3505 H   0  0  0  0  0  0  0  0  0  0  0  0
   59.6332   24.4923   45.3505 H   0  0  0  0  0  0  0  0  0  0  0  0
   57.1077   25.9436   47.3052 H   0  0  0  0  0  0  0  0  0  0  0  0
   57.6555   27.6731   47.0562 H   0  0  0  0  0  0  0  0  0  0  0  0
   59.6743   31.3448   46.0751 H   0  0  0  0  0  0  0  0  0  0  0  0
  1  2  1  0
  2  3  1  0
  3  4  1  0
  4  5  2  0
  5  6  1  0
  6  7  1  0
  5  8  1  0
  8  9  1  0
  9 10  2  3
 10 11  1  0
 11 12  2  0
 11 13  1  0
 13 14  1  0
 14 15  2  0
 14 16  2  0
 14 17  1  0
 17 18  2  0
 18 19  1  0
 19 20  2  0
 20 21  1  0
 21 22  1  0
 22 23  1  0
 23 24  2  0
 23 25  1  0
 25 26  1  0
 25 27  1  0
 27 28  1  0
 27 29  1  0
 27 30  1  0
 30 31  1  0
 31 32  2  0
 31 33  1  0
 21 34  2  0
  9 35  1  0
 35  3  2  0
 34 17  1  0
  1 36  1  0
  1 37  1  0
  1 38  1  0
  4 39  1  0
  7 40  1  0
  7 41  1  0
  7 42  1  0
 18 43  1  0
 19 44  1  0
 20 45  1  0
 22 46  1  0
 25 47  1  6
 26 48  1  0
 26 49  1  0
 28 50  1  0
 28 51  1  0
 28 52  1  0
 29 53  1  0
 29 54  1  0
 29 55  1  0
 30 56  1  0
 30 57  1  0
 34 58  1  0
M  CHG  3   8  -1  13  -1  33  -1
M  END
>  <UniqueID>  (17) 
15

>  <SMILES>  (17) 
COc1cc(OC)[n-]c(=NC(=O)[N-]S(=O)(=O)c2cccc(NC(=O)[C@@H](N)C(C)(C)CC(=O)[O-])c2)n1

>  <Energy>  (17) 
60.44348785082606

>  <Genealogy>  (17) 
COc1cc(OC)[n-]c(=NC(=O)[N-]S(=O)(=O)c2cccc(NC(=O)C(N)C(C)(C)CC(=O)[O-])c2)n1 (protonated)
COc1cc(OC)[n-]c(=NC(=O)[N-]S(=O)(=O)c2cccc(NC(=O)[C@@H](N)C(C)(C)CC(=O)[O-])c2)n1 (chirality)
COc1cc(OC)[n-]c(=NC(=O)[N-]S(=O)(=O)c2cccc(NC(=O)[C@@H](N)C(C)(C)CC(=O)[O-])c2)n1 (3D coordinates assigned)
COc1cc(OC)[n-]c(=NC(=O)[N-]S(=O)(=O)c2cccc(NC(=O)[C@@H](N)C(C)(C)CC(=O)[O-])c2)n1 (optimized conformer: 60.44348785082606 kcal/mol)

>  <smiles>  (17) 
COc1cc(OC)[nH]c(=NC(=O)NS(=O)(=O)c2cccc(NC(=O)C(N)C(C)(C)CC(=O)O)c2)n1

>  <score_type>  (17) 
oracle

>  <origin>  (17) 
adg

>  <m_score__min__energy>  (17) 
-14.550000000000001

>  <m_primary>  (17) 
energy

$$$$
17:0
     RDKit          3D

 59 63  0  0  0  0  0  0  0  0999 V2000
   57.1350   30.1260   43.0450 O   0  0  0  0  0  0  0  0  0  0  0  0
   56.8610   30.2810   44.5150 S   0  0  0  0  0  0  0  0  0  0  0  0
   55.6050   29.5230   44.8510 O   0  0  0  0  0  0  0  0  0  0  0  0
   56.6510   31.9630   44.8850 N   0  0  0  0  0  0  0  0  0  0  0  0
   57.7230   32.8460   45.2660 C   0  0  0  0  0  0  0  0  0  0  0  0
   57.8430   34.1420   44.7310 C   0  0  0  0  0  0  0  0  0  0  0  0
   58.8860   34.9760   45.1340 C   0  0  0  0  0  0  0  0  0  0  0  0
   59.8290   34.5280   46.0600 C   0  0  0  0  0  0  0  0  0  0  0  0
   59.7450   33.2300   46.5930 C   0  0  0  0  0  0  0  0  0  0  0  0
   60.7670   32.7660   47.5660 C   0  0  0  0  0  0  0  0  0  0  0  0
   60.4340   32.4060   48.8810 C   0  0  0  0  0  0  0  0  0  0  0  0
   61.4290   31.9520   49.7420 C   0  0  0  0  0  0  0  0  0  0  0  0
   62.7480   31.8580   49.2830 C   0  0  0  0  0  0  0  0  0  0  0  0
   63.8050   31.3460   50.1180 N   0  0  0  0  0  0  0  0  0  0  0  0
   65.0610   32.0880   50.2940 C   0  0  0  0  0  0  0  0  0  0  0  0
   66.2550   31.1310   50.5010 C   0  0  0  0  0  0  0  0  0  0  0  0
   65.9480   29.9120   51.3040 N   0  0  0  0  0  0  0  0  0  0  0  0
   67.0230   29.6060   52.2700 C   0  0  0  0  0  0  0  0  0  0  0  0
   67.7960   28.3860   51.8400 C   0  0  0  0  0  0  0  0  0  0  0  0
   68.6660   27.7380   52.7330 C   0  0  0  0  0  0  0  0  0  0  0  0
   69.3940   26.6170   52.3190 C   0  0  0  0  0  0  0  0  0  0  0  0
   69.2580   26.1370   51.0140 C   0  0  0  0  0  0  0  0  0  0  0  0
   68.3960   26.7780   50.1200 C   0  0  0  0  0  0  0  0  0  0  0  0
   67.6690   27.9010   50.5290 C   0  0  0  0  0  0  0  0  0  0  0  0
   64.6450   29.9760   51.9900 C   0  0  0  0  0  0  0  0  0  0  0  0
   63.5320   30.1780   50.9630 C   0  0  0  0  0  0  0  0  0  0  0  0
   63.0170   32.2060   47.9950 N   0  0  0  0  0  0  0  0  0  0  0  0
   62.0640   32.6440   47.1710 N   0  0  0  0  0  0  0  0  0  0  0  0
   58.6780   32.4010   46.1940 C   0  0  0  0  0  0  0  0  0  0  0  0
   58.2280   29.6450   45.4130 C   0  0  0  0  0  0  0  0  0  0  0  0
   58.2120   29.2850   46.7480 C   0  0  0  0  0  0  0  0  0  0  0  0
   59.4440   28.7760   47.1920 C   0  0  0  0  0  0  0  0  0  0  0  0
   60.4230   28.7350   46.2040 C   0  0  0  0  0  0  0  0  0  0  0  0
   59.7580   29.3330   44.7770 S   0  0  0  0  0  0  0  0  0  0  0  0
   55.7040   32.3660   44.7110 H   0  0  0  0  0  0  0  0  0  0  0  0
   57.1110   34.4990   43.9916 H   0  0  0  0  0  0  0  0  0  0  0  0
   58.9656   35.9919   44.7198 H   0  0  0  0  0  0  0  0  0  0  0  0
   60.6443   35.1957   46.3753 H   0  0  0  0  0  0  0  0  0  0  0  0
   59.3933   32.4821   49.2290 H   0  0  0  0  0  0  0  0  0  0  0  0
   61.1806   31.6692   50.7756 H   0  0  0  0  0  0  0  0  0  0  0  0
   65.2438   32.7002   49.3986 H   0  0  0  0  0  0  0  0  0  0  0  0
   64.9665   32.7227   51.1874 H   0  0  0  0  0  0  0  0  0  0  0  0
   66.6104   30.8082   49.5113 H   0  0  0  0  0  0  0  0  0  0  0  0
   67.0086   31.6949   51.0702 H   0  0  0  0  0  0  0  0  0  0  0  0
   67.7082   30.4643   52.3311 H   0  0  0  0  0  0  0  0  0  0  0  0
   66.5692   29.4083   53.2523 H   0  0  0  0  0  0  0  0  0  0  0  0
   68.7752   28.1133   53.7612 H   0  0  0  0  0  0  0  0  0  0  0  0
   70.0740   26.1132   53.0217 H   0  0  0  0  0  0  0  0  0  0  0  0
   69.8294   25.2546   50.6902 H   0  0  0  0  0  0  0  0  0  0  0  0
   68.2890   26.3988   49.0930 H   0  0  0  0  0  0  0  0  0  0  0  0
   66.9955   28.4057   49.8207 H   0  0  0  0  0  0  0  0  0  0  0  0
   64.4727   29.0368   52.5360 H   0  0  0  0  0  0  0  0  0  0  0  0
   64.6462   30.8191   52.6966 H   0  0  0  0  0  0  0  0  0  0  0  0
   63.4612   29.2827   50.3279 H   0  0  0  0  0  0  0  0  0  0  0  0
   62.5858   30.3451   51.4985 H   0  0  0  0  0  0  0  0  0  0  0  0
   58.5918   31.3890   46.6163 H   0  0  0  0  0  0  0  0  0  0  0  0
   57.3277   29.3865   47.3944 H   0  0  0  0  0  0  0  0  0  0  0  0
   59.6185   28.4409   48.2251 H   0  0  0  0  0  0  0  0  0  0  0  0
   61.4541   28.3740   46.3329 H   0  0  0  0  0  0  0  0  0  0  0  0
  1  2  2  0
  2  3  2  0
  2  4  1  0
  4  5  1  0
  5  6  2  0
  6  7  1  0
  7  8  2  0
  8  9  1  0
  9 10  1  0
 10 11  2  0
 11 12  1  0
 12 13  2  0
 13 14  1  0
 14 15  1  0
 15 16  1  0
 16 17  1  0
 17 18  1  0
 18 19  1  0
 19 20  2  0
 20 21  1  0
 21 22  2  0
 22 23  1  0
 23 24  2  0
 17 25  1  0
 25 26  1  0
 13 27  1  0
 27 28  2  0
  9 29  2  0
  2 30  1  0
 30 31  2  0
 31 32  1  0
 32 33  2  0
 33 34  1  0
 29  5  1  0
 34 30  1  0
 28 10  1  0
 26 14  1  0
 24 19  1  0
  4 35  1  0
  6 36  1  0
  7 37  1  0
  8 38  1  0
 11 39  1  0
 12 40  1  0
 15 41  1  0
 15 42  1  0
 16 43  1  0
 16 44  1  0
 18 45  1  0
 18 46  1  0
 20 47  1  0
 21 48  1  0
 22 49  1  0
 23 50  1  0
 24 51  1  0
 25 52  1  0
 25 53  1  0
 26 54  1  0
 26 55  1  0
 29 56  1  0
 31 57  1  0
 32 58  1  0
 33 59  1  0
M  END
>  <UniqueID>  (18) 
16

>  <SMILES>  (18) 
O=S(=O)(Nc1cccc(-c2ccc(N3CCN(Cc4ccccc4)CC3)nn2)c1)c1cccs1

>  <Energy>  (18) 
107.57802547313283

>  <Genealogy>  (18) 
O=S(=O)(Nc1cccc(-c2ccc(N3CCN(Cc4ccccc4)CC3)nn2)c1)c1cccs1 (3D coordinates assigned)
O=S(=O)(Nc1cccc(-c2ccc(N3CCN(Cc4ccccc4)CC3)nn2)c1)c1cccs1 (nonaromatic ring conformer: 107.57802547313283 kcal/mol)

>  <smiles>  (18) 
O=S(=O)(Nc1cccc(-c2ccc(N3CCN(Cc4ccccc4)CC3)nn2)c1)c1cccs1

>  <score_type>  (18) 
oracle

>  <origin>  (18) 
adg

>  <m_score__min__energy>  (18) 
-9.6699999999999999

>  <m_primary>  (18) 
energy

$$$$
18:0
     RDKit          3D

 43 45  0  0  0  0  0  0  0  0999 V2000
   59.5613   31.5986   43.7606 H   0  0  0  0  0  0  0  0  0  0  0  0
   58.6310   31.0750   44.0260 C   0  0  0  0  0  0  0  0  0  0  0  0
   58.6470   30.0970   44.9700 N   0  0  0  0  0  0  0  0  0  0  0  0
   57.5280   29.4130   45.3400 C   0  0  0  0  0  0  0  0  0  0  0  0
   57.6570   28.4990   46.2620 N   0  0  0  0  0  0  0  0  0  0  0  0
   58.8590   27.8990   46.7650 C   0  0  0  0  0  0  0  0  0  0  0  0
   59.5990   27.2150   46.0080 O   0  0  0  0  0  0  0  0  0  0  0  0
   59.2000   28.0380   48.2130 C   0  0  0  0  0  0  0  0  0  0  0  0
   58.4338   27.5336   48.8201 H   0  0  0  0  0  0  0  0  0  0  0  0
   60.1809   27.5783   48.4042 H   0  0  0  0  0  0  0  0  0  0  0  0
   59.2500   29.4950   48.5790 C   0  0  0  0  0  0  0  0  0  0  0  0
   59.3360   29.8820   49.9160 C   0  0  0  0  0  0  0  0  0  0  0  0
   59.4006   29.1255   50.7120 H   0  0  0  0  0  0  0  0  0  0  0  0
   59.3390   31.2330   50.2290 C   0  0  0  0  0  0  0  0  0  0  0  0
   59.4174   31.5583   51.2769 H   0  0  0  0  0  0  0  0  0  0  0  0
   59.2420   32.1760   49.2070 C   0  0  0  0  0  0  0  0  0  0  0  0
   59.2550   33.4000   49.5100 O   0  0  0  0  0  0  0  0  0  0  0  0
   59.1360   31.7630   47.8970 N   0  0  0  0  0  0  0  0  0  0  0  0
   59.0140   32.7280   46.7760 C   0  0  0  0  0  0  0  0  0  0  0  0
   59.1721   32.1619   45.8462 H   0  0  0  0  0  0  0  0  0  0  0  0
   60.1190   33.8170   46.8270 C   0  0  0  0  0  0  0  0  0  0  0  0
   60.3636   34.0195   47.8802 H   0  0  0  0  0  0  0  0  0  0  0  0
   60.9869   33.4323   46.2713 H   0  0  0  0  0  0  0  0  0  0  0  0
   59.6910   35.1400   46.1580 C   0  0  0  0  0  0  0  0  0  0  0  0
   59.1779   35.7667   46.9023 H   0  0  0  0  0  0  0  0  0  0  0  0
   60.5935   35.6409   45.7777 H   0  0  0  0  0  0  0  0  0  0  0  0
   58.7450   34.8950   44.9770 C   0  0  0  0  0  0  0  0  0  0  0  0
   58.4965   35.8615   44.5142 H   0  0  0  0  0  0  0  0  0  0  0  0
   59.2563   34.2326   44.2630 H   0  0  0  0  0  0  0  0  0  0  0  0
   57.4380   34.2030   45.4190 C   0  0  0  0  0  0  0  0  0  0  0  0
   56.6853   34.9788   45.6231 H   0  0  0  0  0  0  0  0  0  0  0  0
   57.1353   33.5320   44.6016 H   0  0  0  0  0  0  0  0  0  0  0  0
   57.5980   33.3330   46.6840 C   0  0  0  0  0  0  0  0  0  0  0  0
   57.4167   33.9562   47.5721 H   0  0  0  0  0  0  0  0  0  0  0  0
   56.8721   32.5082   46.6309 H   0  0  0  0  0  0  0  0  0  0  0  0
   59.1410   30.4510   47.6110 N   0  0  0  0  0  0  0  0  0  0  0  0
   59.0550   30.1310   46.6170 H   0  0  0  0  0  0  0  0  0  0  0  0
   56.3050   29.7020   44.6780 C   0  0  0  0  0  0  0  0  0  0  0  0
   55.1430   28.9720   44.9060 O   0  0  0  0  0  0  0  0  0  0  0  0
   56.2740   30.7180   43.7200 C   0  0  0  0  0  0  0  0  0  0  0  0
   55.3273   30.9700   43.2197 H   0  0  0  0  0  0  0  0  0  0  0  0
   57.4370   31.4140   43.3950 C   0  0  0  0  0  0  0  0  0  0  0  0
   57.4119   32.2217   42.6487 H   0  0  0  0  0  0  0  0  0  0  0  0
  1  2  1  0
  2  3  1  0
  3  4  1  0
  4  5  2  0
  5  6  1  0
  6  7  2  0
  6  8  1  0
  8  9  1  0
  8 10  1  0
  8 11  1  0
 11 12  1  0
 12 13  1  0
 12 14  2  0
 14 15  1  0
 14 16  1  0
 16 17  2  0
 16 18  1  0
 18 19  1  0
 19 20  1  0
 19 21  1  0
 21 22  1  0
 21 23  1  0
 21 24  1  0
 24 25  1  0
 24 26  1  0
 24 27  1  0
 27 28  1  0
 27 29  1  0
 27 30  1  0
 30 31  1  0
 30 32  1  0
 30 33  1  0
 33 34  1  0
 33 35  1  0
 18 36  1  0
 36 37  1  0
  4 38  1  0
 38 39  1  0
 38 40  2  0
 40 41  1  0
 40 42  1  0
 42 43  1  0
 42  2  2  0
 36 11  2  0
 33 19  1  0
M  CHG  3   3  -1  36   1  39  -1
M  END
>  <UniqueID>  (19) 
17

>  <SMILES>  (19) 
O=C(Cc1ccc(=O)n(C2CCCCC2)[nH+]1)/N=c1/[n-]cccc1[O-]

>  <Energy>  (19) 
61.23150886983223

>  <Genealogy>  (19) 
O=C(Cc1ccc(=O)n(C2CCCCC2)[nH+]1)N=c1[n-]cccc1[O-] (protonated)
O=C(Cc1ccc(=O)n(C2CCCCC2)[nH+]1)/N=c1/[n-]cccc1[O-] (cis-trans isomerization)
O=C(Cc1ccc(=O)n(C2CCCCC2)[nH+]1)/N=c1/[n-]cccc1[O-] (3D coordinates assigned)
O=C(Cc1ccc(=O)n(C2CCCCC2)[nH+]1)/N=c1/[n-]cccc1[O-] (nonaromatic ring conformer: 61.23150886983223 kcal/mol)

>  <smiles>  (19) 
O=C(Cc1ccc(=O)n(C2CCCCC2)n1)N=c1[nH]cccc1O

>  <score_type>  (19) 
oracle

>  <origin>  (19) 
adg

>  <m_score__min__energy>  (19) 
-11.67

>  <m_primary>  (19) 
energy

$$$$
19:0
     RDKit          3D

 33 34  0  0  0  0  0  0  0  0999 V2000
   55.1460   29.3110   44.8020 N   0  0  0  0  0  0  0  0  0  0  0  0
   56.6690   30.0010   44.3670 S   0  0  0  0  0  0  0  0  0  0  0  0
   56.5990   31.4970   44.4910 O   0  0  0  0  0  0  0  0  0  0  0  0
   56.9860   29.6490   42.9400 O   0  0  0  0  0  0  0  0  0  0  0  0
   57.9230   29.3750   45.4340 C   0  0  0  0  0  0  0  0  0  0  0  0
   58.1030   27.9930   45.5780 C   0  0  0  0  0  0  0  0  0  0  0  0
   59.0890   27.5020   46.4350 C   0  0  0  0  0  0  0  0  0  0  0  0
   59.8980   28.3840   47.1570 C   0  0  0  0  0  0  0  0  0  0  0  0
   59.7260   29.7740   47.0290 C   0  0  0  0  0  0  0  0  0  0  0  0
   60.5760   30.7110   47.8010 C   0  0  0  0  0  0  0  0  0  0  0  0
   61.7870   30.8750   47.4820 O   0  0  0  0  0  0  0  0  0  0  0  0
   60.0290   31.4350   48.9080 N   0  0  0  0  0  0  0  0  0  0  0  0
   58.8340   32.2660   48.8200 C   0  0  0  0  0  0  0  0  0  0  0  0
   58.8910   33.1420   47.5930 C   0  0  0  0  0  0  0  0  0  0  0  0
   57.7390   33.2850   46.7970 C   0  0  0  0  0  0  0  0  0  0  0  0
   57.7650   34.0760   45.6470 C   0  0  0  0  0  0  0  0  0  0  0  0
   58.9390   34.7320   45.2740 C   0  0  0  0  0  0  0  0  0  0  0  0
   60.0910   34.5960   46.0510 C   0  0  0  0  0  0  0  0  0  0  0  0
   60.0810   33.8050   47.2060 C   0  0  0  0  0  0  0  0  0  0  0  0
   61.2640   33.6990   47.9410 O   0  0  0  0  0  0  0  0  0  0  0  0
   58.7290   30.2610   46.1630 C   0  0  0  0  0  0  0  0  0  0  0  0
   55.3170   28.6850   45.6210 H   0  0  0  0  0  0  0  0  0  0  0  0
   57.4666   27.2944   45.0151 H   0  0  0  0  0  0  0  0  0  0  0  0
   59.2301   26.4164   46.5427 H   0  0  0  0  0  0  0  0  0  0  0  0
   60.6737   27.9887   47.8293 H   0  0  0  0  0  0  0  0  0  0  0  0
   57.9462   31.6191   48.7624 H   0  0  0  0  0  0  0  0  0  0  0  0
   58.7783   32.9061   49.7128 H   0  0  0  0  0  0  0  0  0  0  0  0
   56.8106   32.7692   47.0834 H   0  0  0  0  0  0  0  0  0  0  0  0
   56.8582   34.1825   45.0335 H   0  0  0  0  0  0  0  0  0  0  0  0
   58.9567   35.3559   44.3682 H   0  0  0  0  0  0  0  0  0  0  0  0
   61.0142   35.1147   45.7531 H   0  0  0  0  0  0  0  0  0  0  0  0
   61.5710   32.8390   48.3780 H   0  0  0  0  0  0  0  0  0  0  0  0
   58.5809   31.3458   46.0572 H   0  0  0  0  0  0  0  0  0  0  0  0
  1  2  1  0
  2  3  2  0
  2  4  2  0
  2  5  1  0
  5  6  2  0
  6  7  1  0
  7  8  2  0
  8  9  1  0
  9 10  1  0
 10 11  2  0
 10 12  1  0
 12 13  1  0
 13 14  1  0
 14 15  2  0
 15 16  1  0
 16 17  2  0
 17 18  1  0
 18 19  2  0
 19 20  1  0
  9 21  2  0
 21  5  1  0
 19 14  1  0
  1 22  1  0
  6 23  1  0
  7 24  1  0
  8 25  1  0
 13 26  1  0
 13 27  1  0
 15 28  1  0
 16 29  1  0
 17 30  1  0
 18 31  1  0
 20 32  1  0
 21 33  1  0
M  CHG  2   1  -1  12  -1
M  END
>  <UniqueID>  (20) 
18

>  <SMILES>  (20) 
[NH-]S(=O)(=O)c1cccc(C(=O)[N-]Cc2ccccc2O)c1

>  <Energy>  (20) 
32.988948943029285

>  <Genealogy>  (20) 
[NH-]S(=O)(=O)c1cccc(C(=O)[N-]Cc2ccccc2O)c1 (protonated)
[NH-]S(=O)(=O)c1cccc(C(=O)[N-]Cc2ccccc2O)c1 (3D coordinates assigned)
[NH-]S(=O)(=O)c1cccc(C(=O)[N-]Cc2ccccc2O)c1 (optimized conformer: 32.988948943029285 kcal/mol)

>  <smiles>  (20) 
NS(=O)(=O)c1cccc(C(=O)NCc2ccccc2O)c1

>  <score_type>  (20) 
oracle

>  <origin>  (20) 
adg

>  <m_score__min__energy>  (20) 
-11.630000000000001

>  <m_primary>  (20) 
energy

$$$$
20:0
     RDKit          3D

 40 43  0  0  0  0  0  0  0  0999 V2000
   59.1030   31.5190   54.9020 O   0  0  0  0  0  0  0  0  0  0  0  0
   59.1020   31.4720   53.6550 N   0  0  0  0  0  0  0  0  0  0  0  0
   58.4470   32.4580   52.9530 O   0  0  0  0  0  0  0  0  0  0  0  0
   59.5210   30.2740   52.9870 C   0  0  0  0  0  0  0  0  0  0  0  0
   60.3210   30.3830   51.8360 C   0  0  0  0  0  0  0  0  0  0  0  0
   60.7670   29.2430   51.1670 C   0  0  0  0  0  0  0  0  0  0  0  0
   60.4110   27.9780   51.6310 C   0  0  0  0  0  0  0  0  0  0  0  0
   59.6020   27.8500   52.7610 C   0  0  0  0  0  0  0  0  0  0  0  0
   59.1440   28.9870   53.4560 C   0  0  0  0  0  0  0  0  0  0  0  0
   58.2230   28.8160   54.5590 N   0  0  0  0  0  0  0  0  0  0  0  0
   56.8640   28.9070   54.0860 C   0  0  0  0  0  0  0  0  0  0  0  0
   55.9880   27.8050   54.2190 C   0  0  0  0  0  0  0  0  0  0  0  0
   54.6730   27.8760   53.7360 C   0  0  0  0  0  0  0  0  0  0  0  0
   54.2430   29.0570   53.1290 C   0  0  0  0  0  0  0  0  0  0  0  0
   55.0820   30.1330   52.9990 C   0  0  0  0  0  0  0  0  0  0  0  0
   56.3970   30.0860   53.4650 C   0  0  0  0  0  0  0  0  0  0  0  0
   54.4340   31.2660   52.2990 C   0  0  0  0  0  0  0  0  0  0  0  0
   52.9570   30.8170   52.1700 C   0  0  2  0  0  0  0  0  0  0  0  0
   52.4220   31.0680   50.8040 C   0  0  0  0  0  0  0  0  0  0  0  0
   51.4070   31.8720   50.9040 C   0  0  0  0  0  0  0  0  0  0  0  0
   50.6590   32.3260   49.8260 O   0  0  0  0  0  0  0  0  0  0  0  0
   51.1690   32.2300   52.3110 C   0  0  0  0  0  0  0  0  0  0  0  0
   52.1500   31.5570   53.0780 O   0  0  0  0  0  0  0  0  0  0  0  0
   52.9100   29.3120   52.5370 C   0  0  0  0  0  0  0  0  0  0  0  0
   60.5983   31.3784   51.4587 H   0  0  0  0  0  0  0  0  0  0  0  0
   61.3999   29.3426   50.2729 H   0  0  0  0  0  0  0  0  0  0  0  0
   60.7680   27.0796   51.1061 H   0  0  0  0  0  0  0  0  0  0  0  0
   59.3180   26.8476   53.1140 H   0  0  0  0  0  0  0  0  0  0  0  0
   58.4080   29.5190   55.3080 H   0  0  0  0  0  0  0  0  0  0  0  0
   58.3640   27.8810   55.0080 H   0  0  0  0  0  0  0  0  0  0  0  0
   56.3409   26.8838   54.7056 H   0  0  0  0  0  0  0  0  0  0  0  0
   53.9932   27.0168   53.8338 H   0  0  0  0  0  0  0  0  0  0  0  0
   57.0605   30.9558   53.3500 H   0  0  0  0  0  0  0  0  0  0  0  0
   54.5134   32.1902   52.8902 H   0  0  0  0  0  0  0  0  0  0  0  0
   54.8990   31.4909   51.3278 H   0  0  0  0  0  0  0  0  0  0  0  0
   52.8186   30.6448   49.8693 H   0  0  0  0  0  0  0  0  0  0  0  0
   51.2638   33.3176   52.4459 H   0  0  0  0  0  0  0  0  0  0  0  0
   50.1557   31.9394   52.6253 H   0  0  0  0  0  0  0  0  0  0  0  0
   52.1113   29.1101   53.2659 H   0  0  0  0  0  0  0  0  0  0  0  0
   52.6957   28.6673   51.6719 H   0  0  0  0  0  0  0  0  0  0  0  0
  1  2  2  0
  2  3  1  0
  2  4  1  0
  4  5  2  0
  5  6  1  0
  6  7  2  0
  7  8  1  0
  8  9  2  0
  9 10  1  0
 10 11  1  0
 11 12  2  0
 12 13  1  0
 13 14  2  0
 14 15  1  0
 15 16  2  0
 15 17  1  0
 17 18  1  0
 18 19  1  0
 19 20  2  0
 20 21  1  0
 20 22  1  0
 22 23  1  0
 18 24  1  0
  9  4  1  0
 16 11  1  0
 18 23  1  1
 24 14  1  0
  5 25  1  0
  6 26  1  0
  7 27  1  0
  8 28  1  0
 10 29  1  0
 10 30  1  0
 12 31  1  0
 13 32  1  0
 16 33  1  0
 17 34  1  0
 17 35  1  0
 19 36  1  0
 22 37  1  0
 22 38  1  0
 24 39  1  0
 24 40  1  0
M  CHG  4   2   1   3  -1  10   1  21  -1
M  END
>  <UniqueID>  (21) 
19

>  <SMILES>  (21) 
O=[N+]([O-])c1ccccc1[NH2+]c1ccc2c(c1)C[C@@]1(C=C([O-])CO1)C2

>  <Energy>  (21) 
66.9480779700503

>  <Genealogy>  (21) 
O=[N+]([O-])c1ccccc1[NH2+]c1ccc2c(c1)CC1(C=C([O-])CO1)C2 (protonated)
O=[N+]([O-])c1ccccc1[NH2+]c1ccc2c(c1)C[C@@]1(C=C([O-])CO1)C2 (chirality)
O=[N+]([O-])c1ccccc1[NH2+]c1ccc2c(c1)C[C@@]1(C=C([O-])CO1)C2 (3D coordinates assigned)
O=[N+]([O-])c1ccccc1[NH2+]c1ccc2c(c1)C[C@@]1(C=C([O-])CO1)C2 (nonaromatic ring conformer: 66.9480779700503 kcal/mol)

>  <smiles>  (21) 
O=[N+]([O-])c1ccccc1Nc1ccc2c(c1)CC1(C=C(O)CO1)C2

>  <score_type>  (21) 
oracle

>  <origin>  (21) 
adg

>  <m_score__min__energy>  (21) 
-8.5999999999999996

>  <m_primary>  (21) 
energy

$$$$
21:0
     RDKit          3D

 49 52  0  0  1  0  0  0  0  0999 V2000
   55.3720   29.4190   44.7790 N   0  0  0  0  0  0  0  0  0  0  0  0
   56.5700   29.5470   44.0310 C   0  0  0  0  0  0  0  0  0  0  0  0
   56.5150   29.9010   42.8390 O   0  0  0  0  0  0  0  0  0  0  0  0
   57.8630   29.2620   44.6700 C   0  0  0  0  0  0  0  0  0  0  0  0
   58.9640   30.0160   44.3420 C   0  0  0  0  0  0  0  0  0  0  0  0
   60.1640   29.7210   44.9610 C   0  0  0  0  0  0  0  0  0  0  0  0
   60.3050   28.7090   45.8880 C   0  0  0  0  0  0  0  0  0  0  0  0
   59.1810   27.9740   46.1920 C   0  0  0  0  0  0  0  0  0  0  0  0
   59.2140   26.9310   47.1160 C   0  0  0  0  0  0  0  0  0  0  0  0
   60.3260   26.6700   47.6760 N   0  0  0  0  0  0  0  0  0  0  0  0
   60.5740   26.6640   49.1020 C   0  0  0  0  0  0  0  0  0  0  0  0
   60.3640   28.0100   49.7280 C   0  0  0  0  0  0  0  0  0  0  0  0
   60.7970   28.3060   51.0040 C   0  0  0  0  0  0  0  0  0  0  0  0
   60.5830   29.5670   51.5450 C   0  0  0  0  0  0  0  0  0  0  0  0
   59.9350   30.5670   50.8370 C   0  0  0  0  0  0  0  0  0  0  0  0
   59.5020   30.2610   49.5520 C   0  0  0  0  0  0  0  0  0  0  0  0
   58.8250   31.2190   48.7330 N   0  0  0  0  0  0  0  0  0  0  0  0
   59.5810   31.7120   47.6140 C   0  0  0  0  0  0  0  0  0  0  0  0
   60.7560   31.2200   47.5120 O   0  0  0  0  0  0  0  0  0  0  0  0
   59.0750   32.6790   46.6760 C   0  0  0  0  0  0  0  0  0  0  0  0
   57.7640   32.5650   46.2200 C   0  0  0  0  0  0  0  0  0  0  0  0
   57.2840   33.5070   45.3120 C   0  0  0  0  0  0  0  0  0  0  0  0
   58.1090   34.5470   44.8710 C   0  0  0  0  0  0  0  0  0  0  0  0
   59.4210   34.6610   45.3270 C   0  0  0  0  0  0  0  0  0  0  0  0
   59.8970   33.7150   46.2370 C   0  0  0  0  0  0  0  0  0  0  0  0
   61.5510   33.8850   46.7940 Cl  0  0  0  0  0  0  0  0  0  0  0  0
   59.7160   29.0240   49.0320 C   0  0  0  0  0  0  0  0  0  0  0  0
   58.1460   26.2120   47.4240 N   0  0  0  0  0  0  0  0  0  0  0  0
   56.9780   26.4960   46.8250 C   0  0  0  0  0  0  0  0  0  0  0  0
   56.8950   27.4940   45.9270 N   0  0  0  0  0  0  0  0  0  0  0  0
   57.9600   28.2420   45.5920 C   0  0  0  0  0  0  0  0  0  0  0  0
   54.7680   28.5890   44.5390 H   0  0  0  0  0  0  0  0  0  0  0  0
   55.0660   30.0750   45.5230 H   0  0  0  0  0  0  0  0  0  0  0  0
   58.8923   30.8315   43.6073 H   0  0  0  0  0  0  0  0  0  0  0  0
   61.0485   30.3215   44.7023 H   0  0  0  0  0  0  0  0  0  0  0  0
   61.2740   28.4983   46.3640 H   0  0  0  0  0  0  0  0  0  0  0  0
   59.8902   25.9443   49.5757 H   0  0  0  0  0  0  0  0  0  0  0  0
   61.6266   26.3846   49.2565 H   0  0  0  0  0  0  0  0  0  0  0  0
   61.3153   27.5380   51.5969 H   0  0  0  0  0  0  0  0  0  0  0  0
   60.9379   29.7782   52.5645 H   0  0  0  0  0  0  0  0  0  0  0  0
   59.7700   31.5627   51.2744 H   0  0  0  0  0  0  0  0  0  0  0  0
   57.8740   31.5590   48.8930 H   0  0  0  0  0  0  0  0  0  0  0  0
   57.1188   31.7459   46.5703 H   0  0  0  0  0  0  0  0  0  0  0  0
   56.2514   33.4323   44.9403 H   0  0  0  0  0  0  0  0  0  0  0  0
   57.7171   35.2844   44.1550 H   0  0  0  0  0  0  0  0  0  0  0  0
   60.0680   35.4790   44.9774 H   0  0  0  0  0  0  0  0  0  0  0  0
   59.3598   28.8152   48.0125 H   0  0  0  0  0  0  0  0  0  0  0  0
   58.1860   25.4510   48.1040 H   0  0  0  0  0  0  0  0  0  0  0  0
   56.0817   25.9075   47.0708 H   0  0  0  0  0  0  0  0  0  0  0  0
  1  2  1  0
  2  3  2  0
  2  4  1  0
  4  5  2  0
  5  6  1  0
  6  7  2  0
  7  8  1  0
  8  9  1  0
  9 10  2  0
 10 11  1  0
 11 12  1  0
 12 13  2  0
 13 14  1  0
 14 15  2  0
 15 16  1  0
 16 17  1  0
 17 18  1  0
 18 19  2  0
 18 20  1  0
 20 21  2  0
 21 22  1  0
 22 23  2  0
 23 24  1  0
 24 25  2  0
 25 26  1  0
 16 27  2  0
  9 28  1  0
 28 29  1  0
 29 30  2  0
 30 31  1  0
 31  4  1  0
 31  8  2  0
 27 12  1  0
 25 20  1  0
  1 32  1  0
  1 33  1  0
  5 34  1  0
  6 35  1  0
  7 36  1  0
 11 37  1  0
 11 38  1  0
 13 39  1  0
 14 40  1  0
 15 41  1  0
 17 42  1  0
 21 43  1  0
 22 44  1  0
 23 45  1  0
 24 46  1  0
 27 47  1  0
 28 48  1  0
 29 49  1  0
M  END
>  <smiles>  (22) 
NC(=O)c1cccc2c(=NCc3cccc(NC(=O)c4ccccc4Cl)c3)[nH]cnc12

>  <score_type>  (22) 
oracle

>  <origin>  (22) 
adg

>  <m_score__min__energy>  (22) 
-9.4800000000000004

>  <m_primary>  (22) 
energy

$$$$
22:0
     RDKit          3D

 37 38  0  0  0  0  0  0  0  0999 V2000
   55.7490   20.4630   44.2370 N   0  0  0  0  0  0  0  0  0  0  0  0
   56.6310   21.6570   43.3530 S   0  0  0  0  0  0  0  0  0  0  0  0
   57.8120   21.0120   42.6850 O   0  0  0  0  0  0  0  0  0  0  0  0
   55.7460   22.2560   42.2960 O   0  0  0  0  0  0  0  0  0  0  0  0
   57.1800   22.9170   44.4540 C   0  0  0  0  0  0  0  0  0  0  0  0
   58.4430   22.8350   45.0450 C   0  0  0  0  0  0  0  0  0  0  0  0
   58.8760   23.8300   45.9220 C   0  0  0  0  0  0  0  0  0  0  0  0
   58.0510   24.9300   46.2310 C   0  0  0  0  0  0  0  0  0  0  0  0
   58.5350   25.9930   47.0790 N   0  0  0  0  0  0  0  0  0  0  0  0
   59.7690   26.7390   46.8330 C   0  0  0  0  0  0  0  0  0  0  0  0
   59.4930   27.9430   45.9850 C   0  0  0  0  0  0  0  0  0  0  0  0
   60.4020   28.3950   45.2380 O   0  0  0  0  0  0  0  0  0  0  0  0
   58.2260   28.6120   46.0750 N   0  0  0  0  0  0  0  0  0  0  0  0
   57.7470   29.5510   45.0970 C   0  0  0  0  0  0  0  0  0  0  0  0
   58.6140   30.4960   44.5160 C   0  0  0  0  0  0  0  0  0  0  0  0
   58.1430   31.3860   43.5450 C   0  0  0  0  0  0  0  0  0  0  0  0
   56.8080   31.3330   43.1360 C   0  0  0  0  0  0  0  0  0  0  0  0
   55.9440   30.3870   43.6920 C   0  0  0  0  0  0  0  0  0  0  0  0
   56.4090   29.4950   44.6650 C   0  0  0  0  0  0  0  0  0  0  0  0
   55.5330   28.5590   45.2060 O   0  0  0  0  0  0  0  0  0  0  0  0
   56.7560   24.9930   45.6580 C   0  0  0  0  0  0  0  0  0  0  0  0
   55.8330   26.0390   45.9940 N   0  0  0  0  0  0  0  0  0  0  0  0
   56.3400   23.9900   44.7680 C   0  0  0  0  0  0  0  0  0  0  0  0
   54.8650   20.9140   44.5610 H   0  0  0  0  0  0  0  0  0  0  0  0
   59.0993   21.9820   44.8179 H   0  0  0  0  0  0  0  0  0  0  0  0
   59.8742   23.7549   46.3781 H   0  0  0  0  0  0  0  0  0  0  0  0
   57.9540   26.3130   47.8850 H   0  0  0  0  0  0  0  0  0  0  0  0
   60.1942   27.0629   47.7944 H   0  0  0  0  0  0  0  0  0  0  0  0
   60.4802   26.0868   46.3049 H   0  0  0  0  0  0  0  0  0  0  0  0
   57.6400   28.4320   46.9220 H   0  0  0  0  0  0  0  0  0  0  0  0
   59.6682   30.5347   44.8275 H   0  0  0  0  0  0  0  0  0  0  0  0
   58.8241   32.1281   43.1031 H   0  0  0  0  0  0  0  0  0  0  0  0
   56.4374   32.0365   42.3759 H   0  0  0  0  0  0  0  0  0  0  0  0
   54.8949   30.3429   43.3642 H   0  0  0  0  0  0  0  0  0  0  0  0
   55.1300   25.9380   46.7560 H   0  0  0  0  0  0  0  0  0  0  0  0
   55.7670   26.8950   45.3990 H   0  0  0  0  0  0  0  0  0  0  0  0
   55.3407   24.0489   44.3120 H   0  0  0  0  0  0  0  0  0  0  0  0
  1  2  1  0
  2  3  2  0
  2  4  2  0
  2  5  1  0
  5  6  2  0
  6  7  1  0
  7  8  2  0
  8  9  1  0
  9 10  1  0
 10 11  1  0
 11 12  2  0
 11 13  1  0
 13 14  1  0
 14 15  2  0
 15 16  1  0
 16 17  2  0
 17 18  1  0
 18 19  2  0
 19 20  1  0
  8 21  1  0
 21 22  1  0
 21 23  2  0
 23  5  1  0
 19 14  1  0
  1 24  1  0
  6 25  1  0
  7 26  1  0
  9 27  1  0
 10 28  1  0
 10 29  1  0
 13 30  1  0
 15 31  1  0
 16 32  1  0
 17 33  1  0
 18 34  1  0
 22 35  1  0
 22 36  1  0
 23 37  1  0
M  CHG  2   1  -1  20  -1
M  END
>  <UniqueID>  (23) 
20

>  <SMILES>  (23) 
[NH-]S(=O)(=O)c1ccc(NCC(=O)Nc2ccccc2[O-])c(N)c1

>  <Energy>  (23) 
42.20944506065108

>  <Genealogy>  (23) 
[NH-]S(=O)(=O)c1ccc(NCC(=O)Nc2ccccc2[O-])c(N)c1 (protonated)
[NH-]S(=O)(=O)c1ccc(NCC(=O)Nc2ccccc2[O-])c(N)c1 (3D coordinates assigned)
[NH-]S(=O)(=O)c1ccc(NCC(=O)Nc2ccccc2[O-])c(N)c1 (optimized conformer: 42.20944506065108 kcal/mol)

>  <smiles>  (23) 
Nc1cc(S(N)(=O)=O)ccc1NCC(=O)Nc1ccccc1O

>  <score_type>  (23) 
oracle

>  <origin>  (23) 
adg

>  <m_score__min__energy>  (23) 
-12.07

>  <m_primary>  (23) 
energy

$$$$
23:0
     RDKit          3D

 38 41  0  0  0  0  0  0  0  0999 V2000
   59.6170   25.9470   46.2210 O   0  0  0  0  0  0  0  0  0  0  0  0
   58.3300   25.5250   45.9090 C   0  0  0  0  0  0  0  0  0  0  0  0
   58.1470   24.2600   45.3410 C   0  0  0  0  0  0  0  0  0  0  0  0
   56.8660   23.8170   45.0080 C   0  0  0  0  0  0  0  0  0  0  0  0
   55.7610   24.6390   45.2350 C   0  0  0  0  0  0  0  0  0  0  0  0
   55.9300   25.9060   45.8030 C   0  0  0  0  0  0  0  0  0  0  0  0
   54.8130   26.7100   46.0060 O   0  0  0  0  0  0  0  0  0  0  0  0
   57.2180   26.3580   46.1590 C   0  0  0  0  0  0  0  0  0  0  0  0
   57.4150   27.7360   46.7420 C   0  0  0  0  0  0  0  0  0  0  0  0
   57.4890   28.7610   45.6440 C   0  0  0  0  0  0  0  0  0  0  0  0
   56.7040   28.6790   44.5370 N   0  0  0  0  0  0  0  0  0  0  0  0
   57.0440   29.7750   43.8370 C   0  0  0  0  0  0  0  0  0  0  0  0
   56.5250   30.1920   42.6140 C   0  0  0  0  0  0  0  0  0  0  0  0
   57.0120   31.3930   42.0700 C   0  0  0  0  0  0  0  0  0  0  0  0
   57.9920   32.1430   42.7580 C   0  0  0  0  0  0  0  0  0  0  0  0
   58.4970   31.6960   43.9940 C   0  0  0  0  0  0  0  0  0  0  0  0
   57.9950   30.4920   44.5010 C   0  0  0  0  0  0  0  0  0  0  0  0
   58.2980   29.8600   45.6510 N   0  0  0  0  0  0  0  0  0  0  0  0
   59.2050   30.3160   46.7100 C   0  0  0  0  0  0  0  0  0  0  0  0
   59.1590   31.8110   46.8250 C   0  0  0  0  0  0  0  0  0  0  0  0
   57.9750   32.5340   47.0390 C   0  0  0  0  0  0  0  0  0  0  0  0
   58.1660   33.9070   47.0980 C   0  0  0  0  0  0  0  0  0  0  0  0
   59.8040   34.2160   46.8860 S   0  0  0  0  0  0  0  0  0  0  0  0
   60.2890   32.6160   46.7180 C   0  0  0  0  0  0  0  0  0  0  0  0
   59.0162   23.6117   45.1560 H   0  0  0  0  0  0  0  0  0  0  0  0
   56.7271   22.8192   44.5663 H   0  0  0  0  0  0  0  0  0  0  0  0
   54.7534   24.2891   44.9662 H   0  0  0  0  0  0  0  0  0  0  0  0
   56.5697   27.9741   47.4045 H   0  0  0  0  0  0  0  0  0  0  0  0
   58.3560   27.7527   47.3114 H   0  0  0  0  0  0  0  0  0  0  0  0
   55.7590   29.6009   42.0908 H   0  0  0  0  0  0  0  0  0  0  0  0
   56.6281   31.7510   41.1033 H   0  0  0  0  0  0  0  0  0  0  0  0
   58.3633   33.0834   42.3247 H   0  0  0  0  0  0  0  0  0  0  0  0
   59.2580   32.2719   44.5410 H   0  0  0  0  0  0  0  0  0  0  0  0
   58.8995   29.8686   47.6673 H   0  0  0  0  0  0  0  0  0  0  0  0
   60.2309   30.0071   46.4608 H   0  0  0  0  0  0  0  0  0  0  0  0
   56.9897   32.0575   47.1494 H   0  0  0  0  0  0  0  0  0  0  0  0
   57.3816   34.6619   47.2560 H   0  0  0  0  0  0  0  0  0  0  0  0
   61.3188   32.2664   46.5525 H   0  0  0  0  0  0  0  0  0  0  0  0
  1  2  1  0
  2  3  2  0
  3  4  1  0
  4  5  2  0
  5  6  1  0
  6  7  1  0
  6  8  2  0
  8  9  1  0
  9 10  1  0
 10 11  2  0
 11 12  1  0
 12 13  2  0
 13 14  1  0
 14 15  2  0
 15 16  1  0
 16 17  2  0
 17 18  1  0
 18 19  1  0
 19 20  1  0
 20 21  1  0
 21 22  2  0
 22 23  1  0
 23 24  1  0
  8  2  1  0
 18 10  1  0
 24 20  2  0
 17 12  1  0
  3 25  1  0
  4 26  1  0
  5 27  1  0
  9 28  1  0
  9 29  1  0
 13 30  1  0
 14 31  1  0
 15 32  1  0
 16 33  1  0
 19 34  1  0
 19 35  1  0
 21 36  1  0
 22 37  1  0
 24 38  1  0
M  CHG  2   1  -1   7  -1
M  END
>  <UniqueID>  (24) 
21

>  <SMILES>  (24) 
[O-]c1cccc([O-])c1Cc1nc2ccccc2n1Cc1ccsc1

>  <Energy>  (24) 
104.34874466447033

>  <Genealogy>  (24) 
[O-]c1cccc([O-])c1Cc1nc2ccccc2n1Cc1ccsc1 (protonated)
[O-]c1cccc([O-])c1Cc1nc2ccccc2n1Cc1ccsc1 (3D coordinates assigned)
[O-]c1cccc([O-])c1Cc1nc2ccccc2n1Cc1ccsc1 (optimized conformer: 104.34874466447033 kcal/mol)

>  <smiles>  (24) 
Oc1cccc(O)c1Cc1nc2ccccc2n1Cc1ccsc1

>  <score_type>  (24) 
oracle

>  <origin>  (24) 
adg

>  <m_score__min__energy>  (24) 
-12.65

>  <m_primary>  (24) 
energy

$$$$
24:0
     RDKit          3D

 57 60  0  0  0  0  0  0  0  0999 V2000
   65.4670   32.9770   49.8170 C   0  0  0  0  0  0  0  0  0  0  0  0
   64.1360   32.5230   50.3400 C   0  0  0  0  0  0  0  0  0  0  0  0
   64.0620   31.5320   51.3320 C   0  0  0  0  0  0  0  0  0  0  0  0
   62.8200   31.0840   51.7850 C   0  0  0  0  0  0  0  0  0  0  0  0
   61.6430   31.6130   51.2480 C   0  0  0  0  0  0  0  0  0  0  0  0
   61.6990   32.6030   50.2540 C   0  0  0  0  0  0  0  0  0  0  0  0
   60.4500   33.1470   49.6740 C   0  0  0  0  0  0  0  0  0  0  0  0
   59.7990   34.0190   50.3120 O   0  0  0  0  0  0  0  0  0  0  0  0
   59.9550   32.6880   48.4030 N   0  0  0  0  0  0  0  0  0  0  0  0
   58.5160   32.4250   48.2530 C   0  0  0  0  0  0  0  0  0  0  0  0
   58.1630   32.0390   46.8140 C   0  0  0  0  0  0  0  0  0  0  0  0
   59.1570   31.0900   46.2970 N   0  0  0  0  0  0  0  0  0  0  0  0
   58.7480   29.8180   45.7630 C   0  0  0  0  0  0  0  0  0  0  0  0
   57.4560   29.6490   45.2400 C   0  0  0  0  0  0  0  0  0  0  0  0
   57.0470   28.4060   44.7480 C   0  0  0  0  0  0  0  0  0  0  0  0
   57.9310   27.3130   44.7560 C   0  0  0  0  0  0  0  0  0  0  0  0
   57.5290   26.0130   44.2880 N   0  0  0  0  0  0  0  0  0  0  0  0
   57.7340   24.7880   45.0130 C   0  0  0  0  0  0  0  0  0  0  0  0
   58.2860   24.8010   46.1450 O   0  0  0  0  0  0  0  0  0  0  0  0
   57.2960   23.4970   44.4480 C   0  0  0  0  0  0  0  0  0  0  0  0
   58.0710   22.3720   44.2260 C   0  0  0  0  0  0  0  0  0  0  0  0
   59.5340   22.2250   44.4950 C   0  0  0  0  0  0  0  0  0  0  0  0
   57.2980   21.3840   43.7370 N   0  0  0  0  0  0  0  0  0  0  0  0
   56.0850   21.8530   43.6540 O   0  0  0  0  0  0  0  0  0  0  0  0
   56.0240   23.0970   44.0710 C   0  0  0  0  0  0  0  0  0  0  0  0
   54.7590   23.8900   44.1210 C   0  0  0  0  0  0  0  0  0  0  0  0
   59.2120   27.4760   45.3020 C   0  0  0  0  0  0  0  0  0  0  0  0
   59.6190   28.7180   45.7980 C   0  0  0  0  0  0  0  0  0  0  0  0
   60.5900   31.4070   46.3930 C   0  0  0  0  0  0  0  0  0  0  0  0
   60.8350   32.6730   47.2250 C   0  0  0  0  0  0  0  0  0  0  0  0
   62.9510   33.0400   49.7920 C   0  0  0  0  0  0  0  0  0  0  0  0
   66.1344   33.2047   50.6612 H   0  0  0  0  0  0  0  0  0  0  0  0
   65.9112   32.1795   49.2032 H   0  0  0  0  0  0  0  0  0  0  0  0
   65.3312   33.8797   49.2032 H   0  0  0  0  0  0  0  0  0  0  0  0
   64.9852   31.1076   51.7533 H   0  0  0  0  0  0  0  0  0  0  0  0
   62.7674   30.3122   52.5670 H   0  0  0  0  0  0  0  0  0  0  0  0
   60.6676   31.2518   51.6060 H   0  0  0  0  0  0  0  0  0  0  0  0
   58.2314   31.6012   48.9241 H   0  0  0  0  0  0  0  0  0  0  0  0
   57.9687   33.3446   48.5077 H   0  0  0  0  0  0  0  0  0  0  0  0
   57.1673   31.5720   46.7947 H   0  0  0  0  0  0  0  0  0  0  0  0
   58.1605   32.9417   46.1854 H   0  0  0  0  0  0  0  0  0  0  0  0
   56.7605   30.5009   45.2172 H   0  0  0  0  0  0  0  0  0  0  0  0
   56.0280   28.2826   44.3525 H   0  0  0  0  0  0  0  0  0  0  0  0
   57.0090   25.9740   43.3840 H   0  0  0  0  0  0  0  0  0  0  0  0
   59.7072   22.2076   45.5811 H   0  0  0  0  0  0  0  0  0  0  0  0
   59.8959   21.2860   44.0509 H   0  0  0  0  0  0  0  0  0  0  0  0
   60.0755   23.0733   44.0509 H   0  0  0  0  0  0  0  0  0  0  0  0
   54.4779   24.0662   45.1698 H   0  0  0  0  0  0  0  0  0  0  0  0
   54.9108   24.8548   43.6150 H   0  0  0  0  0  0  0  0  0  0  0  0
   53.9568   23.3329   43.6150 H   0  0  0  0  0  0  0  0  0  0  0  0
   59.9020   26.6202   45.3404 H   0  0  0  0  0  0  0  0  0  0  0  0
   60.6288   28.8340   46.2186 H   0  0  0  0  0  0  0  0  0  0  0  0
   61.1113   30.5622   46.8668 H   0  0  0  0  0  0  0  0  0  0  0  0
   60.9715   31.5845   45.3767 H   0  0  0  0  0  0  0  0  0  0  0  0
   61.8840   32.6926   47.5555 H   0  0  0  0  0  0  0  0  0  0  0  0
   60.6184   33.5557   46.6054 H   0  0  0  0  0  0  0  0  0  0  0  0
   63.0040   33.7945   48.9933 H   0  0  0  0  0  0  0  0  0  0  0  0
  1  2  1  0
  2  3  2  0
  3  4  1  0
  4  5  2  0
  5  6  1  0
  6  7  1  0
  7  8  2  0
  7  9  1  0
  9 10  1  0
 10 11  1  0
 11 12  1  0
 12 13  1  0
 13 14  2  0
 14 15  1  0
 15 16  2  0
 16 17  1  0
 17 18  1  0
 18 19  2  0
 18 20  1  0
 20 21  1  0
 21 22  1  0
 21 23  2  0
 23 24  1  0
 24 25  1  0
 25 26  1  0
 16 27  1  0
 27 28  2  0
 12 29  1  0
 29 30  1  0
  6 31  2  0
 31  2  1  0
 30  9  1  0
 28 13  1  0
 25 20  2  0
  1 32  1  0
  1 33  1  0
  1 34  1  0
  3 35  1  0
  4 36  1  0
  5 37  1  0
 10 38  1  0
 10 39  1  0
 11 40  1  0
 11 41  1  0
 14 42  1  0
 15 43  1  0
 17 44  1  0
 22 45  1  0
 22 46  1  0
 22 47  1  0
 26 48  1  0
 26 49  1  0
 26 50  1  0
 27 51  1  0
 28 52  1  0
 29 53  1  0
 29 54  1  0
 30 55  1  0
 30 56  1  0
 31 57  1  0
M  END
>  <UniqueID>  (25) 
22

>  <SMILES>  (25) 
Cc1cccc(C(=O)N2CCN(c3ccc(NC(=O)c4c(C)noc4C)cc3)CC2)c1

>  <Energy>  (25) 
104.29668289339108

>  <Genealogy>  (25) 
Cc1cccc(C(=O)N2CCN(c3ccc(NC(=O)c4c(C)noc4C)cc3)CC2)c1 (3D coordinates assigned)
Cc1cccc(C(=O)N2CCN(c3ccc(NC(=O)c4c(C)noc4C)cc3)CC2)c1 (nonaromatic ring conformer: 104.29668289339108 kcal/mol)

>  <smiles>  (25) 
Cc1cccc(C(=O)N2CCN(c3ccc(NC(=O)c4c(C)noc4C)cc3)CC2)c1

>  <score_type>  (25) 
oracle

>  <origin>  (25) 
adg

>  <m_score__min__energy>  (25) 
-8.6199999999999992

>  <m_primary>  (25) 
energy

$$$$
25:0
     RDKit          3D

 58 60  0  0  0  0  0  0  0  0999 V2000
   56.6600   21.1830   42.9500 C   0  0  0  0  0  0  0  0  0  0  0  0
   55.7130   22.2270   43.1480 O   0  0  0  0  0  0  0  0  0  0  0  0
   55.9250   23.3470   43.9720 C   0  0  0  0  0  0  0  0  0  0  0  0
   57.1530   24.0360   43.9970 C   0  0  0  0  0  0  0  0  0  0  0  0
   57.3260   25.1450   44.8300 C   0  0  0  0  0  0  0  0  0  0  0  0
   56.2890   25.5670   45.6680 C   0  0  0  0  0  0  0  0  0  0  0  0
   56.4880   26.7120   46.5030 N   0  0  0  0  0  0  0  0  0  0  0  0
   57.9040   27.7130   46.4380 S   0  0  0  0  0  0  0  0  0  0  0  0
   58.1450   28.2900   47.8040 O   0  0  0  0  0  0  0  0  0  0  0  0
   59.0890   26.8620   46.0800 O   0  0  0  0  0  0  0  0  0  0  0  0
   57.7530   29.0190   45.2460 C   0  0  0  0  0  0  0  0  0  0  0  0
   56.6550   28.9990   44.3690 C   0  0  0  0  0  0  0  0  0  0  0  0
   56.4770   30.0130   43.4270 C   0  0  0  0  0  0  0  0  0  0  0  0
   57.3930   31.0600   43.3480 C   0  0  0  0  0  0  0  0  0  0  0  0
   58.4930   31.0940   44.2070 C   0  0  0  0  0  0  0  0  0  0  0  0
   58.6900   30.0810   45.1610 C   0  0  0  0  0  0  0  0  0  0  0  0
   59.9050   30.1340   46.0090 C   0  0  0  0  0  0  0  0  0  0  0  0
   60.9890   29.6810   45.5480 O   0  0  0  0  0  0  0  0  0  0  0  0
   59.8730   30.7580   47.3220 N   0  0  0  0  0  0  0  0  0  0  0  0
   59.0450   32.0020   47.3210 C   0  0  0  0  0  0  0  0  0  0  0  0
   59.8520   33.2980   47.5820 C   0  0  2  0  0  0  0  0  0  0  0  0
   59.0180   34.5390   47.2410 C   0  0  0  0  0  0  0  0  0  0  0  0
   61.1580   33.2750   46.7810 C   0  0  0  0  0  0  0  0  0  0  0  0
   62.0450   32.0640   47.1690 C   0  0  1  0  0  0  0  0  0  0  0  0
   63.2200   32.5000   48.0590 C   0  0  0  0  0  0  0  0  0  0  0  0
   61.2410   30.9360   47.8670 C   0  0  0  0  0  0  0  0  0  0  0  0
   55.0530   24.9030   45.6240 C   0  0  0  0  0  0  0  0  0  0  0  0
   54.8670   23.7850   44.7850 C   0  0  0  0  0  0  0  0  0  0  0  0
   53.6450   23.0920   44.7280 O   0  0  0  0  0  0  0  0  0  0  0  0
   52.3640   23.7070   44.8290 C   0  0  0  0  0  0  0  0  0  0  0  0
   57.0009   20.8072   43.9260 H   0  0  0  0  0  0  0  0  0  0  0  0
   56.1903   20.3641   42.3855 H   0  0  0  0  0  0  0  0  0  0  0  0
   57.5207   21.5709   42.3855 H   0  0  0  0  0  0  0  0  0  0  0  0
   57.9816   23.6991   43.3567 H   0  0  0  0  0  0  0  0  0  0  0  0
   58.2824   25.6884   44.8264 H   0  0  0  0  0  0  0  0  0  0  0  0
   55.9282   28.1753   44.4257 H   0  0  0  0  0  0  0  0  0  0  0  0
   55.6132   29.9858   42.7465 H   0  0  0  0  0  0  0  0  0  0  0  0
   57.2492   31.8609   42.6078 H   0  0  0  0  0  0  0  0  0  0  0  0
   59.2132   31.9225   44.1364 H   0  0  0  0  0  0  0  0  0  0  0  0
   59.4070   30.0870   47.9780 H   0  0  0  0  0  0  0  0  0  0  0  0
   58.5562   32.0910   46.3396 H   0  0  0  0  0  0  0  0  0  0  0  0
   58.3247   31.9047   48.1467 H   0  0  0  0  0  0  0  0  0  0  0  0
   60.1009   33.3478   48.6523 H   0  0  0  0  0  0  0  0  0  0  0  0
   58.6900   35.0271   48.1706 H   0  0  0  0  0  0  0  0  0  0  0  0
   59.6284   35.2410   46.6539 H   0  0  0  0  0  0  0  0  0  0  0  0
   58.1375   34.2390   46.6539 H   0  0  0  0  0  0  0  0  0  0  0  0
   60.9183   33.2129   45.7092 H   0  0  0  0  0  0  0  0  0  0  0  0
   61.7158   34.1959   47.0064 H   0  0  0  0  0  0  0  0  0  0  0  0
   62.4394   31.6557   46.2268 H   0  0  0  0  0  0  0  0  0  0  0  0
   62.9373   32.3951   49.1169 H   0  0  0  0  0  0  0  0  0  0  0  0
   64.0942   31.8664   47.8485 H   0  0  0  0  0  0  0  0  0  0  0  0
   63.4693   33.5505   47.8485 H   0  0  0  0  0  0  0  0  0  0  0  0
   61.7899   29.9907   47.7446 H   0  0  0  0  0  0  0  0  0  0  0  0
   61.1328   31.2229   48.9234 H   0  0  0  0  0  0  0  0  0  0  0  0
   54.2213   25.2583   46.2502 H   0  0  0  0  0  0  0  0  0  0  0  0
   52.1006   23.8335   45.8895 H   0  0  0  0  0  0  0  0  0  0  0  0
   52.3899   24.6909   44.3378 H   0  0  0  0  0  0  0  0  0  0  0  0
   51.6124   23.0715   44.3378 H   0  0  0  0  0  0  0  0  0  0  0  0
  1  2  1  0
  2  3  1  0
  3  4  2  0
  4  5  1  0
  5  6  2  0
  6  7  1  0
  7  8  1  0
  8  9  2  0
  8 10  2  0
  8 11  1  0
 11 12  2  0
 12 13  1  0
 13 14  2  0
 14 15  1  0
 15 16  2  0
 16 17  1  0
 17 18  2  0
 17 19  1  0
 19 20  1  0
 20 21  1  0
 21 22  1  0
 21 23  1  0
 23 24  1  0
 24 25  1  0
 24 26  1  0
  6 27  1  0
 27 28  2  0
 28 29  1  0
 29 30  1  0
 28  3  1  0
 16 11  1  0
 26 19  1  0
  1 31  1  0
  1 32  1  0
  1 33  1  0
  4 34  1  0
  5 35  1  0
 12 36  1  0
 13 37  1  0
 14 38  1  0
 15 39  1  0
 19 40  1  0
 20 41  1  0
 20 42  1  0
 21 43  1  1
 22 44  1  0
 22 45  1  0
 22 46  1  0
 23 47  1  0
 23 48  1  0
 24 49  1  6
 25 50  1  0
 25 51  1  0
 25 52  1  0
 26 53  1  0
 26 54  1  0
 27 55  1  0
 30 56  1  0
 30 57  1  0
 30 58  1  0
M  CHG  2   7  -1  19   1
M  END
>  <UniqueID>  (26) 
23

>  <SMILES>  (26) 
COc1ccc([N-]S(=O)(=O)c2ccccc2C(=O)[NH+]2C[C@H](C)C[C@@H](C)C2)cc1OC

>  <Energy>  (26) 
79.10690149720129

>  <Genealogy>  (26) 
COc1ccc([N-]S(=O)(=O)c2ccccc2C(=O)[NH+]2CC(C)CC(C)C2)cc1OC (protonated)
COc1ccc([N-]S(=O)(=O)c2ccccc2C(=O)[NH+]2C[C@H](C)C[C@@H](C)C2)cc1OC (chirality)
COc1ccc([N-]S(=O)(=O)c2ccccc2C(=O)[NH+]2C[C@H](C)C[C@@H](C)C2)cc1OC (3D coordinates assigned)
COc1ccc([N-]S(=O)(=O)c2ccccc2C(=O)[NH+]2C[C@H](C)C[C@@H](C)C2)cc1OC (nonaromatic ring conformer: 79.10690149720129 kcal/mol)

>  <smiles>  (26) 
COc1ccc(NS(=O)(=O)c2ccccc2C(=O)N2CC(C)CC(C)C2)cc1OC

>  <score_type>  (26) 
oracle

>  <origin>  (26) 
adg

>  <m_score__min__energy>  (26) 
-9.25

>  <m_primary>  (26) 
energy

$$$$
26:0
     RDKit          3D

 37 38  0  0  0  0  0  0  0  0999 V2000
   55.9260   28.3580   45.1490 N   0  0  0  0  0  0  0  0  0  0  0  0
   56.6460   26.9200   45.7840 S   0  0  0  0  0  0  0  0  0  0  0  0
   57.0930   26.0620   44.6330 O   0  0  0  0  0  0  0  0  0  0  0  0
   55.6240   26.1780   46.5990 O   0  0  0  0  0  0  0  0  0  0  0  0
   58.0340   27.3200   46.8040 C   0  0  0  0  0  0  0  0  0  0  0  0
   58.6910   26.2930   47.5000 C   0  0  0  0  0  0  0  0  0  0  0  0
   59.7790   26.5800   48.3280 C   0  0  0  0  0  0  0  0  0  0  0  0
   60.2250   27.8930   48.4650 C   0  0  0  0  0  0  0  0  0  0  0  0
   59.5850   28.9260   47.7760 C   0  0  0  0  0  0  0  0  0  0  0  0
   58.4810   28.6550   46.9470 C   0  0  0  0  0  0  0  0  0  0  0  0
   57.8600   29.7220   46.2080 N   0  0  0  0  0  0  0  0  0  0  0  0
   58.5820   30.5890   45.3200 C   0  0  0  0  0  0  0  0  0  0  0  0
   59.8410   30.5450   45.2620 O   0  0  0  0  0  0  0  0  0  0  0  0
   57.8470   31.5970   44.4860 C   0  0  0  0  0  0  0  0  0  0  0  0
   56.6810   32.0380   45.1560 O   0  0  0  0  0  0  0  0  0  0  0  0
   56.8280   33.3700   45.6110 C   0  0  0  0  0  0  0  0  0  0  0  0
   57.9790   33.4760   46.5840 C   0  0  0  0  0  0  0  0  0  0  0  0
   57.9210   32.7300   47.7730 C   0  0  0  0  0  0  0  0  0  0  0  0
   58.9660   32.7830   48.6970 C   0  0  0  0  0  0  0  0  0  0  0  0
   60.0830   33.5820   48.4460 C   0  0  0  0  0  0  0  0  0  0  0  0
   61.3950   33.6460   49.6090 Cl  0  0  0  0  0  0  0  0  0  0  0  0
   60.1550   34.3300   47.2680 C   0  0  0  0  0  0  0  0  0  0  0  0
   59.1120   34.2840   46.3330 C   0  0  0  0  0  0  0  0  0  0  0  0
   59.2770   35.2540   44.8730 Cl  0  0  0  0  0  0  0  0  0  0  0  0
   55.1440   28.6180   45.7900 H   0  0  0  0  0  0  0  0  0  0  0  0
   58.3464   25.2539   47.3925 H   0  0  0  0  0  0  0  0  0  0  0  0
   60.2842   25.7686   48.8724 H   0  0  0  0  0  0  0  0  0  0  0  0
   61.0825   28.1164   49.1168 H   0  0  0  0  0  0  0  0  0  0  0  0
   59.9470   29.9593   47.8824 H   0  0  0  0  0  0  0  0  0  0  0  0
   56.8440   29.9070   46.3560 H   0  0  0  0  0  0  0  0  0  0  0  0
   58.5039   32.4588   44.2971 H   0  0  0  0  0  0  0  0  0  0  0  0
   57.5552   31.1275   43.5350 H   0  0  0  0  0  0  0  0  0  0  0  0
   57.0209   34.0268   44.7500 H   0  0  0  0  0  0  0  0  0  0  0  0
   55.9026   33.6742   46.1221 H   0  0  0  0  0  0  0  0  0  0  0  0
   57.0441   32.0983   47.9778 H   0  0  0  0  0  0  0  0  0  0  0  0
   58.9093   32.1942   49.6244 H   0  0  0  0  0  0  0  0  0  0  0  0
   61.0361   34.9591   47.0732 H   0  0  0  0  0  0  0  0  0  0  0  0
  1  2  1  0
  2  3  2  0
  2  4  2  0
  2  5  1  0
  5  6  2  0
  6  7  1  0
  7  8  2  0
  8  9  1  0
  9 10  2  0
 10 11  1  0
 11 12  1  0
 12 13  2  0
 12 14  1  0
 14 15  1  0
 15 16  1  0
 16 17  1  0
 17 18  2  0
 18 19  1  0
 19 20  2  0
 20 21  1  0
 20 22  1  0
 22 23  2  0
 23 24  1  0
 10  5  1  0
 23 17  1  0
  1 25  1  0
  6 26  1  0
  7 27  1  0
  8 28  1  0
  9 29  1  0
 11 30  1  0
 14 31  1  0
 14 32  1  0
 16 33  1  0
 16 34  1  0
 18 35  1  0
 19 36  1  0
 22 37  1  0
M  CHG  1   1  -1
M  END
>  <UniqueID>  (27) 
24

>  <SMILES>  (27) 
[NH-]S(=O)(=O)c1ccccc1NC(=O)COCc1ccc(Cl)cc1Cl

>  <Energy>  (27) 
44.4413641611348

>  <Genealogy>  (27) 
[NH-]S(=O)(=O)c1ccccc1NC(=O)COCc1ccc(Cl)cc1Cl (protonated)
[NH-]S(=O)(=O)c1ccccc1NC(=O)COCc1ccc(Cl)cc1Cl (3D coordinates assigned)
[NH-]S(=O)(=O)c1ccccc1NC(=O)COCc1ccc(Cl)cc1Cl (optimized conformer: 44.4413641611348 kcal/mol)

>  <smiles>  (27) 
NS(=O)(=O)c1ccccc1NC(=O)COCc1ccc(Cl)cc1Cl

>  <score_type>  (27) 
oracle

>  <origin>  (27) 
adg

>  <m_score__min__energy>  (27) 
-10.77

>  <m_primary>  (27) 
energy

$$$$
27:0
     RDKit          3D

 47 50  0  0  0  0  0  0  0  0999 V2000
   55.5010   28.9810   44.9010 N   0  0  0  0  0  0  0  0  0  0  0  0
   56.7330   29.6690   45.1140 C   0  0  0  0  0  0  0  0  0  0  0  0
   57.3880   29.4410   46.1660 O   0  0  0  0  0  0  0  0  0  0  0  0
   57.2130   30.6640   44.1250 C   0  0  0  0  0  0  0  0  0  0  0  0
   56.7420   30.5810   42.8000 C   0  0  0  0  0  0  0  0  0  0  0  0
   57.0930   31.5490   41.8570 C   0  0  0  0  0  0  0  0  0  0  0  0
   57.9130   32.6150   42.2190 C   0  0  0  0  0  0  0  0  0  0  0  0
   58.4030   32.7070   43.5220 C   0  0  0  0  0  0  0  0  0  0  0  0
   58.0850   31.7300   44.4770 C   0  0  0  0  0  0  0  0  0  0  0  0
   58.6770   31.8370   45.7830 N   0  0  0  0  0  0  0  0  0  0  0  0
   58.7010   33.0710   46.5160 C   0  0  0  0  0  0  0  0  0  0  0  0
   58.1430   34.0950   46.0340 O   0  0  0  0  0  0  0  0  0  0  0  0
   59.3040   33.1530   47.8690 C   0  0  0  0  0  0  0  0  0  0  0  0
   58.4960   32.8600   48.9810 C   0  0  0  0  0  0  0  0  0  0  0  0
   59.0000   32.9790   50.2750 C   0  0  0  0  0  0  0  0  0  0  0  0
   60.3100   33.4140   50.4590 C   0  0  0  0  0  0  0  0  0  0  0  0
   61.0820   33.7110   49.3840 N   0  0  0  0  0  0  0  0  0  0  0  0
   60.6340   33.5820   48.1050 C   0  0  0  0  0  0  0  0  0  0  0  0
   61.7500   34.0600   46.7770 S   0  0  0  0  0  0  0  0  0  0  0  0
   62.8750   32.6340   46.9830 C   0  0  0  0  0  0  0  0  0  0  0  0
   62.1580   31.4910   47.6340 C   0  0  0  0  0  0  0  0  0  0  0  0
   61.2400   30.7230   46.9180 C   0  0  0  0  0  0  0  0  0  0  0  0
   60.6210   29.6440   47.5520 C   0  0  0  0  0  0  0  0  0  0  0  0
   59.7890   28.9530   46.9000 O   0  0  0  0  0  0  0  0  0  0  0  0
   60.9190   29.3430   48.8580 N   0  0  0  0  0  0  0  0  0  0  0  0
   60.3200   28.2830   49.4910 C   0  0  0  0  0  0  0  0  0  0  0  0
   60.6300   27.9760   50.8180 C   0  0  0  0  0  0  0  0  0  0  0  0
   61.5550   28.7550   51.5070 C   0  0  0  0  0  0  0  0  0  0  0  0
   62.1620   29.8320   50.8670 C   0  0  0  0  0  0  0  0  0  0  0  0
   61.8350   30.1200   49.5380 C   0  0  0  0  0  0  0  0  0  0  0  0
   62.4350   31.1710   48.9230 N   0  0  0  0  0  0  0  0  0  0  0  0
   54.5910   29.4110   45.1780 H   0  0  0  0  0  0  0  0  0  0  0  0
   56.0909   29.7448   42.5052 H   0  0  0  0  0  0  0  0  0  0  0  0
   56.7207   31.4695   40.8250 H   0  0  0  0  0  0  0  0  0  0  0  0
   58.1743   33.3844   41.4775 H   0  0  0  0  0  0  0  0  0  0  0  0
   59.0454   33.5545   43.8034 H   0  0  0  0  0  0  0  0  0  0  0  0
   58.8060   30.9520   46.3200 H   0  0  0  0  0  0  0  0  0  0  0  0
   57.4566   32.5339   48.8287 H   0  0  0  0  0  0  0  0  0  0  0  0
   58.3695   32.7319   51.1419 H   0  0  0  0  0  0  0  0  0  0  0  0
   60.7184   33.5167   51.4752 H   0  0  0  0  0  0  0  0  0  0  0  0
   63.2417   32.3164   45.9957 H   0  0  0  0  0  0  0  0  0  0  0  0
   63.7186   32.9352   47.6214 H   0  0  0  0  0  0  0  0  0  0  0  0
   61.0073   30.9636   45.8702 H   0  0  0  0  0  0  0  0  0  0  0  0
   59.5875   27.6682   48.9474 H   0  0  0  0  0  0  0  0  0  0  0  0
   60.1456   27.1230   51.3158 H   0  0  0  0  0  0  0  0  0  0  0  0
   61.8052   28.5208   52.5522 H   0  0  0  0  0  0  0  0  0  0  0  0
   62.8946   30.4529   51.4035 H   0  0  0  0  0  0  0  0  0  0  0  0
  1  2  1  0
  2  3  2  0
  2  4  1  0
  4  5  2  0
  5  6  1  0
  6  7  2  0
  7  8  1  0
  8  9  2  0
  9 10  1  0
 10 11  1  0
 11 12  2  0
 11 13  1  0
 13 14  2  0
 14 15  1  0
 15 16  2  0
 16 17  1  0
 17 18  2  0
 18 19  1  0
 19 20  1  0
 20 21  1  0
 21 22  2  0
 22 23  1  0
 23 24  2  0
 23 25  1  0
 25 26  1  0
 26 27  2  0
 27 28  1  0
 28 29  2  0
 29 30  1  0
 30 31  2  0
  9  4  1  0
 18 13  1  0
 31 21  1  0
 30 25  1  0
  1 32  1  0
  5 33  1  0
  6 34  1  0
  7 35  1  0
  8 36  1  0
 10 37  1  0
 14 38  1  0
 15 39  1  0
 16 40  1  0
 20 41  1  0
 20 42  1  0
 22 43  1  0
 26 44  1  0
 27 45  1  0
 28 46  1  0
 29 47  1  0
M  CHG  1   1  -1
M  END
>  <UniqueID>  (28) 
25

>  <SMILES>  (28) 
[NH-]C(=O)c1ccccc1NC(=O)c1cccnc1SCc1cc(=O)n2ccccc2n1

>  <Energy>  (28) 
67.90420313984762

>  <Genealogy>  (28) 
[NH-]C(=O)c1ccccc1NC(=O)c1cccnc1SCc1cc(=O)n2ccccc2n1 (protonated)
[NH-]C(=O)c1ccccc1NC(=O)c1cccnc1SCc1cc(=O)n2ccccc2n1 (3D coordinates assigned)
[NH-]C(=O)c1ccccc1NC(=O)c1cccnc1SCc1cc(=O)n2ccccc2n1 (optimized conformer: 67.90420313984762 kcal/mol)

>  <smiles>  (28) 
NC(=O)c1ccccc1NC(=O)c1cccnc1SCc1cc(=O)n2ccccc2n1

>  <score_type>  (28) 
oracle

>  <origin>  (28) 
adg

>  <m_score__min__energy>  (28) 
-12.17

>  <m_primary>  (28) 
energy

$$$$
28:0
     RDKit          3D

 59 62  0  0  0  0  0  0  0  0999 V2000
   63.6750   33.1870   47.0300 C   0  0  0  0  0  0  0  0  0  0  0  0
   62.6800   33.2610   48.1600 C   0  0  0  0  0  0  0  0  0  0  0  0
   62.9150   34.1630   49.2130 C   0  0  0  0  0  0  0  0  0  0  0  0
   62.0340   34.2430   50.2920 C   0  0  0  0  0  0  0  0  0  0  0  0
   60.9030   33.4300   50.3320 C   0  0  0  0  0  0  0  0  0  0  0  0
   60.6470   32.5370   49.2910 C   0  0  0  0  0  0  0  0  0  0  0  0
   61.5210   32.4410   48.1940 C   0  0  0  0  0  0  0  0  0  0  0  0
   61.2130   31.4750   47.1140 C   0  0  0  0  0  0  0  0  0  0  0  0
   62.0830   30.6340   46.7570 O   0  0  0  0  0  0  0  0  0  0  0  0
   59.9230   31.4790   46.4820 N   0  0  0  0  0  0  0  0  0  0  0  0
   59.4810   30.3680   45.6320 C   0  0  2  0  0  0  0  0  0  0  0  0
   58.0240   30.5260   45.2550 C   0  0  0  0  0  0  0  0  0  0  0  0
   57.3880   31.5290   45.6710 O   0  0  0  0  0  0  0  0  0  0  0  0
   57.3670   29.6070   44.3730 N   0  0  0  0  0  0  0  0  0  0  0  0
   57.3660   28.1850   44.5440 C   0  0  0  0  0  0  0  0  0  0  0  0
   57.0180   27.6440   45.7880 C   0  0  0  0  0  0  0  0  0  0  0  0
   57.0250   26.2600   45.9790 C   0  0  0  0  0  0  0  0  0  0  0  0
   57.3950   25.4030   44.9330 C   0  0  0  0  0  0  0  0  0  0  0  0
   57.4430   23.9440   45.1460 C   0  0  0  0  0  0  0  0  0  0  0  0
   58.7010   23.3290   45.2650 C   0  0  0  0  0  0  0  0  0  0  0  0
   58.7980   21.9550   45.4960 C   0  0  0  0  0  0  0  0  0  0  0  0
   57.6420   21.1830   45.6110 C   0  0  0  0  0  0  0  0  0  0  0  0
   56.3860   21.7780   45.4830 C   0  0  0  0  0  0  0  0  0  0  0  0
   56.2700   23.1570   45.2390 C   0  0  0  0  0  0  0  0  0  0  0  0
   54.6570   23.8550   45.0260 S   0  0  0  0  0  0  0  0  0  0  0  0
   54.5560   25.3570   45.8740 N   0  0  0  0  0  0  0  0  0  0  0  0
   53.6160   22.9140   45.5660 O   0  0  0  0  0  0  0  0  0  0  0  0
   54.3860   24.0750   43.5630 O   0  0  0  0  0  0  0  0  0  0  0  0
   57.7750   25.9460   43.6970 C   0  0  0  0  0  0  0  0  0  0  0  0
   57.7620   27.3290   43.5040 C   0  0  0  0  0  0  0  0  0  0  0  0
   59.7580   29.0260   46.2850 C   0  0  0  0  0  0  0  0  0  0  0  0
   59.3920   28.8240   47.6280 C   0  0  0  0  0  0  0  0  0  0  0  0
   59.6560   27.6040   48.2580 C   0  0  0  0  0  0  0  0  0  0  0  0
   60.2970   26.5780   47.5600 C   0  0  0  0  0  0  0  0  0  0  0  0
   60.6790   26.7710   46.2300 C   0  0  0  0  0  0  0  0  0  0  0  0
   60.4170   27.9880   45.5940 C   0  0  0  0  0  0  0  0  0  0  0  0
   64.6923   33.1113   47.4416 H   0  0  0  0  0  0  0  0  0  0  0  0
   63.4628   32.3022   46.4119 H   0  0  0  0  0  0  0  0  0  0  0  0
   63.5960   34.0935   46.4119 H   0  0  0  0  0  0  0  0  0  0  0  0
   63.8026   34.8122   49.1857 H   0  0  0  0  0  0  0  0  0  0  0  0
   62.2325   34.9487   51.1121 H   0  0  0  0  0  0  0  0  0  0  0  0
   60.2114   33.4923   51.1851 H   0  0  0  0  0  0  0  0  0  0  0  0
   59.7507   31.9005   49.3291 H   0  0  0  0  0  0  0  0  0  0  0  0
   59.2260   32.1940   46.7810 H   0  0  0  0  0  0  0  0  0  0  0  0
   60.0671   30.3954   44.7016 H   0  0  0  0  0  0  0  0  0  0  0  0
   56.7384   28.3106   46.6171 H   0  0  0  0  0  0  0  0  0  0  0  0
   56.7388   25.8407   46.9549 H   0  0  0  0  0  0  0  0  0  0  0  0
   59.6154   23.9338   45.1756 H   0  0  0  0  0  0  0  0  0  0  0  0
   59.7866   21.4814   45.5873 H   0  0  0  0  0  0  0  0  0  0  0  0
   57.7204   20.1027   45.8030 H   0  0  0  0  0  0  0  0  0  0  0  0
   55.4791   21.1622   45.5739 H   0  0  0  0  0  0  0  0  0  0  0  0
   54.0780   26.0340   45.2380 H   0  0  0  0  0  0  0  0  0  0  0  0
   58.0841   25.2807   42.8774 H   0  0  0  0  0  0  0  0  0  0  0  0
   58.0633   27.7494   42.5332 H   0  0  0  0  0  0  0  0  0  0  0  0
   58.8949   29.6310   48.1862 H   0  0  0  0  0  0  0  0  0  0  0  0
   59.3581   27.4519   49.3059 H   0  0  0  0  0  0  0  0  0  0  0  0
   60.5010   25.6183   48.0573 H   0  0  0  0  0  0  0  0  0  0  0  0
   61.1870   25.9636   45.6822 H   0  0  0  0  0  0  0  0  0  0  0  0
   60.7265   28.1369   44.5490 H   0  0  0  0  0  0  0  0  0  0  0  0
  1  2  1  0
  2  3  2  0
  3  4  1  0
  4  5  2  0
  5  6  1  0
  6  7  2  0
  7  8  1  0
  8  9  2  0
  8 10  1  0
 10 11  1  0
 11 12  1  0
 12 13  2  0
 12 14  1  0
 14 15  1  0
 15 16  2  0
 16 17  1  0
 17 18  2  0
 18 19  1  0
 19 20  2  0
 20 21  1  0
 21 22  2  0
 22 23  1  0
 23 24  2  0
 24 25  1  0
 25 26  1  0
 25 27  2  0
 25 28  2  0
 18 29  1  0
 29 30  2  0
 11 31  1  0
 31 32  2  0
 32 33  1  0
 33 34  2  0
 34 35  1  0
 35 36  2  0
  7  2  1  0
 30 15  1  0
 36 31  1  0
 24 19  1  0
  1 37  1  0
  1 38  1  0
  1 39  1  0
  3 40  1  0
  4 41  1  0
  5 42  1  0
  6 43  1  0
 10 44  1  0
 11 45  1  6
 16 46  1  0
 17 47  1  0
 20 48  1  0
 21 49  1  0
 22 50  1  0
 23 51  1  0
 26 52  1  0
 29 53  1  0
 30 54  1  0
 32 55  1  0
 33 56  1  0
 34 57  1  0
 35 58  1  0
 36 59  1  0
M  CHG  2  14  -1  26  -1
M  END
>  <UniqueID>  (29) 
26

>  <SMILES>  (29) 
Cc1ccccc1C(=O)N[C@H](C(=O)[N-]c1ccc(-c2ccccc2S([NH-])(=O)=O)cc1)c1ccccc1

>  <Energy>  (29) 
82.45462294233201

>  <Genealogy>  (29) 
Cc1ccccc1C(=O)NC(C(=O)[N-]c1ccc(-c2ccccc2S([NH-])(=O)=O)cc1)c1ccccc1 (protonated)
Cc1ccccc1C(=O)N[C@H](C(=O)[N-]c1ccc(-c2ccccc2S([NH-])(=O)=O)cc1)c1ccccc1 (chirality)
Cc1ccccc1C(=O)N[C@H](C(=O)[N-]c1ccc(-c2ccccc2S([NH-])(=O)=O)cc1)c1ccccc1 (3D coordinates assigned)
Cc1ccccc1C(=O)N[C@H](C(=O)[N-]c1ccc(-c2ccccc2S([NH-])(=O)=O)cc1)c1ccccc1 (optimized conformer: 82.45462294233201 kcal/mol)

>  <smiles>  (29) 
Cc1ccccc1C(=O)NC(C(=O)Nc1ccc(-c2ccccc2S(N)(=O)=O)cc1)c1ccccc1

>  <score_type>  (29) 
oracle

>  <origin>  (29) 
adg

>  <m_score__min__energy>  (29) 
-13.41

>  <m_primary>  (29) 
energy

$$$$
29:0
     RDKit          3D

 43 45  0  0  0  0  0  0  0  0999 V2000
   62.3660   31.2330   49.8890 C   0  0  0  0  0  0  0  0  0  0  0  0
   62.2170   32.1750   48.7190 C   0  0  0  0  0  0  0  0  0  0  0  0
   63.3130   32.3220   47.8540 C   0  0  0  0  0  0  0  0  0  0  0  0
   63.2370   33.1570   46.7460 C   0  0  0  0  0  0  0  0  0  0  0  0
   62.0660   33.8520   46.4730 C   0  0  0  0  0  0  0  0  0  0  0  0
   60.9430   33.7310   47.3080 C   0  0  0  0  0  0  0  0  0  0  0  0
   59.7140   34.5220   46.9290 C   0  0  0  0  0  0  0  0  0  0  0  0
   61.0190   32.9150   48.4820 C   0  0  0  0  0  0  0  0  0  0  0  0
   59.8440   32.7950   49.4590 C   0  0  2  0  0  0  0  0  0  0  0  0
   60.3040   33.4740   51.0970 S   0  0  0  0  0  0  0  0  0  0  0  0
   59.5300   32.0900   51.9960 C   0  0  0  0  0  0  0  0  0  0  0  0
   59.1550   31.0730   50.9890 C   0  0  0  0  0  0  0  0  0  0  0  0
   58.6080   29.9880   51.3250 O   0  0  0  0  0  0  0  0  0  0  0  0
   59.3890   31.4180   49.6270 N   0  0  0  0  0  0  0  0  0  0  0  0
   58.9670   30.6030   48.5170 C   0  0  0  0  0  0  0  0  0  0  0  0
   58.8900   29.2530   48.5570 N   0  0  0  0  0  0  0  0  0  0  0  0
   58.5160   28.7160   47.3620 C   0  0  0  0  0  0  0  0  0  0  0  0
   58.3660   27.2380   47.1680 C   0  0  0  0  0  0  0  0  0  0  0  0
   58.3100   29.6570   46.3480 C   0  0  0  0  0  0  0  0  0  0  0  0
   57.8510   29.3910   44.9450 C   0  0  0  0  0  0  0  0  0  0  0  0
   56.4660   29.9210   44.7460 C   0  0  0  0  0  0  0  0  0  0  0  0
   55.3430   29.0500   44.8640 N   0  0  0  0  0  0  0  0  0  0  0  0
   56.2880   31.1440   44.4990 O   0  0  0  0  0  0  0  0  0  0  0  0
   58.5910   31.1900   46.9840 S   0  0  0  0  0  0  0  0  0  0  0  0
   62.2766   31.7982   50.8285 H   0  0  0  0  0  0  0  0  0  0  0  0
   61.5779   30.4669   49.8456 H   0  0  0  0  0  0  0  0  0  0  0  0
   63.3521   30.7475   49.8456 H   0  0  0  0  0  0  0  0  0  0  0  0
   64.2427   31.7697   48.0558 H   0  0  0  0  0  0  0  0  0  0  0  0
   64.1075   33.2680   46.0827 H   0  0  0  0  0  0  0  0  0  0  0  0
   62.0173   34.5066   45.5903 H   0  0  0  0  0  0  0  0  0  0  0  0
   59.1966   34.8550   47.8409 H   0  0  0  0  0  0  0  0  0  0  0  0
   60.0111   35.3989   46.3350 H   0  0  0  0  0  0  0  0  0  0  0  0
   59.0389   33.8884   46.3350 H   0  0  0  0  0  0  0  0  0  0  0  0
   59.0166   33.3742   49.0232 H   0  0  0  0  0  0  0  0  0  0  0  0
   60.2427   31.6626   52.7167 H   0  0  0  0  0  0  0  0  0  0  0  0
   58.6466   32.4316   52.5554 H   0  0  0  0  0  0  0  0  0  0  0  0
   59.1270   28.6770   49.3940 H   0  0  0  0  0  0  0  0  0  0  0  0
   58.3157   26.7427   48.1489 H   0  0  0  0  0  0  0  0  0  0  0  0
   57.4425   27.0338   46.6063 H   0  0  0  0  0  0  0  0  0  0  0  0
   59.2296   26.8524   46.6063 H   0  0  0  0  0  0  0  0  0  0  0  0
   58.5344   29.8856   44.2391 H   0  0  0  0  0  0  0  0  0  0  0  0
   57.8492   28.3054   44.7673 H   0  0  0  0  0  0  0  0  0  0  0  0
   54.4620   29.3700   45.3230 H   0  0  0  0  0  0  0  0  0  0  0  0
  1  2  1  0
  2  3  2  0
  3  4  1  0
  4  5  2  0
  5  6  1  0
  6  7  1  0
  6  8  2  0
  8  9  1  0
  9 10  1  0
 10 11  1  0
 11 12  1  0
 12 13  2  0
 12 14  1  0
 14 15  1  0
 15 16  2  0
 16 17  1  0
 17 18  1  0
 17 19  2  0
 19 20  1  0
 20 21  1  0
 21 22  1  0
 21 23  2  0
 19 24  1  0
  8  2  1  0
 14  9  1  0
 24 15  1  0
  1 25  1  0
  1 26  1  0
  1 27  1  0
  3 28  1  0
  4 29  1  0
  5 30  1  0
  7 31  1  0
  7 32  1  0
  7 33  1  0
  9 34  1  6
 11 35  1  0
 11 36  1  0
 16 37  1  0
 18 38  1  0
 18 39  1  0
 18 40  1  0
 20 41  1  0
 20 42  1  0
 22 43  1  0
M  CHG  2  16   1  22  -1
M  END
>  <UniqueID>  (30) 
27

>  <SMILES>  (30) 
Cc1cccc(C)c1[C@@H]1SCC(=O)N1c1[nH+]c(C)c(CC([NH-])=O)s1

>  <Energy>  (30) 
74.83824099095372

>  <Genealogy>  (30) 
Cc1cccc(C)c1C1SCC(=O)N1c1[nH+]c(C)c(CC([NH-])=O)s1 (protonated)
Cc1cccc(C)c1[C@@H]1SCC(=O)N1c1[nH+]c(C)c(CC([NH-])=O)s1 (chirality)
Cc1cccc(C)c1[C@@H]1SCC(=O)N1c1[nH+]c(C)c(CC([NH-])=O)s1 (3D coordinates assigned)
Cc1cccc(C)c1[C@@H]1SCC(=O)N1c1[nH+]c(C)c(CC([NH-])=O)s1 (nonaromatic ring conformer: 74.83824099095372 kcal/mol)

>  <smiles>  (30) 
Cc1cccc(C)c1C1SCC(=O)N1c1nc(C)c(CC(N)=O)s1

>  <score_type>  (30) 
oracle

>  <origin>  (30) 
adg

>  <m_score__min__energy>  (30) 
-9.9299999999999997

>  <m_primary>  (30) 
energy

$$$$
30:0
     RDKit          3D

 56 58  0  0  0  0  0  0  0  0999 V2000
   54.7350   26.1260   45.9810 N   0  0  0  0  0  0  0  0  0  0  0  0
   56.2240   25.3010   46.2730 S   0  0  0  0  0  0  0  0  0  0  0  0
   56.3040   24.0860   45.3920 O   0  0  0  0  0  0  0  0  0  0  0  0
   56.2780   24.8580   47.7090 O   0  0  0  0  0  0  0  0  0  0  0  0
   57.5720   26.3790   45.9280 C   0  0  0  0  0  0  0  0  0  0  0  0
   58.8320   26.1350   46.4890 C   0  0  0  0  0  0  0  0  0  0  0  0
   59.9020   26.9880   46.2090 C   0  0  0  0  0  0  0  0  0  0  0  0
   59.7170   28.0960   45.3800 C   0  0  0  0  0  0  0  0  0  0  0  0
   58.4540   28.3740   44.8360 C   0  0  0  0  0  0  0  0  0  0  0  0
   58.2920   29.5120   43.9740 N   0  0  0  0  0  0  0  0  0  0  0  0
   57.0920   30.2990   43.8980 C   0  0  0  0  0  0  0  0  0  0  0  0
   56.1350   30.0880   44.6920 O   0  0  0  0  0  0  0  0  0  0  0  0
   56.9690   31.3920   42.8780 C   0  0  0  0  0  0  0  0  0  0  0  0
   57.5290   32.6420   43.3950 N   0  0  0  0  0  0  0  0  0  0  0  0
   58.0490   32.8130   44.7280 C   0  0  0  0  0  0  0  0  0  0  0  0
   59.0190   31.9450   45.2670 C   0  0  0  0  0  0  0  0  0  0  0  0
   59.4970   32.1400   46.5670 C   0  0  0  0  0  0  0  0  0  0  0  0
   59.0150   33.1970   47.3460 C   0  0  0  0  0  0  0  0  0  0  0  0
   59.6470   33.4430   48.9730 S   0  0  0  0  0  0  0  0  0  0  0  0
   59.5610   34.8990   49.3410 O   0  0  0  0  0  0  0  0  0  0  0  0
   58.7970   32.6620   49.9360 O   0  0  0  0  0  0  0  0  0  0  0  0
   61.3020   32.8880   49.0840 N   0  0  0  0  0  0  0  0  0  0  0  0
   62.1690   33.4770   48.0380 C   0  0  0  0  0  0  0  0  0  0  0  0
   63.5310   32.7840   47.8430 C   0  0  0  0  0  0  0  0  0  0  0  0
   64.3160   32.4740   49.1300 C   0  0  0  0  0  0  0  0  0  0  0  0
   64.2990   33.6100   50.1700 C   0  0  0  0  0  0  0  0  0  0  0  0
   62.9000   33.9970   50.7180 C   0  0  0  0  0  0  0  0  0  0  0  0
   61.7830   32.9610   50.4820 C   0  0  0  0  0  0  0  0  0  0  0  0
   58.0590   34.0700   46.8120 C   0  0  0  0  0  0  0  0  0  0  0  0
   57.5800   33.8780   45.5140 C   0  0  0  0  0  0  0  0  0  0  0  0
   57.3850   27.4980   45.1020 C   0  0  0  0  0  0  0  0  0  0  0  0
   54.8040   27.0560   46.4510 H   0  0  0  0  0  0  0  0  0  0  0  0
   58.9792   25.2695   47.1517 H   0  0  0  0  0  0  0  0  0  0  0  0
   60.8926   26.7863   46.6426 H   0  0  0  0  0  0  0  0  0  0  0  0
   60.5673   28.7555   45.1518 H   0  0  0  0  0  0  0  0  0  0  0  0
   59.1330   29.8480   43.4520 H   0  0  0  0  0  0  0  0  0  0  0  0
   57.5137   31.1006   41.9678 H   0  0  0  0  0  0  0  0  0  0  0  0
   55.9042   31.5471   42.6498 H   0  0  0  0  0  0  0  0  0  0  0  0
   57.5280   33.4650   42.7510 H   0  0  0  0  0  0  0  0  0  0  0  0
   59.4024   31.1098   44.6625 H   0  0  0  0  0  0  0  0  0  0  0  0
   60.2559   31.4585   46.9789 H   0  0  0  0  0  0  0  0  0  0  0  0
   61.6258   33.4333   47.0824 H   0  0  0  0  0  0  0  0  0  0  0  0
   62.3942   34.5008   48.3713 H   0  0  0  0  0  0  0  0  0  0  0  0
   63.3538   31.8334   47.3187 H   0  0  0  0  0  0  0  0  0  0  0  0
   64.1508   33.4973   47.2799 H   0  0  0  0  0  0  0  0  0  0  0  0
   63.8794   31.5765   49.5925 H   0  0  0  0  0  0  0  0  0  0  0  0
   65.3658   32.3332   48.8333 H   0  0  0  0  0  0  0  0  0  0  0  0
   64.9216   33.2984   51.0216 H   0  0  0  0  0  0  0  0  0  0  0  0
   64.6744   34.5020   49.6471 H   0  0  0  0  0  0  0  0  0  0  0  0
   62.9928   34.1536   51.8028 H   0  0  0  0  0  0  0  0  0  0  0  0
   62.5977   34.8975   50.1632 H   0  0  0  0  0  0  0  0  0  0  0  0
   62.1673   31.9701   50.7658 H   0  0  0  0  0  0  0  0  0  0  0  0
   60.9254   33.2795   51.0928 H   0  0  0  0  0  0  0  0  0  0  0  0
   57.6843   34.9092   47.4164 H   0  0  0  0  0  0  0  0  0  0  0  0
   56.8280   34.5679   45.1035 H   0  0  0  0  0  0  0  0  0  0  0  0
   56.3967   27.6917   44.6596 H   0  0  0  0  0  0  0  0  0  0  0  0
  1  2  1  0
  2  3  2  0
  2  4  2  0
  2  5  1  0
  5  6  2  0
  6  7  1  0
  7  8  2  0
  8  9  1  0
  9 10  1  0
 10 11  1  0
 11 12  2  0
 11 13  1  0
 13 14  1  0
 14 15  1  0
 15 16  2  0
 16 17  1  0
 17 18  2  0
 18 19  1  0
 19 20  2  0
 19 21  2  0
 19 22  1  0
 22 23  1  0
 23 24  1  0
 24 25  1  0
 25 26  1  0
 26 27  1  0
 27 28  1  0
 18 29  1  0
 29 30  2  0
  9 31  2  0
 31  5  1  0
 30 15  1  0
 28 22  1  0
  1 32  1  0
  6 33  1  0
  7 34  1  0
  8 35  1  0
 10 36  1  0
 13 37  1  0
 13 38  1  0
 14 39  1  0
 16 40  1  0
 17 41  1  0
 23 42  1  0
 23 43  1  0
 24 44  1  0
 24 45  1  0
 25 46  1  0
 25 47  1  0
 26 48  1  0
 26 49  1  0
 27 50  1  0
 27 51  1  0
 28 52  1  0
 28 53  1  0
 29 54  1  0
 30 55  1  0
 31 56  1  0
M  CHG  1   1  -1
M  END
>  <UniqueID>  (31) 
28

>  <SMILES>  (31) 
[NH-]S(=O)(=O)c1cccc(NC(=O)CNc2ccc(S(=O)(=O)N3CCCCCC3)cc2)c1

>  <Energy>  (31) 
71.67823522758844

>  <Genealogy>  (31) 
[NH-]S(=O)(=O)c1cccc(NC(=O)CNc2ccc(S(=O)(=O)N3CCCCCC3)cc2)c1 (protonated)
[NH-]S(=O)(=O)c1cccc(NC(=O)CNc2ccc(S(=O)(=O)N3CCCCCC3)cc2)c1 (3D coordinates assigned)
[NH-]S(=O)(=O)c1cccc(NC(=O)CNc2ccc(S(=O)(=O)N3CCCCCC3)cc2)c1 (nonaromatic ring conformer: 71.67823522758844 kcal/mol)

>  <smiles>  (31) 
NS(=O)(=O)c1cccc(NC(=O)CNc2ccc(S(=O)(=O)N3CCCCCC3)cc2)c1

>  <score_type>  (31) 
oracle

>  <origin>  (31) 
adg

>  <m_score__min__energy>  (31) 
-11.76

>  <m_primary>  (31) 
energy

$$$$
31:0
     RDKit          3D

 35 37  0  0  0  0  0  0  0  0999 V2000
   58.4820   30.8806   42.8497 H   0  0  0  0  0  0  0  0  0  0  0  0
   57.9550   31.2190   43.7540 C   0  0  0  0  0  0  0  0  0  0  0  0
   57.4920   30.2120   44.7250 C   0  0  0  0  0  0  0  0  0  0  0  0
   56.2580   30.0400   44.9320 O   0  0  0  0  0  0  0  0  0  0  0  0
   58.4480   29.4920   45.4520 O   0  0  0  0  0  0  0  0  0  0  0  0
   59.2310   30.0070   46.4960 C   0  0  0  0  0  0  0  0  0  0  0  0
   58.8720   29.6920   47.8120 C   0  0  0  0  0  0  0  0  0  0  0  0
   57.9991   29.0491   47.9986 H   0  0  0  0  0  0  0  0  0  0  0  0
   59.6100   30.1850   48.8910 C   0  0  0  0  0  0  0  0  0  0  0  0
   59.3221   29.9208   49.9192 H   0  0  0  0  0  0  0  0  0  0  0  0
   60.7170   31.0160   48.6660 C   0  0  0  0  0  0  0  0  0  0  0  0
   61.4660   31.5180   49.7410 C   0  0  0  0  0  0  0  0  0  0  0  0
   61.1915   31.2530   50.7727 H   0  0  0  0  0  0  0  0  0  0  0  0
   62.5600   32.3540   49.5030 C   0  0  0  0  0  0  0  0  0  0  0  0
   63.1447   32.7451   50.3486 H   0  0  0  0  0  0  0  0  0  0  0  0
   62.9140   32.6950   48.1960 C   0  0  0  0  0  0  0  0  0  0  0  0
   63.7764   33.3537   48.0159 H   0  0  0  0  0  0  0  0  0  0  0  0
   62.1760   32.2020   47.1150 C   0  0  0  0  0  0  0  0  0  0  0  0
   62.4577   32.4751   46.0873 H   0  0  0  0  0  0  0  0  0  0  0  0
   61.0760   31.3590   47.3400 C   0  0  0  0  0  0  0  0  0  0  0  0
   60.3280   30.8570   46.2640 C   0  0  0  0  0  0  0  0  0  0  0  0
   60.6007   31.1295   45.2338 H   0  0  0  0  0  0  0  0  0  0  0  0
   57.7570   32.5330   43.9330 C   0  0  0  0  0  0  0  0  0  0  0  0
   57.1829   33.0795   43.1703 H   0  0  0  0  0  0  0  0  0  0  0  0
   58.2680   33.2920   45.1010 C   0  0  0  0  0  0  0  0  0  0  0  0
   59.2940   34.2310   44.8950 C   0  0  0  0  0  0  0  0  0  0  0  0
   59.6918   34.3915   43.8821 H   0  0  0  0  0  0  0  0  0  0  0  0
   59.8130   34.9630   45.9690 C   0  0  0  0  0  0  0  0  0  0  0  0
   60.6093   35.7020   45.7961 H   0  0  0  0  0  0  0  0  0  0  0  0
   59.3220   34.7570   47.2590 C   0  0  0  0  0  0  0  0  0  0  0  0
   59.7281   35.3366   48.1011 H   0  0  0  0  0  0  0  0  0  0  0  0
   58.3150   33.8150   47.4810 C   0  0  0  0  0  0  0  0  0  0  0  0
   57.9324   33.6499   48.4990 H   0  0  0  0  0  0  0  0  0  0  0  0
   57.7920   33.0810   46.4110 C   0  0  0  0  0  0  0  0  0  0  0  0
   57.0046   32.3347   46.5930 H   0  0  0  0  0  0  0  0  0  0  0  0
  1  2  1  0
  2  3  1  0
  3  4  2  0
  3  5  1  0
  5  6  1  0
  6  7  2  0
  7  8  1  0
  7  9  1  0
  9 10  1  0
  9 11  2  0
 11 12  1  0
 12 13  1  0
 12 14  2  0
 14 15  1  0
 14 16  1  0
 16 17  1  0
 16 18  2  0
 18 19  1  0
 18 20  1  0
 20 21  2  0
 21 22  1  0
  2 23  2  0
 23 24  1  0
 23 25  1  0
 25 26  2  0
 26 27  1  0
 26 28  1  0
 28 29  1  0
 28 30  2  0
 30 31  1  0
 30 32  1  0
 32 33  1  0
 32 34  2  0
 34 35  1  0
 21  6  1  0
 34 25  1  0
 20 11  1  0
M  END
>  <UniqueID>  (32) 
29

>  <SMILES>  (32) 
O=C(/C=C/c1ccccc1)Oc1ccc2ccccc2c1

>  <Energy>  (32) 
46.815754187205584

>  <Genealogy>  (32) 
O=C(/C=C/c1ccccc1)Oc1ccc2ccccc2c1 (cis-trans isomerization)
O=C(/C=C/c1ccccc1)Oc1ccc2ccccc2c1 (3D coordinates assigned)
O=C(/C=C/c1ccccc1)Oc1ccc2ccccc2c1 (optimized conformer: 46.815754187205584 kcal/mol)

>  <smiles>  (32) 
O=C(C=Cc1ccccc1)Oc1ccc2ccccc2c1

>  <score_type>  (32) 
oracle

>  <origin>  (32) 
adg

>  <m_score__min__energy>  (32) 
-8.1099999999999994

>  <m_primary>  (32) 
energy

$$$$
32:0
     RDKit          3D

 49 51  0  0  0  0  0  0  0  0999 V2000
   57.7630   25.9020   43.0510 N   0  0  0  0  0  0  0  0  0  0  0  0
   57.8120   26.9860   43.4660 C   0  0  0  0  0  0  0  0  0  0  0  0
   57.8780   28.3290   43.9830 C   0  0  0  0  0  0  0  0  0  0  0  0
   59.0990   28.8530   44.4200 C   0  0  0  0  0  0  0  0  0  0  0  0
   59.1630   30.1620   44.8990 C   0  0  0  0  0  0  0  0  0  0  0  0
   58.0130   30.9730   44.9370 C   0  0  0  0  0  0  0  0  0  0  0  0
   58.1380   32.3180   45.4300 N   0  0  0  0  0  0  0  0  0  0  0  0
   59.1040   32.8420   46.7800 S   0  0  0  0  0  0  0  0  0  0  0  0
   60.5390   33.0310   46.3750 O   0  0  0  0  0  0  0  0  0  0  0  0
   58.5630   34.1690   47.2450 O   0  0  0  0  0  0  0  0  0  0  0  0
   58.9940   31.6750   48.0980 C   0  0  0  0  0  0  0  0  0  0  0  0
   58.5360   32.0760   49.3600 C   0  0  0  0  0  0  0  0  0  0  0  0
   58.4320   31.1460   50.3920 C   0  0  0  0  0  0  0  0  0  0  0  0
   58.7890   29.8130   50.1840 C   0  0  0  0  0  0  0  0  0  0  0  0
   59.2760   29.4040   48.9440 C   0  0  0  0  0  0  0  0  0  0  0  0
   59.6250   28.0270   48.7540 N   0  0  0  0  0  0  0  0  0  0  0  0
   59.5060   27.2960   47.5260 C   0  0  0  0  0  0  0  0  0  0  0  0
   60.5270   27.1360   46.8110 O   0  0  0  0  0  0  0  0  0  0  0  0
   58.1870   26.8320   47.0500 C   0  0  0  0  0  0  0  0  0  0  0  0
   57.7260   25.5810   47.1530 C   0  0  0  0  0  0  0  0  0  0  0  0
   57.8600   24.5280   46.1160 C   0  0  0  0  0  0  0  0  0  0  0  0
   59.1310   23.9920   45.8230 C   0  0  0  0  0  0  0  0  0  0  0  0
   59.2650   22.9470   44.9090 C   0  0  0  0  0  0  0  0  0  0  0  0
   58.1340   22.4030   44.2930 C   0  0  0  0  0  0  0  0  0  0  0  0
   56.8620   22.9030   44.5910 C   0  0  0  0  0  0  0  0  0  0  0  0
   56.7090   23.9640   45.5000 C   0  0  0  0  0  0  0  0  0  0  0  0
   55.0710   24.5690   45.8350 S   0  0  0  0  0  0  0  0  0  0  0  0
   55.1200   26.2960   46.0220 N   0  0  0  0  0  0  0  0  0  0  0  0
   54.5380   23.9360   47.0910 O   0  0  0  0  0  0  0  0  0  0  0  0
   54.1480   24.2090   44.6950 O   0  0  0  0  0  0  0  0  0  0  0  0
   59.3520   30.3360   47.8920 C   0  0  0  0  0  0  0  0  0  0  0  0
   56.7920   30.4400   44.4780 C   0  0  0  0  0  0  0  0  0  0  0  0
   56.7250   29.1200   44.0240 C   0  0  0  0  0  0  0  0  0  0  0  0
   60.0076   28.2340   44.3861 H   0  0  0  0  0  0  0  0  0  0  0  0
   60.1239   30.5652   45.2513 H   0  0  0  0  0  0  0  0  0  0  0  0
   57.6300   33.0770   44.9210 H   0  0  0  0  0  0  0  0  0  0  0  0
   58.2584   33.1257   49.5360 H   0  0  0  0  0  0  0  0  0  0  0  0
   58.0655   31.4650   51.3789 H   0  0  0  0  0  0  0  0  0  0  0  0
   58.6857   29.0834   51.0007 H   0  0  0  0  0  0  0  0  0  0  0  0
   57.5314   27.5751   46.5725 H   0  0  0  0  0  0  0  0  0  0  0  0
   57.2046   25.3102   48.0829 H   0  0  0  0  0  0  0  0  0  0  0  0
   60.0235   24.4011   46.3190 H   0  0  0  0  0  0  0  0  0  0  0  0
   60.2631   22.5499   44.6722 H   0  0  0  0  0  0  0  0  0  0  0  0
   58.2447   21.5796   43.5721 H   0  0  0  0  0  0  0  0  0  0  0  0
   55.9756   22.4629   44.1107 H   0  0  0  0  0  0  0  0  0  0  0  0
   54.7900   26.7110   45.1220 H   0  0  0  0  0  0  0  0  0  0  0  0
   59.6956   30.0103   46.8991 H   0  0  0  0  0  0  0  0  0  0  0  0
   55.8874   31.0658   44.4770 H   0  0  0  0  0  0  0  0  0  0  0  0
   55.7616   28.7013   43.6975 H   0  0  0  0  0  0  0  0  0  0  0  0
  1  2  3  0
  2  3  1  0
  3  4  2  0
  4  5  1  0
  5  6  2  0
  6  7  1  0
  7  8  1  0
  8  9  2  0
  8 10  2  0
  8 11  1  0
 11 12  2  0
 12 13  1  0
 13 14  2  0
 14 15  1  0
 15 16  1  0
 16 17  1  0
 17 18  2  0
 17 19  1  0
 19 20  2  3
 20 21  1  0
 21 22  2  0
 22 23  1  0
 23 24  2  0
 24 25  1  0
 25 26  2  0
 26 27  1  0
 27 28  1  0
 27 29  2  0
 27 30  2  0
 15 31  2  0
  6 32  1  0
 32 33  2  0
 33  3  1  0
 31 11  1  0
 26 21  1  0
  4 34  1  0
  5 35  1  0
  7 36  1  0
 12 37  1  0
 13 38  1  0
 14 39  1  0
 19 40  1  0
 20 41  1  0
 22 42  1  0
 23 43  1  0
 24 44  1  0
 25 45  1  0
 28 46  1  0
 31 47  1  0
 32 48  1  0
 33 49  1  0
M  CHG  2  16  -1  28  -1
M  END
>  <UniqueID>  (33) 
30

>  <SMILES>  (33) 
N#Cc1ccc(NS(=O)(=O)c2cccc([N-]C(=O)C=Cc3ccccc3S([NH-])(=O)=O)c2)cc1

>  <Energy>  (33) 
63.00089309914979

>  <Genealogy>  (33) 
N#Cc1ccc(NS(=O)(=O)c2cccc([N-]C(=O)C=Cc3ccccc3S([NH-])(=O)=O)c2)cc1 (protonated)
N#Cc1ccc(NS(=O)(=O)c2cccc([N-]C(=O)C=Cc3ccccc3S([NH-])(=O)=O)c2)cc1 (3D coordinates assigned)
N#Cc1ccc(NS(=O)(=O)c2cccc([N-]C(=O)C=Cc3ccccc3S([NH-])(=O)=O)c2)cc1 (optimized conformer: 63.00089309914979 kcal/mol)

>  <smiles>  (33) 
N#Cc1ccc(NS(=O)(=O)c2cccc(NC(=O)C=Cc3ccccc3S(N)(=O)=O)c2)cc1

>  <score_type>  (33) 
oracle

>  <origin>  (33) 
adg

>  <m_score__min__energy>  (33) 
-15.039999999999999

>  <m_primary>  (33) 
energy

$$$$
33:0
     RDKit          3D

 52 54  0  0  0  0  0  0  0  0999 V2000
   66.0950   31.9860   50.2010 C   0  0  0  0  0  0  0  0  0  0  0  0
   65.2610   33.2240   50.3380 C   0  0  0  0  0  0  0  0  0  0  0  0
   65.7090   34.1730   51.0380 O   0  0  0  0  0  0  0  0  0  0  0  0
   63.9360   33.3570   49.6750 C   0  0  0  0  0  0  0  0  0  0  0  0
   62.9420   34.2120   50.1890 C   0  0  0  0  0  0  0  0  0  0  0  0
   61.7030   34.3250   49.5540 C   0  0  0  0  0  0  0  0  0  0  0  0
   61.4300   33.5920   48.3890 C   0  0  0  0  0  0  0  0  0  0  0  0
   60.1510   33.7090   47.7410 N   0  0  0  0  0  0  0  0  0  0  0  0
   59.9680   34.6310   46.6160 C   0  0  0  0  0  0  0  0  0  0  0  0
   59.1790   33.9580   45.4720 C   0  0  0  0  0  0  0  0  0  0  0  0
   58.3880   32.7810   45.9200 N   0  0  0  0  0  0  0  0  0  0  0  0
   57.3070   32.4700   44.9630 C   0  0  0  0  0  0  0  0  0  0  0  0
   57.1840   30.9830   44.7580 C   0  0  0  0  0  0  0  0  0  0  0  0
   56.0520   30.4900   44.5070 O   0  0  0  0  0  0  0  0  0  0  0  0
   58.3070   30.1020   44.8970 N   0  0  0  0  0  0  0  0  0  0  0  0
   58.3680   28.9240   45.7130 C   0  0  0  0  0  0  0  0  0  0  0  0
   59.4240   28.7060   46.6130 C   0  0  0  0  0  0  0  0  0  0  0  0
   59.4730   27.5320   47.3680 C   0  0  0  0  0  0  0  0  0  0  0  0
   58.4780   26.5620   47.2220 C   0  0  0  0  0  0  0  0  0  0  0  0
   57.4300   26.7620   46.3140 C   0  0  0  0  0  0  0  0  0  0  0  0
   56.1920   25.5260   46.1070 S   0  0  0  0  0  0  0  0  0  0  0  0
   54.6550   26.2850   45.8820 N   0  0  0  0  0  0  0  0  0  0  0  0
   56.5170   24.6770   44.9090 O   0  0  0  0  0  0  0  0  0  0  0  0
   56.1430   24.6460   47.3240 O   0  0  0  0  0  0  0  0  0  0  0  0
   57.3880   27.9370   45.5500 C   0  0  0  0  0  0  0  0  0  0  0  0
   57.8380   32.9890   47.2720 C   0  0  0  0  0  0  0  0  0  0  0  0
   58.9860   32.9990   48.2840 C   0  0  0  0  0  0  0  0  0  0  0  0
   62.4120   32.7300   47.8770 C   0  0  0  0  0  0  0  0  0  0  0  0
   62.1590   31.9750   46.7780 F   0  0  0  0  0  0  0  0  0  0  0  0
   63.6520   32.6160   48.5120 C   0  0  0  0  0  0  0  0  0  0  0  0
   66.3520   31.6046   51.2002 H   0  0  0  0  0  0  0  0  0  0  0  0
   65.5276   31.2207   49.6511 H   0  0  0  0  0  0  0  0  0  0  0  0
   67.0174   32.2243   49.6511 H   0  0  0  0  0  0  0  0  0  0  0  0
   63.1432   34.7963   51.0990 H   0  0  0  0  0  0  0  0  0  0  0  0
   60.9353   34.9938   49.9704 H   0  0  0  0  0  0  0  0  0  0  0  0
   59.4145   35.5161   46.9626 H   0  0  0  0  0  0  0  0  0  0  0  0
   60.9586   34.9207   46.2355 H   0  0  0  0  0  0  0  0  0  0  0  0
   58.4899   34.6984   45.0397 H   0  0  0  0  0  0  0  0  0  0  0  0
   59.9130   33.5980   44.7360 H   0  0  0  0  0  0  0  0  0  0  0  0
   56.3558   32.8597   45.3546 H   0  0  0  0  0  0  0  0  0  0  0  0
   57.5456   32.9400   43.9975 H   0  0  0  0  0  0  0  0  0  0  0  0
   60.2150   29.4623   46.7236 H   0  0  0  0  0  0  0  0  0  0  0  0
   60.2966   27.3707   48.0790 H   0  0  0  0  0  0  0  0  0  0  0  0
   58.5176   25.6401   47.8208 H   0  0  0  0  0  0  0  0  0  0  0  0
   54.7980   27.0720   45.2100 H   0  0  0  0  0  0  0  0  0  0  0  0
   54.3910   26.7140   46.7970 H   0  0  0  0  0  0  0  0  0  0  0  0
   56.5802   28.0844   44.8180 H   0  0  0  0  0  0  0  0  0  0  0  0
   57.3059   33.9510   47.3091 H   0  0  0  0  0  0  0  0  0  0  0  0
   57.1366   32.1773   47.5155 H   0  0  0  0  0  0  0  0  0  0  0  0
   58.6525   33.5027   49.2033 H   0  0  0  0  0  0  0  0  0  0  0  0
   59.2749   31.9600   48.5011 H   0  0  0  0  0  0  0  0  0  0  0  0
   64.4146   31.9397   48.0984 H   0  0  0  0  0  0  0  0  0  0  0  0
  1  2  1  0
  2  3  2  0
  2  4  1  0
  4  5  2  0
  5  6  1  0
  6  7  2  0
  7  8  1  0
  8  9  1  0
  9 10  1  0
 10 11  1  0
 11 12  1  0
 12 13  1  0
 13 14  2  0
 13 15  1  0
 15 16  1  0
 16 17  2  0
 17 18  1  0
 18 19  2  0
 19 20  1  0
 20 21  1  0
 21 22  1  0
 21 23  2  0
 21 24  2  0
 20 25  2  0
 11 26  1  0
 26 27  1  0
  7 28  1  0
 28 29  1  0
 28 30  2  0
 30  4  1  0
 27  8  1  0
 25 16  1  0
  1 31  1  0
  1 32  1  0
  1 33  1  0
  5 34  1  0
  6 35  1  0
  9 36  1  0
  9 37  1  0
 10 38  1  0
 10 39  1  0
 12 40  1  0
 12 41  1  0
 17 42  1  0
 18 43  1  0
 19 44  1  0
 22 45  1  0
 22 46  1  0
 25 47  1  0
 26 48  1  0
 26 49  1  0
 27 50  1  0
 27 51  1  0
 30 52  1  0
M  CHG  1  15  -1
M  END
>  <UniqueID>  (34) 
31

>  <SMILES>  (34) 
CC(=O)c1ccc(N2CCN(CC(=O)[N-]c3cccc(S(N)(=O)=O)c3)CC2)c(F)c1

>  <Energy>  (34) 
67.47217799476397

>  <Genealogy>  (34) 
CC(=O)c1ccc(N2CCN(CC(=O)[N-]c3cccc(S(N)(=O)=O)c3)CC2)c(F)c1 (protonated)
CC(=O)c1ccc(N2CCN(CC(=O)[N-]c3cccc(S(N)(=O)=O)c3)CC2)c(F)c1 (3D coordinates assigned)
CC(=O)c1ccc(N2CCN(CC(=O)[N-]c3cccc(S(N)(=O)=O)c3)CC2)c(F)c1 (nonaromatic ring conformer: 67.47217799476397 kcal/mol)

>  <smiles>  (34) 
CC(=O)c1ccc(N2CCN(CC(=O)Nc3cccc(S(N)(=O)=O)c3)CC2)c(F)c1

>  <score_type>  (34) 
oracle

>  <origin>  (34) 
adg

>  <m_score__min__energy>  (34) 
-10.9

>  <m_primary>  (34) 
energy

$$$$
34:0
     RDKit          3D

 33 34  0  0  0  0  0  0  0  0999 V2000
   57.8000   31.9650   42.9180 C   0  0  0  0  0  0  0  0  0  0  0  0
   57.9190   32.4320   44.3420 C   0  0  0  0  0  0  0  0  0  0  0  0
   57.6250   33.7670   44.6610 C   0  0  0  0  0  0  0  0  0  0  0  0
   57.7680   34.2290   45.9680 C   0  0  0  0  0  0  0  0  0  0  0  0
   58.1950   33.3640   46.9750 C   0  0  0  0  0  0  0  0  0  0  0  0
   58.4820   32.0210   46.6870 C   0  0  0  0  0  0  0  0  0  0  0  0
   58.9200   31.1110   47.8030 C   0  0  0  0  0  0  0  0  0  0  0  0
   58.3750   31.5560   45.3530 C   0  0  0  0  0  0  0  0  0  0  0  0
   58.6940   30.1950   45.0270 N   0  0  0  0  0  0  0  0  0  0  0  0
   57.6890   29.1800   44.9100 C   0  0  0  0  0  0  0  0  0  0  0  0
   56.4950   29.4260   45.2350 O   0  0  0  0  0  0  0  0  0  0  0  0
   58.0580   27.8030   44.4410 C   0  0  0  0  0  0  0  0  0  0  0  0
   57.9740   26.7740   45.5730 C   0  0  0  0  0  0  0  0  0  0  0  0
   56.6380   26.0960   45.6200 C   0  0  0  0  0  0  0  0  0  0  0  0
   55.5010   26.7190   46.0050 N   0  0  0  0  0  0  0  0  0  0  0  0
   54.4310   25.9250   45.9760 N   0  0  0  0  0  0  0  0  0  0  0  0
   54.7230   24.6730   45.5700 C   0  0  0  0  0  0  0  0  0  0  0  0
   53.8610   23.7620   45.4740 O   0  0  0  0  0  0  0  0  0  0  0  0
   56.3550   24.4820   45.2150 S   0  0  0  0  0  0  0  0  0  0  0  0
   57.5284   30.8992   42.9031 H   0  0  0  0  0  0  0  0  0  0  0  0
   57.0219   32.5488   42.4045 H   0  0  0  0  0  0  0  0  0  0  0  0
   58.7626   32.1053   42.4045 H   0  0  0  0  0  0  0  0  0  0  0  0
   57.2793   34.4533   43.8739 H   0  0  0  0  0  0  0  0  0  0  0  0
   57.5434   35.2792   46.2060 H   0  0  0  0  0  0  0  0  0  0  0  0
   58.3078   33.7375   48.0035 H   0  0  0  0  0  0  0  0  0  0  0  0
   58.6932   31.5822   48.7707 H   0  0  0  0  0  0  0  0  0  0  0  0
   58.3842   30.1533   47.7269 H   0  0  0  0  0  0  0  0  0  0  0  0
   60.0027   30.9324   47.7269 H   0  0  0  0  0  0  0  0  0  0  0  0
   59.7000   29.9210   44.9620 H   0  0  0  0  0  0  0  0  0  0  0  0
   57.3694   27.5045   43.6368 H   0  0  0  0  0  0  0  0  0  0  0  0
   59.0973   27.8316   44.0818 H   0  0  0  0  0  0  0  0  0  0  0  0
   58.7530   26.0128   45.4190 H   0  0  0  0  0  0  0  0  0  0  0  0
   58.1182   27.3052   46.5254 H   0  0  0  0  0  0  0  0  0  0  0  0
  1  2  1  0
  2  3  2  0
  3  4  1  0
  4  5  2  0
  5  6  1  0
  6  7  1  0
  6  8  2  0
  8  9  1  0
  9 10  1  0
 10 11  2  0
 10 12  1  0
 12 13  1  0
 13 14  1  0
 14 15  2  0
 15 16  1  0
 16 17  1  0
 17 18  2  0
 17 19  1  0
  8  2  1  0
 19 14  1  0
  1 20  1  0
  1 21  1  0
  1 22  1  0
  3 23  1  0
  4 24  1  0
  5 25  1  0
  7 26  1  0
  7 27  1  0
  7 28  1  0
  9 29  1  0
 12 30  1  0
 12 31  1  0
 13 32  1  0
 13 33  1  0
M  CHG  1  16  -1
M  END
>  <UniqueID>  (35) 
32

>  <SMILES>  (35) 
Cc1cccc(C)c1NC(=O)CCc1n[n-]c(=O)s1

>  <Energy>  (35) 
67.6763321721802

>  <Genealogy>  (35) 
Cc1cccc(C)c1NC(=O)CCc1n[n-]c(=O)s1 (protonated)
Cc1cccc(C)c1NC(=O)CCc1n[n-]c(=O)s1 (3D coordinates assigned)
Cc1cccc(C)c1NC(=O)CCc1n[n-]c(=O)s1 (optimized conformer: 67.6763321721802 kcal/mol)

>  <smiles>  (35) 
Cc1cccc(C)c1NC(=O)CCc1n[nH]c(=O)s1

>  <score_type>  (35) 
oracle

>  <origin>  (35) 
adg

>  <m_score__min__energy>  (35) 
-10.24

>  <m_primary>  (35) 
energy

$$$$
35:0
     RDKit          3D

 35 36  0  0  0  0  0  0  0  0999 V2000
   57.9070   33.6600   46.2560 C   0  0  0  0  0  0  0  0  0  0  0  0
   57.7030   32.7430   45.0920 C   0  0  0  0  0  0  0  0  0  0  0  0
   58.1570   33.1000   43.8180 C   0  0  0  0  0  0  0  0  0  0  0  0
   57.9590   32.2220   42.7530 C   0  0  0  0  0  0  0  0  0  0  0  0
   57.3130   31.0030   42.9650 C   0  0  0  0  0  0  0  0  0  0  0  0
   56.8630   30.6700   44.2550 C   0  0  0  0  0  0  0  0  0  0  0  0
   56.1840   29.3720   44.5050 C   0  0  0  0  0  0  0  0  0  0  0  0
   54.9250   29.3310   44.5020 O   0  0  0  0  0  0  0  0  0  0  0  0
   56.8940   28.1500   44.7590 N   0  0  0  0  0  0  0  0  0  0  0  0
   57.3970   27.6880   46.0470 C   0  0  0  0  0  0  0  0  0  0  0  0
   56.3980   26.7130   46.6930 C   0  0  1  0  0  0  0  0  0  0  0  0
   55.2040   26.7000   45.9550 O   0  0  0  0  0  0  0  0  0  0  0  0
   56.9520   25.2800   46.7910 C   0  0  0  0  0  0  0  0  0  0  0  0
   56.9200   24.5960   45.4990 N   0  0  0  0  0  0  0  0  0  0  0  0
   57.0690   23.2710   45.2950 C   0  0  0  0  0  0  0  0  0  0  0  0
   56.9250   23.0290   43.9450 C   0  0  0  0  0  0  0  0  0  0  0  0
   57.0210   21.3430   43.0610 Br  0  0  0  0  0  0  0  0  0  0  0  0
   56.6810   24.2610   43.3690 C   0  0  0  0  0  0  0  0  0  0  0  0
   56.6830   25.1910   44.3400 N   0  0  0  0  0  0  0  0  0  0  0  0
   57.0790   31.5480   45.2740 N   0  0  0  0  0  0  0  0  0  0  0  0
   57.7818   33.0970   47.1927 H   0  0  0  0  0  0  0  0  0  0  0  0
   58.9213   34.0836   46.2157 H   0  0  0  0  0  0  0  0  0  0  0  0
   57.1679   34.4737   46.2157 H   0  0  0  0  0  0  0  0  0  0  0  0
   58.6646   34.0627   43.6581 H   0  0  0  0  0  0  0  0  0  0  0  0
   58.3118   32.4899   41.7461 H   0  0  0  0  0  0  0  0  0  0  0  0
   57.1568   30.3068   42.1278 H   0  0  0  0  0  0  0  0  0  0  0  0
   58.3590   27.1758   45.8981 H   0  0  0  0  0  0  0  0  0  0  0  0
   57.5299   28.5552   46.7106 H   0  0  0  0  0  0  0  0  0  0  0  0
   56.2136   27.0687   47.7175 H   0  0  0  0  0  0  0  0  0  0  0  0
   55.1510   27.5670   45.4750 H   0  0  0  0  0  0  0  0  0  0  0  0
   57.9926   25.3240   47.1449 H   0  0  0  0  0  0  0  0  0  0  0  0
   56.3194   24.7160   47.4923 H   0  0  0  0  0  0  0  0  0  0  0  0
   57.2701   22.5161   46.0694 H   0  0  0  0  0  0  0  0  0  0  0  0
   56.5136   24.4490   42.2982 H   0  0  0  0  0  0  0  0  0  0  0  0
   56.5150   26.2150   44.2150 H   0  0  0  0  0  0  0  0  0  0  0  0
  1  2  1  0
  2  3  2  0
  3  4  1  0
  4  5  2  0
  5  6  1  0
  6  7  1  0
  7  8  2  0
  7  9  1  0
  9 10  1  0
 10 11  1  0
 11 12  1  0
 11 13  1  0
 13 14  1  0
 14 15  1  0
 15 16  2  0
 16 17  1  0
 16 18  1  0
 18 19  2  0
  6 20  2  0
 20  2  1  0
 19 14  1  0
  1 21  1  0
  1 22  1  0
  1 23  1  0
  3 24  1  0
  4 25  1  0
  5 26  1  0
 10 27  1  0
 10 28  1  0
 11 29  1  1
 12 30  1  0
 13 31  1  0
 13 32  1  0
 15 33  1  0
 18 34  1  0
 19 35  1  0
M  CHG  2   9  -1  19   1
M  END
>  <UniqueID>  (36) 
33

>  <SMILES>  (36) 
Cc1cccc(C(=O)[N-]C[C@@H](O)Cn2cc(Br)c[nH+]2)n1

>  <Energy>  (36) 
61.07770548969623

>  <Genealogy>  (36) 
Cc1cccc(C(=O)[N-]CC(O)Cn2cc(Br)c[nH+]2)n1 (protonated)
Cc1cccc(C(=O)[N-]C[C@@H](O)Cn2cc(Br)c[nH+]2)n1 (chirality)
Cc1cccc(C(=O)[N-]C[C@@H](O)Cn2cc(Br)c[nH+]2)n1 (3D coordinates assigned)
Cc1cccc(C(=O)[N-]C[C@@H](O)Cn2cc(Br)c[nH+]2)n1 (optimized conformer: 61.07770548969623 kcal/mol)

>  <smiles>  (36) 
Cc1cccc(C(=O)NCC(O)Cn2cc(Br)cn2)n1

>  <score_type>  (36) 
oracle

>  <origin>  (36) 
adg

>  <m_score__min__energy>  (36) 
-8.4700000000000006

>  <m_primary>  (36) 
energy

$$$$
36:0
     RDKit          3D

 71 74  0  0  0  0  0  0  0  0999 V2000
   63.8122   30.9781   47.7190 H   0  0  0  0  0  0  0  0  0  0  0  0
   63.0330   31.6850   47.3980 C   0  0  0  0  0  0  0  0  0  0  0  0
   61.6840   31.3320   47.5020 C   0  0  0  0  0  0  0  0  0  0  0  0
   61.4031   30.3474   47.9041 H   0  0  0  0  0  0  0  0  0  0  0  0
   60.6910   32.2300   47.0950 C   0  0  0  0  0  0  0  0  0  0  0  0
   59.6308   31.9477   47.1738 H   0  0  0  0  0  0  0  0  0  0  0  0
   61.0440   33.4910   46.5860 C   0  0  0  0  0  0  0  0  0  0  0  0
   59.9770   34.4440   46.1040 C   0  0  0  0  0  0  0  0  0  0  0  0
   60.1182   34.6192   45.0273 H   0  0  0  0  0  0  0  0  0  0  0  0
   60.0737   35.3782   46.6767 H   0  0  0  0  0  0  0  0  0  0  0  0
   58.5840   33.9010   46.3310 C   0  0  0  0  0  0  0  0  0  0  0  0
   58.0670   33.9800   47.4770 O   0  0  0  0  0  0  0  0  0  0  0  0
   57.8070   33.3000   45.2810 N   0  0  0  0  0  0  0  0  0  0  0  0
   57.5180   32.0430   45.1120 C   0  0  0  0  0  0  0  0  0  0  0  0
   56.2850   31.5640   44.8310 N   0  0  0  0  0  0  0  0  0  0  0  0
   56.2550   30.2380   44.7220 N   0  0  0  0  0  0  0  0  0  0  0  0
   57.4620   29.6590   44.9100 C   0  0  0  0  0  0  0  0  0  0  0  0
   57.6830   28.1780   44.8800 C   0  0  0  0  0  0  0  0  0  0  0  0
   57.2120   27.7665   43.9751 H   0  0  0  0  0  0  0  0  0  0  0  0
   57.2375   27.7485   45.7894 H   0  0  0  0  0  0  0  0  0  0  0  0
   59.1760   27.8220   44.8680 C   0  0  0  0  0  0  0  0  0  0  0  0
   59.6992   28.5140   44.1917 H   0  0  0  0  0  0  0  0  0  0  0  0
   59.2707   26.7800   44.5285 H   0  0  0  0  0  0  0  0  0  0  0  0
   59.8100   27.9210   46.2630 C   0  0  0  0  0  0  0  0  0  0  0  0
   60.5330   28.7500   46.2718 H   0  0  0  0  0  0  0  0  0  0  0  0
   60.3132   26.9691   46.4882 H   0  0  0  0  0  0  0  0  0  0  0  0
   58.7430   28.1750   47.3330 C   0  0  0  0  0  0  0  0  0  0  0  0
   58.1512   27.2594   47.4791 H   0  0  0  0  0  0  0  0  0  0  0  0
   58.0922   28.9968   46.9997 H   0  0  0  0  0  0  0  0  0  0  0  0
   59.3840   28.5590   48.6280 C   0  0  0  0  0  0  0  0  0  0  0  0
   59.0910   29.6960   49.2990 N   0  0  0  0  0  0  0  0  0  0  0  0
   59.8340   29.8690   50.3910 N   0  0  0  0  0  0  0  0  0  0  0  0
   60.7270   28.8730   50.5850 C   0  0  0  0  0  0  0  0  0  0  0  0
   61.5850   28.8250   51.5620 N   0  0  0  0  0  0  0  0  0  0  0  0
   62.2960   29.9180   52.1700 C   0  0  0  0  0  0  0  0  0  0  0  0
   61.9570   30.2720   53.3310 O   0  0  0  0  0  0  0  0  0  0  0  0
   63.4250   30.6370   51.4700 C   0  0  0  0  0  0  0  0  0  0  0  0
   63.8091   29.9935   50.6648 H   0  0  0  0  0  0  0  0  0  0  0  0
   64.2029   30.8515   52.2176 H   0  0  0  0  0  0  0  0  0  0  0  0
   62.9830   31.9500   50.8730 C   0  0  0  0  0  0  0  0  0  0  0  0
   63.9310   32.9140   50.4970 C   0  0  0  0  0  0  0  0  0  0  0  0
   65.0036   32.7072   50.6265 H   0  0  0  0  0  0  0  0  0  0  0  0
   63.5180   34.1350   49.9590 C   0  0  0  0  0  0  0  0  0  0  0  0
   64.2665   34.8822   49.6565 H   0  0  0  0  0  0  0  0  0  0  0  0
   62.1580   34.4100   49.8040 C   0  0  0  0  0  0  0  0  0  0  0  0
   61.8386   35.3697   49.3716 H   0  0  0  0  0  0  0  0  0  0  0  0
   61.1970   33.4660   50.1980 C   0  0  0  0  0  0  0  0  0  0  0  0
   59.7340   33.7450   49.9910 C   0  0  0  0  0  0  0  0  0  0  0  0
   59.3618   33.1367   49.1535 H   0  0  0  0  0  0  0  0  0  0  0  0
   59.5978   34.8128   49.7648 H   0  0  0  0  0  0  0  0  0  0  0  0
   58.9690   33.4030   51.2310 C   0  0  0  0  0  0  0  0  0  0  0  0
   58.6400   34.3210   52.0310 O   0  0  0  0  0  0  0  0  0  0  0  0
   58.5730   32.0490   51.4820 N   0  0  0  0  0  0  0  0  0  0  0  0
   58.8530   31.3120   50.7950 H   0  0  0  0  0  0  0  0  0  0  0  0
   57.7710   31.6940   52.6520 C   0  0  0  0  0  0  0  0  0  0  0  0
   56.8722   32.3278   52.6743 H   0  0  0  0  0  0  0  0  0  0  0  0
   58.3854   31.8515   53.5507 H   0  0  0  0  0  0  0  0  0  0  0  0
   57.3420   30.2250   52.6170 C   0  0  0  0  0  0  0  0  0  0  0  0
   56.3109   30.1411   52.9909 H   0  0  0  0  0  0  0  0  0  0  0  0
   58.0267   29.6417   53.2503 H   0  0  0  0  0  0  0  0  0  0  0  0
   57.4020   29.7010   51.2540 N   0  0  0  0  0  0  0  0  0  0  0  0
   57.6930   30.4850   50.6240 H   0  0  0  0  0  0  0  0  0  0  0  0
   58.1670   28.9910   51.2070 H   0  0  0  0  0  0  0  0  0  0  0  0
   61.6160   32.2350   50.7280 C   0  0  0  0  0  0  0  0  0  0  0  0
   60.8675   31.4884   51.0319 H   0  0  0  0  0  0  0  0  0  0  0  0
   60.6380   27.7120   49.3720 S   0  0  0  0  0  0  0  0  0  0  0  0
   58.6510   30.8090   45.2500 S   0  0  0  0  0  0  0  0  0  0  0  0
   62.4020   33.8340   46.4780 C   0  0  0  0  0  0  0  0  0  0  0  0
   62.6883   34.8146   46.0700 H   0  0  0  0  0  0  0  0  0  0  0  0
   63.3920   32.9340   46.8870 C   0  0  0  0  0  0  0  0  0  0  0  0
   64.4536   33.2104   46.8060 H   0  0  0  0  0  0  0  0  0  0  0  0
  1  2  1  0
  2  3  2  0
  3  4  1  0
  3  5  1  0
  5  6  1  0
  5  7  2  0
  7  8  1  0
  8  9  1  0
  8 10  1  0
  8 11  1  0
 11 12  2  0
 11 13  1  0
 13 14  2  3
 14 15  1  0
 15 16  1  0
 16 17  2  0
 17 18  1  0
 18 19  1  0
 18 20  1  0
 18 21  1  0
 21 22  1  0
 21 23  1  0
 21 24  1  0
 24 25  1  0
 24 26  1  0
 24 27  1  0
 27 28  1  0
 27 29  1  0
 27 30  1  0
 30 31  2  0
 31 32  1  0
 32 33  1  0
 33 34  2  0
 34 35  1  0
 35 36  2  0
 35 37  1  0
 37 38  1  0
 37 39  1  0
 37 40  1  0
 40 41  2  0
 41 42  1  0
 41 43  1  0
 43 44  1  0
 43 45  2  0
 45 46  1  0
 45 47  1  0
 47 48  1  0
 48 49  1  0
 48 50  1  0
 48 51  1  0
 51 52  2  0
 51 53  1  0
 53 54  1  0
 53 55  1  0
 55 56  1  0
 55 57  1  0
 55 58  1  0
 58 59  1  0
 58 60  1  0
 58 61  1  0
 61 62  1  0
 61 63  1  0
 47 64  2  0
 64 65  1  0
 33 66  1  0
 17 67  1  0
  7 68  1  0
 68 69  1  0
 68 70  2  0
 70 71  1  0
 70  2  1  0
 67 14  1  0
 66 30  1  0
 64 40  1  0
M  CHG  2  15  -1  32  -1
M  END
>  <UniqueID>  (37) 
34

>  <SMILES>  (37) 
NCCNC(=O)Cc1cccc(CC(=O)/N=c2\[n-]nc(CCCCc3n[n-]c(=NC(=O)Cc4ccccc4)s3)s2)c1

>  <Energy>  (37) 
134.13737615824488

>  <Genealogy>  (37) 
NCCNC(=O)Cc1cccc(CC(=O)N=c2[n-]nc(CCCCc3n[n-]c(=NC(=O)Cc4ccccc4)s3)s2)c1 (protonated)
NCCNC(=O)Cc1cccc(CC(=O)/N=c2\[n-]nc(CCCCc3n[n-]c(=NC(=O)Cc4ccccc4)s3)s2)c1 (cis-trans isomerization)
NCCNC(=O)Cc1cccc(CC(=O)/N=c2\[n-]nc(CCCCc3n[n-]c(=NC(=O)Cc4ccccc4)s3)s2)c1 (3D coordinates assigned)
NCCNC(=O)Cc1cccc(CC(=O)/N=c2\[n-]nc(CCCCc3n[n-]c(=NC(=O)Cc4ccccc4)s3)s2)c1 (optimized conformer: 134.13737615824488 kcal/mol)

>  <smiles>  (37) 
NCCNC(=O)Cc1cccc(CC(=O)N=c2[nH]nc(CCCCc3n[nH]c(=NC(=O)Cc4ccccc4)s3)s2)c1

>  <score_type>  (37) 
oracle

>  <origin>  (37) 
adg

>  <m_score__min__energy>  (37) 
-12.449999999999999

>  <m_primary>  (37) 
energy

$$$$
37:0
     RDKit          3D

 48 50  0  0  0  0  0  0  0  0999 V2000
   61.6150   28.8830   51.1910 O   0  0  0  0  0  0  0  0  0  0  0  0
   60.7650   29.1400   50.2960 C   0  0  0  0  0  0  0  0  0  0  0  0
   60.1260   28.0580   49.5950 N   0  0  0  0  0  0  0  0  0  0  0  0
   60.8250   26.7950   49.3510 C   0  0  0  0  0  0  0  0  0  0  0  0
   60.6510   26.3540   47.8900 C   0  0  0  0  0  0  0  0  0  0  0  0
   59.6330   27.2010   47.1690 C   0  0  0  0  0  0  0  0  0  0  0  0
   59.9530   28.5110   46.7720 C   0  0  0  0  0  0  0  0  0  0  0  0
   59.0560   29.2540   46.0010 C   0  0  0  0  0  0  0  0  0  0  0  0
   57.8300   28.6960   45.6130 C   0  0  0  0  0  0  0  0  0  0  0  0
   56.7080   29.6040   44.6080 S   0  0  0  0  0  0  0  0  0  0  0  0
   56.7810   31.0680   44.9370 O   0  0  0  0  0  0  0  0  0  0  0  0
   57.0650   29.4160   43.1600 O   0  0  0  0  0  0  0  0  0  0  0  0
   55.1440   29.0540   44.8790 O   0  0  0  0  0  0  0  0  0  0  0  0
   57.5010   27.3970   46.0220 C   0  0  0  0  0  0  0  0  0  0  0  0
   58.3970   26.6520   46.7930 C   0  0  0  0  0  0  0  0  0  0  0  0
   60.5140   30.5520   49.9210 C   0  0  0  0  0  0  0  0  0  0  0  0
   59.5720   31.3380   50.6080 C   0  0  0  0  0  0  0  0  0  0  0  0
   59.2950   32.6410   50.1840 C   0  0  0  0  0  0  0  0  0  0  0  0
   59.9610   33.1840   49.0750 C   0  0  0  0  0  0  0  0  0  0  0  0
   59.6010   34.5550   48.5690 C   0  0  0  0  0  0  0  0  0  0  0  0
   59.0170   34.4550   47.1860 C   0  0  0  0  0  0  0  0  0  0  0  0
   57.7890   33.8040   46.9790 C   0  0  0  0  0  0  0  0  0  0  0  0
   57.2220   33.7590   45.7020 C   0  0  0  0  0  0  0  0  0  0  0  0
   57.8720   34.3710   44.6250 C   0  0  0  0  0  0  0  0  0  0  0  0
   59.0900   35.0270   44.8250 C   0  0  0  0  0  0  0  0  0  0  0  0
   59.6600   35.0730   46.1000 C   0  0  0  0  0  0  0  0  0  0  0  0
   60.9110   32.4080   48.3960 C   0  0  0  0  0  0  0  0  0  0  0  0
   61.1930   31.1070   48.8210 C   0  0  0  0  0  0  0  0  0  0  0  0
   59.2910   28.2460   49.0000 H   0  0  0  0  0  0  0  0  0  0  0  0
   61.8961   26.9278   49.5634 H   0  0  0  0  0  0  0  0  0  0  0  0
   60.3997   26.0218   50.0078 H   0  0  0  0  0  0  0  0  0  0  0  0
   61.6182   26.4422   47.3735 H   0  0  0  0  0  0  0  0  0  0  0  0
   60.2954   25.3131   47.8862 H   0  0  0  0  0  0  0  0  0  0  0  0
   60.9150   28.9534   47.0701 H   0  0  0  0  0  0  0  0  0  0  0  0
   59.3124   30.2797   45.6975 H   0  0  0  0  0  0  0  0  0  0  0  0
   56.5326   26.9615   45.7347 H   0  0  0  0  0  0  0  0  0  0  0  0
   58.1328   25.6313   47.1066 H   0  0  0  0  0  0  0  0  0  0  0  0
   59.0501   30.9253   51.4840 H   0  0  0  0  0  0  0  0  0  0  0  0
   58.5500   33.2444   50.7234 H   0  0  0  0  0  0  0  0  0  0  0  0
   58.8620   35.0104   49.2446 H   0  0  0  0  0  0  0  0  0  0  0  0
   60.5075   35.1772   48.5345 H   0  0  0  0  0  0  0  0  0  0  0  0
   57.2719   33.3279   47.8251 H   0  0  0  0  0  0  0  0  0  0  0  0
   56.2640   33.2420   45.5439 H   0  0  0  0  0  0  0  0  0  0  0  0
   57.4246   34.3360   43.6207 H   0  0  0  0  0  0  0  0  0  0  0  0
   59.6005   35.5077   43.9775 H   0  0  0  0  0  0  0  0  0  0  0  0
   60.6159   35.5951   46.2542 H   0  0  0  0  0  0  0  0  0  0  0  0
   61.4369   32.8253   47.5246 H   0  0  0  0  0  0  0  0  0  0  0  0
   61.9518   30.5123   48.2913 H   0  0  0  0  0  0  0  0  0  0  0  0
  1  2  2  0
  2  3  1  0
  3  4  1  0
  4  5  1  0
  5  6  1  0
  6  7  2  0
  7  8  1  0
  8  9  2  0
  9 10  1  0
 10 11  2  0
 10 12  2  0
 10 13  1  0
  9 14  1  0
 14 15  2  0
  2 16  1  0
 16 17  2  0
 17 18  1  0
 18 19  2  0
 19 20  1  0
 20 21  1  0
 21 22  2  0
 22 23  1  0
 23 24  2  0
 24 25  1  0
 25 26  2  0
 19 27  1  0
 27 28  2  0
 15  6  1  0
 28 16  1  0
 26 21  1  0
  3 29  1  0
  4 30  1  0
  4 31  1  0
  5 32  1  0
  5 33  1  0
  7 34  1  0
  8 35  1  0
 14 36  1  0
 15 37  1  0
 17 38  1  0
 18 39  1  0
 20 40  1  0
 20 41  1  0
 22 42  1  0
 23 43  1  0
 24 44  1  0
 25 45  1  0
 26 46  1  0
 27 47  1  0
 28 48  1  0
M  CHG  1  13  -1
M  END
>  <UniqueID>  (38) 
35

>  <SMILES>  (38) 
O=C(NCCc1ccc(S(=O)(=O)[O-])cc1)c1ccc(Cc2ccccc2)cc1

>  <Energy>  (38) 
45.50475281792462

>  <Genealogy>  (38) 
O=C(NCCc1ccc(S(=O)(=O)[O-])cc1)c1ccc(Cc2ccccc2)cc1 (protonated)
O=C(NCCc1ccc(S(=O)(=O)[O-])cc1)c1ccc(Cc2ccccc2)cc1 (3D coordinates assigned)
O=C(NCCc1ccc(S(=O)(=O)[O-])cc1)c1ccc(Cc2ccccc2)cc1 (optimized conformer: 45.50475281792462 kcal/mol)

>  <smiles>  (38) 
O=C(NCCc1ccc(S(=O)(=O)O)cc1)c1ccc(Cc2ccccc2)cc1

>  <score_type>  (38) 
oracle

>  <origin>  (38) 
adg

>  <m_score__min__energy>  (38) 
-12.32

>  <m_primary>  (38) 
energy

$$$$
38:0
     RDKit          3D

 31 32  0  0  0  0  0  0  0  0999 V2000
   57.0120   31.2030   42.2390 C   0  0  0  0  0  0  0  0  0  0  0  0
   56.7790   30.5020   43.5600 C   0  0  0  0  0  0  0  0  0  0  0  0
   55.5130   29.7420   43.7240 C   0  0  0  0  0  0  0  0  0  0  0  0
   55.1410   29.3420   44.8590 O   0  0  0  0  0  0  0  0  0  0  0  0
   57.6610   30.6310   44.5900 C   0  0  0  0  0  0  0  0  0  0  0  0
   57.9380   31.9460   45.2200 C   0  0  0  0  0  0  0  0  0  0  0  0
   58.1260   32.0490   46.6100 C   0  0  0  0  0  0  0  0  0  0  0  0
   58.4120   33.2880   47.1920 C   0  0  0  0  0  0  0  0  0  0  0  0
   58.5250   34.4280   46.3910 C   0  0  0  0  0  0  0  0  0  0  0  0
   58.3560   34.3310   45.0080 C   0  0  0  0  0  0  0  0  0  0  0  0
   58.0690   33.0940   44.4220 C   0  0  0  0  0  0  0  0  0  0  0  0
   58.4180   29.4720   45.1280 C   0  0  0  0  0  0  0  0  0  0  0  0
   59.7770   29.3120   44.8120 C   0  0  0  0  0  0  0  0  0  0  0  0
   60.4840   28.2030   45.2850 C   0  0  0  0  0  0  0  0  0  0  0  0
   59.8370   27.2400   46.0660 C   0  0  0  0  0  0  0  0  0  0  0  0
   58.4810   27.3830   46.3710 C   0  0  0  0  0  0  0  0  0  0  0  0
   57.7700   28.4910   45.8990 C   0  0  0  0  0  0  0  0  0  0  0  0
   57.3540   32.2318   42.4252 H   0  0  0  0  0  0  0  0  0  0  0  0
   57.7780   30.6600   41.6659 H   0  0  0  0  0  0  0  0  0  0  0  0
   56.0734   31.2266   41.6659 H   0  0  0  0  0  0  0  0  0  0  0  0
   54.8920   29.5257   42.8422 H   0  0  0  0  0  0  0  0  0  0  0  0
   58.0478   31.1518   47.2416 H   0  0  0  0  0  0  0  0  0  0  0  0
   58.5481   33.3655   48.2808 H   0  0  0  0  0  0  0  0  0  0  0  0
   58.7473   35.4025   46.8504 H   0  0  0  0  0  0  0  0  0  0  0  0
   58.4487   35.2286   44.3789 H   0  0  0  0  0  0  0  0  0  0  0  0
   57.9454   33.0200   43.3315 H   0  0  0  0  0  0  0  0  0  0  0  0
   60.2869   30.0623   44.1899 H   0  0  0  0  0  0  0  0  0  0  0  0
   61.5507   28.0875   45.0427 H   0  0  0  0  0  0  0  0  0  0  0  0
   60.3959   26.3696   46.4403 H   0  0  0  0  0  0  0  0  0  0  0  0
   57.9723   26.6235   46.9828 H   0  0  0  0  0  0  0  0  0  0  0  0
   56.7000   28.5953   46.1318 H   0  0  0  0  0  0  0  0  0  0  0  0
  1  2  1  0
  2  3  1  0
  3  4  2  0
  2  5  2  3
  5  6  1  0
  6  7  2  0
  7  8  1  0
  8  9  2  0
  9 10  1  0
 10 11  2  0
  5 12  1  0
 12 13  2  0
 13 14  1  0
 14 15  2  0
 15 16  1  0
 16 17  2  0
 11  6  1  0
 17 12  1  0
  1 18  1  0
  1 19  1  0
  1 20  1  0
  3 21  1  0
  7 22  1  0
  8 23  1  0
  9 24  1  0
 10 25  1  0
 11 26  1  0
 13 27  1  0
 14 28  1  0
 15 29  1  0
 16 30  1  0
 17 31  1  0
M  END
>  <UniqueID>  (39) 
36

>  <SMILES>  (39) 
CC(C=O)=C(c1ccccc1)c1ccccc1

>  <Energy>  (39) 
46.61247757542706

>  <Genealogy>  (39) 
CC(C=O)=C(c1ccccc1)c1ccccc1 (3D coordinates assigned)
CC(C=O)=C(c1ccccc1)c1ccccc1 (optimized conformer: 46.61247757542706 kcal/mol)

>  <smiles>  (39) 
CC(C=O)=C(c1ccccc1)c1ccccc1

>  <score_type>  (39) 
oracle

>  <origin>  (39) 
adg

>  <m_score__min__energy>  (39) 
-7.4199999999999999

>  <m_primary>  (39) 
energy

$$$$
39:0
     RDKit          3D

 72 76  0  0  1  0  0  0  0  0999 V2000
   56.3820   28.9810   42.4500 N   0  0  0  0  0  0  0  0  0  0  0  0
   56.9530   30.0230   43.7040 S   0  0  0  0  0  0  0  0  0  0  0  0
   57.7320   31.1440   43.0450 O   0  0  0  0  0  0  0  0  0  0  0  0
   55.7780   30.5610   44.4680 O   0  0  0  0  0  0  0  0  0  0  0  0
   57.9870   29.1440   44.8080 C   0  0  0  0  0  0  0  0  0  0  0  0
   57.3640   28.1940   45.6250 C   0  0  0  0  0  0  0  0  0  0  0  0
   58.1290   27.4710   46.5150 C   0  0  0  0  0  0  0  0  0  0  0  0
   59.5090   27.6540   46.6290 C   0  0  0  0  0  0  0  0  0  0  0  0
   60.2750   26.8950   47.5560 N   0  0  0  0  0  0  0  0  0  0  0  0
   60.5220   27.4080   48.7150 C   0  0  0  0  0  0  0  0  0  0  0  0
   60.3360   28.7740   48.9620 C   0  0  0  0  0  0  0  0  0  0  0  0
   60.5970   29.3300   50.1920 C   0  0  0  0  0  0  0  0  0  0  0  0
   60.4060   30.7230   50.4590 N   0  0  0  0  0  0  0  0  0  0  0  0
   60.1220   31.6520   49.3940 C   0  0  0  0  0  0  0  0  0  0  0  0
   59.8040   33.0260   49.9110 C   0  0  0  0  0  0  0  0  0  0  0  0
   60.9700   33.9270   49.5580 C   0  0  0  0  0  0  0  0  0  0  0  0
   61.2070   34.0160   48.1530 N   0  0  0  0  0  0  0  0  0  0  0  0
   60.2980   34.9460   47.5270 C   0  0  0  0  0  0  0  0  0  0  0  0
   59.2680   34.3180   46.7030 C   0  0  0  0  0  0  0  0  0  0  0  0
   58.1490   33.6740   47.1610 C   0  0  0  0  0  0  0  0  0  0  0  0
   57.2250   33.1120   46.3020 C   0  0  0  0  0  0  0  0  0  0  0  0
   57.3950   33.1780   44.9400 C   0  0  0  0  0  0  0  0  0  0  0  0
   58.5230   33.8260   44.4450 C   0  0  0  0  0  0  0  0  0  0  0  0
   59.4270   34.3770   45.3170 C   0  0  0  0  0  0  0  0  0  0  0  0
   61.0880   32.7660   47.4470 C   0  0  0  0  0  0  0  0  0  0  0  0
   61.2950   31.6400   48.4390 C   0  0  0  0  0  0  0  0  0  0  0  0
   61.0430   28.4970   51.1530 N   0  0  0  0  0  0  0  0  0  0  0  0
   61.2370   27.1810   50.9590 C   0  0  0  0  0  0  0  0  0  0  0  0
   61.6650   26.4220   51.9100 N   0  0  0  0  0  0  0  0  0  0  0  0
   62.5510   26.9410   52.9420 C   0  0  0  0  0  0  0  0  0  0  0  0
   63.8970   27.2390   52.3990 C   0  0  0  0  0  0  0  0  0  0  0  0
   64.7130   26.1390   52.1100 C   0  0  0  0  0  0  0  0  0  0  0  0
   65.9930   26.3540   51.5960 C   0  0  0  0  0  0  0  0  0  0  0  0
   66.4360   27.6410   51.3820 C   0  0  0  0  0  0  0  0  0  0  0  0
   65.6290   28.7360   51.6680 C   0  0  0  0  0  0  0  0  0  0  0  0
   64.3670   28.5050   52.1750 C   0  0  0  0  0  0  0  0  0  0  0  0
   60.9740   26.6650   49.7510 N   0  0  0  0  0  0  0  0  0  0  0  0
   60.0890   28.6110   45.7960 C   0  0  0  0  0  0  0  0  0  0  0  0
   59.3440   29.3480   44.8970 C   0  0  0  0  0  0  0  0  0  0  0  0
   55.3650   29.1210   42.2570 H   0  0  0  0  0  0  0  0  0  0  0  0
   56.6370   27.9870   42.6320 H   0  0  0  0  0  0  0  0  0  0  0  0
   56.2789   28.0265   45.5579 H   0  0  0  0  0  0  0  0  0  0  0  0
   57.6365   26.7254   47.1565 H   0  0  0  0  0  0  0  0  0  0  0  0
   59.9711   29.4197   48.1496 H   0  0  0  0  0  0  0  0  0  0  0  0
   60.4800   31.0390   51.4550 H   0  0  0  0  0  0  0  0  0  0  0  0
   59.2152   31.3393   48.8556 H   0  0  0  0  0  0  0  0  0  0  0  0
   58.8836   33.4009   49.4395 H   0  0  0  0  0  0  0  0  0  0  0  0
   59.6476   33.0036   50.9996 H   0  0  0  0  0  0  0  0  0  0  0  0
   60.7605   34.9364   49.9418 H   0  0  0  0  0  0  0  0  0  0  0  0
   61.8705   33.4900   50.0143 H   0  0  0  0  0  0  0  0  0  0  0  0
   59.8001   35.5262   48.3178 H   0  0  0  0  0  0  0  0  0  0  0  0
   60.9020   35.5716   46.8534 H   0  0  0  0  0  0  0  0  0  0  0  0
   57.9813   33.6023   48.2458 H   0  0  0  0  0  0  0  0  0  0  0  0
   56.3404   32.6043   46.7140 H   0  0  0  0  0  0  0  0  0  0  0  0
   56.6578   32.7297   44.2577 H   0  0  0  0  0  0  0  0  0  0  0  0
   58.6886   33.8959   43.3598 H   0  0  0  0  0  0  0  0  0  0  0  0
   60.3125   34.8856   44.9082 H   0  0  0  0  0  0  0  0  0  0  0  0
   60.0874   32.6864   46.9970 H   0  0  0  0  0  0  0  0  0  0  0  0
   61.8396   32.7093   46.6459 H   0  0  0  0  0  0  0  0  0  0  0  0
   61.3382   30.6767   47.9097 H   0  0  0  0  0  0  0  0  0  0  0  0
   62.2401   31.7748   48.9855 H   0  0  0  0  0  0  0  0  0  0  0  0
   61.2430   28.9160   52.0880 H   0  0  0  0  0  0  0  0  0  0  0  0
   62.1185   27.8649   53.3536 H   0  0  0  0  0  0  0  0  0  0  0  0
   62.6553   26.1761   53.7256 H   0  0  0  0  0  0  0  0  0  0  0  0
   64.3494   25.1159   52.2861 H   0  0  0  0  0  0  0  0  0  0  0  0
   66.6452   25.4995   51.3628 H   0  0  0  0  0  0  0  0  0  0  0  0
   67.4458   27.8048   50.9778 H   0  0  0  0  0  0  0  0  0  0  0  0
   65.9877   29.7613   51.4944 H   0  0  0  0  0  0  0  0  0  0  0  0
   63.7192   29.3635   52.4061 H   0  0  0  0  0  0  0  0  0  0  0  0
   61.1370   25.6370   49.6390 H   0  0  0  0  0  0  0  0  0  0  0  0
   61.1736   28.7838   45.8573 H   0  0  0  0  0  0  0  0  0  0  0  0
   59.8337   30.0949   44.2549 H   0  0  0  0  0  0  0  0  0  0  0  0
  1  2  1  0
  2  3  2  0
  2  4  2  0
  2  5  1  0
  5  6  2  0
  6  7  1  0
  7  8  2  0
  8  9  1  0
  9 10  2  0
 10 11  1  0
 11 12  2  0
 12 13  1  0
 13 14  1  0
 14 15  1  0
 15 16  1  0
 16 17  1  0
 17 18  1  0
 18 19  1  0
 19 20  2  0
 20 21  1  0
 21 22  2  0
 22 23  1  0
 23 24  2  0
 17 25  1  0
 25 26  1  0
 12 27  1  0
 27 28  1  0
 28 29  2  0
 29 30  1  0
 30 31  1  0
 31 32  2  0
 32 33  1  0
 33 34  2  0
 34 35  1  0
 35 36  2  0
 28 37  1  0
  8 38  1  0
 38 39  2  0
 39  5  1  0
 37 10  1  0
 26 14  1  0
 36 31  1  0
 24 19  1  0
  1 40  1  0
  1 41  1  0
  6 42  1  0
  7 43  1  0
 11 44  1  0
 13 45  1  0
 14 46  1  0
 15 47  1  0
 15 48  1  0
 16 49  1  0
 16 50  1  0
 18 51  1  0
 18 52  1  0
 20 53  1  0
 21 54  1  0
 22 55  1  0
 23 56  1  0
 24 57  1  0
 25 58  1  0
 25 59  1  0
 26 60  1  0
 26 61  1  0
 27 62  1  0
 30 63  1  0
 30 64  1  0
 32 65  1  0
 33 66  1  0
 34 67  1  0
 35 68  1  0
 36 69  1  0
 37 70  1  0
 38 71  1  0
 39 72  1  0
M  END
>  <smiles>  (40) 
NS(=O)(=O)c1ccc(N=c2cc(NC3CCN(Cc4ccccc4)CC3)[nH]c(=NCc3ccccc3)[nH]2)cc1

>  <score_type>  (40) 
oracle

>  <origin>  (40) 
adg

>  <m_score__min__energy>  (40) 
-11.01

>  <m_primary>  (40) 
energy

$$$$
40:0
     RDKit          3D

 59 62  0  0  0  0  0  0  0  0999 V2000
   64.6260   32.7990   49.1890 C   0  0  0  0  0  0  0  0  0  0  0  0
   63.3900   33.2270   48.4520 C   0  0  0  0  0  0  0  0  0  0  0  0
   63.4280   33.4150   47.0630 C   0  0  0  0  0  0  0  0  0  0  0  0
   62.2850   33.8320   46.3780 C   0  0  0  0  0  0  0  0  0  0  0  0
   61.0950   34.0830   47.0750 C   0  0  0  0  0  0  0  0  0  0  0  0
   59.6520   34.5950   46.2040 S   0  0  0  0  0  0  0  0  0  0  0  0
   59.9160   34.6540   44.7240 O   0  0  0  0  0  0  0  0  0  0  0  0
   59.2590   35.9600   46.6910 O   0  0  0  0  0  0  0  0  0  0  0  0
   58.3440   33.4940   46.5030 N   0  0  0  0  0  0  0  0  0  0  0  0
   58.3800   32.0790   46.2670 C   0  0  0  0  0  0  0  0  0  0  0  0
   57.6000   31.5570   45.2310 C   0  0  0  0  0  0  0  0  0  0  0  0
   57.5720   30.1800   44.9870 C   0  0  0  0  0  0  0  0  0  0  0  0
   58.3330   29.3000   45.7770 C   0  0  0  0  0  0  0  0  0  0  0  0
   58.2650   27.8320   45.5650 C   0  0  0  0  0  0  0  0  0  0  0  0
   59.3310   27.1620   45.4850 O   0  0  0  0  0  0  0  0  0  0  0  0
   57.0020   27.1640   45.4320 N   0  0  0  0  0  0  0  0  0  0  0  0
   56.7670   25.8220   45.8920 C   0  0  0  0  0  0  0  0  0  0  0  0
   55.8260   24.9880   45.2630 C   0  0  0  0  0  0  0  0  0  0  0  0
   55.6410   23.6750   45.7030 C   0  0  0  0  0  0  0  0  0  0  0  0
   56.3870   23.1770   46.7780 C   0  0  0  0  0  0  0  0  0  0  0  0
   56.1390   21.5210   47.3420 S   0  0  0  0  0  0  0  0  0  0  0  0
   54.7100   21.3510   47.7790 O   0  0  0  0  0  0  0  0  0  0  0  0
   57.0200   21.2690   48.5330 O   0  0  0  0  0  0  0  0  0  0  0  0
   56.5040   20.3520   46.0920 N   0  0  0  0  0  0  0  0  0  0  0  0
   55.2610   19.8210   45.5000 C   0  0  0  0  0  0  0  0  0  0  0  0
   55.5410   19.2030   44.1200 C   0  0  0  0  0  0  0  0  0  0  0  0
   56.0790   20.1170   43.1710 O   0  0  0  0  0  0  0  0  0  0  0  0
   56.7250   21.2400   43.7580 C   0  0  0  0  0  0  0  0  0  0  0  0
   57.4360   20.9030   45.0820 C   0  0  0  0  0  0  0  0  0  0  0  0
   57.3410   23.9980   47.3950 C   0  0  0  0  0  0  0  0  0  0  0  0
   57.5340   25.3100   46.9500 C   0  0  0  0  0  0  0  0  0  0  0  0
   59.1260   29.8310   46.8100 C   0  0  0  0  0  0  0  0  0  0  0  0
   59.1560   31.2080   47.0490 C   0  0  0  0  0  0  0  0  0  0  0  0
   61.0580   33.9130   48.4630 C   0  0  0  0  0  0  0  0  0  0  0  0
   62.2010   33.4930   49.1510 C   0  0  0  0  0  0  0  0  0  0  0  0
   64.4468   32.8611   50.2725 H   0  0  0  0  0  0  0  0  0  0  0  0
   64.8745   31.7625   48.9172 H   0  0  0  0  0  0  0  0  0  0  0  0
   65.4623   33.4599   48.9172 H   0  0  0  0  0  0  0  0  0  0  0  0
   64.3619   33.2333   46.5109 H   0  0  0  0  0  0  0  0  0  0  0  0
   62.3185   33.9641   45.2865 H   0  0  0  0  0  0  0  0  0  0  0  0
   57.0034   32.2346   44.6026 H   0  0  0  0  0  0  0  0  0  0  0  0
   56.9502   29.7826   44.1713 H   0  0  0  0  0  0  0  0  0  0  0  0
   56.2330   27.6540   44.9210 H   0  0  0  0  0  0  0  0  0  0  0  0
   55.2323   25.3713   44.4200 H   0  0  0  0  0  0  0  0  0  0  0  0
   54.9051   23.0289   45.2020 H   0  0  0  0  0  0  0  0  0  0  0  0
   54.8449   19.0492   46.1643 H   0  0  0  0  0  0  0  0  0  0  0  0
   54.5438   20.6464   45.3805 H   0  0  0  0  0  0  0  0  0  0  0  0
   56.2576   18.3786   44.2499 H   0  0  0  0  0  0  0  0  0  0  0  0
   54.5726   18.8663   43.7215 H   0  0  0  0  0  0  0  0  0  0  0  0
   57.4714   21.6254   43.0478 H   0  0  0  0  0  0  0  0  0  0  0  0
   55.9479   21.9853   43.9830 H   0  0  0  0  0  0  0  0  0  0  0  0
   58.2224   20.1601   44.8828 H   0  0  0  0  0  0  0  0  0  0  0  0
   57.8590   21.8349   45.4852 H   0  0  0  0  0  0  0  0  0  0  0  0
   57.9398   23.6093   48.2318 H   0  0  0  0  0  0  0  0  0  0  0  0
   58.2919   25.9447   47.4325 H   0  0  0  0  0  0  0  0  0  0  0  0
   59.7284   29.1563   47.4359 H   0  0  0  0  0  0  0  0  0  0  0  0
   59.7899   31.6109   47.8527 H   0  0  0  0  0  0  0  0  0  0  0  0
   60.1272   34.1102   49.0150 H   0  0  0  0  0  0  0  0  0  0  0  0
   62.1687   33.3705   50.2437 H   0  0  0  0  0  0  0  0  0  0  0  0
  1  2  1  0
  2  3  2  0
  3  4  1  0
  4  5  2  0
  5  6  1  0
  6  7  2  0
  6  8  2  0
  6  9  1  0
  9 10  1  0
 10 11  2  0
 11 12  1  0
 12 13  2  0
 13 14  1  0
 14 15  2  0
 14 16  1  0
 16 17  1  0
 17 18  2  0
 18 19  1  0
 19 20  2  0
 20 21  1  0
 21 22  2  0
 21 23  2  0
 21 24  1  0
 24 25  1  0
 25 26  1  0
 26 27  1  0
 27 28  1  0
 28 29  1  0
 20 30  1  0
 30 31  2  0
 13 32  1  0
 32 33  2  0
  5 34  1  0
 34 35  2  0
 35  2  1  0
 33 10  1  0
 31 17  1  0
 29 24  1  0
  1 36  1  0
  1 37  1  0
  1 38  1  0
  3 39  1  0
  4 40  1  0
 11 41  1  0
 12 42  1  0
 16 43  1  0
 18 44  1  0
 19 45  1  0
 25 46  1  0
 25 47  1  0
 26 48  1  0
 26 49  1  0
 28 50  1  0
 28 51  1  0
 29 52  1  0
 29 53  1  0
 30 54  1  0
 31 55  1  0
 32 56  1  0
 33 57  1  0
 34 58  1  0
 35 59  1  0
M  CHG  1   9  -1
M  END
>  <UniqueID>  (41) 
37

>  <SMILES>  (41) 
Cc1ccc(S(=O)(=O)[N-]c2ccc(C(=O)Nc3ccc(S(=O)(=O)N4CCOCC4)cc3)cc2)cc1

>  <Energy>  (41) 
82.35898108152547

>  <Genealogy>  (41) 
Cc1ccc(S(=O)(=O)[N-]c2ccc(C(=O)Nc3ccc(S(=O)(=O)N4CCOCC4)cc3)cc2)cc1 (protonated)
Cc1ccc(S(=O)(=O)[N-]c2ccc(C(=O)Nc3ccc(S(=O)(=O)N4CCOCC4)cc3)cc2)cc1 (3D coordinates assigned)
Cc1ccc(S(=O)(=O)[N-]c2ccc(C(=O)Nc3ccc(S(=O)(=O)N4CCOCC4)cc3)cc2)cc1 (nonaromatic ring conformer: 82.35898108152547 kcal/mol)

>  <smiles>  (41) 
Cc1ccc(S(=O)(=O)Nc2ccc(C(=O)Nc3ccc(S(=O)(=O)N4CCOCC4)cc3)cc2)cc1

>  <score_type>  (41) 
oracle

>  <origin>  (41) 
adg

>  <m_score__min__energy>  (41) 
-10.77

>  <m_primary>  (41) 
energy

$$$$
41:0
     RDKit          3D

 40 42  0  0  0  0  0  0  0  0999 V2000
   55.8790   29.2040   45.2510 O   0  0  0  0  0  0  0  0  0  0  0  0
   56.5900   30.0290   44.6180 C   0  0  0  0  0  0  0  0  0  0  0  0
   57.7270   29.5190   43.7750 C   0  0  0  0  0  0  0  0  0  0  0  0
   58.6480   28.6860   44.6180 C   0  0  0  0  0  0  0  0  0  0  0  0
   59.9970   29.0100   44.8380 C   0  0  0  0  0  0  0  0  0  0  0  0
   60.6740   28.0730   45.6070 C   0  0  0  0  0  0  0  0  0  0  0  0
   59.5990   26.8390   45.9950 S   0  0  0  0  0  0  0  0  0  0  0  0
   58.2630   27.4800   45.1970 C   0  0  0  0  0  0  0  0  0  0  0  0
   56.3830   31.4300   44.8340 N   0  0  0  0  0  0  0  0  0  0  0  0
   57.4010   32.3900   45.1520 C   0  0  0  0  0  0  0  0  0  0  0  0
   57.4170   33.6450   44.5180 C   0  0  0  0  0  0  0  0  0  0  0  0
   58.3680   34.6030   44.8710 C   0  0  0  0  0  0  0  0  0  0  0  0
   59.3010   34.3270   45.8690 C   0  0  0  0  0  0  0  0  0  0  0  0
   59.2820   33.0940   46.5240 C   0  0  0  0  0  0  0  0  0  0  0  0
   58.3250   32.1170   46.1840 C   0  0  0  0  0  0  0  0  0  0  0  0
   58.2970   30.8430   46.8570 N   0  0  0  0  0  0  0  0  0  0  0  0
   59.2040   30.5100   48.2990 S   0  0  0  0  0  0  0  0  0  0  0  0
   59.3520   29.0210   48.4560 O   0  0  0  0  0  0  0  0  0  0  0  0
   58.4670   31.0560   49.4880 O   0  0  0  0  0  0  0  0  0  0  0  0
   60.7810   31.2900   48.2040 C   0  0  0  0  0  0  0  0  0  0  0  0
   61.7010   30.9270   47.2070 C   0  0  0  0  0  0  0  0  0  0  0  0
   62.9440   31.5660   47.1340 C   0  0  0  0  0  0  0  0  0  0  0  0
   63.2720   32.5690   48.0510 C   0  0  0  0  0  0  0  0  0  0  0  0
   62.3600   32.9280   49.0500 C   0  0  0  0  0  0  0  0  0  0  0  0
   61.1160   32.2900   49.1270 C   0  0  0  0  0  0  0  0  0  0  0  0
   57.3271   28.9052   42.9544 H   0  0  0  0  0  0  0  0  0  0  0  0
   58.2843   30.3720   43.3606 H   0  0  0  0  0  0  0  0  0  0  0  0
   60.4715   29.9188   44.4393 H   0  0  0  0  0  0  0  0  0  0  0  0
   61.7300   28.1281   45.9099 H   0  0  0  0  0  0  0  0  0  0  0  0
   57.2624   27.0262   45.1426 H   0  0  0  0  0  0  0  0  0  0  0  0
   56.6749   33.8730   43.7387 H   0  0  0  0  0  0  0  0  0  0  0  0
   58.3814   35.5775   44.3609 H   0  0  0  0  0  0  0  0  0  0  0  0
   60.0535   35.0818   46.1411 H   0  0  0  0  0  0  0  0  0  0  0  0
   60.0202   32.8835   47.3119 H   0  0  0  0  0  0  0  0  0  0  0  0
   57.6190   30.1090   46.5490 H   0  0  0  0  0  0  0  0  0  0  0  0
   61.4444   30.1398   46.4828 H   0  0  0  0  0  0  0  0  0  0  0  0
   63.6641   31.2786   46.3538 H   0  0  0  0  0  0  0  0  0  0  0  0
   64.2463   33.0757   47.9874 H   0  0  0  0  0  0  0  0  0  0  0  0
   62.6208   33.7124   49.7757 H   0  0  0  0  0  0  0  0  0  0  0  0
   60.4007   32.5740   49.9129 H   0  0  0  0  0  0  0  0  0  0  0  0
  1  2  2  0
  2  3  1  0
  3  4  1  0
  4  5  1  0
  5  6  2  0
  6  7  1  0
  7  8  1  0
  2  9  1  0
  9 10  1  0
 10 11  2  0
 11 12  1  0
 12 13  2  0
 13 14  1  0
 14 15  2  0
 15 16  1  0
 16 17  1  0
 17 18  2  0
 17 19  2  0
 17 20  1  0
 20 21  2  0
 21 22  1  0
 22 23  2  0
 23 24  1  0
 24 25  2  0
  8  4  2  0
 15 10  1  0
 25 20  1  0
  3 26  1  0
  3 27  1  0
  5 28  1  0
  6 29  1  0
  8 30  1  0
 11 31  1  0
 12 32  1  0
 13 33  1  0
 14 34  1  0
 16 35  1  0
 21 36  1  0
 22 37  1  0
 23 38  1  0
 24 39  1  0
 25 40  1  0
M  CHG  1   9  -1
M  END
>  <UniqueID>  (42) 
38

>  <SMILES>  (42) 
O=C(Cc1ccsc1)[N-]c1ccccc1NS(=O)(=O)c1ccccc1

>  <Energy>  (42) 
74.86919191631166

>  <Genealogy>  (42) 
O=C(Cc1ccsc1)[N-]c1ccccc1NS(=O)(=O)c1ccccc1 (protonated)
O=C(Cc1ccsc1)[N-]c1ccccc1NS(=O)(=O)c1ccccc1 (3D coordinates assigned)
O=C(Cc1ccsc1)[N-]c1ccccc1NS(=O)(=O)c1ccccc1 (optimized conformer: 74.86919191631166 kcal/mol)

>  <smiles>  (42) 
O=C(Cc1ccsc1)Nc1ccccc1NS(=O)(=O)c1ccccc1

>  <score_type>  (42) 
oracle

>  <origin>  (42) 
adg

>  <m_score__min__energy>  (42) 
-10.949999999999999

>  <m_primary>  (42) 
energy

$$$$
42:0
     RDKit          3D

 32 33  0  0  0  0  0  0  0  0999 V2000
   55.1240   26.4200   45.9980 N   0  0  0  0  0  0  0  0  0  0  0  0
   56.7480   25.8330   46.0740 S   0  0  0  0  0  0  0  0  0  0  0  0
   57.0070   25.2490   47.4340 O   0  0  0  0  0  0  0  0  0  0  0  0
   56.9380   24.7580   45.0430 O   0  0  0  0  0  0  0  0  0  0  0  0
   57.8660   27.1590   45.7670 C   0  0  0  0  0  0  0  0  0  0  0  0
   59.1600   26.8950   45.2980 C   0  0  0  0  0  0  0  0  0  0  0  0
   60.0420   27.9470   45.0480 C   0  0  0  0  0  0  0  0  0  0  0  0
   59.6450   29.2670   45.2770 C   0  0  0  0  0  0  0  0  0  0  0  0
   58.3650   29.5460   45.7780 C   0  0  0  0  0  0  0  0  0  0  0  0
   57.9730   30.9130   45.9870 N   0  0  0  0  0  0  0  0  0  0  0  0
   57.1120   31.6460   45.1030 C   0  0  0  0  0  0  0  0  0  0  0  0
   56.4350   31.0500   44.2220 O   0  0  0  0  0  0  0  0  0  0  0  0
   57.0100   33.1350   45.2260 C   0  0  0  0  0  0  0  0  0  0  0  0
   58.1870   33.6520   45.9170 N   0  0  0  0  0  0  0  0  0  0  0  0
   59.1590   34.4070   45.3660 C   0  0  0  0  0  0  0  0  0  0  0  0
   60.0540   34.7580   46.3550 C   0  0  0  0  0  0  0  0  0  0  0  0
   59.5360   34.1730   47.4970 C   0  0  0  0  0  0  0  0  0  0  0  0
   60.0990   34.2560   48.8080 N   0  0  0  0  0  0  0  0  0  0  0  0
   61.2950   34.5800   48.9650 O   0  0  0  0  0  0  0  0  0  0  0  0
   59.3230   33.9800   49.9090 O   0  0  0  0  0  0  0  0  0  0  0  0
   58.3980   33.5110   47.2150 N   0  0  0  0  0  0  0  0  0  0  0  0
   57.4700   28.4830   46.0060 C   0  0  0  0  0  0  0  0  0  0  0  0
   55.1770   27.4640   46.0070 H   0  0  0  0  0  0  0  0  0  0  0  0
   59.4809   25.8569   45.1267 H   0  0  0  0  0  0  0  0  0  0  0  0
   61.0531   27.7365   44.6694 H   0  0  0  0  0  0  0  0  0  0  0  0
   60.3403   30.0921   45.0631 H   0  0  0  0  0  0  0  0  0  0  0  0
   58.2800   31.3830   46.8680 H   0  0  0  0  0  0  0  0  0  0  0  0
   56.9491   33.5817   44.2226 H   0  0  0  0  0  0  0  0  0  0  0  0
   56.1076   33.3927   45.7997 H   0  0  0  0  0  0  0  0  0  0  0  0
   59.2267   34.6945   44.3064 H   0  0  0  0  0  0  0  0  0  0  0  0
   60.9677   35.3628   46.2583 H   0  0  0  0  0  0  0  0  0  0  0  0
   56.4546   28.6923   46.3736 H   0  0  0  0  0  0  0  0  0  0  0  0
  1  2  1  0
  2  3  2  0
  2  4  2  0
  2  5  1  0
  5  6  2  0
  6  7  1  0
  7  8  2  0
  8  9  1  0
  9 10  1  0
 10 11  1  0
 11 12  2  0
 11 13  1  0
 13 14  1  0
 14 15  1  0
 15 16  2  0
 16 17  1  0
 17 18  1  0
 18 19  2  0
 18 20  1  0
 17 21  2  0
  9 22  2  0
 22  5  1  0
 21 14  1  0
  1 23  1  0
  6 24  1  0
  7 25  1  0
  8 26  1  0
 10 27  1  0
 13 28  1  0
 13 29  1  0
 15 30  1  0
 16 31  1  0
 22 32  1  0
M  CHG  3   1  -1  18   1  20  -1
M  END
>  <UniqueID>  (43) 
39

>  <SMILES>  (43) 
[NH-]S(=O)(=O)c1cccc(NC(=O)Cn2ccc([N+](=O)[O-])n2)c1

>  <Energy>  (43) 
62.389176713762666

>  <Genealogy>  (43) 
[NH-]S(=O)(=O)c1cccc(NC(=O)Cn2ccc([N+](=O)[O-])n2)c1 (protonated)
[NH-]S(=O)(=O)c1cccc(NC(=O)Cn2ccc([N+](=O)[O-])n2)c1 (3D coordinates assigned)
[NH-]S(=O)(=O)c1cccc(NC(=O)Cn2ccc([N+](=O)[O-])n2)c1 (optimized conformer: 62.389176713762666 kcal/mol)

>  <smiles>  (43) 
NS(=O)(=O)c1cccc(NC(=O)Cn2ccc([N+](=O)[O-])n2)c1

>  <score_type>  (43) 
oracle

>  <origin>  (43) 
adg

>  <m_score__min__energy>  (43) 
-10.6

>  <m_primary>  (43) 
energy

$$$$
43:0
     RDKit          3D

 37 39  0  0  0  0  0  0  0  0999 V2000
   55.4910   29.7230   43.7970 C   0  0  0  0  0  0  0  0  0  0  0  0
   55.7610   28.8480   44.8860 O   0  0  0  0  0  0  0  0  0  0  0  0
   57.0410   28.6210   45.4130 C   0  0  0  0  0  0  0  0  0  0  0  0
   58.0180   29.6390   45.5380 C   0  0  0  0  0  0  0  0  0  0  0  0
   59.2890   29.3500   46.0800 C   0  0  0  0  0  0  0  0  0  0  0  0
   59.6050   28.0470   46.5050 C   0  0  0  0  0  0  0  0  0  0  0  0
   58.6290   27.0640   46.3680 C   0  0  0  0  0  0  0  0  0  0  0  0
   58.7220   25.7710   46.7200 N   0  0  0  0  0  0  0  0  0  0  0  0
   57.5290   25.2150   46.4000 C   0  0  0  0  0  0  0  0  0  0  0  0
   57.1970   23.8020   46.6640 C   0  0  0  0  0  0  0  0  0  0  0  0
   57.3980   23.3380   47.8190 O   0  0  0  0  0  0  0  0  0  0  0  0
   56.6680   22.9430   45.6360 N   0  0  0  0  0  0  0  0  0  0  0  0
   55.7400   21.8610   45.9820 C   0  0  0  0  0  0  0  0  0  0  0  0
   56.3710   20.4870   45.6760 C   0  0  0  0  0  0  0  0  0  0  0  0
   57.4010   20.5370   44.6150 N   0  0  0  0  0  0  0  0  0  0  0  0
   57.1390   21.5890   43.6220 C   0  0  0  0  0  0  0  0  0  0  0  0
   57.2290   22.9750   44.2770 C   0  0  0  0  0  0  0  0  0  0  0  0
   56.6680   26.1680   45.8560 C   0  0  0  0  0  0  0  0  0  0  0  0
   57.3940   27.3400   45.8410 C   0  0  0  0  0  0  0  0  0  0  0  0
   55.1874   30.7070   44.1838 H   0  0  0  0  0  0  0  0  0  0  0  0
   56.3967   29.8341   43.1826 H   0  0  0  0  0  0  0  0  0  0  0  0
   54.6802   29.3044   43.1826 H   0  0  0  0  0  0  0  0  0  0  0  0
   57.7845   30.6627   45.2102 H   0  0  0  0  0  0  0  0  0  0  0  0
   60.0383   30.1502   46.1707 H   0  0  0  0  0  0  0  0  0  0  0  0
   60.5913   27.8124   46.9318 H   0  0  0  0  0  0  0  0  0  0  0  0
   59.5460   25.2960   47.1530 H   0  0  0  0  0  0  0  0  0  0  0  0
   55.5011   21.9185   47.0542 H   0  0  0  0  0  0  0  0  0  0  0  0
   54.8248   21.9729   45.3821 H   0  0  0  0  0  0  0  0  0  0  0  0
   56.8365   20.1043   46.5962 H   0  0  0  0  0  0  0  0  0  0  0  0
   55.5642   19.8321   45.3150 H   0  0  0  0  0  0  0  0  0  0  0  0
   57.4320   19.6120   44.1270 H   0  0  0  0  0  0  0  0  0  0  0  0
   58.3410   20.7010   45.0480 H   0  0  0  0  0  0  0  0  0  0  0  0
   57.8836   21.5199   42.8152 H   0  0  0  0  0  0  0  0  0  0  0  0
   56.1269   21.4514   43.2137 H   0  0  0  0  0  0  0  0  0  0  0  0
   58.2839   23.2826   44.3286 H   0  0  0  0  0  0  0  0  0  0  0  0
   56.6528   23.6909   43.6724 H   0  0  0  0  0  0  0  0  0  0  0  0
   55.6337   26.0172   45.5132 H   0  0  0  0  0  0  0  0  0  0  0  0
  1  2  1  0
  2  3  1  0
  3  4  2  0
  4  5  1  0
  5  6  2  0
  6  7  1  0
  7  8  1  0
  8  9  1  0
  9 10  1  0
 10 11  2  0
 10 12  1  0
 12 13  1  0
 13 14  1  0
 14 15  1  0
 15 16  1  0
 16 17  1  0
  9 18  2  0
 18 19  1  0
 19  3  1  0
 19  7  2  0
 17 12  1  0
  1 20  1  0
  1 21  1  0
  1 22  1  0
  4 23  1  0
  5 24  1  0
  6 25  1  0
  8 26  1  0
 13 27  1  0
 13 28  1  0
 14 29  1  0
 14 30  1  0
 15 31  1  0
 15 32  1  0
 16 33  1  0
 16 34  1  0
 17 35  1  0
 17 36  1  0
 18 37  1  0
M  CHG  1  15   1
M  END
>  <UniqueID>  (44) 
40

>  <SMILES>  (44) 
COc1cccc2[nH]c(C(=O)N3CC[NH2+]CC3)cc12

>  <Energy>  (44) 
77.73582219327137

>  <Genealogy>  (44) 
COc1cccc2[nH]c(C(=O)N3CC[NH2+]CC3)cc12 (protonated)
COc1cccc2[nH]c(C(=O)N3CC[NH2+]CC3)cc12 (3D coordinates assigned)
COc1cccc2[nH]c(C(=O)N3CC[NH2+]CC3)cc12 (nonaromatic ring conformer: 77.73582219327137 kcal/mol)

>  <smiles>  (44) 
COc1cccc2[nH]c(C(=O)N3CCNCC3)cc12

>  <score_type>  (44) 
oracle

>  <origin>  (44) 
adg

>  <m_score__min__energy>  (44) 
-5.7199999999999998

>  <m_primary>  (44) 
energy

$$$$
44:0
     RDKit          3D

 27 28  0  0  0  0  0  0  0  0999 V2000
   55.1730   29.1250   44.4780 N   0  0  0  0  0  0  0  0  0  0  0  0
   56.3730   29.9060   44.5470 C   0  0  0  0  0  0  0  0  0  0  0  0
   56.2800   31.3040   44.4660 C   0  0  0  0  0  0  0  0  0  0  0  0
   57.4160   32.1000   44.6260 C   0  0  0  0  0  0  0  0  0  0  0  0
   58.6540   31.5080   44.8790 C   0  0  0  0  0  0  0  0  0  0  0  0
   58.7630   30.1170   44.9480 C   0  0  0  0  0  0  0  0  0  0  0  0
   57.6390   29.3050   44.7530 C   0  0  0  0  0  0  0  0  0  0  0  0
   57.8200   27.8810   44.7640 N   0  0  0  0  0  0  0  0  0  0  0  0
   57.6390   27.0230   45.8990 C   0  0  0  0  0  0  0  0  0  0  0  0
   58.0600   27.4110   47.0210 O   0  0  0  0  0  0  0  0  0  0  0  0
   57.0000   25.6900   45.7820 C   0  0  0  0  0  0  0  0  0  0  0  0
   57.7900   24.5410   45.5980 C   0  0  0  0  0  0  0  0  0  0  0  0
   57.1940   23.2810   45.4800 C   0  0  0  0  0  0  0  0  0  0  0  0
   58.1920   21.8590   45.2390 Cl  0  0  0  0  0  0  0  0  0  0  0  0
   55.8050   23.1550   45.5550 C   0  0  0  0  0  0  0  0  0  0  0  0
   55.0100   24.2870   45.7530 C   0  0  0  0  0  0  0  0  0  0  0  0
   55.5980   25.5510   45.8670 C   0  0  0  0  0  0  0  0  0  0  0  0
   54.7830   26.6630   46.0460 O   0  0  0  0  0  0  0  0  0  0  0  0
   54.3370   29.4470   43.9430 H   0  0  0  0  0  0  0  0  0  0  0  0
   55.1440   28.1620   44.8810 H   0  0  0  0  0  0  0  0  0  0  0  0
   55.3050   31.7761   44.2751 H   0  0  0  0  0  0  0  0  0  0  0  0
   57.3349   33.1945   44.5525 H   0  0  0  0  0  0  0  0  0  0  0  0
   59.5447   32.1370   45.0242 H   0  0  0  0  0  0  0  0  0  0  0  0
   59.7396   29.6559   45.1572 H   0  0  0  0  0  0  0  0  0  0  0  0
   58.8849   24.6339   45.5465 H   0  0  0  0  0  0  0  0  0  0  0  0
   55.3368   22.1644   45.4582 H   0  0  0  0  0  0  0  0  0  0  0  0
   53.9169   24.1836   45.8195 H   0  0  0  0  0  0  0  0  0  0  0  0
  1  2  1  0
  2  3  2  0
  3  4  1  0
  4  5  2  0
  5  6  1  0
  6  7  2  0
  7  8  1  0
  8  9  1  0
  9 10  2  0
  9 11  1  0
 11 12  2  0
 12 13  1  0
 13 14  1  0
 13 15  2  0
 15 16  1  0
 16 17  2  0
 17 18  1  0
  7  2  1  0
 17 11  1  0
  1 19  1  0
  1 20  1  0
  3 21  1  0
  4 22  1  0
  5 23  1  0
  6 24  1  0
 12 25  1  0
 15 26  1  0
 16 27  1  0
M  CHG  2   8  -1  18  -1
M  END
>  <UniqueID>  (45) 
41

>  <SMILES>  (45) 
Nc1ccccc1[N-]C(=O)c1cc(Cl)ccc1[O-]

>  <Energy>  (45) 
38.17388496693524

>  <Genealogy>  (45) 
Nc1ccccc1[N-]C(=O)c1cc(Cl)ccc1[O-] (protonated)
Nc1ccccc1[N-]C(=O)c1cc(Cl)ccc1[O-] (3D coordinates assigned)
Nc1ccccc1[N-]C(=O)c1cc(Cl)ccc1[O-] (optimized conformer: 38.17388496693524 kcal/mol)

>  <smiles>  (45) 
Nc1ccccc1NC(=O)c1cc(Cl)ccc1O

>  <score_type>  (45) 
oracle

>  <origin>  (45) 
adg

>  <m_score__min__energy>  (45) 
-12.99

>  <m_primary>  (45) 
energy

$$$$
45:0
     RDKit          3D

 50 53  0  0  0  0  0  0  0  0999 V2000
   59.2640   35.2380   45.0490 O   0  0  0  0  0  0  0  0  0  0  0  0
   58.7430   34.1450   45.3970 C   0  0  0  0  0  0  0  0  0  0  0  0
   57.6090   33.5900   44.5860 C   0  0  0  0  0  0  0  0  0  0  0  0
   58.1580   32.4130   43.2970 S   0  0  0  0  0  0  0  0  0  0  0  0
   57.6010   30.9510   44.1670 C   0  0  0  0  0  0  0  0  0  0  0  0
   56.3430   30.7900   44.6270 N   0  0  0  0  0  0  0  0  0  0  0  0
   56.1480   29.6110   45.2170 N   0  0  0  0  0  0  0  0  0  0  0  0
   57.2480   28.8210   45.2320 C   0  0  0  0  0  0  0  0  0  0  0  0
   57.2760   27.4700   45.8360 C   0  0  0  0  0  0  0  0  0  0  0  0
   58.4810   26.9420   46.3290 C   0  0  0  0  0  0  0  0  0  0  0  0
   58.5170   25.6680   46.9020 C   0  0  0  0  0  0  0  0  0  0  0  0
   57.3490   24.8910   46.9910 C   0  0  0  0  0  0  0  0  0  0  0  0
   57.3860   23.5410   47.5990 C   0  0  0  0  0  0  0  0  0  0  0  0
   57.3070   23.4090   48.8520 O   0  0  0  0  0  0  0  0  0  0  0  0
   57.5160   22.3800   46.7690 N   0  0  0  0  0  0  0  0  0  0  0  0
   56.3990   21.5180   46.4020 C   0  0  0  0  0  0  0  0  0  0  0  0
   55.2720   22.3360   45.8240 C   0  0  0  0  0  0  0  0  0  0  0  0
   54.0980   22.5270   46.5730 C   0  0  0  0  0  0  0  0  0  0  0  0
   53.0480   23.2940   46.0610 C   0  0  0  0  0  0  0  0  0  0  0  0
   53.1600   23.8800   44.7990 C   0  0  0  0  0  0  0  0  0  0  0  0
   54.3230   23.7040   44.0480 C   0  0  0  0  0  0  0  0  0  0  0  0
   55.3830   22.9380   44.5510 C   0  0  0  0  0  0  0  0  0  0  0  0
   56.8290   22.7580   43.5640 Cl  0  0  0  0  0  0  0  0  0  0  0  0
   56.1450   25.4180   46.4930 C   0  0  0  0  0  0  0  0  0  0  0  0
   56.1080   26.6940   45.9240 C   0  0  0  0  0  0  0  0  0  0  0  0
   58.5450   29.5940   44.4720 S   0  0  0  0  0  0  0  0  0  0  0  0
   59.1500   33.5070   46.6130 N   0  0  0  0  0  0  0  0  0  0  0  0
   60.4690   33.0080   46.8790 C   0  0  0  0  0  0  0  0  0  0  0  0
   61.5500   33.8880   46.7400 C   0  0  0  0  0  0  0  0  0  0  0  0
   62.8550   33.4500   46.9750 C   0  0  0  0  0  0  0  0  0  0  0  0
   63.0900   32.1320   47.3720 C   0  0  0  0  0  0  0  0  0  0  0  0
   62.0190   31.2560   47.5540 C   0  0  0  0  0  0  0  0  0  0  0  0
   60.7050   31.6840   47.3180 C   0  0  0  0  0  0  0  0  0  0  0  0
   59.3960   30.5610   47.6740 Cl  0  0  0  0  0  0  0  0  0  0  0  0
   56.9160   33.0694   45.2633 H   0  0  0  0  0  0  0  0  0  0  0  0
   57.1267   34.4358   44.0742 H   0  0  0  0  0  0  0  0  0  0  0  0
   59.4041   27.5366   46.2634 H   0  0  0  0  0  0  0  0  0  0  0  0
   59.4675   25.2698   47.2867 H   0  0  0  0  0  0  0  0  0  0  0  0
   56.7366   20.7861   45.6535 H   0  0  0  0  0  0  0  0  0  0  0  0
   56.0381   20.9988   47.3021 H   0  0  0  0  0  0  0  0  0  0  0  0
   54.0051   22.0696   47.5691 H   0  0  0  0  0  0  0  0  0  0  0  0
   52.1320   23.4362   46.6533 H   0  0  0  0  0  0  0  0  0  0  0  0
   52.3312   24.4808   44.3963 H   0  0  0  0  0  0  0  0  0  0  0  0
   54.4081   24.1695   43.0550 H   0  0  0  0  0  0  0  0  0  0  0  0
   55.2232   24.8206   46.5516 H   0  0  0  0  0  0  0  0  0  0  0  0
   55.1571   27.0939   45.5421 H   0  0  0  0  0  0  0  0  0  0  0  0
   61.3696   34.9318   46.4435 H   0  0  0  0  0  0  0  0  0  0  0  0
   63.6988   34.1440   46.8472 H   0  0  0  0  0  0  0  0  0  0  0  0
   64.1197   31.7841   47.5413 H   0  0  0  0  0  0  0  0  0  0  0  0
   62.2069   30.2238   47.8845 H   0  0  0  0  0  0  0  0  0  0  0  0
  1  2  2  0
  2  3  1  0
  3  4  1  0
  4  5  1  0
  5  6  2  0
  6  7  1  0
  7  8  2  0
  8  9  1  0
  9 10  2  0
 10 11  1  0
 11 12  2  0
 12 13  1  0
 13 14  2  0
 13 15  1  0
 15 16  1  0
 16 17  1  0
 17 18  2  0
 18 19  1  0
 19 20  2  0
 20 21  1  0
 21 22  2  0
 22 23  1  0
 12 24  1  0
 24 25  2  0
  8 26  1  0
  2 27  1  0
 27 28  1  0
 28 29  2  0
 29 30  1  0
 30 31  2  0
 31 32  1  0
 32 33  2  0
 33 34  1  0
 26  5  1  0
 33 28  1  0
 25  9  1  0
 22 17  1  0
  3 35  1  0
  3 36  1  0
 10 37  1  0
 11 38  1  0
 16 39  1  0
 16 40  1  0
 18 41  1  0
 19 42  1  0
 20 43  1  0
 21 44  1  0
 24 45  1  0
 25 46  1  0
 29 47  1  0
 30 48  1  0
 31 49  1  0
 32 50  1  0
M  CHG  2  15  -1  27  -1
M  END
>  <UniqueID>  (46) 
42

>  <SMILES>  (46) 
O=C(CSc1nnc(-c2ccc(C(=O)[N-]Cc3ccccc3Cl)cc2)s1)[N-]c1ccccc1Cl

>  <Energy>  (46) 
91.83000809649846

>  <Genealogy>  (46) 
O=C(CSc1nnc(-c2ccc(C(=O)[N-]Cc3ccccc3Cl)cc2)s1)[N-]c1ccccc1Cl (protonated)
O=C(CSc1nnc(-c2ccc(C(=O)[N-]Cc3ccccc3Cl)cc2)s1)[N-]c1ccccc1Cl (3D coordinates assigned)
O=C(CSc1nnc(-c2ccc(C(=O)[N-]Cc3ccccc3Cl)cc2)s1)[N-]c1ccccc1Cl (optimized conformer: 91.83000809649846 kcal/mol)

>  <smiles>  (46) 
O=C(CSc1nnc(-c2ccc(C(=O)NCc3ccccc3Cl)cc2)s1)Nc1ccccc1Cl

>  <score_type>  (46) 
oracle

>  <origin>  (46) 
adg

>  <m_score__min__energy>  (46) 
-12.970000000000001

>  <m_primary>  (46) 
energy

$$$$
46:0
     RDKit          3D

 67 71  0  0  0  0  0  0  0  0999 V2000
   63.7000   32.9990   47.2850 C   0  0  0  0  0  0  0  0  0  0  0  0
   62.7390   33.4910   46.3540 O   0  0  0  0  0  0  0  0  0  0  0  0
   61.4060   33.7860   46.6750 C   0  0  0  0  0  0  0  0  0  0  0  0
   60.3960   33.8920   45.6980 C   0  0  0  0  0  0  0  0  0  0  0  0
   59.0900   34.2210   46.0720 C   0  0  0  0  0  0  0  0  0  0  0  0
   58.7730   34.4310   47.4170 C   0  0  0  0  0  0  0  0  0  0  0  0
   59.7650   34.2940   48.4030 C   0  0  0  0  0  0  0  0  0  0  0  0
   59.4900   34.4300   49.7700 O   0  0  0  0  0  0  0  0  0  0  0  0
   59.9030   33.5270   50.7940 C   0  0  0  0  0  0  0  0  0  0  0  0
   58.9670   32.3610   51.0190 C   0  0  0  0  0  0  0  0  0  0  0  0
   57.7950   32.5440   51.7750 C   0  0  0  0  0  0  0  0  0  0  0  0
   57.0800   31.3790   52.0110 C   0  0  0  0  0  0  0  0  0  0  0  0
   57.9030   30.1060   51.2940 S   0  0  0  0  0  0  0  0  0  0  0  0
   59.1730   31.0150   50.6820 C   0  0  0  0  0  0  0  0  0  0  0  0
   60.4730   30.2950   49.6800 S   0  0  0  0  0  0  0  0  0  0  0  0
   59.3830   29.7580   48.3180 C   0  0  0  0  0  0  0  0  0  0  0  0
   58.9150   30.9980   47.5640 C   0  0  0  0  0  0  0  0  0  0  0  0
   59.3760   30.9910   46.2160 O   0  0  0  0  0  0  0  0  0  0  0  0
   58.5820   30.5260   45.1630 C   0  0  0  0  0  0  0  0  0  0  0  0
   57.7380   31.3830   44.4270 C   0  0  0  0  0  0  0  0  0  0  0  0
   56.8880   30.8610   43.4330 C   0  0  0  0  0  0  0  0  0  0  0  0
   56.8660   29.4820   43.1790 C   0  0  0  0  0  0  0  0  0  0  0  0
   57.7170   28.6550   43.9140 C   0  0  0  0  0  0  0  0  0  0  0  0
   58.5670   29.1630   44.8520 C   0  0  0  0  0  0  0  0  0  0  0  0
   59.2610   28.0600   45.5510 C   0  0  0  0  0  0  0  0  0  0  0  0
   58.5760   26.8190   45.1180 N   0  0  0  0  0  0  0  0  0  0  0  0
   57.5350   26.2310   46.3990 S   0  0  0  0  0  0  0  0  0  0  0  0
   56.1040   26.5310   46.0510 O   0  0  0  0  0  0  0  0  0  0  0  0
   57.8760   26.9420   47.6800 O   0  0  0  0  0  0  0  0  0  0  0  0
   57.7360   24.4660   46.6420 C   0  0  0  0  0  0  0  0  0  0  0  0
   57.3630   23.7120   45.3960 C   0  0  0  0  0  0  0  0  0  0  0  0
   56.3160   24.1670   44.5760 C   0  0  0  0  0  0  0  0  0  0  0  0
   55.9940   23.4790   43.4010 C   0  0  0  0  0  0  0  0  0  0  0  0
   56.7170   22.3400   43.0350 C   0  0  0  0  0  0  0  0  0  0  0  0
   57.7660   21.8880   43.8410 C   0  0  0  0  0  0  0  0  0  0  0  0
   58.0920   22.5720   45.0150 C   0  0  0  0  0  0  0  0  0  0  0  0
   57.7720   27.1780   43.9240 C   0  0  0  0  0  0  0  0  0  0  0  0
   61.0760   33.9820   48.0210 C   0  0  0  0  0  0  0  0  0  0  0  0
   63.3443   33.1811   48.3099 H   0  0  0  0  0  0  0  0  0  0  0  0
   63.8393   31.9187   47.1318 H   0  0  0  0  0  0  0  0  0  0  0  0
   64.6579   33.5176   47.1318 H   0  0  0  0  0  0  0  0  0  0  0  0
   60.6358   33.7155   44.6391 H   0  0  0  0  0  0  0  0  0  0  0  0
   58.3080   34.3151   45.3042 H   0  0  0  0  0  0  0  0  0  0  0  0
   57.7467   34.7036   47.7039 H   0  0  0  0  0  0  0  0  0  0  0  0
   60.8905   33.1267   50.5208 H   0  0  0  0  0  0  0  0  0  0  0  0
   59.9154   34.1026   51.7313 H   0  0  0  0  0  0  0  0  0  0  0  0
   57.4728   33.5276   52.1475 H   0  0  0  0  0  0  0  0  0  0  0  0
   56.1365   31.3033   52.5714 H   0  0  0  0  0  0  0  0  0  0  0  0
   59.9371   29.0953   47.6370 H   0  0  0  0  0  0  0  0  0  0  0  0
   58.5184   29.2081   48.7181 H   0  0  0  0  0  0  0  0  0  0  0  0
   57.8153   31.0245   47.5661 H   0  0  0  0  0  0  0  0  0  0  0  0
   59.3275   31.8853   48.0666 H   0  0  0  0  0  0  0  0  0  0  0  0
   57.7436   32.4640   44.6302 H   0  0  0  0  0  0  0  0  0  0  0  0
   56.2401   31.5361   42.8547 H   0  0  0  0  0  0  0  0  0  0  0  0
   56.1930   29.0613   42.4174 H   0  0  0  0  0  0  0  0  0  0  0  0
   60.3228   28.0322   45.2649 H   0  0  0  0  0  0  0  0  0  0  0  0
   59.2250   28.1844   46.6433 H   0  0  0  0  0  0  0  0  0  0  0  0
   58.7858   24.2532   46.8921 H   0  0  0  0  0  0  0  0  0  0  0  0
   57.0757   24.1444   47.4609 H   0  0  0  0  0  0  0  0  0  0  0  0
   55.7485   25.0659   44.8587 H   0  0  0  0  0  0  0  0  0  0  0  0
   55.1707   23.8349   42.7643 H   0  0  0  0  0  0  0  0  0  0  0  0
   56.4604   21.7990   42.1122 H   0  0  0  0  0  0  0  0  0  0  0  0
   58.3355   20.9928   43.5506 H   0  0  0  0  0  0  0  0  0  0  0  0
   58.9221   22.2171   45.6434 H   0  0  0  0  0  0  0  0  0  0  0  0
   58.2553   26.8052   43.0089 H   0  0  0  0  0  0  0  0  0  0  0  0
   56.7669   26.7326   43.9600 H   0  0  0  0  0  0  0  0  0  0  0  0
   61.8573   33.8897   48.7898 H   0  0  0  0  0  0  0  0  0  0  0  0
  1  2  1  0
  2  3  1  0
  3  4  2  0
  4  5  1  0
  5  6  2  0
  6  7  1  0
  7  8  1  0
  8  9  1  0
  9 10  1  0
 10 11  1  0
 11 12  2  0
 12 13  1  0
 13 14  1  0
 14 15  1  0
 15 16  1  0
 16 17  1  0
 17 18  1  0
 18 19  1  0
 19 20  2  0
 20 21  1  0
 21 22  2  0
 22 23  1  0
 23 24  2  0
 24 25  1  0
 25 26  1  0
 26 27  1  0
 27 28  2  0
 27 29  2  0
 27 30  1  0
 30 31  1  0
 31 32  2  0
 32 33  1  0
 33 34  2  0
 34 35  1  0
 35 36  2  0
 26 37  1  0
  7 38  2  0
 38  3  1  0
 14 10  2  0
 24 19  1  0
 36 31  1  0
 37 23  1  0
  1 39  1  0
  1 40  1  0
  1 41  1  0
  4 42  1  0
  5 43  1  0
  6 44  1  0
  9 45  1  0
  9 46  1  0
 11 47  1  0
 12 48  1  0
 16 49  1  0
 16 50  1  0
 17 51  1  0
 17 52  1  0
 20 53  1  0
 21 54  1  0
 22 55  1  0
 25 56  1  0
 25 57  1  0
 30 58  1  0
 30 59  1  0
 32 60  1  0
 33 61  1  0
 34 62  1  0
 35 63  1  0
 36 64  1  0
 37 65  1  0
 37 66  1  0
 38 67  1  0
M  END
>  <UniqueID>  (47) 
43

>  <SMILES>  (47) 
COc1cccc(OCc2ccsc2SCCOc2cccc3c2CN(S(=O)(=O)Cc2ccccc2)C3)c1

>  <Energy>  (47) 
103.77875219723441

>  <Genealogy>  (47) 
COc1cccc(OCc2ccsc2SCCOc2cccc3c2CN(S(=O)(=O)Cc2ccccc2)C3)c1 (3D coordinates assigned)
COc1cccc(OCc2ccsc2SCCOc2cccc3c2CN(S(=O)(=O)Cc2ccccc2)C3)c1 (nonaromatic ring conformer: 103.77875219723441 kcal/mol)

>  <smiles>  (47) 
COc1cccc(OCc2ccsc2SCCOc2cccc3c2CN(S(=O)(=O)Cc2ccccc2)C3)c1

>  <score_type>  (47) 
oracle

>  <origin>  (47) 
adg

>  <m_score__min__energy>  (47) 
-9.8300000000000001

>  <m_primary>  (47) 
energy

$$$$
47:0
     RDKit          3D

 47 49  0  0  0  0  0  0  0  0999 V2000
   59.6650   33.7540   50.2350 C   0  0  0  0  0  0  0  0  0  0  0  0
   59.9210   33.7710   48.7570 C   0  0  0  0  0  0  0  0  0  0  0  0
   61.2350   33.7920   48.2690 C   0  0  0  0  0  0  0  0  0  0  0  0
   61.4810   33.7600   46.8900 C   0  0  0  0  0  0  0  0  0  0  0  0
   62.8880   33.8310   46.3730 C   0  0  0  0  0  0  0  0  0  0  0  0
   60.4010   33.7260   45.9940 C   0  0  0  0  0  0  0  0  0  0  0  0
   59.0770   33.6860   46.4670 C   0  0  0  0  0  0  0  0  0  0  0  0
   57.9390   33.6270   45.5180 C   0  0  0  0  0  0  0  0  0  0  0  0
   57.1250   34.5880   45.4590 O   0  0  0  0  0  0  0  0  0  0  0  0
   57.8240   32.5180   44.6090 N   0  0  0  0  0  0  0  0  0  0  0  0
   57.6190   31.2550   44.8690 C   0  0  0  0  0  0  0  0  0  0  0  0
   56.6410   30.4870   44.2040 C   0  0  0  0  0  0  0  0  0  0  0  0
   56.4730   29.1430   44.5400 C   0  0  0  0  0  0  0  0  0  0  0  0
   57.2610   28.5560   45.5400 C   0  0  0  0  0  0  0  0  0  0  0  0
   57.0910   27.1300   45.9000 C   0  0  0  0  0  0  0  0  0  0  0  0
   58.0980   26.4260   46.1870 O   0  0  0  0  0  0  0  0  0  0  0  0
   55.7840   26.5430   45.9230 N   0  0  0  0  0  0  0  0  0  0  0  0
   55.5190   25.1710   46.3450 C   0  0  0  0  0  0  0  0  0  0  0  0
   56.0380   24.2010   45.3190 C   0  0  0  0  0  0  0  0  0  0  0  0
   55.2950   23.9220   44.1580 C   0  0  0  0  0  0  0  0  0  0  0  0
   55.7950   23.0360   43.2000 C   0  0  0  0  0  0  0  0  0  0  0  0
   57.0390   22.4270   43.3890 C   0  0  0  0  0  0  0  0  0  0  0  0
   57.7860   22.7050   44.5380 C   0  0  0  0  0  0  0  0  0  0  0  0
   57.2890   23.5900   45.4990 C   0  0  0  0  0  0  0  0  0  0  0  0
   58.2090   29.3570   46.1930 C   0  0  0  0  0  0  0  0  0  0  0  0
   58.3590   30.6670   45.8540 N   0  0  0  0  0  0  0  0  0  0  0  0
   58.8490   33.6980   47.8550 C   0  0  0  0  0  0  0  0  0  0  0  0
   60.6220   33.8175   50.7736 H   0  0  0  0  0  0  0  0  0  0  0  0
   59.0331   34.6122   50.5076 H   0  0  0  0  0  0  0  0  0  0  0  0
   59.1521   32.8198   50.5076 H   0  0  0  0  0  0  0  0  0  0  0  0
   62.0787   33.8339   48.9735 H   0  0  0  0  0  0  0  0  0  0  0  0
   63.5886   33.8664   47.2203 H   0  0  0  0  0  0  0  0  0  0  0  0
   63.0986   32.9423   45.7599 H   0  0  0  0  0  0  0  0  0  0  0  0
   63.0081   34.7363   45.7599 H   0  0  0  0  0  0  0  0  0  0  0  0
   60.5921   33.7307   44.9107 H   0  0  0  0  0  0  0  0  0  0  0  0
   56.0140   30.9448   43.4247 H   0  0  0  0  0  0  0  0  0  0  0  0
   55.7167   28.5397   44.0164 H   0  0  0  0  0  0  0  0  0  0  0  0
   56.0188   24.9840   47.3069 H   0  0  0  0  0  0  0  0  0  0  0  0
   54.4330   25.0324   46.4520 H   0  0  0  0  0  0  0  0  0  0  0  0
   54.3176   24.4025   44.0036 H   0  0  0  0  0  0  0  0  0  0  0  0
   55.2086   22.8174   42.2954 H   0  0  0  0  0  0  0  0  0  0  0  0
   57.4302   21.7292   42.6340 H   0  0  0  0  0  0  0  0  0  0  0  0
   58.7656   22.2268   44.6857 H   0  0  0  0  0  0  0  0  0  0  0  0
   57.8807   23.8086   46.4002 H   0  0  0  0  0  0  0  0  0  0  0  0
   58.8365   28.9233   46.9856 H   0  0  0  0  0  0  0  0  0  0  0  0
   59.0760   31.2310   46.3650 H   0  0  0  0  0  0  0  0  0  0  0  0
   57.8187   33.6496   48.2374 H   0  0  0  0  0  0  0  0  0  0  0  0
  1  2  1  0
  2  3  2  0
  3  4  1  0
  4  5  1  0
  4  6  2  0
  6  7  1  0
  7  8  1  0
  8  9  2  0
  8 10  1  0
 10 11  2  3
 11 12  1  0
 12 13  2  0
 13 14  1  0
 14 15  1  0
 15 16  2  0
 15 17  1  0
 17 18  1  0
 18 19  1  0
 19 20  2  0
 20 21  1  0
 21 22  2  0
 22 23  1  0
 23 24  2  0
 14 25  2  0
 25 26  1  0
  7 27  2  0
 27  2  1  0
 26 11  1  0
 24 19  1  0
  1 28  1  0
  1 29  1  0
  1 30  1  0
  3 31  1  0
  5 32  1  0
  5 33  1  0
  5 34  1  0
  6 35  1  0
 12 36  1  0
 13 37  1  0
 18 38  1  0
 18 39  1  0
 20 40  1  0
 21 41  1  0
 22 42  1  0
 23 43  1  0
 24 44  1  0
 25 45  1  0
 26 46  1  0
 27 47  1  0
M  CHG  1  17  -1
M  END
>  <UniqueID>  (48) 
44

>  <SMILES>  (48) 
Cc1cc(C)cc(C(=O)N=c2ccc(C(=O)[N-]Cc3ccccc3)c[nH]2)c1

>  <Energy>  (48) 
55.2445700354482

>  <Genealogy>  (48) 
Cc1cc(C)cc(C(=O)N=c2ccc(C(=O)[N-]Cc3ccccc3)c[nH]2)c1 (protonated)
Cc1cc(C)cc(C(=O)N=c2ccc(C(=O)[N-]Cc3ccccc3)c[nH]2)c1 (3D coordinates assigned)
Cc1cc(C)cc(C(=O)N=c2ccc(C(=O)[N-]Cc3ccccc3)c[nH]2)c1 (optimized conformer: 55.2445700354482 kcal/mol)

>  <smiles>  (48) 
Cc1cc(C)cc(C(=O)N=c2ccc(C(=O)NCc3ccccc3)c[nH]2)c1

>  <score_type>  (48) 
oracle

>  <origin>  (48) 
adg

>  <m_score__min__energy>  (48) 
-10.18

>  <m_primary>  (48) 
energy

$$$$
48:0
     RDKit          3D

 41 43  0  0  0  0  0  0  0  0999 V2000
   57.1090   33.4640   46.6230 C   0  0  0  0  0  0  0  0  0  0  0  0
   58.5110   33.5760   47.1550 C   0  0  0  0  0  0  0  0  0  0  0  0
   58.8440   32.9760   48.3820 C   0  0  0  0  0  0  0  0  0  0  0  0
   60.1410   33.1000   48.9120 C   0  0  0  0  0  0  0  0  0  0  0  0
   60.5000   32.5090   50.1740 N   0  0  0  0  0  0  0  0  0  0  0  0
   61.4710   31.4620   50.3400 C   0  0  0  0  0  0  0  0  0  0  0  0
   62.3420   31.3990   51.7250 S   0  0  0  0  0  0  0  0  0  0  0  0
   61.7030   30.4680   49.3270 N   0  0  0  0  0  0  0  0  0  0  0  0
   60.7000   29.9830   48.4180 C   0  0  0  0  0  0  0  0  0  0  0  0
   59.4880   29.4400   48.8800 C   0  0  0  0  0  0  0  0  0  0  0  0
   58.5320   28.9750   47.9740 C   0  0  0  0  0  0  0  0  0  0  0  0
   58.7760   29.0390   46.5910 C   0  0  0  0  0  0  0  0  0  0  0  0
   57.8290   28.5370   45.6380 N   0  0  0  0  0  0  0  0  0  0  0  0
   56.8280   29.3140   44.9700 C   0  0  0  0  0  0  0  0  0  0  0  0
   55.6140   29.0540   45.1830 O   0  0  0  0  0  0  0  0  0  0  0  0
   57.1820   30.3570   43.9890 C   0  0  0  0  0  0  0  0  0  0  0  0
   57.9530   31.4840   44.2480 C   0  0  0  0  0  0  0  0  0  0  0  0
   58.0760   32.3380   43.1450 C   0  0  0  0  0  0  0  0  0  0  0  0
   57.3930   31.8970   42.0190 C   0  0  0  0  0  0  0  0  0  0  0  0
   56.6370   30.4450   42.3970 S   0  0  0  0  0  0  0  0  0  0  0  0
   59.9990   29.5400   46.1330 C   0  0  0  0  0  0  0  0  0  0  0  0
   60.9540   30.0110   47.0390 C   0  0  0  0  0  0  0  0  0  0  0  0
   61.1170   33.7830   48.1760 C   0  0  0  0  0  0  0  0  0  0  0  0
   60.7990   34.3640   46.9470 C   0  0  0  0  0  0  0  0  0  0  0  0
   59.5010   34.2720   46.4360 C   0  0  0  0  0  0  0  0  0  0  0  0
   59.1500   35.0380   44.8890 Cl  0  0  0  0  0  0  0  0  0  0  0  0
   56.4014   33.4075   47.4633 H   0  0  0  0  0  0  0  0  0  0  0  0
   56.8785   34.3466   46.0083 H   0  0  0  0  0  0  0  0  0  0  0  0
   57.0215   32.5560   46.0083 H   0  0  0  0  0  0  0  0  0  0  0  0
   58.0829   32.4040   48.9329 H   0  0  0  0  0  0  0  0  0  0  0  0
   60.0440   32.8840   51.0370 H   0  0  0  0  0  0  0  0  0  0  0  0
   62.6620   30.0590   49.2610 H   0  0  0  0  0  0  0  0  0  0  0  0
   59.2917   29.3811   49.9607 H   0  0  0  0  0  0  0  0  0  0  0  0
   57.5843   28.5570   48.3442 H   0  0  0  0  0  0  0  0  0  0  0  0
   58.4205   31.6853   45.2232 H   0  0  0  0  0  0  0  0  0  0  0  0
   58.6589   33.2706   43.1682 H   0  0  0  0  0  0  0  0  0  0  0  0
   57.3538   32.4102   41.0468 H   0  0  0  0  0  0  0  0  0  0  0  0
   60.2106   29.5636   45.0538 H   0  0  0  0  0  0  0  0  0  0  0  0
   61.9111   30.4062   46.6677 H   0  0  0  0  0  0  0  0  0  0  0  0
   62.1414   33.8623   48.5689 H   0  0  0  0  0  0  0  0  0  0  0  0
   61.5743   34.8973   46.3774 H   0  0  0  0  0  0  0  0  0  0  0  0
  1  2  1  0
  2  3  2  0
  3  4  1  0
  4  5  1  0
  5  6  1  0
  6  7  2  0
  6  8  1  0
  8  9  1  0
  9 10  2  0
 10 11  1  0
 11 12  2  0
 12 13  1  0
 13 14  1  0
 14 15  2  0
 14 16  1  0
 16 17  2  0
 17 18  1  0
 18 19  2  0
 19 20  1  0
 12 21  1  0
 21 22  2  0
  4 23  2  0
 23 24  1  0
 24 25  2  0
 25 26  1  0
 25  2  1  0
 22  9  1  0
 20 16  1  0
  1 27  1  0
  1 28  1  0
  1 29  1  0
  3 30  1  0
  5 31  1  0
  8 32  1  0
 10 33  1  0
 11 34  1  0
 17 35  1  0
 18 36  1  0
 19 37  1  0
 21 38  1  0
 22 39  1  0
 23 40  1  0
 24 41  1  0
M  CHG  1  13  -1
M  END
>  <UniqueID>  (49) 
45

>  <SMILES>  (49) 
Cc1cc(NC(=S)Nc2ccc([N-]C(=O)c3cccs3)cc2)ccc1Cl

>  <Energy>  (49) 
78.25017945117956

>  <Genealogy>  (49) 
Cc1cc(NC(=S)Nc2ccc([N-]C(=O)c3cccs3)cc2)ccc1Cl (protonated)
Cc1cc(NC(=S)Nc2ccc([N-]C(=O)c3cccs3)cc2)ccc1Cl (3D coordinates assigned)
Cc1cc(NC(=S)Nc2ccc([N-]C(=O)c3cccs3)cc2)ccc1Cl (optimized conformer: 78.25017945117956 kcal/mol)

>  <smiles>  (49) 
Cc1cc(NC(=S)Nc2ccc(NC(=O)c3cccs3)cc2)ccc1Cl

>  <score_type>  (49) 
oracle

>  <origin>  (49) 
adg

>  <m_score__min__energy>  (49) 
-9.4000000000000004

>  <m_primary>  (49) 
energy

$$$$
49:0
     RDKit          3D

 43 45  0  0  0  0  0  0  0  0999 V2000
   57.5650   25.2570   44.8400 C   0  0  0  0  0  0  0  0  0  0  0  0
   56.7040   26.0500   46.1820 S   0  0  0  0  0  0  0  0  0  0  0  0
   57.6550   26.3710   47.3000 O   0  0  0  0  0  0  0  0  0  0  0  0
   55.6500   25.1130   46.7010 O   0  0  0  0  0  0  0  0  0  0  0  0
   55.9350   27.5000   45.6250 N   0  0  0  0  0  0  0  0  0  0  0  0
   56.6020   28.6450   45.0770 C   0  0  0  0  0  0  0  0  0  0  0  0
   57.9710   28.8870   45.2910 C   0  0  0  0  0  0  0  0  0  0  0  0
   58.5720   30.0390   44.7760 C   0  0  0  0  0  0  0  0  0  0  0  0
   57.8160   30.9710   44.0480 C   0  0  0  0  0  0  0  0  0  0  0  0
   58.4220   32.2760   43.6080 C   0  0  0  0  0  0  0  0  0  0  0  0
   57.9700   33.3570   44.4810 N   0  0  0  0  0  0  0  0  0  0  0  0
   58.3120   33.4700   45.8680 C   0  0  0  0  0  0  0  0  0  0  0  0
   57.6090   32.8710   46.7230 O   0  0  0  0  0  0  0  0  0  0  0  0
   59.4430   34.2470   46.2860 N   0  0  0  0  0  0  0  0  0  0  0  0
   60.0550   34.0810   47.5730 C   0  0  0  0  0  0  0  0  0  0  0  0
   59.2760   34.2990   48.7180 C   0  0  0  0  0  0  0  0  0  0  0  0
   59.8290   34.1610   49.9920 C   0  0  0  0  0  0  0  0  0  0  0  0
   61.1730   33.8230   50.1420 C   0  0  0  0  0  0  0  0  0  0  0  0
   61.9840   33.6310   49.0140 C   0  0  0  0  0  0  0  0  0  0  0  0
   63.3470   33.3300   49.1690 C   0  0  0  0  0  0  0  0  0  0  0  0
   64.1640   33.1740   48.0480 C   0  0  0  0  0  0  0  0  0  0  0  0
   63.6300   33.3140   46.7670 C   0  0  0  0  0  0  0  0  0  0  0  0
   62.2740   33.6020   46.5960 C   0  0  0  0  0  0  0  0  0  0  0  0
   61.4290   33.7600   47.7130 C   0  0  0  0  0  0  0  0  0  0  0  0
   56.4570   30.7140   43.8110 C   0  0  0  0  0  0  0  0  0  0  0  0
   55.8560   29.5580   44.3190 C   0  0  0  0  0  0  0  0  0  0  0  0
   54.5350   29.3420   44.0990 F   0  0  0  0  0  0  0  0  0  0  0  0
   58.3172   24.5642   45.2454 H   0  0  0  0  0  0  0  0  0  0  0  0
   56.8464   24.6978   44.2228 H   0  0  0  0  0  0  0  0  0  0  0  0
   58.0633   26.0191   44.2228 H   0  0  0  0  0  0  0  0  0  0  0  0
   58.5712   28.1665   45.8661 H   0  0  0  0  0  0  0  0  0  0  0  0
   59.6448   30.2165   44.9423 H   0  0  0  0  0  0  0  0  0  0  0  0
   59.5185   32.2031   43.6565 H   0  0  0  0  0  0  0  0  0  0  0  0
   58.1074   32.4902   42.5759 H   0  0  0  0  0  0  0  0  0  0  0  0
   59.7070   35.0870   45.7250 H   0  0  0  0  0  0  0  0  0  0  0  0
   58.2183   34.5817   48.6112 H   0  0  0  0  0  0  0  0  0  0  0  0
   59.2016   34.3196   50.8815 H   0  0  0  0  0  0  0  0  0  0  0  0
   61.5993   33.7064   51.1493 H   0  0  0  0  0  0  0  0  0  0  0  0
   63.7722   33.2168   50.1772 H   0  0  0  0  0  0  0  0  0  0  0  0
   65.2313   32.9401   48.1751 H   0  0  0  0  0  0  0  0  0  0  0  0
   64.2799   33.1970   45.8873 H   0  0  0  0  0  0  0  0  0  0  0  0
   61.8622   33.7064   45.5813 H   0  0  0  0  0  0  0  0  0  0  0  0
   55.8607   31.4263   43.2219 H   0  0  0  0  0  0  0  0  0  0  0  0
  1  2  1  0
  2  3  2  0
  2  4  2  0
  2  5  1  0
  5  6  1  0
  6  7  2  0
  7  8  1  0
  8  9  2  0
  9 10  1  0
 10 11  1  0
 11 12  1  0
 12 13  2  0
 12 14  1  0
 14 15  1  0
 15 16  2  0
 16 17  1  0
 17 18  2  0
 18 19  1  0
 19 20  2  0
 20 21  1  0
 21 22  2  0
 22 23  1  0
 23 24  2  0
  9 25  1  0
 25 26  2  0
 26 27  1  0
 26  6  1  0
 24 15  1  0
 24 19  1  0
  1 28  1  0
  1 29  1  0
  1 30  1  0
  7 31  1  0
  8 32  1  0
 10 33  1  0
 10 34  1  0
 14 35  1  0
 16 36  1  0
 17 37  1  0
 18 38  1  0
 20 39  1  0
 21 40  1  0
 22 41  1  0
 23 42  1  0
 25 43  1  0
M  CHG  2   5  -1  11  -1
M  END
>  <UniqueID>  (50) 
46

>  <SMILES>  (50) 
CS(=O)(=O)[N-]c1ccc(C[N-]C(=O)Nc2cccc3ccccc23)cc1F

>  <Energy>  (50) 
50.217199322393014

>  <Genealogy>  (50) 
CS(=O)(=O)[N-]c1ccc(C[N-]C(=O)Nc2cccc3ccccc23)cc1F (protonated)
CS(=O)(=O)[N-]c1ccc(C[N-]C(=O)Nc2cccc3ccccc23)cc1F (3D coordinates assigned)
CS(=O)(=O)[N-]c1ccc(C[N-]C(=O)Nc2cccc3ccccc23)cc1F (optimized conformer: 50.217199322393014 kcal/mol)

>  <smiles>  (50) 
CS(=O)(=O)Nc1ccc(CNC(=O)Nc2cccc3ccccc23)cc1F

>  <score_type>  (50) 
oracle

>  <origin>  (50) 
adg

>  <m_score__min__energy>  (50) 
-12.390000000000001

>  <m_primary>  (50) 
energy

$$$$
50:0
     RDKit          3D

 52 55  0  0  0  0  0  0  0  0999 V2000
   54.5845   24.7210   46.2799 H   0  0  0  0  0  0  0  0  0  0  0  0
   55.5080   25.3010   46.1360 C   0  0  0  0  0  0  0  0  0  0  0  0
   55.5060   26.6540   46.0100 N   0  0  0  0  0  0  0  0  0  0  0  0
   56.7600   27.1340   45.8540 C   0  0  0  0  0  0  0  0  0  0  0  0
   57.0440   28.3920   45.7190 N   0  0  0  0  0  0  0  0  0  0  0  0
   56.6230   29.3190   44.3150 S   0  0  0  0  0  0  0  0  0  0  0  0
   57.0710   28.5980   43.0740 O   0  0  0  0  0  0  0  0  0  0  0  0
   55.1300   29.4720   44.2580 O   0  0  0  0  0  0  0  0  0  0  0  0
   57.3710   30.9100   44.4080 C   0  0  0  0  0  0  0  0  0  0  0  0
   57.5800   31.6550   43.2410 C   0  0  0  0  0  0  0  0  0  0  0  0
   57.3045   31.2315   42.2639 H   0  0  0  0  0  0  0  0  0  0  0  0
   58.1370   32.9340   43.3130 C   0  0  0  0  0  0  0  0  0  0  0  0
   58.2972   33.5160   42.3934 H   0  0  0  0  0  0  0  0  0  0  0  0
   58.4910   33.4750   44.5520 C   0  0  0  0  0  0  0  0  0  0  0  0
   58.9161   34.4881   44.6057 H   0  0  0  0  0  0  0  0  0  0  0  0
   58.3070   32.7330   45.7260 C   0  0  0  0  0  0  0  0  0  0  0  0
   58.6580   33.3330   46.9810 N   0  0  0  0  0  0  0  0  0  0  0  0
   59.7330   34.2560   47.2080 C   0  0  0  0  0  0  0  0  0  0  0  0
   59.5310   35.4960   47.1040 O   0  0  0  0  0  0  0  0  0  0  0  0
   61.0640   33.7420   47.6180 C   0  0  0  0  0  0  0  0  0  0  0  0
   62.1360   33.8410   46.7110 C   0  0  0  0  0  0  0  0  0  0  0  0
   61.9721   34.2905   45.7205 H   0  0  0  0  0  0  0  0  0  0  0  0
   63.4050   33.3740   47.0570 C   0  0  0  0  0  0  0  0  0  0  0  0
   64.2373   33.4661   46.3437 H   0  0  0  0  0  0  0  0  0  0  0  0
   63.6190   32.7920   48.3030 C   0  0  0  0  0  0  0  0  0  0  0  0
   64.6189   32.4195   48.5702 H   0  0  0  0  0  0  0  0  0  0  0  0
   62.5680   32.6800   49.2140 C   0  0  0  0  0  0  0  0  0  0  0  0
   62.7461   32.2181   50.1963 H   0  0  0  0  0  0  0  0  0  0  0  0
   61.2820   33.1520   48.8890 C   0  0  0  0  0  0  0  0  0  0  0  0
   60.1860   33.0100   49.8070 N   0  0  0  0  0  0  0  0  0  0  0  0
   59.2890   31.5560   50.1040 S   0  0  0  0  0  0  0  0  0  0  0  0
   59.6140   31.0360   51.4770 O   0  0  0  0  0  0  0  0  0  0  0  0
   57.8200   31.8660   50.0500 O   0  0  0  0  0  0  0  0  0  0  0  0
   59.6600   30.3570   48.8660 C   0  0  0  0  0  0  0  0  0  0  0  0
   59.4840   28.9870   49.1160 C   0  0  0  0  0  0  0  0  0  0  0  0
   59.1087   28.6523   50.0943 H   0  0  0  0  0  0  0  0  0  0  0  0
   59.7840   28.0460   48.1260 C   0  0  0  0  0  0  0  0  0  0  0  0
   59.6568   26.9731   48.3329 H   0  0  0  0  0  0  0  0  0  0  0  0
   60.2470   28.4660   46.8690 C   0  0  0  0  0  0  0  0  0  0  0  0
   60.5890   27.4530   45.8190 C   0  0  0  0  0  0  0  0  0  0  0  0
   60.9051   26.5166   46.3020 H   0  0  0  0  0  0  0  0  0  0  0  0
   59.7055   27.2621   45.1921 H   0  0  0  0  0  0  0  0  0  0  0  0
   61.4074   27.8367   45.1921 H   0  0  0  0  0  0  0  0  0  0  0  0
   60.4390   29.8370   46.6270 C   0  0  0  0  0  0  0  0  0  0  0  0
   60.8227   30.1729   45.6523 H   0  0  0  0  0  0  0  0  0  0  0  0
   60.1440   30.7760   47.6210 C   0  0  0  0  0  0  0  0  0  0  0  0
   60.2929   31.8478   47.4236 H   0  0  0  0  0  0  0  0  0  0  0  0
   57.7290   31.4530   45.6490 C   0  0  0  0  0  0  0  0  0  0  0  0
   57.5570   30.8747   46.5688 H   0  0  0  0  0  0  0  0  0  0  0  0
   57.9120   25.9140   45.8550 S   0  0  0  0  0  0  0  0  0  0  0  0
   56.7620   24.7020   46.0700 C   0  0  0  0  0  0  0  0  0  0  0  0
   56.9670   23.6239   46.1452 H   0  0  0  0  0  0  0  0  0  0  0  0
  1  2  1  0
  2  3  1  0
  3  4  1  0
  4  5  2  0
  5  6  1  0
  6  7  2  0
  6  8  2  0
  6  9  1  0
  9 10  2  0
 10 11  1  0
 10 12  1  0
 12 13  1  0
 12 14  2  0
 14 15  1  0
 14 16  1  0
 16 17  1  0
 17 18  1  0
 18 19  2  0
 18 20  1  0
 20 21  2  0
 21 22  1  0
 21 23  1  0
 23 24  1  0
 23 25  2  0
 25 26  1  0
 25 27  1  0
 27 28  1  0
 27 29  2  0
 29 30  1  0
 30 31  1  0
 31 32  2  0
 31 33  2  0
 31 34  1  0
 34 35  2  0
 35 36  1  0
 35 37  1  0
 37 38  1  0
 37 39  2  0
 39 40  1  0
 40 41  1  0
 40 42  1  0
 40 43  1  0
 39 44  1  0
 44 45  1  0
 44 46  2  0
 46 47  1  0
 16 48  2  0
 48 49  1  0
  4 50  1  0
 50 51  1  0
 51 52  1  0
 51  2  2  0
 48  9  1  0
 29 20  1  0
 46 34  1  0
M  CHG  3   3  -1  17  -1  30  -1
M  END
>  <UniqueID>  (51) 
47

>  <SMILES>  (51) 
Cc1ccc(S(=O)(=O)[N-]c2ccccc2C(=O)[N-]c2cccc(S(=O)(=O)/N=c3\[n-]ccs3)c2)cc1

>  <Energy>  (51) 
99.11953693722336

>  <Genealogy>  (51) 
Cc1ccc(S(=O)(=O)[N-]c2ccccc2C(=O)[N-]c2cccc(S(=O)(=O)N=c3[n-]ccs3)c2)cc1 (protonated)
Cc1ccc(S(=O)(=O)[N-]c2ccccc2C(=O)[N-]c2cccc(S(=O)(=O)/N=c3\[n-]ccs3)c2)cc1 (cis-trans isomerization)
Cc1ccc(S(=O)(=O)[N-]c2ccccc2C(=O)[N-]c2cccc(S(=O)(=O)/N=c3\[n-]ccs3)c2)cc1 (3D coordinates assigned)
Cc1ccc(S(=O)(=O)[N-]c2ccccc2C(=O)[N-]c2cccc(S(=O)(=O)/N=c3\[n-]ccs3)c2)cc1 (optimized conformer: 99.11953693722336 kcal/mol)

>  <smiles>  (51) 
Cc1ccc(S(=O)(=O)Nc2ccccc2C(=O)Nc2cccc(S(=O)(=O)N=c3[nH]ccs3)c2)cc1

>  <score_type>  (51) 
oracle

>  <origin>  (51) 
adg

>  <m_score__min__energy>  (51) 
-14.369999999999999

>  <m_primary>  (51) 
energy

$$$$
51:0
     RDKit          3D

 49 50  0  0  0  0  0  0  0  0999 V2000
   59.7790   34.9390   46.4030 C   0  0  0  0  0  0  0  0  0  0  0  0
   60.2800   33.4930   46.4400 C   0  0  0  0  0  0  0  0  0  0  0  0
   59.2060   32.5170   46.0770 N   0  0  0  0  0  0  0  0  0  0  0  0
   58.5270   31.9830   47.2850 C   0  0  0  0  0  0  0  0  0  0  0  0
   59.3170   30.8570   47.9610 C   0  0  0  0  0  0  0  0  0  0  0  0
   58.2000   33.1480   45.1830 C   0  0  0  0  0  0  0  0  0  0  0  0
   57.0360   32.1910   44.8580 C   0  0  0  0  0  0  0  0  0  0  0  0
   57.4680   31.0270   43.9510 C   0  0  0  0  0  0  0  0  0  0  0  0
   57.4480   29.7350   44.6690 N   0  0  0  0  0  0  0  0  0  0  0  0
   58.6150   29.1750   45.1210 C   0  0  0  0  0  0  0  0  0  0  0  0
   59.7250   29.7320   44.9020 O   0  0  0  0  0  0  0  0  0  0  0  0
   58.5900   28.0090   45.8110 N   0  0  0  0  0  0  0  0  0  0  0  0
   57.4180   27.3840   46.0720 C   0  0  0  0  0  0  0  0  0  0  0  0
   57.4300   26.2570   46.7240 N   0  0  0  0  0  0  0  0  0  0  0  0
   56.4270   25.2270   46.6870 C   0  0  0  0  0  0  0  0  0  0  0  0
   55.5180   25.2130   45.6220 C   0  0  0  0  0  0  0  0  0  0  0  0
   54.5490   24.2090   45.5280 C   0  0  0  0  0  0  0  0  0  0  0  0
   54.4990   23.1870   46.4840 C   0  0  0  0  0  0  0  0  0  0  0  0
   53.2780   21.9250   46.3720 S   0  0  0  0  0  0  0  0  0  0  0  0
   54.0180   20.4290   45.9160 N   0  0  0  0  0  0  0  0  0  0  0  0
   52.2510   22.3100   45.3440 O   0  0  0  0  0  0  0  0  0  0  0  0
   52.6090   21.7430   47.7050 O   0  0  0  0  0  0  0  0  0  0  0  0
   55.4180   23.1840   47.5390 C   0  0  0  0  0  0  0  0  0  0  0  0
   56.3850   24.1890   47.6360 C   0  0  0  0  0  0  0  0  0  0  0  0
   56.2610   27.9240   45.6170 N   0  0  0  0  0  0  0  0  0  0  0  0
   56.2650   29.0890   44.9250 C   0  0  0  0  0  0  0  0  0  0  0  0
   55.1660   29.5650   44.5290 O   0  0  0  0  0  0  0  0  0  0  0  0
   59.6508   35.3090   47.4309 H   0  0  0  0  0  0  0  0  0  0  0  0
   60.5117   35.5676   45.8757 H   0  0  0  0  0  0  0  0  0  0  0  0
   58.8144   34.9795   45.8757 H   0  0  0  0  0  0  0  0  0  0  0  0
   61.1114   33.3871   45.7275 H   0  0  0  0  0  0  0  0  0  0  0  0
   60.6052   33.2729   47.4675 H   0  0  0  0  0  0  0  0  0  0  0  0
   59.6130   31.6970   45.5640 H   0  0  0  0  0  0  0  0  0  0  0  0
   58.3966   32.8031   48.0064 H   0  0  0  0  0  0  0  0  0  0  0  0
   57.5616   31.5643   46.9646 H   0  0  0  0  0  0  0  0  0  0  0  0
   59.2433   30.9621   49.0535 H   0  0  0  0  0  0  0  0  0  0  0  0
   58.9021   29.8845   47.6573 H   0  0  0  0  0  0  0  0  0  0  0  0
   60.3726   30.9162   47.6573 H   0  0  0  0  0  0  0  0  0  0  0  0
   57.7961   34.0431   45.6786 H   0  0  0  0  0  0  0  0  0  0  0  0
   58.7002   33.4080   44.2384 H   0  0  0  0  0  0  0  0  0  0  0  0
   56.6449   31.7784   45.7997 H   0  0  0  0  0  0  0  0  0  0  0  0
   56.2689   32.7675   44.3203 H   0  0  0  0  0  0  0  0  0  0  0  0
   56.7804   30.9690   43.0944 H   0  0  0  0  0  0  0  0  0  0  0  0
   58.4990   31.2173   43.6182 H   0  0  0  0  0  0  0  0  0  0  0  0
   55.5665   25.9981   44.8530 H   0  0  0  0  0  0  0  0  0  0  0  0
   53.8241   24.2221   44.7008 H   0  0  0  0  0  0  0  0  0  0  0  0
   54.3120   20.5270   44.9180 H   0  0  0  0  0  0  0  0  0  0  0  0
   55.3795   22.3868   48.2960 H   0  0  0  0  0  0  0  0  0  0  0  0
   57.1161   24.1682   48.4577 H   0  0  0  0  0  0  0  0  0  0  0  0
  1  2  1  0
  2  3  1  0
  3  4  1  0
  4  5  1  0
  3  6  1  0
  6  7  1  0
  7  8  1  0
  8  9  1  0
  9 10  1  0
 10 11  2  0
 10 12  1  0
 12 13  1  0
 13 14  2  3
 14 15  1  0
 15 16  2  0
 16 17  1  0
 17 18  2  0
 18 19  1  0
 19 20  1  0
 19 21  2  0
 19 22  2  0
 18 23  1  0
 23 24  2  0
 13 25  1  0
 25 26  1  0
 26 27  2  0
 26  9  1  0
 24 15  1  0
  1 28  1  0
  1 29  1  0
  1 30  1  0
  2 31  1  0
  2 32  1  0
  3 33  1  0
  4 34  1  0
  4 35  1  0
  5 36  1  0
  5 37  1  0
  5 38  1  0
  6 39  1  0
  6 40  1  0
  7 41  1  0
  7 42  1  0
  8 43  1  0
  8 44  1  0
 16 45  1  0
 17 46  1  0
 20 47  1  0
 23 48  1  0
 24 49  1  0
M  CHG  4   3   1  12  -1  20  -1  25  -1
M  END
>  <UniqueID>  (52) 
48

>  <SMILES>  (52) 
CC[NH+](CC)CCCn1c(=O)[n-]c(=Nc2ccc(S([NH-])(=O)=O)cc2)[n-]c1=O

>  <Energy>  (52) 
58.70688841027023

>  <Genealogy>  (52) 
CC[NH+](CC)CCCn1c(=O)[n-]c(=Nc2ccc(S([NH-])(=O)=O)cc2)[n-]c1=O (protonated)
CC[NH+](CC)CCCn1c(=O)[n-]c(=Nc2ccc(S([NH-])(=O)=O)cc2)[n-]c1=O (3D coordinates assigned)
CC[NH+](CC)CCCn1c(=O)[n-]c(=Nc2ccc(S([NH-])(=O)=O)cc2)[n-]c1=O (optimized conformer: 58.70688841027023 kcal/mol)

>  <smiles>  (52) 
CCN(CC)CCCn1c(=O)[nH]c(=Nc2ccc(S(N)(=O)=O)cc2)[nH]c1=O

>  <score_type>  (52) 
oracle

>  <origin>  (52) 
adg

>  <m_score__min__energy>  (52) 
-9.9399999999999995

>  <m_primary>  (52) 
energy

$$$$
52:0
     RDKit          3D

 72 76  0  0  0  0  0  0  0  0999 V2000
   57.7590   27.7940   43.0180 C   0  0  0  0  0  0  0  0  0  0  0  0
   57.6380   28.3910   44.3500 N   0  0  0  0  0  0  0  0  0  0  0  0
   56.8820   29.6130   44.5190 C   0  0  0  0  0  0  0  0  0  0  0  0
   55.6800   29.5590   44.9100 O   0  0  0  0  0  0  0  0  0  0  0  0
   57.5060   30.9510   44.2400 C   0  0  0  0  0  0  0  0  0  0  0  0
   56.7390   32.0170   44.7930 O   0  0  0  0  0  0  0  0  0  0  0  0
   57.2770   33.2800   45.0930 C   0  0  0  0  0  0  0  0  0  0  0  0
   56.7860   34.2970   44.5330 O   0  0  0  0  0  0  0  0  0  0  0  0
   58.3330   33.4590   46.1110 C   0  0  0  0  0  0  0  0  0  0  0  0
   58.1590   32.9700   47.4160 C   0  0  0  0  0  0  0  0  0  0  0  0
   59.0870   33.2830   48.4140 C   0  0  0  0  0  0  0  0  0  0  0  0
   60.2000   34.0900   48.1190 C   0  0  0  0  0  0  0  0  0  0  0  0
   61.1280   34.5190   49.1270 N   0  0  0  0  0  0  0  0  0  0  0  0
   62.5420   34.2750   49.1790 C   0  0  0  0  0  0  0  0  0  0  0  0
   63.2080   34.5120   50.2220 O   0  0  0  0  0  0  0  0  0  0  0  0
   63.2430   33.7970   47.9530 C   0  0  0  0  0  0  0  0  0  0  0  0
   63.7680   32.0610   48.1600 S   0  0  0  0  0  0  0  0  0  0  0  0
   62.1060   31.3740   48.1150 C   0  0  0  0  0  0  0  0  0  0  0  0
   61.4420   31.1250   46.9690 N   0  0  0  0  0  0  0  0  0  0  0  0
   60.3210   30.5020   47.3020 N   0  0  0  0  0  0  0  0  0  0  0  0
   60.3210   30.3720   48.6450 C   0  0  0  0  0  0  0  0  0  0  0  0
   59.2610   29.6210   49.4000 C   0  0  0  0  0  0  0  0  0  0  0  0
   58.8240   30.3590   50.6400 C   0  0  0  0  0  0  0  0  0  0  0  0
   58.0740   31.5250   50.6590 C   0  0  0  0  0  0  0  0  0  0  0  0
   57.7750   31.7830   51.9830 C   0  0  0  0  0  0  0  0  0  0  0  0
   58.3350   30.7640   52.7210 C   0  0  0  0  0  0  0  0  0  0  0  0
   58.9680   29.8980   51.9040 N   0  0  0  0  0  0  0  0  0  0  0  0
   59.6300   28.6660   52.3280 C   0  0  0  0  0  0  0  0  0  0  0  0
   61.4260   30.9280   49.1880 N   0  0  0  0  0  0  0  0  0  0  0  0
   61.8980   30.8140   50.5350 C   0  0  0  0  0  0  0  0  0  0  0  0
   62.5860   29.6650   50.9470 C   0  0  0  0  0  0  0  0  0  0  0  0
   63.0500   29.5600   52.2600 C   0  0  0  0  0  0  0  0  0  0  0  0
   62.8420   30.6070   53.1630 C   0  0  0  0  0  0  0  0  0  0  0  0
   62.1620   31.7590   52.7540 C   0  0  0  0  0  0  0  0  0  0  0  0
   61.6930   31.8640   51.4410 C   0  0  0  0  0  0  0  0  0  0  0  0
   60.4200   34.4910   46.7960 C   0  0  0  0  0  0  0  0  0  0  0  0
   59.4970   34.1770   45.7960 C   0  0  0  0  0  0  0  0  0  0  0  0
   58.4490   27.8770   45.4230 C   0  0  0  0  0  0  0  0  0  0  0  0
   57.8490   27.3090   46.5610 C   0  0  0  0  0  0  0  0  0  0  0  0
   58.6380   26.8760   47.6300 C   0  0  0  0  0  0  0  0  0  0  0  0
   60.0270   26.9850   47.5640 C   0  0  0  0  0  0  0  0  0  0  0  0
   60.6320   27.5230   46.4240 C   0  0  0  0  0  0  0  0  0  0  0  0
   59.8480   27.9720   45.3590 C   0  0  0  0  0  0  0  0  0  0  0  0
   57.9766   26.7202   43.1159 H   0  0  0  0  0  0  0  0  0  0  0  0
   56.8154   27.9283   42.4689 H   0  0  0  0  0  0  0  0  0  0  0  0
   58.5759   28.2851   42.4689 H   0  0  0  0  0  0  0  0  0  0  0  0
   58.5143   30.9724   44.6792 H   0  0  0  0  0  0  0  0  0  0  0  0
   57.5474   31.0888   43.1495 H   0  0  0  0  0  0  0  0  0  0  0  0
   57.2900   32.3388   47.6537 H   0  0  0  0  0  0  0  0  0  0  0  0
   58.9457   32.8963   49.4341 H   0  0  0  0  0  0  0  0  0  0  0  0
   62.5608   33.8698   47.0932 H   0  0  0  0  0  0  0  0  0  0  0  0
   64.1320   34.4219   47.7824 H   0  0  0  0  0  0  0  0  0  0  0  0
   58.3892   29.4806   48.7440 H   0  0  0  0  0  0  0  0  0  0  0  0
   59.6839   28.6541   49.7102 H   0  0  0  0  0  0  0  0  0  0  0  0
   57.7750   32.1277   49.7888 H   0  0  0  0  0  0  0  0  0  0  0  0
   57.2009   32.6368   52.3722 H   0  0  0  0  0  0  0  0  0  0  0  0
   58.2748   30.6704   53.8154 H   0  0  0  0  0  0  0  0  0  0  0  0
   59.6537   28.6219   53.4269 H   0  0  0  0  0  0  0  0  0  0  0  0
   59.0761   27.7993   51.9381 H   0  0  0  0  0  0  0  0  0  0  0  0
   60.6585   28.6495   51.9381 H   0  0  0  0  0  0  0  0  0  0  0  0
   62.7609   28.8447   50.2353 H   0  0  0  0  0  0  0  0  0  0  0  0
   63.5799   28.6522   52.5843 H   0  0  0  0  0  0  0  0  0  0  0  0
   63.2131   30.5248   54.1952 H   0  0  0  0  0  0  0  0  0  0  0  0
   61.9963   32.5818   53.4650 H   0  0  0  0  0  0  0  0  0  0  0  0
   61.1623   32.7719   51.1184 H   0  0  0  0  0  0  0  0  0  0  0  0
   61.3275   35.0582   46.5418 H   0  0  0  0  0  0  0  0  0  0  0  0
   59.6828   34.4932   44.7589 H   0  0  0  0  0  0  0  0  0  0  0  0
   56.7550   27.2052   46.6098 H   0  0  0  0  0  0  0  0  0  0  0  0
   58.1628   26.4484   48.5252 H   0  0  0  0  0  0  0  0  0  0  0  0
   60.6462   26.6479   48.4084 H   0  0  0  0  0  0  0  0  0  0  0  0
   61.7282   27.5928   46.3658 H   0  0  0  0  0  0  0  0  0  0  0  0
   60.3283   28.4014   44.4674 H   0  0  0  0  0  0  0  0  0  0  0  0
  1  2  1  0
  2  3  1  0
  3  4  2  0
  3  5  1  0
  5  6  1  0
  6  7  1  0
  7  8  2  0
  7  9  1  0
  9 10  2  0
 10 11  1  0
 11 12  2  0
 12 13  1  0
 13 14  1  0
 14 15  2  0
 14 16  1  0
 16 17  1  0
 17 18  1  0
 18 19  2  0
 19 20  1  0
 20 21  2  0
 21 22  1  0
 22 23  1  0
 23 24  2  0
 24 25  1  0
 25 26  2  0
 26 27  1  0
 27 28  1  0
 21 29  1  0
 29 30  1  0
 30 31  2  0
 31 32  1  0
 32 33  2  0
 33 34  1  0
 34 35  2  0
 12 36  1  0
 36 37  2  0
  2 38  1  0
 38 39  2  0
 39 40  1  0
 40 41  2  0
 41 42  1  0
 42 43  2  0
 37  9  1  0
 43 38  1  0
 29 18  1  0
 35 30  1  0
 27 23  1  0
  1 44  1  0
  1 45  1  0
  1 46  1  0
  5 47  1  0
  5 48  1  0
 10 49  1  0
 11 50  1  0
 16 51  1  0
 16 52  1  0
 22 53  1  0
 22 54  1  0
 24 55  1  0
 25 56  1  0
 26 57  1  0
 28 58  1  0
 28 59  1  0
 28 60  1  0
 31 61  1  0
 32 62  1  0
 33 63  1  0
 34 64  1  0
 35 65  1  0
 36 66  1  0
 37 67  1  0
 39 68  1  0
 40 69  1  0
 41 70  1  0
 42 71  1  0
 43 72  1  0
M  CHG  1  13  -1
M  END
>  <UniqueID>  (53) 
49

>  <SMILES>  (53) 
CN(C(=O)COC(=O)c1ccc([N-]C(=O)CSc2nnc(Cc3cccn3C)n2-c2ccccc2)cc1)c1ccccc1

>  <Energy>  (53) 
145.03336861404463

>  <Genealogy>  (53) 
CN(C(=O)COC(=O)c1ccc([N-]C(=O)CSc2nnc(Cc3cccn3C)n2-c2ccccc2)cc1)c1ccccc1 (protonated)
CN(C(=O)COC(=O)c1ccc([N-]C(=O)CSc2nnc(Cc3cccn3C)n2-c2ccccc2)cc1)c1ccccc1 (3D coordinates assigned)
CN(C(=O)COC(=O)c1ccc([N-]C(=O)CSc2nnc(Cc3cccn3C)n2-c2ccccc2)cc1)c1ccccc1 (optimized conformer: 145.03336861404463 kcal/mol)

>  <smiles>  (53) 
CN(C(=O)COC(=O)c1ccc(NC(=O)CSc2nnc(Cc3cccn3C)n2-c2ccccc2)cc1)c1ccccc1

>  <score_type>  (53) 
oracle

>  <origin>  (53) 
adg

>  <m_score__min__energy>  (53) 
-10.859999999999999

>  <m_primary>  (53) 
energy

$$$$
53:0
     RDKit          3D

 45 47  0  0  0  0  0  0  0  0999 V2000
   67.1660   32.3880   52.2080 N   0  0  0  0  0  0  0  0  0  0  0  0
   66.7790   33.4850   50.9320 S   0  0  0  0  0  0  0  0  0  0  0  0
   67.2090   34.8710   51.3220 O   0  0  0  0  0  0  0  0  0  0  0  0
   67.5130   33.0850   49.6810 O   0  0  0  0  0  0  0  0  0  0  0  0
   65.0450   33.4520   50.6300 C   0  0  0  0  0  0  0  0  0  0  0  0
   64.1930   34.2790   51.3750 C   0  0  0  0  0  0  0  0  0  0  0  0
   62.8150   34.2490   51.1520 C   0  0  0  0  0  0  0  0  0  0  0  0
   62.2800   33.4090   50.1720 C   0  0  0  0  0  0  0  0  0  0  0  0
   63.1260   32.5940   49.3960 C   0  0  0  0  0  0  0  0  0  0  0  0
   62.5970   31.7040   48.3980 N   0  0  0  0  0  0  0  0  0  0  0  0
   61.5680   32.0630   47.4620 C   0  0  0  0  0  0  0  0  0  0  0  0
   61.6560   33.4970   46.6660 S   0  0  0  0  0  0  0  0  0  0  0  0
   60.6150   31.0830   47.0260 N   0  0  0  0  0  0  0  0  0  0  0  0
   60.2100   29.9730   47.8460 C   0  0  0  0  0  0  0  0  0  0  0  0
   60.4830   29.9740   49.0780 O   0  0  0  0  0  0  0  0  0  0  0  0
   59.4320   28.8450   47.2770 C   0  0  0  0  0  0  0  0  0  0  0  0
   59.6550   27.5340   47.7360 C   0  0  0  0  0  0  0  0  0  0  0  0
   58.9320   26.4620   47.2060 C   0  0  0  0  0  0  0  0  0  0  0  0
   57.9800   26.6760   46.1960 C   0  0  0  0  0  0  0  0  0  0  0  0
   57.2080   25.5370   45.6430 C   0  0  0  0  0  0  0  0  0  0  0  0
   57.8860   24.3990   45.1700 C   0  0  0  0  0  0  0  0  0  0  0  0
   57.1750   23.3110   44.6590 C   0  0  0  0  0  0  0  0  0  0  0  0
   55.7770   23.3470   44.6070 C   0  0  0  0  0  0  0  0  0  0  0  0
   55.0570   22.2670   44.1020 O   0  0  0  0  0  0  0  0  0  0  0  0
   55.0950   24.4770   45.0640 C   0  0  0  0  0  0  0  0  0  0  0  0
   55.8010   25.5710   45.5760 C   0  0  0  0  0  0  0  0  0  0  0  0
   55.0950   26.6940   45.9950 O   0  0  0  0  0  0  0  0  0  0  0  0
   57.7580   27.9820   45.7330 C   0  0  0  0  0  0  0  0  0  0  0  0
   58.4790   29.0560   46.2640 C   0  0  0  0  0  0  0  0  0  0  0  0
   64.5070   32.6120   49.6430 C   0  0  0  0  0  0  0  0  0  0  0  0
   66.3300   31.7780   52.3510 H   0  0  0  0  0  0  0  0  0  0  0  0
   64.6110   34.9532   52.1371 H   0  0  0  0  0  0  0  0  0  0  0  0
   62.1487   34.8885   51.7495 H   0  0  0  0  0  0  0  0  0  0  0  0
   61.1929   33.3843   50.0060 H   0  0  0  0  0  0  0  0  0  0  0  0
   62.9740   30.7290   48.3530 H   0  0  0  0  0  0  0  0  0  0  0  0
   60.1090   31.2550   46.1280 H   0  0  0  0  0  0  0  0  0  0  0  0
   60.4054   27.3511   48.5193 H   0  0  0  0  0  0  0  0  0  0  0  0
   59.1097   25.4438   47.5824 H   0  0  0  0  0  0  0  0  0  0  0  0
   58.9850   24.3657   45.2028 H   0  0  0  0  0  0  0  0  0  0  0  0
   57.7150   22.4238   44.2966 H   0  0  0  0  0  0  0  0  0  0  0  0
   55.5230   21.4570   43.7070 H   0  0  0  0  0  0  0  0  0  0  0  0
   53.9962   24.5070   45.0211 H   0  0  0  0  0  0  0  0  0  0  0  0
   57.0108   28.1623   44.9461 H   0  0  0  0  0  0  0  0  0  0  0  0
   58.2996   30.0736   45.8867 H   0  0  0  0  0  0  0  0  0  0  0  0
   65.1739   31.9619   49.0578 H   0  0  0  0  0  0  0  0  0  0  0  0
  1  2  1  0
  2  3  2  0
  2  4  2  0
  2  5  1  0
  5  6  2  0
  6  7  1  0
  7  8  2  0
  8  9  1  0
  9 10  1  0
 10 11  1  0
 11 12  2  0
 11 13  1  0
 13 14  1  0
 14 15  2  0
 14 16  1  0
 16 17  2  0
 17 18  1  0
 18 19  2  0
 19 20  1  0
 20 21  2  0
 21 22  1  0
 22 23  2  0
 23 24  1  0
 23 25  1  0
 25 26  2  0
 26 27  1  0
 19 28  1  0
 28 29  2  0
  9 30  2  0
 30  5  1  0
 29 16  1  0
 26 20  1  0
  1 31  1  0
  6 32  1  0
  7 33  1  0
  8 34  1  0
 10 35  1  0
 13 36  1  0
 17 37  1  0
 18 38  1  0
 21 39  1  0
 22 40  1  0
 24 41  1  0
 25 42  1  0
 28 43  1  0
 29 44  1  0
 30 45  1  0
M  CHG  2   1  -1  27  -1
M  END
>  <UniqueID>  (54) 
50

>  <SMILES>  (54) 
[NH-]S(=O)(=O)c1cccc(NC(=S)NC(=O)c2ccc(-c3ccc(O)cc3[O-])cc2)c1

>  <Energy>  (54) 
62.259477476020486

>  <Genealogy>  (54) 
[NH-]S(=O)(=O)c1cccc(NC(=S)NC(=O)c2ccc(-c3ccc(O)cc3[O-])cc2)c1 (protonated)
[NH-]S(=O)(=O)c1cccc(NC(=S)NC(=O)c2ccc(-c3ccc(O)cc3[O-])cc2)c1 (3D coordinates assigned)
[NH-]S(=O)(=O)c1cccc(NC(=S)NC(=O)c2ccc(-c3ccc(O)cc3[O-])cc2)c1 (optimized conformer: 62.259477476020486 kcal/mol)

>  <smiles>  (54) 
NS(=O)(=O)c1cccc(NC(=S)NC(=O)c2ccc(-c3ccc(O)cc3O)cc2)c1

>  <score_type>  (54) 
oracle

>  <origin>  (54) 
adg

>  <m_score__min__energy>  (54) 
-11.970000000000001

>  <m_primary>  (54) 
energy

$$$$
54:0
     RDKit          3D

 37 39  0  0  0  0  0  0  0  0999 V2000
   51.0120   32.3110   49.9680 N   0  0  0  0  0  0  0  0  0  0  0  0
   51.4180   32.2450   51.3340 C   0  0  0  0  0  0  0  0  0  0  0  0
   50.9750   33.1010   52.1480 O   0  0  0  0  0  0  0  0  0  0  0  0
   52.3470   31.1860   51.7940 C   0  0  0  0  0  0  0  0  0  0  0  0
   51.8550   30.0440   52.4540 C   0  0  0  0  0  0  0  0  0  0  0  0
   52.7320   29.0520   52.8980 C   0  0  0  0  0  0  0  0  0  0  0  0
   54.1050   29.1780   52.6820 C   0  0  0  0  0  0  0  0  0  0  0  0
   54.6140   30.2990   52.0040 C   0  0  0  0  0  0  0  0  0  0  0  0
   56.0190   30.4800   51.7790 N   0  0  0  0  0  0  0  0  0  0  0  0
   57.0160   30.7440   52.7750 C   0  0  0  0  0  0  0  0  0  0  0  0
   56.6940   31.1890   53.9100 O   0  0  0  0  0  0  0  0  0  0  0  0
   58.4380   30.3840   52.5020 C   0  0  0  0  0  0  0  0  0  0  0  0
   58.5710   29.6690   50.8330 S   0  0  0  0  0  0  0  0  0  0  0  0
   58.8070   31.2590   50.0500 C   0  0  0  0  0  0  0  0  0  0  0  0
   59.1680   32.3700   50.7140 N   0  0  0  0  0  0  0  0  0  0  0  0
   59.2410   33.3360   49.8160 N   0  0  0  0  0  0  0  0  0  0  0  0
   58.9220   32.7860   48.6270 C   0  0  0  0  0  0  0  0  0  0  0  0
   58.8860   33.5380   47.3550 C   0  0  0  0  0  0  0  0  0  0  0  0
   58.0130   33.1510   46.3220 C   0  0  0  0  0  0  0  0  0  0  0  0
   57.9820   33.8640   45.1180 C   0  0  0  0  0  0  0  0  0  0  0  0
   58.8190   34.9670   44.9360 C   0  0  0  0  0  0  0  0  0  0  0  0
   59.6900   35.3600   45.9540 C   0  0  0  0  0  0  0  0  0  0  0  0
   59.7250   34.6500   47.1600 C   0  0  0  0  0  0  0  0  0  0  0  0
   58.6420   31.4700   48.7310 N   0  0  0  0  0  0  0  0  0  0  0  0
   53.7330   31.3050   51.5810 C   0  0  0  0  0  0  0  0  0  0  0  0
   50.0010   32.3310   49.7080 H   0  0  0  0  0  0  0  0  0  0  0  0
   50.7735   29.9324   52.6210 H   0  0  0  0  0  0  0  0  0  0  0  0
   52.3388   28.1674   53.4203 H   0  0  0  0  0  0  0  0  0  0  0  0
   54.7909   28.3977   53.0435 H   0  0  0  0  0  0  0  0  0  0  0  0
   59.0638   31.2864   52.5656 H   0  0  0  0  0  0  0  0  0  0  0  0
   58.7800   29.6486   53.2451 H   0  0  0  0  0  0  0  0  0  0  0  0
   57.3512   32.2834   46.4613 H   0  0  0  0  0  0  0  0  0  0  0  0
   57.2975   33.5552   44.3142 H   0  0  0  0  0  0  0  0  0  0  0  0
   58.7920   35.5268   43.9895 H   0  0  0  0  0  0  0  0  0  0  0  0
   60.3493   36.2283   45.8083 H   0  0  0  0  0  0  0  0  0  0  0  0
   60.4124   34.9635   47.9595 H   0  0  0  0  0  0  0  0  0  0  0  0
   54.1303   32.1981   51.0765 H   0  0  0  0  0  0  0  0  0  0  0  0
  1  2  1  0
  2  3  2  0
  2  4  1  0
  4  5  2  0
  5  6  1  0
  6  7  2  0
  7  8  1  0
  8  9  1  0
  9 10  1  0
 10 11  2  0
 10 12  1  0
 12 13  1  0
 13 14  1  0
 14 15  2  0
 15 16  1  0
 16 17  1  0
 17 18  1  0
 18 19  2  0
 19 20  1  0
 20 21  2  0
 21 22  1  0
 22 23  2  0
 17 24  2  0
  8 25  2  0
 25  4  1  0
 24 14  1  0
 23 18  1  0
  1 26  1  0
  5 27  1  0
  6 28  1  0
  7 29  1  0
 12 30  1  0
 12 31  1  0
 19 32  1  0
 20 33  1  0
 21 34  1  0
 22 35  1  0
 23 36  1  0
 25 37  1  0
M  CHG  3   1  -1   9  -1  16  -1
M  END
>  <UniqueID>  (55) 
51

>  <SMILES>  (55) 
[NH-]C(=O)c1cccc([N-]C(=O)CSc2n[n-]c(-c3ccccc3)n2)c1

>  <Energy>  (55) 
70.64079048306864

>  <Genealogy>  (55) 
[NH-]C(=O)c1cccc([N-]C(=O)CSc2n[n-]c(-c3ccccc3)n2)c1 (protonated)
[NH-]C(=O)c1cccc([N-]C(=O)CSc2n[n-]c(-c3ccccc3)n2)c1 (3D coordinates assigned)
[NH-]C(=O)c1cccc([N-]C(=O)CSc2n[n-]c(-c3ccccc3)n2)c1 (optimized conformer: 70.64079048306864 kcal/mol)

>  <smiles>  (55) 
NC(=O)c1cccc(NC(=O)CSc2n[nH]c(-c3ccccc3)n2)c1

>  <score_type>  (55) 
oracle

>  <origin>  (55) 
adg

>  <m_score__min__energy>  (55) 
-13.890000000000001

>  <m_primary>  (55) 
energy

$$$$
55:0
     RDKit          3D

 38 39  0  0  1  0  0  0  0  0999 V2000
   56.6530   22.2120   43.2580 C   0  0  0  0  0  0  0  0  0  0  0  0
   56.5520   23.7070   42.9820 C   0  0  0  0  0  0  0  0  0  0  0  0
   57.0670   24.4110   44.2460 C   0  0  0  0  0  0  0  0  0  0  0  0
   56.6200   23.6730   45.4590 C   0  0  0  0  0  0  0  0  0  0  0  0
   56.6050   24.5770   46.6510 C   0  0  0  0  0  0  0  0  0  0  0  0
   56.2280   25.9460   46.2590 C   0  0  0  0  0  0  0  0  0  0  0  0
   55.0840   26.3520   45.9980 O   0  0  0  0  0  0  0  0  0  0  0  0
   57.2870   26.9060   46.1660 N   0  0  0  0  0  0  0  0  0  0  0  0
   57.0830   28.1040   45.7450 C   0  0  0  0  0  0  0  0  0  0  0  0
   57.9400   29.1820   45.8480 C   0  0  0  0  0  0  0  0  0  0  0  0
   57.2790   30.2360   45.2560 C   0  0  0  0  0  0  0  0  0  0  0  0
   57.7690   31.6030   45.1100 C   0  0  0  0  0  0  0  0  0  0  0  0
   58.0230   32.3250   46.2640 C   0  0  0  0  0  0  0  0  0  0  0  0
   58.4880   33.6220   46.1590 C   0  0  0  0  0  0  0  0  0  0  0  0
   58.7050   34.2170   44.9200 C   0  0  0  0  0  0  0  0  0  0  0  0
   58.4380   33.4650   43.7810 C   0  0  0  0  0  0  0  0  0  0  0  0
   57.9710   32.1580   43.8620 C   0  0  0  0  0  0  0  0  0  0  0  0
   56.0800   29.8120   44.8160 N   0  0  0  0  0  0  0  0  0  0  0  0
   55.9690   28.5230   45.1160 N   0  0  0  0  0  0  0  0  0  0  0  0
   56.6646   22.0397   44.3444 H   0  0  0  0  0  0  0  0  0  0  0  0
   55.7875   21.6980   42.8145 H   0  0  0  0  0  0  0  0  0  0  0  0
   57.5797   21.8190   42.8145 H   0  0  0  0  0  0  0  0  0  0  0  0
   57.1725   23.9776   42.1150 H   0  0  0  0  0  0  0  0  0  0  0  0
   55.5182   24.0033   42.7508 H   0  0  0  0  0  0  0  0  0  0  0  0
   58.1663   24.4420   44.2232 H   0  0  0  0  0  0  0  0  0  0  0  0
   56.6650   25.4344   44.2780 H   0  0  0  0  0  0  0  0  0  0  0  0
   55.6062   23.2808   45.2902 H   0  0  0  0  0  0  0  0  0  0  0  0
   57.3212   22.8472   45.6496 H   0  0  0  0  0  0  0  0  0  0  0  0
   55.8774   24.1974   47.3834 H   0  0  0  0  0  0  0  0  0  0  0  0
   57.6126   24.5992   47.0918 H   0  0  0  0  0  0  0  0  0  0  0  0
   58.9399   29.1962   46.3062 H   0  0  0  0  0  0  0  0  0  0  0  0
   57.8566   31.8716   47.2523 H   0  0  0  0  0  0  0  0  0  0  0  0
   58.6910   34.1966   47.0748 H   0  0  0  0  0  0  0  0  0  0  0  0
   59.0761   35.2497   44.8438 H   0  0  0  0  0  0  0  0  0  0  0  0
   58.6004   33.9158   42.7908 H   0  0  0  0  0  0  0  0  0  0  0  0
   57.7666   31.5777   42.9501 H   0  0  0  0  0  0  0  0  0  0  0  0
   55.3220   30.3380   44.3220 H   0  0  0  0  0  0  0  0  0  0  0  0
   55.1450   27.8900   44.9080 H   0  0  0  0  0  0  0  0  0  0  0  0
  1  2  1  0
  2  3  1  0
  3  4  1  0
  4  5  1  0
  5  6  1  0
  6  7  2  0
  6  8  1  0
  8  9  2  0
  9 10  1  0
 10 11  2  0
 11 12  1  0
 12 13  2  0
 13 14  1  0
 14 15  2  0
 15 16  1  0
 16 17  2  0
 11 18  1  0
 18 19  1  0
 19  9  1  0
 17 12  1  0
  1 20  1  0
  1 21  1  0
  1 22  1  0
  2 23  1  0
  2 24  1  0
  3 25  1  0
  3 26  1  0
  4 27  1  0
  4 28  1  0
  5 29  1  0
  5 30  1  0
 10 31  1  0
 13 32  1  0
 14 33  1  0
 15 34  1  0
 16 35  1  0
 17 36  1  0
 18 37  1  0
 19 38  1  0
M  END
>  <smiles>  (56) 
CCCCCC(=O)N=c1cc(-c2ccccc2)[nH][nH]1

>  <score_type>  (56) 
oracle

>  <origin>  (56) 
adg

>  <m_score__min__energy>  (56) 
-7.3399999999999999

>  <m_primary>  (56) 
energy

$$$$
56:0
     RDKit          3D

 43 44  0  0  0  0  0  0  0  0999 V2000
   59.9760   27.9850   45.8610 C   0  0  0  0  0  0  0  0  0  0  0  0
   59.2540   26.9150   46.6730 C   0  0  0  0  0  0  0  0  0  0  0  0
   57.8600   27.3880   47.0930 C   0  0  0  0  0  0  0  0  0  0  0  0
   56.6530   26.9960   45.8350 S   0  0  0  0  0  0  0  0  0  0  0  0
   55.6140   26.0600   46.3860 O   0  0  0  0  0  0  0  0  0  0  0  0
   57.3490   26.3200   44.6880 O   0  0  0  0  0  0  0  0  0  0  0  0
   55.8920   28.4410   45.2490 N   0  0  0  0  0  0  0  0  0  0  0  0
   56.5710   29.6010   44.7470 C   0  0  0  0  0  0  0  0  0  0  0  0
   56.3480   30.0980   43.4520 C   0  0  0  0  0  0  0  0  0  0  0  0
   57.0380   31.2250   43.0050 C   0  0  0  0  0  0  0  0  0  0  0  0
   57.9520   31.8690   43.8420 C   0  0  0  0  0  0  0  0  0  0  0  0
   58.1840   31.3920   45.1430 C   0  0  0  0  0  0  0  0  0  0  0  0
   59.1620   32.0750   46.0240 C   0  0  0  0  0  0  0  0  0  0  0  0
   59.0540   33.3150   46.2290 O   0  0  0  0  0  0  0  0  0  0  0  0
   60.2070   31.3360   46.6780 N   0  0  0  0  0  0  0  0  0  0  0  0
   61.3580   31.9650   47.2670 C   0  0  0  0  0  0  0  0  0  0  0  0
   61.8010   33.1920   46.7490 C   0  0  0  0  0  0  0  0  0  0  0  0
   62.9140   33.8320   47.2970 C   0  0  0  0  0  0  0  0  0  0  0  0
   63.5880   33.2590   48.3760 C   0  0  0  0  0  0  0  0  0  0  0  0
   63.1410   32.0530   48.9210 C   0  0  0  0  0  0  0  0  0  0  0  0
   62.0140   31.4000   48.3820 C   0  0  0  0  0  0  0  0  0  0  0  0
   61.5120   30.2140   48.9410 O   0  0  0  0  0  0  0  0  0  0  0  0
   60.2810   30.1120   49.6500 C   0  0  0  0  0  0  0  0  0  0  0  0
   57.4930   30.2470   45.5810 C   0  0  0  0  0  0  0  0  0  0  0  0
   60.4585   28.7000   46.5436 H   0  0  0  0  0  0  0  0  0  0  0  0
   60.7397   27.5110   45.2268 H   0  0  0  0  0  0  0  0  0  0  0  0
   59.2507   28.5158   45.2268 H   0  0  0  0  0  0  0  0  0  0  0  0
   59.1557   26.0057   46.0619 H   0  0  0  0  0  0  0  0  0  0  0  0
   59.8411   26.7098   47.5803 H   0  0  0  0  0  0  0  0  0  0  0  0
   57.5775   26.8896   48.0320 H   0  0  0  0  0  0  0  0  0  0  0  0
   57.8841   28.4790   47.2316 H   0  0  0  0  0  0  0  0  0  0  0  0
   55.6274   29.5971   42.7888 H   0  0  0  0  0  0  0  0  0  0  0  0
   56.8615   31.6081   41.9891 H   0  0  0  0  0  0  0  0  0  0  0  0
   58.4937   32.7554   43.4803 H   0  0  0  0  0  0  0  0  0  0  0  0
   60.0370   30.3300   46.8970 H   0  0  0  0  0  0  0  0  0  0  0  0
   61.2671   33.6528   45.9048 H   0  0  0  0  0  0  0  0  0  0  0  0
   63.2598   34.7885   46.8780 H   0  0  0  0  0  0  0  0  0  0  0  0
   64.4729   33.7578   48.7982 H   0  0  0  0  0  0  0  0  0  0  0  0
   63.6720   31.6099   49.7764 H   0  0  0  0  0  0  0  0  0  0  0  0
   60.4786   30.1284   50.7320 H   0  0  0  0  0  0  0  0  0  0  0  0
   59.6327   30.9595   49.3828 H   0  0  0  0  0  0  0  0  0  0  0  0
   59.7810   29.1693   49.3828 H   0  0  0  0  0  0  0  0  0  0  0  0
   57.6792   29.8540   46.5914 H   0  0  0  0  0  0  0  0  0  0  0  0
  1  2  1  0
  2  3  1  0
  3  4  1  0
  4  5  2  0
  4  6  2  0
  4  7  1  0
  7  8  1  0
  8  9  2  0
  9 10  1  0
 10 11  2  0
 11 12  1  0
 12 13  1  0
 13 14  2  0
 13 15  1  0
 15 16  1  0
 16 17  2  0
 17 18  1  0
 18 19  2  0
 19 20  1  0
 20 21  2  0
 21 22  1  0
 22 23  1  0
 12 24  2  0
 24  8  1  0
 21 16  1  0
  1 25  1  0
  1 26  1  0
  1 27  1  0
  2 28  1  0
  2 29  1  0
  3 30  1  0
  3 31  1  0
  9 32  1  0
 10 33  1  0
 11 34  1  0
 15 35  1  0
 17 36  1  0
 18 37  1  0
 19 38  1  0
 20 39  1  0
 23 40  1  0
 23 41  1  0
 23 42  1  0
 24 43  1  0
M  CHG  1   7  -1
M  END
>  <UniqueID>  (57) 
52

>  <SMILES>  (57) 
CCCS(=O)(=O)[N-]c1cccc(C(=O)Nc2ccccc2OC)c1

>  <Energy>  (57) 
43.22329018470478

>  <Genealogy>  (57) 
CCCS(=O)(=O)[N-]c1cccc(C(=O)Nc2ccccc2OC)c1 (protonated)
CCCS(=O)(=O)[N-]c1cccc(C(=O)Nc2ccccc2OC)c1 (3D coordinates assigned)
CCCS(=O)(=O)[N-]c1cccc(C(=O)Nc2ccccc2OC)c1 (optimized conformer: 43.22329018470478 kcal/mol)

>  <smiles>  (57) 
CCCS(=O)(=O)Nc1cccc(C(=O)Nc2ccccc2OC)c1

>  <score_type>  (57) 
oracle

>  <origin>  (57) 
adg

>  <m_score__min__energy>  (57) 
-9.5199999999999996

>  <m_primary>  (57) 
energy

$$$$
57:0
     RDKit          3D

 40 41  0  0  0  0  0  0  0  0999 V2000
   57.7790   27.8580   43.9200 C   0  0  0  0  0  0  0  0  0  0  0  0
   56.7850   28.2220   45.3530 S   0  0  0  0  0  0  0  0  0  0  0  0
   55.8490   27.0750   45.6190 O   0  0  0  0  0  0  0  0  0  0  0  0
   57.6950   28.3910   46.5370 O   0  0  0  0  0  0  0  0  0  0  0  0
   55.9060   29.7070   45.1090 N   0  0  0  0  0  0  0  0  0  0  0  0
   56.5010   30.5270   44.0510 C   0  0  0  0  0  0  0  0  0  0  0  0
   57.5310   31.4720   44.6110 C   0  0  0  0  0  0  0  0  0  0  0  0
   57.7710   32.7030   43.9810 C   0  0  0  0  0  0  0  0  0  0  0  0
   58.6810   33.6090   44.5290 C   0  0  0  0  0  0  0  0  0  0  0  0
   59.3720   33.2950   45.7110 C   0  0  0  0  0  0  0  0  0  0  0  0
   60.3050   34.2960   46.3420 C   0  0  0  0  0  0  0  0  0  0  0  0
   60.5090   33.9910   47.8130 C   0  0  0  0  0  0  0  0  0  0  0  0
   59.4820   34.3540   48.7080 C   0  0  0  0  0  0  0  0  0  0  0  0
   59.5920   34.0830   50.0710 C   0  0  0  0  0  0  0  0  0  0  0  0
   60.7310   33.4550   50.5670 C   0  0  0  0  0  0  0  0  0  0  0  0
   61.7690   33.1040   49.7040 C   0  0  0  0  0  0  0  0  0  0  0  0
   61.6810   33.3690   48.3260 C   0  0  0  0  0  0  0  0  0  0  0  0
   63.0620   32.9410   47.3000 S   0  0  0  0  0  0  0  0  0  0  0  0
   64.5260   33.0950   48.2090 N   0  0  0  0  0  0  0  0  0  0  0  0
   62.9400   31.5210   46.8240 O   0  0  0  0  0  0  0  0  0  0  0  0
   63.1090   33.8460   46.1020 O   0  0  0  0  0  0  0  0  0  0  0  0
   59.1430   32.0560   46.3310 C   0  0  0  0  0  0  0  0  0  0  0  0
   58.2310   31.1500   45.7820 C   0  0  0  0  0  0  0  0  0  0  0  0
   58.7669   27.4962   44.2413 H   0  0  0  0  0  0  0  0  0  0  0  0
   57.2831   27.0831   43.3170 H   0  0  0  0  0  0  0  0  0  0  0  0
   57.9008   28.7699   43.3170 H   0  0  0  0  0  0  0  0  0  0  0  0
   56.9819   29.8678   43.3133 H   0  0  0  0  0  0  0  0  0  0  0  0
   55.7037   31.1197   43.5787 H   0  0  0  0  0  0  0  0  0  0  0  0
   57.2398   32.9551   43.0514 H   0  0  0  0  0  0  0  0  0  0  0  0
   58.8579   34.5744   44.0322 H   0  0  0  0  0  0  0  0  0  0  0  0
   61.2766   34.2571   45.8278 H   0  0  0  0  0  0  0  0  0  0  0  0
   59.8614   35.2983   46.2485 H   0  0  0  0  0  0  0  0  0  0  0  0
   58.5819   34.8578   48.3257 H   0  0  0  0  0  0  0  0  0  0  0  0
   58.7782   34.3656   50.7550 H   0  0  0  0  0  0  0  0  0  0  0  0
   60.8126   33.2351   51.6417 H   0  0  0  0  0  0  0  0  0  0  0  0
   62.6677   32.6137   50.1065 H   0  0  0  0  0  0  0  0  0  0  0  0
   65.2700   33.3990   47.5420 H   0  0  0  0  0  0  0  0  0  0  0  0
   64.7860   32.1370   48.5350 H   0  0  0  0  0  0  0  0  0  0  0  0
   59.6839   31.7972   47.2532 H   0  0  0  0  0  0  0  0  0  0  0  0
   58.0618   30.1795   46.2714 H   0  0  0  0  0  0  0  0  0  0  0  0
  1  2  1  0
  2  3  2  0
  2  4  2  0
  2  5  1  0
  5  6  1  0
  6  7  1  0
  7  8  2  0
  8  9  1  0
  9 10  2  0
 10 11  1  0
 11 12  1  0
 12 13  2  0
 13 14  1  0
 14 15  2  0
 15 16  1  0
 16 17  2  0
 17 18  1  0
 18 19  1  0
 18 20  2  0
 18 21  2  0
 10 22  1  0
 22 23  2  0
 23  7  1  0
 17 12  1  0
  1 24  1  0
  1 25  1  0
  1 26  1  0
  6 27  1  0
  6 28  1  0
  8 29  1  0
  9 30  1  0
 11 31  1  0
 11 32  1  0
 13 33  1  0
 14 34  1  0
 15 35  1  0
 16 36  1  0
 19 37  1  0
 19 38  1  0
 22 39  1  0
 23 40  1  0
M  CHG  1   5  -1
M  END
>  <UniqueID>  (58) 
53

>  <SMILES>  (58) 
CS(=O)(=O)[N-]Cc1ccc(Cc2ccccc2S(N)(=O)=O)cc1

>  <Energy>  (58) 
35.11373123828848

>  <Genealogy>  (58) 
CS(=O)(=O)[N-]Cc1ccc(Cc2ccccc2S(N)(=O)=O)cc1 (protonated)
CS(=O)(=O)[N-]Cc1ccc(Cc2ccccc2S(N)(=O)=O)cc1 (3D coordinates assigned)
CS(=O)(=O)[N-]Cc1ccc(Cc2ccccc2S(N)(=O)=O)cc1 (optimized conformer: 35.11373123828848 kcal/mol)

>  <smiles>  (58) 
CS(=O)(=O)NCc1ccc(Cc2ccccc2S(N)(=O)=O)cc1

>  <score_type>  (58) 
oracle

>  <origin>  (58) 
adg

>  <m_score__min__energy>  (58) 
-10.51

>  <m_primary>  (58) 
energy

$$$$
58:0
     RDKit          3D

 50 53  0  0  0  0  0  0  0  0999 V2000
   58.7200   34.9630   44.8600 C   0  0  0  0  0  0  0  0  0  0  0  0
   57.8650   33.9550   45.6220 C   0  0  0  0  0  0  0  0  0  0  0  0
   58.6960   32.8440   46.1210 N   0  0  0  0  0  0  0  0  0  0  0  0
   59.7770   33.1370   46.9060 C   0  0  0  0  0  0  0  0  0  0  0  0
   60.6050   32.1240   47.4120 C   0  0  0  0  0  0  0  0  0  0  0  0
   61.7600   32.4850   48.2730 C   0  0  0  0  0  0  0  0  0  0  0  0
   63.0740   32.4120   47.7790 C   0  0  0  0  0  0  0  0  0  0  0  0
   64.1560   32.7620   48.5920 C   0  0  0  0  0  0  0  0  0  0  0  0
   63.9390   33.1930   49.9070 C   0  0  0  0  0  0  0  0  0  0  0  0
   65.0130   33.5440   50.7230 O   0  0  0  0  0  0  0  0  0  0  0  0
   62.6330   33.2730   50.4050 C   0  0  0  0  0  0  0  0  0  0  0  0
   62.4070   33.7000   51.7090 O   0  0  0  0  0  0  0  0  0  0  0  0
   61.5490   32.9250   49.5920 C   0  0  0  0  0  0  0  0  0  0  0  0
   60.3090   30.7860   47.0970 C   0  0  0  0  0  0  0  0  0  0  0  0
   61.0230   29.8550   47.5620 O   0  0  0  0  0  0  0  0  0  0  0  0
   59.2090   30.4920   46.2710 C   0  0  0  0  0  0  0  0  0  0  0  0
   58.8790   29.1720   45.9210 C   0  0  0  0  0  0  0  0  0  0  0  0
   57.7840   28.9070   45.0810 C   0  0  0  0  0  0  0  0  0  0  0  0
   57.4280   27.5610   44.7250 N   0  0  0  0  0  0  0  0  0  0  0  0
   56.8770   26.3330   45.8190 S   0  0  0  0  0  0  0  0  0  0  0  0
   55.3920   26.4720   46.0010 O   0  0  0  0  0  0  0  0  0  0  0  0
   57.5400   26.5200   47.1560 O   0  0  0  0  0  0  0  0  0  0  0  0
   57.2190   24.7380   45.1560 C   0  0  0  0  0  0  0  0  0  0  0  0
   56.3780   24.2070   44.1660 C   0  0  0  0  0  0  0  0  0  0  0  0
   56.6280   22.9350   43.6410 C   0  0  0  0  0  0  0  0  0  0  0  0
   57.7190   22.1900   44.1000 C   0  0  0  0  0  0  0  0  0  0  0  0
   58.5630   22.7170   45.0840 C   0  0  0  0  0  0  0  0  0  0  0  0
   58.3140   23.9890   45.6120 C   0  0  0  0  0  0  0  0  0  0  0  0
   57.0260   29.9940   44.5970 C   0  0  0  0  0  0  0  0  0  0  0  0
   55.8650   29.8320   43.7020 C   0  0  0  0  0  0  0  0  0  0  0  0
   54.7740   29.3420   44.0990 O   0  0  0  0  0  0  0  0  0  0  0  0
   57.3600   31.2590   44.9660 N   0  0  0  0  0  0  0  0  0  0  0  0
   58.4120   31.5450   45.7820 C   0  0  0  0  0  0  0  0  0  0  0  0
   59.2605   35.6003   45.5754 H   0  0  0  0  0  0  0  0  0  0  0  0
   59.4429   34.4268   44.2276 H   0  0  0  0  0  0  0  0  0  0  0  0
   58.0730   35.5887   44.2276 H   0  0  0  0  0  0  0  0  0  0  0  0
   57.3849   34.4587   46.4740 H   0  0  0  0  0  0  0  0  0  0  0  0
   57.1019   33.5499   44.9411 H   0  0  0  0  0  0  0  0  0  0  0  0
   60.0014   34.1870   47.1451 H   0  0  0  0  0  0  0  0  0  0  0  0
   63.2519   32.0774   46.7463 H   0  0  0  0  0  0  0  0  0  0  0  0
   65.1810   32.6988   48.1978 H   0  0  0  0  0  0  0  0  0  0  0  0
   64.8750   33.8430   51.6810 H   0  0  0  0  0  0  0  0  0  0  0  0
   60.5248   32.9960   49.9870 H   0  0  0  0  0  0  0  0  0  0  0  0
   59.4833   28.3383   46.3080 H   0  0  0  0  0  0  0  0  0  0  0  0
   55.5206   24.7923   43.8022 H   0  0  0  0  0  0  0  0  0  0  0  0
   55.9661   22.5202   42.8665 H   0  0  0  0  0  0  0  0  0  0  0  0
   57.9138   21.1891   43.6873 H   0  0  0  0  0  0  0  0  0  0  0  0
   59.4223   22.1314   45.4426 H   0  0  0  0  0  0  0  0  0  0  0  0
   58.9779   24.4021   46.3857 H   0  0  0  0  0  0  0  0  0  0  0  0
   55.9544   30.1496   42.6526 H   0  0  0  0  0  0  0  0  0  0  0  0
  1  2  1  0
  2  3  1  0
  3  4  1  0
  4  5  2  0
  5  6  1  0
  6  7  2  0
  7  8  1  0
  8  9  2  0
  9 10  1  0
  9 11  1  0
 11 12  1  0
 11 13  2  0
  5 14  1  0
 14 15  2  0
 14 16  1  0
 16 17  2  0
 17 18  1  0
 18 19  1  0
 19 20  1  0
 20 21  2  0
 20 22  2  0
 20 23  1  0
 23 24  2  0
 24 25  1  0
 25 26  2  0
 26 27  1  0
 27 28  2  0
 18 29  2  0
 29 30  1  0
 30 31  2  0
 29 32  1  0
 32 33  2  0
 33  3  1  0
 13  6  1  0
 33 16  1  0
 28 23  1  0
  1 34  1  0
  1 35  1  0
  1 36  1  0
  2 37  1  0
  2 38  1  0
  4 39  1  0
  7 40  1  0
  8 41  1  0
 10 42  1  0
 13 43  1  0
 17 44  1  0
 24 45  1  0
 25 46  1  0
 26 47  1  0
 27 48  1  0
 28 49  1  0
 30 50  1  0
M  CHG  2  12  -1  19  -1
M  END
>  <UniqueID>  (59) 
54

>  <SMILES>  (59) 
CCn1cc(-c2ccc(O)c([O-])c2)c(=O)c2cc([N-]S(=O)(=O)c3ccccc3)c(C=O)nc21

>  <Energy>  (59) 
69.92892134772373

>  <Genealogy>  (59) 
CCn1cc(-c2ccc(O)c([O-])c2)c(=O)c2cc([N-]S(=O)(=O)c3ccccc3)c(C=O)nc21 (protonated)
CCn1cc(-c2ccc(O)c([O-])c2)c(=O)c2cc([N-]S(=O)(=O)c3ccccc3)c(C=O)nc21 (3D coordinates assigned)
CCn1cc(-c2ccc(O)c([O-])c2)c(=O)c2cc([N-]S(=O)(=O)c3ccccc3)c(C=O)nc21 (optimized conformer: 69.92892134772373 kcal/mol)

>  <smiles>  (59) 
CCn1cc(-c2ccc(O)c(O)c2)c(=O)c2cc(NS(=O)(=O)c3ccccc3)c(C=O)nc21

>  <score_type>  (59) 
oracle

>  <origin>  (59) 
adg

>  <m_score__min__energy>  (59) 
-11.85

>  <m_primary>  (59) 
energy

$$$$
59:0
     RDKit          3D

 35 37  0  0  0  0  0  0  0  0999 V2000
   59.2690   35.2040   45.6270 C   0  0  0  0  0  0  0  0  0  0  0  0
   58.7030   33.8240   45.5830 C   0  0  0  0  0  0  0  0  0  0  0  0
   57.6180   33.4180   44.8140 C   0  0  0  0  0  0  0  0  0  0  0  0
   57.3590   32.0460   44.9080 C   0  0  0  0  0  0  0  0  0  0  0  0
   58.2500   31.3760   45.7390 C   0  0  0  0  0  0  0  0  0  0  0  0
   58.2380   29.9380   46.0240 C   0  0  0  0  0  0  0  0  0  0  0  0
   57.3570   29.0760   45.4750 N   0  0  0  0  0  0  0  0  0  0  0  0
   57.7040   27.8880   46.0060 C   0  0  0  0  0  0  0  0  0  0  0  0
   57.0070   26.6250   45.6840 C   0  0  0  0  0  0  0  0  0  0  0  0
   55.9120   26.3500   46.2440 O   0  0  0  0  0  0  0  0  0  0  0  0
   57.5600   25.7300   44.7060 N   0  0  0  0  0  0  0  0  0  0  0  0
   57.1120   24.3780   44.5080 C   0  0  0  0  0  0  0  0  0  0  0  0
   57.1750   23.4240   45.5420 C   0  0  0  0  0  0  0  0  0  0  0  0
   56.7540   22.1100   45.3150 C   0  0  0  0  0  0  0  0  0  0  0  0
   56.2820   21.7330   44.0560 C   0  0  0  0  0  0  0  0  0  0  0  0
   56.2350   22.6670   43.0180 C   0  0  0  0  0  0  0  0  0  0  0  0
   56.6560   23.9820   43.2410 C   0  0  0  0  0  0  0  0  0  0  0  0
   58.7850   28.0760   46.8550 C   0  0  0  0  0  0  0  0  0  0  0  0
   59.5210   27.0550   47.6660 C   0  0  0  0  0  0  0  0  0  0  0  0
   60.6460   26.6330   46.9820 F   0  0  0  0  0  0  0  0  0  0  0  0
   58.7040   25.9620   47.8980 F   0  0  0  0  0  0  0  0  0  0  0  0
   59.8930   27.5990   48.8800 F   0  0  0  0  0  0  0  0  0  0  0  0
   59.0850   29.3510   46.8400 O   0  0  0  0  0  0  0  0  0  0  0  0
   59.3630   32.4810   46.3520 S   0  0  0  0  0  0  0  0  0  0  0  0
   59.3965   35.5148   46.6745 H   0  0  0  0  0  0  0  0  0  0  0  0
   60.2448   35.2164   45.1195 H   0  0  0  0  0  0  0  0  0  0  0  0
   58.5829   35.8981   45.1195 H   0  0  0  0  0  0  0  0  0  0  0  0
   57.0235   34.1056   44.1945 H   0  0  0  0  0  0  0  0  0  0  0  0
   56.5338   31.5479   44.3780 H   0  0  0  0  0  0  0  0  0  0  0  0
   58.2720   26.1090   44.0400 H   0  0  0  0  0  0  0  0  0  0  0  0
   57.5569   23.7136   46.5321 H   0  0  0  0  0  0  0  0  0  0  0  0
   56.7947   21.3720   46.1297 H   0  0  0  0  0  0  0  0  0  0  0  0
   55.9470   20.6999   43.8814 H   0  0  0  0  0  0  0  0  0  0  0  0
   55.8669   22.3682   42.0254 H   0  0  0  0  0  0  0  0  0  0  0  0
   56.6295   24.7110   42.4177 H   0  0  0  0  0  0  0  0  0  0  0  0
  1  2  1  0
  2  3  2  0
  3  4  1  0
  4  5  2  0
  5  6  1  0
  6  7  2  0
  7  8  1  0
  8  9  1  0
  9 10  2  0
  9 11  1  0
 11 12  1  0
 12 13  2  0
 13 14  1  0
 14 15  2  0
 15 16  1  0
 16 17  2  0
  8 18  2  0
 18 19  1  0
 19 20  1  0
 19 21  1  0
 19 22  1  0
 18 23  1  0
  5 24  1  0
 24  2  1  0
 23  6  1  0
 17 12  1  0
  1 25  1  0
  1 26  1  0
  1 27  1  0
  3 28  1  0
  4 29  1  0
 11 30  1  0
 13 31  1  0
 14 32  1  0
 15 33  1  0
 16 34  1  0
 17 35  1  0
M  END
>  <UniqueID>  (60) 
55

>  <SMILES>  (60) 
Cc1ccc(-c2nc(C(=O)Nc3ccccc3)c(C(F)(F)F)o2)s1

>  <Energy>  (60) 
93.8712077690317

>  <Genealogy>  (60) 
Cc1ccc(-c2nc(C(=O)Nc3ccccc3)c(C(F)(F)F)o2)s1 (3D coordinates assigned)
Cc1ccc(-c2nc(C(=O)Nc3ccccc3)c(C(F)(F)F)o2)s1 (optimized conformer: 93.8712077690317 kcal/mol)

>  <smiles>  (60) 
Cc1ccc(-c2nc(C(=O)Nc3ccccc3)c(C(F)(F)F)o2)s1

>  <score_type>  (60) 
oracle

>  <origin>  (60) 
adg

>  <m_score__min__energy>  (60) 
-6.5

>  <m_primary>  (60) 
energy

$$$$
60:0
     RDKit          3D

 54 56  0  0  0  0  0  0  0  0999 V2000
   54.5746   26.8709   46.0775 H   0  0  0  0  0  0  0  0  0  0  0  0
   55.5200   26.3140   46.0000 C   0  0  0  0  0  0  0  0  0  0  0  0
   55.5490   24.9880   46.2960 N   0  0  0  0  0  0  0  0  0  0  0  0
   56.6900   24.2510   46.2280 C   0  0  0  0  0  0  0  0  0  0  0  0
   56.6320   22.9870   46.5320 N   0  0  0  0  0  0  0  0  0  0  0  0
   55.9680   21.9410   45.7580 C   0  0  0  0  0  0  0  0  0  0  0  0
   54.9891   22.3056   45.4132 H   0  0  0  0  0  0  0  0  0  0  0  0
   55.8266   21.0516   46.3896 H   0  0  0  0  0  0  0  0  0  0  0  0
   56.8290   21.5760   44.5510 C   0  0  0  0  0  0  0  0  0  0  0  0
   57.0849   20.5072   44.5969 H   0  0  0  0  0  0  0  0  0  0  0  0
   57.7466   22.1825   44.5676 H   0  0  0  0  0  0  0  0  0  0  0  0
   56.1240   21.8370   43.3520 O   0  0  0  0  0  0  0  0  0  0  0  0
   56.2430   23.1970   42.9990 C   0  0  0  0  0  0  0  0  0  0  0  0
   56.2966   23.8093   43.9113 H   0  0  0  0  0  0  0  0  0  0  0  0
   57.1574   23.3430   42.4052 H   0  0  0  0  0  0  0  0  0  0  0  0
   55.3679   23.4996   42.4052 H   0  0  0  0  0  0  0  0  0  0  0  0
   57.8900   24.8810   45.8420 C   0  0  0  0  0  0  0  0  0  0  0  0
   58.8249   24.3044   45.7838 H   0  0  0  0  0  0  0  0  0  0  0  0
   57.8830   26.2430   45.5340 C   0  0  0  0  0  0  0  0  0  0  0  0
   58.8182   26.7428   45.2414 H   0  0  0  0  0  0  0  0  0  0  0  0
   56.6890   26.9770   45.5960 C   0  0  0  0  0  0  0  0  0  0  0  0
   56.6560   28.4240   45.2820 C   0  0  0  0  0  0  0  0  0  0  0  0
   55.5570   28.9680   44.9950 O   0  0  0  0  0  0  0  0  0  0  0  0
   57.8330   29.2420   45.3220 N   0  0  0  0  0  0  0  0  0  0  0  0
   57.9100   30.6160   44.9140 C   0  0  0  0  0  0  0  0  0  0  0  0
   58.4980   31.5340   45.7920 C   0  0  0  0  0  0  0  0  0  0  0  0
   58.8665   31.1889   46.7693 H   0  0  0  0  0  0  0  0  0  0  0  0
   58.6250   32.8910   45.4440 C   0  0  0  0  0  0  0  0  0  0  0  0
   59.2840   33.8460   46.3650 C   0  0  0  0  0  0  0  0  0  0  0  0
   58.5930   34.4900   47.2010 O   0  0  0  0  0  0  0  0  0  0  0  0
   60.6900   34.1050   46.2430 N   0  0  0  0  0  0  0  0  0  0  0  0
   61.6240   33.9130   47.1360 C   0  0  0  0  0  0  0  0  0  0  0  0
   62.9130   33.5920   46.6910 C   0  0  0  0  0  0  0  0  0  0  0  0
   63.1191   33.5057   45.6139 H   0  0  0  0  0  0  0  0  0  0  0  0
   63.9350   33.3820   47.6180 C   0  0  0  0  0  0  0  0  0  0  0  0
   64.9504   33.1385   47.2721 H   0  0  0  0  0  0  0  0  0  0  0  0
   63.6680   33.4810   48.9820 C   0  0  0  0  0  0  0  0  0  0  0  0
   64.4695   33.3192   49.7178 H   0  0  0  0  0  0  0  0  0  0  0  0
   62.3670   33.7890   49.4080 C   0  0  0  0  0  0  0  0  0  0  0  0
   62.0490   33.8500   50.8750 C   0  0  0  0  0  0  0  0  0  0  0  0
   62.9660   33.6741   51.4566 H   0  0  0  0  0  0  0  0  0  0  0  0
   61.6433   34.8423   51.1213 H   0  0  0  0  0  0  0  0  0  0  0  0
   61.3049   33.0782   51.1213 H   0  0  0  0  0  0  0  0  0  0  0  0
   61.3750   33.9790   48.4850 N   0  0  0  0  0  0  0  0  0  0  0  0
   60.4100   34.1350   48.8440 H   0  0  0  0  0  0  0  0  0  0  0  0
   58.1340   33.3210   44.2010 C   0  0  0  0  0  0  0  0  0  0  0  0
   58.2355   34.3769   43.9097 H   0  0  0  0  0  0  0  0  0  0  0  0
   57.5180   32.4190   43.3320 C   0  0  0  0  0  0  0  0  0  0  0  0
   57.1398   32.7709   42.3609 H   0  0  0  0  0  0  0  0  0  0  0  0
   57.3760   31.0680   43.6840 C   0  0  0  0  0  0  0  0  0  0  0  0
   56.6560   30.1440   42.7380 C   0  0  0  0  0  0  0  0  0  0  0  0
   56.0802   29.4050   43.3145 H   0  0  0  0  0  0  0  0  0  0  0  0
   55.9725   30.7280   42.1042 H   0  0  0  0  0  0  0  0  0  0  0  0
   57.3894   29.6239   42.1042 H   0  0  0  0  0  0  0  0  0  0  0  0
  1  2  1  0
  2  3  1  0
  3  4  1  0
  4  5  2  3
  5  6  1  0
  6  7  1  0
  6  8  1  0
  6  9  1  0
  9 10  1  0
  9 11  1  0
  9 12  1  0
 12 13  1  0
 13 14  1  0
 13 15  1  0
 13 16  1  0
  4 17  1  0
 17 18  1  0
 17 19  2  0
 19 20  1  0
 19 21  1  0
 21 22  1  0
 22 23  2  0
 22 24  1  0
 24 25  1  0
 25 26  2  0
 26 27  1  0
 26 28  1  0
 28 29  1  0
 29 30  2  0
 29 31  1  0
 31 32  2  0
 32 33  1  0
 33 34  1  0
 33 35  2  0
 35 36  1  0
 35 37  1  0
 37 38  1  0
 37 39  2  0
 39 40  1  0
 40 41  1  0
 40 42  1  0
 40 43  1  0
 39 44  1  0
 44 45  1  0
 28 46  2  0
 46 47  1  0
 46 48  1  0
 48 49  1  0
 48 50  2  0
 50 51  1  0
 51 52  1  0
 51 53  1  0
 51 54  1  0
 21  2  2  0
 50 25  1  0
 44 32  1  0
M  CHG  2   3  -1  24  -1
M  END
>  <UniqueID>  (61) 
56

>  <SMILES>  (61) 
COCCN=c1ccc(C(=O)[N-]c2cc(C(=O)/N=c3/cccc(C)[nH]3)ccc2C)c[n-]1

>  <Energy>  (61) 
75.05232505210239

>  <Genealogy>  (61) 
COCCN=c1ccc(C(=O)[N-]c2cc(C(=O)N=c3cccc(C)[nH]3)ccc2C)c[n-]1 (protonated)
COCCN=c1ccc(C(=O)[N-]c2cc(C(=O)/N=c3/cccc(C)[nH]3)ccc2C)c[n-]1 (cis-trans isomerization)
COCCN=c1ccc(C(=O)[N-]c2cc(C(=O)/N=c3/cccc(C)[nH]3)ccc2C)c[n-]1 (3D coordinates assigned)
COCCN=c1ccc(C(=O)[N-]c2cc(C(=O)/N=c3/cccc(C)[nH]3)ccc2C)c[n-]1 (optimized conformer: 75.05232505210239 kcal/mol)

>  <smiles>  (61) 
COCCN=c1ccc(C(=O)Nc2cc(C(=O)N=c3cccc(C)[nH]3)ccc2C)c[nH]1

>  <score_type>  (61) 
oracle

>  <origin>  (61) 
adg

>  <m_score__min__energy>  (61) 
-11.970000000000001

>  <m_primary>  (61) 
energy

$$$$
61:0
     RDKit          3D

 61 63  0  0  0  0  0  0  0  0999 V2000
   62.5640   29.2590   51.9570 C   0  0  0  0  0  0  0  0  0  0  0  0
   62.8600   30.7670   52.0060 C   0  0  0  0  0  0  0  0  0  0  0  0
   64.1010   31.0570   51.1450 C   0  0  0  0  0  0  0  0  0  0  0  0
   61.6300   31.5870   51.5310 C   0  0  1  0  0  0  0  0  0  0  0  0
   61.8680   33.0380   51.5130 N   0  0  0  0  0  0  0  0  0  0  0  0
   62.6350   33.8550   50.6090 C   0  0  0  0  0  0  0  0  0  0  0  0
   63.3770   34.7480   51.0950 O   0  0  0  0  0  0  0  0  0  0  0  0
   62.6180   33.6910   49.1430 C   0  0  0  0  0  0  0  0  0  0  0  0
   63.7280   33.1600   48.4690 C   0  0  0  0  0  0  0  0  0  0  0  0
   63.7220   33.0520   47.0760 C   0  0  0  0  0  0  0  0  0  0  0  0
   62.6250   33.5110   46.3410 C   0  0  0  0  0  0  0  0  0  0  0  0
   61.5410   34.1030   47.0000 C   0  0  0  0  0  0  0  0  0  0  0  0
   60.4230   34.6000   46.2420 C   0  0  0  0  0  0  0  0  0  0  0  0
   59.5220   34.9980   45.6330 N   0  0  0  0  0  0  0  0  0  0  0  0
   61.5510   34.2150   48.3970 C   0  0  0  0  0  0  0  0  0  0  0  0
   61.0830   31.1080   50.2100 C   0  0  0  0  0  0  0  0  0  0  0  0
   61.8600   30.5730   49.3740 O   0  0  0  0  0  0  0  0  0  0  0  0
   59.6970   31.2660   49.8960 N   0  0  0  0  0  0  0  0  0  0  0  0
   59.1670   31.5870   48.6030 C   0  0  0  0  0  0  0  0  0  0  0  0
   58.4990   32.8010   48.3620 C   0  0  0  0  0  0  0  0  0  0  0  0
   57.8890   33.0340   47.1260 C   0  0  0  0  0  0  0  0  0  0  0  0
   57.9280   32.0570   46.1280 C   0  0  0  0  0  0  0  0  0  0  0  0
   58.5950   30.8450   46.3580 C   0  0  0  0  0  0  0  0  0  0  0  0
   58.5940   29.7860   45.3340 C   0  0  0  0  0  0  0  0  0  0  0  0
   58.9630   30.0730   44.1620 O   0  0  0  0  0  0  0  0  0  0  0  0
   58.2140   28.3890   45.6660 C   0  0  0  0  0  0  0  0  0  0  0  0
   59.1900   27.4700   46.0810 C   0  0  0  0  0  0  0  0  0  0  0  0
   58.8290   26.1680   46.4310 C   0  0  0  0  0  0  0  0  0  0  0  0
   57.4910   25.7660   46.3920 C   0  0  0  0  0  0  0  0  0  0  0  0
   57.1720   24.4580   46.7580 O   0  0  0  0  0  0  0  0  0  0  0  0
   56.4950   26.6790   45.9940 C   0  0  0  0  0  0  0  0  0  0  0  0
   55.1210   26.2620   45.9910 N   0  0  0  0  0  0  0  0  0  0  0  0
   54.5340   24.6880   45.5520 S   0  0  0  0  0  0  0  0  0  0  0  0
   55.4380   24.0580   44.1530 C   0  0  0  0  0  0  0  0  0  0  0  0
   53.0850   24.8060   45.1730 O   0  0  0  0  0  0  0  0  0  0  0  0
   54.6540   23.7510   46.7210 O   0  0  0  0  0  0  0  0  0  0  0  0
   56.8680   27.9830   45.6220 C   0  0  0  0  0  0  0  0  0  0  0  0
   59.2210   30.6210   47.5910 C   0  0  0  0  0  0  0  0  0  0  0  0
   62.4870   28.8670   52.9819 H   0  0  0  0  0  0  0  0  0  0  0  0
   61.6153   29.0886   51.4270 H   0  0  0  0  0  0  0  0  0  0  0  0
   63.3779   28.7426   51.4270 H   0  0  0  0  0  0  0  0  0  0  0  0
   63.0653   31.0721   53.0427 H   0  0  0  0  0  0  0  0  0  0  0  0
   64.9622   31.2582   51.7991 H   0  0  0  0  0  0  0  0  0  0  0  0
   64.3186   30.1855   50.5101 H   0  0  0  0  0  0  0  0  0  0  0  0
   63.9098   31.9347   50.5101 H   0  0  0  0  0  0  0  0  0  0  0  0
   60.8574   31.4028   52.2920 H   0  0  0  0  0  0  0  0  0  0  0  0
   64.6073   32.8271   49.0400 H   0  0  0  0  0  0  0  0  0  0  0  0
   64.5823   32.6048   46.5565 H   0  0  0  0  0  0  0  0  0  0  0  0
   62.6136   33.4071   45.2460 H   0  0  0  0  0  0  0  0  0  0  0  0
   60.7180   34.7163   48.9115 H   0  0  0  0  0  0  0  0  0  0  0  0
   58.4564   33.5692   49.1482 H   0  0  0  0  0  0  0  0  0  0  0  0
   57.3768   33.9893   46.9386 H   0  0  0  0  0  0  0  0  0  0  0  0
   57.4353   32.2385   45.1614 H   0  0  0  0  0  0  0  0  0  0  0  0
   60.2450   27.7774   46.1307 H   0  0  0  0  0  0  0  0  0  0  0  0
   59.6045   25.4518   46.7403 H   0  0  0  0  0  0  0  0  0  0  0  0
   56.2200   24.1600   46.9340 H   0  0  0  0  0  0  0  0  0  0  0  0
   56.2926   23.4625   44.5066 H   0  0  0  0  0  0  0  0  0  0  0  0
   54.7764   23.4243   43.5441 H   0  0  0  0  0  0  0  0  0  0  0  0
   55.8034   24.8981   43.5441 H   0  0  0  0  0  0  0  0  0  0  0  0
   56.0969   28.6948   45.2923 H   0  0  0  0  0  0  0  0  0  0  0  0
   59.7597   29.6780   47.7656 H   0  0  0  0  0  0  0  0  0  0  0  0
  1  2  1  0
  2  3  1  0
  2  4  1  0
  4  5  1  0
  5  6  1  0
  6  7  2  0
  6  8  1  0
  8  9  2  0
  9 10  1  0
 10 11  2  0
 11 12  1  0
 12 13  1  0
 13 14  3  0
 12 15  2  0
  4 16  1  0
 16 17  2  0
 16 18  1  0
 18 19  1  0
 19 20  2  0
 20 21  1  0
 21 22  2  0
 22 23  1  0
 23 24  1  0
 24 25  2  0
 24 26  1  0
 26 27  2  0
 27 28  1  0
 28 29  2  0
 29 30  1  0
 29 31  1  0
 31 32  1  0
 32 33  1  0
 33 34  1  0
 33 35  2  0
 33 36  2  0
 31 37  2  0
 23 38  2  0
 15  8  1  0
 38 19  1  0
 37 26  1  0
  1 39  1  0
  1 40  1  0
  1 41  1  0
  2 42  1  0
  3 43  1  0
  3 44  1  0
  3 45  1  0
  4 46  1  1
  9 47  1  0
 10 48  1  0
 11 49  1  0
 15 50  1  0
 20 51  1  0
 21 52  1  0
 22 53  1  0
 27 54  1  0
 28 55  1  0
 30 56  1  0
 34 57  1  0
 34 58  1  0
 34 59  1  0
 37 60  1  0
 38 61  1  0
M  CHG  3   5  -1  18  -1  32  -1
M  END
>  <UniqueID>  (62) 
57

>  <SMILES>  (62) 
CC(C)[C@@H]([N-]C(=O)c1cccc(C#N)c1)C(=O)[N-]c1cccc(C(=O)c2ccc(O)c([N-]S(C)(=O)=O)c2)c1

>  <Energy>  (62) 
74.61447616538858

>  <Genealogy>  (62) 
CC(C)C([N-]C(=O)c1cccc(C#N)c1)C(=O)[N-]c1cccc(C(=O)c2ccc(O)c([N-]S(C)(=O)=O)c2)c1 (protonated)
CC(C)[C@@H]([N-]C(=O)c1cccc(C#N)c1)C(=O)[N-]c1cccc(C(=O)c2ccc(O)c([N-]S(C)(=O)=O)c2)c1 (chirality)
CC(C)[C@@H]([N-]C(=O)c1cccc(C#N)c1)C(=O)[N-]c1cccc(C(=O)c2ccc(O)c([N-]S(C)(=O)=O)c2)c1 (3D coordinates assigned)
CC(C)[C@@H]([N-]C(=O)c1cccc(C#N)c1)C(=O)[N-]c1cccc(C(=O)c2ccc(O)c([N-]S(C)(=O)=O)c2)c1 (optimized conformer: 74.61447616538858 kcal/mol)

>  <smiles>  (62) 
CC(C)C(NC(=O)c1cccc(C#N)c1)C(=O)Nc1cccc(C(=O)c2ccc(O)c(NS(C)(=O)=O)c2)c1

>  <score_type>  (62) 
oracle

>  <origin>  (62) 
adg

>  <m_score__min__energy>  (62) 
-14.69

>  <m_primary>  (62) 
energy

$$$$
62:0
     RDKit          3D

 44 47  0  0  1  0  0  0  0  0999 V2000
   57.9160   25.9720   44.9510 C   0  0  0  0  0  0  0  0  0  0  0  0
   58.5210   27.0300   45.8090 C   0  0  0  0  0  0  0  0  0  0  0  0
   59.7300   26.7540   46.4560 C   0  0  0  0  0  0  0  0  0  0  0  0
   60.3560   27.6760   47.2650 C   0  0  0  0  0  0  0  0  0  0  0  0
   59.7480   28.9010   47.4250 C   0  0  0  0  0  0  0  0  0  0  0  0
   58.5610   29.2020   46.8050 C   0  0  0  0  0  0  0  0  0  0  0  0
   57.9000   28.2790   45.9720 C   0  0  0  0  0  0  0  0  0  0  0  0
   56.6770   28.5800   45.2500 C   0  0  0  0  0  0  0  0  0  0  0  0
   56.3250   29.8230   44.7390 N   0  0  0  0  0  0  0  0  0  0  0  0
   56.9230   30.8580   44.3890 C   0  0  0  0  0  0  0  0  0  0  0  0
   57.0220   31.8900   45.2420 N   0  0  0  0  0  0  0  0  0  0  0  0
   57.6530   33.0030   44.9180 C   0  0  0  0  0  0  0  0  0  0  0  0
   57.8230   34.1490   45.7040 N   0  0  0  0  0  0  0  0  0  0  0  0
   58.7830   34.2240   46.5420 C   0  0  0  0  0  0  0  0  0  0  0  0
   59.7570   33.2260   46.6400 C   0  0  0  0  0  0  0  0  0  0  0  0
   60.6430   33.6100   47.6310 C   0  0  0  0  0  0  0  0  0  0  0  0
   61.8400   32.8350   48.0690 C   0  0  0  0  0  0  0  0  0  0  0  0
   62.1410   31.5770   47.2250 C   0  0  0  0  0  0  0  0  0  0  0  0
   63.0250   32.7730   47.2090 C   0  0  0  0  0  0  0  0  0  0  0  0
   60.2030   34.8070   48.1080 N   0  0  0  0  0  0  0  0  0  0  0  0
   59.1050   35.1460   47.4490 N   0  0  0  0  0  0  0  0  0  0  0  0
   58.2170   33.0500   43.6300 C   0  0  0  0  0  0  0  0  0  0  0  0
   58.1080   31.9980   42.7770 C   0  0  0  0  0  0  0  0  0  0  0  0
   57.4580   30.9050   43.1670 N   0  0  0  0  0  0  0  0  0  0  0  0
   57.4708   25.1935   45.5880 H   0  0  0  0  0  0  0  0  0  0  0  0
   57.1357   26.4167   44.3159 H   0  0  0  0  0  0  0  0  0  0  0  0
   58.6950   25.5250   44.3159 H   0  0  0  0  0  0  0  0  0  0  0  0
   60.1962   25.7679   46.3139 H   0  0  0  0  0  0  0  0  0  0  0  0
   61.3074   27.4423   47.7653 H   0  0  0  0  0  0  0  0  0  0  0  0
   60.2254   29.6572   48.0656 H   0  0  0  0  0  0  0  0  0  0  0  0
   58.1127   30.1939   46.9636 H   0  0  0  0  0  0  0  0  0  0  0  0
   56.6751   27.8996   44.3857 H   0  0  0  0  0  0  0  0  0  0  0  0
   55.9456   28.4943   46.0672 H   0  0  0  0  0  0  0  0  0  0  0  0
   59.8094   32.3055   46.0401 H   0  0  0  0  0  0  0  0  0  0  0  0
   61.6906   33.0857   49.1296 H   0  0  0  0  0  0  0  0  0  0  0  0
   62.4720   30.6474   47.7111 H   0  0  0  0  0  0  0  0  0  0  0  0
   61.6022   30.9819   46.4729 H   0  0  0  0  0  0  0  0  0  0  0  0
   64.0235   32.7142   47.6667 H   0  0  0  0  0  0  0  0  0  0  0  0
   63.4164   33.4173   46.4079 H   0  0  0  0  0  0  0  0  0  0  0  0
   60.6650   35.3570   48.8680 H   0  0  0  0  0  0  0  0  0  0  0  0
   58.5610   36.0170   47.6150 H   0  0  0  0  0  0  0  0  0  0  0  0
   58.7553   33.9537   43.3081 H   0  0  0  0  0  0  0  0  0  0  0  0
   58.5535   32.0498   41.7726 H   0  0  0  0  0  0  0  0  0  0  0  0
   57.3490   30.0950   42.5590 H   0  0  0  0  0  0  0  0  0  0  0  0
  1  2  1  0
  2  3  2  0
  3  4  1  0
  4  5  2  0
  5  6  1  0
  6  7  2  0
  7  8  1  0
  8  9  1  0
  9 10  2  0
 10 11  1  0
 11 12  2  0
 12 13  1  0
 13 14  2  0
 14 15  1  0
 15 16  2  0
 16 17  1  0
 17 18  1  0
 18 19  1  0
 16 20  1  0
 20 21  1  0
 12 22  1  0
 22 23  2  0
 23 24  1  0
  7  2  1  0
 24 10  1  0
 21 14  1  0
 19 17  1  0
  1 25  1  0
  1 26  1  0
  1 27  1  0
  3 28  1  0
  4 29  1  0
  5 30  1  0
  6 31  1  0
  8 32  1  0
  8 33  1  0
 15 34  1  0
 17 35  1  0
 18 36  1  0
 18 37  1  0
 19 38  1  0
 19 39  1  0
 20 40  1  0
 21 41  1  0
 22 42  1  0
 23 43  1  0
 24 44  1  0
M  END
>  <smiles>  (63) 
Cc1ccccc1CN=c1nc(N=c2cc(C3CC3)[nH][nH]2)cc[nH]1

>  <score_type>  (63) 
oracle

>  <origin>  (63) 
adg

>  <m_score__min__energy>  (63) 
-8.4499999999999993

>  <m_primary>  (63) 
energy

$$$$
63:0
     RDKit          3D

 26 27  0  0  0  0  0  0  0  0999 V2000
   56.9930   29.6890   42.9820 O   0  0  0  0  0  0  0  0  0  0  0  0
   57.6690   29.5780   44.3190 S   0  0  0  0  0  0  0  0  0  0  0  0
   59.0440   29.0030   44.1240 O   0  0  0  0  0  0  0  0  0  0  0  0
   56.7450   28.5150   45.3330 N   0  0  0  0  0  0  0  0  0  0  0  0
   57.1260   27.3540   45.7890 C   0  0  0  0  0  0  0  0  0  0  0  0
   58.4500   27.0350   45.9430 N   0  0  0  0  0  0  0  0  0  0  0  0
   58.8390   25.8230   46.4280 C   0  0  0  0  0  0  0  0  0  0  0  0
   57.8870   24.8670   46.7830 C   0  0  0  0  0  0  0  0  0  0  0  0
   56.5340   25.1660   46.6340 C   0  0  0  0  0  0  0  0  0  0  0  0
   56.1470   26.4110   46.1370 C   0  0  0  0  0  0  0  0  0  0  0  0
   54.7950   26.7050   45.9920 O   0  0  0  0  0  0  0  0  0  0  0  0
   57.7620   31.1820   45.0410 C   0  0  0  0  0  0  0  0  0  0  0  0
   58.2040   31.3400   46.3630 C   0  0  0  0  0  0  0  0  0  0  0  0
   58.2690   32.6150   46.9330 C   0  0  0  0  0  0  0  0  0  0  0  0
   57.8980   33.7370   46.1860 C   0  0  0  0  0  0  0  0  0  0  0  0
   57.4610   33.5840   44.8670 C   0  0  0  0  0  0  0  0  0  0  0  0
   57.3960   32.3100   44.2940 C   0  0  0  0  0  0  0  0  0  0  0  0
   59.2080   27.7080   45.6920 H   0  0  0  0  0  0  0  0  0  0  0  0
   59.9096   25.5968   46.5404 H   0  0  0  0  0  0  0  0  0  0  0  0
   58.2006   23.8886   47.1759 H   0  0  0  0  0  0  0  0  0  0  0  0
   55.7721   24.4214   46.9079 H   0  0  0  0  0  0  0  0  0  0  0  0
   58.4999   30.4594   46.9521 H   0  0  0  0  0  0  0  0  0  0  0  0
   58.6126   32.7355   47.9710 H   0  0  0  0  0  0  0  0  0  0  0  0
   57.9499   34.7395   46.6358 H   0  0  0  0  0  0  0  0  0  0  0  0
   57.1680   34.4665   44.2793 H   0  0  0  0  0  0  0  0  0  0  0  0
   57.0567   32.1929   43.2542 H   0  0  0  0  0  0  0  0  0  0  0  0
  1  2  2  0
  2  3  2  0
  2  4  1  0
  4  5  2  3
  5  6  1  0
  6  7  1  0
  7  8  2  0
  8  9  1  0
  9 10  2  0
 10 11  1  0
  2 12  1  0
 12 13  2  0
 13 14  1  0
 14 15  2  0
 15 16  1  0
 16 17  2  0
 10  5  1  0
 17 12  1  0
  6 18  1  0
  7 19  1  0
  8 20  1  0
  9 21  1  0
 13 22  1  0
 14 23  1  0
 15 24  1  0
 16 25  1  0
 17 26  1  0
M  CHG  1  11  -1
M  END
>  <UniqueID>  (64) 
58

>  <SMILES>  (64) 
O=S(=O)(N=c1[nH]cccc1[O-])c1ccccc1

>  <Energy>  (64) 
32.401406637661445

>  <Genealogy>  (64) 
O=S(=O)(N=c1[nH]cccc1[O-])c1ccccc1 (protonated)
O=S(=O)(N=c1[nH]cccc1[O-])c1ccccc1 (3D coordinates assigned)
O=S(=O)(N=c1[nH]cccc1[O-])c1ccccc1 (optimized conformer: 32.401406637661445 kcal/mol)

>  <smiles>  (64) 
O=S(=O)(N=c1[nH]cccc1O)c1ccccc1

>  <score_type>  (64) 
oracle

>  <origin>  (64) 
adg

>  <m_score__min__energy>  (64) 
-10.119999999999999

>  <m_primary>  (64) 
energy

$$$$
64:0
     RDKit          3D

 49 51  0  0  0  0  0  0  0  0999 V2000
   56.6200   32.2920   50.2940 H   0  0  0  0  0  0  0  0  0  0  0  0
   57.5290   32.2320   50.8060 N   0  0  0  0  0  0  0  0  0  0  0  0
   58.7660   32.1760   50.0990 C   0  0  0  0  0  0  0  0  0  0  0  0
   59.6940   31.4450   50.5420 O   0  0  0  0  0  0  0  0  0  0  0  0
   58.9640   32.9660   48.8610 C   0  0  0  0  0  0  0  0  0  0  0  0
   59.6600   34.1880   48.9000 C   0  0  0  0  0  0  0  0  0  0  0  0
   60.0462   34.5663   49.8580 H   0  0  0  0  0  0  0  0  0  0  0  0
   59.8640   34.9240   47.7310 C   0  0  0  0  0  0  0  0  0  0  0  0
   60.4163   35.8745   47.7707 H   0  0  0  0  0  0  0  0  0  0  0  0
   59.3690   34.4570   46.5120 C   0  0  0  0  0  0  0  0  0  0  0  0
   59.5455   35.0347   45.5927 H   0  0  0  0  0  0  0  0  0  0  0  0
   58.6500   33.2590   46.4530 C   0  0  0  0  0  0  0  0  0  0  0  0
   58.1750   32.8050   45.1770 N   0  0  0  0  0  0  0  0  0  0  0  0
   57.5130   31.5610   44.9100 C   0  0  0  0  0  0  0  0  0  0  0  0
   56.2950   31.5450   44.5820 O   0  0  0  0  0  0  0  0  0  0  0  0
   58.2540   30.3330   44.9710 N   0  0  0  0  0  0  0  0  0  0  0  0
   59.5470   30.2160   45.6220 C   0  0  0  0  0  0  0  0  0  0  0  0
   59.4744   30.5188   46.6770 H   0  0  0  0  0  0  0  0  0  0  0  0
   60.2996   30.8660   45.1517 H   0  0  0  0  0  0  0  0  0  0  0  0
   59.9280   28.7440   45.5160 C   0  0  0  0  0  0  0  0  0  0  0  0
   59.7599   28.2351   46.4766 H   0  0  0  0  0  0  0  0  0  0  0  0
   60.9914   28.6190   45.2639 H   0  0  0  0  0  0  0  0  0  0  0  0
   59.0220   28.1540   44.4360 C   0  0  0  0  0  0  0  0  0  0  0  0
   58.6985   27.1413   44.7183 H   0  0  0  0  0  0  0  0  0  0  0  0
   59.5433   28.0697   43.4710 H   0  0  0  0  0  0  0  0  0  0  0  0
   57.8170   29.0930   44.3460 C   0  0  1  0  0  0  0  0  0  0  0  0
   57.4995   29.2378   43.3028 H   0  0  0  0  0  0  0  0  0  0  0  0
   56.6260   28.5320   45.0730 C   0  0  0  0  0  0  0  0  0  0  0  0
   55.4870   29.0490   44.9020 O   0  0  0  0  0  0  0  0  0  0  0  0
   56.8110   27.4270   45.9710 N   0  0  0  0  0  0  0  0  0  0  0  0
   56.1390   26.3150   45.9640 C   0  0  0  0  0  0  0  0  0  0  0  0
   54.7900   26.2360   46.0010 N   0  0  0  0  0  0  0  0  0  0  0  0
   54.3440   24.9800   45.9780 N   0  0  0  0  0  0  0  0  0  0  0  0
   55.3370   24.0670   45.9290 C   0  0  0  0  0  0  0  0  0  0  0  0
   55.0570   22.2980   45.8670 S   0  0  0  0  0  0  0  0  0  0  0  0
   53.8030   22.2890   47.1950 C   0  0  0  0  0  0  0  0  0  0  0  0
   53.9721   23.1523   47.8553 H   0  0  0  0  0  0  0  0  0  0  0  0
   53.8959   21.3489   47.7585 H   0  0  0  0  0  0  0  0  0  0  0  0
   52.3900   22.3720   46.6150 C   0  0  0  0  0  0  0  0  0  0  0  0
   51.8426   23.1902   47.1059 H   0  0  0  0  0  0  0  0  0  0  0  0
   51.8721   21.4175   46.7901 H   0  0  0  0  0  0  0  0  0  0  0  0
   52.4500   22.6180   45.2230 O   0  0  0  0  0  0  0  0  0  0  0  0
   51.6420   23.7230   44.8820 C   0  0  0  0  0  0  0  0  0  0  0  0
   51.2840   24.2126   45.7997 H   0  0  0  0  0  0  0  0  0  0  0  0
   52.2310   24.4392   44.2902 H   0  0  0  0  0  0  0  0  0  0  0  0
   50.7810   23.3789   44.2902 H   0  0  0  0  0  0  0  0  0  0  0  0
   56.8560   24.7950   45.8980 S   0  0  0  0  0  0  0  0  0  0  0  0
   58.4680   32.5040   47.6270 C   0  0  0  0  0  0  0  0  0  0  0  0
   57.9332   31.5439   47.5799 H   0  0  0  0  0  0  0  0  0  0  0  0
  1  2  1  0
  2  3  1  0
  3  4  2  0
  3  5  1  0
  5  6  2  0
  6  7  1  0
  6  8  1  0
  8  9  1  0
  8 10  2  0
 10 11  1  0
 10 12  1  0
 12 13  1  0
 13 14  1  0
 14 15  2  0
 14 16  1  0
 16 17  1  0
 17 18  1  0
 17 19  1  0
 17 20  1  0
 20 21  1  0
 20 22  1  0
 20 23  1  0
 23 24  1  0
 23 25  1  0
 23 26  1  0
 26 27  1  6
 26 28  1  0
 28 29  2  0
 28 30  1  0
 30 31  2  0
 31 32  1  0
 32 33  1  0
 33 34  2  0
 34 35  1  0
 35 36  1  0
 36 37  1  0
 36 38  1  0
 36 39  1  0
 39 40  1  0
 39 41  1  0
 39 42  1  0
 42 43  1  0
 43 44  1  0
 43 45  1  0
 43 46  1  0
 34 47  1  0
 12 48  2  0
 48 49  1  0
 48  5  1  0
 26 16  1  0
 47 31  1  0
M  CHG  3   2  -1  13  -1  32  -1
M  END
>  <UniqueID>  (65) 
59

>  <SMILES>  (65) 
COCCSc1n[n-]/c(=N\C(=O)[C@@H]2CCCN2C(=O)[N-]c2cccc(C([NH-])=O)c2)s1

>  <Energy>  (65) 
85.47040783016362

>  <Genealogy>  (65) 
COCCSc1n[n-]c(=NC(=O)C2CCCN2C(=O)[N-]c2cccc(C([NH-])=O)c2)s1 (protonated)
COCCSc1n[n-]c(=NC(=O)[C@@H]2CCCN2C(=O)[N-]c2cccc(C([NH-])=O)c2)s1 (chirality)
COCCSc1n[n-]/c(=N\C(=O)[C@@H]2CCCN2C(=O)[N-]c2cccc(C([NH-])=O)c2)s1 (cis-trans isomerization)
COCCSc1n[n-]/c(=N\C(=O)[C@@H]2CCCN2C(=O)[N-]c2cccc(C([NH-])=O)c2)s1 (3D coordinates assigned)
COCCSc1n[n-]/c(=N\C(=O)[C@@H]2CCCN2C(=O)[N-]c2cccc(C([NH-])=O)c2)s1 (nonaromatic ring conformer: 85.47040783016362 kcal/mol)

>  <smiles>  (65) 
COCCSc1n[nH]c(=NC(=O)C2CCCN2C(=O)Nc2cccc(C(N)=O)c2)s1

>  <score_type>  (65) 
oracle

>  <origin>  (65) 
adg

>  <m_score__min__energy>  (65) 
-14.550000000000001

>  <m_primary>  (65) 
energy

$$$$
65:0
     RDKit          3D

 39 42  0  0  0  0  0  0  0  0999 V2000
   57.0480   22.9250   43.9220 C   0  0  0  0  0  0  0  0  0  0  0  0
   57.2760   24.3190   44.4260 C   0  0  0  0  0  0  0  0  0  0  0  0
   57.1550   24.6080   45.7940 C   0  0  0  0  0  0  0  0  0  0  0  0
   57.3670   25.9070   46.2610 C   0  0  0  0  0  0  0  0  0  0  0  0
   57.6800   26.9370   45.3650 C   0  0  0  0  0  0  0  0  0  0  0  0
   58.0090   28.5610   45.9600 S   0  0  0  0  0  0  0  0  0  0  0  0
   58.1190   28.5500   47.4590 O   0  0  0  0  0  0  0  0  0  0  0  0
   59.3120   29.0540   45.3950 O   0  0  0  0  0  0  0  0  0  0  0  0
   56.7390   29.6300   45.4750 N   0  0  0  0  0  0  0  0  0  0  0  0
   56.8900   30.4750   44.3370 C   0  0  0  0  0  0  0  0  0  0  0  0
   56.2970   30.1050   42.8120 S   0  0  0  0  0  0  0  0  0  0  0  0
   57.0090   31.4130   42.0290 C   0  0  0  0  0  0  0  0  0  0  0  0
   57.7370   32.1440   42.9610 C   0  0  0  0  0  0  0  0  0  0  0  0
   57.6760   31.6250   44.2640 C   0  0  0  0  0  0  0  0  0  0  0  0
   58.3990   32.2320   45.4000 C   0  0  0  0  0  0  0  0  0  0  0  0
   58.7530   31.5670   46.5310 N   0  0  0  0  0  0  0  0  0  0  0  0
   59.4440   32.3610   47.3900 C   0  0  0  0  0  0  0  0  0  0  0  0
   59.9600   31.9470   48.6200 C   0  0  0  0  0  0  0  0  0  0  0  0
   60.6820   32.8700   49.3940 C   0  0  0  0  0  0  0  0  0  0  0  0
   60.8740   34.1900   48.9380 C   0  0  0  0  0  0  0  0  0  0  0  0
   60.3460   34.5960   47.7010 C   0  0  0  0  0  0  0  0  0  0  0  0
   59.6370   33.6620   46.9530 C   0  0  0  0  0  0  0  0  0  0  0  0
   58.9230   33.8460   45.4460 S   0  0  0  0  0  0  0  0  0  0  0  0
   57.7750   26.6570   43.9950 C   0  0  0  0  0  0  0  0  0  0  0  0
   57.5680   25.3560   43.5270 C   0  0  0  0  0  0  0  0  0  0  0  0
   56.9360   22.2402   44.7756 H   0  0  0  0  0  0  0  0  0  0  0  0
   56.1340   22.9011   43.3104 H   0  0  0  0  0  0  0  0  0  0  0  0
   57.9068   22.6112   43.3104 H   0  0  0  0  0  0  0  0  0  0  0  0
   56.8920   23.8078   46.5015 H   0  0  0  0  0  0  0  0  0  0  0  0
   57.2878   26.1221   47.3369 H   0  0  0  0  0  0  0  0  0  0  0  0
   56.9144   31.6501   40.9590 H   0  0  0  0  0  0  0  0  0  0  0  0
   58.3088   33.0470   42.7010 H   0  0  0  0  0  0  0  0  0  0  0  0
   58.5180   30.5700   46.7330 H   0  0  0  0  0  0  0  0  0  0  0  0
   59.8039   30.9179   48.9757 H   0  0  0  0  0  0  0  0  0  0  0  0
   61.1007   32.5607   50.3630 H   0  0  0  0  0  0  0  0  0  0  0  0
   61.4396   34.9052   49.5533 H   0  0  0  0  0  0  0  0  0  0  0  0
   60.4892   35.6232   47.3345 H   0  0  0  0  0  0  0  0  0  0  0  0
   58.0132   27.4634   43.2858 H   0  0  0  0  0  0  0  0  0  0  0  0
   57.6343   25.1444   42.4496 H   0  0  0  0  0  0  0  0  0  0  0  0
  1  2  1  0
  2  3  2  0
  3  4  1  0
  4  5  2  0
  5  6  1  0
  6  7  2  0
  6  8  2  0
  6  9  1  0
  9 10  1  0
 10 11  1  0
 11 12  1  0
 12 13  2  0
 13 14  1  0
 14 15  1  0
 15 16  2  0
 16 17  1  0
 17 18  2  0
 18 19  1  0
 19 20  2  0
 20 21  1  0
 21 22  2  0
 22 23  1  0
  5 24  1  0
 24 25  2  0
 25  2  1  0
 14 10  2  0
 23 15  1  0
 22 17  1  0
  1 26  1  0
  1 27  1  0
  1 28  1  0
  3 29  1  0
  4 30  1  0
 12 31  1  0
 13 32  1  0
 16 33  1  0
 18 34  1  0
 19 35  1  0
 20 36  1  0
 21 37  1  0
 24 38  1  0
 25 39  1  0
M  CHG  2   9  -1  16   1
M  END
>  <UniqueID>  (66) 
60

>  <SMILES>  (66) 
Cc1ccc(S(=O)(=O)[N-]c2sccc2-c2[nH+]c3ccccc3s2)cc1

>  <Energy>  (66) 
108.96082071597723

>  <Genealogy>  (66) 
Cc1ccc(S(=O)(=O)[N-]c2sccc2-c2[nH+]c3ccccc3s2)cc1 (protonated)
Cc1ccc(S(=O)(=O)[N-]c2sccc2-c2[nH+]c3ccccc3s2)cc1 (3D coordinates assigned)
Cc1ccc(S(=O)(=O)[N-]c2sccc2-c2[nH+]c3ccccc3s2)cc1 (optimized conformer: 108.96082071597723 kcal/mol)

>  <smiles>  (66) 
Cc1ccc(S(=O)(=O)Nc2sccc2-c2nc3ccccc3s2)cc1

>  <score_type>  (66) 
oracle

>  <origin>  (66) 
adg

>  <m_score__min__energy>  (66) 
-8.5600000000000005

>  <m_primary>  (66) 
energy

$$$$
66:0
     RDKit          3D

 48 51  0  0  0  0  0  0  0  0999 V2000
   59.9860   28.0770   47.2020 O   0  0  0  0  0  0  0  0  0  0  0  0
   58.7960   28.3070   46.8610 C   0  0  0  0  0  0  0  0  0  0  0  0
   57.7060   27.3990   47.3760 C   0  0  0  0  0  0  0  0  0  0  0  0
   57.4500   26.2810   46.4630 N   0  0  0  0  0  0  0  0  0  0  0  0
   56.2680   25.9780   45.8800 C   0  0  0  0  0  0  0  0  0  0  0  0
   55.1020   26.7180   46.0410 O   0  0  0  0  0  0  0  0  0  0  0  0
   56.3820   24.8320   45.1200 C   0  0  0  0  0  0  0  0  0  0  0  0
   57.6810   24.4040   45.2550 C   0  0  0  0  0  0  0  0  0  0  0  0
   58.3240   25.3300   46.0510 C   0  0  0  0  0  0  0  0  0  0  0  0
   59.6770   25.2910   46.3810 O   0  0  0  0  0  0  0  0  0  0  0  0
   58.2390   23.1960   44.5670 C   0  0  0  0  0  0  0  0  0  0  0  0
   57.0980   22.2500   44.1450 C   0  0  0  0  0  0  0  0  0  0  0  0
   55.9410   23.0150   43.4670 C   0  0  0  0  0  0  0  0  0  0  0  0
   55.3120   24.0580   44.4130 C   0  0  0  0  0  0  0  0  0  0  0  0
   58.5330   29.4310   46.0090 N   0  0  0  0  0  0  0  0  0  0  0  0
   57.7890   29.3970   44.7850 C   0  0  0  0  0  0  0  0  0  0  0  0
   57.9400   28.2890   43.9410 C   0  0  0  0  0  0  0  0  0  0  0  0
   57.3060   28.2570   42.6970 C   0  0  0  0  0  0  0  0  0  0  0  0
   56.5050   29.3260   42.2940 C   0  0  0  0  0  0  0  0  0  0  0  0
   56.3180   30.4200   43.1430 C   0  0  0  0  0  0  0  0  0  0  0  0
   56.9310   30.4560   44.4010 C   0  0  0  0  0  0  0  0  0  0  0  0
   56.6940   31.5650   45.2240 O   0  0  0  0  0  0  0  0  0  0  0  0
   57.6330   32.5640   45.5210 C   0  0  0  0  0  0  0  0  0  0  0  0
   58.2340   33.3460   44.5150 C   0  0  0  0  0  0  0  0  0  0  0  0
   59.1660   34.3310   44.8550 C   0  0  0  0  0  0  0  0  0  0  0  0
   59.5120   34.5370   46.1930 C   0  0  0  0  0  0  0  0  0  0  0  0
   58.9300   33.7530   47.1930 C   0  0  0  0  0  0  0  0  0  0  0  0
   57.9990   32.7660   46.8570 C   0  0  0  0  0  0  0  0  0  0  0  0
   58.0101   26.9973   48.3539 H   0  0  0  0  0  0  0  0  0  0  0  0
   56.7816   27.9893   47.4602 H   0  0  0  0  0  0  0  0  0  0  0  0
   60.2020   26.1320   46.5790 H   0  0  0  0  0  0  0  0  0  0  0  0
   58.7980   23.5122   43.6740 H   0  0  0  0  0  0  0  0  0  0  0  0
   58.9080   22.6649   45.2601 H   0  0  0  0  0  0  0  0  0  0  0  0
   57.4951   21.5059   43.4389 H   0  0  0  0  0  0  0  0  0  0  0  0
   56.7035   21.7647   45.0499 H   0  0  0  0  0  0  0  0  0  0  0  0
   56.3289   23.5305   42.5760 H   0  0  0  0  0  0  0  0  0  0  0  0
   55.1627   22.2868   43.1950 H   0  0  0  0  0  0  0  0  0  0  0  0
   54.6902   24.7508   43.8270 H   0  0  0  0  0  0  0  0  0  0  0  0
   54.6950   23.5370   45.1599 H   0  0  0  0  0  0  0  0  0  0  0  0
   58.5615   27.4393   44.2600 H   0  0  0  0  0  0  0  0  0  0  0  0
   57.4382   27.3887   42.0347 H   0  0  0  0  0  0  0  0  0  0  0  0
   56.0201   29.3076   41.3068 H   0  0  0  0  0  0  0  0  0  0  0  0
   55.6843   31.2593   42.8204 H   0  0  0  0  0  0  0  0  0  0  0  0
   57.9695   33.1813   43.4601 H   0  0  0  0  0  0  0  0  0  0  0  0
   59.6278   34.9450   44.0677 H   0  0  0  0  0  0  0  0  0  0  0  0
   60.2420   35.3157   46.4591 H   0  0  0  0  0  0  0  0  0  0  0  0
   59.2050   33.9129   48.2460 H   0  0  0  0  0  0  0  0  0  0  0  0
   57.5515   32.1446   47.6467 H   0  0  0  0  0  0  0  0  0  0  0  0
  1  2  2  0
  2  3  1  0
  3  4  1  0
  4  5  1  0
  5  6  1  0
  5  7  2  0
  7  8  1  0
  8  9  2  0
  9 10  1  0
  8 11  1  0
 11 12  1  0
 12 13  1  0
 13 14  1  0
  2 15  1  0
 15 16  1  0
 16 17  2  0
 17 18  1  0
 18 19  2  0
 19 20  1  0
 20 21  2  0
 21 22  1  0
 22 23  1  0
 23 24  2  0
 24 25  1  0
 25 26  2  0
 26 27  1  0
 27 28  2  0
  9  4  1  0
 21 16  1  0
 28 23  1  0
 14  7  1  0
  3 29  1  0
  3 30  1  0
 10 31  1  0
 11 32  1  0
 11 33  1  0
 12 34  1  0
 12 35  1  0
 13 36  1  0
 13 37  1  0
 14 38  1  0
 14 39  1  0
 17 40  1  0
 18 41  1  0
 19 42  1  0
 20 43  1  0
 24 44  1  0
 25 45  1  0
 26 46  1  0
 27 47  1  0
 28 48  1  0
M  CHG  2   6  -1  15  -1
M  END
>  <UniqueID>  (67) 
61

>  <SMILES>  (67) 
O=C(Cn1c([O-])c2c(c1O)CCCC2)[N-]c1ccccc1Oc1ccccc1

>  <Energy>  (67) 
88.83278237392427

>  <Genealogy>  (67) 
O=C(Cn1c([O-])c2c(c1O)CCCC2)[N-]c1ccccc1Oc1ccccc1 (protonated)
O=C(Cn1c([O-])c2c(c1O)CCCC2)[N-]c1ccccc1Oc1ccccc1 (3D coordinates assigned)
O=C(Cn1c([O-])c2c(c1O)CCCC2)[N-]c1ccccc1Oc1ccccc1 (nonaromatic ring conformer: 88.83278237392427 kcal/mol)

>  <smiles>  (67) 
O=C(Cn1c(O)c2c(c1O)CCCC2)Nc1ccccc1Oc1ccccc1

>  <score_type>  (67) 
oracle

>  <origin>  (67) 
adg

>  <m_score__min__energy>  (67) 
-13.140000000000001

>  <m_primary>  (67) 
energy

$$$$
67:0
     RDKit          3D

 44 46  0  0  0  0  0  0  0  0999 V2000
   59.4140   35.0200   46.2540 C   0  0  0  0  0  0  0  0  0  0  0  0
   58.5020   33.9700   46.5590 O   0  0  0  0  0  0  0  0  0  0  0  0
   58.2430   32.8630   45.7340 C   0  0  0  0  0  0  0  0  0  0  0  0
   57.7290   33.0360   44.4340 C   0  0  0  0  0  0  0  0  0  0  0  0
   57.5070   31.9380   43.6060 C   0  0  0  0  0  0  0  0  0  0  0  0
   57.7970   30.6530   44.0540 C   0  0  0  0  0  0  0  0  0  0  0  0
   58.2960   30.4460   45.3480 C   0  0  0  0  0  0  0  0  0  0  0  0
   58.6330   29.0400   45.7920 C   0  0  0  0  0  0  0  0  0  0  0  0
   57.4310   28.2290   45.9500 N   0  0  0  0  0  0  0  0  0  0  0  0
   57.4280   26.8860   46.4460 C   0  0  0  0  0  0  0  0  0  0  0  0
   58.3290   26.5070   47.2440 O   0  0  0  0  0  0  0  0  0  0  0  0
   56.3830   25.9390   46.0200 C   0  0  0  0  0  0  0  0  0  0  0  0
   56.6960   24.6250   45.6440 C   0  0  0  0  0  0  0  0  0  0  0  0
   55.6710   23.7670   45.2510 C   0  0  0  0  0  0  0  0  0  0  0  0
   54.3580   24.2350   45.2460 C   0  0  0  0  0  0  0  0  0  0  0  0
   53.4130   23.4790   44.8980 O   0  0  0  0  0  0  0  0  0  0  0  0
   54.1020   25.5150   45.6190 N   0  0  0  0  0  0  0  0  0  0  0  0
   55.0830   26.3400   45.9930 N   0  0  0  0  0  0  0  0  0  0  0  0
   58.5140   31.5510   46.2040 C   0  0  0  0  0  0  0  0  0  0  0  0
   58.9950   31.2830   47.4990 O   0  0  0  0  0  0  0  0  0  0  0  0
   59.5370   32.2290   48.4160 C   0  0  0  0  0  0  0  0  0  0  0  0
   60.9810   32.4660   48.0790 C   0  0  0  0  0  0  0  0  0  0  0  0
   61.7270   31.4580   47.4480 C   0  0  0  0  0  0  0  0  0  0  0  0
   63.0780   31.6620   47.1510 C   0  0  0  0  0  0  0  0  0  0  0  0
   63.6910   32.8760   47.4770 C   0  0  0  0  0  0  0  0  0  0  0  0
   62.9540   33.8850   48.1010 C   0  0  0  0  0  0  0  0  0  0  0  0
   61.6050   33.6820   48.4060 C   0  0  0  0  0  0  0  0  0  0  0  0
   59.7945   35.4581   47.1885 H   0  0  0  0  0  0  0  0  0  0  0  0
   60.2541   34.6176   45.6689 H   0  0  0  0  0  0  0  0  0  0  0  0
   58.8979   35.7955   45.6689 H   0  0  0  0  0  0  0  0  0  0  0  0
   57.5006   34.0482   44.0690 H   0  0  0  0  0  0  0  0  0  0  0  0
   57.1011   32.0873   42.5946 H   0  0  0  0  0  0  0  0  0  0  0  0
   57.6336   29.7929   43.3880 H   0  0  0  0  0  0  0  0  0  0  0  0
   59.2833   28.5728   45.0378 H   0  0  0  0  0  0  0  0  0  0  0  0
   59.1423   29.0972   46.7653 H   0  0  0  0  0  0  0  0  0  0  0  0
   57.7389   24.2755   45.6591 H   0  0  0  0  0  0  0  0  0  0  0  0
   55.8951   22.7334   44.9485 H   0  0  0  0  0  0  0  0  0  0  0  0
   58.9809   33.1752   48.3413 H   0  0  0  0  0  0  0  0  0  0  0  0
   59.4541   31.8411   49.4420 H   0  0  0  0  0  0  0  0  0  0  0  0
   61.2467   30.5037   47.1861 H   0  0  0  0  0  0  0  0  0  0  0  0
   63.6591   30.8671   46.6606 H   0  0  0  0  0  0  0  0  0  0  0  0
   64.7536   33.0362   47.2420 H   0  0  0  0  0  0  0  0  0  0  0  0
   63.4360   34.8412   48.3529 H   0  0  0  0  0  0  0  0  0  0  0  0
   61.0299   34.4768   48.9036 H   0  0  0  0  0  0  0  0  0  0  0  0
  1  2  1  0
  2  3  1  0
  3  4  2  0
  4  5  1  0
  5  6  2  0
  6  7  1  0
  7  8  1  0
  8  9  1  0
  9 10  1  0
 10 11  2  0
 10 12  1  0
 12 13  1  0
 13 14  2  0
 14 15  1  0
 15 16  2  0
 15 17  1  0
 17 18  1  0
  7 19  2  0
 19 20  1  0
 20 21  1  0
 21 22  1  0
 22 23  2  0
 23 24  1  0
 24 25  2  0
 25 26  1  0
 26 27  2  0
 19  3  1  0
 27 22  1  0
 18 12  2  0
  1 28  1  0
  1 29  1  0
  1 30  1  0
  4 31  1  0
  5 32  1  0
  6 33  1  0
  8 34  1  0
  8 35  1  0
 13 36  1  0
 14 37  1  0
 21 38  1  0
 21 39  1  0
 23 40  1  0
 24 41  1  0
 25 42  1  0
 26 43  1  0
 27 44  1  0
M  CHG  2   9  -1  17  -1
M  END
>  <UniqueID>  (68) 
62

>  <SMILES>  (68) 
COc1cccc(C[N-]C(=O)c2ccc(=O)[n-]n2)c1OCc1ccccc1

>  <Energy>  (68) 
45.40668393646735

>  <Genealogy>  (68) 
COc1cccc(C[N-]C(=O)c2ccc(=O)[n-]n2)c1OCc1ccccc1 (protonated)
COc1cccc(C[N-]C(=O)c2ccc(=O)[n-]n2)c1OCc1ccccc1 (3D coordinates assigned)
COc1cccc(C[N-]C(=O)c2ccc(=O)[n-]n2)c1OCc1ccccc1 (optimized conformer: 45.40668393646735 kcal/mol)

>  <smiles>  (68) 
COc1cccc(CNC(=O)c2ccc(=O)[nH]n2)c1OCc1ccccc1

>  <score_type>  (68) 
oracle

>  <origin>  (68) 
adg

>  <m_score__min__energy>  (68) 
-11.73

>  <m_primary>  (68) 
energy

$$$$
68:0
     RDKit          3D

 32 33  0  0  0  0  0  0  0  0999 V2000
   54.8300   29.3400   44.5920 O   0  0  0  0  0  0  0  0  0  0  0  0
   56.0900   29.2860   44.5700 C   0  0  0  0  0  0  0  0  0  0  0  0
   56.7610   28.0540   44.8740 N   0  0  0  0  0  0  0  0  0  0  0  0
   56.9010   27.4590   46.2040 C   0  0  2  0  0  0  0  0  0  0  0  0
   58.3690   27.0880   46.5050 C   0  0  0  0  0  0  0  0  0  0  0  0
   59.1690   28.3000   46.9080 C   0  0  0  0  0  0  0  0  0  0  0  0
   59.1440   28.7610   48.2360 C   0  0  0  0  0  0  0  0  0  0  0  0
   59.9180   29.8610   48.6150 C   0  0  0  0  0  0  0  0  0  0  0  0
   60.7240   30.5080   47.6740 C   0  0  0  0  0  0  0  0  0  0  0  0
   60.7610   30.0510   46.3530 C   0  0  0  0  0  0  0  0  0  0  0  0
   59.9900   28.9490   45.9710 C   0  0  0  0  0  0  0  0  0  0  0  0
   55.9650   26.2910   46.3600 C   0  0  0  0  0  0  0  0  0  0  0  0
   54.7760   26.3520   45.9460 O   0  0  0  0  0  0  0  0  0  0  0  0
   56.4010   25.1460   47.0130 O   0  0  0  0  0  0  0  0  0  0  0  0
   56.8760   30.4910   44.2220 C   0  0  0  0  0  0  0  0  0  0  0  0
   57.0900   30.8500   42.8800 C   0  0  0  0  0  0  0  0  0  0  0  0
   57.8080   31.9630   42.5730 N   0  0  0  0  0  0  0  0  0  0  0  0
   58.3390   32.7620   43.5360 C   0  0  0  0  0  0  0  0  0  0  0  0
   58.1520   32.4480   44.8830 C   0  0  0  0  0  0  0  0  0  0  0  0
   58.8930   33.5660   46.2430 Br  0  0  0  0  0  0  0  0  0  0  0  0
   57.4180   31.3110   45.2260 C   0  0  0  0  0  0  0  0  0  0  0  0
   56.6138   28.2098   46.9549 H   0  0  0  0  0  0  0  0  0  0  0  0
   58.3924   26.3546   47.3245 H   0  0  0  0  0  0  0  0  0  0  0  0
   58.8145   26.6660   45.5920 H   0  0  0  0  0  0  0  0  0  0  0  0
   58.5124   28.2535   48.9800 H   0  0  0  0  0  0  0  0  0  0  0  0
   59.8929   30.2181   49.6551 H   0  0  0  0  0  0  0  0  0  0  0  0
   61.3292   31.3767   47.9726 H   0  0  0  0  0  0  0  0  0  0  0  0
   61.3974   30.5591   45.6135 H   0  0  0  0  0  0  0  0  0  0  0  0
   60.0265   28.5887   44.9323 H   0  0  0  0  0  0  0  0  0  0  0  0
   56.6745   30.2273   42.0740 H   0  0  0  0  0  0  0  0  0  0  0  0
   58.9156   33.6553   43.2539 H   0  0  0  0  0  0  0  0  0  0  0  0
   57.2636   31.0565   46.2850 H   0  0  0  0  0  0  0  0  0  0  0  0
  1  2  2  0
  2  3  1  0
  3  4  1  0
  4  5  1  0
  5  6  1  0
  6  7  2  0
  7  8  1  0
  8  9  2  0
  9 10  1  0
 10 11  2  0
  4 12  1  0
 12 13  2  0
 12 14  1  0
  2 15  1  0
 15 16  2  0
 16 17  1  0
 17 18  2  0
 18 19  1  0
 19 20  1  0
 19 21  2  0
 11  6  1  0
 21 15  1  0
  4 22  1  1
  5 23  1  0
  5 24  1  0
  7 25  1  0
  8 26  1  0
  9 27  1  0
 10 28  1  0
 11 29  1  0
 16 30  1  0
 18 31  1  0
 21 32  1  0
M  CHG  2   3  -1  14  -1
M  END
>  <UniqueID>  (69) 
63

>  <SMILES>  (69) 
O=C([N-][C@H](Cc1ccccc1)C(=O)[O-])c1cncc(Br)c1

>  <Energy>  (69) 
31.112731744602204

>  <Genealogy>  (69) 
O=C([N-]C(Cc1ccccc1)C(=O)[O-])c1cncc(Br)c1 (protonated)
O=C([N-][C@H](Cc1ccccc1)C(=O)[O-])c1cncc(Br)c1 (chirality)
O=C([N-][C@H](Cc1ccccc1)C(=O)[O-])c1cncc(Br)c1 (3D coordinates assigned)
O=C([N-][C@H](Cc1ccccc1)C(=O)[O-])c1cncc(Br)c1 (optimized conformer: 31.112731744602204 kcal/mol)

>  <smiles>  (69) 
O=C(NC(Cc1ccccc1)C(=O)O)c1cncc(Br)c1

>  <score_type>  (69) 
oracle

>  <origin>  (69) 
adg

>  <m_score__min__energy>  (69) 
-12.02

>  <m_primary>  (69) 
energy

$$$$
69:0
     RDKit          3D

 70 73  0  0  0  0  0  0  0  0999 V2000
   61.9960   34.0480   46.3750 C   0  0  0  0  0  0  0  0  0  0  0  0
   60.5790   33.9300   46.7340 N   0  0  0  0  0  0  0  0  0  0  0  0
   59.5790   33.7280   45.6690 C   0  0  0  0  0  0  0  0  0  0  0  0
   58.7700   32.4850   45.9210 C   0  0  0  0  0  0  0  0  0  0  0  0
   57.5190   32.5750   46.0670 O   0  0  0  0  0  0  0  0  0  0  0  0
   59.4220   31.2090   46.0140 N   0  0  0  0  0  0  0  0  0  0  0  0
   58.7280   29.9480   45.9650 C   0  0  0  0  0  0  0  0  0  0  0  0
   58.7010   29.1350   47.1070 C   0  0  0  0  0  0  0  0  0  0  0  0
   58.0130   27.9170   47.0940 C   0  0  0  0  0  0  0  0  0  0  0  0
   57.3590   27.4870   45.9310 C   0  0  0  0  0  0  0  0  0  0  0  0
   56.4580   25.9760   45.9270 S   0  0  0  0  0  0  0  0  0  0  0  0
   54.7670   26.3240   45.9910 N   0  0  0  0  0  0  0  0  0  0  0  0
   56.7710   25.2020   44.6750 O   0  0  0  0  0  0  0  0  0  0  0  0
   56.8430   25.1460   47.1240 O   0  0  0  0  0  0  0  0  0  0  0  0
   57.4090   28.2780   44.7780 C   0  0  0  0  0  0  0  0  0  0  0  0
   58.0990   29.4960   44.7890 C   0  0  0  0  0  0  0  0  0  0  0  0
   60.2140   33.8870   48.1350 C   0  0  0  0  0  0  0  0  0  0  0  0
   59.9550   34.9620   48.7550 O   0  0  0  0  0  0  0  0  0  0  0  0
   60.1260   32.6210   48.8860 C   0  0  0  0  0  0  0  0  0  0  0  0
   60.9430   31.5300   48.5520 C   0  0  0  0  0  0  0  0  0  0  0  0
   60.8410   30.3300   49.2640 C   0  0  0  0  0  0  0  0  0  0  0  0
   59.9090   30.2080   50.2980 C   0  0  0  0  0  0  0  0  0  0  0  0
   59.0590   31.2790   50.6130 C   0  0  0  0  0  0  0  0  0  0  0  0
   57.8450   31.1140   51.8850 S   0  0  0  0  0  0  0  0  0  0  0  0
   57.1690   29.7790   51.7090 O   0  0  0  0  0  0  0  0  0  0  0  0
   56.8030   32.1840   51.6870 O   0  0  0  0  0  0  0  0  0  0  0  0
   58.5060   31.1640   53.5130 N   0  0  0  0  0  0  0  0  0  0  0  0
   58.4780   32.5280   54.0740 C   0  0  0  0  0  0  0  0  0  0  0  0
   59.6110   33.4290   53.5180 C   0  0  0  0  0  0  0  0  0  0  0  0
   60.7020   32.6490   52.8910 N   0  0  0  0  0  0  0  0  0  0  0  0
   61.8970   33.5040   52.7250 C   0  0  0  0  0  0  0  0  0  0  0  0
   62.6470   33.1670   51.4590 C   0  0  0  0  0  0  0  0  0  0  0  0
   63.2380   31.9030   51.2950 C   0  0  0  0  0  0  0  0  0  0  0  0
   63.9430   31.6040   50.1240 C   0  0  0  0  0  0  0  0  0  0  0  0
   64.0440   32.5550   49.1010 C   0  0  0  0  0  0  0  0  0  0  0  0
   63.4560   33.8120   49.2570 C   0  0  0  0  0  0  0  0  0  0  0  0
   62.7620   34.1210   50.4330 C   0  0  0  0  0  0  0  0  0  0  0  0
   61.0030   31.4710   53.7210 C   0  0  0  0  0  0  0  0  0  0  0  0
   59.8140   30.4930   53.6920 C   0  0  0  0  0  0  0  0  0  0  0  0
   59.1670   32.4790   49.9000 C   0  0  0  0  0  0  0  0  0  0  0  0
   62.6033   34.0986   47.2908 H   0  0  0  0  0  0  0  0  0  0  0  0
   62.2983   33.1719   45.7825 H   0  0  0  0  0  0  0  0  0  0  0  0
   62.1492   34.9620   45.7825 H   0  0  0  0  0  0  0  0  0  0  0  0
   58.9047   34.5966   45.6387 H   0  0  0  0  0  0  0  0  0  0  0  0
   60.1051   33.6164   44.7095 H   0  0  0  0  0  0  0  0  0  0  0  0
   60.4440   31.1990   46.2310 H   0  0  0  0  0  0  0  0  0  0  0  0
   59.2243   29.4571   48.0193 H   0  0  0  0  0  0  0  0  0  0  0  0
   57.9851   27.2941   48.0002 H   0  0  0  0  0  0  0  0  0  0  0  0
   54.6420   27.0930   46.6880 H   0  0  0  0  0  0  0  0  0  0  0  0
   56.9046   27.9418   43.8601 H   0  0  0  0  0  0  0  0  0  0  0  0
   58.1501   30.1036   43.8735 H   0  0  0  0  0  0  0  0  0  0  0  0
   61.6660   31.6186   47.7277 H   0  0  0  0  0  0  0  0  0  0  0  0
   61.4945   29.4825   49.0098 H   0  0  0  0  0  0  0  0  0  0  0  0
   59.8415   29.2690   50.8670 H   0  0  0  0  0  0  0  0  0  0  0  0
   57.5098   32.9891   53.8290 H   0  0  0  0  0  0  0  0  0  0  0  0
   58.6255   32.4426   55.1607 H   0  0  0  0  0  0  0  0  0  0  0  0
   59.1843   34.1070   52.7642 H   0  0  0  0  0  0  0  0  0  0  0  0
   60.0417   33.9837   54.3646 H   0  0  0  0  0  0  0  0  0  0  0  0
   61.5804   34.5566   52.6834 H   0  0  0  0  0  0  0  0  0  0  0  0
   62.5672   33.3301   53.5798 H   0  0  0  0  0  0  0  0  0  0  0  0
   63.1463   31.1470   52.0887 H   0  0  0  0  0  0  0  0  0  0  0  0
   64.4192   30.6194   50.0066 H   0  0  0  0  0  0  0  0  0  0  0  0
   64.5861   32.3120   48.1752 H   0  0  0  0  0  0  0  0  0  0  0  0
   63.5382   34.5603   48.4549 H   0  0  0  0  0  0  0  0  0  0  0  0
   62.3050   35.1141   50.5546 H   0  0  0  0  0  0  0  0  0  0  0  0
   61.8991   30.9677   53.3289 H   0  0  0  0  0  0  0  0  0  0  0  0
   61.1818   31.7938   54.7573 H   0  0  0  0  0  0  0  0  0  0  0  0
   59.9617   29.7889   52.8599 H   0  0  0  0  0  0  0  0  0  0  0  0
   59.7877   29.9841   54.6669 H   0  0  0  0  0  0  0  0  0  0  0  0
   58.4948   33.3169   50.1367 H   0  0  0  0  0  0  0  0  0  0  0  0
  1  2  1  0
  2  3  1  0
  3  4  1  0
  4  5  2  0
  4  6  1  0
  6  7  1  0
  7  8  2  0
  8  9  1  0
  9 10  2  0
 10 11  1  0
 11 12  1  0
 11 13  2  0
 11 14  2  0
 10 15  1  0
 15 16  2  0
  2 17  1  0
 17 18  2  0
 17 19  1  0
 19 20  2  0
 20 21  1  0
 21 22  2  0
 22 23  1  0
 23 24  1  0
 24 25  2  0
 24 26  2  0
 24 27  1  0
 27 28  1  0
 28 29  1  0
 29 30  1  0
 30 31  1  0
 31 32  1  0
 32 33  2  0
 33 34  1  0
 34 35  2  0
 35 36  1  0
 36 37  2  0
 30 38  1  0
 38 39  1  0
 23 40  2  0
 16  7  1  0
 40 19  1  0
 39 27  1  0
 37 32  1  0
  1 41  1  0
  1 42  1  0
  1 43  1  0
  3 44  1  0
  3 45  1  0
  6 46  1  0
  8 47  1  0
  9 48  1  0
 12 49  1  0
 15 50  1  0
 16 51  1  0
 20 52  1  0
 21 53  1  0
 22 54  1  0
 28 55  1  0
 28 56  1  0
 29 57  1  0
 29 58  1  0
 31 59  1  0
 31 60  1  0
 33 61  1  0
 34 62  1  0
 35 63  1  0
 36 64  1  0
 37 65  1  0
 38 66  1  0
 38 67  1  0
 39 68  1  0
 39 69  1  0
 40 70  1  0
M  CHG  1  12  -1
M  END
>  <UniqueID>  (70) 
64

>  <SMILES>  (70) 
CN(CC(=O)Nc1ccc(S([NH-])(=O)=O)cc1)C(=O)c1cccc(S(=O)(=O)N2CCN(Cc3ccccc3)CC2)c1

>  <Energy>  (70) 
83.61663916165634

>  <Genealogy>  (70) 
CN(CC(=O)Nc1ccc(S([NH-])(=O)=O)cc1)C(=O)c1cccc(S(=O)(=O)N2CCN(Cc3ccccc3)CC2)c1 (protonated)
CN(CC(=O)Nc1ccc(S([NH-])(=O)=O)cc1)C(=O)c1cccc(S(=O)(=O)N2CCN(Cc3ccccc3)CC2)c1 (3D coordinates assigned)
CN(CC(=O)Nc1ccc(S([NH-])(=O)=O)cc1)C(=O)c1cccc(S(=O)(=O)N2CCN(Cc3ccccc3)CC2)c1 (nonaromatic ring conformer: 83.61663916165634 kcal/mol)

>  <smiles>  (70) 
CN(CC(=O)Nc1ccc(S(N)(=O)=O)cc1)C(=O)c1cccc(S(=O)(=O)N2CCN(Cc3ccccc3)CC2)c1

>  <score_type>  (70) 
oracle

>  <origin>  (70) 
adg

>  <m_score__min__energy>  (70) 
-13.119999999999999

>  <m_primary>  (70) 
energy

$$$$
70:0
     RDKit          3D

 54 57  0  0  0  0  0  0  0  0999 V2000
   57.8070   27.9590   46.7650 C   0  0  0  0  0  0  0  0  0  0  0  0
   57.0380   27.7750   45.5000 C   0  0  0  0  0  0  0  0  0  0  0  0
   57.4360   26.9410   44.6420 O   0  0  0  0  0  0  0  0  0  0  0  0
   55.8890   28.5870   45.2440 N   0  0  0  0  0  0  0  0  0  0  0  0
   55.9440   29.8700   44.5510 C   0  0  0  0  0  0  0  0  0  0  0  0
   57.3920   30.2500   44.2420 C   0  0  0  0  0  0  0  0  0  0  0  0
   57.7090   31.6150   44.7900 C   0  0  0  0  0  0  0  0  0  0  0  0
   57.5770   32.7720   43.9880 C   0  0  0  0  0  0  0  0  0  0  0  0
   57.9140   34.0450   44.4990 C   0  0  0  0  0  0  0  0  0  0  0  0
   58.3970   34.1860   45.8110 C   0  0  0  0  0  0  0  0  0  0  0  0
   58.5320   33.0300   46.5760 C   0  0  0  0  0  0  0  0  0  0  0  0
   58.2040   31.7820   46.0870 C   0  0  0  0  0  0  0  0  0  0  0  0
   58.4290   30.8470   46.9920 O   0  0  0  0  0  0  0  0  0  0  0  0
   58.8950   31.4610   48.0610 C   0  0  0  0  0  0  0  0  0  0  0  0
   59.2780   30.8840   49.2690 C   0  0  0  0  0  0  0  0  0  0  0  0
   59.7540   31.7340   50.2890 C   0  0  0  0  0  0  0  0  0  0  0  0
   60.2830   31.0370   51.8170 S   0  0  0  0  0  0  0  0  0  0  0  0
   60.2120   32.0660   52.9130 O   0  0  0  0  0  0  0  0  0  0  0  0
   59.3740   29.8950   52.1740 O   0  0  0  0  0  0  0  0  0  0  0  0
   61.9100   30.4480   51.6660 N   0  0  0  0  0  0  0  0  0  0  0  0
   62.8480   31.5720   51.6870 C   0  0  0  0  0  0  0  0  0  0  0  0
   62.9520   32.1670   50.3110 C   0  0  0  0  0  0  0  0  0  0  0  0
   62.8240   31.3540   49.1730 C   0  0  0  0  0  0  0  0  0  0  0  0
   62.8920   31.9150   47.8940 C   0  0  0  0  0  0  0  0  0  0  0  0
   63.0660   33.2980   47.7360 C   0  0  0  0  0  0  0  0  0  0  0  0
   63.1760   33.8990   46.3650 C   0  0  0  0  0  0  0  0  0  0  0  0
   63.1940   34.1110   48.8710 C   0  0  0  0  0  0  0  0  0  0  0  0
   63.1260   33.5510   50.1510 C   0  0  0  0  0  0  0  0  0  0  0  0
   59.8410   33.1320   50.0690 C   0  0  0  0  0  0  0  0  0  0  0  0
   59.4480   33.6900   48.8380 C   0  0  0  0  0  0  0  0  0  0  0  0
   58.9780   32.8220   47.8580 C   0  0  0  0  0  0  0  0  0  0  0  0
   57.1407   27.7996   47.6256 H   0  0  0  0  0  0  0  0  0  0  0  0
   58.6327   27.2331   46.8011 H   0  0  0  0  0  0  0  0  0  0  0  0
   58.2147   28.9800   46.8011 H   0  0  0  0  0  0  0  0  0  0  0  0
   55.3800   29.7973   43.6094 H   0  0  0  0  0  0  0  0  0  0  0  0
   55.5037   30.6430   45.1980 H   0  0  0  0  0  0  0  0  0  0  0  0
   58.0655   29.5109   44.7004 H   0  0  0  0  0  0  0  0  0  0  0  0
   57.5300   30.2648   43.1508 H   0  0  0  0  0  0  0  0  0  0  0  0
   57.2082   32.6798   42.9558 H   0  0  0  0  0  0  0  0  0  0  0  0
   57.7971   34.9351   43.8634 H   0  0  0  0  0  0  0  0  0  0  0  0
   58.6589   35.1734   46.2190 H   0  0  0  0  0  0  0  0  0  0  0  0
   59.2113   29.7969   49.4233 H   0  0  0  0  0  0  0  0  0  0  0  0
   62.0970   29.8540   52.5060 H   0  0  0  0  0  0  0  0  0  0  0  0
   62.4872   32.3369   52.3904 H   0  0  0  0  0  0  0  0  0  0  0  0
   63.8383   31.2157   52.0069 H   0  0  0  0  0  0  0  0  0  0  0  0
   62.6696   30.2710   49.2884 H   0  0  0  0  0  0  0  0  0  0  0  0
   62.8087   31.2689   47.0077 H   0  0  0  0  0  0  0  0  0  0  0  0
   63.3734   34.9776   46.4522 H   0  0  0  0  0  0  0  0  0  0  0  0
   64.0011   33.4182   45.8190 H   0  0  0  0  0  0  0  0  0  0  0  0
   62.2341   33.7416   45.8190 H   0  0  0  0  0  0  0  0  0  0  0  0
   63.3486   35.1938   48.7544 H   0  0  0  0  0  0  0  0  0  0  0  0
   63.2093   34.1981   51.0366 H   0  0  0  0  0  0  0  0  0  0  0  0
   60.2192   33.7867   50.8679 H   0  0  0  0  0  0  0  0  0  0  0  0
   59.5103   34.7733   48.6575 H   0  0  0  0  0  0  0  0  0  0  0  0
  1  2  1  0
  2  3  2  0
  2  4  1  0
  4  5  1  0
  5  6  1  0
  6  7  1  0
  7  8  2  0
  8  9  1  0
  9 10  2  0
 10 11  1  0
 11 12  2  0
 12 13  1  0
 13 14  1  0
 14 15  2  0
 15 16  1  0
 16 17  1  0
 17 18  2  0
 17 19  2  0
 17 20  1  0
 20 21  1  0
 21 22  1  0
 22 23  2  0
 23 24  1  0
 24 25  2  0
 25 26  1  0
 25 27  1  0
 27 28  2  0
 16 29  2  0
 29 30  1  0
 30 31  2  0
 12  7  1  0
 31 14  1  0
 31 11  1  0
 28 22  1  0
  1 32  1  0
  1 33  1  0
  1 34  1  0
  5 35  1  0
  5 36  1  0
  6 37  1  0
  6 38  1  0
  8 39  1  0
  9 40  1  0
 10 41  1  0
 15 42  1  0
 20 43  1  0
 21 44  1  0
 21 45  1  0
 23 46  1  0
 24 47  1  0
 26 48  1  0
 26 49  1  0
 26 50  1  0
 27 51  1  0
 28 52  1  0
 29 53  1  0
 30 54  1  0
M  CHG  1   4  -1
M  END
>  <UniqueID>  (71) 
65

>  <SMILES>  (71) 
CC(=O)[N-]CCc1cccc2c1oc1cc(S(=O)(=O)NCc3ccc(C)cc3)ccc12

>  <Energy>  (71) 
89.11937234703082

>  <Genealogy>  (71) 
CC(=O)[N-]CCc1cccc2c1oc1cc(S(=O)(=O)NCc3ccc(C)cc3)ccc12 (protonated)
CC(=O)[N-]CCc1cccc2c1oc1cc(S(=O)(=O)NCc3ccc(C)cc3)ccc12 (3D coordinates assigned)
CC(=O)[N-]CCc1cccc2c1oc1cc(S(=O)(=O)NCc3ccc(C)cc3)ccc12 (optimized conformer: 89.11937234703082 kcal/mol)

>  <smiles>  (71) 
CC(=O)NCCc1cccc2c1oc1cc(S(=O)(=O)NCc3ccc(C)cc3)ccc12

>  <score_type>  (71) 
oracle

>  <origin>  (71) 
adg

>  <m_score__min__energy>  (71) 
-11.69

>  <m_primary>  (71) 
energy

$$$$
71:0
     RDKit          3D

 50 53  0  0  0  0  0  0  0  0999 V2000
   62.2117   32.6458   48.6556 H   0  0  0  0  0  0  0  0  0  0  0  0
   61.6130   31.7560   48.4110 C   0  0  0  0  0  0  0  0  0  0  0  0
   60.9460   31.0620   49.4240 C   0  0  0  0  0  0  0  0  0  0  0  0
   61.0139   31.4101   50.4653 H   0  0  0  0  0  0  0  0  0  0  0  0
   60.1920   29.9250   49.1150 C   0  0  0  0  0  0  0  0  0  0  0  0
   59.6541   29.3930   49.9135 H   0  0  0  0  0  0  0  0  0  0  0  0
   60.1170   29.4590   47.7960 C   0  0  0  0  0  0  0  0  0  0  0  0
   59.3050   28.3070   47.5160 N   0  0  0  0  0  0  0  0  0  0  0  0
   58.2330   28.2640   46.7810 C   0  0  0  0  0  0  0  0  0  0  0  0
   57.4390   27.1610   46.7510 N   0  0  0  0  0  0  0  0  0  0  0  0
   56.3060   27.1400   46.0050 C   0  0  0  0  0  0  0  0  0  0  0  0
   55.5870   26.0530   45.9980 N   0  0  0  0  0  0  0  0  0  0  0  0
   55.8790   24.8230   45.3160 C   0  0  0  0  0  0  0  0  0  0  0  0
   56.9940   24.7210   44.4660 C   0  0  0  0  0  0  0  0  0  0  0  0
   57.6767   25.5762   44.3537 H   0  0  0  0  0  0  0  0  0  0  0  0
   57.2390   23.5400   43.7640 C   0  0  0  0  0  0  0  0  0  0  0  0
   58.1240   23.4595   43.1156 H   0  0  0  0  0  0  0  0  0  0  0  0
   56.3620   22.4610   43.8840 C   0  0  0  0  0  0  0  0  0  0  0  0
   56.5604   21.5283   43.3356 H   0  0  0  0  0  0  0  0  0  0  0  0
   55.2320   22.5640   44.7000 C   0  0  0  0  0  0  0  0  0  0  0  0
   54.5395   21.7136   44.7855 H   0  0  0  0  0  0  0  0  0  0  0  0
   54.9750   23.7520   45.4140 C   0  0  0  0  0  0  0  0  0  0  0  0
   53.8440   23.9000   46.2320 O   0  0  0  0  0  0  0  0  0  0  0  0
   52.8170   22.9240   46.3730 C   0  0  0  0  0  0  0  0  0  0  0  0
   52.6270   22.7434   47.4413 H   0  0  0  0  0  0  0  0  0  0  0  0
   51.8966   23.2883   45.8933 H   0  0  0  0  0  0  0  0  0  0  0  0
   53.1340   21.9862   45.8933 H   0  0  0  0  0  0  0  0  0  0  0  0
   55.9750   28.2360   45.2580 N   0  0  0  0  0  0  0  0  0  0  0  0
   55.1440   28.2340   44.6250 H   0  0  0  0  0  0  0  0  0  0  0  0
   56.7590   29.3480   45.2940 C   0  0  0  0  0  0  0  0  0  0  0  0
   56.4320   30.3900   44.5850 N   0  0  0  0  0  0  0  0  0  0  0  0
   57.3740   31.2260   43.8420 C   0  0  0  0  0  0  0  0  0  0  0  0
   58.2308   30.6126   43.5263 H   0  0  0  0  0  0  0  0  0  0  0  0
   56.8610   31.6436   42.9631 H   0  0  0  0  0  0  0  0  0  0  0  0
   57.8670   32.3600   44.7010 C   0  0  0  0  0  0  0  0  0  0  0  0
   57.7900   32.2840   46.1020 C   0  0  0  0  0  0  0  0  0  0  0  0
   57.3488   31.3965   46.5791 H   0  0  0  0  0  0  0  0  0  0  0  0
   58.2720   33.3320   46.8920 C   0  0  0  0  0  0  0  0  0  0  0  0
   58.2071   33.2683   47.9882 H   0  0  0  0  0  0  0  0  0  0  0  0
   58.8360   34.4600   46.2910 C   0  0  0  0  0  0  0  0  0  0  0  0
   59.2141   35.2839   46.9141 H   0  0  0  0  0  0  0  0  0  0  0  0
   58.9200   34.5420   44.8980 C   0  0  0  0  0  0  0  0  0  0  0  0
   59.3649   35.4303   44.4258 H   0  0  0  0  0  0  0  0  0  0  0  0
   58.4390   33.4960   44.1040 C   0  0  0  0  0  0  0  0  0  0  0  0
   58.5087   33.5629   43.0083 H   0  0  0  0  0  0  0  0  0  0  0  0
   57.8800   29.3570   46.0640 N   0  0  0  0  0  0  0  0  0  0  0  0
   60.7670   30.1810   46.7750 C   0  0  0  0  0  0  0  0  0  0  0  0
   60.6829   29.8489   45.7297 H   0  0  0  0  0  0  0  0  0  0  0  0
   61.5190   31.3190   47.0870 C   0  0  0  0  0  0  0  0  0  0  0  0
   62.0371   31.8706   46.2887 H   0  0  0  0  0  0  0  0  0  0  0  0
  1  2  1  0
  2  3  2  0
  3  4  1  0
  3  5  1  0
  5  6  1  0
  5  7  2  0
  7  8  1  0
  8  9  2  0
  9 10  1  0
 10 11  1  0
 11 12  2  3
 12 13  1  0
 13 14  2  0
 14 15  1  0
 14 16  1  0
 16 17  1  0
 16 18  2  0
 18 19  1  0
 18 20  1  0
 20 21  1  0
 20 22  2  0
 22 23  1  0
 23 24  1  0
 24 25  1  0
 24 26  1  0
 24 27  1  0
 11 28  1  0
 28 29  1  0
 28 30  1  0
 30 31  2  0
 31 32  1  0
 32 33  1  0
 32 34  1  0
 32 35  1  0
 35 36  2  0
 36 37  1  0
 36 38  1  0
 38 39  1  0
 38 40  2  0
 40 41  1  0
 40 42  1  0
 42 43  1  0
 42 44  2  0
 44 45  1  0
 30 46  1  0
  7 47  1  0
 47 48  1  0
 47 49  2  0
 49 50  1  0
 49  2  1  0
 46  9  1  0
 22 13  1  0
 44 35  1  0
M  CHG  2  10  -1  46  -1
M  END
>  <UniqueID>  (72) 
66

>  <SMILES>  (72) 
COc1ccccc1N=c1[n-]/c(=N\c2ccccc2)[n-]/c(=N\Cc2ccccc2)[nH]1

>  <Energy>  (72) 
68.81632526231789

>  <Genealogy>  (72) 
COc1ccccc1N=c1[n-]c(=Nc2ccccc2)[n-]c(=NCc2ccccc2)[nH]1 (protonated)
COc1ccccc1N=c1[n-]/c(=N\c2ccccc2)[n-]/c(=N\Cc2ccccc2)[nH]1 (cis-trans isomerization)
COc1ccccc1N=c1[n-]/c(=N\c2ccccc2)[n-]/c(=N\Cc2ccccc2)[nH]1 (3D coordinates assigned)
COc1ccccc1N=c1[n-]/c(=N\c2ccccc2)[n-]/c(=N\Cc2ccccc2)[nH]1 (optimized conformer: 68.81632526231789 kcal/mol)

>  <smiles>  (72) 
COc1ccccc1N=c1[nH]c(=NCc2ccccc2)[nH]c(=Nc2ccccc2)[nH]1

>  <score_type>  (72) 
oracle

>  <origin>  (72) 
adg

>  <m_score__min__energy>  (72) 
-12.029999999999999

>  <m_primary>  (72) 
energy

$$$$
72:0
     RDKit          3D

 35 36  0  0  0  0  0  0  0  0999 V2000
   58.5950   30.4540   46.7660 C   0  0  0  0  0  0  0  0  0  0  0  0
   58.2880   31.8190   46.3120 C   0  0  0  0  0  0  0  0  0  0  0  0
   58.5860   32.9140   47.1080 C   0  0  0  0  0  0  0  0  0  0  0  0
   58.3100   34.2120   46.7160 C   0  0  0  0  0  0  0  0  0  0  0  0
   57.7170   34.4030   45.4880 C   0  0  0  0  0  0  0  0  0  0  0  0
   57.4160   33.3210   44.6880 C   0  0  0  0  0  0  0  0  0  0  0  0
   57.6960   32.0070   45.0850 C   0  0  0  0  0  0  0  0  0  0  0  0
   57.3450   30.9050   44.1580 C   0  0  0  0  0  0  0  0  0  0  0  0
   55.8820   30.5120   44.2340 C   0  0  0  0  0  0  0  0  0  0  0  0
   55.7290   29.2070   44.8670 N   0  0  0  0  0  0  0  0  0  0  0  0
   56.7760   28.2550   44.9410 C   0  0  0  0  0  0  0  0  0  0  0  0
   57.8960   28.4970   44.4600 O   0  0  0  0  0  0  0  0  0  0  0  0
   56.4680   26.9780   45.6100 C   0  0  0  0  0  0  0  0  0  0  0  0
   55.2690   26.3470   45.6760 N   0  0  0  0  0  0  0  0  0  0  0  0
   55.3840   25.2250   46.3640 N   0  0  0  0  0  0  0  0  0  0  0  0
   56.6470   25.0450   46.7900 C   0  0  0  0  0  0  0  0  0  0  0  0
   57.1620   23.9090   47.5890 C   0  0  0  0  0  0  0  0  0  0  0  0
   57.3410   26.1580   46.3140 C   0  0  0  0  0  0  0  0  0  0  0  0
   59.0330   26.4840   46.5510 Cl  0  0  0  0  0  0  0  0  0  0  0  0
   58.6013   30.4260   47.8656 H   0  0  0  0  0  0  0  0  0  0  0  0
   57.8304   29.7605   46.3859 H   0  0  0  0  0  0  0  0  0  0  0  0
   59.5829   30.1547   46.3859 H   0  0  0  0  0  0  0  0  0  0  0  0
   59.0590   32.7450   48.0866 H   0  0  0  0  0  0  0  0  0  0  0  0
   58.5567   35.0650   47.3653 H   0  0  0  0  0  0  0  0  0  0  0  0
   57.4828   35.4214   45.1443 H   0  0  0  0  0  0  0  0  0  0  0  0
   56.9426   33.4945   43.7104 H   0  0  0  0  0  0  0  0  0  0  0  0
   57.5690   31.2264   43.1301 H   0  0  0  0  0  0  0  0  0  0  0  0
   57.9381   30.0262   44.4510 H   0  0  0  0  0  0  0  0  0  0  0  0
   55.3364   31.2645   44.8223 H   0  0  0  0  0  0  0  0  0  0  0  0
   55.4776   30.4582   43.2124 H   0  0  0  0  0  0  0  0  0  0  0  0
   54.7890   28.9780   45.2840 H   0  0  0  0  0  0  0  0  0  0  0  0
   54.3800   26.6910   45.2490 H   0  0  0  0  0  0  0  0  0  0  0  0
   57.0585   24.1373   48.6601 H   0  0  0  0  0  0  0  0  0  0  0  0
   56.5870   23.0022   47.3501 H   0  0  0  0  0  0  0  0  0  0  0  0
   58.2230   23.7439   47.3501 H   0  0  0  0  0  0  0  0  0  0  0  0
  1  2  1  0
  2  3  2  0
  3  4  1  0
  4  5  2  0
  5  6  1  0
  6  7  2  0
  7  8  1  0
  8  9  1  0
  9 10  1  0
 10 11  1  0
 11 12  2  0
 11 13  1  0
 13 14  1  0
 14 15  1  0
 15 16  2  0
 16 17  1  0
 16 18  1  0
 18 19  1  0
  7  2  1  0
 18 13  2  0
  1 20  1  0
  1 21  1  0
  1 22  1  0
  3 23  1  0
  4 24  1  0
  5 25  1  0
  6 26  1  0
  8 27  1  0
  8 28  1  0
  9 29  1  0
  9 30  1  0
 10 31  1  0
 14 32  1  0
 17 33  1  0
 17 34  1  0
 17 35  1  0
M  END
>  <smiles>  (73) 
Cc1ccccc1CCNC(=O)c1[nH]nc(C)c1Cl

>  <score_type>  (73) 
oracle

>  <origin>  (73) 
adg

>  <m_score__min__energy>  (73) 
-7.8600000000000003

>  <m_primary>  (73) 
energy

$$$$
73:0
     RDKit          3D

 41 43  0  0  0  0  0  0  0  0999 V2000
   57.1350   31.0270   42.7740 C   0  0  0  0  0  0  0  0  0  0  0  0
   57.4660   30.7940   44.1840 N   0  0  0  0  0  0  0  0  0  0  0  0
   57.5240   31.9190   45.0770 C   0  0  0  0  0  0  0  0  0  0  0  0
   56.4510   32.4960   45.4070 O   0  0  0  0  0  0  0  0  0  0  0  0
   58.8130   32.3930   45.6340 C   0  0  0  0  0  0  0  0  0  0  0  0
   59.6630   31.5060   46.3130 C   0  0  0  0  0  0  0  0  0  0  0  0
   60.8850   31.9470   46.8280 C   0  0  0  0  0  0  0  0  0  0  0  0
   61.2910   33.2810   46.6580 C   0  0  0  0  0  0  0  0  0  0  0  0
   62.5820   33.7420   47.2250 C   0  0  0  0  0  0  0  0  0  0  0  0
   63.3950   34.3430   46.4710 O   0  0  0  0  0  0  0  0  0  0  0  0
   62.9490   33.5240   48.6450 C   0  0  0  0  0  0  0  0  0  0  0  0
   64.0670   32.7430   48.9930 C   0  0  0  0  0  0  0  0  0  0  0  0
   64.3910   32.5320   50.3360 C   0  0  0  0  0  0  0  0  0  0  0  0
   63.5990   33.0860   51.3450 C   0  0  0  0  0  0  0  0  0  0  0  0
   62.4780   33.8490   51.0110 C   0  0  0  0  0  0  0  0  0  0  0  0
   62.1490   34.0630   49.6680 C   0  0  0  0  0  0  0  0  0  0  0  0
   60.4370   34.1710   45.9840 C   0  0  0  0  0  0  0  0  0  0  0  0
   59.2150   33.7310   45.4700 C   0  0  0  0  0  0  0  0  0  0  0  0
   57.5080   29.4500   44.7200 C   0  0  0  0  0  0  0  0  0  0  0  0
   58.7310   28.7700   44.8870 C   0  0  0  0  0  0  0  0  0  0  0  0
   58.7550   27.4740   45.4110 C   0  0  0  0  0  0  0  0  0  0  0  0
   57.5650   26.8420   45.7770 C   0  0  0  0  0  0  0  0  0  0  0  0
   56.3460   27.5060   45.6220 C   0  0  0  0  0  0  0  0  0  0  0  0
   55.1620   26.8780   45.9910 O   0  0  0  0  0  0  0  0  0  0  0  0
   56.3160   28.8020   45.0970 C   0  0  0  0  0  0  0  0  0  0  0  0
   56.2371   31.6590   42.7077 H   0  0  0  0  0  0  0  0  0  0  0  0
   57.9768   31.5328   42.2785 H   0  0  0  0  0  0  0  0  0  0  0  0
   56.9428   30.0639   42.2785 H   0  0  0  0  0  0  0  0  0  0  0  0
   59.3647   30.4550   46.4408 H   0  0  0  0  0  0  0  0  0  0  0  0
   61.5340   31.2440   47.3707 H   0  0  0  0  0  0  0  0  0  0  0  0
   64.6892   32.2962   48.2035 H   0  0  0  0  0  0  0  0  0  0  0  0
   65.2719   31.9282   50.5994 H   0  0  0  0  0  0  0  0  0  0  0  0
   63.8582   32.9213   52.4013 H   0  0  0  0  0  0  0  0  0  0  0  0
   61.8525   34.2825   51.8052 H   0  0  0  0  0  0  0  0  0  0  0  0
   61.2592   34.6564   49.4109 H   0  0  0  0  0  0  0  0  0  0  0  0
   60.7335   35.2230   45.8603 H   0  0  0  0  0  0  0  0  0  0  0  0
   58.5626   34.4356   44.9333 H   0  0  0  0  0  0  0  0  0  0  0  0
   59.6730   29.2621   44.6032 H   0  0  0  0  0  0  0  0  0  0  0  0
   59.7145   26.9506   45.5353 H   0  0  0  0  0  0  0  0  0  0  0  0
   57.5875   25.8216   46.1872 H   0  0  0  0  0  0  0  0  0  0  0  0
   55.3528   29.3196   44.9775 H   0  0  0  0  0  0  0  0  0  0  0  0
  1  2  1  0
  2  3  1  0
  3  4  2  0
  3  5  1  0
  5  6  2  0
  6  7  1  0
  7  8  2  0
  8  9  1  0
  9 10  2  0
  9 11  1  0
 11 12  2  0
 12 13  1  0
 13 14  2  0
 14 15  1  0
 15 16  2  0
  8 17  1  0
 17 18  2  0
  2 19  1  0
 19 20  2  0
 20 21  1  0
 21 22  2  0
 22 23  1  0
 23 24  1  0
 23 25  2  0
 18  5  1  0
 25 19  1  0
 16 11  1  0
  1 26  1  0
  1 27  1  0
  1 28  1  0
  6 29  1  0
  7 30  1  0
 12 31  1  0
 13 32  1  0
 14 33  1  0
 15 34  1  0
 16 35  1  0
 17 36  1  0
 18 37  1  0
 20 38  1  0
 21 39  1  0
 22 40  1  0
 25 41  1  0
M  CHG  1  24  -1
M  END
>  <UniqueID>  (74) 
67

>  <SMILES>  (74) 
CN(C(=O)c1ccc(C(=O)c2ccccc2)cc1)c1cccc([O-])c1

>  <Energy>  (74) 
59.68634532281339

>  <Genealogy>  (74) 
CN(C(=O)c1ccc(C(=O)c2ccccc2)cc1)c1cccc([O-])c1 (protonated)
CN(C(=O)c1ccc(C(=O)c2ccccc2)cc1)c1cccc([O-])c1 (3D coordinates assigned)
CN(C(=O)c1ccc(C(=O)c2ccccc2)cc1)c1cccc([O-])c1 (optimized conformer: 59.68634532281339 kcal/mol)

>  <smiles>  (74) 
CN(C(=O)c1ccc(C(=O)c2ccccc2)cc1)c1cccc(O)c1

>  <score_type>  (74) 
oracle

>  <origin>  (74) 
adg

>  <m_score__min__energy>  (74) 
-11.94

>  <m_primary>  (74) 
energy

$$$$
74:0
     RDKit          3D

 48 50  0  0  0  0  0  0  0  0999 V2000
   55.1410   29.3030   44.5330 O   0  0  0  0  0  0  0  0  0  0  0  0
   56.4600   29.9330   44.1740 S   0  0  0  0  0  0  0  0  0  0  0  0
   56.6200   29.8820   42.6810 O   0  0  0  0  0  0  0  0  0  0  0  0
   56.4750   31.5910   44.6940 N   0  0  0  0  0  0  0  0  0  0  0  0
   57.4660   32.3460   43.9210 C   0  0  0  0  0  0  0  0  0  0  0  0
   58.6720   32.7150   44.8070 C   0  0  0  0  0  0  0  0  0  0  0  0
   58.5250   32.1180   46.2300 C   0  0  0  0  0  0  0  0  0  0  0  0
   57.9480   33.1480   47.2130 C   0  0  0  0  0  0  0  0  0  0  0  0
   58.8070   34.3550   47.3460 N   0  0  0  0  0  0  0  0  0  0  0  0
   59.6640   34.2790   48.5480 C   0  0  0  0  0  0  0  0  0  0  0  0
   59.9440   32.8450   48.9220 C   0  0  0  0  0  0  0  0  0  0  0  0
   59.1630   32.1930   49.8910 C   0  0  0  0  0  0  0  0  0  0  0  0
   59.4120   30.8560   50.2130 C   0  0  0  0  0  0  0  0  0  0  0  0
   60.4390   30.1580   49.5670 C   0  0  0  0  0  0  0  0  0  0  0  0
   60.7500   28.4800   49.9720 Cl  0  0  0  0  0  0  0  0  0  0  0  0
   61.2160   30.8000   48.5970 C   0  0  0  0  0  0  0  0  0  0  0  0
   60.9680   32.1380   48.2730 C   0  0  0  0  0  0  0  0  0  0  0  0
   59.6060   34.6650   46.1310 C   0  0  0  0  0  0  0  0  0  0  0  0
   58.8820   34.2480   44.8480 C   0  0  0  0  0  0  0  0  0  0  0  0
   57.7790   29.0400   44.9270 C   0  0  0  0  0  0  0  0  0  0  0  0
   57.5240   28.1320   45.9660 C   0  0  0  0  0  0  0  0  0  0  0  0
   58.5800   27.4440   46.5720 C   0  0  0  0  0  0  0  0  0  0  0  0
   59.8950   27.6610   46.1460 C   0  0  0  0  0  0  0  0  0  0  0  0
   60.9170   26.9930   46.7350 F   0  0  0  0  0  0  0  0  0  0  0  0
   60.1530   28.5700   45.1150 C   0  0  0  0  0  0  0  0  0  0  0  0
   59.1000   29.2590   44.5080 C   0  0  0  0  0  0  0  0  0  0  0  0
   55.5280   31.9840   44.4840 H   0  0  0  0  0  0  0  0  0  0  0  0
   57.8114   31.7316   43.0765 H   0  0  0  0  0  0  0  0  0  0  0  0
   56.9998   33.2708   43.5503 H   0  0  0  0  0  0  0  0  0  0  0  0
   59.5726   32.2707   44.3581 H   0  0  0  0  0  0  0  0  0  0  0  0
   57.8518   31.2492   46.1858 H   0  0  0  0  0  0  0  0  0  0  0  0
   59.5227   31.8210   46.5856 H   0  0  0  0  0  0  0  0  0  0  0  0
   56.9557   33.4595   46.8548 H   0  0  0  0  0  0  0  0  0  0  0  0
   57.8905   32.6693   48.2017 H   0  0  0  0  0  0  0  0  0  0  0  0
   60.6164   34.7901   48.3437 H   0  0  0  0  0  0  0  0  0  0  0  0
   59.1386   34.7633   49.3843 H   0  0  0  0  0  0  0  0  0  0  0  0
   58.3525   32.7369   50.3981 H   0  0  0  0  0  0  0  0  0  0  0  0
   58.8000   30.3515   50.9752 H   0  0  0  0  0  0  0  0  0  0  0  0
   62.0229   30.2521   48.0884 H   0  0  0  0  0  0  0  0  0  0  0  0
   61.5781   32.6381   47.5064 H   0  0  0  0  0  0  0  0  0  0  0  0
   59.7946   35.7482   46.0966 H   0  0  0  0  0  0  0  0  0  0  0  0
   60.5476   34.0994   46.1895 H   0  0  0  0  0  0  0  0  0  0  0  0
   57.9025   34.7471   44.8085 H   0  0  0  0  0  0  0  0  0  0  0  0
   59.4975   34.5421   43.9851 H   0  0  0  0  0  0  0  0  0  0  0  0
   56.4914   27.9610   46.3045 H   0  0  0  0  0  0  0  0  0  0  0  0
   58.3765   26.7312   47.3847 H   0  0  0  0  0  0  0  0  0  0  0  0
   61.1868   28.7428   44.7814 H   0  0  0  0  0  0  0  0  0  0  0  0
   59.3072   29.9752   43.6993 H   0  0  0  0  0  0  0  0  0  0  0  0
  1  2  2  0
  2  3  2  0
  2  4  1  0
  4  5  1  0
  5  6  1  0
  6  7  1  0
  7  8  1  0
  8  9  1  0
  9 10  1  0
 10 11  1  0
 11 12  2  0
 12 13  1  0
 13 14  2  0
 14 15  1  0
 14 16  1  0
 16 17  2  0
  9 18  1  0
 18 19  1  0
  2 20  1  0
 20 21  2  0
 21 22  1  0
 22 23  2  0
 23 24  1  0
 23 25  1  0
 25 26  2  0
 19  6  1  0
 26 20  1  0
 17 11  1  0
  4 27  1  0
  5 28  1  0
  5 29  1  0
  6 30  1  0
  7 31  1  0
  7 32  1  0
  8 33  1  0
  8 34  1  0
 10 35  1  0
 10 36  1  0
 12 37  1  0
 13 38  1  0
 16 39  1  0
 17 40  1  0
 18 41  1  0
 18 42  1  0
 19 43  1  0
 19 44  1  0
 21 45  1  0
 22 46  1  0
 25 47  1  0
 26 48  1  0
M  END
>  <UniqueID>  (75) 
68

>  <SMILES>  (75) 
O=S(=O)(NCC1CCN(Cc2ccc(Cl)cc2)CC1)c1ccc(F)cc1

>  <Energy>  (75) 
53.55282516141176

>  <Genealogy>  (75) 
O=S(=O)(NCC1CCN(Cc2ccc(Cl)cc2)CC1)c1ccc(F)cc1 (3D coordinates assigned)
O=S(=O)(NCC1CCN(Cc2ccc(Cl)cc2)CC1)c1ccc(F)cc1 (nonaromatic ring conformer: 53.55282516141176 kcal/mol)

>  <smiles>  (75) 
O=S(=O)(NCC1CCN(Cc2ccc(Cl)cc2)CC1)c1ccc(F)cc1

>  <score_type>  (75) 
oracle

>  <origin>  (75) 
adg

>  <m_score__min__energy>  (75) 
-9.6799999999999997

>  <m_primary>  (75) 
energy

$$$$
75:0
     RDKit          3D

 36 38  0  0  0  0  0  0  0  0999 V2000
   58.3080   26.3290   47.1520 O   0  0  0  0  0  0  0  0  0  0  0  0
   58.0350   27.4920   46.7500 C   0  0  0  0  0  0  0  0  0  0  0  0
   56.8210   27.6970   46.0110 N   0  0  0  0  0  0  0  0  0  0  0  0
   56.6410   28.6010   45.0950 C   0  0  0  0  0  0  0  0  0  0  0  0
   55.7570   29.6200   45.1930 N   0  0  0  0  0  0  0  0  0  0  0  0
   55.8110   30.4310   44.1030 C   0  0  0  0  0  0  0  0  0  0  0  0
   56.7450   30.0630   43.1400 C   0  0  0  0  0  0  0  0  0  0  0  0
   57.5310   28.6740   43.6740 S   0  0  0  0  0  0  0  0  0  0  0  0
   58.9460   28.6070   47.0930 C   0  0  0  0  0  0  0  0  0  0  0  0
   59.5920   29.3290   46.0780 C   0  0  0  0  0  0  0  0  0  0  0  0
   60.4370   30.3960   46.3980 C   0  0  0  0  0  0  0  0  0  0  0  0
   60.6630   30.7400   47.7360 C   0  0  0  0  0  0  0  0  0  0  0  0
   61.6630   32.1400   48.1150 S   0  0  0  0  0  0  0  0  0  0  0  0
   62.2410   32.0280   49.4980 O   0  0  0  0  0  0  0  0  0  0  0  0
   62.7910   32.2060   47.1250 O   0  0  0  0  0  0  0  0  0  0  0  0
   60.7070   33.5810   47.9970 N   0  0  0  0  0  0  0  0  0  0  0  0
   59.6430   33.7040   47.0410 C   0  0  0  0  0  0  0  0  0  0  0  0
   59.8520   34.4510   45.8710 C   0  0  0  0  0  0  0  0  0  0  0  0
   58.8410   34.5580   44.9120 C   0  0  0  0  0  0  0  0  0  0  0  0
   57.6090   33.9320   45.1180 C   0  0  0  0  0  0  0  0  0  0  0  0
   57.3830   33.2080   46.2910 C   0  0  0  0  0  0  0  0  0  0  0  0
   58.3910   33.0960   47.2550 C   0  0  0  0  0  0  0  0  0  0  0  0
   58.1270   32.4290   48.4050 F   0  0  0  0  0  0  0  0  0  0  0  0
   60.0440   30.0040   48.7540 C   0  0  0  0  0  0  0  0  0  0  0  0
   59.1910   28.9430   48.4350 C   0  0  0  0  0  0  0  0  0  0  0  0
   55.1637   31.3133   43.9909 H   0  0  0  0  0  0  0  0  0  0  0  0
   56.9367   30.5890   42.1931 H   0  0  0  0  0  0  0  0  0  0  0  0
   59.4328   29.0541   45.0249 H   0  0  0  0  0  0  0  0  0  0  0  0
   60.9261   30.9673   45.5953 H   0  0  0  0  0  0  0  0  0  0  0  0
   61.1170   34.4520   48.4020 H   0  0  0  0  0  0  0  0  0  0  0  0
   60.8163   34.9546   45.7082 H   0  0  0  0  0  0  0  0  0  0  0  0
   59.0156   35.1364   43.9928 H   0  0  0  0  0  0  0  0  0  0  0  0
   56.8181   34.0092   44.3574 H   0  0  0  0  0  0  0  0  0  0  0  0
   56.4092   32.7242   46.4575 H   0  0  0  0  0  0  0  0  0  0  0  0
   60.2293   30.2612   49.8073 H   0  0  0  0  0  0  0  0  0  0  0  0
   58.7090   28.3680   49.2394 H   0  0  0  0  0  0  0  0  0  0  0  0
  1  2  2  0
  2  3  1  0
  3  4  2  3
  4  5  1  0
  5  6  1  0
  6  7  2  0
  7  8  1  0
  2  9  1  0
  9 10  2  0
 10 11  1  0
 11 12  2  0
 12 13  1  0
 13 14  2  0
 13 15  2  0
 13 16  1  0
 16 17  1  0
 17 18  2  0
 18 19  1  0
 19 20  2  0
 20 21  1  0
 21 22  2  0
 22 23  1  0
 12 24  1  0
 24 25  2  0
  8  4  1  0
 25  9  1  0
 22 17  1  0
  6 26  1  0
  7 27  1  0
 10 28  1  0
 11 29  1  0
 16 30  1  0
 18 31  1  0
 19 32  1  0
 20 33  1  0
 21 34  1  0
 24 35  1  0
 25 36  1  0
M  CHG  1   5  -1
M  END
>  <UniqueID>  (76) 
69

>  <SMILES>  (76) 
O=C(N=c1[n-]ccs1)c1ccc(S(=O)(=O)Nc2ccccc2F)cc1

>  <Energy>  (76) 
80.12026387367233

>  <Genealogy>  (76) 
O=C(N=c1[n-]ccs1)c1ccc(S(=O)(=O)Nc2ccccc2F)cc1 (protonated)
O=C(N=c1[n-]ccs1)c1ccc(S(=O)(=O)Nc2ccccc2F)cc1 (3D coordinates assigned)
O=C(N=c1[n-]ccs1)c1ccc(S(=O)(=O)Nc2ccccc2F)cc1 (optimized conformer: 80.12026387367233 kcal/mol)

>  <smiles>  (76) 
O=C(N=c1[nH]ccs1)c1ccc(S(=O)(=O)Nc2ccccc2F)cc1

>  <score_type>  (76) 
oracle

>  <origin>  (76) 
adg

>  <m_score__min__energy>  (76) 
-10.09

>  <m_primary>  (76) 
energy

$$$$
76:0
     RDKit          3D

 55 58  0  0  0  0  0  0  0  0999 V2000
   58.1440   27.0380   43.3560 C   0  0  0  0  0  0  0  0  0  0  0  0
   57.8890   26.3070   44.6400 C   0  0  0  0  0  0  0  0  0  0  0  0
   58.5210   25.1150   44.8350 N   0  0  0  0  0  0  0  0  0  0  0  0
   58.3990   24.4080   45.9890 C   0  0  0  0  0  0  0  0  0  0  0  0
   57.6260   24.9090   47.0340 C   0  0  0  0  0  0  0  0  0  0  0  0
   56.9630   26.1240   46.8690 C   0  0  0  0  0  0  0  0  0  0  0  0
   57.0480   26.8200   45.6600 C   0  0  0  0  0  0  0  0  0  0  0  0
   56.3100   28.0080   45.5300 O   0  0  0  0  0  0  0  0  0  0  0  0
   56.7630   29.1840   44.9130 C   0  0  0  0  0  0  0  0  0  0  0  0
   56.0840   29.6200   43.7710 C   0  0  0  0  0  0  0  0  0  0  0  0
   56.4180   30.8310   43.1680 C   0  0  0  0  0  0  0  0  0  0  0  0
   57.4490   31.6110   43.6890 C   0  0  0  0  0  0  0  0  0  0  0  0
   58.1800   31.1730   44.8020 C   0  0  0  0  0  0  0  0  0  0  0  0
   59.2570   31.9800   45.2970 N   0  0  0  0  0  0  0  0  0  0  0  0
   58.9400   33.5440   45.9670 S   0  0  0  0  0  0  0  0  0  0  0  0
   59.9430   34.5280   45.4340 O   0  0  0  0  0  0  0  0  0  0  0  0
   57.5630   34.0010   45.5750 O   0  0  0  0  0  0  0  0  0  0  0  0
   59.0880   33.4550   47.7200 C   0  0  0  0  0  0  0  0  0  0  0  0
   58.3890   32.4780   48.4410 C   0  0  0  0  0  0  0  0  0  0  0  0
   58.5510   32.3750   49.8250 C   0  0  0  0  0  0  0  0  0  0  0  0
   59.4200   33.2440   50.5000 C   0  0  0  0  0  0  0  0  0  0  0  0
   59.5970   33.1290   51.9150 N   0  0  0  0  0  0  0  0  0  0  0  0
   60.1240   34.2170   49.7780 C   0  0  0  0  0  0  0  0  0  0  0  0
   59.9620   34.3190   48.3930 C   0  0  0  0  0  0  0  0  0  0  0  0
   57.8580   29.9360   45.4110 C   0  0  0  0  0  0  0  0  0  0  0  0
   58.6480   29.4520   46.5610 C   0  0  0  0  0  0  0  0  0  0  0  0
   58.0630   28.8850   47.5230 O   0  0  0  0  0  0  0  0  0  0  0  0
   60.0760   29.5860   46.5470 N   0  0  0  0  0  0  0  0  0  0  0  0
   60.8810   30.2390   47.5390 C   0  0  0  0  0  0  0  0  0  0  0  0
   61.7560   31.2550   47.1300 C   0  0  0  0  0  0  0  0  0  0  0  0
   62.5550   31.9200   48.0640 C   0  0  0  0  0  0  0  0  0  0  0  0
   62.4710   31.5910   49.4190 C   0  0  0  0  0  0  0  0  0  0  0  0
   63.4700   32.4300   50.5910 Cl  0  0  0  0  0  0  0  0  0  0  0  0
   61.5800   30.5990   49.8410 C   0  0  0  0  0  0  0  0  0  0  0  0
   60.7810   29.9290   48.9080 C   0  0  0  0  0  0  0  0  0  0  0  0
   58.4989   28.0553   43.5775 H   0  0  0  0  0  0  0  0  0  0  0  0
   58.9081   26.5017   42.7742 H   0  0  0  0  0  0  0  0  0  0  0  0
   57.2121   27.0933   42.7742 H   0  0  0  0  0  0  0  0  0  0  0  0
   58.9105   23.4403   46.0980 H   0  0  0  0  0  0  0  0  0  0  0  0
   57.5398   24.3521   47.9787 H   0  0  0  0  0  0  0  0  0  0  0  0
   56.3684   26.5382   47.6966 H   0  0  0  0  0  0  0  0  0  0  0  0
   55.2797   29.0020   43.3452 H   0  0  0  0  0  0  0  0  0  0  0  0
   55.8670   31.1721   42.2791 H   0  0  0  0  0  0  0  0  0  0  0  0
   57.6909   32.5777   43.2232 H   0  0  0  0  0  0  0  0  0  0  0  0
   60.1790   31.5380   45.5080 H   0  0  0  0  0  0  0  0  0  0  0  0
   57.7104   31.7898   47.9158 H   0  0  0  0  0  0  0  0  0  0  0  0
   57.9951   31.6098   50.3867 H   0  0  0  0  0  0  0  0  0  0  0  0
   58.7730   33.1180   52.5570 H   0  0  0  0  0  0  0  0  0  0  0  0
   60.5530   33.0610   52.3300 H   0  0  0  0  0  0  0  0  0  0  0  0
   60.8060   34.9025   50.3024 H   0  0  0  0  0  0  0  0  0  0  0  0
   60.5224   35.0799   47.8300 H   0  0  0  0  0  0  0  0  0  0  0  0
   61.8141   31.5307   46.0667 H   0  0  0  0  0  0  0  0  0  0  0  0
   63.2513   32.7040   47.7316 H   0  0  0  0  0  0  0  0  0  0  0  0
   61.5072   30.3449   50.9088 H   0  0  0  0  0  0  0  0  0  0  0  0
   60.0728   29.1579   49.2455 H   0  0  0  0  0  0  0  0  0  0  0  0
  1  2  1  0
  2  3  2  0
  3  4  1  0
  4  5  2  0
  5  6  1  0
  6  7  2  0
  7  8  1  0
  8  9  1  0
  9 10  2  0
 10 11  1  0
 11 12  2  0
 12 13  1  0
 13 14  1  0
 14 15  1  0
 15 16  2  0
 15 17  2  0
 15 18  1  0
 18 19  2  0
 19 20  1  0
 20 21  2  0
 21 22  1  0
 21 23  1  0
 23 24  2  0
 13 25  2  0
 25 26  1  0
 26 27  2  0
 26 28  1  0
 28 29  1  0
 29 30  2  0
 30 31  1  0
 31 32  2  0
 32 33  1  0
 32 34  1  0
 34 35  2  0
  7  2  1  0
 25  9  1  0
 35 29  1  0
 24 18  1  0
  1 36  1  0
  1 37  1  0
  1 38  1  0
  4 39  1  0
  5 40  1  0
  6 41  1  0
 10 42  1  0
 11 43  1  0
 12 44  1  0
 14 45  1  0
 19 46  1  0
 20 47  1  0
 22 48  1  0
 22 49  1  0
 23 50  1  0
 24 51  1  0
 30 52  1  0
 31 53  1  0
 34 54  1  0
 35 55  1  0
M  CHG  1  28  -1
M  END
>  <UniqueID>  (77) 
70

>  <SMILES>  (77) 
Cc1ncccc1Oc1cccc(NS(=O)(=O)c2ccc(N)cc2)c1C(=O)[N-]c1ccc(Cl)cc1

>  <Energy>  (77) 
78.95989389146918

>  <Genealogy>  (77) 
Cc1ncccc1Oc1cccc(NS(=O)(=O)c2ccc(N)cc2)c1C(=O)[N-]c1ccc(Cl)cc1 (protonated)
Cc1ncccc1Oc1cccc(NS(=O)(=O)c2ccc(N)cc2)c1C(=O)[N-]c1ccc(Cl)cc1 (3D coordinates assigned)
Cc1ncccc1Oc1cccc(NS(=O)(=O)c2ccc(N)cc2)c1C(=O)[N-]c1ccc(Cl)cc1 (optimized conformer: 78.95989389146918 kcal/mol)

>  <smiles>  (77) 
Cc1ncccc1Oc1cccc(NS(=O)(=O)c2ccc(N)cc2)c1C(=O)Nc1ccc(Cl)cc1

>  <score_type>  (77) 
oracle

>  <origin>  (77) 
adg

>  <m_score__min__energy>  (77) 
-10.710000000000001

>  <m_primary>  (77) 
energy

$$$$
77:0
     RDKit          3D

 47 49  0  0  0  0  0  0  0  0999 V2000
   55.9290   30.6990   52.5770 C   0  0  0  0  0  0  0  0  0  0  0  0
   57.0910   30.0830   52.0310 O   0  0  0  0  0  0  0  0  0  0  0  0
   57.7880   30.5620   50.9120 C   0  0  0  0  0  0  0  0  0  0  0  0
   57.7660   31.9160   50.5300 C   0  0  0  0  0  0  0  0  0  0  0  0
   58.4770   32.3430   49.4040 C   0  0  0  0  0  0  0  0  0  0  0  0
   59.2110   31.4260   48.6350 C   0  0  0  0  0  0  0  0  0  0  0  0
   59.9970   31.8860   47.4310 C   0  0  0  0  0  0  0  0  0  0  0  0
   59.1010   32.3240   46.3350 N   0  0  0  0  0  0  0  0  0  0  0  0
   59.3260   33.5170   45.6750 C   0  0  0  0  0  0  0  0  0  0  0  0
   60.4670   34.4360   46.0440 C   0  0  0  0  0  0  0  0  0  0  0  0
   58.4890   33.9000   44.6160 C   0  0  0  0  0  0  0  0  0  0  0  0
   57.4280   33.0910   44.2390 C   0  0  0  0  0  0  0  0  0  0  0  0
   57.1800   31.8990   44.9240 C   0  0  0  0  0  0  0  0  0  0  0  0
   56.1050   31.0240   44.5450 N   0  0  0  0  0  0  0  0  0  0  0  0
   56.2180   29.6270   44.2560 C   0  0  0  0  0  0  0  0  0  0  0  0
   56.7120   29.2710   43.1540 O   0  0  0  0  0  0  0  0  0  0  0  0
   55.8800   28.6510   45.2490 N   0  0  0  0  0  0  0  0  0  0  0  0
   56.7070   27.5710   45.7120 C   0  0  0  0  0  0  0  0  0  0  0  0
   58.0910   27.7380   45.9060 C   0  0  0  0  0  0  0  0  0  0  0  0
   58.8790   26.6650   46.3350 C   0  0  0  0  0  0  0  0  0  0  0  0
   60.6040   26.8840   46.5760 Cl  0  0  0  0  0  0  0  0  0  0  0  0
   58.2970   25.4150   46.5590 C   0  0  0  0  0  0  0  0  0  0  0  0
   56.9290   25.2340   46.3450 C   0  0  0  0  0  0  0  0  0  0  0  0
   56.1320   26.3010   45.9170 C   0  0  0  0  0  0  0  0  0  0  0  0
   54.7700   26.0770   45.7050 O   0  0  0  0  0  0  0  0  0  0  0  0
   58.0460   31.5180   45.9600 C   0  0  0  0  0  0  0  0  0  0  0  0
   57.8360   30.4200   46.5460 O   0  0  0  0  0  0  0  0  0  0  0  0
   59.2460   30.0780   49.0290 C   0  0  0  0  0  0  0  0  0  0  0  0
   58.5340   29.6520   50.1540 C   0  0  0  0  0  0  0  0  0  0  0  0
   55.9811   30.6714   53.6754 H   0  0  0  0  0  0  0  0  0  0  0  0
   55.8748   31.7443   52.2387 H   0  0  0  0  0  0  0  0  0  0  0  0
   55.0335   30.1572   52.2387 H   0  0  0  0  0  0  0  0  0  0  0  0
   57.1869   32.6419   51.1197 H   0  0  0  0  0  0  0  0  0  0  0  0
   58.4610   33.4052   49.1187 H   0  0  0  0  0  0  0  0  0  0  0  0
   60.6412   32.7279   47.7246 H   0  0  0  0  0  0  0  0  0  0  0  0
   60.6002   31.0408   47.0680 H   0  0  0  0  0  0  0  0  0  0  0  0
   60.5466   34.5001   47.1392 H   0  0  0  0  0  0  0  0  0  0  0  0
   61.4059   34.0390   45.6307 H   0  0  0  0  0  0  0  0  0  0  0  0
   60.2792   35.4380   45.6307 H   0  0  0  0  0  0  0  0  0  0  0  0
   58.6750   34.8444   44.0836 H   0  0  0  0  0  0  0  0  0  0  0  0
   56.7813   33.3879   43.4002 H   0  0  0  0  0  0  0  0  0  0  0  0
   58.5554   28.7175   45.7192 H   0  0  0  0  0  0  0  0  0  0  0  0
   58.9161   24.5736   46.9038 H   0  0  0  0  0  0  0  0  0  0  0  0
   56.4753   24.2463   46.5140 H   0  0  0  0  0  0  0  0  0  0  0  0
   54.1960   26.7070   45.1570 H   0  0  0  0  0  0  0  0  0  0  0  0
   59.8369   29.3538   48.4491 H   0  0  0  0  0  0  0  0  0  0  0  0
   58.5602   28.5919   50.4463 H   0  0  0  0  0  0  0  0  0  0  0  0
  1  2  1  0
  2  3  1  0
  3  4  2  0
  4  5  1  0
  5  6  2  0
  6  7  1  0
  7  8  1  0
  8  9  1  0
  9 10  1  0
  9 11  2  0
 11 12  1  0
 12 13  2  0
 13 14  1  0
 14 15  1  0
 15 16  2  0
 15 17  1  0
 17 18  1  0
 18 19  2  0
 19 20  1  0
 20 21  1  0
 20 22  2  0
 22 23  1  0
 23 24  2  0
 24 25  1  0
 13 26  1  0
 26 27  2  0
  6 28  1  0
 28 29  2  0
 29  3  1  0
 26  8  1  0
 24 18  1  0
  1 30  1  0
  1 31  1  0
  1 32  1  0
  4 33  1  0
  5 34  1  0
  7 35  1  0
  7 36  1  0
 10 37  1  0
 10 38  1  0
 10 39  1  0
 11 40  1  0
 12 41  1  0
 19 42  1  0
 22 43  1  0
 23 44  1  0
 25 45  1  0
 28 46  1  0
 29 47  1  0
M  CHG  2  14  -1  17  -1
M  END
>  <UniqueID>  (78) 
71

>  <SMILES>  (78) 
COc1ccc(Cn2c(C)ccc([N-]C(=O)[N-]c3cc(Cl)ccc3O)c2=O)cc1

>  <Energy>  (78) 
61.275239296205015

>  <Genealogy>  (78) 
COc1ccc(Cn2c(C)ccc([N-]C(=O)[N-]c3cc(Cl)ccc3O)c2=O)cc1 (protonated)
COc1ccc(Cn2c(C)ccc([N-]C(=O)[N-]c3cc(Cl)ccc3O)c2=O)cc1 (3D coordinates assigned)
COc1ccc(Cn2c(C)ccc([N-]C(=O)[N-]c3cc(Cl)ccc3O)c2=O)cc1 (optimized conformer: 61.275239296205015 kcal/mol)

>  <smiles>  (78) 
COc1ccc(Cn2c(C)ccc(NC(=O)Nc3cc(Cl)ccc3O)c2=O)cc1

>  <score_type>  (78) 
oracle

>  <origin>  (78) 
adg

>  <m_score__min__energy>  (78) 
-13.26

>  <m_primary>  (78) 
energy

$$$$
78:0
     RDKit          3D

 73 77  0  0  0  0  0  0  0  0999 V2000
   53.7250   22.3680   49.7170 C   0  0  0  0  0  0  0  0  0  0  0  0
   53.8220   22.3820   48.2190 C   0  0  0  0  0  0  0  0  0  0  0  0
   54.9840   22.3930   47.4620 C   0  0  0  0  0  0  0  0  0  0  0  0
   56.6460   22.2880   48.0520 S   0  0  0  0  0  0  0  0  0  0  0  0
   57.0340   20.8380   48.1330 O   0  0  0  0  0  0  0  0  0  0  0  0
   56.7440   22.8650   49.4370 O   0  0  0  0  0  0  0  0  0  0  0  0
   57.7690   23.1070   47.0140 N   0  0  0  0  0  0  0  0  0  0  0  0
   57.5810   24.4400   46.5300 C   0  0  0  0  0  0  0  0  0  0  0  0
   56.4090   25.1260   46.8650 C   0  0  0  0  0  0  0  0  0  0  0  0
   56.1930   26.4250   46.3990 C   0  0  0  0  0  0  0  0  0  0  0  0
   57.1660   27.0710   45.6180 C   0  0  0  0  0  0  0  0  0  0  0  0
   56.9250   28.4420   45.1150 C   0  0  0  0  0  0  0  0  0  0  0  0
   55.7440   28.8770   45.0630 O   0  0  0  0  0  0  0  0  0  0  0  0
   58.0140   29.2960   44.7120 N   0  0  0  0  0  0  0  0  0  0  0  0
   57.7900   30.3560   43.7220 C   0  0  0  0  0  0  0  0  0  0  0  0
   57.7850   31.7400   44.4010 C   0  0  0  0  0  0  0  0  0  0  0  0
   58.6200   31.7950   45.7160 C   0  0  0  0  0  0  0  0  0  0  0  0
   57.7750   31.4490   46.7930 O   0  0  0  0  0  0  0  0  0  0  0  0
   59.1950   33.2210   45.9410 C   0  0  0  0  0  0  0  0  0  0  0  0
   59.5730   33.4980   47.4060 C   0  0  0  0  0  0  0  0  0  0  0  0
   61.0670   33.4690   47.5780 C   0  0  0  0  0  0  0  0  0  0  0  0
   61.9130   33.8410   46.5180 C   0  0  0  0  0  0  0  0  0  0  0  0
   63.2990   33.8470   46.6920 C   0  0  0  0  0  0  0  0  0  0  0  0
   63.8530   33.4910   47.9240 C   0  0  0  0  0  0  0  0  0  0  0  0
   63.0190   33.1340   48.9870 C   0  0  0  0  0  0  0  0  0  0  0  0
   61.6310   33.1280   48.8190 C   0  0  0  0  0  0  0  0  0  0  0  0
   59.7880   30.7750   45.6320 C   0  0  0  0  0  0  0  0  0  0  0  0
   59.2580   29.3340   45.4990 C   0  0  0  0  0  0  0  0  0  0  0  0
   58.3520   26.3880   45.3030 C   0  0  0  0  0  0  0  0  0  0  0  0
   58.5620   25.0850   45.7640 C   0  0  0  0  0  0  0  0  0  0  0  0
   54.5420   22.3310   46.1420 C   0  0  0  0  0  0  0  0  0  0  0  0
   55.3590   22.2990   44.9140 C   0  0  0  0  0  0  0  0  0  0  0  0
   56.1120   21.1610   44.5740 C   0  0  0  0  0  0  0  0  0  0  0  0
   56.9000   21.1550   43.4180 C   0  0  0  0  0  0  0  0  0  0  0  0
   56.9510   22.2870   42.6000 C   0  0  0  0  0  0  0  0  0  0  0  0
   56.2200   23.4290   42.9410 C   0  0  0  0  0  0  0  0  0  0  0  0
   55.4330   23.4390   44.0960 C   0  0  0  0  0  0  0  0  0  0  0  0
   53.1940   22.2630   46.1260 N   0  0  0  0  0  0  0  0  0  0  0  0
   52.7700   22.2930   47.3790 N   0  0  0  0  0  0  0  0  0  0  0  0
   51.3590   22.2350   47.7480 C   0  0  0  0  0  0  0  0  0  0  0  0
   54.7256   22.5124   50.1506 H   0  0  0  0  0  0  0  0  0  0  0  0
   53.0609   23.1796   50.0490 H   0  0  0  0  0  0  0  0  0  0  0  0
   53.3175   21.4017   50.0490 H   0  0  0  0  0  0  0  0  0  0  0  0
   55.6530   24.6397   47.4991 H   0  0  0  0  0  0  0  0  0  0  0  0
   55.2555   26.9453   46.6450 H   0  0  0  0  0  0  0  0  0  0  0  0
   58.5930   30.3247   42.9708 H   0  0  0  0  0  0  0  0  0  0  0  0
   56.8137   30.1927   43.2422 H   0  0  0  0  0  0  0  0  0  0  0  0
   58.1997   32.4747   43.6952 H   0  0  0  0  0  0  0  0  0  0  0  0
   56.7423   31.9615   44.6725 H   0  0  0  0  0  0  0  0  0  0  0  0
   57.0210   30.9110   46.4330 H   0  0  0  0  0  0  0  0  0  0  0  0
   60.0954   33.3369   45.3198 H   0  0  0  0  0  0  0  0  0  0  0  0
   58.4076   33.9380   45.6655 H   0  0  0  0  0  0  0  0  0  0  0  0
   59.1941   34.4889   47.6967 H   0  0  0  0  0  0  0  0  0  0  0  0
   59.1260   32.7201   48.0424 H   0  0  0  0  0  0  0  0  0  0  0  0
   61.4815   34.1284   45.5478 H   0  0  0  0  0  0  0  0  0  0  0  0
   63.9557   34.1327   45.8570 H   0  0  0  0  0  0  0  0  0  0  0  0
   64.9449   33.4917   48.0573 H   0  0  0  0  0  0  0  0  0  0  0  0
   63.4555   32.8571   49.9580 H   0  0  0  0  0  0  0  0  0  0  0  0
   60.9782   32.8554   49.6613 H   0  0  0  0  0  0  0  0  0  0  0  0
   60.4092   31.0116   44.7556 H   0  0  0  0  0  0  0  0  0  0  0  0
   60.3803   30.8454   46.5562 H   0  0  0  0  0  0  0  0  0  0  0  0
   60.0184   28.7165   44.9986 H   0  0  0  0  0  0  0  0  0  0  0  0
   59.0456   28.9460   46.5062 H   0  0  0  0  0  0  0  0  0  0  0  0
   59.1205   26.8813   44.6898 H   0  0  0  0  0  0  0  0  0  0  0  0
   59.5007   24.5638   45.5247 H   0  0  0  0  0  0  0  0  0  0  0  0
   56.0813   20.2713   45.2201 H   0  0  0  0  0  0  0  0  0  0  0  0
   57.4798   20.2587   43.1527 H   0  0  0  0  0  0  0  0  0  0  0  0
   57.5661   22.2795   41.6881 H   0  0  0  0  0  0  0  0  0  0  0  0
   56.2643   24.3212   42.2991 H   0  0  0  0  0  0  0  0  0  0  0  0
   54.8687   24.3438   44.3659 H   0  0  0  0  0  0  0  0  0  0  0  0
   51.2665   22.2312   48.8441 H   0  0  0  0  0  0  0  0  0  0  0  0
   50.8367   23.1124   47.3390 H   0  0  0  0  0  0  0  0  0  0  0  0
   50.9104   21.3177   47.3390 H   0  0  0  0  0  0  0  0  0  0  0  0
  1  2  1  0
  2  3  2  0
  3  4  1  0
  4  5  2  0
  4  6  2  0
  4  7  1  0
  7  8  1  0
  8  9  2  0
  9 10  1  0
 10 11  2  0
 11 12  1  0
 12 13  2  0
 12 14  1  0
 14 15  1  0
 15 16  1  0
 16 17  1  0
 17 18  1  0
 17 19  1  0
 19 20  1  0
 20 21  1  0
 21 22  2  0
 22 23  1  0
 23 24  2  0
 24 25  1  0
 25 26  2  0
 17 27  1  0
 27 28  1  0
 11 29  1  0
 29 30  2  0
  3 31  1  0
 31 32  1  0
 32 33  2  0
 33 34  1  0
 34 35  2  0
 35 36  1  0
 36 37  2  0
 31 38  2  0
 38 39  1  0
 39 40  1  0
 39  2  1  0
 30  8  1  0
 37 32  1  0
 28 14  1  0
 26 21  1  0
  1 41  1  0
  1 42  1  0
  1 43  1  0
  9 44  1  0
 10 45  1  0
 15 46  1  0
 15 47  1  0
 16 48  1  0
 16 49  1  0
 18 50  1  0
 19 51  1  0
 19 52  1  0
 20 53  1  0
 20 54  1  0
 22 55  1  0
 23 56  1  0
 24 57  1  0
 25 58  1  0
 26 59  1  0
 27 60  1  0
 27 61  1  0
 28 62  1  0
 28 63  1  0
 29 64  1  0
 30 65  1  0
 33 66  1  0
 34 67  1  0
 35 68  1  0
 36 69  1  0
 37 70  1  0
 40 71  1  0
 40 72  1  0
 40 73  1  0
M  CHG  1   7  -1
M  END
>  <UniqueID>  (79) 
72

>  <SMILES>  (79) 
Cc1c(S(=O)(=O)[N-]c2ccc(C(=O)N3CCC(O)(CCc4ccccc4)CC3)cc2)c(-c2ccccc2)nn1C

>  <Energy>  (79) 
126.70212288648716

>  <Genealogy>  (79) 
Cc1c(S(=O)(=O)[N-]c2ccc(C(=O)N3CCC(O)(CCc4ccccc4)CC3)cc2)c(-c2ccccc2)nn1C (protonated)
Cc1c(S(=O)(=O)[N-]c2ccc(C(=O)N3CCC(O)(CCc4ccccc4)CC3)cc2)c(-c2ccccc2)nn1C (3D coordinates assigned)
Cc1c(S(=O)(=O)[N-]c2ccc(C(=O)N3CCC(O)(CCc4ccccc4)CC3)cc2)c(-c2ccccc2)nn1C (nonaromatic ring conformer: 126.70212288648716 kcal/mol)

>  <smiles>  (79) 
Cc1c(S(=O)(=O)Nc2ccc(C(=O)N3CCC(O)(CCc4ccccc4)CC3)cc2)c(-c2ccccc2)nn1C

>  <score_type>  (79) 
oracle

>  <origin>  (79) 
adg

>  <m_score__min__energy>  (79) 
-11.58

>  <m_primary>  (79) 
energy

$$$$
79:0
     RDKit          3D

 58 62  0  0  0  0  0  0  0  0999 V2000
   61.1020   29.0810   50.4200 C   0  0  0  0  0  0  0  0  0  0  0  0
   61.5040   30.2210   49.5560 C   0  0  0  0  0  0  0  0  0  0  0  0
   62.5070   31.0880   49.7180 N   0  0  0  0  0  0  0  0  0  0  0  0
   62.5560   31.9820   48.7270 C   0  0  0  0  0  0  0  0  0  0  0  0
   63.3260   33.0610   48.3670 C   0  0  0  0  0  0  0  0  0  0  0  0
   63.1210   33.8160   47.2430 C   0  0  0  0  0  0  0  0  0  0  0  0
   62.0710   33.4890   46.3940 C   0  0  0  0  0  0  0  0  0  0  0  0
   61.2780   32.3980   46.7410 C   0  0  0  0  0  0  0  0  0  0  0  0
   61.5060   31.6540   47.8810 C   0  0  0  0  0  0  0  0  0  0  0  0
   60.8450   30.5550   48.3920 C   0  0  0  0  0  0  0  0  0  0  0  0
   59.7090   29.9350   47.7860 N   0  0  0  0  0  0  0  0  0  0  0  0
   59.9150   29.3230   46.5120 C   0  0  0  0  0  0  0  0  0  0  0  0
   61.0810   29.3700   46.0070 O   0  0  0  0  0  0  0  0  0  0  0  0
   58.7910   28.6500   45.7990 C   0  0  0  0  0  0  0  0  0  0  0  0
   58.1810   29.6510   44.8710 C   0  0  0  0  0  0  0  0  0  0  0  0
   57.2370   29.2710   43.9230 C   0  0  0  0  0  0  0  0  0  0  0  0
   56.7340   30.2720   43.1140 C   0  0  0  0  0  0  0  0  0  0  0  0
   57.1560   31.5790   43.2520 C   0  0  0  0  0  0  0  0  0  0  0  0
   58.0920   31.9500   44.1940 C   0  0  0  0  0  0  0  0  0  0  0  0
   58.5340   33.3650   44.3270 C   0  0  0  0  0  0  0  0  0  0  0  0
   57.8290   33.9650   45.4970 C   0  0  0  0  0  0  0  0  0  0  0  0
   56.6570   34.4120   45.2830 O   0  0  0  0  0  0  0  0  0  0  0  0
   58.4600   34.0300   46.8100 C   0  0  0  0  0  0  0  0  0  0  0  0
   58.2020   33.1540   47.7980 N   0  0  0  0  0  0  0  0  0  0  0  0
   58.9190   33.4460   48.8980 C   0  0  0  0  0  0  0  0  0  0  0  0
   58.9440   32.7600   50.1850 C   0  0  0  0  0  0  0  0  0  0  0  0
   58.3270   31.5400   50.3720 C   0  0  0  0  0  0  0  0  0  0  0  0
   58.3830   30.9370   51.6110 C   0  0  0  0  0  0  0  0  0  0  0  0
   59.0490   31.5340   52.6750 C   0  0  0  0  0  0  0  0  0  0  0  0
   59.6550   32.7540   52.4570 C   0  0  0  0  0  0  0  0  0  0  0  0
   59.6130   33.3800   51.2240 C   0  0  0  0  0  0  0  0  0  0  0  0
   59.6640   34.5780   48.5500 C   0  0  0  0  0  0  0  0  0  0  0  0
   59.3700   34.9200   47.2720 N   0  0  0  0  0  0  0  0  0  0  0  0
   58.5980   30.9680   45.0010 C   0  0  0  0  0  0  0  0  0  0  0  0
   61.2034   29.3684   51.4769 H   0  0  0  0  0  0  0  0  0  0  0  0
   60.0555   28.8140   50.2113 H   0  0  0  0  0  0  0  0  0  0  0  0
   61.7495   28.2166   50.2113 H   0  0  0  0  0  0  0  0  0  0  0  0
   63.1890   31.0870   50.5190 H   0  0  0  0  0  0  0  0  0  0  0  0
   64.1629   33.3370   49.0253 H   0  0  0  0  0  0  0  0  0  0  0  0
   63.7778   34.6686   47.0158 H   0  0  0  0  0  0  0  0  0  0  0  0
   61.8733   34.0704   45.4814 H   0  0  0  0  0  0  0  0  0  0  0  0
   60.4410   32.1196   46.0838 H   0  0  0  0  0  0  0  0  0  0  0  0
   58.7630   29.9230   48.2430 H   0  0  0  0  0  0  0  0  0  0  0  0
   59.1706   27.7906   45.2269 H   0  0  0  0  0  0  0  0  0  0  0  0
   58.0429   28.2823   46.5168 H   0  0  0  0  0  0  0  0  0  0  0  0
   56.9074   28.2264   43.8223 H   0  0  0  0  0  0  0  0  0  0  0  0
   55.9852   30.0233   42.3476 H   0  0  0  0  0  0  0  0  0  0  0  0
   56.7324   32.3485   42.5899 H   0  0  0  0  0  0  0  0  0  0  0  0
   59.6215   33.4019   44.4884 H   0  0  0  0  0  0  0  0  0  0  0  0
   58.2955   33.9255   43.4110 H   0  0  0  0  0  0  0  0  0  0  0  0
   57.7957   31.0532   49.5409 H   0  0  0  0  0  0  0  0  0  0  0  0
   57.8910   29.9645   51.7602 H   0  0  0  0  0  0  0  0  0  0  0  0
   59.0916   31.0483   53.6611 H   0  0  0  0  0  0  0  0  0  0  0  0
   60.1865   33.2428   53.2868 H   0  0  0  0  0  0  0  0  0  0  0  0
   60.1029   34.3532   51.0730 H   0  0  0  0  0  0  0  0  0  0  0  0
   60.3726   35.1044   49.2064 H   0  0  0  0  0  0  0  0  0  0  0  0
   59.7490   35.7160   46.7020 H   0  0  0  0  0  0  0  0  0  0  0  0
   59.3467   31.2264   45.7644 H   0  0  0  0  0  0  0  0  0  0  0  0
  1  2  1  0
  2  3  1  0
  3  4  1  0
  4  5  2  0
  5  6  1  0
  6  7  2  0
  7  8  1  0
  8  9  2  0
  9 10  1  0
 10 11  1  0
 11 12  1  0
 12 13  2  0
 12 14  1  0
 14 15  1  0
 15 16  2  0
 16 17  1  0
 17 18  2  0
 18 19  1  0
 19 20  1  0
 20 21  1  0
 21 22  2  0
 21 23  1  0
 23 24  2  0
 24 25  1  0
 25 26  1  0
 26 27  2  0
 27 28  1  0
 28 29  2  0
 29 30  1  0
 30 31  2  0
 25 32  2  0
 32 33  1  0
 19 34  2  0
 10  2  2  0
 34 15  1  0
  9  4  1  0
 33 23  1  0
 31 26  1  0
  1 35  1  0
  1 36  1  0
  1 37  1  0
  3 38  1  0
  5 39  1  0
  6 40  1  0
  7 41  1  0
  8 42  1  0
 11 43  1  0
 14 44  1  0
 14 45  1  0
 16 46  1  0
 17 47  1  0
 18 48  1  0
 20 49  1  0
 20 50  1  0
 27 51  1  0
 28 52  1  0
 29 53  1  0
 30 54  1  0
 31 55  1  0
 32 56  1  0
 33 57  1  0
 34 58  1  0
M  END
>  <smiles>  (80) 
Cc1[nH]c2ccccc2c1NC(=O)Cc1cccc(CC(=O)c2nc(-c3ccccc3)c[nH]2)c1

>  <score_type>  (80) 
oracle

>  <origin>  (80) 
adg

>  <m_score__min__energy>  (80) 
-10.130000000000001

>  <m_primary>  (80) 
energy

$$$$
80:0
     RDKit          3D

 32 33  0  0  0  0  0  0  0  0999 V2000
   55.1420   29.3770   44.8720 N   0  0  0  0  0  0  0  0  0  0  0  0
   56.8670   29.2990   44.8040 S   0  0  0  0  0  0  0  0  0  0  0  0
   57.2890   29.0410   43.3840 O   0  0  0  0  0  0  0  0  0  0  0  0
   57.4520   30.6060   45.2570 O   0  0  0  0  0  0  0  0  0  0  0  0
   57.4350   28.0050   45.8610 C   0  0  0  0  0  0  0  0  0  0  0  0
   58.7420   28.0310   46.3740 C   0  0  0  0  0  0  0  0  0  0  0  0
   59.2040   27.0020   47.2150 C   0  0  0  0  0  0  0  0  0  0  0  0
   60.5850   27.0310   47.7540 C   0  0  0  0  0  0  0  0  0  0  0  0
   61.4940   26.3600   47.1930 O   0  0  0  0  0  0  0  0  0  0  0  0
   60.8910   27.8170   48.9110 N   0  0  0  0  0  0  0  0  0  0  0  0
   60.2910   29.1170   49.1920 C   0  0  0  0  0  0  0  0  0  0  0  0
   61.3560   30.1900   49.2240 C   0  0  0  0  0  0  0  0  0  0  0  0
   62.2110   30.2420   50.3390 C   0  0  0  0  0  0  0  0  0  0  0  0
   63.2010   31.2200   50.4300 C   0  0  0  0  0  0  0  0  0  0  0  0
   63.3520   32.1600   49.4120 C   0  0  0  0  0  0  0  0  0  0  0  0
   62.5140   32.1270   48.2930 C   0  0  0  0  0  0  0  0  0  0  0  0
   62.7480   33.3360   47.0370 Cl  0  0  0  0  0  0  0  0  0  0  0  0
   61.5110   31.1440   48.1890 C   0  0  0  0  0  0  0  0  0  0  0  0
   60.4710   31.1280   46.7600 Cl  0  0  0  0  0  0  0  0  0  0  0  0
   58.3370   25.9430   47.5350 C   0  0  0  0  0  0  0  0  0  0  0  0
   57.0370   25.9140   47.0250 C   0  0  0  0  0  0  0  0  0  0  0  0
   56.5830   26.9380   46.1910 C   0  0  0  0  0  0  0  0  0  0  0  0
   55.2850   26.8890   45.6950 O   0  0  0  0  0  0  0  0  0  0  0  0
   54.8630   29.1300   45.8470 H   0  0  0  0  0  0  0  0  0  0  0  0
   59.4116   28.8646   46.1156 H   0  0  0  0  0  0  0  0  0  0  0  0
   59.5584   29.3560   48.4070 H   0  0  0  0  0  0  0  0  0  0  0  0
   59.7932   29.0773   50.1721 H   0  0  0  0  0  0  0  0  0  0  0  0
   62.0980   29.5043   51.1471 H   0  0  0  0  0  0  0  0  0  0  0  0
   63.8642   31.2496   51.3071 H   0  0  0  0  0  0  0  0  0  0  0  0
   64.1332   32.9306   49.4891 H   0  0  0  0  0  0  0  0  0  0  0  0
   58.6846   25.1317   48.1914 H   0  0  0  0  0  0  0  0  0  0  0  0
   56.3672   25.0801   47.2817 H   0  0  0  0  0  0  0  0  0  0  0  0
  1  2  1  0
  2  3  2  0
  2  4  2  0
  2  5  1  0
  5  6  2  0
  6  7  1  0
  7  8  1  0
  8  9  2  0
  8 10  1  0
 10 11  1  0
 11 12  1  0
 12 13  2  0
 13 14  1  0
 14 15  2  0
 15 16  1  0
 16 17  1  0
 16 18  2  0
 18 19  1  0
  7 20  2  0
 20 21  1  0
 21 22  2  0
 22 23  1  0
 22  5  1  0
 18 12  1  0
  1 24  1  0
  6 25  1  0
 11 26  1  0
 11 27  1  0
 13 28  1  0
 14 29  1  0
 15 30  1  0
 20 31  1  0
 21 32  1  0
M  CHG  3   1  -1  10  -1  23  -1
M  END
>  <UniqueID>  (81) 
73

>  <SMILES>  (81) 
[NH-]S(=O)(=O)c1cc(C(=O)[N-]Cc2cccc(Cl)c2Cl)ccc1[O-]

>  <Energy>  (81) 
35.146584591805336

>  <Genealogy>  (81) 
[NH-]S(=O)(=O)c1cc(C(=O)[N-]Cc2cccc(Cl)c2Cl)ccc1[O-] (protonated)
[NH-]S(=O)(=O)c1cc(C(=O)[N-]Cc2cccc(Cl)c2Cl)ccc1[O-] (3D coordinates assigned)
[NH-]S(=O)(=O)c1cc(C(=O)[N-]Cc2cccc(Cl)c2Cl)ccc1[O-] (optimized conformer: 35.146584591805336 kcal/mol)

>  <smiles>  (81) 
NS(=O)(=O)c1cc(C(=O)NCc2cccc(Cl)c2Cl)ccc1O

>  <score_type>  (81) 
oracle

>  <origin>  (81) 
adg

>  <m_score__min__energy>  (81) 
-14.65

>  <m_primary>  (81) 
energy

$$$$
81:0
     RDKit          3D

 57 60  0  0  1  0  0  0  0  0999 V2000
   57.9930   33.8580   46.3530 C   0  0  0  0  0  0  0  0  0  0  0  0
   58.8320   34.0690   47.4460 O   0  0  0  0  0  0  0  0  0  0  0  0
   60.2040   33.8940   47.4730 C   0  0  0  0  0  0  0  0  0  0  0  0
   61.0150   34.0040   46.3850 C   0  0  0  0  0  0  0  0  0  0  0  0
   62.3760   33.8260   46.4390 C   0  0  0  0  0  0  0  0  0  0  0  0
   62.9330   33.5220   47.6660 C   0  0  0  0  0  0  0  0  0  0  0  0
   62.1510   33.3960   48.8180 C   0  0  0  0  0  0  0  0  0  0  0  0
   62.7300   33.0860   50.0560 O   0  0  0  0  0  0  0  0  0  0  0  0
   64.0120   32.4910   50.0770 C   0  0  0  0  0  0  0  0  0  0  0  0
   60.7920   33.5850   48.7090 C   0  0  0  0  0  0  0  0  0  0  0  0
   59.8750   33.4620   49.9130 C   0  0  0  0  0  0  0  0  0  0  0  0
   59.2490   32.1680   49.7220 N   0  0  0  0  0  0  0  0  0  0  0  0
   59.9520   31.1090   49.6790 C   0  0  0  0  0  0  0  0  0  0  0  0
   61.0990   30.8770   50.3680 N   0  0  0  0  0  0  0  0  0  0  0  0
   61.5550   29.6540   50.0670 N   0  0  0  0  0  0  0  0  0  0  0  0
   60.7190   29.0640   49.1790 C   0  0  0  0  0  0  0  0  0  0  0  0
   59.7070   29.9850   48.9380 C   0  0  0  0  0  0  0  0  0  0  0  0
   58.6430   29.6890   48.0300 N   0  0  0  0  0  0  0  0  0  0  0  0
   58.7660   30.3040   46.7340 C   0  0  0  0  0  0  0  0  0  0  0  0
   59.7870   31.0170   46.5910 O   0  0  0  0  0  0  0  0  0  0  0  0
   57.7500   30.0710   45.7300 C   0  0  0  0  0  0  0  0  0  0  0  0
   57.2070   31.0740   44.9710 N   0  0  0  0  0  0  0  0  0  0  0  0
   56.2990   30.5560   44.1260 C   0  0  0  0  0  0  0  0  0  0  0  0
   56.2780   29.2510   44.3560 N   0  0  0  0  0  0  0  0  0  0  0  0
   57.1540   28.9240   45.3300 C   0  0  0  0  0  0  0  0  0  0  0  0
   57.4000   27.5540   45.8150 C   0  0  0  0  0  0  0  0  0  0  0  0
   57.7590   27.3400   46.9930 O   0  0  0  0  0  0  0  0  0  0  0  0
   57.2380   26.4560   44.9570 N   0  0  0  0  0  0  0  0  0  0  0  0
   57.4330   25.0950   45.2480 C   0  0  0  0  0  0  0  0  0  0  0  0
   58.6280   24.4320   45.2570 C   0  0  0  0  0  0  0  0  0  0  0  0
   58.7280   23.0730   45.5650 C   0  0  0  0  0  0  0  0  0  0  0  0
   57.6200   22.3160   45.8790 C   0  0  0  0  0  0  0  0  0  0  0  0
   56.4010   22.9850   45.8720 C   0  0  0  0  0  0  0  0  0  0  0  0
   56.3100   24.3410   45.5630 C   0  0  0  0  0  0  0  0  0  0  0  0
   54.6980   25.0310   45.6060 Cl  0  0  0  0  0  0  0  0  0  0  0  0
   56.9837   33.6042   46.7091 H   0  0  0  0  0  0  0  0  0  0  0  0
   57.9476   34.7727   45.7437 H   0  0  0  0  0  0  0  0  0  0  0  0
   58.3857   33.0306   45.7437 H   0  0  0  0  0  0  0  0  0  0  0  0
   60.5577   34.2475   45.4146 H   0  0  0  0  0  0  0  0  0  0  0  0
   62.9996   33.9220   45.5380 H   0  0  0  0  0  0  0  0  0  0  0  0
   64.0207   33.3752   47.7386 H   0  0  0  0  0  0  0  0  0  0  0  0
   64.3306   32.3431   51.1194 H   0  0  0  0  0  0  0  0  0  0  0  0
   63.9734   31.5187   49.5640 H   0  0  0  0  0  0  0  0  0  0  0  0
   64.7297   33.1481   49.5640 H   0  0  0  0  0  0  0  0  0  0  0  0
   60.4496   33.4877   50.8507 H   0  0  0  0  0  0  0  0  0  0  0  0
   59.1494   34.2853   49.9884 H   0  0  0  0  0  0  0  0  0  0  0  0
   61.5510   31.5680   51.0370 H   0  0  0  0  0  0  0  0  0  0  0  0
   62.4080   29.1790   50.4280 H   0  0  0  0  0  0  0  0  0  0  0  0
   60.8206   28.0610   48.7389 H   0  0  0  0  0  0  0  0  0  0  0  0
   57.8380   29.0670   48.2790 H   0  0  0  0  0  0  0  0  0  0  0  0
   55.6939   31.1058   43.3901 H   0  0  0  0  0  0  0  0  0  0  0  0
   55.6530   28.5900   43.8320 H   0  0  0  0  0  0  0  0  0  0  0  0
   56.9280   26.6960   43.9660 H   0  0  0  0  0  0  0  0  0  0  0  0
   59.5447   24.9888   45.0128 H   0  0  0  0  0  0  0  0  0  0  0  0
   59.7182   22.5941   45.5567 H   0  0  0  0  0  0  0  0  0  0  0  0
   57.6955   21.2456   46.1209 H   0  0  0  0  0  0  0  0  0  0  0  0
   55.4839   22.4291   46.1169 H   0  0  0  0  0  0  0  0  0  0  0  0
  1  2  1  0
  2  3  1  0
  3  4  2  0
  4  5  1  0
  5  6  2  0
  6  7  1  0
  7  8  1  0
  8  9  1  0
  7 10  2  0
 10 11  1  0
 11 12  1  0
 12 13  2  0
 13 14  1  0
 14 15  1  0
 15 16  1  0
 16 17  2  0
 17 18  1  0
 18 19  1  0
 19 20  2  0
 19 21  1  0
 21 22  1  0
 22 23  2  0
 23 24  1  0
 24 25  1  0
 25 26  1  0
 26 27  2  0
 26 28  1  0
 28 29  1  0
 29 30  2  0
 30 31  1  0
 31 32  2  0
 32 33  1  0
 33 34  2  0
 34 35  1  0
 10  3  1  0
 17 13  1  0
 25 21  2  0
 34 29  1  0
  1 36  1  0
  1 37  1  0
  1 38  1  0
  4 39  1  0
  5 40  1  0
  6 41  1  0
  9 42  1  0
  9 43  1  0
  9 44  1  0
 11 45  1  0
 11 46  1  0
 14 47  1  0
 15 48  1  0
 16 49  1  0
 18 50  1  0
 23 51  1  0
 24 52  1  0
 28 53  1  0
 30 54  1  0
 31 55  1  0
 32 56  1  0
 33 57  1  0
M  END
>  <smiles>  (82) 
COc1cccc(OC)c1CN=c1[nH][nH]cc1NC(=O)c1nc[nH]c1C(=O)Nc1ccccc1Cl

>  <score_type>  (82) 
oracle

>  <origin>  (82) 
adg

>  <m_score__min__energy>  (82) 
-7.5599999999999996

>  <m_primary>  (82) 
energy

$$$$
82:0
     RDKit          3D

 26 27  0  0  0  0  0  0  0  0999 V2000
   58.4010   34.5530   44.8440 C   0  0  0  0  0  0  0  0  0  0  0  0
   58.3580   33.0590   44.9600 C   0  0  0  0  0  0  0  0  0  0  0  0
   58.8380   32.4250   46.1160 C   0  0  0  0  0  0  0  0  0  0  0  0
   58.7650   31.0350   46.2410 C   0  0  0  0  0  0  0  0  0  0  0  0
   58.2120   30.2590   45.2080 C   0  0  0  0  0  0  0  0  0  0  0  0
   58.1070   28.8310   45.3080 N   0  0  0  0  0  0  0  0  0  0  0  0
   56.9110   28.0840   45.5700 C   0  0  0  0  0  0  0  0  0  0  0  0
   55.8050   28.5710   45.2120 O   0  0  0  0  0  0  0  0  0  0  0  0
   56.9430   26.7420   46.2000 C   0  0  0  0  0  0  0  0  0  0  0  0
   55.8060   25.9130   46.2140 C   0  0  0  0  0  0  0  0  0  0  0  0
   54.6040   26.3400   45.6620 O   0  0  0  0  0  0  0  0  0  0  0  0
   55.8670   24.6870   46.7940 N   0  0  0  0  0  0  0  0  0  0  0  0
   57.0090   24.2410   47.3740 C   0  0  0  0  0  0  0  0  0  0  0  0
   57.0410   23.0990   47.9030 O   0  0  0  0  0  0  0  0  0  0  0  0
   58.1150   25.0260   47.3910 N   0  0  0  0  0  0  0  0  0  0  0  0
   58.1100   26.2600   46.8240 C   0  0  0  0  0  0  0  0  0  0  0  0
   59.1600   26.9550   46.8510 O   0  0  0  0  0  0  0  0  0  0  0  0
   57.6950   30.8970   44.0740 C   0  0  0  0  0  0  0  0  0  0  0  0
   57.7670   32.2870   43.9480 C   0  0  0  0  0  0  0  0  0  0  0  0
   58.4138   34.9986   45.8496 H   0  0  0  0  0  0  0  0  0  0  0  0
   59.3081   34.8525   44.2986 H   0  0  0  0  0  0  0  0  0  0  0  0
   57.5126   34.9042   44.2986 H   0  0  0  0  0  0  0  0  0  0  0  0
   59.2741   33.0252   46.9282 H   0  0  0  0  0  0  0  0  0  0  0  0
   59.1419   30.5463   47.1516 H   0  0  0  0  0  0  0  0  0  0  0  0
   57.2288   30.2999   43.2765 H   0  0  0  0  0  0  0  0  0  0  0  0
   57.3589   32.7778   43.0522 H   0  0  0  0  0  0  0  0  0  0  0  0
  1  2  1  0
  2  3  2  0
  3  4  1  0
  4  5  2  0
  5  6  1  0
  6  7  1  0
  7  8  2  0
  7  9  1  0
  9 10  2  0
 10 11  1  0
 10 12  1  0
 12 13  1  0
 13 14  2  0
 13 15  1  0
 15 16  1  0
 16 17  2  0
  5 18  1  0
 18 19  2  0
 19  2  1  0
 16  9  1  0
  1 20  1  0
  1 21  1  0
  1 22  1  0
  3 23  1  0
  4 24  1  0
 18 25  1  0
 19 26  1  0
M  CHG  4   6  -1  11  -1  12  -1  15  -1
M  END
>  <UniqueID>  (83) 
74

>  <SMILES>  (83) 
Cc1ccc([N-]C(=O)c2c([O-])[n-]c(=O)[n-]c2=O)cc1

>  <Energy>  (83) 
36.96100657419057

>  <Genealogy>  (83) 
Cc1ccc([N-]C(=O)c2c([O-])[n-]c(=O)[n-]c2=O)cc1 (protonated)
Cc1ccc([N-]C(=O)c2c([O-])[n-]c(=O)[n-]c2=O)cc1 (3D coordinates assigned)
Cc1ccc([N-]C(=O)c2c([O-])[n-]c(=O)[n-]c2=O)cc1 (optimized conformer: 36.96100657419057 kcal/mol)

>  <smiles>  (83) 
Cc1ccc(NC(=O)c2c(O)[nH]c(=O)[nH]c2=O)cc1

>  <score_type>  (83) 
oracle

>  <origin>  (83) 
adg

>  <m_score__min__energy>  (83) 
-15.539999999999999

>  <m_primary>  (83) 
energy

$$$$
83:0
     RDKit          3D

 30 31  0  0  0  0  0  0  0  0999 V2000
   55.8300   30.7270   44.0850 O   0  0  0  0  0  0  0  0  0  0  0  0
   56.0240   29.4850   44.0530 C   0  0  0  0  0  0  0  0  0  0  0  0
   55.8530   28.7150   45.2460 N   0  0  0  0  0  0  0  0  0  0  0  0
   56.6860   27.6320   45.6920 C   0  0  0  0  0  0  0  0  0  0  0  0
   56.1560   26.3500   45.9410 C   0  0  0  0  0  0  0  0  0  0  0  0
   56.9800   25.3190   46.3960 C   0  0  0  0  0  0  0  0  0  0  0  0
   58.3370   25.5510   46.6110 C   0  0  0  0  0  0  0  0  0  0  0  0
   58.8800   26.8110   46.3570 C   0  0  0  0  0  0  0  0  0  0  0  0
   58.0690   27.8520   45.8770 C   0  0  0  0  0  0  0  0  0  0  0  0
   58.7980   29.4370   45.5760 S   0  0  0  0  0  0  0  0  0  0  0  0
   60.0620   29.5950   46.3720 O   0  0  0  0  0  0  0  0  0  0  0  0
   59.1070   29.5390   44.1090 O   0  0  0  0  0  0  0  0  0  0  0  0
   57.6960   30.6950   46.0420 N   0  0  0  0  0  0  0  0  0  0  0  0
   58.0960   32.0680   46.1740 C   0  0  0  0  0  0  0  0  0  0  0  0
   58.1210   32.9350   45.0630 C   0  0  0  0  0  0  0  0  0  0  0  0
   57.8040   32.4890   43.8210 F   0  0  0  0  0  0  0  0  0  0  0  0
   58.5230   34.2650   45.2200 C   0  0  0  0  0  0  0  0  0  0  0  0
   58.9130   34.7390   46.4750 C   0  0  0  0  0  0  0  0  0  0  0  0
   58.9100   33.8800   47.5770 C   0  0  0  0  0  0  0  0  0  0  0  0
   58.5100   32.5470   47.4280 C   0  0  0  0  0  0  0  0  0  0  0  0
   58.5080   31.7300   48.5110 F   0  0  0  0  0  0  0  0  0  0  0  0
   56.3229   28.9946   43.1148 H   0  0  0  0  0  0  0  0  0  0  0  0
   55.0852   26.1604   45.7756 H   0  0  0  0  0  0  0  0  0  0  0  0
   56.5571   24.3213   46.5852 H   0  0  0  0  0  0  0  0  0  0  0  0
   58.9810   24.7398   46.9814 H   0  0  0  0  0  0  0  0  0  0  0  0
   59.9508   26.9901   46.5340 H   0  0  0  0  0  0  0  0  0  0  0  0
   56.6780   30.4640   46.0500 H   0  0  0  0  0  0  0  0  0  0  0  0
   58.5322   34.9407   44.3520 H   0  0  0  0  0  0  0  0  0  0  0  0
   59.2222   35.7877   46.5955 H   0  0  0  0  0  0  0  0  0  0  0  0
   59.2227   34.2521   48.5638 H   0  0  0  0  0  0  0  0  0  0  0  0
  1  2  2  0
  2  3  1  0
  3  4  1  0
  4  5  2  0
  5  6  1  0
  6  7  2  0
  7  8  1  0
  8  9  2  0
  9 10  1  0
 10 11  2  0
 10 12  2  0
 10 13  1  0
 13 14  1  0
 14 15  2  0
 15 16  1  0
 15 17  1  0
 17 18  2  0
 18 19  1  0
 19 20  2  0
 20 21  1  0
  9  4  1  0
 20 14  1  0
  2 22  1  0
  5 23  1  0
  6 24  1  0
  7 25  1  0
  8 26  1  0
 13 27  1  0
 17 28  1  0
 18 29  1  0
 19 30  1  0
M  CHG  1   3  -1
M  END
>  <UniqueID>  (84) 
75

>  <SMILES>  (84) 
O=C[N-]c1ccccc1S(=O)(=O)Nc1c(F)cccc1F

>  <Energy>  (84) 
39.98889598684222

>  <Genealogy>  (84) 
O=C[N-]c1ccccc1S(=O)(=O)Nc1c(F)cccc1F (protonated)
O=C[N-]c1ccccc1S(=O)(=O)Nc1c(F)cccc1F (3D coordinates assigned)
O=C[N-]c1ccccc1S(=O)(=O)Nc1c(F)cccc1F (optimized conformer: 39.98889598684222 kcal/mol)

>  <smiles>  (84) 
O=CNc1ccccc1S(=O)(=O)Nc1c(F)cccc1F

>  <score_type>  (84) 
oracle

>  <origin>  (84) 
adg

>  <m_score__min__energy>  (84) 
-8.0800000000000001

>  <m_primary>  (84) 
energy

$$$$
84:0
     RDKit          3D

 48 50  0  0  0  0  0  0  0  0999 V2000
   57.8328   29.0243   51.2810 H   0  0  0  0  0  0  0  0  0  0  0  0
   58.2430   29.9700   50.8970 C   0  0  0  0  0  0  0  0  0  0  0  0
   59.3300   29.9580   50.0790 N   0  0  0  0  0  0  0  0  0  0  0  0
   59.8760   31.0980   49.5710 C   0  0  0  0  0  0  0  0  0  0  0  0
   60.9200   30.9890   48.7950 N   0  0  0  0  0  0  0  0  0  0  0  0
   61.0020   31.1480   47.3670 C   0  0  0  0  0  0  0  0  0  0  0  0
   61.9310   30.5590   46.7550 O   0  0  0  0  0  0  0  0  0  0  0  0
   59.9280   31.8220   46.5930 C   0  0  0  0  0  0  0  0  0  0  0  0
   58.9980   31.0110   45.9180 C   0  0  0  0  0  0  0  0  0  0  0  0
   59.1162   29.9176   45.9409 H   0  0  0  0  0  0  0  0  0  0  0  0
   57.9250   31.5730   45.2180 C   0  0  0  0  0  0  0  0  0  0  0  0
   56.9600   30.6990   44.5260 C   0  0  0  0  0  0  0  0  0  0  0  0
   56.1290   30.0470   45.2170 O   0  0  0  0  0  0  0  0  0  0  0  0
   56.9360   30.5890   43.0880 N   0  0  0  0  0  0  0  0  0  0  0  0
   57.4480   31.6800   42.2510 C   0  0  0  0  0  0  0  0  0  0  0  0
   57.8273   32.4882   42.8937 H   0  0  0  0  0  0  0  0  0  0  0  0
   58.2633   31.3033   41.6159 H   0  0  0  0  0  0  0  0  0  0  0  0
   56.6372   32.0664   41.6159 H   0  0  0  0  0  0  0  0  0  0  0  0
   56.2790   29.4340   42.4720 C   0  0  0  0  0  0  0  0  0  0  0  0
   55.8989   28.7657   43.2587 H   0  0  0  0  0  0  0  0  0  0  0  0
   55.4417   29.7785   41.8473 H   0  0  0  0  0  0  0  0  0  0  0  0
   57.0030   28.8903   41.8473 H   0  0  0  0  0  0  0  0  0  0  0  0
   57.7940   32.9630   45.1590 C   0  0  0  0  0  0  0  0  0  0  0  0
   56.9610   33.4111   44.5975 H   0  0  0  0  0  0  0  0  0  0  0  0
   58.7150   33.7850   45.8090 C   0  0  0  0  0  0  0  0  0  0  0  0
   58.5960   34.8775   45.7606 H   0  0  0  0  0  0  0  0  0  0  0  0
   59.7930   33.2360   46.5250 C   0  0  0  0  0  0  0  0  0  0  0  0
   60.6950   34.1840   47.2820 C   0  0  0  0  0  0  0  0  0  0  0  0
   60.4402   35.2204   47.0155 H   0  0  0  0  0  0  0  0  0  0  0  0
   60.5542   34.0316   48.3623 H   0  0  0  0  0  0  0  0  0  0  0  0
   62.4440   33.8600   46.8520 S   0  0  0  0  0  0  0  0  0  0  0  0
   63.0100   33.7060   48.5480 C   0  0  0  0  0  0  0  0  0  0  0  0
   62.2240   34.1880   49.6010 C   0  0  0  0  0  0  0  0  0  0  0  0
   61.2470   34.6485   49.3923 H   0  0  0  0  0  0  0  0  0  0  0  0
   62.6810   34.0840   50.9180 C   0  0  0  0  0  0  0  0  0  0  0  0
   62.0662   34.4694   51.7447 H   0  0  0  0  0  0  0  0  0  0  0  0
   63.9180   33.4910   51.1860 C   0  0  0  0  0  0  0  0  0  0  0  0
   64.2757   33.4106   52.2231 H   0  0  0  0  0  0  0  0  0  0  0  0
   64.7010   33.0000   50.1370 C   0  0  0  0  0  0  0  0  0  0  0  0
   66.3900   32.1810   50.4970 Br  0  0  0  0  0  0  0  0  0  0  0  0
   64.2440   33.1030   48.8200 C   0  0  0  0  0  0  0  0  0  0  0  0
   64.8556   32.7092   47.9949 H   0  0  0  0  0  0  0  0  0  0  0  0
   59.3120   32.3420   49.9310 C   0  0  0  0  0  0  0  0  0  0  0  0
   59.7515   33.2786   49.5573 H   0  0  0  0  0  0  0  0  0  0  0  0
   58.1920   32.3740   50.7650 C   0  0  0  0  0  0  0  0  0  0  0  0
   57.7388   33.3378   51.0403 H   0  0  0  0  0  0  0  0  0  0  0  0
   57.6480   31.1840   51.2490 C   0  0  0  0  0  0  0  0  0  0  0  0
   56.2440   31.2130   52.2990 Cl  0  0  0  0  0  0  0  0  0  0  0  0
  1  2  1  0
  2  3  1  0
  3  4  1  0
  4  5  2  0
  5  6  1  0
  6  7  2  0
  6  8  1  0
  8  9  2  0
  9 10  1  0
  9 11  1  0
 11 12  1  0
 12 13  2  0
 12 14  1  0
 14 15  1  0
 15 16  1  0
 15 17  1  0
 15 18  1  0
 14 19  1  0
 19 20  1  0
 19 21  1  0
 19 22  1  0
 11 23  2  0
 23 24  1  0
 23 25  1  0
 25 26  1  0
 25 27  2  0
 27 28  1  0
 28 29  1  0
 28 30  1  0
 28 31  1  0
 31 32  1  0
 32 33  2  0
 33 34  1  0
 33 35  1  0
 35 36  1  0
 35 37  2  0
 37 38  1  0
 37 39  1  0
 39 40  1  0
 39 41  2  0
 41 42  1  0
  4 43  1  0
 43 44  1  0
 43 45  2  0
 45 46  1  0
 45 47  1  0
 47 48  1  0
 47  2  2  0
 27  8  1  0
 41 32  1  0
M  CHG  1   3  -1
M  END
>  <UniqueID>  (85) 
76

>  <SMILES>  (85) 
CN(C)C(=O)c1ccc(CSc2cccc(Br)c2)c(C(=O)/N=c2\ccc(Cl)c[n-]2)c1

>  <Energy>  (85) 
63.336652929311

>  <Genealogy>  (85) 
CN(C)C(=O)c1ccc(CSc2cccc(Br)c2)c(C(=O)N=c2ccc(Cl)c[n-]2)c1 (protonated)
CN(C)C(=O)c1ccc(CSc2cccc(Br)c2)c(C(=O)/N=c2\ccc(Cl)c[n-]2)c1 (cis-trans isomerization)
CN(C)C(=O)c1ccc(CSc2cccc(Br)c2)c(C(=O)/N=c2\ccc(Cl)c[n-]2)c1 (3D coordinates assigned)
CN(C)C(=O)c1ccc(CSc2cccc(Br)c2)c(C(=O)/N=c2\ccc(Cl)c[n-]2)c1 (optimized conformer: 63.336652929311 kcal/mol)

>  <smiles>  (85) 
CN(C)C(=O)c1ccc(CSc2cccc(Br)c2)c(C(=O)N=c2ccc(Cl)c[nH]2)c1

>  <score_type>  (85) 
oracle

>  <origin>  (85) 
adg

>  <m_score__min__energy>  (85) 
-11.390000000000001

>  <m_primary>  (85) 
energy

$$$$
85:0
     RDKit          3D

 33 35  0  0  0  0  0  0  0  0999 V2000
   55.7790   29.0950   45.5920 O   0  0  0  0  0  0  0  0  0  0  0  0
   56.9350   28.6140   45.4520 C   0  0  0  0  0  0  0  0  0  0  0  0
   58.0490   29.5050   45.0440 C   0  0  0  0  0  0  0  0  0  0  0  0
   57.7970   30.8490   44.5940 N   0  0  0  0  0  0  0  0  0  0  0  0
   58.1800   31.2900   43.2770 C   0  0  0  0  0  0  0  0  0  0  0  0
   58.4870   32.5750   43.1130 C   0  0  0  0  0  0  0  0  0  0  0  0
   58.4780   33.4440   44.2980 C   0  0  0  0  0  0  0  0  0  0  0  0
   58.8180   34.6540   44.2010 O   0  0  0  0  0  0  0  0  0  0  0  0
   58.1550   32.8130   45.6400 C   0  0  1  0  0  0  0  0  0  0  0  0
   57.5520   33.8340   46.6130 C   0  0  0  0  0  0  0  0  0  0  0  0
   58.5480   34.7000   47.0890 O   0  0  0  0  0  0  0  0  0  0  0  0
   57.2270   31.7580   45.4450 O   0  0  0  0  0  0  0  0  0  0  0  0
   59.3130   29.0760   45.1600 C   0  0  0  0  0  0  0  0  0  0  0  0
   59.6250   27.7130   45.6170 C   0  0  0  0  0  0  0  0  0  0  0  0
   60.8130   27.4470   45.9320 O   0  0  0  0  0  0  0  0  0  0  0  0
   58.5350   26.7080   45.7680 C   0  0  0  0  0  0  0  0  0  0  0  0
   58.7810   25.3230   45.9720 C   0  0  0  0  0  0  0  0  0  0  0  0
   60.0500   24.7480   45.8730 O   0  0  0  0  0  0  0  0  0  0  0  0
   57.7170   24.4650   46.2550 C   0  0  0  0  0  0  0  0  0  0  0  0
   56.4080   24.9360   46.2730 C   0  0  0  0  0  0  0  0  0  0  0  0
   56.1380   26.2770   46.0010 C   0  0  0  0  0  0  0  0  0  0  0  0
   54.8120   26.6970   45.9900 O   0  0  0  0  0  0  0  0  0  0  0  0
   57.1960   27.1770   45.7440 C   0  0  0  0  0  0  0  0  0  0  0  0
   58.2176   30.5862   42.4325 H   0  0  0  0  0  0  0  0  0  0  0  0
   58.7399   32.9745   42.1198 H   0  0  0  0  0  0  0  0  0  0  0  0
   59.0917   32.4340   46.0748 H   0  0  0  0  0  0  0  0  0  0  0  0
   56.7803   34.4199   46.0921 H   0  0  0  0  0  0  0  0  0  0  0  0
   57.1073   33.2977   47.4643 H   0  0  0  0  0  0  0  0  0  0  0  0
   58.9710   35.1160   46.2930 H   0  0  0  0  0  0  0  0  0  0  0  0
   60.1372   29.7594   44.9075 H   0  0  0  0  0  0  0  0  0  0  0  0
   60.9080   25.2790   45.8160 H   0  0  0  0  0  0  0  0  0  0  0  0
   57.9158   23.4039   46.4663 H   0  0  0  0  0  0  0  0  0  0  0  0
   55.5818   24.2472   46.5029 H   0  0  0  0  0  0  0  0  0  0  0  0
  1  2  2  0
  2  3  1  0
  3  4  1  0
  4  5  1  0
  5  6  2  0
  6  7  1  0
  7  8  2  0
  7  9  1  0
  9 10  1  0
 10 11  1  0
  9 12  1  0
  3 13  2  0
 13 14  1  0
 14 15  2  0
 14 16  1  0
 16 17  2  0
 17 18  1  0
 17 19  1  0
 19 20  2  0
 20 21  1  0
 21 22  1  0
 21 23  2  0
 23  2  1  0
 12  4  1  0
 23 16  1  0
  5 24  1  0
  6 25  1  0
  9 26  1  1
 10 27  1  0
 10 28  1  0
 11 29  1  0
 13 30  1  0
 18 31  1  0
 19 32  1  0
 20 33  1  0
M  CHG  1  22  -1
M  END
>  <UniqueID>  (86) 
77

>  <SMILES>  (86) 
O=C1C(N2C=CC(=O)[C@@H](CO)O2)=CC(=O)c2c(O)ccc([O-])c21

>  <Energy>  (86) 
54.057762557291234

>  <Genealogy>  (86) 
O=C1C(N2C=CC(=O)C(CO)O2)=CC(=O)c2c(O)ccc([O-])c21 (protonated)
O=C1C(N2C=CC(=O)[C@@H](CO)O2)=CC(=O)c2c(O)ccc([O-])c21 (chirality)
O=C1C(N2C=CC(=O)[C@@H](CO)O2)=CC(=O)c2c(O)ccc([O-])c21 (3D coordinates assigned)
O=C1C(N2C=CC(=O)[C@@H](CO)O2)=CC(=O)c2c(O)ccc([O-])c21 (nonaromatic ring conformer: 54.057762557291234 kcal/mol)

>  <smiles>  (86) 
O=C1C=C(N2C=CC(=O)C(CO)O2)C(=O)c2c(O)ccc(O)c21

>  <score_type>  (86) 
oracle

>  <origin>  (86) 
adg

>  <m_score__min__energy>  (86) 
-10.539999999999999

>  <m_primary>  (86) 
energy

$$$$
86:0
     RDKit          3D

 54 56  0  0  0  0  0  0  0  0999 V2000
   55.9570   24.1070   44.6530 C   0  0  0  0  0  0  0  0  0  0  0  0
   55.4740   23.9220   46.0370 N   0  0  0  0  0  0  0  0  0  0  0  0
   55.2960   22.4840   46.3300 C   0  0  0  0  0  0  0  0  0  0  0  0
   55.0510   22.2780   47.8060 C   0  0  0  0  0  0  0  0  0  0  0  0
   53.7830   22.5420   48.3530 C   0  0  0  0  0  0  0  0  0  0  0  0
   53.5590   22.3810   49.7220 C   0  0  0  0  0  0  0  0  0  0  0  0
   54.5950   21.9560   50.5570 C   0  0  0  0  0  0  0  0  0  0  0  0
   55.8630   21.6930   50.0310 C   0  0  0  0  0  0  0  0  0  0  0  0
   56.8810   21.2760   50.8890 O   0  0  0  0  0  0  0  0  0  0  0  0
   56.0960   21.8540   48.6530 C   0  0  0  0  0  0  0  0  0  0  0  0
   57.3590   21.5960   48.1280 O   0  0  0  0  0  0  0  0  0  0  0  0
   56.4130   24.5390   46.9990 C   0  0  0  0  0  0  0  0  0  0  0  0
   57.0170   25.7950   46.4190 C   0  0  0  0  0  0  0  0  0  0  0  0
   58.4110   25.9210   46.3170 C   0  0  0  0  0  0  0  0  0  0  0  0
   58.9770   27.0700   45.7620 C   0  0  0  0  0  0  0  0  0  0  0  0
   58.1580   28.1040   45.3040 C   0  0  0  0  0  0  0  0  0  0  0  0
   56.7590   27.9970   45.3900 C   0  0  0  0  0  0  0  0  0  0  0  0
   55.8860   29.1210   44.8880 C   0  0  0  0  0  0  0  0  0  0  0  0
   56.6220   30.3820   44.8560 N   0  0  0  0  0  0  0  0  0  0  0  0
   57.1340   30.9710   43.6570 C   0  0  0  0  0  0  0  0  0  0  0  0
   56.5570   30.7410   42.5620 O   0  0  0  0  0  0  0  0  0  0  0  0
   58.2710   31.8370   43.7080 N   0  0  0  0  0  0  0  0  0  0  0  0
   58.1690   33.2840   43.8460 C   0  0  0  0  0  0  0  0  0  0  0  0
   58.5130   33.6780   45.2560 C   0  0  0  0  0  0  0  0  0  0  0  0
   59.2710   34.8340   45.4980 C   0  0  0  0  0  0  0  0  0  0  0  0
   59.6490   35.1710   46.8010 C   0  0  0  0  0  0  0  0  0  0  0  0
   59.2870   34.3480   47.8710 C   0  0  0  0  0  0  0  0  0  0  0  0
   59.6650   34.6700   49.1330 F   0  0  0  0  0  0  0  0  0  0  0  0
   58.5420   33.1890   47.6380 C   0  0  0  0  0  0  0  0  0  0  0  0
   58.1580   32.8500   46.3350 C   0  0  0  0  0  0  0  0  0  0  0  0
   56.1900   26.8310   45.9390 C   0  0  0  0  0  0  0  0  0  0  0  0
   54.8050   26.6980   46.0060 O   0  0  0  0  0  0  0  0  0  0  0  0
   56.9841   24.5004   44.6726 H   0  0  0  0  0  0  0  0  0  0  0  0
   55.9445   23.1404   44.1280 H   0  0  0  0  0  0  0  0  0  0  0  0
   55.3020   24.8179   44.1280 H   0  0  0  0  0  0  0  0  0  0  0  0
   54.4351   22.1015   45.7621 H   0  0  0  0  0  0  0  0  0  0  0  0
   56.2086   21.9432   46.0391 H   0  0  0  0  0  0  0  0  0  0  0  0
   52.9638   22.8768   47.6998 H   0  0  0  0  0  0  0  0  0  0  0  0
   52.5646   22.5893   50.1437 H   0  0  0  0  0  0  0  0  0  0  0  0
   54.4120   21.8276   51.6340 H   0  0  0  0  0  0  0  0  0  0  0  0
   57.7930   21.0010   50.5480 H   0  0  0  0  0  0  0  0  0  0  0  0
   55.8710   24.7913   47.9224 H   0  0  0  0  0  0  0  0  0  0  0  0
   57.2203   23.8240   47.2156 H   0  0  0  0  0  0  0  0  0  0  0  0
   59.0612   25.1098   46.6764 H   0  0  0  0  0  0  0  0  0  0  0  0
   60.0705   27.1610   45.6853 H   0  0  0  0  0  0  0  0  0  0  0  0
   58.6109   29.0089   44.8727 H   0  0  0  0  0  0  0  0  0  0  0  0
   55.5396   28.8810   43.8719 H   0  0  0  0  0  0  0  0  0  0  0  0
   55.0309   29.2319   45.5709 H   0  0  0  0  0  0  0  0  0  0  0  0
   58.8679   33.7691   43.1487 H   0  0  0  0  0  0  0  0  0  0  0  0
   57.1417   33.6030   43.6162 H   0  0  0  0  0  0  0  0  0  0  0  0
   59.5693   35.4784   44.6579 H   0  0  0  0  0  0  0  0  0  0  0  0
   60.2323   36.0854   46.9844 H   0  0  0  0  0  0  0  0  0  0  0  0
   58.2566   32.5415   48.4802 H   0  0  0  0  0  0  0  0  0  0  0  0
   57.5770   31.9334   46.1552 H   0  0  0  0  0  0  0  0  0  0  0  0
  1  2  1  0
  2  3  1  0
  3  4  1  0
  4  5  2  0
  5  6  1  0
  6  7  2  0
  7  8  1  0
  8  9  1  0
  8 10  2  0
 10 11  1  0
  2 12  1  0
 12 13  1  0
 13 14  2  0
 14 15  1  0
 15 16  2  0
 16 17  1  0
 17 18  1  0
 18 19  1  0
 19 20  1  0
 20 21  2  0
 20 22  1  0
 22 23  1  0
 23 24  1  0
 24 25  2  0
 25 26  1  0
 26 27  2  0
 27 28  1  0
 27 29  1  0
 29 30  2  0
 17 31  2  0
 31 32  1  0
 10  4  1  0
 31 13  1  0
 30 24  1  0
  1 33  1  0
  1 34  1  0
  1 35  1  0
  3 36  1  0
  3 37  1  0
  5 38  1  0
  6 39  1  0
  7 40  1  0
  9 41  1  0
 12 42  1  0
 12 43  1  0
 14 44  1  0
 15 45  1  0
 16 46  1  0
 18 47  1  0
 18 48  1  0
 23 49  1  0
 23 50  1  0
 25 51  1  0
 26 52  1  0
 29 53  1  0
 30 54  1  0
M  CHG  4  11  -1  19  -1  22  -1  32  -1
M  END
>  <UniqueID>  (87) 
78

>  <SMILES>  (87) 
CN(Cc1cccc(O)c1[O-])Cc1cccc(C[N-]C(=O)[N-]Cc2ccc(F)cc2)c1[O-]

>  <Energy>  (87) 
50.937377625446885

>  <Genealogy>  (87) 
CN(Cc1cccc(O)c1[O-])Cc1cccc(C[N-]C(=O)[N-]Cc2ccc(F)cc2)c1[O-] (protonated)
CN(Cc1cccc(O)c1[O-])Cc1cccc(C[N-]C(=O)[N-]Cc2ccc(F)cc2)c1[O-] (3D coordinates assigned)
CN(Cc1cccc(O)c1[O-])Cc1cccc(C[N-]C(=O)[N-]Cc2ccc(F)cc2)c1[O-] (optimized conformer: 50.937377625446885 kcal/mol)

>  <smiles>  (87) 
CN(Cc1cccc(O)c1O)Cc1cccc(CNC(=O)NCc2ccc(F)cc2)c1O

>  <score_type>  (87) 
oracle

>  <origin>  (87) 
adg

>  <m_score__min__energy>  (87) 
-16.25

>  <m_primary>  (87) 
energy

$$$$
87:0
     RDKit          3D

 49 51  0  0  0  0  0  0  0  0999 V2000
   61.9173   30.0735   47.8370 H   0  0  0  0  0  0  0  0  0  0  0  0
   60.8800   30.3480   47.5950 C   0  0  0  0  0  0  0  0  0  0  0  0
   60.0980   30.0720   46.1300 S   0  0  0  0  0  0  0  0  0  0  0  0
   58.6690   30.7880   46.6410 C   0  0  0  0  0  0  0  0  0  0  0  0
   57.5970   30.8450   45.9080 N   0  0  0  0  0  0  0  0  0  0  0  0
   57.2590   30.0250   44.7760 C   0  0  0  0  0  0  0  0  0  0  0  0
   57.7180   30.3450   43.6480 O   0  0  0  0  0  0  0  0  0  0  0  0
   56.3230   28.8450   44.8650 C   0  0  0  0  0  0  0  0  0  0  0  0
   55.4710   29.1248   45.5021 H   0  0  0  0  0  0  0  0  0  0  0  0
   56.0160   28.5999   43.8375 H   0  0  0  0  0  0  0  0  0  0  0  0
   56.9650   27.6010   45.4440 C   0  0  0  0  0  0  0  0  0  0  0  0
   58.3590   27.4010   45.3790 C   0  0  0  0  0  0  0  0  0  0  0  0
   58.9981   28.1604   44.9049 H   0  0  0  0  0  0  0  0  0  0  0  0
   58.9350   26.2440   45.9130 C   0  0  0  0  0  0  0  0  0  0  0  0
   60.0258   26.1066   45.8763 H   0  0  0  0  0  0  0  0  0  0  0  0
   58.1290   25.2640   46.4920 C   0  0  0  0  0  0  0  0  0  0  0  0
   58.5860   24.3618   46.9246 H   0  0  0  0  0  0  0  0  0  0  0  0
   56.7430   25.4270   46.5230 C   0  0  0  0  0  0  0  0  0  0  0  0
   56.1088   24.6456   46.9671 H   0  0  0  0  0  0  0  0  0  0  0  0
   56.1580   26.5810   45.9910 C   0  0  0  0  0  0  0  0  0  0  0  0
   54.7730   26.7030   46.0090 O   0  0  0  0  0  0  0  0  0  0  0  0
   58.7540   31.2330   47.9110 N   0  0  0  0  0  0  0  0  0  0  0  0
   59.9800   30.9860   48.4470 C   0  0  0  0  0  0  0  0  0  0  0  0
   60.3210   31.3780   49.8520 C   0  0  0  0  0  0  0  0  0  0  0  0
   60.1022   30.5348   50.5237 H   0  0  0  0  0  0  0  0  0  0  0  0
   59.7184   32.2563   50.1265 H   0  0  0  0  0  0  0  0  0  0  0  0
   61.7690   31.7370   49.9730 C   0  0  0  0  0  0  0  0  0  0  0  0
   62.6570   30.8850   49.6990 O   0  0  0  0  0  0  0  0  0  0  0  0
   62.1350   33.0340   50.4490 N   0  0  0  0  0  0  0  0  0  0  0  0
   61.9170   34.2510   49.6790 C   0  0  0  0  0  0  0  0  0  0  0  0
   62.5953   35.0372   50.0420 H   0  0  0  0  0  0  0  0  0  0  0  0
   60.8718   34.5712   49.8015 H   0  0  0  0  0  0  0  0  0  0  0  0
   62.1900   33.9930   48.1960 C   0  0  0  0  0  0  0  0  0  0  0  0
   62.6300   32.9914   48.0813 H   0  0  0  0  0  0  0  0  0  0  0  0
   62.8824   34.7655   47.8302 H   0  0  0  0  0  0  0  0  0  0  0  0
   60.9210   34.0680   47.3860 C   0  0  0  0  0  0  0  0  0  0  0  0
   59.6920   34.3150   48.0180 C   0  0  0  0  0  0  0  0  0  0  0  0
   59.6596   34.4796   49.1051 H   0  0  0  0  0  0  0  0  0  0  0  0
   58.5090   34.3530   47.2740 C   0  0  0  0  0  0  0  0  0  0  0  0
   57.5528   34.5639   47.7753 H   0  0  0  0  0  0  0  0  0  0  0  0
   58.5370   34.1230   45.8900 C   0  0  0  0  0  0  0  0  0  0  0  0
   57.2730   34.2040   45.0860 C   0  0  0  0  0  0  0  0  0  0  0  0
   56.4094   34.2593   45.7651 H   0  0  0  0  0  0  0  0  0  0  0  0
   57.2988   35.1023   44.4517 H   0  0  0  0  0  0  0  0  0  0  0  0
   57.1840   33.3097   44.4517 H   0  0  0  0  0  0  0  0  0  0  0  0
   59.7640   33.8810   45.2560 C   0  0  0  0  0  0  0  0  0  0  0  0
   59.7959   33.7195   44.1684 H   0  0  0  0  0  0  0  0  0  0  0  0
   60.9470   33.8440   46.0000 C   0  0  0  0  0  0  0  0  0  0  0  0
   61.9034   33.6383   45.4970 H   0  0  0  0  0  0  0  0  0  0  0  0
  1  2  1  0
  2  3  1  0
  3  4  1  0
  4  5  2  0
  5  6  1  0
  6  7  2  0
  6  8  1  0
  8  9  1  0
  8 10  1  0
  8 11  1  0
 11 12  2  0
 12 13  1  0
 12 14  1  0
 14 15  1  0
 14 16  2  0
 16 17  1  0
 16 18  1  0
 18 19  1  0
 18 20  2  0
 20 21  1  0
  4 22  1  0
 22 23  1  0
 23 24  1  0
 24 25  1  0
 24 26  1  0
 24 27  1  0
 27 28  2  0
 27 29  1  0
 29 30  1  0
 30 31  1  0
 30 32  1  0
 30 33  1  0
 33 34  1  0
 33 35  1  0
 33 36  1  0
 36 37  2  0
 37 38  1  0
 37 39  1  0
 39 40  1  0
 39 41  2  0
 41 42  1  0
 42 43  1  0
 42 44  1  0
 42 45  1  0
 41 46  1  0
 46 47  1  0
 46 48  2  0
 48 49  1  0
 23  2  2  0
 48 36  1  0
 20 11  1  0
M  CHG  3  21  -1  22  -1  29  -1
M  END
>  <UniqueID>  (88) 
79

>  <SMILES>  (88) 
Cc1ccc(CC[N-]C(=O)Cc2cs/c(=N/C(=O)Cc3ccccc3[O-])[n-]2)cc1

>  <Energy>  (88) 
75.2455045942558

>  <Genealogy>  (88) 
Cc1ccc(CC[N-]C(=O)Cc2csc(=NC(=O)Cc3ccccc3[O-])[n-]2)cc1 (protonated)
Cc1ccc(CC[N-]C(=O)Cc2cs/c(=N/C(=O)Cc3ccccc3[O-])[n-]2)cc1 (cis-trans isomerization)
Cc1ccc(CC[N-]C(=O)Cc2cs/c(=N/C(=O)Cc3ccccc3[O-])[n-]2)cc1 (3D coordinates assigned)
Cc1ccc(CC[N-]C(=O)Cc2cs/c(=N/C(=O)Cc3ccccc3[O-])[n-]2)cc1 (optimized conformer: 75.2455045942558 kcal/mol)

>  <smiles>  (88) 
Cc1ccc(CCNC(=O)Cc2csc(=NC(=O)Cc3ccccc3O)[nH]2)cc1

>  <score_type>  (88) 
oracle

>  <origin>  (88) 
adg

>  <m_score__min__energy>  (88) 
-15.07

>  <m_primary>  (88) 
energy

$$$$
88:0
     RDKit          3D

 35 36  0  0  0  0  0  0  0  0999 V2000
   56.8068   34.2887   43.8168 H   0  0  0  0  0  0  0  0  0  0  0  0
   57.4210   33.4490   44.1740 C   0  0  0  0  0  0  0  0  0  0  0  0
   57.4400   32.3240   43.4370 C   0  0  0  0  0  0  0  0  0  0  0  0
   57.9710   32.3400   41.5870 Br  0  0  0  0  0  0  0  0  0  0  0  0
   57.1730   31.0040   44.0530 C   0  0  0  0  0  0  0  0  0  0  0  0
   56.1860   30.8800   44.8280 O   0  0  0  0  0  0  0  0  0  0  0  0
   58.0280   29.8760   43.8090 N   0  0  0  0  0  0  0  0  0  0  0  0
   58.9370   30.0020   43.3120 H   0  0  0  0  0  0  0  0  0  0  0  0
   57.6940   28.5460   44.3020 C   0  0  0  0  0  0  0  0  0  0  0  0
   57.6954   28.5516   45.4020 H   0  0  0  0  0  0  0  0  0  0  0  0
   56.6961   28.2600   43.9381 H   0  0  0  0  0  0  0  0  0  0  0  0
   58.4383   27.8224   43.9381 H   0  0  0  0  0  0  0  0  0  0  0  0
   58.1730   33.6280   45.4330 C   0  0  0  0  0  0  0  0  0  0  0  0
   59.1950   34.5840   45.5430 C   0  0  0  0  0  0  0  0  0  0  0  0
   59.4680   35.1966   44.6711 H   0  0  0  0  0  0  0  0  0  0  0  0
   59.8680   34.7610   46.7570 C   0  0  0  0  0  0  0  0  0  0  0  0
   60.6834   35.4959   46.8287 H   0  0  0  0  0  0  0  0  0  0  0  0
   59.5080   34.0060   47.8830 C   0  0  0  0  0  0  0  0  0  0  0  0
   60.2590   34.1680   49.1760 C   0  0  0  0  0  0  0  0  0  0  0  0
   60.2294   35.2237   49.4836 H   0  0  0  0  0  0  0  0  0  0  0  0
   59.7880   33.5392   49.9459 H   0  0  0  0  0  0  0  0  0  0  0  0
   61.6910   33.7410   49.0020 C   0  0  0  0  0  0  0  0  0  0  0  0
   62.6820   34.1810   49.8930 C   0  0  0  0  0  0  0  0  0  0  0  0
   62.4085   34.8206   50.7451 H   0  0  0  0  0  0  0  0  0  0  0  0
   63.9790   33.8190   49.7060 N   0  0  0  0  0  0  0  0  0  0  0  0
   64.3600   33.0360   48.6620 C   0  0  0  0  0  0  0  0  0  0  0  0
   65.4171   32.7568   48.5409 H   0  0  0  0  0  0  0  0  0  0  0  0
   63.4090   32.5860   47.7430 C   0  0  0  0  0  0  0  0  0  0  0  0
   63.7121   31.9554   46.8942 H   0  0  0  0  0  0  0  0  0  0  0  0
   62.0710   32.9440   47.9120 C   0  0  0  0  0  0  0  0  0  0  0  0
   61.3144   32.6014   47.1907 H   0  0  0  0  0  0  0  0  0  0  0  0
   58.4730   33.0650   47.7770 C   0  0  0  0  0  0  0  0  0  0  0  0
   58.1893   32.4635   48.6532 H   0  0  0  0  0  0  0  0  0  0  0  0
   57.8000   32.8870   46.5650 C   0  0  0  0  0  0  0  0  0  0  0  0
   56.9745   32.1631   46.4981 H   0  0  0  0  0  0  0  0  0  0  0  0
  1  2  1  0
  2  3  2  0
  3  4  1  0
  3  5  1  0
  5  6  2  0
  5  7  1  0
  7  8  1  0
  7  9  1  0
  9 10  1  0
  9 11  1  0
  9 12  1  0
  2 13  1  0
 13 14  2  0
 14 15  1  0
 14 16  1  0
 16 17  1  0
 16 18  2  0
 18 19  1  0
 19 20  1  0
 19 21  1  0
 19 22  1  0
 22 23  2  0
 23 24  1  0
 23 25  1  0
 25 26  2  0
 26 27  1  0
 26 28  1  0
 28 29  1  0
 28 30  2  0
 30 31  1  0
 18 32  1  0
 32 33  1  0
 32 34  2  0
 34 35  1  0
 34 13  1  0
 30 22  1  0
M  END
>  <UniqueID>  (89) 
80

>  <SMILES>  (89) 
CNC(=O)/C(Br)=C/c1ccc(Cc2cccnc2)cc1

>  <Energy>  (89) 
39.7935300175995

>  <Genealogy>  (89) 
CNC(=O)/C(Br)=C/c1ccc(Cc2cccnc2)cc1 (cis-trans isomerization)
CNC(=O)/C(Br)=C/c1ccc(Cc2cccnc2)cc1 (3D coordinates assigned)
CNC(=O)/C(Br)=C/c1ccc(Cc2cccnc2)cc1 (optimized conformer: 39.7935300175995 kcal/mol)

>  <smiles>  (89) 
CNC(=O)C(Br)=Cc1ccc(Cc2cccnc2)cc1

>  <score_type>  (89) 
oracle

>  <origin>  (89) 
adg

>  <m_score__min__energy>  (89) 
-8.1699999999999999

>  <m_primary>  (89) 
energy

$$$$
89:0
     RDKit          3D

 30 32  0  0  0  0  0  0  0  0999 V2000
   59.7470   25.8630   47.0360 O   0  0  0  0  0  0  0  0  0  0  0  0
   58.5210   26.0010   46.7730 C   0  0  0  0  0  0  0  0  0  0  0  0
   57.6350   24.9830   47.1300 C   0  0  0  0  0  0  0  0  0  0  0  0
   56.2770   25.1190   46.8480 C   0  0  0  0  0  0  0  0  0  0  0  0
   55.8110   26.2360   46.2290 N   0  0  0  0  0  0  0  0  0  0  0  0
   54.4630   26.3380   45.9650 O   0  0  0  0  0  0  0  0  0  0  0  0
   56.6510   27.2490   45.8660 C   0  0  0  0  0  0  0  0  0  0  0  0
   56.1550   28.3500   45.2510 N   0  0  0  0  0  0  0  0  0  0  0  0
   56.9500   29.3820   44.8750 C   0  0  0  0  0  0  0  0  0  0  0  0
   56.1740   30.7510   44.0830 Cl  0  0  0  0  0  0  0  0  0  0  0  0
   58.3040   29.3400   45.1090 N   0  0  0  0  0  0  0  0  0  0  0  0
   59.1580   30.4810   44.7160 C   0  0  0  0  0  0  0  0  0  0  0  0
   58.8410   31.7020   45.5450 C   0  0  0  0  0  0  0  0  0  0  0  0
   58.5530   32.9290   44.9230 C   0  0  0  0  0  0  0  0  0  0  0  0
   58.2630   34.0600   45.6930 C   0  0  0  0  0  0  0  0  0  0  0  0
   58.2680   33.9780   47.0870 C   0  0  0  0  0  0  0  0  0  0  0  0
   58.5640   32.7660   47.7150 C   0  0  0  0  0  0  0  0  0  0  0  0
   58.8530   31.6320   46.9490 C   0  0  0  0  0  0  0  0  0  0  0  0
   58.8520   28.2420   45.7310 C   0  0  0  0  0  0  0  0  0  0  0  0
   60.0940   28.1970   45.9510 O   0  0  0  0  0  0  0  0  0  0  0  0
   58.0320   27.1620   46.1290 C   0  0  0  0  0  0  0  0  0  0  0  0
   58.0071   24.0775   47.6317 H   0  0  0  0  0  0  0  0  0  0  0  0
   55.5777   24.3174   47.1281 H   0  0  0  0  0  0  0  0  0  0  0  0
   60.2134   30.2089   44.8647 H   0  0  0  0  0  0  0  0  0  0  0  0
   58.9668   30.7151   43.6583 H   0  0  0  0  0  0  0  0  0  0  0  0
   58.5557   33.0001   43.8253 H   0  0  0  0  0  0  0  0  0  0  0  0
   58.0307   35.0154   45.1998 H   0  0  0  0  0  0  0  0  0  0  0  0
   58.0387   34.8684   47.6909 H   0  0  0  0  0  0  0  0  0  0  0  0
   58.5698   32.7033   48.8132 H   0  0  0  0  0  0  0  0  0  0  0  0
   59.0908   30.6808   47.4476 H   0  0  0  0  0  0  0  0  0  0  0  0
  1  2  2  0
  2  3  1  0
  3  4  2  0
  4  5  1  0
  5  6  1  0
  5  7  1  0
  7  8  1  0
  8  9  2  0
  9 10  1  0
  9 11  1  0
 11 12  1  0
 12 13  1  0
 13 14  2  0
 14 15  1  0
 15 16  2  0
 16 17  1  0
 17 18  2  0
 11 19  1  0
 19 20  2  0
 19 21  1  0
 21  2  1  0
 21  7  2  0
 18 13  1  0
  3 22  1  0
  4 23  1  0
 12 24  1  0
 12 25  1  0
 14 26  1  0
 15 27  1  0
 16 28  1  0
 17 29  1  0
 18 30  1  0
M  CHG  1   6  -1
M  END
>  <UniqueID>  (90) 
81

>  <SMILES>  (90) 
O=c1ccn([O-])c2nc(Cl)n(Cc3ccccc3)c(=O)c12

>  <Energy>  (90) 
44.31888964898292

>  <Genealogy>  (90) 
O=c1ccn([O-])c2nc(Cl)n(Cc3ccccc3)c(=O)c12 (protonated)
O=c1ccn([O-])c2nc(Cl)n(Cc3ccccc3)c(=O)c12 (3D coordinates assigned)
O=c1ccn([O-])c2nc(Cl)n(Cc3ccccc3)c(=O)c12 (optimized conformer: 44.31888964898292 kcal/mol)

>  <smiles>  (90) 
O=c1ccn(O)c2nc(Cl)n(Cc3ccccc3)c(=O)c12

>  <score_type>  (90) 
oracle

>  <origin>  (90) 
adg

>  <m_score__min__energy>  (90) 
-10.970000000000001

>  <m_primary>  (90) 
energy

$$$$
90:0
     RDKit          3D

 35 37  0  0  0  0  0  0  0  0999 V2000
   53.7560   26.3290   45.9060 H   0  0  0  0  0  0  0  0  0  0  0  0
   54.7920   26.1990   45.9380 N   0  0  0  0  0  0  0  0  0  0  0  0
   55.1020   24.5210   45.6520 S   0  0  0  0  0  0  0  0  0  0  0  0
   54.4390   23.7190   46.7360 O   0  0  0  0  0  0  0  0  0  0  0  0
   54.5220   24.1430   44.3190 O   0  0  0  0  0  0  0  0  0  0  0  0
   56.8400   24.1920   45.6490 C   0  0  0  0  0  0  0  0  0  0  0  0
   57.7330   25.1650   46.1280 C   0  0  0  0  0  0  0  0  0  0  0  0
   57.3451   26.1287   46.4897 H   0  0  0  0  0  0  0  0  0  0  0  0
   59.1180   24.9200   46.1500 C   0  0  0  0  0  0  0  0  0  0  0  0
   60.0580   25.9050   46.6100 N   0  0  0  0  0  0  0  0  0  0  0  0
   59.8560   27.1860   46.7210 C   0  0  0  0  0  0  0  0  0  0  0  0
   59.1120   27.8220   45.7790 N   0  0  0  0  0  0  0  0  0  0  0  0
   58.8870   29.1640   45.8310 C   0  0  0  0  0  0  0  0  0  0  0  0
   58.0670   29.8050   44.7840 C   0  0  0  0  0  0  0  0  0  0  0  0
   56.4810   29.4100   44.3760 S   0  0  0  0  0  0  0  0  0  0  0  0
   56.3050   30.5440   43.1490 C   0  0  0  0  0  0  0  0  0  0  0  0
   55.4066   30.6943   42.5323 H   0  0  0  0  0  0  0  0  0  0  0  0
   57.4940   31.2600   43.0490 C   0  0  0  0  0  0  0  0  0  0  0  0
   57.7240   32.3210   42.0200 C   0  0  0  0  0  0  0  0  0  0  0  0
   57.9315   33.2783   42.5205 H   0  0  0  0  0  0  0  0  0  0  0  0
   58.5826   32.0422   41.3914 H   0  0  0  0  0  0  0  0  0  0  0  0
   56.8270   32.4227   41.3914 H   0  0  0  0  0  0  0  0  0  0  0  0
   58.4830   30.8410   43.9520 C   0  0  0  0  0  0  0  0  0  0  0  0
   59.4875   31.2869   43.9980 H   0  0  0  0  0  0  0  0  0  0  0  0
   59.4440   29.9080   46.8810 C   0  0  0  0  0  0  0  0  0  0  0  0
   59.2772   30.9930   46.9507 H   0  0  0  0  0  0  0  0  0  0  0  0
   60.2130   29.2440   47.8340 C   0  0  0  0  0  0  0  0  0  0  0  0
   60.6625   29.8059   48.6660 H   0  0  0  0  0  0  0  0  0  0  0  0
   60.4080   27.9050   47.7370 N   0  0  0  0  0  0  0  0  0  0  0  0
   59.6070   23.7180   45.6290 C   0  0  0  0  0  0  0  0  0  0  0  0
   60.6914   23.5354   45.6027 H   0  0  0  0  0  0  0  0  0  0  0  0
   58.7290   22.7480   45.1420 C   0  0  0  0  0  0  0  0  0  0  0  0
   59.1253   21.8009   44.7472 H   0  0  0  0  0  0  0  0  0  0  0  0
   57.3490   22.9730   45.1530 C   0  0  0  0  0  0  0  0  0  0  0  0
   56.2960   21.7150   44.5140 Cl  0  0  0  0  0  0  0  0  0  0  0  0
  1  2  1  0
  2  3  1  0
  3  4  2  0
  3  5  2  0
  3  6  1  0
  6  7  2  0
  7  8  1  0
  7  9  1  0
  9 10  1  0
 10 11  2  0
 11 12  1  0
 12 13  2  0
 13 14  1  0
 14 15  1  0
 15 16  1  0
 16 17  1  0
 16 18  2  0
 18 19  1  0
 19 20  1  0
 19 21  1  0
 19 22  1  0
 18 23  1  0
 23 24  1  0
 13 25  1  0
 25 26  1  0
 25 27  2  0
 27 28  1  0
 27 29  1  0
  9 30  2  0
 30 31  1  0
 30 32  1  0
 32 33  1  0
 32 34  2  0
 34 35  1  0
 34  6  1  0
 29 11  1  0
 23 14  2  0
M  CHG  2   2  -1  29  -1
M  END
>  <UniqueID>  (91) 
82

>  <SMILES>  (91) 
Cc1csc(-c2cc[n-]/c(=N\c3ccc(Cl)c(S([NH-])(=O)=O)c3)n2)c1

>  <Energy>  (91) 
71.33417922683114

>  <Genealogy>  (91) 
Cc1csc(-c2cc[n-]c(=Nc3ccc(Cl)c(S([NH-])(=O)=O)c3)n2)c1 (protonated)
Cc1csc(-c2cc[n-]/c(=N\c3ccc(Cl)c(S([NH-])(=O)=O)c3)n2)c1 (cis-trans isomerization)
Cc1csc(-c2cc[n-]/c(=N\c3ccc(Cl)c(S([NH-])(=O)=O)c3)n2)c1 (3D coordinates assigned)
Cc1csc(-c2cc[n-]/c(=N\c3ccc(Cl)c(S([NH-])(=O)=O)c3)n2)c1 (optimized conformer: 71.33417922683114 kcal/mol)

>  <smiles>  (91) 
Cc1csc(-c2cc[nH]c(=Nc3ccc(Cl)c(S(N)(=O)=O)c3)n2)c1

>  <score_type>  (91) 
oracle

>  <origin>  (91) 
adg

>  <m_score__min__energy>  (91) 
-13.380000000000001

>  <m_primary>  (91) 
energy

$$$$
