0:0
     RDKit          3D

 52 55  0  0  0  0  0  0  0  0999 V2000
   55.8390   24.0650   44.1420 C   0  0  0  0  0  0  0  0  0  0  0  0
   55.0220   24.0210   45.1990 C   0  0  0  0  0  0  0  0  0  0  0  0
   54.1860   25.2010   45.6090 C   0  0  0  0  0  0  0  0  0  0  0  0
   55.0410   26.3240   45.9910 N   0  0  0  0  0  0  0  0  0  0  0  0
   56.2960   26.2130   46.6760 C   0  0  0  0  0  0  0  0  0  0  0  0
   56.5010   25.2150   47.4150 O   0  0  0  0  0  0  0  0  0  0  0  0
   57.3630   27.2140   46.5070 C   0  0  0  0  0  0  0  0  0  0  0  0
   57.5560   27.8500   45.2730 C   0  0  0  0  0  0  0  0  0  0  0  0
   58.6090   28.7510   45.1030 C   0  0  0  0  0  0  0  0  0  0  0  0
   59.4820   29.0300   46.1670 C   0  0  0  0  0  0  0  0  0  0  0  0
   60.6570   29.9450   45.9580 C   0  0  0  0  0  0  0  0  0  0  0  0
   60.3230   31.3060   46.3930 N   0  0  0  0  0  0  0  0  0  0  0  0
   61.0470   32.1130   47.2140 C   0  0  0  0  0  0  0  0  0  0  0  0
   62.5960   31.6340   47.9810 S   0  0  0  0  0  0  0  0  0  0  0  0
   62.1240   32.2820   49.6160 C   0  0  0  0  0  0  0  0  0  0  0  0
   60.7740   31.7410   49.9930 C   0  0  0  0  0  0  0  0  0  0  0  0
   60.5590   30.3530   50.0340 C   0  0  0  0  0  0  0  0  0  0  0  0
   59.2950   29.8460   50.3480 C   0  0  0  0  0  0  0  0  0  0  0  0
   58.2350   30.7170   50.6120 C   0  0  0  0  0  0  0  0  0  0  0  0
   58.4370   32.0990   50.5590 C   0  0  0  0  0  0  0  0  0  0  0  0
   59.6990   32.6150   50.2460 C   0  0  0  0  0  0  0  0  0  0  0  0
   59.8710   33.9590   50.1790 F   0  0  0  0  0  0  0  0  0  0  0  0
   60.5060   33.3460   47.3810 N   0  0  0  0  0  0  0  0  0  0  0  0
   59.3990   33.2940   46.6200 C   0  0  0  0  0  0  0  0  0  0  0  0
   58.4660   34.3080   46.4120 C   0  0  0  0  0  0  0  0  0  0  0  0
   57.3870   34.0400   45.5500 C   0  0  0  0  0  0  0  0  0  0  0  0
   57.2690   32.7800   44.9220 C   0  0  0  0  0  0  0  0  0  0  0  0
   58.2290   31.7750   45.1510 C   0  0  0  0  0  0  0  0  0  0  0  0
   59.2840   32.0730   46.0160 C   0  0  0  0  0  0  0  0  0  0  0  0
   59.2640   28.4210   47.4130 C   0  0  0  0  0  0  0  0  0  0  0  0
   58.2060   27.5240   47.5840 C   0  0  0  0  0  0  0  0  0  0  0  0
   56.4362   23.1818   43.8713 H   0  0  0  0  0  0  0  0  0  0  0  0
   55.9142   24.9845   43.5429 H   0  0  0  0  0  0  0  0  0  0  0  0
   54.9596   23.0932   45.7866 H   0  0  0  0  0  0  0  0  0  0  0  0
   53.5468   25.5026   44.7661 H   0  0  0  0  0  0  0  0  0  0  0  0
   53.5654   24.9159   46.4713 H   0  0  0  0  0  0  0  0  0  0  0  0
   56.8753   27.6385   44.4352 H   0  0  0  0  0  0  0  0  0  0  0  0
   58.7555   29.2447   44.1310 H   0  0  0  0  0  0  0  0  0  0  0  0
   61.5130   29.5765   46.5424 H   0  0  0  0  0  0  0  0  0  0  0  0
   60.9124   29.9626   44.8882 H   0  0  0  0  0  0  0  0  0  0  0  0
   62.8674   31.9691   50.3640 H   0  0  0  0  0  0  0  0  0  0  0  0
   62.0840   33.3807   49.5797 H   0  0  0  0  0  0  0  0  0  0  0  0
   61.3882   29.6632   49.8183 H   0  0  0  0  0  0  0  0  0  0  0  0
   59.1343   28.7585   50.3874 H   0  0  0  0  0  0  0  0  0  0  0  0
   57.2418   30.3153   50.8615 H   0  0  0  0  0  0  0  0  0  0  0  0
   57.6006   32.7834   50.7641 H   0  0  0  0  0  0  0  0  0  0  0  0
   58.5698   35.2856   46.9055 H   0  0  0  0  0  0  0  0  0  0  0  0
   56.6304   34.8164   45.3638 H   0  0  0  0  0  0  0  0  0  0  0  0
   56.4213   32.5824   44.2494 H   0  0  0  0  0  0  0  0  0  0  0  0
   58.1505   30.7909   44.6659 H   0  0  0  0  0  0  0  0  0  0  0  0
   59.9290   28.6509   48.2586 H   0  0  0  0  0  0  0  0  0  0  0  0
   58.0340   27.0598   48.5663 H   0  0  0  0  0  0  0  0  0  0  0  0
  1  2  2  0
  2  3  1  0
  3  4  1  0
  4  5  1  0
  5  6  2  0
  5  7  1  0
  7  8  2  0
  8  9  1  0
  9 10  2  0
 10 11  1  0
 11 12  1  0
 12 13  1  0
 13 14  1  0
 14 15  1  0
 15 16  1  0
 16 17  2  0
 17 18  1  0
 18 19  2  0
 19 20  1  0
 20 21  2  0
 21 22  1  0
 13 23  2  0
 23 24  1  0
 24 25  2  0
 25 26  1  0
 26 27  2  0
 27 28  1  0
 28 29  2  0
 10 30  1  0
 30 31  2  0
 31  7  1  0
 29 12  1  0
 21 16  1  0
 29 24  1  0
  1 32  1  0
  1 33  1  0
  2 34  1  0
  3 35  1  0
  3 36  1  0
  8 37  1  0
  9 38  1  0
 11 39  1  0
 11 40  1  0
 15 41  1  0
 15 42  1  0
 17 43  1  0
 18 44  1  0
 19 45  1  0
 20 46  1  0
 25 47  1  0
 26 48  1  0
 27 49  1  0
 28 50  1  0
 30 51  1  0
 31 52  1  0
M  CHG  1   4  -1
M  END
>  <UniqueID>  (1) 
1

>  <SMILES>  (1) 
C=CC[N-]C(=O)c1ccc(Cn2c(SCc3ccccc3F)nc3ccccc32)cc1

>  <Energy>  (1) 
88.01624705933072

>  <Genealogy>  (1) 
C=CC[N-]C(=O)c1ccc(Cn2c(SCc3ccccc3F)nc3ccccc32)cc1 (protonated)
C=CC[N-]C(=O)c1ccc(Cn2c(SCc3ccccc3F)nc3ccccc32)cc1 (3D coordinates assigned)
C=CC[N-]C(=O)c1ccc(Cn2c(SCc3ccccc3F)nc3ccccc32)cc1 (optimized conformer: 88.01624705933072 kcal/mol)

>  <smiles>  (1) 
C=CCNC(=O)c1ccc(Cn2c(SCc3ccccc3F)nc3ccccc32)cc1

>  <score_type>  (1) 
oracle

>  <origin>  (1) 
adg

>  <m_score__min__energy>  (1) 
-10.67

>  <m_primary>  (1) 
energy

$$$$
1:0
     RDKit          3D

 50 52  0  0  0  0  0  0  0  0999 V2000
   54.0260   28.3460   53.6620 C   0  0  0  0  0  0  0  0  0  0  0  0
   54.6210   29.3100   52.9360 C   0  0  0  0  0  0  0  0  0  0  0  0
   53.9530   30.3350   52.2580 C   0  0  0  0  0  0  0  0  0  0  0  0
   52.6300   30.5940   52.2570 C   0  0  0  0  0  0  0  0  0  0  0  0
   51.8560   30.9250   51.0470 C   0  0  0  0  0  0  0  0  0  0  0  0
   51.8360   30.1510   49.9480 N   0  0  0  0  0  0  0  0  0  0  0  0
   51.0900   30.8620   49.0750 C   0  0  0  0  0  0  0  0  0  0  0  0
   50.8300   30.4520   47.9140 O   0  0  0  0  0  0  0  0  0  0  0  0
   50.6560   32.0520   49.5390 N   0  0  0  0  0  0  0  0  0  0  0  0
   51.1580   32.0850   50.7850 C   0  0  0  0  0  0  0  0  0  0  0  0
   51.0210   33.1710   51.6400 O   0  0  0  0  0  0  0  0  0  0  0  0
   54.9290   31.0780   51.6180 C   0  0  0  0  0  0  0  0  0  0  0  0
   56.1410   30.4850   51.9050 C   0  0  0  0  0  0  0  0  0  0  0  0
   57.4190   30.9680   51.3320 C   0  0  0  0  0  0  0  0  0  0  0  0
   57.7850   32.1530   51.5570 O   0  0  0  0  0  0  0  0  0  0  0  0
   58.2140   30.1280   50.4900 N   0  0  0  0  0  0  0  0  0  0  0  0
   59.4130   30.5800   49.7940 C   0  0  0  0  0  0  0  0  0  0  0  0
   59.0410   31.4720   48.6420 C   0  0  0  0  0  0  0  0  0  0  0  0
   59.2530   32.8600   48.7130 C   0  0  0  0  0  0  0  0  0  0  0  0
   58.8820   33.6840   47.6460 C   0  0  0  0  0  0  0  0  0  0  0  0
   58.2950   33.1310   46.5040 C   0  0  0  0  0  0  0  0  0  0  0  0
   58.0750   31.7530   46.4280 C   0  0  0  0  0  0  0  0  0  0  0  0
   57.4880   31.2050   45.2940 O   0  0  0  0  0  0  0  0  0  0  0  0
   58.4460   30.9250   47.4930 C   0  0  0  0  0  0  0  0  0  0  0  0
   55.9680   29.4200   52.7360 N   0  0  0  0  0  0  0  0  0  0  0  0
   57.0360   28.5740   53.3060 C   0  0  0  0  0  0  0  0  0  0  0  0
   57.4820   29.0350   54.7170 C   0  0  0  0  0  0  0  0  0  0  0  0
   58.4460   30.1580   54.7540 N   0  0  0  0  0  0  0  0  0  0  0  0
   57.8120   31.4850   54.7540 C   0  0  0  0  0  0  0  0  0  0  0  0
   59.5160   30.0610   53.7510 C   0  0  0  0  0  0  0  0  0  0  0  0
   54.6354   27.5786   54.1617 H   0  0  0  0  0  0  0  0  0  0  0  0
   52.9302   28.3253   53.7558 H   0  0  0  0  0  0  0  0  0  0  0  0
   52.0955   30.5560   53.2177 H   0  0  0  0  0  0  0  0  0  0  0  0
   54.7688   31.9722   50.9978 H   0  0  0  0  0  0  0  0  0  0  0  0
   60.0507   31.1388   50.4947 H   0  0  0  0  0  0  0  0  0  0  0  0
   59.9553   29.7041   49.4085 H   0  0  0  0  0  0  0  0  0  0  0  0
   59.7122   33.2992   49.6109 H   0  0  0  0  0  0  0  0  0  0  0  0
   59.0523   34.7691   47.7052 H   0  0  0  0  0  0  0  0  0  0  0  0
   58.0061   33.7809   45.6648 H   0  0  0  0  0  0  0  0  0  0  0  0
   58.2710   29.8408   47.4303 H   0  0  0  0  0  0  0  0  0  0  0  0
   56.6658   27.5405   53.3751 H   0  0  0  0  0  0  0  0  0  0  0  0
   57.9092   28.6524   52.6417 H   0  0  0  0  0  0  0  0  0  0  0  0
   56.5831   29.3437   55.2708 H   0  0  0  0  0  0  0  0  0  0  0  0
   58.0076   28.1759   55.1593 H   0  0  0  0  0  0  0  0  0  0  0  0
   57.6539   31.8158   55.7911 H   0  0  0  0  0  0  0  0  0  0  0  0
   58.4643   32.2030   54.2355 H   0  0  0  0  0  0  0  0  0  0  0  0
   56.8435   31.4287   54.2355 H   0  0  0  0  0  0  0  0  0  0  0  0
   60.4878   29.9729   54.2589 H   0  0  0  0  0  0  0  0  0  0  0  0
   59.3494   29.1743   53.1217 H   0  0  0  0  0  0  0  0  0  0  0  0
   59.5116   30.9632   53.1217 H   0  0  0  0  0  0  0  0  0  0  0  0
  1  2  2  0
  2  3  1  0
  3  4  2  3
  4  5  1  0
  5  6  1  0
  6  7  1  0
  7  8  2  0
  7  9  1  0
  9 10  1  0
 10 11  1  0
  3 12  1  0
 12 13  2  0
 13 14  1  0
 14 15  2  0
 14 16  1  0
 16 17  1  0
 17 18  1  0
 18 19  2  0
 19 20  1  0
 20 21  2  0
 21 22  1  0
 22 23  1  0
 22 24  2  0
 13 25  1  0
 25 26  1  0
 26 27  1  0
 27 28  1  0
 28 29  1  0
 28 30  1  0
 25  2  1  0
 10  5  2  0
 24 18  1  0
  1 31  1  0
  1 32  1  0
  4 33  1  0
 12 34  1  0
 17 35  1  0
 17 36  1  0
 19 37  1  0
 20 38  1  0
 21 39  1  0
 24 40  1  0
 26 41  1  0
 26 42  1  0
 27 43  1  0
 27 44  1  0
 29 45  1  0
 29 46  1  0
 29 47  1  0
 30 48  1  0
 30 49  1  0
 30 50  1  0
M  CHG  5   6  -1   9  -1  11  -1  16  -1  23  -1
M  END
>  <UniqueID>  (2) 
2

>  <SMILES>  (2) 
C=c1c(=Cc2[n-]c(=O)[n-]c2[O-])cc(C(=O)[N-]Cc2cccc([O-])c2)n1CCN(C)C

>  <Energy>  (2) 
122.70892023662066

>  <Genealogy>  (2) 
C=c1c(=Cc2[n-]c(=O)[n-]c2[O-])cc(C(=O)[N-]Cc2cccc([O-])c2)n1CCN(C)C (protonated)
C=c1c(=Cc2[n-]c(=O)[n-]c2[O-])cc(C(=O)[N-]Cc2cccc([O-])c2)n1CCN(C)C (3D coordinates assigned)
C=c1c(=Cc2[n-]c(=O)[n-]c2[O-])cc(C(=O)[N-]Cc2cccc([O-])c2)n1CCN(C)C (optimized conformer: 122.70892023662066 kcal/mol)

>  <smiles>  (2) 
C=c1c(=Cc2[nH]c(=O)[nH]c2O)cc(C(=O)NCc2cccc(O)c2)n1CCN(C)C

>  <score_type>  (2) 
oracle

>  <origin>  (2) 
adg

>  <m_score__min__energy>  (2) 
-18.5

>  <m_primary>  (2) 
energy

$$$$
2:0
     RDKit          3D

 37 38  0  0  0  0  0  0  0  0999 V2000
   59.6380   33.8330   50.0650 C   0  0  0  0  0  0  0  0  0  0  0  0
   61.0120   33.6840   49.5000 C   0  0  0  0  0  0  0  0  0  0  0  0
   62.1400   33.8240   50.2260 N   0  0  0  0  0  0  0  0  0  0  0  0
   63.1630   33.4970   49.4490 N   0  0  0  0  0  0  0  0  0  0  0  0
   64.5430   33.4380   49.9180 C   0  0  0  0  0  0  0  0  0  0  0  0
   62.7150   33.1270   48.2290 C   0  0  0  0  0  0  0  0  0  0  0  0
   63.5530   32.5080   47.1540 C   0  0  0  0  0  0  0  0  0  0  0  0
   61.3410   33.2410   48.2340 C   0  0  0  0  0  0  0  0  0  0  0  0
   60.4470   32.7310   47.2460 N   0  0  0  0  0  0  0  0  0  0  0  0
   59.2960   33.7700   46.4800 S   0  0  0  0  0  0  0  0  0  0  0  0
   58.2680   34.2230   47.4780 O   0  0  0  0  0  0  0  0  0  0  0  0
   60.0070   34.9780   45.9370 O   0  0  0  0  0  0  0  0  0  0  0  0
   58.5190   32.9010   45.1610 C   0  0  0  0  0  0  0  0  0  0  0  0
   58.4960   33.4430   43.8680 C   0  0  0  0  0  0  0  0  0  0  0  0
   57.9430   32.7130   42.8130 C   0  0  0  0  0  0  0  0  0  0  0  0
   57.4210   31.4370   43.0390 C   0  0  0  0  0  0  0  0  0  0  0  0
   57.4410   30.8870   44.3280 C   0  0  0  0  0  0  0  0  0  0  0  0
   56.8210   29.2670   44.6250 S   0  0  0  0  0  0  0  0  0  0  0  0
   57.4480   28.1850   43.4320 N   0  0  0  0  0  0  0  0  0  0  0  0
   55.3190   29.2660   44.5550 O   0  0  0  0  0  0  0  0  0  0  0  0
   57.2420   28.8130   45.9950 O   0  0  0  0  0  0  0  0  0  0  0  0
   57.9910   31.6220   45.3860 C   0  0  0  0  0  0  0  0  0  0  0  0
   59.6907   33.8273   51.1637 H   0  0  0  0  0  0  0  0  0  0  0  0
   59.2023   34.7837   49.7238 H   0  0  0  0  0  0  0  0  0  0  0  0
   59.0087   32.9978   49.7238 H   0  0  0  0  0  0  0  0  0  0  0  0
   64.5567   33.4374   51.0179 H   0  0  0  0  0  0  0  0  0  0  0  0
   65.0181   32.5187   49.5449 H   0  0  0  0  0  0  0  0  0  0  0  0
   65.0948   34.3134   49.5449 H   0  0  0  0  0  0  0  0  0  0  0  0
   64.3573   31.9139   47.6125 H   0  0  0  0  0  0  0  0  0  0  0  0
   62.9251   31.8552   46.5298 H   0  0  0  0  0  0  0  0  0  0  0  0
   63.9924   33.3001   46.5298 H   0  0  0  0  0  0  0  0  0  0  0  0
   58.9137   34.4439   43.6842 H   0  0  0  0  0  0  0  0  0  0  0  0
   57.9185   33.1442   41.8013 H   0  0  0  0  0  0  0  0  0  0  0  0
   56.9935   30.8629   42.2037 H   0  0  0  0  0  0  0  0  0  0  0  0
   57.7700   28.7690   42.6280 H   0  0  0  0  0  0  0  0  0  0  0  0
   56.6450   27.6140   43.0870 H   0  0  0  0  0  0  0  0  0  0  0  0
   58.0087   31.1933   46.3989 H   0  0  0  0  0  0  0  0  0  0  0  0
  1  2  1  0
  2  3  2  0
  3  4  1  0
  4  5  1  0
  4  6  1  0
  6  7  1  0
  6  8  2  0
  8  9  1  0
  9 10  1  0
 10 11  2  0
 10 12  2  0
 10 13  1  0
 13 14  2  0
 14 15  1  0
 15 16  2  0
 16 17  1  0
 17 18  1  0
 18 19  1  0
 18 20  2  0
 18 21  2  0
 17 22  2  0
  8  2  1  0
 22 13  1  0
  1 23  1  0
  1 24  1  0
  1 25  1  0
  5 26  1  0
  5 27  1  0
  5 28  1  0
  7 29  1  0
  7 30  1  0
  7 31  1  0
 14 32  1  0
 15 33  1  0
 16 34  1  0
 19 35  1  0
 19 36  1  0
 22 37  1  0
M  CHG  1   9  -1
M  END
>  <UniqueID>  (3) 
3

>  <SMILES>  (3) 
Cc1nn(C)c(C)c1[N-]S(=O)(=O)c1cccc(S(N)(=O)=O)c1

>  <Energy>  (3) 
70.4755633136383

>  <Genealogy>  (3) 
Cc1nn(C)c(C)c1[N-]S(=O)(=O)c1cccc(S(N)(=O)=O)c1 (protonated)
Cc1nn(C)c(C)c1[N-]S(=O)(=O)c1cccc(S(N)(=O)=O)c1 (3D coordinates assigned)
Cc1nn(C)c(C)c1[N-]S(=O)(=O)c1cccc(S(N)(=O)=O)c1 (optimized conformer: 70.4755633136383 kcal/mol)

>  <smiles>  (3) 
Cc1nn(C)c(C)c1NS(=O)(=O)c1cccc(S(N)(=O)=O)c1

>  <score_type>  (3) 
oracle

>  <origin>  (3) 
adg

>  <m_score__min__energy>  (3) 
-9.9199999999999999

>  <m_primary>  (3) 
energy

$$$$
3:0
     RDKit          3D

 45 48  0  0  0  0  0  0  0  0999 V2000
   55.1040   26.3340   45.9870 N   0  0  0  0  0  0  0  0  0  0  0  0
   56.8310   26.2870   45.9700 S   0  0  0  0  0  0  0  0  0  0  0  0
   57.3000   25.3700   44.8760 O   0  0  0  0  0  0  0  0  0  0  0  0
   57.3290   25.7610   47.2870 O   0  0  0  0  0  0  0  0  0  0  0  0
   57.4600   27.9090   45.6980 C   0  0  0  0  0  0  0  0  0  0  0  0
   56.9980   28.6770   44.6210 C   0  0  0  0  0  0  0  0  0  0  0  0
   57.5080   29.9590   44.4010 C   0  0  0  0  0  0  0  0  0  0  0  0
   58.4970   30.4830   45.2410 C   0  0  0  0  0  0  0  0  0  0  0  0
   58.9750   31.7790   44.9940 O   0  0  0  0  0  0  0  0  0  0  0  0
   59.2670   32.7340   45.9790 C   0  0  0  0  0  0  0  0  0  0  0  0
   58.5320   33.9250   46.0020 C   0  0  0  0  0  0  0  0  0  0  0  0
   58.7970   34.9000   46.9670 C   0  0  0  0  0  0  0  0  0  0  0  0
   59.8050   34.6960   47.9110 C   0  0  0  0  0  0  0  0  0  0  0  0
   60.5620   33.5140   47.8930 C   0  0  0  0  0  0  0  0  0  0  0  0
   61.6370   33.2960   48.8880 C   0  0  0  0  0  0  0  0  0  0  0  0
   62.9630   33.5760   48.5160 C   0  0  0  0  0  0  0  0  0  0  0  0
   64.0010   33.4560   49.4410 C   0  0  0  0  0  0  0  0  0  0  0  0
   63.7300   33.0550   50.7470 C   0  0  0  0  0  0  0  0  0  0  0  0
   62.4220   32.7600   51.1320 C   0  0  0  0  0  0  0  0  0  0  0  0
   61.3630   32.8650   50.2130 C   0  0  0  0  0  0  0  0  0  0  0  0
   60.0020   32.4650   50.6440 C   0  0  0  0  0  0  0  0  0  0  0  0
   59.4280   31.2150   50.5170 C   0  0  0  0  0  0  0  0  0  0  0  0
   58.1780   31.3240   51.0880 C   0  0  0  0  0  0  0  0  0  0  0  0
   57.2600   30.2870   51.1740 O   0  0  0  0  0  0  0  0  0  0  0  0
   57.9390   32.5610   51.5650 N   0  0  0  0  0  0  0  0  0  0  0  0
   59.0640   33.2510   51.2910 C   0  0  0  0  0  0  0  0  0  0  0  0
   59.2330   34.5930   51.6120 O   0  0  0  0  0  0  0  0  0  0  0  0
   60.3020   32.5430   46.9130 C   0  0  0  0  0  0  0  0  0  0  0  0
   58.9510   29.7170   46.3310 C   0  0  0  0  0  0  0  0  0  0  0  0
   58.4410   28.4340   46.5510 C   0  0  0  0  0  0  0  0  0  0  0  0
   54.8000   26.7030   45.0570 H   0  0  0  0  0  0  0  0  0  0  0  0
   56.2310   28.2691   43.9462 H   0  0  0  0  0  0  0  0  0  0  0  0
   57.1294   30.5607   43.5616 H   0  0  0  0  0  0  0  0  0  0  0  0
   57.7414   34.0943   45.2562 H   0  0  0  0  0  0  0  0  0  0  0  0
   58.2102   35.8303   46.9829 H   0  0  0  0  0  0  0  0  0  0  0  0
   60.0068   35.4644   48.6718 H   0  0  0  0  0  0  0  0  0  0  0  0
   63.1847   33.8927   47.4862 H   0  0  0  0  0  0  0  0  0  0  0  0
   65.0348   33.6785   49.1382 H   0  0  0  0  0  0  0  0  0  0  0  0
   64.5491   32.9707   51.4764 H   0  0  0  0  0  0  0  0  0  0  0  0
   62.2170   32.4420   52.1649 H   0  0  0  0  0  0  0  0  0  0  0  0
   59.8743   30.3210   50.0571 H   0  0  0  0  0  0  0  0  0  0  0  0
   58.4920   35.2620   51.4410 H   0  0  0  0  0  0  0  0  0  0  0  0
   60.9108   31.6276   46.8750 H   0  0  0  0  0  0  0  0  0  0  0  0
   59.7099   30.1293   47.0123 H   0  0  0  0  0  0  0  0  0  0  0  0
   58.8106   27.8346   47.3960 H   0  0  0  0  0  0  0  0  0  0  0  0
  1  2  1  0
  2  3  2  0
  2  4  2  0
  2  5  1  0
  5  6  2  0
  6  7  1  0
  7  8  2  0
  8  9  1  0
  9 10  1  0
 10 11  2  0
 11 12  1  0
 12 13  2  0
 13 14  1  0
 14 15  1  0
 15 16  2  0
 16 17  1  0
 17 18  2  0
 18 19  1  0
 19 20  2  0
 20 21  1  0
 21 22  1  0
 22 23  2  0
 23 24  1  0
 23 25  1  0
 25 26  1  0
 26 27  1  0
 14 28  2  0
  8 29  1  0
 29 30  2  0
 30  5  1  0
 28 10  1  0
 20 15  1  0
 26 21  2  0
  1 31  1  0
  6 32  1  0
  7 33  1  0
 11 34  1  0
 12 35  1  0
 13 36  1  0
 16 37  1  0
 17 38  1  0
 18 39  1  0
 19 40  1  0
 22 41  1  0
 27 42  1  0
 28 43  1  0
 29 44  1  0
 30 45  1  0
M  CHG  3   1  -1  24  -1  25  -1
M  END
>  <UniqueID>  (4) 
4

>  <SMILES>  (4) 
[NH-]S(=O)(=O)c1ccc(Oc2cccc(-c3ccccc3-c3cc([O-])[n-]c3O)c2)cc1

>  <Energy>  (4) 
92.89691036134182

>  <Genealogy>  (4) 
[NH-]S(=O)(=O)c1ccc(Oc2cccc(-c3ccccc3-c3cc([O-])[n-]c3O)c2)cc1 (protonated)
[NH-]S(=O)(=O)c1ccc(Oc2cccc(-c3ccccc3-c3cc([O-])[n-]c3O)c2)cc1 (3D coordinates assigned)
[NH-]S(=O)(=O)c1ccc(Oc2cccc(-c3ccccc3-c3cc([O-])[n-]c3O)c2)cc1 (optimized conformer: 92.89691036134182 kcal/mol)

>  <smiles>  (4) 
NS(=O)(=O)c1ccc(Oc2cccc(-c3ccccc3-c3cc(O)[nH]c3O)c2)cc1

>  <score_type>  (4) 
oracle

>  <origin>  (4) 
adg

>  <m_score__min__energy>  (4) 
-14.31

>  <m_primary>  (4) 
energy

$$$$
4:0
     RDKit          3D

 56 58  0  0  0  0  0  0  0  0999 V2000
   64.1390   32.3810   48.6500 C   0  0  0  0  0  0  0  0  0  0  0  0
   62.8120   32.9890   48.9710 C   0  0  0  0  0  0  0  0  0  0  0  0
   62.2970   33.0370   50.2160 N   0  0  0  0  0  0  0  0  0  0  0  0
   61.1100   33.6220   50.1420 N   0  0  0  0  0  0  0  0  0  0  0  0
   60.2350   33.7930   51.3040 C   0  0  0  0  0  0  0  0  0  0  0  0
   58.8990   33.0650   51.1020 C   0  0  0  0  0  0  0  0  0  0  0  0
   58.9620   31.6070   51.4970 C   0  0  0  0  0  0  0  0  0  0  0  0
   58.7390   31.2950   52.6990 O   0  0  0  0  0  0  0  0  0  0  0  0
   59.1710   30.5660   50.5160 N   0  0  0  0  0  0  0  0  0  0  0  0
   59.6190   29.2230   50.9250 C   0  0  0  0  0  0  0  0  0  0  0  0
   60.1680   28.4180   49.7380 C   0  0  0  0  0  0  0  0  0  0  0  0
   61.0700   29.3000   48.8670 C   0  0  0  0  0  0  0  0  0  0  0  0
   60.3460   30.5750   48.3390 C   0  0  1  0  0  0  0  0  0  0  0  0
   60.0910   30.5050   46.8470 C   0  0  0  0  0  0  0  0  0  0  0  0
   61.0340   30.7960   46.0580 O   0  0  0  0  0  0  0  0  0  0  0  0
   58.7900   30.0590   46.2730 C   0  0  0  0  0  0  0  0  0  0  0  0
   58.0630   30.9340   45.4500 C   0  0  0  0  0  0  0  0  0  0  0  0
   56.8580   30.5340   44.8780 C   0  0  0  0  0  0  0  0  0  0  0  0
   56.3510   29.2540   45.1120 C   0  0  0  0  0  0  0  0  0  0  0  0
   55.1560   28.8950   44.5020 O   0  0  0  0  0  0  0  0  0  0  0  0
   57.0560   28.3510   45.9400 C   0  0  0  0  0  0  0  0  0  0  0  0
   56.5540   26.9760   46.2130 C   0  0  0  0  0  0  0  0  0  0  0  0
   55.1870   26.6320   46.0000 N   0  0  0  0  0  0  0  0  0  0  0  0
   57.3400   26.0910   46.6460 O   0  0  0  0  0  0  0  0  0  0  0  0
   58.2750   28.7690   46.5100 C   0  0  0  0  0  0  0  0  0  0  0  0
   59.0190   30.8490   49.0810 C   0  0  0  0  0  0  0  0  0  0  0  0
   60.8420   33.9430   48.8540 C   0  0  0  0  0  0  0  0  0  0  0  0
   59.5740   34.5810   48.3670 C   0  0  0  0  0  0  0  0  0  0  0  0
   61.9100   33.5320   48.0720 C   0  0  0  0  0  0  0  0  0  0  0  0
   62.0690   33.6770   46.5880 C   0  0  0  0  0  0  0  0  0  0  0  0
   64.6671   32.1391   49.5841 H   0  0  0  0  0  0  0  0  0  0  0  0
   63.9892   31.4617   48.0648 H   0  0  0  0  0  0  0  0  0  0  0  0
   64.7374   33.0947   48.0648 H   0  0  0  0  0  0  0  0  0  0  0  0
   60.7358   33.3842   52.1940 H   0  0  0  0  0  0  0  0  0  0  0  0
   60.0318   34.8663   51.4332 H   0  0  0  0  0  0  0  0  0  0  0  0
   58.1316   33.5622   51.7135 H   0  0  0  0  0  0  0  0  0  0  0  0
   58.6566   33.1080   50.0299 H   0  0  0  0  0  0  0  0  0  0  0  0
   60.4110   29.3270   51.6813 H   0  0  0  0  0  0  0  0  0  0  0  0
   58.7515   28.6828   51.3321 H   0  0  0  0  0  0  0  0  0  0  0  0
   60.7509   27.5654   50.1166 H   0  0  0  0  0  0  0  0  0  0  0  0
   59.3250   28.0585   49.1297 H   0  0  0  0  0  0  0  0  0  0  0  0
   61.9386   29.6123   49.4653 H   0  0  0  0  0  0  0  0  0  0  0  0
   61.3680   28.7039   47.9919 H   0  0  0  0  0  0  0  0  0  0  0  0
   61.0312   31.4116   48.5406 H   0  0  0  0  0  0  0  0  0  0  0  0
   58.4491   31.9454   45.2552 H   0  0  0  0  0  0  0  0  0  0  0  0
   56.3007   31.2323   44.2363 H   0  0  0  0  0  0  0  0  0  0  0  0
   54.7540   26.7070   45.0530 H   0  0  0  0  0  0  0  0  0  0  0  0
   58.8357   28.0744   47.1528 H   0  0  0  0  0  0  0  0  0  0  0  0
   58.7388   31.9042   48.9466 H   0  0  0  0  0  0  0  0  0  0  0  0
   58.2357   30.1965   48.6678 H   0  0  0  0  0  0  0  0  0  0  0  0
   58.9635   34.8882   49.2290 H   0  0  0  0  0  0  0  0  0  0  0  0
   59.8182   35.4636   47.7575 H   0  0  0  0  0  0  0  0  0  0  0  0
   59.0108   33.8589   47.7575 H   0  0  0  0  0  0  0  0  0  0  0  0
   62.8663   34.4040   46.3740 H   0  0  0  0  0  0  0  0  0  0  0  0
   62.3339   32.7030   46.1507 H   0  0  0  0  0  0  0  0  0  0  0  0
   61.1235   34.0303   46.1507 H   0  0  0  0  0  0  0  0  0  0  0  0
  1  2  1  0
  2  3  2  0
  3  4  1  0
  4  5  1  0
  5  6  1  0
  6  7  1  0
  7  8  2  0
  7  9  1  0
  9 10  1  0
 10 11  1  0
 11 12  1  0
 12 13  1  0
 13 14  1  0
 14 15  2  0
 14 16  1  0
 16 17  2  0
 17 18  1  0
 18 19  2  0
 19 20  1  0
 19 21  1  0
 21 22  1  0
 22 23  1  0
 22 24  2  0
 21 25  2  0
 13 26  1  0
  4 27  1  0
 27 28  1  0
 27 29  2  0
 29 30  1  0
 29  2  1  0
 26  9  1  0
 25 16  1  0
  1 31  1  0
  1 32  1  0
  1 33  1  0
  5 34  1  0
  5 35  1  0
  6 36  1  0
  6 37  1  0
 10 38  1  0
 10 39  1  0
 11 40  1  0
 11 41  1  0
 12 42  1  0
 12 43  1  0
 13 44  1  6
 17 45  1  0
 18 46  1  0
 23 47  1  0
 25 48  1  0
 26 49  1  0
 26 50  1  0
 28 51  1  0
 28 52  1  0
 28 53  1  0
 30 54  1  0
 30 55  1  0
 30 56  1  0
M  CHG  2  20  -1  23  -1
M  END
>  <UniqueID>  (5) 
5

>  <SMILES>  (5) 
Cc1nn(CCC(=O)N2CCC[C@@H](C(=O)c3ccc([O-])c(C([NH-])=O)c3)C2)c(C)c1C

>  <Energy>  (5) 
91.07901949496045

>  <Genealogy>  (5) 
Cc1nn(CCC(=O)N2CCCC(C(=O)c3ccc([O-])c(C([NH-])=O)c3)C2)c(C)c1C (protonated)
Cc1nn(CCC(=O)N2CCC[C@@H](C(=O)c3ccc([O-])c(C([NH-])=O)c3)C2)c(C)c1C (chirality)
Cc1nn(CCC(=O)N2CCC[C@@H](C(=O)c3ccc([O-])c(C([NH-])=O)c3)C2)c(C)c1C (3D coordinates assigned)
Cc1nn(CCC(=O)N2CCC[C@@H](C(=O)c3ccc([O-])c(C([NH-])=O)c3)C2)c(C)c1C (nonaromatic ring conformer: 91.07901949496045 kcal/mol)

>  <smiles>  (5) 
Cc1nn(CCC(=O)N2CCCC(C(=O)c3ccc(O)c(C(N)=O)c3)C2)c(C)c1C

>  <score_type>  (5) 
oracle

>  <origin>  (5) 
adg

>  <m_score__min__energy>  (5) 
-17.18

>  <m_primary>  (5) 
energy

$$$$
5:0
     RDKit          3D

 54 57  0  0  0  0  0  0  0  0999 V2000
   61.3340   26.3260   46.4030 C   0  0  0  0  0  0  0  0  0  0  0  0
   60.0460   27.0000   46.0320 C   0  0  0  0  0  0  0  0  0  0  0  0
   60.0420   28.3460   45.6410 C   0  0  0  0  0  0  0  0  0  0  0  0
   58.8480   28.9740   45.2560 C   0  0  0  0  0  0  0  0  0  0  0  0
   58.8710   30.3630   44.8890 N   0  0  0  0  0  0  0  0  0  0  0  0
   58.3170   31.4140   45.6940 C   0  0  0  0  0  0  0  0  0  0  0  0
   57.6140   31.1480   46.7060 O   0  0  0  0  0  0  0  0  0  0  0  0
   58.4880   32.8420   45.2750 C   0  0  0  0  0  0  0  0  0  0  0  0
   59.4560   33.9170   46.3270 S   0  0  0  0  0  0  0  0  0  0  0  0
   59.7290   35.2330   45.6520 O   0  0  0  0  0  0  0  0  0  0  0  0
   58.6990   34.1820   47.5990 O   0  0  0  0  0  0  0  0  0  0  0  0
   60.9790   33.1190   46.7010 C   0  0  0  0  0  0  0  0  0  0  0  0
   60.9820   31.8440   47.2820 C   0  0  0  0  0  0  0  0  0  0  0  0
   62.1920   31.2210   47.6040 C   0  0  0  0  0  0  0  0  0  0  0  0
   63.4020   31.8730   47.3540 C   0  0  0  0  0  0  0  0  0  0  0  0
   63.4040   33.1500   46.7850 C   0  0  0  0  0  0  0  0  0  0  0  0
   62.1960   33.7740   46.4610 C   0  0  0  0  0  0  0  0  0  0  0  0
   57.3050   33.4800   44.5660 C   0  0  0  0  0  0  0  0  0  0  0  0
   58.5570   33.1050   43.7790 C   0  0  0  0  0  0  0  0  0  0  0  0
   57.6480   28.2440   45.2830 C   0  0  0  0  0  0  0  0  0  0  0  0
   57.6440   26.8860   45.6370 C   0  0  0  0  0  0  0  0  0  0  0  0
   56.3720   26.1270   45.6520 C   0  0  0  0  0  0  0  0  0  0  0  0
   55.3380   26.6790   46.1190 O   0  0  0  0  0  0  0  0  0  0  0  0
   56.2850   24.7830   45.1370 N   0  0  0  0  0  0  0  0  0  0  0  0
   57.1160   24.3380   44.0140 C   0  0  0  0  0  0  0  0  0  0  0  0
   56.2910   23.4300   43.0970 C   0  0  0  0  0  0  0  0  0  0  0  0
   55.6890   22.3830   43.8350 O   0  0  0  0  0  0  0  0  0  0  0  0
   54.7460   22.9190   44.7440 C   0  0  0  0  0  0  0  0  0  0  0  0
   55.4390   23.7870   45.8000 C   0  0  0  0  0  0  0  0  0  0  0  0
   58.8480   26.2700   46.0140 C   0  0  0  0  0  0  0  0  0  0  0  0
   61.4216   26.2802   47.4986 H   0  0  0  0  0  0  0  0  0  0  0  0
   61.3460   25.3060   45.9912 H   0  0  0  0  0  0  0  0  0  0  0  0
   62.1788   26.8976   45.9912 H   0  0  0  0  0  0  0  0  0  0  0  0
   60.9834   28.9150   45.6360 H   0  0  0  0  0  0  0  0  0  0  0  0
   59.2100   30.6140   43.9320 H   0  0  0  0  0  0  0  0  0  0  0  0
   60.0301   31.3317   47.4854 H   0  0  0  0  0  0  0  0  0  0  0  0
   62.1910   30.2174   48.0542 H   0  0  0  0  0  0  0  0  0  0  0  0
   64.3535   31.3814   47.6049 H   0  0  0  0  0  0  0  0  0  0  0  0
   64.3571   33.6642   46.5921 H   0  0  0  0  0  0  0  0  0  0  0  0
   62.1997   34.7804   46.0171 H   0  0  0  0  0  0  0  0  0  0  0  0
   56.3750   32.9096   44.4250 H   0  0  0  0  0  0  0  0  0  0  0  0
   56.7190   34.4006   44.7039 H   0  0  0  0  0  0  0  0  0  0  0  0
   58.5304   32.2640   43.0705 H   0  0  0  0  0  0  0  0  0  0  0  0
   59.2489   33.6426   43.1140 H   0  0  0  0  0  0  0  0  0  0  0  0
   56.7019   28.7419   45.0240 H   0  0  0  0  0  0  0  0  0  0  0  0
   57.4645   25.2133   43.4462 H   0  0  0  0  0  0  0  0  0  0  0  0
   57.9834   23.7809   44.3978 H   0  0  0  0  0  0  0  0  0  0  0  0
   55.5050   24.0267   42.6110 H   0  0  0  0  0  0  0  0  0  0  0  0
   56.9597   22.9900   42.3425 H   0  0  0  0  0  0  0  0  0  0  0  0
   54.0214   23.5344   44.1906 H   0  0  0  0  0  0  0  0  0  0  0  0
   54.2345   22.0879   45.2517 H   0  0  0  0  0  0  0  0  0  0  0  0
   54.6796   24.2987   46.4095 H   0  0  0  0  0  0  0  0  0  0  0  0
   56.0610   23.1504   46.4464 H   0  0  0  0  0  0  0  0  0  0  0  0
   58.8521   25.2071   46.2974 H   0  0  0  0  0  0  0  0  0  0  0  0
  1  2  1  0
  2  3  2  0
  3  4  1  0
  4  5  1  0
  5  6  1  0
  6  7  2  0
  6  8  1  0
  8  9  1  0
  9 10  2  0
  9 11  2  0
  9 12  1  0
 12 13  2  0
 13 14  1  0
 14 15  2  0
 15 16  1  0
 16 17  2  0
  8 18  1  0
 18 19  1  0
  4 20  2  0
 20 21  1  0
 21 22  1  0
 22 23  2  0
 22 24  1  0
 24 25  1  0
 25 26  1  0
 26 27  1  0
 27 28  1  0
 28 29  1  0
 21 30  2  0
 30  2  1  0
 19  8  1  0
 29 24  1  0
 17 12  1  0
  1 31  1  0
  1 32  1  0
  1 33  1  0
  3 34  1  0
  5 35  1  0
 13 36  1  0
 14 37  1  0
 15 38  1  0
 16 39  1  0
 17 40  1  0
 18 41  1  0
 18 42  1  0
 19 43  1  0
 19 44  1  0
 20 45  1  0
 25 46  1  0
 25 47  1  0
 26 48  1  0
 26 49  1  0
 28 50  1  0
 28 51  1  0
 29 52  1  0
 29 53  1  0
 30 54  1  0
M  END
>  <UniqueID>  (6) 
6

>  <SMILES>  (6) 
Cc1cc(NC(=O)C2(S(=O)(=O)c3ccccc3)CC2)cc(C(=O)N2CCOCC2)c1

>  <Energy>  (6) 
328.3298120980646

>  <Genealogy>  (6) 
Cc1cc(NC(=O)C2(S(=O)(=O)c3ccccc3)CC2)cc(C(=O)N2CCOCC2)c1 (3D coordinates assigned)
Cc1cc(NC(=O)C2(S(=O)(=O)c3ccccc3)CC2)cc(C(=O)N2CCOCC2)c1 (nonaromatic ring conformer: 328.3298120980646 kcal/mol)

>  <smiles>  (6) 
Cc1cc(NC(=O)C2(S(=O)(=O)c3ccccc3)CC2)cc(C(=O)N2CCOCC2)c1

>  <score_type>  (6) 
oracle

>  <origin>  (6) 
adg

>  <m_score__min__energy>  (6) 
-10.15

>  <m_primary>  (6) 
energy

$$$$
6:0
     RDKit          3D

 50 53  0  0  0  0  0  0  0  0999 V2000
   60.7660   28.0470   45.9260 O   0  0  0  0  0  0  0  0  0  0  0  0
   59.8770   28.1770   46.8120 C   0  0  0  0  0  0  0  0  0  0  0  0
   60.2080   28.7510   48.0830 N   0  0  0  0  0  0  0  0  0  0  0  0
   60.9400   29.9640   48.3110 C   0  0  0  0  0  0  0  0  0  0  0  0
   61.0190   30.5600   49.5820 C   0  0  0  0  0  0  0  0  0  0  0  0
   61.7250   31.7530   49.7580 C   0  0  0  0  0  0  0  0  0  0  0  0
   62.3420   32.3760   48.6640 C   0  0  0  0  0  0  0  0  0  0  0  0
   63.2540   33.8670   48.8850 S   0  0  0  0  0  0  0  0  0  0  0  0
   63.7490   34.3450   47.5490 O   0  0  0  0  0  0  0  0  0  0  0  0
   62.3600   34.9270   49.4700 O   0  0  0  0  0  0  0  0  0  0  0  0
   64.6140   33.5610   49.9350 N   0  0  0  0  0  0  0  0  0  0  0  0
   65.1470   32.2140   49.7350 C   0  0  0  0  0  0  0  0  0  0  0  0
   65.7990   31.8080   51.0480 C   0  0  0  0  0  0  0  0  0  0  0  0
   65.1870   32.7210   52.1000 C   0  0  0  0  0  0  0  0  0  0  0  0
   64.2220   33.6200   51.3420 C   0  0  0  0  0  0  0  0  0  0  0  0
   62.2480   31.7930   47.3940 C   0  0  0  0  0  0  0  0  0  0  0  0
   61.5410   30.6010   47.2180 C   0  0  0  0  0  0  0  0  0  0  0  0
   58.4790   27.7560   46.5380 C   0  0  0  0  0  0  0  0  0  0  0  0
   58.0700   26.4810   46.9700 C   0  0  0  0  0  0  0  0  0  0  0  0
   56.7870   26.0070   46.6890 C   0  0  0  0  0  0  0  0  0  0  0  0
   56.4100   24.7400   47.1170 O   0  0  0  0  0  0  0  0  0  0  0  0
   55.8880   26.8020   45.9770 C   0  0  0  0  0  0  0  0  0  0  0  0
   54.6120   26.3250   45.6960 O   0  0  0  0  0  0  0  0  0  0  0  0
   56.2650   28.0800   45.5510 C   0  0  0  0  0  0  0  0  0  0  0  0
   55.3430   28.8670   44.8650 O   0  0  0  0  0  0  0  0  0  0  0  0
   57.5560   28.5720   45.8290 C   0  0  0  0  0  0  0  0  0  0  0  0
   57.8920   29.9580   45.4250 C   0  0  0  0  0  0  0  0  0  0  0  0
   57.8120   30.3410   44.0750 C   0  0  0  0  0  0  0  0  0  0  0  0
   58.1250   31.6500   43.6970 C   0  0  0  0  0  0  0  0  0  0  0  0
   58.5160   32.5840   44.6610 C   0  0  0  0  0  0  0  0  0  0  0  0
   58.8270   33.8840   44.2830 O   0  0  0  0  0  0  0  0  0  0  0  0
   58.5920   32.2100   46.0070 C   0  0  0  0  0  0  0  0  0  0  0  0
   58.2790   30.9020   46.3890 C   0  0  0  0  0  0  0  0  0  0  0  0
   60.5230   30.0852   50.4414 H   0  0  0  0  0  0  0  0  0  0  0  0
   61.7969   32.2049   50.7583 H   0  0  0  0  0  0  0  0  0  0  0  0
   64.3340   31.5172   49.4830 H   0  0  0  0  0  0  0  0  0  0  0  0
   65.8715   32.1917   48.9076 H   0  0  0  0  0  0  0  0  0  0  0  0
   65.5798   30.7548   51.2774 H   0  0  0  0  0  0  0  0  0  0  0  0
   66.8941   31.9042   51.0088 H   0  0  0  0  0  0  0  0  0  0  0  0
   64.6494   32.1305   52.8565 H   0  0  0  0  0  0  0  0  0  0  0  0
   65.9536   33.3017   52.6339 H   0  0  0  0  0  0  0  0  0  0  0  0
   63.1905   33.2580   51.4641 H   0  0  0  0  0  0  0  0  0  0  0  0
   64.2598   34.6518   51.7214 H   0  0  0  0  0  0  0  0  0  0  0  0
   62.7325   32.2753   46.5322 H   0  0  0  0  0  0  0  0  0  0  0  0
   61.4557   30.1597   46.2140 H   0  0  0  0  0  0  0  0  0  0  0  0
   58.7701   25.8494   47.5365 H   0  0  0  0  0  0  0  0  0  0  0  0
   57.5025   29.6092   43.3143 H   0  0  0  0  0  0  0  0  0  0  0  0
   58.0635   31.9456   42.6392 H   0  0  0  0  0  0  0  0  0  0  0  0
   58.8983   32.9456   46.7653 H   0  0  0  0  0  0  0  0  0  0  0  0
   58.3362   30.6118   47.4485 H   0  0  0  0  0  0  0  0  0  0  0  0
  1  2  2  0
  2  3  1  0
  3  4  1  0
  4  5  2  0
  5  6  1  0
  6  7  2  0
  7  8  1  0
  8  9  2  0
  8 10  2  0
  8 11  1  0
 11 12  1  0
 12 13  1  0
 13 14  1  0
 14 15  1  0
  7 16  1  0
 16 17  2  0
  2 18  1  0
 18 19  2  0
 19 20  1  0
 20 21  1  0
 20 22  2  0
 22 23  1  0
 22 24  1  0
 24 25  1  0
 24 26  2  0
 26 27  1  0
 27 28  2  0
 28 29  1  0
 29 30  2  0
 30 31  1  0
 30 32  1  0
 32 33  2  0
 17  4  1  0
 26 18  1  0
 33 27  1  0
 15 11  1  0
  5 34  1  0
  6 35  1  0
 12 36  1  0
 12 37  1  0
 13 38  1  0
 13 39  1  0
 14 40  1  0
 14 41  1  0
 15 42  1  0
 15 43  1  0
 16 44  1  0
 17 45  1  0
 19 46  1  0
 28 47  1  0
 29 48  1  0
 32 49  1  0
 33 50  1  0
M  CHG  5   3  -1  21  -1  23  -1  25  -1  31  -1
M  END
>  <UniqueID>  (7) 
7

>  <SMILES>  (7) 
O=C([N-]c1ccc(S(=O)(=O)N2CCCC2)cc1)c1cc([O-])c([O-])c([O-])c1-c1ccc([O-])cc1

>  <Energy>  (7) 
70.46231178400365

>  <Genealogy>  (7) 
O=C([N-]c1ccc(S(=O)(=O)N2CCCC2)cc1)c1cc([O-])c([O-])c([O-])c1-c1ccc([O-])cc1 (protonated)
O=C([N-]c1ccc(S(=O)(=O)N2CCCC2)cc1)c1cc([O-])c([O-])c([O-])c1-c1ccc([O-])cc1 (3D coordinates assigned)
O=C([N-]c1ccc(S(=O)(=O)N2CCCC2)cc1)c1cc([O-])c([O-])c([O-])c1-c1ccc([O-])cc1 (nonaromatic ring conformer: 70.46231178400365 kcal/mol)

>  <smiles>  (7) 
O=C(Nc1ccc(S(=O)(=O)N2CCCC2)cc1)c1cc(O)c(O)c(O)c1-c1ccc(O)cc1

>  <score_type>  (7) 
oracle

>  <origin>  (7) 
adg

>  <m_score__min__energy>  (7) 
-19.850000000000001

>  <m_primary>  (7) 
energy

$$$$
7:0
     RDKit          3D

 59 62  0  0  0  0  0  0  0  0999 V2000
   57.7320   25.4590   47.2620 O   0  0  0  0  0  0  0  0  0  0  0  0
   56.6420   25.5810   46.6380 C   0  0  0  0  0  0  0  0  0  0  0  0
   55.5380   24.7280   46.9440 N   0  0  0  0  0  0  0  0  0  0  0  0
   54.7680   24.0250   45.9250 C   0  0  0  0  0  0  0  0  0  0  0  0
   55.7100   23.2570   45.0420 C   0  0  0  0  0  0  0  0  0  0  0  0
   55.5790   23.3420   43.6450 C   0  0  0  0  0  0  0  0  0  0  0  0
   56.4140   22.5940   42.8100 C   0  0  0  0  0  0  0  0  0  0  0  0
   57.3780   21.7480   43.3610 C   0  0  0  0  0  0  0  0  0  0  0  0
   57.5070   21.6450   44.7490 C   0  0  0  0  0  0  0  0  0  0  0  0
   56.6720   22.3880   45.5910 C   0  0  0  0  0  0  0  0  0  0  0  0
   56.7970   22.2560   46.9350 F   0  0  0  0  0  0  0  0  0  0  0  0
   56.5240   26.5260   45.5710 N   0  0  0  0  0  0  0  0  0  0  0  0
   57.6680   26.8750   44.7310 C   0  0  0  0  0  0  0  0  0  0  0  0
   57.7800   28.3740   44.6160 C   0  0  0  0  0  0  0  0  0  0  0  0
   58.8740   29.0380   45.1920 C   0  0  0  0  0  0  0  0  0  0  0  0
   58.9200   30.4330   45.2130 C   0  0  0  0  0  0  0  0  0  0  0  0
   57.8810   31.1860   44.6440 C   0  0  0  0  0  0  0  0  0  0  0  0
   57.9030   32.6610   44.7210 C   0  0  0  0  0  0  0  0  0  0  0  0
   57.4620   33.3390   43.7530 O   0  0  0  0  0  0  0  0  0  0  0  0
   58.4290   33.3340   45.8800 N   0  0  0  0  0  0  0  0  0  0  0  0
   59.1820   34.5800   45.7080 C   0  0  0  0  0  0  0  0  0  0  0  0
   59.6560   35.1220   47.0600 C   0  0  0  0  0  0  0  0  0  0  0  0
   60.2320   34.0240   47.8640 N   0  0  0  0  0  0  0  0  0  0  0  0
   61.0060   34.5690   49.0130 C   0  0  0  0  0  0  0  0  0  0  0  0
   60.8320   33.8260   50.3400 C   0  0  0  0  0  0  0  0  0  0  0  0
   62.3240   33.5040   50.3460 C   0  0  0  0  0  0  0  0  0  0  0  0
   62.5020   34.2390   49.0200 C   0  0  0  0  0  0  0  0  0  0  0  0
   59.2560   32.9410   48.1780 C   0  0  0  0  0  0  0  0  0  0  0  0
   58.0430   32.9090   47.2310 C   0  0  0  0  0  0  0  0  0  0  0  0
   56.8160   30.5220   44.0130 C   0  0  0  0  0  0  0  0  0  0  0  0
   56.7610   29.1240   44.0100 C   0  0  0  0  0  0  0  0  0  0  0  0
   54.0658   23.3295   46.4080 H   0  0  0  0  0  0  0  0  0  0  0  0
   54.2015   24.7498   45.3219 H   0  0  0  0  0  0  0  0  0  0  0  0
   54.8151   24.0009   43.2064 H   0  0  0  0  0  0  0  0  0  0  0  0
   56.3113   22.6721   41.7176 H   0  0  0  0  0  0  0  0  0  0  0  0
   58.0363   21.1622   42.7027 H   0  0  0  0  0  0  0  0  0  0  0  0
   58.2674   20.9777   45.1809 H   0  0  0  0  0  0  0  0  0  0  0  0
   55.5680   26.7930   45.2450 H   0  0  0  0  0  0  0  0  0  0  0  0
   58.5877   26.4738   45.1818 H   0  0  0  0  0  0  0  0  0  0  0  0
   57.5272   26.4438   43.7289 H   0  0  0  0  0  0  0  0  0  0  0  0
   59.6991   28.4564   45.6290 H   0  0  0  0  0  0  0  0  0  0  0  0
   59.7753   30.9451   45.6781 H   0  0  0  0  0  0  0  0  0  0  0  0
   60.0572   34.3870   45.0703 H   0  0  0  0  0  0  0  0  0  0  0  0
   58.5239   35.3272   45.2405 H   0  0  0  0  0  0  0  0  0  0  0  0
   60.4212   35.8950   46.8958 H   0  0  0  0  0  0  0  0  0  0  0  0
   58.8005   35.5565   47.5978 H   0  0  0  0  0  0  0  0  0  0  0  0
   60.6707   35.6121   48.9156 H   0  0  0  0  0  0  0  0  0  0  0  0
   60.5058   34.4646   51.1742 H   0  0  0  0  0  0  0  0  0  0  0  0
   60.0861   33.0235   50.4382 H   0  0  0  0  0  0  0  0  0  0  0  0
   62.8752   33.9547   51.1845 H   0  0  0  0  0  0  0  0  0  0  0  0
   62.6638   32.4630   50.4502 H   0  0  0  0  0  0  0  0  0  0  0  0
   63.1575   35.1205   49.0780 H   0  0  0  0  0  0  0  0  0  0  0  0
   62.9686   33.7368   48.1597 H   0  0  0  0  0  0  0  0  0  0  0  0
   59.7759   31.9741   48.1095 H   0  0  0  0  0  0  0  0  0  0  0  0
   58.8700   33.1386   49.1889 H   0  0  0  0  0  0  0  0  0  0  0  0
   57.6456   31.8842   47.1876 H   0  0  0  0  0  0  0  0  0  0  0  0
   57.2768   33.5992   47.6138 H   0  0  0  0  0  0  0  0  0  0  0  0
   56.0228   31.1030   43.5197 H   0  0  0  0  0  0  0  0  0  0  0  0
   55.9148   28.6105   43.5302 H   0  0  0  0  0  0  0  0  0  0  0  0
  1  2  2  0
  2  3  1  0
  3  4  1  0
  4  5  1  0
  5  6  2  0
  6  7  1  0
  7  8  2  0
  8  9  1  0
  9 10  2  0
 10 11  1  0
  2 12  1  0
 12 13  1  0
 13 14  1  0
 14 15  2  0
 15 16  1  0
 16 17  2  0
 17 18  1  0
 18 19  2  0
 18 20  1  0
 20 21  1  0
 21 22  1  0
 22 23  1  0
 23 24  1  0
 24 25  1  0
 25 26  1  0
 26 27  1  0
 23 28  1  0
 28 29  1  0
 17 30  1  0
 30 31  2  0
 10  5  1  0
 31 14  1  0
 29 20  1  0
 27 24  1  0
  4 32  1  0
  4 33  1  0
  6 34  1  0
  7 35  1  0
  8 36  1  0
  9 37  1  0
 12 38  1  0
 13 39  1  0
 13 40  1  0
 15 41  1  0
 16 42  1  0
 21 43  1  0
 21 44  1  0
 22 45  1  0
 22 46  1  0
 24 47  1  0
 25 48  1  0
 25 49  1  0
 26 50  1  0
 26 51  1  0
 27 52  1  0
 27 53  1  0
 28 54  1  0
 28 55  1  0
 29 56  1  0
 29 57  1  0
 30 58  1  0
 31 59  1  0
M  CHG  1   3  -1
M  END
>  <UniqueID>  (8) 
8

>  <SMILES>  (8) 
O=C([N-]Cc1ccccc1F)NCc1ccc(C(=O)N2CCN(C3CCC3)CC2)cc1

>  <Energy>  (8) 
132.6550586121896

>  <Genealogy>  (8) 
O=C([N-]Cc1ccccc1F)NCc1ccc(C(=O)N2CCN(C3CCC3)CC2)cc1 (protonated)
O=C([N-]Cc1ccccc1F)NCc1ccc(C(=O)N2CCN(C3CCC3)CC2)cc1 (3D coordinates assigned)
O=C([N-]Cc1ccccc1F)NCc1ccc(C(=O)N2CCN(C3CCC3)CC2)cc1 (nonaromatic ring conformer: 132.6550586121896 kcal/mol)

>  <smiles>  (8) 
O=C(NCc1ccc(C(=O)N2CCN(C3CCC3)CC2)cc1)NCc1ccccc1F

>  <score_type>  (8) 
oracle

>  <origin>  (8) 
adg

>  <m_score__min__energy>  (8) 
-10.85

>  <m_primary>  (8) 
energy

$$$$
8:0
     RDKit          3D

 72 75  0  0  0  0  0  0  0  0999 V2000
   65.7110   30.4840   51.3020 C   0  0  0  0  0  0  0  0  0  0  0  0
   64.6830   31.4670   51.7570 C   0  0  0  0  0  0  0  0  0  0  0  0
   64.9490   32.5220   52.5540 N   0  0  0  0  0  0  0  0  0  0  0  0
   63.8210   33.2010   52.7130 N   0  0  0  0  0  0  0  0  0  0  0  0
   63.7360   34.4400   53.4780 C   0  0  0  0  0  0  0  0  0  0  0  0
   62.8280   32.6220   52.0010 C   0  0  0  0  0  0  0  0  0  0  0  0
   61.4370   33.1660   51.8660 C   0  0  0  0  0  0  0  0  0  0  0  0
   63.3490   31.4870   51.4010 C   0  0  0  0  0  0  0  0  0  0  0  0
   62.6990   30.5820   50.4970 N   0  0  0  0  0  0  0  0  0  0  0  0
   61.5700   29.7810   50.8740 C   0  0  0  0  0  0  0  0  0  0  0  0
   61.3350   29.5700   52.0960 O   0  0  0  0  0  0  0  0  0  0  0  0
   60.6990   29.1610   49.8450 C   0  0  0  0  0  0  0  0  0  0  0  0
   59.7010   29.9100   49.1970 C   0  0  0  0  0  0  0  0  0  0  0  0
   58.8840   29.3170   48.2300 C   0  0  0  0  0  0  0  0  0  0  0  0
   59.0370   27.9570   47.9080 C   0  0  0  0  0  0  0  0  0  0  0  0
   58.2510   27.3230   46.8850 N   0  0  0  0  0  0  0  0  0  0  0  0
   57.9080   27.8280   45.7360 C   0  0  0  0  0  0  0  0  0  0  0  0
   57.3670   29.0740   45.6960 N   0  0  0  0  0  0  0  0  0  0  0  0
   57.0060   29.6540   44.5190 C   0  0  0  0  0  0  0  0  0  0  0  0
   56.4370   30.9320   44.4880 O   0  0  0  0  0  0  0  0  0  0  0  0
   57.0810   32.1000   45.0040 C   0  0  0  0  0  0  0  0  0  0  0  0
   58.0380   32.6850   43.9520 C   0  0  0  0  0  0  0  0  0  0  0  0
   58.7700   33.9040   44.5220 C   0  0  0  0  0  0  0  0  0  0  0  0
   59.3520   33.6220   45.8420 N   0  0  0  0  0  0  0  0  0  0  0  0
   60.1410   34.6350   46.4940 C   0  0  0  0  0  0  0  0  0  0  0  0
   60.1870   35.7980   46.0070 O   0  0  0  0  0  0  0  0  0  0  0  0
   60.8540   34.3220   47.6620 O   0  0  0  0  0  0  0  0  0  0  0  0
   62.1060   33.6230   47.7350 C   0  0  0  0  0  0  0  0  0  0  0  0
   61.8720   32.1120   47.9300 C   0  0  0  0  0  0  0  0  0  0  0  0
   62.9800   34.1890   48.8700 C   0  0  0  0  0  0  0  0  0  0  0  0
   62.8260   33.8440   46.3960 C   0  0  0  0  0  0  0  0  0  0  0  0
   59.2500   32.2710   46.4140 C   0  0  0  0  0  0  0  0  0  0  0  0
   57.8100   31.7400   46.3230 C   0  0  0  0  0  0  0  0  0  0  0  0
   57.2080   28.9650   43.3230 C   0  0  0  0  0  0  0  0  0  0  0  0
   57.7750   27.6930   43.3750 C   0  0  0  0  0  0  0  0  0  0  0  0
   58.1150   27.1500   44.5720 N   0  0  0  0  0  0  0  0  0  0  0  0
   60.0420   27.2160   48.5380 C   0  0  0  0  0  0  0  0  0  0  0  0
   60.8580   27.8060   49.5080 C   0  0  0  0  0  0  0  0  0  0  0  0
   66.1918   30.0243   52.1781 H   0  0  0  0  0  0  0  0  0  0  0  0
   65.2285   29.7027   50.6964 H   0  0  0  0  0  0  0  0  0  0  0  0
   66.4699   31.0010   50.6964 H   0  0  0  0  0  0  0  0  0  0  0  0
   63.7519   34.2088   54.5533 H   0  0  0  0  0  0  0  0  0  0  0  0
   64.5921   35.0843   53.2288 H   0  0  0  0  0  0  0  0  0  0  0  0
   62.8000   34.9613   53.2288 H   0  0  0  0  0  0  0  0  0  0  0  0
   61.0100   33.3330   52.8659 H   0  0  0  0  0  0  0  0  0  0  0  0
   61.4675   34.1185   51.3166 H   0  0  0  0  0  0  0  0  0  0  0  0
   60.8133   32.4456   51.3166 H   0  0  0  0  0  0  0  0  0  0  0  0
   63.1710   30.3790   49.5880 H   0  0  0  0  0  0  0  0  0  0  0  0
   59.5620   30.9708   49.4529 H   0  0  0  0  0  0  0  0  0  0  0  0
   58.1175   29.9175   47.7184 H   0  0  0  0  0  0  0  0  0  0  0  0
   56.3349   32.8764   45.2289 H   0  0  0  0  0  0  0  0  0  0  0  0
   58.7747   31.9200   43.6657 H   0  0  0  0  0  0  0  0  0  0  0  0
   57.4567   32.9951   43.0711 H   0  0  0  0  0  0  0  0  0  0  0  0
   59.5764   34.1906   43.8309 H   0  0  0  0  0  0  0  0  0  0  0  0
   58.0401   34.7189   44.6367 H   0  0  0  0  0  0  0  0  0  0  0  0
   61.8364   31.8822   49.0051 H   0  0  0  0  0  0  0  0  0  0  0  0
   60.9187   31.8252   47.4620 H   0  0  0  0  0  0  0  0  0  0  0  0
   62.6939   31.5503   47.4620 H   0  0  0  0  0  0  0  0  0  0  0  0
   62.5466   33.9083   49.8413 H   0  0  0  0  0  0  0  0  0  0  0  0
   63.9970   33.7776   48.7896 H   0  0  0  0  0  0  0  0  0  0  0  0
   63.0206   35.2853   48.7896 H   0  0  0  0  0  0  0  0  0  0  0  0
   63.8620   34.1620   46.5849 H   0  0  0  0  0  0  0  0  0  0  0  0
   62.8293   32.9055   45.8222 H   0  0  0  0  0  0  0  0  0  0  0  0
   62.3022   34.6227   45.8222 H   0  0  0  0  0  0  0  0  0  0  0  0
   59.9181   31.5949   45.8604 H   0  0  0  0  0  0  0  0  0  0  0  0
   59.5396   32.3171   47.4742 H   0  0  0  0  0  0  0  0  0  0  0  0
   57.8405   30.6440   46.4120 H   0  0  0  0  0  0  0  0  0  0  0  0
   57.2452   32.2188   47.1365 H   0  0  0  0  0  0  0  0  0  0  0  0
   56.9260   29.4158   42.3601 H   0  0  0  0  0  0  0  0  0  0  0  0
   57.9470   27.1290   42.4464 H   0  0  0  0  0  0  0  0  0  0  0  0
   60.1917   26.1602   48.2681 H   0  0  0  0  0  0  0  0  0  0  0  0
   61.6300   27.2052   50.0110 H   0  0  0  0  0  0  0  0  0  0  0  0
  1  2  1  0
  2  3  2  0
  3  4  1  0
  4  5  1  0
  4  6  1  0
  6  7  1  0
  6  8  2  0
  8  9  1  0
  9 10  1  0
 10 11  2  0
 10 12  1  0
 12 13  2  0
 13 14  1  0
 14 15  2  0
 15 16  1  0
 16 17  2  3
 17 18  1  0
 18 19  2  0
 19 20  1  0
 20 21  1  0
 21 22  1  0
 22 23  1  0
 23 24  1  0
 24 25  1  0
 25 26  2  0
 25 27  1  0
 27 28  1  0
 28 29  1  0
 28 30  1  0
 28 31  1  0
 24 32  1  0
 32 33  1  0
 19 34  1  0
 34 35  2  0
 35 36  1  0
 15 37  1  0
 37 38  2  0
  8  2  1  0
 38 12  1  0
 36 17  1  0
 33 21  1  0
  1 39  1  0
  1 40  1  0
  1 41  1  0
  5 42  1  0
  5 43  1  0
  5 44  1  0
  7 45  1  0
  7 46  1  0
  7 47  1  0
  9 48  1  0
 13 49  1  0
 14 50  1  0
 21 51  1  0
 22 52  1  0
 22 53  1  0
 23 54  1  0
 23 55  1  0
 29 56  1  0
 29 57  1  0
 29 58  1  0
 30 59  1  0
 30 60  1  0
 30 61  1  0
 31 62  1  0
 31 63  1  0
 31 64  1  0
 32 65  1  0
 32 66  1  0
 33 67  1  0
 33 68  1  0
 34 69  1  0
 35 70  1  0
 37 71  1  0
 38 72  1  0
M  CHG  1  36  -1
M  END
>  <UniqueID>  (9) 
9

>  <SMILES>  (9) 
Cc1nn(C)c(C)c1NC(=O)c1ccc(N=c2nc(OC3CCN(C(=O)OC(C)(C)C)CC3)cc[n-]2)cc1

>  <Energy>  (9) 
111.80372740845145

>  <Genealogy>  (9) 
Cc1nn(C)c(C)c1NC(=O)c1ccc(N=c2nc(OC3CCN(C(=O)OC(C)(C)C)CC3)cc[n-]2)cc1 (protonated)
Cc1nn(C)c(C)c1NC(=O)c1ccc(N=c2nc(OC3CCN(C(=O)OC(C)(C)C)CC3)cc[n-]2)cc1 (3D coordinates assigned)
Cc1nn(C)c(C)c1NC(=O)c1ccc(N=c2nc(OC3CCN(C(=O)OC(C)(C)C)CC3)cc[n-]2)cc1 (nonaromatic ring conformer: 111.80372740845145 kcal/mol)

>  <smiles>  (9) 
Cc1nn(C)c(C)c1NC(=O)c1ccc(N=c2nc(OC3CCN(C(=O)OC(C)(C)C)CC3)cc[nH]2)cc1

>  <score_type>  (9) 
oracle

>  <origin>  (9) 
adg

>  <m_score__min__energy>  (9) 
-10.6

>  <m_primary>  (9) 
energy

$$$$
9:0
     RDKit          3D

 43 45  0  0  0  0  0  0  0  0999 V2000
   62.2160   33.9350   48.4630 C   0  0  0  0  0  0  0  0  0  0  0  0
   61.0350   33.8660   47.8320 C   0  0  0  0  0  0  0  0  0  0  0  0
   61.0410   34.1770   46.5100 N   0  0  0  0  0  0  0  0  0  0  0  0
   59.9830   33.9620   45.6940 C   0  0  0  0  0  0  0  0  0  0  0  0
   58.8280   33.3410   46.1780 C   0  0  0  0  0  0  0  0  0  0  0  0
   57.7050   33.0600   45.2430 C   0  0  0  0  0  0  0  0  0  0  0  0
   57.2390   33.9710   44.5060 O   0  0  0  0  0  0  0  0  0  0  0  0
   57.1510   31.7400   45.1670 N   0  0  0  0  0  0  0  0  0  0  0  0
   57.6860   30.6820   44.3150 C   0  0  0  0  0  0  0  0  0  0  0  0
   58.7000   29.8210   45.0780 C   0  0  0  0  0  0  0  0  0  0  0  0
   58.1790   28.4250   45.3020 C   0  0  0  0  0  0  0  0  0  0  0  0
   59.0640   27.3340   45.3470 C   0  0  0  0  0  0  0  0  0  0  0  0
   58.5840   26.0460   45.5970 C   0  0  0  0  0  0  0  0  0  0  0  0
   57.2180   25.8360   45.8090 C   0  0  0  0  0  0  0  0  0  0  0  0
   56.3310   26.9170   45.7760 C   0  0  0  0  0  0  0  0  0  0  0  0
   54.9750   26.7080   45.9920 O   0  0  0  0  0  0  0  0  0  0  0  0
   56.8090   28.2080   45.5270 C   0  0  0  0  0  0  0  0  0  0  0  0
   58.7590   33.0340   47.5550 C   0  0  0  0  0  0  0  0  0  0  0  0
   57.7190   32.4830   48.0140 O   0  0  0  0  0  0  0  0  0  0  0  0
   59.8320   33.3700   48.4300 C   0  0  0  0  0  0  0  0  0  0  0  0
   59.6420   33.2230   49.7720 C   0  0  0  0  0  0  0  0  0  0  0  0
   58.9020   32.1290   50.4390 C   0  0  0  0  0  0  0  0  0  0  0  0
   57.8050   32.3960   51.2740 C   0  0  0  0  0  0  0  0  0  0  0  0
   57.1010   31.3330   51.8460 C   0  0  0  0  0  0  0  0  0  0  0  0
   57.4640   30.0510   51.5740 N   0  0  0  0  0  0  0  0  0  0  0  0
   58.5050   29.7650   50.7480 C   0  0  0  0  0  0  0  0  0  0  0  0
   59.2340   30.7980   50.1560 C   0  0  0  0  0  0  0  0  0  0  0  0
   62.2818   33.6959   49.5347 H   0  0  0  0  0  0  0  0  0  0  0  0
   63.1191   34.2307   47.9090 H   0  0  0  0  0  0  0  0  0  0  0  0
   60.0323   34.2784   44.6416 H   0  0  0  0  0  0  0  0  0  0  0  0
   56.8585   30.0437   43.9718 H   0  0  0  0  0  0  0  0  0  0  0  0
   58.1958   31.1466   43.4581 H   0  0  0  0  0  0  0  0  0  0  0  0
   59.6320   29.7659   44.4963 H   0  0  0  0  0  0  0  0  0  0  0  0
   58.8786   30.2850   46.0592 H   0  0  0  0  0  0  0  0  0  0  0  0
   60.1399   27.4951   45.1846 H   0  0  0  0  0  0  0  0  0  0  0  0
   59.2816   25.1960   45.6271 H   0  0  0  0  0  0  0  0  0  0  0  0
   56.8409   24.8208   46.0017 H   0  0  0  0  0  0  0  0  0  0  0  0
   56.1095   29.0567   45.5073 H   0  0  0  0  0  0  0  0  0  0  0  0
   60.0819   33.9931   50.4227 H   0  0  0  0  0  0  0  0  0  0  0  0
   57.5022   33.4340   51.4763 H   0  0  0  0  0  0  0  0  0  0  0  0
   56.2526   31.5334   52.5168 H   0  0  0  0  0  0  0  0  0  0  0  0
   58.7735   28.7176   50.5457 H   0  0  0  0  0  0  0  0  0  0  0  0
   60.0639   30.5681   49.4716 H   0  0  0  0  0  0  0  0  0  0  0  0
  1  2  2  0
  2  3  1  0
  3  4  1  0
  4  5  2  0
  5  6  1  0
  6  7  2  0
  6  8  1  0
  8  9  1  0
  9 10  1  0
 10 11  1  0
 11 12  2  0
 12 13  1  0
 13 14  2  0
 14 15  1  0
 15 16  1  0
 15 17  2  0
  5 18  1  0
 18 19  2  0
 18 20  1  0
 20 21  2  3
 21 22  1  0
 22 23  2  0
 23 24  1  0
 24 25  2  0
 25 26  1  0
 26 27  2  0
 20  2  1  0
 27 22  1  0
 17 11  1  0
  1 28  1  0
  1 29  1  0
  4 30  1  0
  9 31  1  0
  9 32  1  0
 10 33  1  0
 10 34  1  0
 12 35  1  0
 13 36  1  0
 14 37  1  0
 17 38  1  0
 21 39  1  0
 23 40  1  0
 24 41  1  0
 26 42  1  0
 27 43  1  0
M  CHG  3   3  -1   8  -1  16  -1
M  END
>  <UniqueID>  (10) 
10

>  <SMILES>  (10) 
C=c1[n-]cc(C(=O)[N-]CCc2cccc([O-])c2)c(=O)c1=Cc1ccncc1

>  <Energy>  (10) 
68.5600568671642

>  <Genealogy>  (10) 
C=c1[n-]cc(C(=O)[N-]CCc2cccc([O-])c2)c(=O)c1=Cc1ccncc1 (protonated)
C=c1[n-]cc(C(=O)[N-]CCc2cccc([O-])c2)c(=O)c1=Cc1ccncc1 (3D coordinates assigned)
C=c1[n-]cc(C(=O)[N-]CCc2cccc([O-])c2)c(=O)c1=Cc1ccncc1 (optimized conformer: 68.5600568671642 kcal/mol)

>  <smiles>  (10) 
C=c1[nH]cc(C(=O)NCCc2cccc(O)c2)c(=O)c1=Cc1ccncc1

>  <score_type>  (10) 
oracle

>  <origin>  (10) 
adg

>  <m_score__min__energy>  (10) 
-14.44

>  <m_primary>  (10) 
energy

$$$$
10:0
     RDKit          3D

 57 60  0  0  0  0  0  0  0  0999 V2000
   57.3690   32.4430   40.4590 N   0  0  0  0  0  0  0  0  0  0  0  0
   57.3580   31.9840   41.5220 C   0  0  0  0  0  0  0  0  0  0  0  0
   57.3420   31.4140   42.8430 C   0  0  0  0  0  0  0  0  0  0  0  0
   57.2290   30.0270   43.0070 C   0  0  0  0  0  0  0  0  0  0  0  0
   57.2090   29.4740   44.2900 C   0  0  0  0  0  0  0  0  0  0  0  0
   57.3050   30.3000   45.4130 C   0  0  0  0  0  0  0  0  0  0  0  0
   57.4320   31.6910   45.2600 C   0  0  0  0  0  0  0  0  0  0  0  0
   57.5080   32.5850   46.4670 C   0  0  0  0  0  0  0  0  0  0  0  0
   58.7360   33.3810   46.4340 N   0  0  0  0  0  0  0  0  0  0  0  0
   58.9050   34.5690   45.6810 C   0  0  0  0  0  0  0  0  0  0  0  0
   58.1300   34.9120   44.7490 O   0  0  0  0  0  0  0  0  0  0  0  0
   60.0950   35.3430   46.0830 C   0  0  0  0  0  0  0  0  0  0  0  0
   60.5300   34.6470   47.3800 C   0  0  0  0  0  0  0  0  0  0  0  0
   59.8150   33.2750   47.4090 C   0  0  2  0  0  0  0  0  0  0  0  0
   60.7510   32.0880   47.0780 C   0  0  0  0  0  0  0  0  0  0  0  0
   60.3920   30.8520   47.8080 N   0  0  0  0  0  0  0  0  0  0  0  0
   60.3600   30.8860   49.1760 C   0  0  0  0  0  0  0  0  0  0  0  0
   59.9900   29.7650   49.9130 C   0  0  0  0  0  0  0  0  0  0  0  0
   59.6680   28.5860   49.2510 C   0  0  0  0  0  0  0  0  0  0  0  0
   59.7360   28.5230   47.8540 C   0  0  0  0  0  0  0  0  0  0  0  0
   59.4230   27.2470   47.1640 C   0  0  0  0  0  0  0  0  0  0  0  0
   60.4540   26.4430   46.6650 C   0  0  0  0  0  0  0  0  0  0  0  0
   60.1660   25.2470   46.0100 C   0  0  0  0  0  0  0  0  0  0  0  0
   58.8360   24.8130   45.8400 C   0  0  0  0  0  0  0  0  0  0  0  0
   58.5840   23.5060   45.1100 C   0  0  0  0  0  0  0  0  0  0  0  0
   57.7080   22.7090   45.8210 F   0  0  0  0  0  0  0  0  0  0  0  0
   59.7540   22.7840   44.9410 F   0  0  0  0  0  0  0  0  0  0  0  0
   58.0580   23.7710   43.8580 F   0  0  0  0  0  0  0  0  0  0  0  0
   57.7810   25.6510   46.3020 C   0  0  0  0  0  0  0  0  0  0  0  0
   56.0630   25.2560   46.0890 S   0  0  0  0  0  0  0  0  0  0  0  0
   55.1410   26.7160   46.0080 N   0  0  0  0  0  0  0  0  0  0  0  0
   55.8690   24.4890   44.8110 O   0  0  0  0  0  0  0  0  0  0  0  0
   55.5680   24.4040   47.2230 O   0  0  0  0  0  0  0  0  0  0  0  0
   58.0930   26.8470   46.9710 C   0  0  0  0  0  0  0  0  0  0  0  0
   60.1060   29.6830   47.1390 C   0  0  0  0  0  0  0  0  0  0  0  0
   60.1650   29.6410   45.8790 O   0  0  0  0  0  0  0  0  0  0  0  0
   57.4410   32.2450   43.9680 C   0  0  0  0  0  0  0  0  0  0  0  0
   57.1560   29.3733   42.1253 H   0  0  0  0  0  0  0  0  0  0  0  0
   57.1174   28.3851   44.4164 H   0  0  0  0  0  0  0  0  0  0  0  0
   57.2811   29.8596   46.4207 H   0  0  0  0  0  0  0  0  0  0  0  0
   56.6388   33.2591   46.4744 H   0  0  0  0  0  0  0  0  0  0  0  0
   57.5100   31.9621   47.3737 H   0  0  0  0  0  0  0  0  0  0  0  0
   60.8832   35.2841   45.3180 H   0  0  0  0  0  0  0  0  0  0  0  0
   59.8937   36.4168   46.2110 H   0  0  0  0  0  0  0  0  0  0  0  0
   61.6209   34.5063   47.3874 H   0  0  0  0  0  0  0  0  0  0  0  0
   60.2653   35.2501   48.2610 H   0  0  0  0  0  0  0  0  0  0  0  0
   59.4472   33.0587   48.4229 H   0  0  0  0  0  0  0  0  0  0  0  0
   60.6947   31.8869   45.9980 H   0  0  0  0  0  0  0  0  0  0  0  0
   61.7674   32.3719   47.3885 H   0  0  0  0  0  0  0  0  0  0  0  0
   60.6310   31.8139   49.7010 H   0  0  0  0  0  0  0  0  0  0  0  0
   59.9527   29.8116   51.0114 H   0  0  0  0  0  0  0  0  0  0  0  0
   59.3591   27.7005   49.8259 H   0  0  0  0  0  0  0  0  0  0  0  0
   61.5005   26.7576   46.7908 H   0  0  0  0  0  0  0  0  0  0  0  0
   60.9901   24.6319   45.6194 H   0  0  0  0  0  0  0  0  0  0  0  0
   55.5550   27.2970   45.2470 H   0  0  0  0  0  0  0  0  0  0  0  0
   57.2783   27.4813   47.3504 H   0  0  0  0  0  0  0  0  0  0  0  0
   57.5260   33.3341   43.8392 H   0  0  0  0  0  0  0  0  0  0  0  0
  1  2  3  0
  2  3  1  0
  3  4  2  0
  4  5  1  0
  5  6  2  0
  6  7  1  0
  7  8  1  0
  8  9  1  0
  9 10  1  0
 10 11  2  0
 10 12  1  0
 12 13  1  0
 13 14  1  0
 14 15  1  0
 15 16  1  0
 16 17  1  0
 17 18  2  0
 18 19  1  0
 19 20  2  0
 20 21  1  0
 21 22  2  0
 22 23  1  0
 23 24  2  0
 24 25  1  0
 25 26  1  0
 25 27  1  0
 25 28  1  0
 24 29  1  0
 29 30  1  0
 30 31  1  0
 30 32  2  0
 30 33  2  0
 29 34  2  0
 20 35  1  0
 35 36  2  0
  7 37  2  0
 37  3  1  0
 14  9  1  0
 35 16  1  0
 34 21  1  0
  4 38  1  0
  5 39  1  0
  6 40  1  0
  8 41  1  0
  8 42  1  0
 12 43  1  0
 12 44  1  0
 13 45  1  0
 13 46  1  0
 14 47  1  1
 15 48  1  0
 15 49  1  0
 17 50  1  0
 18 51  1  0
 19 52  1  0
 22 53  1  0
 23 54  1  0
 31 55  1  0
 34 56  1  0
 37 57  1  0
M  CHG  1  31  -1
M  END
>  <UniqueID>  (11) 
11

>  <SMILES>  (11) 
N#Cc1cccc(CN2C(=O)CC[C@@H]2Cn2cccc(-c3ccc(C(F)(F)F)c(S([NH-])(=O)=O)c3)c2=O)c1

>  <Energy>  (11) 
77.38809543700391

>  <Genealogy>  (11) 
N#Cc1cccc(CN2C(=O)CCC2Cn2cccc(-c3ccc(C(F)(F)F)c(S([NH-])(=O)=O)c3)c2=O)c1 (protonated)
N#Cc1cccc(CN2C(=O)CC[C@@H]2Cn2cccc(-c3ccc(C(F)(F)F)c(S([NH-])(=O)=O)c3)c2=O)c1 (chirality)
N#Cc1cccc(CN2C(=O)CC[C@@H]2Cn2cccc(-c3ccc(C(F)(F)F)c(S([NH-])(=O)=O)c3)c2=O)c1 (3D coordinates assigned)
N#Cc1cccc(CN2C(=O)CC[C@@H]2Cn2cccc(-c3ccc(C(F)(F)F)c(S([NH-])(=O)=O)c3)c2=O)c1 (nonaromatic ring conformer: 77.38809543700391 kcal/mol)

>  <smiles>  (11) 
N#Cc1cccc(CN2C(=O)CCC2Cn2cccc(-c3ccc(C(F)(F)F)c(S(N)(=O)=O)c3)c2=O)c1

>  <score_type>  (11) 
oracle

>  <origin>  (11) 
adg

>  <m_score__min__energy>  (11) 
-12.890000000000001

>  <m_primary>  (11) 
energy

$$$$
11:0
     RDKit          3D

 42 44  0  0  0  0  0  0  0  0999 V2000
   59.2530   31.0590   45.6250 O   0  0  0  0  0  0  0  0  0  0  0  0
   58.0250   30.7830   45.5440 C   0  0  0  0  0  0  0  0  0  0  0  0
   57.0680   31.8250   45.3030 N   0  0  0  0  0  0  0  0  0  0  0  0
   57.4670   33.2050   45.0380 C   0  0  0  0  0  0  0  0  0  0  0  0
   58.5280   33.6360   46.0160 C   0  0  0  0  0  0  0  0  0  0  0  0
   59.7460   34.1670   45.5530 C   0  0  0  0  0  0  0  0  0  0  0  0
   60.7150   34.6020   46.4620 C   0  0  0  0  0  0  0  0  0  0  0  0
   60.4780   34.5140   47.8360 C   0  0  0  0  0  0  0  0  0  0  0  0
   61.4190   34.9380   48.7150 F   0  0  0  0  0  0  0  0  0  0  0  0
   59.2690   33.9930   48.3040 C   0  0  0  0  0  0  0  0  0  0  0  0
   58.2950   33.5550   47.4010 C   0  0  0  0  0  0  0  0  0  0  0  0
   57.1230   33.0600   47.8740 F   0  0  0  0  0  0  0  0  0  0  0  0
   57.5850   29.3780   45.6900 C   0  0  0  0  0  0  0  0  0  0  0  0
   58.4130   28.4200   46.3220 C   0  0  0  0  0  0  0  0  0  0  0  0
   59.7530   28.7630   46.7300 N   0  0  0  0  0  0  0  0  0  0  0  0
   60.1940   28.7840   48.1250 C   0  0  0  0  0  0  0  0  0  0  0  0
   61.0670   29.9780   48.3770 C   0  0  0  0  0  0  0  0  0  0  0  0
   61.3730   30.3720   49.6880 C   0  0  0  0  0  0  0  0  0  0  0  0
   62.2160   31.4660   49.8940 C   0  0  0  0  0  0  0  0  0  0  0  0
   62.7450   32.1510   48.7980 C   0  0  0  0  0  0  0  0  0  0  0  0
   62.4220   31.7280   47.5060 C   0  0  0  0  0  0  0  0  0  0  0  0
   61.6000   30.6610   47.3250 N   0  0  0  0  0  0  0  0  0  0  0  0
   57.9290   27.1130   46.5000 C   0  0  0  0  0  0  0  0  0  0  0  0
   56.6540   26.7770   46.0480 C   0  0  0  0  0  0  0  0  0  0  0  0
   55.8790   27.7100   45.4400 N   0  0  0  0  0  0  0  0  0  0  0  0
   56.3030   28.9860   45.2520 C   0  0  0  0  0  0  0  0  0  0  0  0
   55.5270   29.8150   44.7060 O   0  0  0  0  0  0  0  0  0  0  0  0
   56.0530   31.5830   45.2420 H   0  0  0  0  0  0  0  0  0  0  0  0
   57.8644   33.2784   44.0149 H   0  0  0  0  0  0  0  0  0  0  0  0
   56.5900   33.8598   45.1478 H   0  0  0  0  0  0  0  0  0  0  0  0
   59.9364   34.2401   44.4721 H   0  0  0  0  0  0  0  0  0  0  0  0
   61.6662   35.0145   46.0945 H   0  0  0  0  0  0  0  0  0  0  0  0
   59.0827   33.9271   49.3861 H   0  0  0  0  0  0  0  0  0  0  0  0
   60.4390   29.0860   46.0100 H   0  0  0  0  0  0  0  0  0  0  0  0
   59.3139   28.8325   48.7831 H   0  0  0  0  0  0  0  0  0  0  0  0
   60.7695   27.8697   48.3322 H   0  0  0  0  0  0  0  0  0  0  0  0
   60.9532   29.8248   50.5450 H   0  0  0  0  0  0  0  0  0  0  0  0
   62.4627   31.7873   50.9167 H   0  0  0  0  0  0  0  0  0  0  0  0
   63.4091   33.0146   48.9502 H   0  0  0  0  0  0  0  0  0  0  0  0
   62.8333   32.2590   46.6349 H   0  0  0  0  0  0  0  0  0  0  0  0
   58.5552   26.3563   46.9952 H   0  0  0  0  0  0  0  0  0  0  0  0
   56.2754   25.7533   46.1845 H   0  0  0  0  0  0  0  0  0  0  0  0
  1  2  2  0
  2  3  1  0
  3  4  1  0
  4  5  1  0
  5  6  2  0
  6  7  1  0
  7  8  2  0
  8  9  1  0
  8 10  1  0
 10 11  2  0
 11 12  1  0
  2 13  1  0
 13 14  2  0
 14 15  1  0
 15 16  1  0
 16 17  1  0
 17 18  2  0
 18 19  1  0
 19 20  2  0
 20 21  1  0
 21 22  2  0
 14 23  1  0
 23 24  2  0
 24 25  1  0
 25 26  1  0
 26 27  2  0
 11  5  1  0
 26 13  1  0
 22 17  1  0
  3 28  1  0
  4 29  1  0
  4 30  1  0
  6 31  1  0
  7 32  1  0
 10 33  1  0
 15 34  1  0
 16 35  1  0
 16 36  1  0
 18 37  1  0
 19 38  1  0
 20 39  1  0
 21 40  1  0
 23 41  1  0
 24 42  1  0
M  CHG  1  25  -1
M  END
>  <UniqueID>  (12) 
12

>  <SMILES>  (12) 
O=C(NCc1ccc(F)cc1F)c1c(NCc2ccccn2)cc[n-]c1=O

>  <Energy>  (12) 
50.21473424844512

>  <Genealogy>  (12) 
O=C(NCc1ccc(F)cc1F)c1c(NCc2ccccn2)cc[n-]c1=O (protonated)
O=C(NCc1ccc(F)cc1F)c1c(NCc2ccccn2)cc[n-]c1=O (3D coordinates assigned)
O=C(NCc1ccc(F)cc1F)c1c(NCc2ccccn2)cc[n-]c1=O (optimized conformer: 50.21473424844512 kcal/mol)

>  <smiles>  (12) 
O=C(NCc1ccc(F)cc1F)c1c(NCc2ccccn2)cc[nH]c1=O

>  <score_type>  (12) 
oracle

>  <origin>  (12) 
adg

>  <m_score__min__energy>  (12) 
-9.4000000000000004

>  <m_primary>  (12) 
energy

$$$$
12:0
     RDKit          3D

 55 58  0  0  0  0  0  0  0  0999 V2000
   55.1450   28.9650   44.8710 O   0  0  0  0  0  0  0  0  0  0  0  0
   56.5130   29.1310   45.0690 C   0  0  0  0  0  0  0  0  0  0  0  0
   57.1120   30.3540   44.7500 C   0  0  0  0  0  0  0  0  0  0  0  0
   58.4850   30.5350   44.9470 C   0  0  0  0  0  0  0  0  0  0  0  0
   59.2740   29.4890   45.4520 C   0  0  0  0  0  0  0  0  0  0  0  0
   60.7410   29.6900   45.6990 C   0  0  0  0  0  0  0  0  0  0  0  0
   60.9790   29.7880   47.1520 N   0  0  0  0  0  0  0  0  0  0  0  0
   60.6800   31.1090   47.7450 C   0  0  0  0  0  0  0  0  0  0  0  0
   61.2010   32.2720   46.8590 C   0  0  0  0  0  0  0  0  0  0  0  0
   59.9710   33.0160   46.4980 C   0  0  0  0  0  0  0  0  0  0  0  0
   59.8850   34.1090   45.6330 C   0  0  0  0  0  0  0  0  0  0  0  0
   58.6260   34.6850   45.4010 C   0  0  0  0  0  0  0  0  0  0  0  0
   57.4810   34.1660   46.0360 C   0  0  0  0  0  0  0  0  0  0  0  0
   57.5900   33.0700   46.9060 C   0  0  0  0  0  0  0  0  0  0  0  0
   58.8520   32.5080   47.1200 C   0  0  0  0  0  0  0  0  0  0  0  0
   59.1650   31.3520   47.9940 C   0  0  0  0  0  0  0  0  0  0  0  0
   58.6660   28.2690   45.7840 C   0  0  0  0  0  0  0  0  0  0  0  0
   57.2920   28.0860   45.5880 C   0  0  0  0  0  0  0  0  0  0  0  0
   56.6940   26.8270   45.9430 C   0  0  0  0  0  0  0  0  0  0  0  0
   56.1850   25.7850   46.2750 C   0  0  0  0  0  0  0  0  0  0  0  0
   55.5440   24.5320   46.6810 C   0  0  0  0  0  0  0  0  0  0  0  0
   54.6290   23.9530   45.5780 C   0  0  0  0  0  0  0  0  0  0  0  0
   55.2650   22.9890   44.6420 N   0  0  0  0  0  0  0  0  0  0  0  0
   55.8050   21.7810   45.2980 C   0  0  0  0  0  0  0  0  0  0  0  0
   56.6610   20.9510   44.3160 C   0  0  0  0  0  0  0  0  0  0  0  0
   56.2480   21.1990   42.9870 O   0  0  0  0  0  0  0  0  0  0  0  0
   56.6050   22.5210   42.6120 C   0  0  0  0  0  0  0  0  0  0  0  0
   56.2070   23.5760   43.6730 C   0  0  0  0  0  0  0  0  0  0  0  0
   56.5026   31.1746   44.3436 H   0  0  0  0  0  0  0  0  0  0  0  0
   58.9493   31.5024   44.7049 H   0  0  0  0  0  0  0  0  0  0  0  0
   61.3031   28.8372   45.2907 H   0  0  0  0  0  0  0  0  0  0  0  0
   61.0756   30.6148   45.2063 H   0  0  0  0  0  0  0  0  0  0  0  0
   60.3900   29.0670   47.6330 H   0  0  0  0  0  0  0  0  0  0  0  0
   61.2011   31.0945   48.7136 H   0  0  0  0  0  0  0  0  0  0  0  0
   61.8962   32.9126   47.4214 H   0  0  0  0  0  0  0  0  0  0  0  0
   61.7606   31.9206   45.9796 H   0  0  0  0  0  0  0  0  0  0  0  0
   60.7848   34.5101   45.1438 H   0  0  0  0  0  0  0  0  0  0  0  0
   58.5334   35.5446   44.7209 H   0  0  0  0  0  0  0  0  0  0  0  0
   56.4973   34.6215   45.8494 H   0  0  0  0  0  0  0  0  0  0  0  0
   56.7010   32.6618   47.4089 H   0  0  0  0  0  0  0  0  0  0  0  0
   58.9739   31.5942   49.0499 H   0  0  0  0  0  0  0  0  0  0  0  0
   58.5474   30.4687   47.7739 H   0  0  0  0  0  0  0  0  0  0  0  0
   59.2725   27.4514   46.2008 H   0  0  0  0  0  0  0  0  0  0  0  0
   56.3262   23.7945   46.9141 H   0  0  0  0  0  0  0  0  0  0  0  0
   54.9166   24.7457   47.5589 H   0  0  0  0  0  0  0  0  0  0  0  0
   53.7908   23.4394   46.0716 H   0  0  0  0  0  0  0  0  0  0  0  0
   54.3299   24.8124   44.9600 H   0  0  0  0  0  0  0  0  0  0  0  0
   56.4295   22.0842   46.1513 H   0  0  0  0  0  0  0  0  0  0  0  0
   54.9620   21.1610   45.6371 H   0  0  0  0  0  0  0  0  0  0  0  0
   57.7187   21.2319   44.4273 H   0  0  0  0  0  0  0  0  0  0  0  0
   56.5338   19.8817   44.5404 H   0  0  0  0  0  0  0  0  0  0  0  0
   57.6946   22.5627   42.4670 H   0  0  0  0  0  0  0  0  0  0  0  0
   56.0597   22.7606   41.6872 H   0  0  0  0  0  0  0  0  0  0  0  0
   57.1086   23.9172   44.2029 H   0  0  0  0  0  0  0  0  0  0  0  0
   55.7235   24.4270   43.1709 H   0  0  0  0  0  0  0  0  0  0  0  0
  1  2  1  0
  2  3  2  0
  3  4  1  0
  4  5  2  0
  5  6  1  0
  6  7  1  0
  7  8  1  0
  8  9  1  0
  9 10  1  0
 10 11  2  0
 11 12  1  0
 12 13  2  0
 13 14  1  0
 14 15  2  0
 15 16  1  0
  5 17  1  0
 17 18  2  0
 18 19  1  0
 19 20  3  0
 20 21  1  0
 21 22  1  0
 22 23  1  0
 23 24  1  0
 24 25  1  0
 25 26  1  0
 26 27  1  0
 27 28  1  0
 18  2  1  0
 28 23  1  0
 16  8  1  0
 15 10  1  0
  3 29  1  0
  4 30  1  0
  6 31  1  0
  6 32  1  0
  7 33  1  0
  8 34  1  0
  9 35  1  0
  9 36  1  0
 11 37  1  0
 12 38  1  0
 13 39  1  0
 14 40  1  0
 16 41  1  0
 16 42  1  0
 17 43  1  0
 21 44  1  0
 21 45  1  0
 22 46  1  0
 22 47  1  0
 24 48  1  0
 24 49  1  0
 25 50  1  0
 25 51  1  0
 27 52  1  0
 27 53  1  0
 28 54  1  0
 28 55  1  0
M  CHG  1   1  -1
M  END
>  <UniqueID>  (13) 
13

>  <SMILES>  (13) 
[O-]c1ccc(CNC2Cc3ccccc3C2)cc1C#CCCN1CCOCC1

>  <Energy>  (13) 
76.82775381538856

>  <Genealogy>  (13) 
[O-]c1ccc(CNC2Cc3ccccc3C2)cc1C#CCCN1CCOCC1 (protonated)
[O-]c1ccc(CNC2Cc3ccccc3C2)cc1C#CCCN1CCOCC1 (3D coordinates assigned)
[O-]c1ccc(CNC2Cc3ccccc3C2)cc1C#CCCN1CCOCC1 (nonaromatic ring conformer: 76.82775381538856 kcal/mol)

>  <smiles>  (13) 
Oc1ccc(CNC2Cc3ccccc3C2)cc1C#CCCN1CCOCC1

>  <score_type>  (13) 
oracle

>  <origin>  (13) 
adg

>  <m_score__min__energy>  (13) 
-12.029999999999999

>  <m_primary>  (13) 
energy

$$$$
13:0
     RDKit          3D

 33 35  0  0  0  0  0  0  0  0999 V2000
   66.2100   32.3720   50.4770 C   0  0  0  0  0  0  0  0  0  0  0  0
   65.6130   33.0680   49.3880 O   0  0  0  0  0  0  0  0  0  0  0  0
   64.2370   33.0850   49.1150 C   0  0  0  0  0  0  0  0  0  0  0  0
   63.2900   33.4980   50.0710 C   0  0  0  0  0  0  0  0  0  0  0  0
   61.9350   33.4940   49.7420 C   0  0  0  0  0  0  0  0  0  0  0  0
   61.5180   33.0890   48.4670 C   0  0  0  0  0  0  0  0  0  0  0  0
   60.0790   33.0810   48.1190 C   0  0  0  0  0  0  0  0  0  0  0  0
   59.1800   32.5730   48.9050 N   0  0  0  0  0  0  0  0  0  0  0  0
   57.9530   32.6070   48.2820 O   0  0  0  0  0  0  0  0  0  0  0  0
   58.0230   33.4220   47.1320 C   0  0  2  0  0  0  0  0  0  0  0  0
   57.1540   33.0700   45.9260 C   0  0  0  0  0  0  0  0  0  0  0  0
   57.7080   33.7580   44.6340 C   0  0  0  0  0  0  0  0  0  0  0  0
   58.7620   34.8940   44.8640 C   0  0  0  0  0  0  0  0  0  0  0  0
   59.7770   34.5450   45.9410 C   0  0  0  0  0  0  0  0  0  0  0  0
   60.7600   35.2410   46.1350 O   0  0  0  0  0  0  0  0  0  0  0  0
   59.4910   33.3250   46.7610 C   0  0  1  0  0  0  0  0  0  0  0  0
   62.4920   32.6760   47.5460 C   0  0  0  0  0  0  0  0  0  0  0  0
   63.8100   32.6870   47.8850 N   0  0  0  0  0  0  0  0  0  0  0  0
   65.8473   32.7949   51.4255 H   0  0  0  0  0  0  0  0  0  0  0  0
   65.9403   31.3069   50.4235 H   0  0  0  0  0  0  0  0  0  0  0  0
   67.3037   32.4764   50.4235 H   0  0  0  0  0  0  0  0  0  0  0  0
   63.6165   33.8216   51.0704 H   0  0  0  0  0  0  0  0  0  0  0  0
   61.1899   33.8103   50.4869 H   0  0  0  0  0  0  0  0  0  0  0  0
   57.6248   34.4165   47.3819 H   0  0  0  0  0  0  0  0  0  0  0  0
   57.1553   31.9791   45.7845 H   0  0  0  0  0  0  0  0  0  0  0  0
   56.1296   33.4266   46.1085 H   0  0  0  0  0  0  0  0  0  0  0  0
   58.1791   32.9813   44.0137 H   0  0  0  0  0  0  0  0  0  0  0  0
   56.8426   34.2452   44.1609 H   0  0  0  0  0  0  0  0  0  0  0  0
   59.2980   35.0728   43.9202 H   0  0  0  0  0  0  0  0  0  0  0  0
   58.2173   35.7891   45.1990 H   0  0  0  0  0  0  0  0  0  0  0  0
   59.9091   32.5465   46.1059 H   0  0  0  0  0  0  0  0  0  0  0  0
   62.1885   32.3410   46.5432 H   0  0  0  0  0  0  0  0  0  0  0  0
   64.5140   32.3740   47.1780 H   0  0  0  0  0  0  0  0  0  0  0  0
  1  2  1  0
  2  3  1  0
  3  4  2  0
  4  5  1  0
  5  6  2  0
  6  7  1  0
  7  8  2  0
  8  9  1  0
  9 10  1  0
 10 11  1  0
 11 12  1  0
 12 13  1  0
 13 14  1  0
 14 15  2  0
 14 16  1  0
  6 17  1  0
 17 18  2  0
 18  3  1  0
 16  7  1  0
 16 10  1  0
  1 19  1  0
  1 20  1  0
  1 21  1  0
  4 22  1  0
  5 23  1  0
 10 24  1  1
 11 25  1  0
 11 26  1  0
 12 27  1  0
 12 28  1  0
 13 29  1  0
 13 30  1  0
 16 31  1  6
 17 32  1  0
 18 33  1  0
M  CHG  1  18   1
M  END
>  <UniqueID>  (14) 
14

>  <SMILES>  (14) 
COc1ccc(C2=NO[C@@H]3CCCC(=O)[C@@H]23)c[nH+]1

>  <Energy>  (14) 
70.28744518981226

>  <Genealogy>  (14) 
COc1ccc(C2=NOC3CCCC(=O)C23)c[nH+]1 (protonated)
COc1ccc(C2=NO[C@@H]3CCCC(=O)[C@@H]23)c[nH+]1 (chirality)
COc1ccc(C2=NO[C@@H]3CCCC(=O)[C@@H]23)c[nH+]1 (3D coordinates assigned)
COc1ccc(C2=NO[C@@H]3CCCC(=O)[C@@H]23)c[nH+]1 (nonaromatic ring conformer: 70.28744518981226 kcal/mol)

>  <smiles>  (14) 
COc1ccc(C2=NOC3CCCC(=O)C23)cn1

>  <score_type>  (14) 
oracle

>  <origin>  (14) 
adg

>  <m_score__min__energy>  (14) 
-5.0899999999999999

>  <m_primary>  (14) 
energy

$$$$
14:0
     RDKit          3D

 52 54  0  0  0  0  0  0  0  0999 V2000
   57.1292   34.6621   44.5415 H   0  0  0  0  0  0  0  0  0  0  0  0
   57.4110   33.7560   45.0980 C   0  0  0  0  0  0  0  0  0  0  0  0
   57.3780   32.4650   44.3740 C   0  0  0  0  0  0  0  0  0  0  0  0
   58.1410   32.2920   43.3870 O   0  0  0  0  0  0  0  0  0  0  0  0
   56.4560   31.4490   44.7560 N   0  0  0  0  0  0  0  0  0  0  0  0
   56.2870   29.9200   43.9770 S   0  0  0  0  0  0  0  0  0  0  0  0
   56.4950   30.0800   42.4980 O   0  0  0  0  0  0  0  0  0  0  0  0
   54.9250   29.3450   44.2390 O   0  0  0  0  0  0  0  0  0  0  0  0
   57.5140   28.8650   44.6680 C   0  0  0  0  0  0  0  0  0  0  0  0
   58.8780   29.1690   44.5500 C   0  0  0  0  0  0  0  0  0  0  0  0
   59.1986   30.0323   43.9485 H   0  0  0  0  0  0  0  0  0  0  0  0
   59.8300   28.3760   45.1960 C   0  0  0  0  0  0  0  0  0  0  0  0
   60.8986   28.6171   45.0959 H   0  0  0  0  0  0  0  0  0  0  0  0
   59.4340   27.2710   45.9740 C   0  0  0  0  0  0  0  0  0  0  0  0
   60.3570   26.4720   46.6620 O   0  0  0  0  0  0  0  0  0  0  0  0
   60.8160   26.7290   47.9840 C   0  0  0  0  0  0  0  0  0  0  0  0
   60.7136   25.8165   48.5896 H   0  0  0  0  0  0  0  0  0  0  0  0
   61.8721   27.0344   47.9480 H   0  0  0  0  0  0  0  0  0  0  0  0
   59.9880   27.8510   48.6130 C   0  0  0  0  0  0  0  0  0  0  0  0
   58.9614   27.7696   48.2263 H   0  0  0  0  0  0  0  0  0  0  0  0
   60.0709   27.7080   49.7005 H   0  0  0  0  0  0  0  0  0  0  0  0
   60.4830   29.2890   48.3420 C   0  0  0  0  0  0  0  0  0  0  0  0
   61.4562   28.9511   47.9564 H   0  0  0  0  0  0  0  0  0  0  0  0
   59.3520   30.2400   47.9550 C   0  0  0  0  0  0  0  0  0  0  0  0
   59.4871   30.9429   47.1197 H   0  0  0  0  0  0  0  0  0  0  0  0
   58.2937   30.1167   47.6816 H   0  0  0  0  0  0  0  0  0  0  0  0
   60.1030   30.4550   49.2540 C   0  0  0  0  0  0  0  0  0  0  0  0
   60.7825   31.3135   49.3601 H   0  0  0  0  0  0  0  0  0  0  0  0
   59.8142   30.5518   50.3110 H   0  0  0  0  0  0  0  0  0  0  0  0
   58.0690   26.9650   46.0760 C   0  0  0  0  0  0  0  0  0  0  0  0
   57.5330   25.6040   47.0540 Cl  0  0  0  0  0  0  0  0  0  0  0  0
   57.1160   27.7580   45.4290 C   0  0  0  0  0  0  0  0  0  0  0  0
   56.0477   27.5112   45.5181 H   0  0  0  0  0  0  0  0  0  0  0  0
   57.7610   33.8980   46.3870 C   0  0  0  0  0  0  0  0  0  0  0  0
   56.9607   34.0253   47.1308 H   0  0  0  0  0  0  0  0  0  0  0  0
   59.1550   33.8930   46.8610 C   0  0  0  0  0  0  0  0  0  0  0  0
   59.4240   33.9010   48.2390 C   0  0  0  0  0  0  0  0  0  0  0  0
   58.5984   33.9873   48.9608 H   0  0  0  0  0  0  0  0  0  0  0  0
   60.7440   33.7990   48.6930 C   0  0  0  0  0  0  0  0  0  0  0  0
   60.9503   33.7735   49.7732 H   0  0  0  0  0  0  0  0  0  0  0  0
   61.8070   33.7290   47.7770 C   0  0  0  0  0  0  0  0  0  0  0  0
   63.1930   33.6100   48.2670 C   0  0  0  0  0  0  0  0  0  0  0  0
   64.1190   33.3970   47.4390 O   0  0  0  0  0  0  0  0  0  0  0  0
   63.5190   33.6850   49.6640 N   0  0  0  0  0  0  0  0  0  0  0  0
   64.6660   33.0410   50.2930 C   0  0  0  0  0  0  0  0  0  0  0  0
   64.5643   33.0981   51.3868 H   0  0  0  0  0  0  0  0  0  0  0  0
   64.7098   31.9864   49.9834 H   0  0  0  0  0  0  0  0  0  0  0  0
   65.5892   33.5527   49.9834 H   0  0  0  0  0  0  0  0  0  0  0  0
   61.5330   33.7290   46.3990 C   0  0  0  0  0  0  0  0  0  0  0  0
   62.3598   33.6576   45.6770 H   0  0  0  0  0  0  0  0  0  0  0  0
   60.2180   33.8190   45.9410 C   0  0  0  0  0  0  0  0  0  0  0  0
   60.0119   33.8321   44.8606 H   0  0  0  0  0  0  0  0  0  0  0  0
  1  2  1  0
  2  3  1  0
  3  4  2  0
  3  5  1  0
  5  6  1  0
  6  7  2  0
  6  8  2  0
  6  9  1  0
  9 10  2  0
 10 11  1  0
 10 12  1  0
 12 13  1  0
 12 14  2  0
 14 15  1  0
 15 16  1  0
 16 17  1  0
 16 18  1  0
 16 19  1  0
 19 20  1  0
 19 21  1  0
 19 22  1  0
 22 23  1  0
 22 24  1  0
 24 25  1  0
 24 26  1  0
 24 27  1  0
 27 28  1  0
 27 29  1  0
 14 30  1  0
 30 31  1  0
 30 32  2  0
 32 33  1  0
  2 34  2  0
 34 35  1  0
 34 36  1  0
 36 37  2  0
 37 38  1  0
 37 39  1  0
 39 40  1  0
 39 41  2  0
 41 42  1  0
 42 43  2  0
 42 44  1  0
 44 45  1  0
 45 46  1  0
 45 47  1  0
 45 48  1  0
 41 49  1  0
 49 50  1  0
 49 51  2  0
 51 52  1  0
 32  9  1  0
 51 36  1  0
 27 22  1  0
M  CHG  2   5  -1  44  -1
M  END
>  <UniqueID>  (15) 
15

>  <SMILES>  (15) 
C[N-]C(=O)c1ccc(/C=C\C(=O)[N-]S(=O)(=O)c2ccc(OCCC3CC3)c(Cl)c2)cc1

>  <Energy>  (15) 
329.1778468231828

>  <Genealogy>  (15) 
C[N-]C(=O)c1ccc(C=CC(=O)[N-]S(=O)(=O)c2ccc(OCCC3CC3)c(Cl)c2)cc1 (protonated)
C[N-]C(=O)c1ccc(/C=C\C(=O)[N-]S(=O)(=O)c2ccc(OCCC3CC3)c(Cl)c2)cc1 (cis-trans isomerization)
C[N-]C(=O)c1ccc(/C=C\C(=O)[N-]S(=O)(=O)c2ccc(OCCC3CC3)c(Cl)c2)cc1 (3D coordinates assigned)
C[N-]C(=O)c1ccc(/C=C\C(=O)[N-]S(=O)(=O)c2ccc(OCCC3CC3)c(Cl)c2)cc1 (nonaromatic ring conformer: 329.1778468231828 kcal/mol)

>  <smiles>  (15) 
CNC(=O)c1ccc(C=CC(=O)NS(=O)(=O)c2ccc(OCCC3CC3)c(Cl)c2)cc1

>  <score_type>  (15) 
oracle

>  <origin>  (15) 
adg

>  <m_score__min__energy>  (15) 
-12.24

>  <m_primary>  (15) 
energy

$$$$
15:0
     RDKit          3D

 60 63  0  0  0  0  0  0  0  0999 V2000
   54.7529   24.0208   46.3336 H   0  0  0  0  0  0  0  0  0  0  0  0
   55.5620   24.7650   46.3740 C   0  0  0  0  0  0  0  0  0  0  0  0
   55.3810   25.9940   45.8230 N   0  0  0  0  0  0  0  0  0  0  0  0
   56.3480   26.9540   45.8450 C   0  0  0  0  0  0  0  0  0  0  0  0
   56.0540   28.2230   45.2350 N   0  0  0  0  0  0  0  0  0  0  0  0
   56.6520   29.3650   45.4130 C   0  0  0  0  0  0  0  0  0  0  0  0
   57.5960   29.4690   46.3770 N   0  0  0  0  0  0  0  0  0  0  0  0
   58.2900   30.6200   46.5920 C   0  0  0  0  0  0  0  0  0  0  0  0
   59.3290   30.6350   47.6810 C   0  0  0  0  0  0  0  0  0  0  0  0
   59.1990   31.7730   48.4550 F   0  0  0  0  0  0  0  0  0  0  0  0
   59.1800   29.5300   48.5010 F   0  0  0  0  0  0  0  0  0  0  0  0
   60.5910   30.6010   47.1190 F   0  0  0  0  0  0  0  0  0  0  0  0
   58.0260   31.7420   45.7780 C   0  0  0  0  0  0  0  0  0  0  0  0
   58.7370   33.0310   45.9170 C   0  0  0  0  0  0  0  0  0  0  0  0
   58.0850   34.1090   45.9570 O   0  0  0  0  0  0  0  0  0  0  0  0
   60.1680   33.0550   46.0300 N   0  0  0  0  0  0  0  0  0  0  0  0
   60.7080   32.1750   45.8550 H   0  0  0  0  0  0  0  0  0  0  0  0
   60.9050   34.2560   46.4100 C   0  0  0  0  0  0  0  0  0  0  0  0
   61.4361   34.6515   45.5317 H   0  0  0  0  0  0  0  0  0  0  0  0
   60.1992   35.0104   46.7878 H   0  0  0  0  0  0  0  0  0  0  0  0
   61.8990   33.9250   47.4860 C   0  0  0  0  0  0  0  0  0  0  0  0
   63.1650   33.4160   47.1560 C   0  0  0  0  0  0  0  0  0  0  0  0
   63.4214   33.2202   46.1044 H   0  0  0  0  0  0  0  0  0  0  0  0
   64.0990   33.1580   48.1610 C   0  0  0  0  0  0  0  0  0  0  0  0
   65.0896   32.7572   47.8999 H   0  0  0  0  0  0  0  0  0  0  0  0
   63.7780   33.4080   49.4990 C   0  0  0  0  0  0  0  0  0  0  0  0
   64.5154   33.2013   50.2887 H   0  0  0  0  0  0  0  0  0  0  0  0
   62.5220   33.9200   49.8340 C   0  0  0  0  0  0  0  0  0  0  0  0
   62.2704   34.1159   50.8868 H   0  0  0  0  0  0  0  0  0  0  0  0
   61.5860   34.1830   48.8310 C   0  0  0  0  0  0  0  0  0  0  0  0
   60.6003   34.5936   49.0953 H   0  0  0  0  0  0  0  0  0  0  0  0
   57.0440   31.6100   44.7900 C   0  0  0  0  0  0  0  0  0  0  0  0
   56.7987   32.4676   44.1464 H   0  0  0  0  0  0  0  0  0  0  0  0
   56.3930   30.4340   44.6200 N   0  0  0  0  0  0  0  0  0  0  0  0
   57.6000   26.6530   46.4140 C   0  0  0  0  0  0  0  0  0  0  0  0
   58.4111   27.3958   46.3955 H   0  0  0  0  0  0  0  0  0  0  0  0
   57.8030   25.4010   47.0030 C   0  0  0  0  0  0  0  0  0  0  0  0
   58.7691   25.1672   47.4743 H   0  0  0  0  0  0  0  0  0  0  0  0
   56.7800   24.4430   46.9950 C   0  0  0  0  0  0  0  0  0  0  0  0
   56.9760   23.1110   47.6690 C   0  0  0  0  0  0  0  0  0  0  0  0
   56.0295   22.7958   48.1324 H   0  0  0  0  0  0  0  0  0  0  0  0
   57.7567   23.2098   48.4376 H   0  0  0  0  0  0  0  0  0  0  0  0
   57.3980   22.0950   46.6820 N   0  0  0  0  0  0  0  0  0  0  0  0
   56.2400   21.4100   46.0490 C   0  0  0  0  0  0  0  0  0  0  0  0
   55.3600   21.5334   46.6974 H   0  0  0  0  0  0  0  0  0  0  0  0
   56.5066   20.3500   45.9249 H   0  0  0  0  0  0  0  0  0  0  0  0
   55.9090   21.9740   44.6560 C   0  0  0  0  0  0  0  0  0  0  0  0
   55.6070   23.0261   44.7645 H   0  0  0  0  0  0  0  0  0  0  0  0
   55.0997   21.3613   44.2321 H   0  0  0  0  0  0  0  0  0  0  0  0
   57.0620   21.9040   43.7230 N   0  0  0  0  0  0  0  0  0  0  0  0
   56.9270   20.7760   42.7860 C   0  0  0  0  0  0  0  0  0  0  0  0
   56.8150   19.8399   43.3528 H   0  0  0  0  0  0  0  0  0  0  0  0
   56.0408   20.9295   42.1527 H   0  0  0  0  0  0  0  0  0  0  0  0
   57.8244   20.7160   42.1527 H   0  0  0  0  0  0  0  0  0  0  0  0
   58.3750   21.8510   44.4080 C   0  0  0  0  0  0  0  0  0  0  0  0
   59.1471   22.2581   43.7386 H   0  0  0  0  0  0  0  0  0  0  0  0
   58.5980   20.8037   44.6597 H   0  0  0  0  0  0  0  0  0  0  0  0
   58.3500   22.6720   45.7040 C   0  0  0  0  0  0  0  0  0  0  0  0
   58.0449   23.7027   45.4706 H   0  0  0  0  0  0  0  0  0  0  0  0
   59.3571   22.6580   46.1463 H   0  0  0  0  0  0  0  0  0  0  0  0
  1  2  1  0
  2  3  2  0
  3  4  1  0
  4  5  1  0
  5  6  2  0
  6  7  1  0
  7  8  2  0
  8  9  1  0
  9 10  1  0
  9 11  1  0
  9 12  1  0
  8 13  1  0
 13 14  1  0
 14 15  2  0
 14 16  1  0
 16 17  1  0
 16 18  1  0
 18 19  1  0
 18 20  1  0
 18 21  1  0
 21 22  2  0
 22 23  1  0
 22 24  1  0
 24 25  1  0
 24 26  2  0
 26 27  1  0
 26 28  1  0
 28 29  1  0
 28 30  2  0
 30 31  1  0
 13 32  2  0
 32 33  1  0
 32 34  1  0
  4 35  2  0
 35 36  1  0
 35 37  1  0
 37 38  1  0
 37 39  2  0
 39 40  1  0
 40 41  1  0
 40 42  1  0
 40 43  1  0
 43 44  1  0
 44 45  1  0
 44 46  1  0
 44 47  1  0
 47 48  1  0
 47 49  1  0
 47 50  1  0
 50 51  1  0
 51 52  1  0
 51 53  1  0
 51 54  1  0
 50 55  1  0
 55 56  1  0
 55 57  1  0
 55 58  1  0
 58 59  1  0
 58 60  1  0
 39  2  1  0
 58 43  1  0
 34  6  1  0
 30 21  1  0
M  CHG  1  34  -1
M  END
>  <UniqueID>  (16) 
16

>  <SMILES>  (16) 
CN1CCN(Cc2ccc(/N=c3/nc(C(F)(F)F)c(C(=O)NCc4ccccc4)c[n-]3)nc2)CC1

>  <Energy>  (16) 
87.25254602899815

>  <Genealogy>  (16) 
CN1CCN(Cc2ccc(N=c3nc(C(F)(F)F)c(C(=O)NCc4ccccc4)c[n-]3)nc2)CC1 (protonated)
CN1CCN(Cc2ccc(/N=c3/nc(C(F)(F)F)c(C(=O)NCc4ccccc4)c[n-]3)nc2)CC1 (cis-trans isomerization)
CN1CCN(Cc2ccc(/N=c3/nc(C(F)(F)F)c(C(=O)NCc4ccccc4)c[n-]3)nc2)CC1 (3D coordinates assigned)
CN1CCN(Cc2ccc(/N=c3/nc(C(F)(F)F)c(C(=O)NCc4ccccc4)c[n-]3)nc2)CC1 (nonaromatic ring conformer: 87.25254602899815 kcal/mol)

>  <smiles>  (16) 
CN1CCN(Cc2ccc(N=c3nc(C(F)(F)F)c(C(=O)NCc4ccccc4)c[nH]3)nc2)CC1

>  <score_type>  (16) 
oracle

>  <origin>  (16) 
adg

>  <m_score__min__energy>  (16) 
-9.9499999999999993

>  <m_primary>  (16) 
energy

$$$$
16:0
     RDKit          3D

 48 50  0  0  0  0  0  0  0  0999 V2000
   57.2290   31.2450   42.6760 O   0  0  0  0  0  0  0  0  0  0  0  0
   56.6540   30.8350   43.7190 C   0  0  0  0  0  0  0  0  0  0  0  0
   56.0210   29.4760   43.7200 C   0  0  0  0  0  0  0  0  0  0  0  0
   55.9780   28.8940   45.0610 N   0  0  0  0  0  0  0  0  0  0  0  0
   57.0810   28.3490   45.8020 C   0  0  0  0  0  0  0  0  0  0  0  0
   58.0000   29.1280   46.1700 O   0  0  0  0  0  0  0  0  0  0  0  0
   57.1920   26.9110   46.1300 C   0  0  0  0  0  0  0  0  0  0  0  0
   58.4420   26.2760   46.1650 C   0  0  0  0  0  0  0  0  0  0  0  0
   58.5290   24.9130   46.4550 C   0  0  0  0  0  0  0  0  0  0  0  0
   57.3580   24.1870   46.6840 C   0  0  0  0  0  0  0  0  0  0  0  0
   57.4170   22.9550   46.9360 O   0  0  0  0  0  0  0  0  0  0  0  0
   56.1510   24.8070   46.6240 N   0  0  0  0  0  0  0  0  0  0  0  0
   56.0390   26.1340   46.3480 C   0  0  0  0  0  0  0  0  0  0  0  0
   54.7750   26.7100   46.2930 O   0  0  0  0  0  0  0  0  0  0  0  0
   56.6370   31.6440   44.9010 N   0  0  0  0  0  0  0  0  0  0  0  0
   57.6360   32.5970   45.2890 C   0  0  0  0  0  0  0  0  0  0  0  0
   57.8120   33.7430   44.5040 C   0  0  0  0  0  0  0  0  0  0  0  0
   58.7180   34.7320   44.8920 C   0  0  0  0  0  0  0  0  0  0  0  0
   59.4430   34.5930   46.0770 C   0  0  0  0  0  0  0  0  0  0  0  0
   59.2670   33.4580   46.8830 C   0  0  0  0  0  0  0  0  0  0  0  0
   60.1400   33.3070   48.4110 S   0  0  0  0  0  0  0  0  0  0  0  0
   59.2380   33.7280   49.5390 O   0  0  0  0  0  0  0  0  0  0  0  0
   61.3240   34.2340   48.3930 O   0  0  0  0  0  0  0  0  0  0  0  0
   60.6680   31.6640   48.6980 N   0  0  0  0  0  0  0  0  0  0  0  0
   60.6060   30.8690   47.4510 C   0  0  0  0  0  0  0  0  0  0  0  0
   60.6440   29.3670   47.7420 C   0  0  0  0  0  0  0  0  0  0  0  0
   59.4210   28.9370   48.5720 C   0  0  0  0  0  0  0  0  0  0  0  0
   58.8620   30.0760   49.4440 C   0  0  0  0  0  0  0  0  0  0  0  0
   59.9710   31.0570   49.8580 C   0  0  0  0  0  0  0  0  0  0  0  0
   58.3680   32.4590   46.4820 C   0  0  0  0  0  0  0  0  0  0  0  0
   54.9935   29.5623   43.3369 H   0  0  0  0  0  0  0  0  0  0  0  0
   56.6286   28.8171   43.0824 H   0  0  0  0  0  0  0  0  0  0  0  0
   59.3564   26.8533   45.9634 H   0  0  0  0  0  0  0  0  0  0  0  0
   59.5093   24.4163   46.5026 H   0  0  0  0  0  0  0  0  0  0  0  0
   57.2333   33.8648   43.5765 H   0  0  0  0  0  0  0  0  0  0  0  0
   58.8609   35.6227   44.2626 H   0  0  0  0  0  0  0  0  0  0  0  0
   60.1543   35.3756   46.3797 H   0  0  0  0  0  0  0  0  0  0  0  0
   59.6719   31.1071   46.9212 H   0  0  0  0  0  0  0  0  0  0  0  0
   61.4809   31.1238   46.8349 H   0  0  0  0  0  0  0  0  0  0  0  0
   60.6451   28.8157   46.7901 H   0  0  0  0  0  0  0  0  0  0  0  0
   61.5549   29.1434   48.3167 H   0  0  0  0  0  0  0  0  0  0  0  0
   58.6308   28.6000   47.8850 H   0  0  0  0  0  0  0  0  0  0  0  0
   59.7453   28.1314   49.2471 H   0  0  0  0  0  0  0  0  0  0  0  0
   58.0957   30.6212   48.8735 H   0  0  0  0  0  0  0  0  0  0  0  0
   58.4291   29.6363   50.3546 H   0  0  0  0  0  0  0  0  0  0  0  0
   59.5214   31.8621   50.4578 H   0  0  0  0  0  0  0  0  0  0  0  0
   60.7180   30.4878   50.4307 H   0  0  0  0  0  0  0  0  0  0  0  0
   58.2346   31.5619   47.1044 H   0  0  0  0  0  0  0  0  0  0  0  0
  1  2  2  0
  2  3  1  0
  3  4  1  0
  4  5  1  0
  5  6  2  0
  5  7  1  0
  7  8  1  0
  8  9  2  0
  9 10  1  0
 10 11  2  0
 10 12  1  0
 12 13  1  0
 13 14  1  0
  2 15  1  0
 15 16  1  0
 16 17  2  0
 17 18  1  0
 18 19  2  0
 19 20  1  0
 20 21  1  0
 21 22  2  0
 21 23  2  0
 21 24  1  0
 24 25  1  0
 25 26  1  0
 26 27  1  0
 27 28  1  0
 28 29  1  0
 20 30  2  0
 13  7  2  0
 30 16  1  0
 29 24  1  0
  3 31  1  0
  3 32  1  0
  8 33  1  0
  9 34  1  0
 17 35  1  0
 18 36  1  0
 19 37  1  0
 25 38  1  0
 25 39  1  0
 26 40  1  0
 26 41  1  0
 27 42  1  0
 27 43  1  0
 28 44  1  0
 28 45  1  0
 29 46  1  0
 29 47  1  0
 30 48  1  0
M  CHG  4   4  -1  12  -1  14  -1  15  -1
M  END
>  <UniqueID>  (17) 
17

>  <SMILES>  (17) 
O=C(C[N-]C(=O)c1ccc(=O)[n-]c1[O-])[N-]c1cccc(S(=O)(=O)N2CCCCC2)c1

>  <Energy>  (17) 
60.644173889709975

>  <Genealogy>  (17) 
O=C(C[N-]C(=O)c1ccc(=O)[n-]c1[O-])[N-]c1cccc(S(=O)(=O)N2CCCCC2)c1 (protonated)
O=C(C[N-]C(=O)c1ccc(=O)[n-]c1[O-])[N-]c1cccc(S(=O)(=O)N2CCCCC2)c1 (3D coordinates assigned)
O=C(C[N-]C(=O)c1ccc(=O)[n-]c1[O-])[N-]c1cccc(S(=O)(=O)N2CCCCC2)c1 (nonaromatic ring conformer: 60.644173889709975 kcal/mol)

>  <smiles>  (17) 
O=C(CNC(=O)c1ccc(=O)[nH]c1O)Nc1cccc(S(=O)(=O)N2CCCCC2)c1

>  <score_type>  (17) 
oracle

>  <origin>  (17) 
adg

>  <m_score__min__energy>  (17) 
-19.16

>  <m_primary>  (17) 
energy

$$$$
17:0
     RDKit          3D

 61 64  0  0  0  0  0  0  0  0999 V2000
   64.6020   31.6740   50.5810 C   0  0  0  0  0  0  0  0  0  0  0  0
   63.2440   32.1030   50.6430 O   0  0  0  0  0  0  0  0  0  0  0  0
   62.5550   32.7140   49.5830 C   0  0  0  0  0  0  0  0  0  0  0  0
   61.5560   33.6850   49.7870 C   0  0  0  0  0  0  0  0  0  0  0  0
   60.9110   34.2770   48.6950 C   0  0  0  0  0  0  0  0  0  0  0  0
   61.2520   33.9100   47.3850 C   0  0  0  0  0  0  0  0  0  0  0  0
   60.5900   34.5740   46.2040 C   0  0  0  0  0  0  0  0  0  0  0  0
   59.1330   34.3310   46.2210 N   0  0  0  0  0  0  0  0  0  0  0  0
   58.8350   32.9950   46.7840 C   0  0  0  0  0  0  0  0  0  0  0  0
   57.4040   32.5570   46.4530 C   0  0  0  0  0  0  0  0  0  0  0  0
   57.1540   32.4900   44.9930 N   0  0  0  0  0  0  0  0  0  0  0  0
   57.1070   30.8340   44.4370 S   0  0  0  0  0  0  0  0  0  0  0  0
   55.8200   30.1830   44.8630 O   0  0  0  0  0  0  0  0  0  0  0  0
   57.1910   30.7970   42.9340 O   0  0  0  0  0  0  0  0  0  0  0  0
   58.4560   29.9480   45.1430 C   0  0  0  0  0  0  0  0  0  0  0  0
   59.4400   29.4010   44.3110 C   0  0  0  0  0  0  0  0  0  0  0  0
   60.4870   28.6570   44.8610 C   0  0  0  0  0  0  0  0  0  0  0  0
   60.5460   28.4370   46.2420 C   0  0  0  0  0  0  0  0  0  0  0  0
   59.5520   28.9630   47.0880 C   0  0  0  0  0  0  0  0  0  0  0  0
   59.6190   28.7290   48.5520 C   0  0  0  0  0  0  0  0  0  0  0  0
   59.6300   27.5430   48.9820 O   0  0  0  0  0  0  0  0  0  0  0  0
   59.6830   29.8190   49.4930 N   0  0  0  0  0  0  0  0  0  0  0  0
   60.5370   29.6910   50.6810 C   0  0  0  0  0  0  0  0  0  0  0  0
   60.3920   30.9300   51.5610 C   0  0  0  0  0  0  0  0  0  0  0  0
   59.0220   31.1860   51.7800 O   0  0  0  0  0  0  0  0  0  0  0  0
   58.3710   31.6310   50.5890 C   0  0  0  0  0  0  0  0  0  0  0  0
   58.9560   31.0750   49.2660 C   0  0  0  0  0  0  0  0  0  0  0  0
   58.5220   29.7400   46.5300 C   0  0  0  0  0  0  0  0  0  0  0  0
   58.1230   33.2620   44.1860 C   0  0  0  0  0  0  0  0  0  0  0  0
   58.5100   34.5680   44.8910 C   0  0  0  0  0  0  0  0  0  0  0  0
   62.2490   32.9420   47.1830 C   0  0  0  0  0  0  0  0  0  0  0  0
   62.8870   32.3460   48.2750 C   0  0  0  0  0  0  0  0  0  0  0  0
   64.9943   31.5501   51.6012 H   0  0  0  0  0  0  0  0  0  0  0  0
   64.6592   30.7140   50.0470 H   0  0  0  0  0  0  0  0  0  0  0  0
   65.2003   32.4269   50.0470 H   0  0  0  0  0  0  0  0  0  0  0  0
   61.2809   33.9800   50.8104 H   0  0  0  0  0  0  0  0  0  0  0  0
   60.1319   35.0347   48.8652 H   0  0  0  0  0  0  0  0  0  0  0  0
   60.7765   35.6572   46.2468 H   0  0  0  0  0  0  0  0  0  0  0  0
   61.0094   34.1523   45.2787 H   0  0  0  0  0  0  0  0  0  0  0  0
   59.5401   32.2633   46.3626 H   0  0  0  0  0  0  0  0  0  0  0  0
   58.9370   33.0489   47.8779 H   0  0  0  0  0  0  0  0  0  0  0  0
   57.2307   31.5610   46.8866 H   0  0  0  0  0  0  0  0  0  0  0  0
   56.7188   33.3068   46.8753 H   0  0  0  0  0  0  0  0  0  0  0  0
   59.3889   29.5570   43.2233 H   0  0  0  0  0  0  0  0  0  0  0  0
   61.2678   28.2426   44.2063 H   0  0  0  0  0  0  0  0  0  0  0  0
   61.3732   27.8502   46.6680 H   0  0  0  0  0  0  0  0  0  0  0  0
   60.2360   28.8005   51.2524 H   0  0  0  0  0  0  0  0  0  0  0  0
   61.5858   29.5925   50.3642 H   0  0  0  0  0  0  0  0  0  0  0  0
   60.8926   30.7571   52.5251 H   0  0  0  0  0  0  0  0  0  0  0  0
   60.8541   31.7942   51.0613 H   0  0  0  0  0  0  0  0  0  0  0  0
   57.3147   31.3296   50.6464 H   0  0  0  0  0  0  0  0  0  0  0  0
   58.5176   32.7205   50.5517 H   0  0  0  0  0  0  0  0  0  0  0  0
   58.1333   30.8907   48.5594 H   0  0  0  0  0  0  0  0  0  0  0  0
   59.6594   31.8157   48.8578 H   0  0  0  0  0  0  0  0  0  0  0  0
   57.7612   30.1889   47.1855 H   0  0  0  0  0  0  0  0  0  0  0  0
   59.0273   32.6548   44.0322 H   0  0  0  0  0  0  0  0  0  0  0  0
   57.6561   33.5100   43.2214 H   0  0  0  0  0  0  0  0  0  0  0  0
   59.2256   35.1128   44.2577 H   0  0  0  0  0  0  0  0  0  0  0  0
   57.5895   35.1488   45.0503 H   0  0  0  0  0  0  0  0  0  0  0  0
   62.5296   32.6510   46.1600 H   0  0  0  0  0  0  0  0  0  0  0  0
   63.6577   31.5801   48.1038 H   0  0  0  0  0  0  0  0  0  0  0  0
  1  2  1  0
  2  3  1  0
  3  4  2  0
  4  5  1  0
  5  6  2  0
  6  7  1  0
  7  8  1  0
  8  9  1  0
  9 10  1  0
 10 11  1  0
 11 12  1  0
 12 13  2  0
 12 14  2  0
 12 15  1  0
 15 16  2  0
 16 17  1  0
 17 18  2  0
 18 19  1  0
 19 20  1  0
 20 21  2  0
 20 22  1  0
 22 23  1  0
 23 24  1  0
 24 25  1  0
 25 26  1  0
 26 27  1  0
 19 28  2  0
 11 29  1  0
 29 30  1  0
  6 31  1  0
 31 32  2  0
 32  3  1  0
 30  8  1  0
 28 15  1  0
 27 22  1  0
  1 33  1  0
  1 34  1  0
  1 35  1  0
  4 36  1  0
  5 37  1  0
  7 38  1  0
  7 39  1  0
  9 40  1  0
  9 41  1  0
 10 42  1  0
 10 43  1  0
 16 44  1  0
 17 45  1  0
 18 46  1  0
 23 47  1  0
 23 48  1  0
 24 49  1  0
 24 50  1  0
 26 51  1  0
 26 52  1  0
 27 53  1  0
 27 54  1  0
 28 55  1  0
 29 56  1  0
 29 57  1  0
 30 58  1  0
 30 59  1  0
 31 60  1  0
 32 61  1  0
M  END
>  <UniqueID>  (18) 
18

>  <SMILES>  (18) 
COc1ccc(CN2CCN(S(=O)(=O)c3cccc(C(=O)N4CCOCC4)c3)CC2)cc1

>  <Energy>  (18) 
84.5177950896998

>  <Genealogy>  (18) 
COc1ccc(CN2CCN(S(=O)(=O)c3cccc(C(=O)N4CCOCC4)c3)CC2)cc1 (3D coordinates assigned)
COc1ccc(CN2CCN(S(=O)(=O)c3cccc(C(=O)N4CCOCC4)c3)CC2)cc1 (nonaromatic ring conformer: 84.5177950896998 kcal/mol)

>  <smiles>  (18) 
COc1ccc(CN2CCN(S(=O)(=O)c3cccc(C(=O)N4CCOCC4)c3)CC2)cc1

>  <score_type>  (18) 
oracle

>  <origin>  (18) 
adg

>  <m_score__min__energy>  (18) 
-10.49

>  <m_primary>  (18) 
energy

$$$$
18:0
     RDKit          3D

 71 74  0  0  0  0  0  0  0  0999 V2000
   58.6230   34.4360   45.2770 C   0  0  0  0  0  0  0  0  0  0  0  0
   59.5370   33.7070   46.2750 C   0  0  0  0  0  0  0  0  0  0  0  0
   59.5490   32.2360   46.0540 N   0  0  2  0  0  0  0  0  0  0  0  0
   58.2330   31.6310   46.3900 C   0  0  0  0  0  0  0  0  0  0  0  0
   57.5680   30.8610   45.2620 C   0  0  0  0  0  0  0  0  0  0  0  0
   56.4390   31.2290   44.8330 O   0  0  0  0  0  0  0  0  0  0  0  0
   58.1450   29.6790   44.6840 N   0  0  0  0  0  0  0  0  0  0  0  0
   58.2550   28.3440   45.2120 C   0  0  0  0  0  0  0  0  0  0  0  0
   59.5360   27.8490   45.5050 C   0  0  0  0  0  0  0  0  0  0  0  0
   59.7030   26.5460   45.9770 C   0  0  0  0  0  0  0  0  0  0  0  0
   58.5910   25.7170   46.1550 C   0  0  0  0  0  0  0  0  0  0  0  0
   57.3070   26.1850   45.8440 C   0  0  0  0  0  0  0  0  0  0  0  0
   55.9040   25.1440   46.0910 S   0  0  0  0  0  0  0  0  0  0  0  0
   55.9420   24.5860   47.4870 O   0  0  0  0  0  0  0  0  0  0  0  0
   54.6480   25.9590   45.9420 O   0  0  0  0  0  0  0  0  0  0  0  0
   55.9240   23.8270   44.9420 N   0  0  0  0  0  0  0  0  0  0  0  0
   56.5910   22.6490   45.5370 C   0  0  0  0  0  0  0  0  0  0  0  0
   56.9800   21.6230   44.4560 C   0  0  0  0  0  0  0  0  0  0  0  0
   56.2580   21.8480   43.2620 O   0  0  0  0  0  0  0  0  0  0  0  0
   56.6490   23.0860   42.6970 C   0  0  0  0  0  0  0  0  0  0  0  0
   56.6120   24.2470   43.7130 C   0  0  0  0  0  0  0  0  0  0  0  0
   57.1470   27.4860   45.3440 C   0  0  0  0  0  0  0  0  0  0  0  0
   60.6400   31.5510   46.7380 C   0  0  0  0  0  0  0  0  0  0  0  0
   60.9530   30.3710   46.4130 O   0  0  0  0  0  0  0  0  0  0  0  0
   61.4730   32.2360   47.7640 C   0  0  0  0  0  0  0  0  0  0  0  0
   60.9250   32.4990   49.0320 C   0  0  0  0  0  0  0  0  0  0  0  0
   61.6970   33.0890   50.0340 C   0  0  0  0  0  0  0  0  0  0  0  0
   63.0290   33.4300   49.7860 C   0  0  0  0  0  0  0  0  0  0  0  0
   64.0220   34.0860   51.0840 S   0  0  0  0  0  0  0  0  0  0  0  0
   63.6550   33.4000   52.3700 O   0  0  0  0  0  0  0  0  0  0  0  0
   63.7660   35.5610   51.2380 O   0  0  0  0  0  0  0  0  0  0  0  0
   65.7080   33.8060   50.7330 N   0  0  0  0  0  0  0  0  0  0  0  0
   66.5550   34.5900   51.6490 C   0  0  0  0  0  0  0  0  0  0  0  0
   68.0020   34.0600   51.6630 C   0  0  0  0  0  0  0  0  0  0  0  0
   68.2660   33.3080   50.4980 O   0  0  0  0  0  0  0  0  0  0  0  0
   67.4930   32.1180   50.5060 C   0  0  0  0  0  0  0  0  0  0  0  0
   66.0070   32.3700   50.8460 C   0  0  0  0  0  0  0  0  0  0  0  0
   63.5800   33.1910   48.5210 C   0  0  0  0  0  0  0  0  0  0  0  0
   62.8080   32.6050   47.5130 C   0  0  0  0  0  0  0  0  0  0  0  0
   57.8786   35.0297   45.8277 H   0  0  0  0  0  0  0  0  0  0  0  0
   59.2282   35.1021   44.6445 H   0  0  0  0  0  0  0  0  0  0  0  0
   58.1081   33.6978   44.6445 H   0  0  0  0  0  0  0  0  0  0  0  0
   60.5618   34.0906   46.1625 H   0  0  0  0  0  0  0  0  0  0  0  0
   59.1489   33.8935   47.2872 H   0  0  0  0  0  0  0  0  0  0  0  0
   59.6820   32.0920   45.0250 H   0  0  0  0  0  0  0  0  0  0  0  0
   58.3815   30.9396   47.2326 H   0  0  0  0  0  0  0  0  0  0  0  0
   57.5618   32.4707   46.6235 H   0  0  0  0  0  0  0  0  0  0  0  0
   60.4156   28.4937   45.3613 H   0  0  0  0  0  0  0  0  0  0  0  0
   60.7106   26.1708   46.2092 H   0  0  0  0  0  0  0  0  0  0  0  0
   58.7243   24.6952   46.5400 H   0  0  0  0  0  0  0  0  0  0  0  0
   57.4996   22.9785   46.0622 H   0  0  0  0  0  0  0  0  0  0  0  0
   55.8907   22.1690   46.2364 H   0  0  0  0  0  0  0  0  0  0  0  0
   58.0565   21.7105   44.2475 H   0  0  0  0  0  0  0  0  0  0  0  0
   56.7403   20.6153   44.8263 H   0  0  0  0  0  0  0  0  0  0  0  0
   57.6750   22.9882   42.3127 H   0  0  0  0  0  0  0  0  0  0  0  0
   55.9335   23.3246   41.8963 H   0  0  0  0  0  0  0  0  0  0  0  0
   57.6413   24.5479   43.9580 H   0  0  0  0  0  0  0  0  0  0  0  0
   56.0676   25.0937   43.2694 H   0  0  0  0  0  0  0  0  0  0  0  0
   56.1467   27.8387   45.0525 H   0  0  0  0  0  0  0  0  0  0  0  0
   59.8764   32.2369   49.2365 H   0  0  0  0  0  0  0  0  0  0  0  0
   61.2554   33.2861   51.0220 H   0  0  0  0  0  0  0  0  0  0  0  0
   66.5609   35.6401   51.3216 H   0  0  0  0  0  0  0  0  0  0  0  0
   66.1426   34.5022   52.6650 H   0  0  0  0  0  0  0  0  0  0  0  0
   68.6982   34.9103   51.7101 H   0  0  0  0  0  0  0  0  0  0  0  0
   68.1341   33.4116   52.5417 H   0  0  0  0  0  0  0  0  0  0  0  0
   67.5517   31.6544   49.5102 H   0  0  0  0  0  0  0  0  0  0  0  0
   67.9042   31.4619   51.2873 H   0  0  0  0  0  0  0  0  0  0  0  0
   65.3715   31.8082   50.1456 H   0  0  0  0  0  0  0  0  0  0  0  0
   65.8077   32.0368   51.8752 H   0  0  0  0  0  0  0  0  0  0  0  0
   64.6258   33.4657   48.3191 H   0  0  0  0  0  0  0  0  0  0  0  0
   63.2461   32.4315   46.5190 H   0  0  0  0  0  0  0  0  0  0  0  0
  1  2  1  0
  2  3  1  0
  3  4  1  0
  4  5  1  0
  5  6  2  0
  5  7  1  0
  7  8  1  0
  8  9  2  0
  9 10  1  0
 10 11  2  0
 11 12  1  0
 12 13  1  0
 13 14  2  0
 13 15  2  0
 13 16  1  0
 16 17  1  0
 17 18  1  0
 18 19  1  0
 19 20  1  0
 20 21  1  0
 12 22  2  0
  3 23  1  0
 23 24  2  0
 23 25  1  0
 25 26  2  0
 26 27  1  0
 27 28  2  0
 28 29  1  0
 29 30  2  0
 29 31  2  0
 29 32  1  0
 32 33  1  0
 33 34  1  0
 34 35  1  0
 35 36  1  0
 36 37  1  0
 28 38  1  0
 38 39  2  0
 22  8  1  0
 39 25  1  0
 21 16  1  0
 37 32  1  0
  1 40  1  0
  1 41  1  0
  1 42  1  0
  2 43  1  0
  2 44  1  0
  3 45  1  6
  4 46  1  0
  4 47  1  0
  9 48  1  0
 10 49  1  0
 11 50  1  0
 17 51  1  0
 17 52  1  0
 18 53  1  0
 18 54  1  0
 20 55  1  0
 20 56  1  0
 21 57  1  0
 21 58  1  0
 22 59  1  0
 26 60  1  0
 27 61  1  0
 33 62  1  0
 33 63  1  0
 34 64  1  0
 34 65  1  0
 36 66  1  0
 36 67  1  0
 37 68  1  0
 37 69  1  0
 38 70  1  0
 39 71  1  0
M  CHG  2   3   1   7  -1
M  END
>  <UniqueID>  (19) 
19

>  <SMILES>  (19) 
CC[N@H+](CC(=O)[N-]c1cccc(S(=O)(=O)N2CCOCC2)c1)C(=O)c1ccc(S(=O)(=O)N2CCOCC2)cc1

>  <Energy>  (19) 
103.00522183662449

>  <Genealogy>  (19) 
CC[NH+](CC(=O)[N-]c1cccc(S(=O)(=O)N2CCOCC2)c1)C(=O)c1ccc(S(=O)(=O)N2CCOCC2)cc1 (protonated)
CC[N@H+](CC(=O)[N-]c1cccc(S(=O)(=O)N2CCOCC2)c1)C(=O)c1ccc(S(=O)(=O)N2CCOCC2)cc1 (chirality)
CC[N@H+](CC(=O)[N-]c1cccc(S(=O)(=O)N2CCOCC2)c1)C(=O)c1ccc(S(=O)(=O)N2CCOCC2)cc1 (3D coordinates assigned)
CC[N@H+](CC(=O)[N-]c1cccc(S(=O)(=O)N2CCOCC2)c1)C(=O)c1ccc(S(=O)(=O)N2CCOCC2)cc1 (nonaromatic ring conformer: 103.00522183662449 kcal/mol)

>  <smiles>  (19) 
CCN(CC(=O)Nc1cccc(S(=O)(=O)N2CCOCC2)c1)C(=O)c1ccc(S(=O)(=O)N2CCOCC2)cc1

>  <score_type>  (19) 
oracle

>  <origin>  (19) 
adg

>  <m_score__min__energy>  (19) 
-12.51

>  <m_primary>  (19) 
energy

$$$$
19:0
     RDKit          3D

 49 52  0  0  0  0  0  0  0  0999 V2000
   55.2270   29.1030   44.8260 N   0  0  0  0  0  0  0  0  0  0  0  0
   56.4930   29.7170   45.0540 C   0  0  0  0  0  0  0  0  0  0  0  0
   57.1160   29.4590   46.1190 O   0  0  0  0  0  0  0  0  0  0  0  0
   57.0490   30.6750   44.0640 C   0  0  0  0  0  0  0  0  0  0  0  0
   56.5840   30.6240   42.7360 C   0  0  0  0  0  0  0  0  0  0  0  0
   57.0390   31.5380   41.7840 C   0  0  0  0  0  0  0  0  0  0  0  0
   57.9680   32.5130   42.1400 C   0  0  0  0  0  0  0  0  0  0  0  0
   58.4520   32.5730   43.4460 C   0  0  0  0  0  0  0  0  0  0  0  0
   58.0010   31.6650   44.4210 C   0  0  0  0  0  0  0  0  0  0  0  0
   58.5850   31.6930   45.7350 N   0  0  0  0  0  0  0  0  0  0  0  0
   58.7500   32.8970   46.4930 C   0  0  0  0  0  0  0  0  0  0  0  0
   58.1590   33.9560   46.1440 O   0  0  0  0  0  0  0  0  0  0  0  0
   59.5370   32.8720   47.6890 N   0  0  0  0  0  0  0  0  0  0  0  0
   60.9710   32.8540   47.7360 C   0  0  0  0  0  0  0  0  0  0  0  0
   61.6350   34.0010   48.1900 C   0  0  0  0  0  0  0  0  0  0  0  0
   63.0280   34.0310   48.2630 C   0  0  0  0  0  0  0  0  0  0  0  0
   63.7700   32.9090   47.8980 C   0  0  0  0  0  0  0  0  0  0  0  0
   63.1220   31.7460   47.4760 C   0  0  0  0  0  0  0  0  0  0  0  0
   61.7140   31.6970   47.4090 C   0  0  0  0  0  0  0  0  0  0  0  0
   61.0290   30.5220   47.0550 O   0  0  0  0  0  0  0  0  0  0  0  0
   60.3570   29.6480   47.9600 C   0  0  0  0  0  0  0  0  0  0  0  0
   59.6650   28.5460   47.2130 C   0  0  0  0  0  0  0  0  0  0  0  0
   59.1900   27.4150   47.8770 C   0  0  0  0  0  0  0  0  0  0  0  0
   58.5620   26.4090   47.1400 C   0  0  0  0  0  0  0  0  0  0  0  0
   58.1270   25.3920   47.7480 O   0  0  0  0  0  0  0  0  0  0  0  0
   58.4280   26.5300   45.7790 N   0  0  0  0  0  0  0  0  0  0  0  0
   57.8130   25.5480   45.0430 C   0  0  0  0  0  0  0  0  0  0  0  0
   57.6790   25.6710   43.6580 C   0  0  0  0  0  0  0  0  0  0  0  0
   58.1770   26.8020   43.0170 C   0  0  0  0  0  0  0  0  0  0  0  0
   58.8010   27.7980   43.7610 C   0  0  0  0  0  0  0  0  0  0  0  0
   58.9210   27.6530   45.1480 C   0  0  0  0  0  0  0  0  0  0  0  0
   59.5300   28.6320   45.8650 N   0  0  0  0  0  0  0  0  0  0  0  0
   54.4030   29.3310   45.4250 H   0  0  0  0  0  0  0  0  0  0  0  0
   55.8535   29.8548   42.4452 H   0  0  0  0  0  0  0  0  0  0  0  0
   56.6634   31.4882   40.7513 H   0  0  0  0  0  0  0  0  0  0  0  0
   58.3201   33.2364   41.3898 H   0  0  0  0  0  0  0  0  0  0  0  0
   59.1943   33.3383   43.7168 H   0  0  0  0  0  0  0  0  0  0  0  0
   58.9250   30.7990   46.1550 H   0  0  0  0  0  0  0  0  0  0  0  0
   61.0536   34.8849   48.4913 H   0  0  0  0  0  0  0  0  0  0  0  0
   63.5409   34.9406   48.6088 H   0  0  0  0  0  0  0  0  0  0  0  0
   64.8687   32.9396   47.9424 H   0  0  0  0  0  0  0  0  0  0  0  0
   63.7136   30.8625   47.1941 H   0  0  0  0  0  0  0  0  0  0  0  0
   61.0912   29.2101   48.6523 H   0  0  0  0  0  0  0  0  0  0  0  0
   59.6051   30.2250   48.5183 H   0  0  0  0  0  0  0  0  0  0  0  0
   59.3085   27.3170   48.9662 H   0  0  0  0  0  0  0  0  0  0  0  0
   57.4211   24.6538   45.5498 H   0  0  0  0  0  0  0  0  0  0  0  0
   57.1831   24.8791   43.0775 H   0  0  0  0  0  0  0  0  0  0  0  0
   58.0774   26.9076   41.9266 H   0  0  0  0  0  0  0  0  0  0  0  0
   59.1979   28.6945   43.2622 H   0  0  0  0  0  0  0  0  0  0  0  0
  1  2  1  0
  2  3  2  0
  2  4  1  0
  4  5  2  0
  5  6  1  0
  6  7  2  0
  7  8  1  0
  8  9  2  0
  9 10  1  0
 10 11  1  0
 11 12  2  0
 11 13  1  0
 13 14  1  0
 14 15  2  0
 15 16  1  0
 16 17  2  0
 17 18  1  0
 18 19  2  0
 19 20  1  0
 20 21  1  0
 21 22  1  0
 22 23  2  0
 23 24  1  0
 24 25  2  0
 24 26  1  0
 26 27  1  0
 27 28  2  0
 28 29  1  0
 29 30  2  0
 30 31  1  0
 31 32  2  0
  9  4  1  0
 19 14  1  0
 32 22  1  0
 31 26  1  0
  1 33  1  0
  5 34  1  0
  6 35  1  0
  7 36  1  0
  8 37  1  0
 10 38  1  0
 15 39  1  0
 16 40  1  0
 17 41  1  0
 18 42  1  0
 21 43  1  0
 21 44  1  0
 23 45  1  0
 27 46  1  0
 28 47  1  0
 29 48  1  0
 30 49  1  0
M  CHG  2   1  -1  13  -1
M  END
>  <UniqueID>  (20) 
20

>  <SMILES>  (20) 
[NH-]C(=O)c1ccccc1NC(=O)[N-]c1ccccc1OCc1cc(=O)n2ccccc2n1

>  <Energy>  (20) 
70.93211396439087

>  <Genealogy>  (20) 
[NH-]C(=O)c1ccccc1NC(=O)[N-]c1ccccc1OCc1cc(=O)n2ccccc2n1 (protonated)
[NH-]C(=O)c1ccccc1NC(=O)[N-]c1ccccc1OCc1cc(=O)n2ccccc2n1 (3D coordinates assigned)
[NH-]C(=O)c1ccccc1NC(=O)[N-]c1ccccc1OCc1cc(=O)n2ccccc2n1 (optimized conformer: 70.93211396439087 kcal/mol)

>  <smiles>  (20) 
NC(=O)c1ccccc1NC(=O)Nc1ccccc1OCc1cc(=O)n2ccccc2n1

>  <score_type>  (20) 
oracle

>  <origin>  (20) 
adg

>  <m_score__min__energy>  (20) 
-14.27

>  <m_primary>  (20) 
energy

$$$$
20:0
     RDKit          3D

 48 51  0  0  0  0  0  0  0  0999 V2000
   56.9990   31.1660   42.3890 C   0  0  0  0  0  0  0  0  0  0  0  0
   57.3010   31.4450   43.7900 N   0  0  0  0  0  0  0  0  0  0  0  0
   57.4120   32.6610   44.2920 N   0  0  0  0  0  0  0  0  0  0  0  0
   57.7540   32.5270   45.5840 C   0  0  0  0  0  0  0  0  0  0  0  0
   57.8630   31.2280   45.9400 N   0  0  0  0  0  0  0  0  0  0  0  0
   57.5580   30.5760   44.7940 C   0  0  0  0  0  0  0  0  0  0  0  0
   57.5650   29.0990   44.6870 C   0  0  0  0  0  0  0  0  0  0  0  0
   58.4020   28.4420   43.7810 C   0  0  0  0  0  0  0  0  0  0  0  0
   58.4010   27.0510   43.7020 C   0  0  0  0  0  0  0  0  0  0  0  0
   57.5490   26.2860   44.5100 C   0  0  0  0  0  0  0  0  0  0  0  0
   57.6670   24.8140   44.4350 C   0  0  0  0  0  0  0  0  0  0  0  0
   56.9750   24.1160   43.4340 C   0  0  0  0  0  0  0  0  0  0  0  0
   57.0760   22.7260   43.3480 C   0  0  0  0  0  0  0  0  0  0  0  0
   57.8700   22.0260   44.2570 C   0  0  0  0  0  0  0  0  0  0  0  0
   58.5720   22.7120   45.2490 C   0  0  0  0  0  0  0  0  0  0  0  0
   58.4840   24.1150   45.3460 C   0  0  0  0  0  0  0  0  0  0  0  0
   59.1980   24.8480   46.3120 O   0  0  0  0  0  0  0  0  0  0  0  0
   60.3420   25.6640   46.0580 C   0  0  0  0  0  0  0  0  0  0  0  0
   60.1470   27.0380   46.6380 C   0  0  0  0  0  0  0  0  0  0  0  0
   60.6850   28.1560   45.9810 C   0  0  0  0  0  0  0  0  0  0  0  0
   60.4970   29.4400   46.5040 C   0  0  0  0  0  0  0  0  0  0  0  0
   59.7790   29.6140   47.6910 C   0  0  0  0  0  0  0  0  0  0  0  0
   59.2530   28.5050   48.3580 C   0  0  0  0  0  0  0  0  0  0  0  0
   59.4370   27.2200   47.8370 C   0  0  0  0  0  0  0  0  0  0  0  0
   56.6460   26.9390   45.3920 C   0  0  0  0  0  0  0  0  0  0  0  0
   55.6430   26.2060   46.2150 C   0  0  0  0  0  0  0  0  0  0  0  0
   54.4080   26.3200   45.9920 O   0  0  0  0  0  0  0  0  0  0  0  0
   56.0580   25.4060   47.2770 O   0  0  0  0  0  0  0  0  0  0  0  0
   56.6780   28.3450   45.4710 C   0  0  0  0  0  0  0  0  0  0  0  0
   56.1922   30.4207   42.3292 H   0  0  0  0  0  0  0  0  0  0  0  0
   56.6792   32.0933   41.8912 H   0  0  0  0  0  0  0  0  0  0  0  0
   57.8981   30.7739   41.8912 H   0  0  0  0  0  0  0  0  0  0  0  0
   57.2790   33.5530   43.7650 H   0  0  0  0  0  0  0  0  0  0  0  0
   57.9245   33.3712   46.2684 H   0  0  0  0  0  0  0  0  0  0  0  0
   59.0654   29.0264   43.1265 H   0  0  0  0  0  0  0  0  0  0  0  0
   59.0776   26.5468   42.9964 H   0  0  0  0  0  0  0  0  0  0  0  0
   56.3506   24.6657   42.7143 H   0  0  0  0  0  0  0  0  0  0  0  0
   56.5293   22.1826   42.5632 H   0  0  0  0  0  0  0  0  0  0  0  0
   57.9428   20.9304   44.1915 H   0  0  0  0  0  0  0  0  0  0  0  0
   59.1984   22.1536   45.9602 H   0  0  0  0  0  0  0  0  0  0  0  0
   61.2273   25.1995   46.5168 H   0  0  0  0  0  0  0  0  0  0  0  0
   60.4817   25.7530   44.9705 H   0  0  0  0  0  0  0  0  0  0  0  0
   61.2569   28.0219   45.0509 H   0  0  0  0  0  0  0  0  0  0  0  0
   60.9143   30.3131   45.9810 H   0  0  0  0  0  0  0  0  0  0  0  0
   59.6283   30.6241   48.0996 H   0  0  0  0  0  0  0  0  0  0  0  0
   58.6930   28.6425   49.2948 H   0  0  0  0  0  0  0  0  0  0  0  0
   59.0246   26.3491   48.3675 H   0  0  0  0  0  0  0  0  0  0  0  0
   55.9945   28.8621   46.1605 H   0  0  0  0  0  0  0  0  0  0  0  0
  1  2  1  0
  2  3  1  0
  3  4  2  0
  4  5  1  0
  5  6  2  0
  6  7  1  0
  7  8  2  0
  8  9  1  0
  9 10  2  0
 10 11  1  0
 11 12  2  0
 12 13  1  0
 13 14  2  0
 14 15  1  0
 15 16  2  0
 16 17  1  0
 17 18  1  0
 18 19  1  0
 19 20  2  0
 20 21  1  0
 21 22  2  0
 22 23  1  0
 23 24  2  0
 10 25  1  0
 25 26  1  0
 26 27  2  0
 26 28  1  0
 25 29  2  0
  6  2  1  0
 29  7  1  0
 16 11  1  0
 24 19  1  0
  1 30  1  0
  1 31  1  0
  1 32  1  0
  3 33  1  0
  4 34  1  0
  8 35  1  0
  9 36  1  0
 12 37  1  0
 13 38  1  0
 14 39  1  0
 15 40  1  0
 18 41  1  0
 18 42  1  0
 20 43  1  0
 21 44  1  0
 22 45  1  0
 23 46  1  0
 24 47  1  0
 29 48  1  0
M  CHG  2   3   1  28  -1
M  END
>  <UniqueID>  (21) 
21

>  <SMILES>  (21) 
Cn1[nH+]cnc1-c1ccc(-c2ccccc2OCc2ccccc2)c(C(=O)[O-])c1

>  <Energy>  (21) 
100.59080261796643

>  <Genealogy>  (21) 
Cn1[nH+]cnc1-c1ccc(-c2ccccc2OCc2ccccc2)c(C(=O)[O-])c1 (protonated)
Cn1[nH+]cnc1-c1ccc(-c2ccccc2OCc2ccccc2)c(C(=O)[O-])c1 (3D coordinates assigned)
Cn1[nH+]cnc1-c1ccc(-c2ccccc2OCc2ccccc2)c(C(=O)[O-])c1 (optimized conformer: 100.59080261796643 kcal/mol)

>  <smiles>  (21) 
Cn1ncnc1-c1ccc(-c2ccccc2OCc2ccccc2)c(C(=O)O)c1

>  <score_type>  (21) 
oracle

>  <origin>  (21) 
adg

>  <m_score__min__energy>  (21) 
-9.3900000000000006

>  <m_primary>  (21) 
energy

$$$$
21:0
     RDKit          3D

 41 42  0  0  0  0  0  0  0  0999 V2000
   59.6450   30.4980   47.3990 C   0  0  0  0  0  0  0  0  0  0  0  0
   58.8090   31.1200   46.5500 C   0  0  0  0  0  0  0  0  0  0  0  0
   58.3180   30.6220   45.3310 C   0  0  0  0  0  0  0  0  0  0  0  0
   58.4130   29.4010   44.7650 C   0  0  0  0  0  0  0  0  0  0  0  0
   57.6590   28.2010   45.1740 C   0  0  0  0  0  0  0  0  0  0  0  0
   56.2610   28.2420   45.2670 C   0  0  0  0  0  0  0  0  0  0  0  0
   55.5650   29.3990   44.9240 O   0  0  0  0  0  0  0  0  0  0  0  0
   55.5780   27.1430   45.6850 N   0  0  0  0  0  0  0  0  0  0  0  0
   56.2270   26.0030   46.0320 C   0  0  0  0  0  0  0  0  0  0  0  0
   55.5730   24.9980   46.4120 O   0  0  0  0  0  0  0  0  0  0  0  0
   57.5820   25.9480   45.9760 N   0  0  0  0  0  0  0  0  0  0  0  0
   58.3120   27.0170   45.5670 C   0  0  0  0  0  0  0  0  0  0  0  0
   59.5690   26.9380   45.5470 O   0  0  0  0  0  0  0  0  0  0  0  0
   57.6390   31.6680   44.7320 C   0  0  0  0  0  0  0  0  0  0  0  0
   57.6950   32.7350   45.6010 C   0  0  0  0  0  0  0  0  0  0  0  0
   57.0590   34.0680   45.3460 C   0  0  0  0  0  0  0  0  0  0  0  0
   58.3880   32.4040   46.7160 N   0  0  0  0  0  0  0  0  0  0  0  0
   58.7160   33.3200   47.8190 C   0  0  0  0  0  0  0  0  0  0  0  0
   59.8680   34.1950   47.4370 C   0  0  0  0  0  0  0  0  0  0  0  0
   59.6970   35.1260   46.6030 O   0  0  0  0  0  0  0  0  0  0  0  0
   61.1640   33.9410   47.9870 N   0  0  0  0  0  0  0  0  0  0  0  0
   62.1520   33.0650   47.3640 C   0  0  0  0  0  0  0  0  0  0  0  0
   63.0390   32.4270   48.4390 C   0  0  0  0  0  0  0  0  0  0  0  0
   62.9980   33.8800   46.3870 C   0  0  0  0  0  0  0  0  0  0  0  0
   59.9578   30.9976   48.3277 H   0  0  0  0  0  0  0  0  0  0  0  0
   60.0164   29.4894   47.1651 H   0  0  0  0  0  0  0  0  0  0  0  0
   59.1143   29.2907   43.9248 H   0  0  0  0  0  0  0  0  0  0  0  0
   55.3350   30.0940   45.6240 H   0  0  0  0  0  0  0  0  0  0  0  0
   57.1475   31.6507   43.7481 H   0  0  0  0  0  0  0  0  0  0  0  0
   56.8274   34.5534   46.3056 H   0  0  0  0  0  0  0  0  0  0  0  0
   57.7520   34.7012   44.7726 H   0  0  0  0  0  0  0  0  0  0  0  0
   56.1308   33.9277   44.7726 H   0  0  0  0  0  0  0  0  0  0  0  0
   57.8410   33.9479   48.0426 H   0  0  0  0  0  0  0  0  0  0  0  0
   58.9909   32.7306   48.7061 H   0  0  0  0  0  0  0  0  0  0  0  0
   61.6406   32.2601   46.8157 H   0  0  0  0  0  0  0  0  0  0  0  0
   62.6607   32.6991   49.4354 H   0  0  0  0  0  0  0  0  0  0  0  0
   63.0220   31.3329   48.3265 H   0  0  0  0  0  0  0  0  0  0  0  0
   64.0709   32.7911   48.3265 H   0  0  0  0  0  0  0  0  0  0  0  0
   63.6786   34.5357   46.9499 H   0  0  0  0  0  0  0  0  0  0  0  0
   63.5854   33.1987   45.7539 H   0  0  0  0  0  0  0  0  0  0  0  0
   62.3391   34.4924   45.7539 H   0  0  0  0  0  0  0  0  0  0  0  0
  1  2  2  0
  2  3  1  0
  3  4  2  3
  4  5  1  0
  5  6  2  0
  6  7  1  0
  6  8  1  0
  8  9  1  0
  9 10  2  0
  9 11  1  0
 11 12  1  0
 12 13  2  0
  3 14  1  0
 14 15  2  0
 15 16  1  0
 15 17  1  0
 17 18  1  0
 18 19  1  0
 19 20  2  0
 19 21  1  0
 21 22  1  0
 22 23  1  0
 22 24  1  0
 17  2  1  0
 12  5  1  0
  1 25  1  0
  1 26  1  0
  4 27  1  0
  7 28  1  0
 14 29  1  0
 16 30  1  0
 16 31  1  0
 16 32  1  0
 18 33  1  0
 18 34  1  0
 22 35  1  0
 23 36  1  0
 23 37  1  0
 23 38  1  0
 24 39  1  0
 24 40  1  0
 24 41  1  0
M  CHG  3   8  -1  11  -1  21  -1
M  END
>  <UniqueID>  (22) 
22

>  <SMILES>  (22) 
C=c1c(=Cc2c(O)[n-]c(=O)[n-]c2=O)cc(C)n1CC(=O)[N-]C(C)C

>  <Energy>  (22) 
74.42923898405037

>  <Genealogy>  (22) 
C=c1c(=Cc2c(O)[n-]c(=O)[n-]c2=O)cc(C)n1CC(=O)[N-]C(C)C (protonated)
C=c1c(=Cc2c(O)[n-]c(=O)[n-]c2=O)cc(C)n1CC(=O)[N-]C(C)C (3D coordinates assigned)
C=c1c(=Cc2c(O)[n-]c(=O)[n-]c2=O)cc(C)n1CC(=O)[N-]C(C)C (optimized conformer: 74.42923898405037 kcal/mol)

>  <smiles>  (22) 
C=c1c(=Cc2c(O)[nH]c(=O)[nH]c2=O)cc(C)n1CC(=O)NC(C)C

>  <score_type>  (22) 
oracle

>  <origin>  (22) 
adg

>  <m_score__min__energy>  (22) 
-13.66

>  <m_primary>  (22) 
energy

$$$$
22:0
     RDKit          3D

 43 46  0  0  0  0  0  0  0  0999 V2000
   60.3600   28.7500   50.0400 C   0  0  0  0  0  0  0  0  0  0  0  0
   59.6720   29.8770   49.8470 C   0  0  0  0  0  0  0  0  0  0  0  0
   59.7600   30.5700   48.6910 N   0  0  0  0  0  0  0  0  0  0  0  0
   59.1080   31.7120   48.8360 N   0  0  0  0  0  0  0  0  0  0  0  0
   58.9940   32.6950   47.7880 C   0  0  0  0  0  0  0  0  0  0  0  0
   58.1140   32.4710   46.7140 C   0  0  0  0  0  0  0  0  0  0  0  0
   57.9980   33.4100   45.6850 C   0  0  0  0  0  0  0  0  0  0  0  0
   58.7670   34.5760   45.7110 C   0  0  0  0  0  0  0  0  0  0  0  0
   59.6570   34.8020   46.7640 C   0  0  0  0  0  0  0  0  0  0  0  0
   59.7750   33.8660   47.7960 C   0  0  0  0  0  0  0  0  0  0  0  0
   58.5870   31.7590   50.0800 C   0  0  0  0  0  0  0  0  0  0  0  0
   57.8670   32.6980   50.5170 O   0  0  0  0  0  0  0  0  0  0  0  0
   58.8960   30.5980   50.7670 C   0  0  0  0  0  0  0  0  0  0  0  0
   58.4850   30.3090   52.0180 C   0  0  0  0  0  0  0  0  0  0  0  0
   57.1720   29.7540   52.3760 C   0  0  0  0  0  0  0  0  0  0  0  0
   56.9450   28.6410   53.1630 C   0  0  0  0  0  0  0  0  0  0  0  0
   55.6270   28.5570   53.4140 N   0  0  0  0  0  0  0  0  0  0  0  0
   55.0150   29.5840   52.8420 N   0  0  0  0  0  0  0  0  0  0  0  0
   53.6050   29.8610   52.9430 C   0  0  0  0  0  0  0  0  0  0  0  0
   53.0440   30.9260   52.2150 C   0  0  0  0  0  0  0  0  0  0  0  0
   51.6720   31.2190   52.3070 C   0  0  0  0  0  0  0  0  0  0  0  0
   51.0950   32.3460   51.5430 C   0  0  0  0  0  0  0  0  0  0  0  0
   50.6510   33.3630   52.1380 O   0  0  0  0  0  0  0  0  0  0  0  0
   51.0360   32.2990   50.1540 O   0  0  0  0  0  0  0  0  0  0  0  0
   50.8600   30.4260   53.1360 C   0  0  0  0  0  0  0  0  0  0  0  0
   51.4090   29.3620   53.8540 C   0  0  0  0  0  0  0  0  0  0  0  0
   52.7720   29.0710   53.7560 C   0  0  0  0  0  0  0  0  0  0  0  0
   53.2820   27.9800   54.4510 O   0  0  0  0  0  0  0  0  0  0  0  0
   55.9330   30.3510   52.2200 C   0  0  0  0  0  0  0  0  0  0  0  0
   60.2689   28.2062   50.9918 H   0  0  0  0  0  0  0  0  0  0  0  0
   61.0182   28.3648   49.2473 H   0  0  0  0  0  0  0  0  0  0  0  0
   57.5127   31.5504   46.6835 H   0  0  0  0  0  0  0  0  0  0  0  0
   57.3003   33.2306   44.8537 H   0  0  0  0  0  0  0  0  0  0  0  0
   58.6718   35.3160   44.9027 H   0  0  0  0  0  0  0  0  0  0  0  0
   60.2660   35.7179   46.7812 H   0  0  0  0  0  0  0  0  0  0  0  0
   60.4823   34.0458   48.6190 H   0  0  0  0  0  0  0  0  0  0  0  0
   59.1907   30.5048   52.8387 H   0  0  0  0  0  0  0  0  0  0  0  0
   57.7135   27.9414   53.5235 H   0  0  0  0  0  0  0  0  0  0  0  0
   55.1660   27.8390   54.0160 H   0  0  0  0  0  0  0  0  0  0  0  0
   53.6872   31.5376   51.5652 H   0  0  0  0  0  0  0  0  0  0  0  0
   49.7853   30.6451   53.2196 H   0  0  0  0  0  0  0  0  0  0  0  0
   50.7644   28.7489   54.5010 H   0  0  0  0  0  0  0  0  0  0  0  0
   55.7320   31.2890   51.6817 H   0  0  0  0  0  0  0  0  0  0  0  0
  1  2  2  0
  2  3  1  0
  3  4  1  0
  4  5  1  0
  5  6  2  0
  6  7  1  0
  7  8  2  0
  8  9  1  0
  9 10  2  0
  4 11  1  0
 11 12  2  0
 11 13  1  0
 13 14  2  3
 14 15  1  0
 15 16  1  0
 16 17  2  0
 17 18  1  0
 18 19  1  0
 19 20  2  0
 20 21  1  0
 21 22  1  0
 22 23  2  0
 22 24  1  0
 21 25  2  0
 25 26  1  0
 26 27  2  0
 27 28  1  0
 18 29  1  0
 13  2  1  0
 29 15  2  0
 10  5  1  0
 27 19  1  0
  1 30  1  0
  1 31  1  0
  6 32  1  0
  7 33  1  0
  8 34  1  0
  9 35  1  0
 10 36  1  0
 14 37  1  0
 16 38  1  0
 17 39  1  0
 20 40  1  0
 25 41  1  0
 26 42  1  0
 29 43  1  0
M  CHG  4   3  -1  17   1  24  -1  28  -1
M  END
>  <UniqueID>  (23) 
23

>  <SMILES>  (23) 
C=c1[n-]n(-c2ccccc2)c(=O)c1=Cc1c[nH+]n(-c2cc(C(=O)[O-])ccc2[O-])c1

>  <Energy>  (23) 
132.8834234448758

>  <Genealogy>  (23) 
C=c1[n-]n(-c2ccccc2)c(=O)c1=Cc1c[nH+]n(-c2cc(C(=O)[O-])ccc2[O-])c1 (protonated)
C=c1[n-]n(-c2ccccc2)c(=O)c1=Cc1c[nH+]n(-c2cc(C(=O)[O-])ccc2[O-])c1 (3D coordinates assigned)
C=c1[n-]n(-c2ccccc2)c(=O)c1=Cc1c[nH+]n(-c2cc(C(=O)[O-])ccc2[O-])c1 (optimized conformer: 132.8834234448758 kcal/mol)

>  <smiles>  (23) 
C=c1[nH]n(-c2ccccc2)c(=O)c1=Cc1cnn(-c2cc(C(=O)O)ccc2O)c1

>  <score_type>  (23) 
oracle

>  <origin>  (23) 
adg

>  <m_score__min__energy>  (23) 
-12.94

>  <m_primary>  (23) 
energy

$$$$
23:0
     RDKit          3D

 49 51  0  0  0  0  0  0  0  0999 V2000
   63.2870   33.8820   46.4250 C   0  0  0  0  0  0  0  0  0  0  0  0
   63.1550   33.1940   47.8100 C   0  0  0  0  0  0  0  0  0  0  0  0
   64.5160   33.0460   48.3790 N   0  0  0  0  0  0  0  0  0  0  0  0
   64.8890   32.4660   49.6540 C   0  0  0  0  0  0  0  0  0  0  0  0
   63.9880   31.7450   50.4700 C   0  0  0  0  0  0  0  0  0  0  0  0
   64.4050   31.2220   51.6970 C   0  0  0  0  0  0  0  0  0  0  0  0
   65.7170   31.4130   52.1340 C   0  0  0  0  0  0  0  0  0  0  0  0
   66.6160   32.1310   51.3450 C   0  0  0  0  0  0  0  0  0  0  0  0
   66.2050   32.6560   50.1160 C   0  0  0  0  0  0  0  0  0  0  0  0
   62.2790   34.1010   48.7340 C   0  0  0  0  0  0  0  0  0  0  0  0
   60.8340   33.6020   48.8670 C   0  0  0  0  0  0  0  0  0  0  0  0
   60.3630   33.1120   47.5620 N   0  0  0  0  0  0  0  0  0  0  0  0
   58.8890   33.0550   47.4430 C   0  0  0  0  0  0  0  0  0  0  0  0
   58.3980   32.6740   46.0600 C   0  0  0  0  0  0  0  0  0  0  0  0
   58.4340   33.6080   45.0120 C   0  0  0  0  0  0  0  0  0  0  0  0
   57.9800   33.2570   43.7370 C   0  0  0  0  0  0  0  0  0  0  0  0
   57.4810   31.9750   43.4990 C   0  0  0  0  0  0  0  0  0  0  0  0
   57.4290   31.0360   44.5370 C   0  0  0  0  0  0  0  0  0  0  0  0
   56.7820   29.4250   44.2490 S   0  0  0  0  0  0  0  0  0  0  0  0
   55.1540   29.3440   44.8220 N   0  0  0  0  0  0  0  0  0  0  0  0
   57.6200   28.4050   44.9680 O   0  0  0  0  0  0  0  0  0  0  0  0
   56.8080   29.1180   42.7780 O   0  0  0  0  0  0  0  0  0  0  0  0
   57.8740   31.3920   45.8180 C   0  0  0  0  0  0  0  0  0  0  0  0
   61.0320   31.8580   47.1480 C   0  0  0  0  0  0  0  0  0  0  0  0
   62.5150   31.7930   47.5830 C   0  0  0  0  0  0  0  0  0  0  0  0
   63.4926   34.9534   46.5659 H   0  0  0  0  0  0  0  0  0  0  0  0
   64.1131   33.4209   45.8638 H   0  0  0  0  0  0  0  0  0  0  0  0
   62.3489   33.7593   45.8638 H   0  0  0  0  0  0  0  0  0  0  0  0
   65.3170   33.3250   47.7660 H   0  0  0  0  0  0  0  0  0  0  0  0
   62.9506   31.5944   50.1367 H   0  0  0  0  0  0  0  0  0  0  0  0
   63.6965   30.6575   52.3210 H   0  0  0  0  0  0  0  0  0  0  0  0
   66.0417   30.9978   53.0995 H   0  0  0  0  0  0  0  0  0  0  0  0
   67.6492   32.2843   51.6901 H   0  0  0  0  0  0  0  0  0  0  0  0
   66.9191   33.2247   49.5024 H   0  0  0  0  0  0  0  0  0  0  0  0
   62.7348   34.1261   49.7348 H   0  0  0  0  0  0  0  0  0  0  0  0
   62.2415   35.1000   48.2751 H   0  0  0  0  0  0  0  0  0  0  0  0
   60.7945   32.7844   49.6018 H   0  0  0  0  0  0  0  0  0  0  0  0
   60.1900   34.4280   49.2030 H   0  0  0  0  0  0  0  0  0  0  0  0
   58.5121   32.3118   48.1611 H   0  0  0  0  0  0  0  0  0  0  0  0
   58.5130   34.0684   47.6471 H   0  0  0  0  0  0  0  0  0  0  0  0
   58.8214   34.6211   45.1951 H   0  0  0  0  0  0  0  0  0  0  0  0
   58.0161   33.9924   42.9198 H   0  0  0  0  0  0  0  0  0  0  0  0
   57.1278   31.7017   42.4938 H   0  0  0  0  0  0  0  0  0  0  0  0
   55.1460   28.6690   45.6200 H   0  0  0  0  0  0  0  0  0  0  0  0
   57.8127   30.6631   46.6395 H   0  0  0  0  0  0  0  0  0  0  0  0
   60.4967   31.0095   47.5991 H   0  0  0  0  0  0  0  0  0  0  0  0
   61.0092   31.8198   46.0489 H   0  0  0  0  0  0  0  0  0  0  0  0
   62.5781   31.2245   48.5226 H   0  0  0  0  0  0  0  0  0  0  0  0
   63.0719   31.3101   46.7665 H   0  0  0  0  0  0  0  0  0  0  0  0
  1  2  1  0
  2  3  1  0
  3  4  1  0
  4  5  2  0
  5  6  1  0
  6  7  2  0
  7  8  1  0
  8  9  2  0
  2 10  1  0
 10 11  1  0
 11 12  1  0
 12 13  1  0
 13 14  1  0
 14 15  2  0
 15 16  1  0
 16 17  2  0
 17 18  1  0
 18 19  1  0
 19 20  1  0
 19 21  2  0
 19 22  2  0
 18 23  2  0
 12 24  1  0
 24 25  1  0
 25  2  1  0
  9  4  1  0
 23 14  1  0
  1 26  1  0
  1 27  1  0
  1 28  1  0
  3 29  1  0
  5 30  1  0
  6 31  1  0
  7 32  1  0
  8 33  1  0
  9 34  1  0
 10 35  1  0
 10 36  1  0
 11 37  1  0
 11 38  1  0
 13 39  1  0
 13 40  1  0
 15 41  1  0
 16 42  1  0
 17 43  1  0
 20 44  1  0
 23 45  1  0
 24 46  1  0
 24 47  1  0
 25 48  1  0
 25 49  1  0
M  CHG  1  20  -1
M  END
>  <UniqueID>  (24) 
24

>  <SMILES>  (24) 
CC1(Nc2ccccc2)CCN(Cc2cccc(S([NH-])(=O)=O)c2)CC1

>  <Energy>  (24) 
64.91035190579046

>  <Genealogy>  (24) 
CC1(Nc2ccccc2)CCN(Cc2cccc(S([NH-])(=O)=O)c2)CC1 (protonated)
CC1(Nc2ccccc2)CCN(Cc2cccc(S([NH-])(=O)=O)c2)CC1 (3D coordinates assigned)
CC1(Nc2ccccc2)CCN(Cc2cccc(S([NH-])(=O)=O)c2)CC1 (nonaromatic ring conformer: 64.91035190579046 kcal/mol)

>  <smiles>  (24) 
CC1(Nc2ccccc2)CCN(Cc2cccc(S(N)(=O)=O)c2)CC1

>  <score_type>  (24) 
oracle

>  <origin>  (24) 
adg

>  <m_score__min__energy>  (24) 
-11.99

>  <m_primary>  (24) 
energy

$$$$
24:0
     RDKit          3D

 47 50  0  0  0  0  0  0  0  0999 V2000
   54.8490   25.8720   45.6260 N   0  0  0  0  0  0  0  0  0  0  0  0
   54.6170   24.1670   45.7960 S   0  0  0  0  0  0  0  0  0  0  0  0
   54.3730   23.8320   47.2400 O   0  0  0  0  0  0  0  0  0  0  0  0
   53.4080   23.7690   44.9950 O   0  0  0  0  0  0  0  0  0  0  0  0
   56.0490   23.3030   45.2130 C   0  0  0  0  0  0  0  0  0  0  0  0
   55.9480   21.9320   44.9220 C   0  0  0  0  0  0  0  0  0  0  0  0
   57.0450   21.2300   44.4180 C   0  0  0  0  0  0  0  0  0  0  0  0
   58.2550   21.8880   44.1940 C   0  0  0  0  0  0  0  0  0  0  0  0
   58.3760   23.2470   44.4870 C   0  0  0  0  0  0  0  0  0  0  0  0
   57.2850   23.9650   45.0060 C   0  0  0  0  0  0  0  0  0  0  0  0
   57.4790   25.3880   45.3460 C   0  0  0  0  0  0  0  0  0  0  0  0
   57.6030   26.3390   44.3240 C   0  0  0  0  0  0  0  0  0  0  0  0
   57.7540   27.6920   44.6340 C   0  0  0  0  0  0  0  0  0  0  0  0
   57.7860   28.1120   45.9750 C   0  0  0  0  0  0  0  0  0  0  0  0
   57.9050   29.4960   46.3360 N   0  0  0  0  0  0  0  0  0  0  0  0
   57.4310   30.6170   45.5750 C   0  0  0  0  0  0  0  0  0  0  0  0
   56.4720   30.4710   44.7690 O   0  0  0  0  0  0  0  0  0  0  0  0
   58.1040   31.9310   45.6930 C   0  0  0  0  0  0  0  0  0  0  0  0
   57.6610   33.0330   44.9390 C   0  0  0  0  0  0  0  0  0  0  0  0
   58.3110   34.2650   45.0350 C   0  0  0  0  0  0  0  0  0  0  0  0
   59.4110   34.4160   45.8800 C   0  0  0  0  0  0  0  0  0  0  0  0
   59.8680   33.3330   46.6500 C   0  0  0  0  0  0  0  0  0  0  0  0
   61.0530   33.4920   47.5320 C   0  0  0  0  0  0  0  0  0  0  0  0
   62.3080   33.0180   47.1200 C   0  0  0  0  0  0  0  0  0  0  0  0
   63.3890   33.1490   47.9310 N   0  0  0  0  0  0  0  0  0  0  0  0
   63.2830   33.7430   49.1460 C   0  0  0  0  0  0  0  0  0  0  0  0
   64.2970   33.8510   49.8840 O   0  0  0  0  0  0  0  0  0  0  0  0
   62.0850   34.2220   49.5670 N   0  0  0  0  0  0  0  0  0  0  0  0
   60.9730   34.1150   48.7920 C   0  0  0  0  0  0  0  0  0  0  0  0
   59.8850   34.5970   49.2090 O   0  0  0  0  0  0  0  0  0  0  0  0
   59.2100   32.0940   46.5490 C   0  0  0  0  0  0  0  0  0  0  0  0
   57.6300   27.1630   46.9930 C   0  0  0  0  0  0  0  0  0  0  0  0
   57.4820   25.8070   46.6850 C   0  0  0  0  0  0  0  0  0  0  0  0
   57.3450   24.9060   47.6900 F   0  0  0  0  0  0  0  0  0  0  0  0
   53.9430   26.3280   45.8720 H   0  0  0  0  0  0  0  0  0  0  0  0
   54.9965   21.4071   45.0927 H   0  0  0  0  0  0  0  0  0  0  0  0
   56.9551   20.1562   44.1971 H   0  0  0  0  0  0  0  0  0  0  0  0
   59.1140   21.3351   43.7862 H   0  0  0  0  0  0  0  0  0  0  0  0
   59.3327   23.7603   44.3104 H   0  0  0  0  0  0  0  0  0  0  0  0
   57.5812   26.0178   43.2722 H   0  0  0  0  0  0  0  0  0  0  0  0
   57.8483   28.4321   43.8257 H   0  0  0  0  0  0  0  0  0  0  0  0
   56.7958   32.9232   44.2686 H   0  0  0  0  0  0  0  0  0  0  0  0
   57.9544   35.1201   44.4420 H   0  0  0  0  0  0  0  0  0  0  0  0
   59.9229   35.3875   45.9437 H   0  0  0  0  0  0  0  0  0  0  0  0
   62.4163   32.5384   46.1360 H   0  0  0  0  0  0  0  0  0  0  0  0
   59.5641   31.2411   47.1466 H   0  0  0  0  0  0  0  0  0  0  0  0
   57.6238   27.4871   48.0441 H   0  0  0  0  0  0  0  0  0  0  0  0
  1  2  1  0
  2  3  2  0
  2  4  2  0
  2  5  1  0
  5  6  2  0
  6  7  1  0
  7  8  2  0
  8  9  1  0
  9 10  2  0
 10 11  1  0
 11 12  2  0
 12 13  1  0
 13 14  2  0
 14 15  1  0
 15 16  1  0
 16 17  2  0
 16 18  1  0
 18 19  2  0
 19 20  1  0
 20 21  2  0
 21 22  1  0
 22 23  1  0
 23 24  2  0
 24 25  1  0
 25 26  1  0
 26 27  2  0
 26 28  1  0
 28 29  1  0
 29 30  2  0
 22 31  2  0
 14 32  1  0
 32 33  2  0
 33 34  1  0
 10  5  1  0
 33 11  1  0
 31 18  1  0
 29 23  1  0
  1 35  1  0
  6 36  1  0
  7 37  1  0
  8 38  1  0
  9 39  1  0
 12 40  1  0
 13 41  1  0
 19 42  1  0
 20 43  1  0
 21 44  1  0
 24 45  1  0
 31 46  1  0
 32 47  1  0
M  CHG  4   1  -1  15  -1  25  -1  28  -1
M  END
>  <UniqueID>  (25) 
25

>  <SMILES>  (25) 
[NH-]S(=O)(=O)c1ccccc1-c1ccc([N-]C(=O)c2cccc(-c3c[n-]c(=O)[n-]c3=O)c2)cc1F

>  <Energy>  (25) 
73.29512360564934

>  <Genealogy>  (25) 
[NH-]S(=O)(=O)c1ccccc1-c1ccc([N-]C(=O)c2cccc(-c3c[n-]c(=O)[n-]c3=O)c2)cc1F (protonated)
[NH-]S(=O)(=O)c1ccccc1-c1ccc([N-]C(=O)c2cccc(-c3c[n-]c(=O)[n-]c3=O)c2)cc1F (3D coordinates assigned)
[NH-]S(=O)(=O)c1ccccc1-c1ccc([N-]C(=O)c2cccc(-c3c[n-]c(=O)[n-]c3=O)c2)cc1F (optimized conformer: 73.29512360564934 kcal/mol)

>  <smiles>  (25) 
NS(=O)(=O)c1ccccc1-c1ccc(NC(=O)c2cccc(-c3c[nH]c(=O)[nH]c3=O)c2)cc1F

>  <score_type>  (25) 
oracle

>  <origin>  (25) 
adg

>  <m_score__min__energy>  (25) 
-16.469999999999999

>  <m_primary>  (25) 
energy

$$$$
25:0
     RDKit          3D

 47 50  0  0  0  0  0  0  0  0999 V2000
   60.0260   28.2370   45.3660 C   0  0  0  0  0  0  0  0  0  0  0  0
   59.0240   28.4930   46.4060 N   0  0  0  0  0  0  0  0  0  0  0  0
   57.6190   28.1360   46.1740 C   0  0  0  0  0  0  0  0  0  0  0  0
   57.0040   29.0860   45.1940 C   0  0  0  0  0  0  0  0  0  0  0  0
   57.6660   30.0970   44.5260 C   0  0  0  0  0  0  0  0  0  0  0  0
   56.7030   30.7320   43.7710 C   0  0  0  0  0  0  0  0  0  0  0  0
   55.5170   30.0750   44.0300 C   0  0  0  0  0  0  0  0  0  0  0  0
   55.7290   29.0990   44.8830 O   0  0  0  0  0  0  0  0  0  0  0  0
   59.4120   29.1630   47.6230 C   0  0  0  0  0  0  0  0  0  0  0  0
   58.6010   29.1280   48.7160 N   0  0  0  0  0  0  0  0  0  0  0  0
   58.9260   29.7740   49.8640 C   0  0  0  0  0  0  0  0  0  0  0  0
   58.1360   29.7240   50.8450 O   0  0  0  0  0  0  0  0  0  0  0  0
   60.1280   30.4940   49.9460 C   0  0  0  0  0  0  0  0  0  0  0  0
   60.9530   30.5290   48.8070 C   0  0  0  0  0  0  0  0  0  0  0  0
   60.5820   29.8550   47.6850 N   0  0  0  0  0  0  0  0  0  0  0  0
   62.2800   31.2470   48.8270 C   0  0  0  0  0  0  0  0  0  0  0  0
   62.3520   32.3020   49.8630 N   0  0  1  0  0  0  0  0  0  0  0  0
   61.6290   33.5040   49.4900 C   0  0  0  0  0  0  0  0  0  0  0  0
   61.8270   34.5920   50.1040 O   0  0  0  0  0  0  0  0  0  0  0  0
   60.7530   33.5190   48.3020 C   0  0  0  0  0  0  0  0  0  0  0  0
   59.3710   33.3460   48.4820 C   0  0  0  0  0  0  0  0  0  0  0  0
   58.5050   33.3650   47.3840 C   0  0  0  0  0  0  0  0  0  0  0  0
   59.0150   33.5490   46.0960 C   0  0  0  0  0  0  0  0  0  0  0  0
   60.3900   33.7110   45.9040 C   0  0  0  0  0  0  0  0  0  0  0  0
   61.2680   33.6900   46.9970 C   0  0  0  0  0  0  0  0  0  0  0  0
   63.0010   33.8190   46.6820 Cl  0  0  0  0  0  0  0  0  0  0  0  0
   61.9150   31.7930   51.1800 C   0  0  0  0  0  0  0  0  0  0  0  0
   60.4580   31.3060   51.1740 C   0  0  0  0  0  0  0  0  0  0  0  0
   60.9890   27.9910   45.8373 H   0  0  0  0  0  0  0  0  0  0  0  0
   59.6979   27.3938   44.7404 H   0  0  0  0  0  0  0  0  0  0  0  0
   60.1426   29.1342   44.7404 H   0  0  0  0  0  0  0  0  0  0  0  0
   57.5646   27.1132   45.7730 H   0  0  0  0  0  0  0  0  0  0  0  0
   57.0701   28.1936   47.1255 H   0  0  0  0  0  0  0  0  0  0  0  0
   58.7364   30.3438   44.5840 H   0  0  0  0  0  0  0  0  0  0  0  0
   56.8501   31.5894   43.0978 H   0  0  0  0  0  0  0  0  0  0  0  0
   54.5421   30.3301   43.5889 H   0  0  0  0  0  0  0  0  0  0  0  0
   63.0739   30.5107   49.0209 H   0  0  0  0  0  0  0  0  0  0  0  0
   62.4035   31.7368   47.8499 H   0  0  0  0  0  0  0  0  0  0  0  0
   63.3640   32.5520   49.9650 H   0  0  0  0  0  0  0  0  0  0  0  0
   58.9668   33.1945   49.4938 H   0  0  0  0  0  0  0  0  0  0  0  0
   57.4231   33.2352   47.5341 H   0  0  0  0  0  0  0  0  0  0  0  0
   58.3338   33.5664   45.2325 H   0  0  0  0  0  0  0  0  0  0  0  0
   60.7861   33.8560   44.8881 H   0  0  0  0  0  0  0  0  0  0  0  0
   62.5655   30.9534   51.4662 H   0  0  0  0  0  0  0  0  0  0  0  0
   61.9844   32.6243   51.8970 H   0  0  0  0  0  0  0  0  0  0  0  0
   60.2901   30.6831   52.0650 H   0  0  0  0  0  0  0  0  0  0  0  0
   59.8078   32.1933   51.1741 H   0  0  0  0  0  0  0  0  0  0  0  0
  1  2  1  0
  2  3  1  0
  3  4  1  0
  4  5  2  0
  5  6  1  0
  6  7  2  0
  7  8  1  0
  2  9  1  0
  9 10  2  0
 10 11  1  0
 11 12  2  0
 11 13  1  0
 13 14  2  0
 14 15  1  0
 14 16  1  0
 16 17  1  0
 17 18  1  0
 18 19  2  0
 18 20  1  0
 20 21  2  0
 21 22  1  0
 22 23  2  0
 23 24  1  0
 24 25  2  0
 25 26  1  0
 17 27  1  0
 27 28  1  0
  8  4  1  0
 15  9  1  0
 25 20  1  0
 28 13  1  0
  1 29  1  0
  1 30  1  0
  1 31  1  0
  3 32  1  0
  3 33  1  0
  5 34  1  0
  6 35  1  0
  7 36  1  0
 16 37  1  0
 16 38  1  0
 17 39  1  1
 21 40  1  0
 22 41  1  0
 23 42  1  0
 24 43  1  0
 27 44  1  0
 27 45  1  0
 28 46  1  0
 28 47  1  0
M  CHG  2  15  -1  17   1
M  END
>  <UniqueID>  (26) 
26

>  <SMILES>  (26) 
CN(Cc1ccco1)c1nc(=O)c2c([n-]1)C[N@@H+](C(=O)c1ccccc1Cl)CC2

>  <Energy>  (26) 
88.98264445934272

>  <Genealogy>  (26) 
CN(Cc1ccco1)c1nc(=O)c2c([n-]1)C[NH+](C(=O)c1ccccc1Cl)CC2 (protonated)
CN(Cc1ccco1)c1nc(=O)c2c([n-]1)C[N@@H+](C(=O)c1ccccc1Cl)CC2 (chirality)
CN(Cc1ccco1)c1nc(=O)c2c([n-]1)C[N@@H+](C(=O)c1ccccc1Cl)CC2 (3D coordinates assigned)
CN(Cc1ccco1)c1nc(=O)c2c([n-]1)C[N@@H+](C(=O)c1ccccc1Cl)CC2 (nonaromatic ring conformer: 88.98264445934272 kcal/mol)

>  <smiles>  (26) 
CN(Cc1ccco1)c1nc(=O)c2c([nH]1)CN(C(=O)c1ccccc1Cl)CC2

>  <score_type>  (26) 
oracle

>  <origin>  (26) 
adg

>  <m_score__min__energy>  (26) 
-9.8200000000000003

>  <m_primary>  (26) 
energy

$$$$
26:0
     RDKit          3D

 50 52  0  0  0  0  0  0  0  0999 V2000
   59.4380   28.0910   47.2510 C   0  0  0  0  0  0  0  0  0  0  0  0
   58.8790   28.8990   46.3350 C   0  0  0  0  0  0  0  0  0  0  0  0
   57.9340   28.5200   45.3690 C   0  0  0  0  0  0  0  0  0  0  0  0
   57.5350   27.3030   44.9490 C   0  0  0  0  0  0  0  0  0  0  0  0
   57.1600   26.1750   45.8180 C   0  0  0  0  0  0  0  0  0  0  0  0
   57.9760   25.1560   46.1490 N   0  0  0  0  0  0  0  0  0  0  0  0
   57.1640   24.3180   46.8300 C   0  0  0  0  0  0  0  0  0  0  0  0
   57.5720   23.2340   47.3260 O   0  0  0  0  0  0  0  0  0  0  0  0
   55.8820   24.7260   46.9300 N   0  0  0  0  0  0  0  0  0  0  0  0
   55.8940   25.8960   46.2720 C   0  0  0  0  0  0  0  0  0  0  0  0
   54.7700   26.6900   46.0860 O   0  0  0  0  0  0  0  0  0  0  0  0
   57.4220   29.6910   44.8480 C   0  0  0  0  0  0  0  0  0  0  0  0
   58.1170   30.7300   45.4290 C   0  0  0  0  0  0  0  0  0  0  0  0
   57.8170   32.1500   45.1690 C   0  0  0  0  0  0  0  0  0  0  0  0
   56.6290   32.5690   45.1800 O   0  0  0  0  0  0  0  0  0  0  0  0
   58.8880   33.0530   44.8770 N   0  0  0  0  0  0  0  0  0  0  0  0
   59.0170   34.3610   45.5070 C   0  0  0  0  0  0  0  0  0  0  0  0
   60.0250   34.2870   46.6220 C   0  0  0  0  0  0  0  0  0  0  0  0
   61.3380   33.8530   46.3710 C   0  0  0  0  0  0  0  0  0  0  0  0
   62.2450   33.7090   47.4250 C   0  0  0  0  0  0  0  0  0  0  0  0
   61.8490   33.9930   48.7350 C   0  0  0  0  0  0  0  0  0  0  0  0
   62.7280   33.8460   49.7560 F   0  0  0  0  0  0  0  0  0  0  0  0
   60.5450   34.4230   48.9930 C   0  0  0  0  0  0  0  0  0  0  0  0
   59.6330   34.5650   47.9420 C   0  0  0  0  0  0  0  0  0  0  0  0
   59.0170   30.2570   46.3300 N   0  0  0  0  0  0  0  0  0  0  0  0
   59.8270   31.0800   47.2490 C   0  0  0  0  0  0  0  0  0  0  0  0
   59.0290   31.4610   48.5030 C   0  0  0  0  0  0  0  0  0  0  0  0
   59.1870   30.4300   49.5520 N   0  0  0  0  0  0  0  0  0  0  0  0
   58.4610   30.8120   50.7740 C   0  0  0  0  0  0  0  0  0  0  0  0
   60.6090   30.2110   49.8670 C   0  0  0  0  0  0  0  0  0  0  0  0
   60.1717   28.4935   47.9649 H   0  0  0  0  0  0  0  0  0  0  0  0
   59.1620   27.0268   47.2872 H   0  0  0  0  0  0  0  0  0  0  0  0
   57.4852   27.1381   43.8626 H   0  0  0  0  0  0  0  0  0  0  0  0
   56.6122   29.7786   44.1087 H   0  0  0  0  0  0  0  0  0  0  0  0
   59.3509   35.0959   44.7598 H   0  0  0  0  0  0  0  0  0  0  0  0
   58.0426   34.6676   45.9151 H   0  0  0  0  0  0  0  0  0  0  0  0
   61.6530   33.6259   45.3418 H   0  0  0  0  0  0  0  0  0  0  0  0
   63.2723   33.3715   47.2230 H   0  0  0  0  0  0  0  0  0  0  0  0
   60.2352   34.6501   50.0237 H   0  0  0  0  0  0  0  0  0  0  0  0
   58.6047   34.8957   48.1499 H   0  0  0  0  0  0  0  0  0  0  0  0
   60.7181   30.5097   47.5504 H   0  0  0  0  0  0  0  0  0  0  0  0
   60.1159   32.0037   46.7262 H   0  0  0  0  0  0  0  0  0  0  0  0
   59.3948   32.4253   48.8855 H   0  0  0  0  0  0  0  0  0  0  0  0
   57.9643   31.5371   48.2371 H   0  0  0  0  0  0  0  0  0  0  0  0
   59.0421   30.5062   51.6565 H   0  0  0  0  0  0  0  0  0  0  0  0
   58.3173   31.9025   50.7894 H   0  0  0  0  0  0  0  0  0  0  0  0
   57.4809   30.3128   50.7894 H   0  0  0  0  0  0  0  0  0  0  0  0
   60.7438   30.1902   50.9585 H   0  0  0  0  0  0  0  0  0  0  0  0
   60.9359   29.2519   49.4389 H   0  0  0  0  0  0  0  0  0  0  0  0
   61.2093   31.0273   49.4389 H   0  0  0  0  0  0  0  0  0  0  0  0
  1  2  2  0
  2  3  1  0
  3  4  2  3
  4  5  1  0
  5  6  1  0
  6  7  1  0
  7  8  2  0
  7  9  1  0
  9 10  1  0
 10 11  1  0
  3 12  1  0
 12 13  2  0
 13 14  1  0
 14 15  2  0
 14 16  1  0
 16 17  1  0
 17 18  1  0
 18 19  2  0
 19 20  1  0
 20 21  2  0
 21 22  1  0
 21 23  1  0
 23 24  2  0
 13 25  1  0
 25 26  1  0
 26 27  1  0
 27 28  1  0
 28 29  1  0
 28 30  1  0
 25  2  1  0
 10  5  2  0
 24 18  1  0
  1 31  1  0
  1 32  1  0
  4 33  1  0
 12 34  1  0
 17 35  1  0
 17 36  1  0
 19 37  1  0
 20 38  1  0
 23 39  1  0
 24 40  1  0
 26 41  1  0
 26 42  1  0
 27 43  1  0
 27 44  1  0
 29 45  1  0
 29 46  1  0
 29 47  1  0
 30 48  1  0
 30 49  1  0
 30 50  1  0
M  CHG  4   6  -1   9  -1  11  -1  16  -1
M  END
>  <UniqueID>  (27) 
27

>  <SMILES>  (27) 
C=c1c(=Cc2[n-]c(=O)[n-]c2[O-])cc(C(=O)[N-]Cc2ccc(F)cc2)n1CCN(C)C

>  <Energy>  (27) 
118.67763916268257

>  <Genealogy>  (27) 
C=c1c(=Cc2[n-]c(=O)[n-]c2[O-])cc(C(=O)[N-]Cc2ccc(F)cc2)n1CCN(C)C (protonated)
C=c1c(=Cc2[n-]c(=O)[n-]c2[O-])cc(C(=O)[N-]Cc2ccc(F)cc2)n1CCN(C)C (3D coordinates assigned)
C=c1c(=Cc2[n-]c(=O)[n-]c2[O-])cc(C(=O)[N-]Cc2ccc(F)cc2)n1CCN(C)C (optimized conformer: 118.67763916268257 kcal/mol)

>  <smiles>  (27) 
C=c1c(=Cc2[nH]c(=O)[nH]c2O)cc(C(=O)NCc2ccc(F)cc2)n1CCN(C)C

>  <score_type>  (27) 
oracle

>  <origin>  (27) 
adg

>  <m_score__min__energy>  (27) 
-17.109999999999999

>  <m_primary>  (27) 
energy

$$$$
27:0
     RDKit          3D

 42 43  0  0  0  0  0  0  0  0999 V2000
   55.4970   29.5100   44.9280 N   0  0  0  0  0  0  0  0  0  0  0  0
   56.2160   29.9480   43.7770 C   0  0  0  0  0  0  0  0  0  0  0  0
   55.9780   29.4210   42.6570 O   0  0  0  0  0  0  0  0  0  0  0  0
   57.2320   31.0070   43.9040 C   0  0  0  0  0  0  0  0  0  0  0  0
   57.2730   31.9310   43.0480 O   0  0  0  0  0  0  0  0  0  0  0  0
   58.1950   31.0380   45.0620 C   0  0  0  0  0  0  0  0  0  0  0  0
   58.5380   32.4720   45.4810 C   0  0  0  0  0  0  0  0  0  0  0  0
   58.1210   32.7490   46.8930 C   0  0  0  0  0  0  0  0  0  0  0  0
   57.1190   33.4830   47.1120 O   0  0  0  0  0  0  0  0  0  0  0  0
   58.8040   32.0920   47.9680 N   0  0  0  0  0  0  0  0  0  0  0  0
   58.7420   32.4120   49.3650 C   0  0  0  0  0  0  0  0  0  0  0  0
   59.6570   33.2880   49.9780 C   0  0  0  0  0  0  0  0  0  0  0  0
   59.5460   33.5760   51.3400 C   0  0  0  0  0  0  0  0  0  0  0  0
   58.5430   32.9790   52.1060 C   0  0  0  0  0  0  0  0  0  0  0  0
   57.6580   32.0660   51.5230 C   0  0  0  0  0  0  0  0  0  0  0  0
   56.6360   31.4750   52.3370 N   0  0  0  0  0  0  0  0  0  0  0  0
   56.3780   30.0710   52.4710 C   0  0  0  0  0  0  0  0  0  0  0  0
   57.1790   29.2210   51.9970 O   0  0  0  0  0  0  0  0  0  0  0  0
   55.1540   29.6090   53.1950 C   0  0  0  0  0  0  0  0  0  0  0  0
   53.9710   30.4500   52.7940 C   0  0  0  0  0  0  0  0  0  0  0  0
   53.8550   30.9310   51.4790 C   0  0  0  0  0  0  0  0  0  0  0  0
   52.7380   31.6830   51.0990 C   0  0  0  0  0  0  0  0  0  0  0  0
   51.7240   31.9480   52.0250 C   0  0  0  0  0  0  0  0  0  0  0  0
   50.6140   32.6930   51.6450 O   0  0  0  0  0  0  0  0  0  0  0  0
   51.8260   31.4590   53.3320 C   0  0  0  0  0  0  0  0  0  0  0  0
   52.9430   30.7090   53.7150 C   0  0  0  0  0  0  0  0  0  0  0  0
   57.7560   31.7960   50.1450 C   0  0  0  0  0  0  0  0  0  0  0  0
   54.4670   29.3430   44.8880 H   0  0  0  0  0  0  0  0  0  0  0  0
   57.7400   30.5167   45.9171 H   0  0  0  0  0  0  0  0  0  0  0  0
   59.1251   30.5432   44.7456 H   0  0  0  0  0  0  0  0  0  0  0  0
   59.6247   32.6189   45.3944 H   0  0  0  0  0  0  0  0  0  0  0  0
   57.9941   33.1628   44.8200 H   0  0  0  0  0  0  0  0  0  0  0  0
   60.4609   33.7466   49.3835 H   0  0  0  0  0  0  0  0  0  0  0  0
   60.2517   34.2760   51.8112 H   0  0  0  0  0  0  0  0  0  0  0  0
   58.4482   33.2278   53.1733 H   0  0  0  0  0  0  0  0  0  0  0  0
   54.9560   28.5571   52.9415 H   0  0  0  0  0  0  0  0  0  0  0  0
   55.3164   29.7071   54.2785 H   0  0  0  0  0  0  0  0  0  0  0  0
   54.6456   30.7155   50.7452 H   0  0  0  0  0  0  0  0  0  0  0  0
   52.6573   32.0661   50.0710 H   0  0  0  0  0  0  0  0  0  0  0  0
   51.0268   31.6646   54.0593 H   0  0  0  0  0  0  0  0  0  0  0  0
   53.0164   30.3206   54.7415 H   0  0  0  0  0  0  0  0  0  0  0  0
   57.0508   31.0939   49.6763 H   0  0  0  0  0  0  0  0  0  0  0  0
  1  2  1  0
  2  3  2  0
  2  4  1  0
  4  5  2  0
  4  6  1  0
  6  7  1  0
  7  8  1  0
  8  9  2  0
  8 10  1  0
 10 11  1  0
 11 12  2  0
 12 13  1  0
 13 14  2  0
 14 15  1  0
 15 16  1  0
 16 17  1  0
 17 18  2  0
 17 19  1  0
 19 20  1  0
 20 21  2  0
 21 22  1  0
 22 23  2  0
 23 24  1  0
 23 25  1  0
 25 26  2  0
 15 27  2  0
 27 11  1  0
 26 20  1  0
  1 28  1  0
  6 29  1  0
  6 30  1  0
  7 31  1  0
  7 32  1  0
 12 33  1  0
 13 34  1  0
 14 35  1  0
 19 36  1  0
 19 37  1  0
 21 38  1  0
 22 39  1  0
 25 40  1  0
 26 41  1  0
 27 42  1  0
M  CHG  4   1  -1  10  -1  16  -1  24  -1
M  END
>  <UniqueID>  (28) 
28

>  <SMILES>  (28) 
[NH-]C(=O)C(=O)CCC(=O)[N-]c1cccc([N-]C(=O)Cc2ccc([O-])cc2)c1

>  <Energy>  (28) 
41.54833072449508

>  <Genealogy>  (28) 
[NH-]C(=O)C(=O)CCC(=O)[N-]c1cccc([N-]C(=O)Cc2ccc([O-])cc2)c1 (protonated)
[NH-]C(=O)C(=O)CCC(=O)[N-]c1cccc([N-]C(=O)Cc2ccc([O-])cc2)c1 (3D coordinates assigned)
[NH-]C(=O)C(=O)CCC(=O)[N-]c1cccc([N-]C(=O)Cc2ccc([O-])cc2)c1 (optimized conformer: 41.54833072449508 kcal/mol)

>  <smiles>  (28) 
NC(=O)C(=O)CCC(=O)Nc1cccc(NC(=O)Cc2ccc(O)cc2)c1

>  <score_type>  (28) 
oracle

>  <origin>  (28) 
adg

>  <m_score__min__energy>  (28) 
-16.460000000000001

>  <m_primary>  (28) 
energy

$$$$
28:0
     RDKit          3D

 40 42  0  0  0  0  0  0  0  0999 V2000
   59.1010   30.2490   50.3290 C   0  0  0  0  0  0  0  0  0  0  0  0
   59.3850   29.5420   49.2230 C   0  0  0  0  0  0  0  0  0  0  0  0
   60.1360   28.2320   49.3610 C   0  0  0  0  0  0  0  0  0  0  0  0
   59.8540   27.2630   48.2110 C   0  0  0  0  0  0  0  0  0  0  0  0
   59.9440   27.9490   46.8470 C   0  0  0  0  0  0  0  0  0  0  0  0
   58.8910   29.0720   46.7450 C   0  0  2  0  0  0  0  0  0  0  0  0
   58.8380   29.6970   45.3230 C   0  0  0  0  0  0  0  0  0  0  0  0
   57.4430   29.9700   44.7130 C   0  0  2  0  0  0  0  0  0  0  0  0
   56.3500   29.0040   45.0460 C   0  0  0  0  0  0  0  0  0  0  0  0
   55.1460   29.3220   44.8660 O   0  0  0  0  0  0  0  0  0  0  0  0
   56.6630   27.7640   45.5890 O   0  0  0  0  0  0  0  0  0  0  0  0
   57.1810   30.9190   43.5970 C   0  0  0  0  0  0  0  0  0  0  0  0
   57.0210   31.2940   44.9460 O   0  0  0  0  0  0  0  0  0  0  0  0
   59.0990   30.1520   47.8540 C   0  0  2  0  0  0  0  0  0  0  0  0
   60.1350   31.2190   47.5010 C   0  0  0  0  0  0  0  0  0  0  0  0
   59.7010   32.4920   47.0830 C   0  0  0  0  0  0  0  0  0  0  0  0
   60.6240   33.4810   46.7340 C   0  0  0  0  0  0  0  0  0  0  0  0
   61.9940   33.2180   46.7970 C   0  0  0  0  0  0  0  0  0  0  0  0
   62.8990   34.2120   46.4460 O   0  0  0  0  0  0  0  0  0  0  0  0
   62.4450   31.9570   47.2150 C   0  0  0  0  0  0  0  0  0  0  0  0
   63.8070   31.6680   47.2920 O   0  0  0  0  0  0  0  0  0  0  0  0
   61.5190   30.9670   47.5640 C   0  0  0  0  0  0  0  0  0  0  0  0
   58.5569   31.2016   50.2482 H   0  0  0  0  0  0  0  0  0  0  0  0
   59.4125   29.8755   51.3156 H   0  0  0  0  0  0  0  0  0  0  0  0
   61.2147   28.4460   49.3838 H   0  0  0  0  0  0  0  0  0  0  0  0
   59.7957   27.7514   50.2901 H   0  0  0  0  0  0  0  0  0  0  0  0
   60.5898   26.4461   48.2467 H   0  0  0  0  0  0  0  0  0  0  0  0
   58.8293   26.8819   48.3321 H   0  0  0  0  0  0  0  0  0  0  0  0
   60.9483   28.3802   46.7227 H   0  0  0  0  0  0  0  0  0  0  0  0
   59.7541   27.2061   46.0583 H   0  0  0  0  0  0  0  0  0  0  0  0
   57.9073   28.6117   46.9197 H   0  0  0  0  0  0  0  0  0  0  0  0
   59.3725   30.6575   45.3654 H   0  0  0  0  0  0  0  0  0  0  0  0
   59.2864   28.9367   44.6665 H   0  0  0  0  0  0  0  0  0  0  0  0
   58.0150   31.3223   43.0039 H   0  0  0  0  0  0  0  0  0  0  0  0
   56.5486   30.9228   42.6970 H   0  0  0  0  0  0  0  0  0  0  0  0
   58.1313   30.6718   47.9118 H   0  0  0  0  0  0  0  0  0  0  0  0
   58.6240   32.7098   47.0308 H   0  0  0  0  0  0  0  0  0  0  0  0
   60.2703   34.4704   46.4084 H   0  0  0  0  0  0  0  0  0  0  0  0
   64.5160   32.3400   47.0200 H   0  0  0  0  0  0  0  0  0  0  0  0
   61.8769   29.9798   47.8916 H   0  0  0  0  0  0  0  0  0  0  0  0
  1  2  2  0
  2  3  1  0
  3  4  1  0
  4  5  1  0
  5  6  1  0
  6  7  1  0
  8  7  1  1
  8  9  1  0
  9 10  2  0
  9 11  1  0
  8 12  1  0
 12 13  1  0
  6 14  1  0
 14 15  1  0
 15 16  2  0
 16 17  1  0
 17 18  2  0
 18 19  1  0
 18 20  1  0
 20 21  1  0
 20 22  2  0
 14  2  1  0
 22 15  1  0
 13  8  1  0
  1 23  1  0
  1 24  1  0
  3 25  1  0
  3 26  1  0
  4 27  1  0
  4 28  1  0
  5 29  1  0
  5 30  1  0
  6 31  1  1
  7 32  1  0
  7 33  1  0
 12 34  1  0
 12 35  1  0
 14 36  1  1
 16 37  1  0
 17 38  1  0
 21 39  1  0
 22 40  1  0
M  CHG  2  11  -1  19  -1
M  END
>  <UniqueID>  (29) 
29

>  <SMILES>  (29) 
C=C1CCC[C@H](C[C@]2(C(=O)[O-])CO2)C1c1ccc([O-])c(O)c1

>  <Energy>  (29) 
377.03222166176124

>  <Genealogy>  (29) 
C=C1CCCC(CC2(C(=O)[O-])CO2)C1c1ccc([O-])c(O)c1 (protonated)
C=C1CCC[C@H](C[C@]2(C(=O)[O-])CO2)C1c1ccc([O-])c(O)c1 (chirality)
C=C1CCC[C@H](C[C@]2(C(=O)[O-])CO2)C1c1ccc([O-])c(O)c1 (3D coordinates assigned)
C=C1CCC[C@H](C[C@]2(C(=O)[O-])CO2)C1c1ccc([O-])c(O)c1 (nonaromatic ring conformer: 377.03222166176124 kcal/mol)

>  <smiles>  (29) 
C=C1CCCC(CC2(C(=O)O)CO2)C1c1ccc(O)c(O)c1

>  <score_type>  (29) 
oracle

>  <origin>  (29) 
adg

>  <m_score__min__energy>  (29) 
-12.57

>  <m_primary>  (29) 
energy

$$$$
29:0
     RDKit          3D

 48 50  0  0  1  0  0  0  0  0999 V2000
   65.1130   33.0780   49.6190 C   0  0  0  0  0  0  0  0  0  0  0  0
   64.0520   32.3700   48.8620 C   0  0  0  0  0  0  0  0  0  0  0  0
   63.8270   32.6280   47.6340 O   0  0  0  0  0  0  0  0  0  0  0  0
   63.2980   31.3920   49.5630 N   0  0  0  0  0  0  0  0  0  0  0  0
   62.1020   31.1380   49.1360 C   0  0  0  0  0  0  0  0  0  0  0  0
   61.4800   32.0490   48.3330 N   0  0  0  0  0  0  0  0  0  0  0  0
   60.2440   31.8720   47.8440 C   0  0  0  0  0  0  0  0  0  0  0  0
   59.5360   32.8000   46.9900 C   0  0  0  0  0  0  0  0  0  0  0  0
   58.1650   32.6620   46.7900 C   0  0  0  0  0  0  0  0  0  0  0  0
   57.4480   33.5410   45.9730 C   0  0  0  0  0  0  0  0  0  0  0  0
   58.0540   34.5730   45.3320 C   0  0  0  0  0  0  0  0  0  0  0  0
   59.4090   34.7320   45.5130 C   0  0  0  0  0  0  0  0  0  0  0  0
   60.1270   33.8580   46.3280 C   0  0  0  0  0  0  0  0  0  0  0  0
   61.4820   34.1330   46.4230 O   0  0  0  0  0  0  0  0  0  0  0  0
   59.6250   30.6770   48.2150 C   0  0  0  0  0  0  0  0  0  0  0  0
   60.2850   29.7560   49.0410 C   0  0  0  0  0  0  0  0  0  0  0  0
   59.7180   28.6560   49.3840 N   0  0  0  0  0  0  0  0  0  0  0  0
   60.0060   27.3750   48.7690 C   0  0  0  0  0  0  0  0  0  0  0  0
   60.6710   27.5670   47.4240 C   0  0  0  0  0  0  0  0  0  0  0  0
   59.8110   28.2340   46.4350 C   0  0  0  0  0  0  0  0  0  0  0  0
   60.1970   28.8890   45.2430 C   0  0  0  0  0  0  0  0  0  0  0  0
   59.2480   29.4250   44.4940 C   0  0  0  0  0  0  0  0  0  0  0  0
   57.9340   29.3220   44.9040 C   0  0  0  0  0  0  0  0  0  0  0  0
   56.4420   29.8880   44.2010 S   0  0  0  0  0  0  0  0  0  0  0  0
   56.4830   29.7330   42.4780 N   0  0  0  0  0  0  0  0  0  0  0  0
   55.2700   29.1350   44.7750 O   0  0  0  0  0  0  0  0  0  0  0  0
   56.3020   31.3280   44.5280 O   0  0  0  0  0  0  0  0  0  0  0  0
   58.0420   28.3860   46.4910 S   0  0  0  0  0  0  0  0  0  0  0  0
   61.5220   29.9850   49.5010 N   0  0  0  0  0  0  0  0  0  0  0  0
   64.9350   32.9592   50.6980 H   0  0  0  0  0  0  0  0  0  0  0  0
   66.0939   32.6528   49.3602 H   0  0  0  0  0  0  0  0  0  0  0  0
   65.0969   34.1470   49.3602 H   0  0  0  0  0  0  0  0  0  0  0  0
   62.0190   32.8850   48.1230 H   0  0  0  0  0  0  0  0  0  0  0  0
   57.6317   31.8391   47.2883 H   0  0  0  0  0  0  0  0  0  0  0  0
   56.3654   33.3927   45.8463 H   0  0  0  0  0  0  0  0  0  0  0  0
   57.4816   35.2586   44.6899 H   0  0  0  0  0  0  0  0  0  0  0  0
   59.9316   35.5583   45.0088 H   0  0  0  0  0  0  0  0  0  0  0  0
   62.0940   33.3230   46.5340 H   0  0  0  0  0  0  0  0  0  0  0  0
   58.6092   30.4557   47.8557 H   0  0  0  0  0  0  0  0  0  0  0  0
   60.6771   26.8017   49.4254 H   0  0  0  0  0  0  0  0  0  0  0  0
   59.0608   26.8317   48.6227 H   0  0  0  0  0  0  0  0  0  0  0  0
   61.5755   28.1766   47.5665 H   0  0  0  0  0  0  0  0  0  0  0  0
   60.9008   26.5658   47.0305 H   0  0  0  0  0  0  0  0  0  0  0  0
   61.2548   28.9509   44.9475 H   0  0  0  0  0  0  0  0  0  0  0  0
   59.5019   29.9450   43.5585 H   0  0  0  0  0  0  0  0  0  0  0  0
   55.6970   29.1240   42.1980 H   0  0  0  0  0  0  0  0  0  0  0  0
   57.3920   29.3390   42.1890 H   0  0  0  0  0  0  0  0  0  0  0  0
   62.0090   29.3080   50.1100 H   0  0  0  0  0  0  0  0  0  0  0  0
  1  2  1  0
  2  3  2  0
  2  4  1  0
  4  5  2  0
  5  6  1  0
  6  7  1  0
  7  8  1  0
  8  9  2  0
  9 10  1  0
 10 11  2  0
 11 12  1  0
 12 13  2  0
 13 14  1  0
  7 15  2  0
 15 16  1  0
 16 17  2  0
 17 18  1  0
 18 19  1  0
 19 20  1  0
 20 21  2  0
 21 22  1  0
 22 23  2  0
 23 24  1  0
 24 25  1  0
 24 26  2  0
 24 27  2  0
 23 28  1  0
 16 29  1  0
 29  5  1  0
 13  8  1  0
 28 20  1  0
  1 30  1  0
  1 31  1  0
  1 32  1  0
  6 33  1  0
  9 34  1  0
 10 35  1  0
 11 36  1  0
 12 37  1  0
 14 38  1  0
 15 39  1  0
 18 40  1  0
 18 41  1  0
 19 42  1  0
 19 43  1  0
 21 44  1  0
 22 45  1  0
 25 46  1  0
 25 47  1  0
 29 48  1  0
M  END
>  <smiles>  (30) 
CC(=O)N=c1[nH]c(-c2ccccc2O)cc(=NCCc2ccc(S(N)(=O)=O)s2)[nH]1

>  <score_type>  (30) 
oracle

>  <origin>  (30) 
adg

>  <m_score__min__energy>  (30) 
-9.7799999999999994

>  <m_primary>  (30) 
energy

$$$$
30:0
     RDKit          3D

 74 77  0  0  0  0  0  0  0  0999 V2000
   66.1780   30.8460   51.2600 C   0  0  0  0  0  0  0  0  0  0  0  0
   64.9300   30.1060   51.7300 C   0  0  0  0  0  0  0  0  0  0  0  0
   63.7520   30.8250   51.3690 O   0  0  0  0  0  0  0  0  0  0  0  0
   63.4230   31.1560   50.0480 C   0  0  0  0  0  0  0  0  0  0  0  0
   64.1710   31.9290   49.3850 O   0  0  0  0  0  0  0  0  0  0  0  0
   62.2340   30.6160   49.4420 N   0  0  0  0  0  0  0  0  0  0  0  0
   61.9270   30.9490   48.0420 C   0  0  0  0  0  0  0  0  0  0  0  0
   60.6070   30.3200   47.5850 C   0  0  0  0  0  0  0  0  0  0  0  0
   60.5460   28.9130   48.0060 N   0  0  0  0  0  0  0  0  0  0  0  0
   60.2010   27.8720   47.0700 C   0  0  0  0  0  0  0  0  0  0  0  0
   60.7230   26.7310   47.1940 O   0  0  0  0  0  0  0  0  0  0  0  0
   59.2490   28.1020   45.9620 C   0  0  0  0  0  0  0  0  0  0  0  0
   58.7360   27.0270   45.2160 C   0  0  0  0  0  0  0  0  0  0  0  0
   57.8490   27.2630   44.1620 C   0  0  0  0  0  0  0  0  0  0  0  0
   57.4600   28.5690   43.8480 C   0  0  0  0  0  0  0  0  0  0  0  0
   57.9660   29.6480   44.5860 C   0  0  0  0  0  0  0  0  0  0  0  0
   57.4270   31.2940   44.2810 S   0  0  0  0  0  0  0  0  0  0  0  0
   57.7720   31.6660   42.8660 O   0  0  0  0  0  0  0  0  0  0  0  0
   55.9400   31.4120   44.4740 O   0  0  0  0  0  0  0  0  0  0  0  0
   58.2640   32.3310   45.4050 N   0  0  0  0  0  0  0  0  0  0  0  0
   57.3230   32.8880   46.3900 C   0  0  0  0  0  0  0  0  0  0  0  0
   58.1280   33.4830   47.5480 C   0  0  0  0  0  0  0  0  0  0  0  0
   59.3880   34.0620   47.0600 N   0  0  0  0  0  0  0  0  0  0  0  0
   60.5500   34.0950   47.9130 C   0  0  0  0  0  0  0  0  0  0  0  0
   61.7010   34.0490   47.3980 O   0  0  0  0  0  0  0  0  0  0  0  0
   60.4060   34.1230   49.3460 N   0  0  0  0  0  0  0  0  0  0  0  0
   61.5120   33.9900   50.2560 C   0  0  0  0  0  0  0  0  0  0  0  0
   62.7400   34.6140   49.9610 C   0  0  0  0  0  0  0  0  0  0  0  0
   63.8010   34.5610   50.8650 C   0  0  0  0  0  0  0  0  0  0  0  0
   63.6490   33.9020   52.0840 C   0  0  0  0  0  0  0  0  0  0  0  0
   62.4330   33.2970   52.4050 C   0  0  0  0  0  0  0  0  0  0  0  0
   61.3530   33.3290   51.5020 C   0  0  0  0  0  0  0  0  0  0  0  0
   60.0870   32.6540   51.8790 C   0  0  0  0  0  0  0  0  0  0  0  0
   60.1260   31.5760   52.5340 O   0  0  0  0  0  0  0  0  0  0  0  0
   58.8540   33.1880   51.4880 O   0  0  0  0  0  0  0  0  0  0  0  0
   57.8090   33.4650   52.4140 C   0  0  0  0  0  0  0  0  0  0  0  0
   59.4630   34.5120   45.6610 C   0  0  0  0  0  0  0  0  0  0  0  0
   58.9880   33.4040   44.6970 C   0  0  0  0  0  0  0  0  0  0  0  0
   58.8680   29.4120   45.6300 C   0  0  0  0  0  0  0  0  0  0  0  0
   60.9190   28.5400   49.3780 C   0  0  0  0  0  0  0  0  0  0  0  0
   61.3150   29.7640   50.2100 C   0  0  0  0  0  0  0  0  0  0  0  0
   66.7529   31.1869   52.1336 H   0  0  0  0  0  0  0  0  0  0  0  0
   66.7987   30.1699   50.6537 H   0  0  0  0  0  0  0  0  0  0  0  0
   65.8825   31.7150   50.6537 H   0  0  0  0  0  0  0  0  0  0  0  0
   64.9029   29.1105   51.2628 H   0  0  0  0  0  0  0  0  0  0  0  0
   64.9656   30.0124   52.8254 H   0  0  0  0  0  0  0  0  0  0  0  0
   61.8536   32.0421   47.9437 H   0  0  0  0  0  0  0  0  0  0  0  0
   62.7337   30.5490   47.4101 H   0  0  0  0  0  0  0  0  0  0  0  0
   59.7670   30.8708   48.0334 H   0  0  0  0  0  0  0  0  0  0  0  0
   60.5445   30.3708   46.4879 H   0  0  0  0  0  0  0  0  0  0  0  0
   59.0334   25.9970   45.4624 H   0  0  0  0  0  0  0  0  0  0  0  0
   57.4555   26.4184   43.5774 H   0  0  0  0  0  0  0  0  0  0  0  0
   56.7568   28.7496   43.0217 H   0  0  0  0  0  0  0  0  0  0  0  0
   56.7145   33.6739   45.9187 H   0  0  0  0  0  0  0  0  0  0  0  0
   56.6551   32.0973   46.7623 H   0  0  0  0  0  0  0  0  0  0  0  0
   57.5333   34.2701   48.0346 H   0  0  0  0  0  0  0  0  0  0  0  0
   58.3606   32.6825   48.2657 H   0  0  0  0  0  0  0  0  0  0  0  0
   59.4480   34.2200   49.7530 H   0  0  0  0  0  0  0  0  0  0  0  0
   62.8635   35.1487   49.0077 H   0  0  0  0  0  0  0  0  0  0  0  0
   64.7593   35.0400   50.6156 H   0  0  0  0  0  0  0  0  0  0  0  0
   64.4884   33.8588   52.7936 H   0  0  0  0  0  0  0  0  0  0  0  0
   62.3170   32.7896   53.3740 H   0  0  0  0  0  0  0  0  0  0  0  0
   58.1920   33.3635   53.4402 H   0  0  0  0  0  0  0  0  0  0  0  0
   57.4439   34.4909   52.2587 H   0  0  0  0  0  0  0  0  0  0  0  0
   56.9836   32.7546   52.2587 H   0  0  0  0  0  0  0  0  0  0  0  0
   58.8238   35.3981   45.5334 H   0  0  0  0  0  0  0  0  0  0  0  0
   60.5100   34.7550   45.4268 H   0  0  0  0  0  0  0  0  0  0  0  0
   58.3186   33.8490   43.9461 H   0  0  0  0  0  0  0  0  0  0  0  0
   59.8764   32.9605   44.2236 H   0  0  0  0  0  0  0  0  0  0  0  0
   59.2819   30.2601   46.1952 H   0  0  0  0  0  0  0  0  0  0  0  0
   60.0623   28.0445   49.8582 H   0  0  0  0  0  0  0  0  0  0  0  0
   61.7862   27.8653   49.3263 H   0  0  0  0  0  0  0  0  0  0  0  0
   60.4125   30.3387   50.4653 H   0  0  0  0  0  0  0  0  0  0  0  0
   61.8159   29.4292   51.1303 H   0  0  0  0  0  0  0  0  0  0  0  0
  1  2  1  0
  2  3  1  0
  3  4  1  0
  4  5  2  0
  4  6  1  0
  6  7  1  0
  7  8  1  0
  8  9  1  0
  9 10  1  0
 10 11  2  0
 10 12  1  0
 12 13  2  0
 13 14  1  0
 14 15  2  0
 15 16  1  0
 16 17  1  0
 17 18  2  0
 17 19  2  0
 17 20  1  0
 20 21  1  0
 21 22  1  0
 22 23  1  0
 23 24  1  0
 24 25  2  0
 24 26  1  0
 26 27  1  0
 27 28  2  0
 28 29  1  0
 29 30  2  0
 30 31  1  0
 31 32  2  0
 32 33  1  0
 33 34  2  0
 33 35  1  0
 35 36  1  0
 23 37  1  0
 37 38  1  0
 16 39  2  0
  9 40  1  0
 40 41  1  0
 41  6  1  0
 39 12  1  0
 38 20  1  0
 32 27  1  0
  1 42  1  0
  1 43  1  0
  1 44  1  0
  2 45  1  0
  2 46  1  0
  7 47  1  0
  7 48  1  0
  8 49  1  0
  8 50  1  0
 13 51  1  0
 14 52  1  0
 15 53  1  0
 21 54  1  0
 21 55  1  0
 22 56  1  0
 22 57  1  0
 26 58  1  0
 28 59  1  0
 29 60  1  0
 30 61  1  0
 31 62  1  0
 36 63  1  0
 36 64  1  0
 36 65  1  0
 37 66  1  0
 37 67  1  0
 38 68  1  0
 38 69  1  0
 39 70  1  0
 40 71  1  0
 40 72  1  0
 41 73  1  0
 41 74  1  0
M  END
>  <UniqueID>  (31) 
30

>  <SMILES>  (31) 
CCOC(=O)N1CCN(C(=O)c2cccc(S(=O)(=O)N3CCN(C(=O)Nc4ccccc4C(=O)OC)CC3)c2)CC1

>  <Energy>  (31) 
85.47504760246406

>  <Genealogy>  (31) 
CCOC(=O)N1CCN(C(=O)c2cccc(S(=O)(=O)N3CCN(C(=O)Nc4ccccc4C(=O)OC)CC3)c2)CC1 (3D coordinates assigned)
CCOC(=O)N1CCN(C(=O)c2cccc(S(=O)(=O)N3CCN(C(=O)Nc4ccccc4C(=O)OC)CC3)c2)CC1 (nonaromatic ring conformer: 85.47504760246406 kcal/mol)

>  <smiles>  (31) 
CCOC(=O)N1CCN(C(=O)c2cccc(S(=O)(=O)N3CCN(C(=O)Nc4ccccc4C(=O)OC)CC3)c2)CC1

>  <score_type>  (31) 
oracle

>  <origin>  (31) 
adg

>  <m_score__min__energy>  (31) 
-9.2899999999999991

>  <m_primary>  (31) 
energy

$$$$
31:0
     RDKit          3D

 35 37  0  0  0  0  0  0  0  0999 V2000
   58.8290   33.4400   43.5270 C   0  0  0  0  0  0  0  0  0  0  0  0
   58.0800   32.2690   42.3530 S   0  0  0  0  0  0  0  0  0  0  0  0
   57.8570   30.9970   43.5900 C   0  0  0  0  0  0  0  0  0  0  0  0
   58.9370   30.4150   44.1660 N   0  0  0  0  0  0  0  0  0  0  0  0
   58.7980   29.4460   45.1040 C   0  0  0  0  0  0  0  0  0  0  0  0
   59.8330   28.9400   45.6180 O   0  0  0  0  0  0  0  0  0  0  0  0
   57.5130   29.0120   45.4980 C   0  0  0  0  0  0  0  0  0  0  0  0
   57.3890   27.9190   46.5660 C   0  0  2  0  0  0  0  0  0  0  0  0
   58.4790   27.9290   47.6170 C   0  0  0  0  0  0  0  0  0  0  0  0
   59.2170   26.8620   48.0980 C   0  0  0  0  0  0  0  0  0  0  0  0
   60.0850   27.3920   49.0340 C   0  0  0  0  0  0  0  0  0  0  0  0
   61.1220   26.6150   49.7740 C   0  0  0  0  0  0  0  0  0  0  0  0
   59.9400   28.7290   49.1450 N   0  0  0  0  0  0  0  0  0  0  0  0
   58.9550   29.0410   48.2820 C   0  0  0  0  0  0  0  0  0  0  0  0
   58.4940   30.3390   48.0930 O   0  0  0  0  0  0  0  0  0  0  0  0
   57.1800   26.5350   45.9500 C   0  0  0  0  0  0  0  0  0  0  0  0
   55.9030   25.9430   45.8450 C   0  0  0  0  0  0  0  0  0  0  0  0
   54.7660   26.6000   46.2970 O   0  0  0  0  0  0  0  0  0  0  0  0
   55.7630   24.7140   45.2840 N   0  0  0  0  0  0  0  0  0  0  0  0
   56.8320   24.0350   44.8020 C   0  0  0  0  0  0  0  0  0  0  0  0
   56.6750   22.8980   44.2890 O   0  0  0  0  0  0  0  0  0  0  0  0
   58.0700   24.5840   44.8670 N   0  0  0  0  0  0  0  0  0  0  0  0
   58.2690   25.8080   45.4190 C   0  0  0  0  0  0  0  0  0  0  0  0
   59.4370   26.2810   45.4440 O   0  0  0  0  0  0  0  0  0  0  0  0
   56.4060   29.6580   44.8940 C   0  0  0  0  0  0  0  0  0  0  0  0
   55.0980   29.3420   45.2390 O   0  0  0  0  0  0  0  0  0  0  0  0
   56.6090   30.6220   43.9590 N   0  0  0  0  0  0  0  0  0  0  0  0
   58.6194   33.1123   44.5559 H   0  0  0  0  0  0  0  0  0  0  0  0
   59.9168   33.4739   43.3674 H   0  0  0  0  0  0  0  0  0  0  0  0
   58.4036   34.4418   43.3674 H   0  0  0  0  0  0  0  0  0  0  0  0
   56.4757   28.1742   47.1234 H   0  0  0  0  0  0  0  0  0  0  0  0
   59.1306   25.8075   47.7970 H   0  0  0  0  0  0  0  0  0  0  0  0
   60.9652   26.7325   50.8564 H   0  0  0  0  0  0  0  0  0  0  0  0
   61.0441   25.5511   49.5055 H   0  0  0  0  0  0  0  0  0  0  0  0
   62.1212   26.9886   49.5055 H   0  0  0  0  0  0  0  0  0  0  0  0
  1  2  1  0
  2  3  1  0
  3  4  2  0
  4  5  1  0
  5  6  2  0
  5  7  1  0
  7  8  1  0
  8  9  1  0
  9 10  1  0
 10 11  2  0
 11 12  1  0
 11 13  1  0
 13 14  1  0
 14 15  1  0
  8 16  1  0
 16 17  2  0
 17 18  1  0
 17 19  1  0
 19 20  1  0
 20 21  2  0
 20 22  1  0
 22 23  1  0
 23 24  2  0
  7 25  2  0
 25 26  1  0
 25 27  1  0
 27  3  1  0
 14  9  2  0
 23 16  1  0
  1 28  1  0
  1 29  1  0
  1 30  1  0
  8 31  1  1
 10 32  1  0
 12 33  1  0
 12 34  1  0
 12 35  1  0
M  CHG  7  13  -1  15  -1  18  -1  19  -1  22  -1  26  -1  27  -1
M  END
>  <UniqueID>  (32) 
31

>  <SMILES>  (32) 
CSc1nc(=O)c([C@H](c2cc(C)[n-]c2[O-])c2c([O-])[n-]c(=O)[n-]c2=O)c([O-])[n-]1

>  <Energy>  (32) 
70.3994145832887

>  <Genealogy>  (32) 
CSc1nc(=O)c(C(c2cc(C)[n-]c2[O-])c2c([O-])[n-]c(=O)[n-]c2=O)c([O-])[n-]1 (protonated)
CSc1nc(=O)c([C@H](c2cc(C)[n-]c2[O-])c2c([O-])[n-]c(=O)[n-]c2=O)c([O-])[n-]1 (chirality)
CSc1nc(=O)c([C@H](c2cc(C)[n-]c2[O-])c2c([O-])[n-]c(=O)[n-]c2=O)c([O-])[n-]1 (3D coordinates assigned)
CSc1nc(=O)c([C@H](c2cc(C)[n-]c2[O-])c2c([O-])[n-]c(=O)[n-]c2=O)c([O-])[n-]1 (optimized conformer: 70.3994145832887 kcal/mol)

>  <smiles>  (32) 
CSc1nc(=O)c(C(c2cc(C)[nH]c2O)c2c(O)[nH]c(=O)[nH]c2=O)c(O)[nH]1

>  <score_type>  (32) 
oracle

>  <origin>  (32) 
adg

>  <m_score__min__energy>  (32) 
-18.510000000000002

>  <m_primary>  (32) 
energy

$$$$
32:0
     RDKit          3D

 55 57  0  0  0  0  0  0  0  0999 V2000
   58.5020   33.7680   44.3660 C   0  0  0  0  0  0  0  0  0  0  0  0
   57.5920   32.9340   45.1570 N   0  0  0  0  0  0  0  0  0  0  0  0
   57.6780   33.1040   46.6260 C   0  0  0  0  0  0  0  0  0  0  0  0
   58.7850   34.0560   47.1350 C   0  0  0  0  0  0  0  0  0  0  0  0
   60.1250   33.4000   47.3410 C   0  0  0  0  0  0  0  0  0  0  0  0
   61.2970   34.0190   46.8720 C   0  0  0  0  0  0  0  0  0  0  0  0
   62.5240   33.3510   46.9410 C   0  0  0  0  0  0  0  0  0  0  0  0
   62.5900   32.0570   47.4640 C   0  0  0  0  0  0  0  0  0  0  0  0
   61.4290   31.4300   47.9240 C   0  0  0  0  0  0  0  0  0  0  0  0
   60.2010   32.0980   47.8660 C   0  0  0  0  0  0  0  0  0  0  0  0
   57.4900   31.2780   44.5860 S   0  0  0  0  0  0  0  0  0  0  0  0
   58.0470   31.2300   43.1910 O   0  0  0  0  0  0  0  0  0  0  0  0
   56.0540   30.8360   44.5180 O   0  0  0  0  0  0  0  0  0  0  0  0
   58.4040   30.1260   45.5660 C   0  0  0  0  0  0  0  0  0  0  0  0
   57.8040   29.4940   46.6630 C   0  0  0  0  0  0  0  0  0  0  0  0
   58.5250   28.5770   47.4320 C   0  0  0  0  0  0  0  0  0  0  0  0
   59.8520   28.2730   47.1120 C   0  0  0  0  0  0  0  0  0  0  0  0
   60.5620   27.3350   47.9330 N   0  0  0  0  0  0  0  0  0  0  0  0
   60.7620   27.4140   49.3520 C   0  0  0  0  0  0  0  0  0  0  0  0
   60.9260   26.3410   49.9930 O   0  0  0  0  0  0  0  0  0  0  0  0
   60.7260   28.7000   50.0900 C   0  0  0  0  0  0  0  0  0  0  0  0
   61.8980   29.1950   50.6880 C   0  0  0  0  0  0  0  0  0  0  0  0
   61.8790   30.4030   51.3890 C   0  0  0  0  0  0  0  0  0  0  0  0
   60.6900   31.1250   51.5090 C   0  0  0  0  0  0  0  0  0  0  0  0
   59.5090   30.6370   50.9370 C   0  0  0  0  0  0  0  0  0  0  0  0
   58.0070   31.5510   51.0800 S   0  0  0  0  0  0  0  0  0  0  0  0
   58.1070   32.6940   52.4410 C   0  0  0  0  0  0  0  0  0  0  0  0
   57.7600   32.3360   49.8230 O   0  0  0  0  0  0  0  0  0  0  0  0
   56.8650   30.5990   51.2960 O   0  0  0  0  0  0  0  0  0  0  0  0
   59.5280   29.4250   50.2310 C   0  0  0  0  0  0  0  0  0  0  0  0
   60.4300   28.8460   45.9680 C   0  0  0  0  0  0  0  0  0  0  0  0
   59.7090   29.7640   45.1990 C   0  0  0  0  0  0  0  0  0  0  0  0
   59.1421   34.3546   45.0414 H   0  0  0  0  0  0  0  0  0  0  0  0
   59.1302   33.1254   43.7316 H   0  0  0  0  0  0  0  0  0  0  0  0
   57.9165   34.4497   43.7316 H   0  0  0  0  0  0  0  0  0  0  0  0
   56.7112   33.4942   46.9767 H   0  0  0  0  0  0  0  0  0  0  0  0
   57.9344   32.1114   47.0247 H   0  0  0  0  0  0  0  0  0  0  0  0
   58.9076   34.8650   46.3998 H   0  0  0  0  0  0  0  0  0  0  0  0
   58.4582   34.4178   48.1211 H   0  0  0  0  0  0  0  0  0  0  0  0
   61.2488   35.0332   46.4489 H   0  0  0  0  0  0  0  0  0  0  0  0
   63.4390   33.8455   46.5827 H   0  0  0  0  0  0  0  0  0  0  0  0
   63.5554   31.5321   47.5136 H   0  0  0  0  0  0  0  0  0  0  0  0
   61.4806   30.4099   48.3323 H   0  0  0  0  0  0  0  0  0  0  0  0
   59.2904   31.6020   48.2330 H   0  0  0  0  0  0  0  0  0  0  0  0
   56.7589   29.7211   46.9204 H   0  0  0  0  0  0  0  0  0  0  0  0
   58.0458   28.0910   48.2947 H   0  0  0  0  0  0  0  0  0  0  0  0
   62.8363   28.6272   50.6033 H   0  0  0  0  0  0  0  0  0  0  0  0
   62.8026   30.7862   51.8474 H   0  0  0  0  0  0  0  0  0  0  0  0
   60.6811   32.0801   52.0546 H   0  0  0  0  0  0  0  0  0  0  0  0
   58.0585   32.1395   53.3898 H   0  0  0  0  0  0  0  0  0  0  0  0
   59.0569   33.2461   52.3871 H   0  0  0  0  0  0  0  0  0  0  0  0
   57.2674   33.4027   52.3871 H   0  0  0  0  0  0  0  0  0  0  0  0
   58.6000   29.0385   49.7844 H   0  0  0  0  0  0  0  0  0  0  0  0
   61.4543   28.5714   45.6757 H   0  0  0  0  0  0  0  0  0  0  0  0
   60.1671   30.2049   44.3014 H   0  0  0  0  0  0  0  0  0  0  0  0
  1  2  1  0
  2  3  1  0
  3  4  1  0
  4  5  1  0
  5  6  2  0
  6  7  1  0
  7  8  2  0
  8  9  1  0
  9 10  2  0
  2 11  1  0
 11 12  2  0
 11 13  2  0
 11 14  1  0
 14 15  2  0
 15 16  1  0
 16 17  2  0
 17 18  1  0
 18 19  1  0
 19 20  2  0
 19 21  1  0
 21 22  2  0
 22 23  1  0
 23 24  2  0
 24 25  1  0
 25 26  1  0
 26 27  1  0
 26 28  2  0
 26 29  2  0
 25 30  2  0
 17 31  1  0
 31 32  2  0
 10  5  1  0
 32 14  1  0
 30 21  1  0
  1 33  1  0
  1 34  1  0
  1 35  1  0
  3 36  1  0
  3 37  1  0
  4 38  1  0
  4 39  1  0
  6 40  1  0
  7 41  1  0
  8 42  1  0
  9 43  1  0
 10 44  1  0
 15 45  1  0
 16 46  1  0
 22 47  1  0
 23 48  1  0
 24 49  1  0
 27 50  1  0
 27 51  1  0
 27 52  1  0
 30 53  1  0
 31 54  1  0
 32 55  1  0
M  CHG  1  18  -1
M  END
>  <UniqueID>  (33) 
32

>  <SMILES>  (33) 
CN(CCc1ccccc1)S(=O)(=O)c1ccc([N-]C(=O)c2cccc(S(C)(=O)=O)c2)cc1

>  <Energy>  (33) 
63.75043309521689

>  <Genealogy>  (33) 
CN(CCc1ccccc1)S(=O)(=O)c1ccc([N-]C(=O)c2cccc(S(C)(=O)=O)c2)cc1 (protonated)
CN(CCc1ccccc1)S(=O)(=O)c1ccc([N-]C(=O)c2cccc(S(C)(=O)=O)c2)cc1 (3D coordinates assigned)
CN(CCc1ccccc1)S(=O)(=O)c1ccc([N-]C(=O)c2cccc(S(C)(=O)=O)c2)cc1 (optimized conformer: 63.75043309521689 kcal/mol)

>  <smiles>  (33) 
CN(CCc1ccccc1)S(=O)(=O)c1ccc(NC(=O)c2cccc(S(C)(=O)=O)c2)cc1

>  <score_type>  (33) 
oracle

>  <origin>  (33) 
adg

>  <m_score__min__energy>  (33) 
-11.27

>  <m_primary>  (33) 
energy

$$$$
33:0
     RDKit          3D

 51 54  0  0  0  0  0  0  0  0999 V2000
   60.7620   28.6430   46.5180 O   0  0  0  0  0  0  0  0  0  0  0  0
   59.6840   29.1350   46.9490 C   0  0  0  0  0  0  0  0  0  0  0  0
   58.4790   29.0350   46.1800 N   0  0  0  0  0  0  0  0  0  0  0  0
   57.7740   30.1780   45.6140 C   0  0  0  0  0  0  0  0  0  0  0  0
   58.7570   31.2580   45.1360 C   0  0  0  0  0  0  0  0  0  0  0  0
   59.0820   32.2540   46.2220 C   0  0  0  0  0  0  0  0  0  0  0  0
   60.2530   33.0330   46.1610 C   0  0  0  0  0  0  0  0  0  0  0  0
   60.5470   33.9430   47.1830 C   0  0  0  0  0  0  0  0  0  0  0  0
   59.6760   34.0860   48.2750 C   0  0  0  0  0  0  0  0  0  0  0  0
   59.9590   34.9930   49.2950 O   0  0  0  0  0  0  0  0  0  0  0  0
   58.5120   33.3130   48.3390 C   0  0  0  0  0  0  0  0  0  0  0  0
   58.2110   32.4060   47.3180 C   0  0  0  0  0  0  0  0  0  0  0  0
   59.6560   29.8140   48.2570 C   0  0  0  0  0  0  0  0  0  0  0  0
   58.4720   29.8220   49.0120 C   0  0  0  0  0  0  0  0  0  0  0  0
   58.4350   30.4650   50.2570 C   0  0  0  0  0  0  0  0  0  0  0  0
   57.2560   30.5120   51.0130 C   0  0  0  0  0  0  0  0  0  0  0  0
   57.2350   31.1660   52.2520 C   0  0  0  0  0  0  0  0  0  0  0  0
   56.0020   31.2020   52.9830 N   0  0  0  0  0  0  0  0  0  0  0  0
   54.7130   30.0480   52.8450 S   0  0  0  0  0  0  0  0  0  0  0  0
   54.1470   29.7830   54.2100 O   0  0  0  0  0  0  0  0  0  0  0  0
   55.2470   28.7610   52.2830 O   0  0  0  0  0  0  0  0  0  0  0  0
   53.4460   30.6830   51.8040 C   0  0  0  0  0  0  0  0  0  0  0  0
   53.0970   30.0010   50.6310 C   0  0  0  0  0  0  0  0  0  0  0  0
   52.0710   30.4850   49.8150 C   0  0  0  0  0  0  0  0  0  0  0  0
   51.3800   31.6460   50.1730 C   0  0  0  0  0  0  0  0  0  0  0  0
   50.3460   32.1120   49.3650 O   0  0  0  0  0  0  0  0  0  0  0  0
   51.7210   32.3310   51.3460 C   0  0  0  0  0  0  0  0  0  0  0  0
   51.0240   33.4780   51.7110 O   0  0  0  0  0  0  0  0  0  0  0  0
   52.7590   31.8520   52.1590 C   0  0  0  0  0  0  0  0  0  0  0  0
   58.4190   31.7320   52.7580 C   0  0  0  0  0  0  0  0  0  0  0  0
   59.5970   31.6950   52.0060 C   0  0  0  0  0  0  0  0  0  0  0  0
   60.7560   32.2690   52.5140 O   0  0  0  0  0  0  0  0  0  0  0  0
   59.6080   31.0770   50.7480 C   0  0  0  0  0  0  0  0  0  0  0  0
   60.7450   31.0510   50.0010 N   0  0  0  0  0  0  0  0  0  0  0  0
   60.7980   30.4490   48.7830 C   0  0  0  0  0  0  0  0  0  0  0  0
   61.8860   30.4480   48.1440 O   0  0  0  0  0  0  0  0  0  0  0  0
   57.1700   29.8394   44.7593 H   0  0  0  0  0  0  0  0  0  0  0  0
   57.1328   30.6126   46.3950 H   0  0  0  0  0  0  0  0  0  0  0  0
   59.6884   30.7708   44.8119 H   0  0  0  0  0  0  0  0  0  0  0  0
   58.2818   31.8044   44.3079 H   0  0  0  0  0  0  0  0  0  0  0  0
   60.9389   32.9262   45.3077 H   0  0  0  0  0  0  0  0  0  0  0  0
   61.4639   34.5484   47.1305 H   0  0  0  0  0  0  0  0  0  0  0  0
   59.4240   35.8480   49.4090 H   0  0  0  0  0  0  0  0  0  0  0  0
   57.8306   33.4190   49.1960 H   0  0  0  0  0  0  0  0  0  0  0  0
   57.2891   31.8082   47.3713 H   0  0  0  0  0  0  0  0  0  0  0  0
   57.5714   29.3225   48.6255 H   0  0  0  0  0  0  0  0  0  0  0  0
   56.3422   30.0329   50.6317 H   0  0  0  0  0  0  0  0  0  0  0  0
   53.6323   29.0816   50.3515 H   0  0  0  0  0  0  0  0  0  0  0  0
   51.8069   29.9517   48.8899 H   0  0  0  0  0  0  0  0  0  0  0  0
   53.0340   32.3942   53.0757 H   0  0  0  0  0  0  0  0  0  0  0  0
   58.4181   32.2062   53.7505 H   0  0  0  0  0  0  0  0  0  0  0  0
  1  2  2  0
  2  3  1  0
  3  4  1  0
  4  5  1  0
  5  6  1  0
  6  7  2  0
  7  8  1  0
  8  9  2  0
  9 10  1  0
  9 11  1  0
 11 12  2  0
  2 13  1  0
 13 14  2  0
 14 15  1  0
 15 16  2  0
 16 17  1  0
 17 18  1  0
 18 19  1  0
 19 20  2  0
 19 21  2  0
 19 22  1  0
 22 23  2  0
 23 24  1  0
 24 25  2  0
 25 26  1  0
 25 27  1  0
 27 28  1  0
 27 29  2  0
 17 30  2  0
 30 31  1  0
 31 32  1  0
 31 33  2  0
 33 34  1  0
 34 35  1  0
 35 36  2  0
 12  6  1  0
 35 13  1  0
 33 15  1  0
 29 22  1  0
  4 37  1  0
  4 38  1  0
  5 39  1  0
  5 40  1  0
  7 41  1  0
  8 42  1  0
 10 43  1  0
 11 44  1  0
 12 45  1  0
 14 46  1  0
 16 47  1  0
 23 48  1  0
 24 49  1  0
 29 50  1  0
 30 51  1  0
M  CHG  6   3  -1  18  -1  26  -1  28  -1  32  -1  34  -1
M  END
>  <UniqueID>  (34) 
33

>  <SMILES>  (34) 
O=C([N-]CCc1ccc(O)cc1)c1cc2cc([N-]S(=O)(=O)c3ccc([O-])c([O-])c3)cc([O-])c2[n-]c1=O

>  <Energy>  (34) 
65.25819014477702

>  <Genealogy>  (34) 
O=C([N-]CCc1ccc(O)cc1)c1cc2cc([N-]S(=O)(=O)c3ccc([O-])c([O-])c3)cc([O-])c2[n-]c1=O (protonated)
O=C([N-]CCc1ccc(O)cc1)c1cc2cc([N-]S(=O)(=O)c3ccc([O-])c([O-])c3)cc([O-])c2[n-]c1=O (3D coordinates assigned)
O=C([N-]CCc1ccc(O)cc1)c1cc2cc([N-]S(=O)(=O)c3ccc([O-])c([O-])c3)cc([O-])c2[n-]c1=O (optimized conformer: 65.25819014477702 kcal/mol)

>  <smiles>  (34) 
O=C(NCCc1ccc(O)cc1)c1cc2cc(NS(=O)(=O)c3ccc(O)c(O)c3)cc(O)c2[nH]c1=O

>  <score_type>  (34) 
oracle

>  <origin>  (34) 
adg

>  <m_score__min__energy>  (34) 
-20.190000000000001

>  <m_primary>  (34) 
energy

$$$$
34:0
     RDKit          3D

 48 50  0  0  0  0  0  0  0  0999 V2000
   57.0630   33.0980   47.3520 O   0  0  0  0  0  0  0  0  0  0  0  0
   58.0880   33.0090   46.6220 C   0  0  0  0  0  0  0  0  0  0  0  0
   58.0270   32.1550   45.3910 C   0  0  0  0  0  0  0  0  0  0  0  0
   56.6460   31.7420   45.1680 N   0  0  0  0  0  0  0  0  0  0  0  0
   56.6020   30.1570   44.4630 S   0  0  0  0  0  0  0  0  0  0  0  0
   55.3190   29.4720   44.8420 O   0  0  0  0  0  0  0  0  0  0  0  0
   56.6900   30.2500   42.9650 O   0  0  0  0  0  0  0  0  0  0  0  0
   57.9830   29.2480   45.0660 C   0  0  0  0  0  0  0  0  0  0  0  0
   57.7990   28.3230   46.1030 C   0  0  0  0  0  0  0  0  0  0  0  0
   58.8790   27.5710   46.5730 C   0  0  0  0  0  0  0  0  0  0  0  0
   60.1490   27.7420   46.0130 C   0  0  0  0  0  0  0  0  0  0  0  0
   60.3380   28.6660   44.9810 C   0  0  0  0  0  0  0  0  0  0  0  0
   59.2580   29.4170   44.5060 C   0  0  0  0  0  0  0  0  0  0  0  0
   59.3020   33.6790   47.0170 N   0  0  0  0  0  0  0  0  0  0  0  0
   59.6120   33.7920   48.4450 C   0  0  0  0  0  0  0  0  0  0  0  0
   61.0160   34.3770   48.6830 C   0  0  0  0  0  0  0  0  0  0  0  0
   62.0430   33.8020   47.7810 N   0  0  0  0  0  0  0  0  0  0  0  0
   62.8800   32.7320   48.3670 C   0  0  0  0  0  0  0  0  0  0  0  0
   62.0860   31.5380   48.8560 C   0  0  0  0  0  0  0  0  0  0  0  0
   61.1290   30.9300   48.0230 C   0  0  0  0  0  0  0  0  0  0  0  0
   60.4050   29.8210   48.4700 C   0  0  0  0  0  0  0  0  0  0  0  0
   60.6140   29.3200   49.7580 C   0  0  0  0  0  0  0  0  0  0  0  0
   61.5360   29.9370   50.6060 C   0  0  0  0  0  0  0  0  0  0  0  0
   61.7190   29.4660   51.8630 F   0  0  0  0  0  0  0  0  0  0  0  0
   62.2610   31.0470   50.1630 C   0  0  0  0  0  0  0  0  0  0  0  0
   61.6470   33.5760   46.3700 C   0  0  0  0  0  0  0  0  0  0  0  0
   60.2790   34.1690   46.0390 C   0  0  0  0  0  0  0  0  0  0  0  0
   58.3843   32.7308   44.5245 H   0  0  0  0  0  0  0  0  0  0  0  0
   58.6639   31.2677   45.5221 H   0  0  0  0  0  0  0  0  0  0  0  0
   56.8020   28.1887   46.5479 H   0  0  0  0  0  0  0  0  0  0  0  0
   58.7300   26.8436   47.3846 H   0  0  0  0  0  0  0  0  0  0  0  0
   60.9985   27.1500   46.3842 H   0  0  0  0  0  0  0  0  0  0  0  0
   61.3374   28.8025   44.5421 H   0  0  0  0  0  0  0  0  0  0  0  0
   59.4086   30.1414   43.6920 H   0  0  0  0  0  0  0  0  0  0  0  0
   58.8680   34.4487   48.9196 H   0  0  0  0  0  0  0  0  0  0  0  0
   59.5850   32.7823   48.8807 H   0  0  0  0  0  0  0  0  0  0  0  0
   60.9752   35.4641   48.5200 H   0  0  0  0  0  0  0  0  0  0  0  0
   61.3064   34.1274   49.7142 H   0  0  0  0  0  0  0  0  0  0  0  0
   63.5897   32.3870   47.6007 H   0  0  0  0  0  0  0  0  0  0  0  0
   63.3861   33.1628   49.2435 H   0  0  0  0  0  0  0  0  0  0  0  0
   60.9495   31.3297   47.0140 H   0  0  0  0  0  0  0  0  0  0  0  0
   59.6696   29.3418   47.8070 H   0  0  0  0  0  0  0  0  0  0  0  0
   60.0522   28.4397   50.1036 H   0  0  0  0  0  0  0  0  0  0  0  0
   62.9733   31.5401   50.8409 H   0  0  0  0  0  0  0  0  0  0  0  0
   62.3993   34.0396   45.7149 H   0  0  0  0  0  0  0  0  0  0  0  0
   61.5846   32.4891   46.2127 H   0  0  0  0  0  0  0  0  0  0  0  0
   60.3307   35.2668   46.0863 H   0  0  0  0  0  0  0  0  0  0  0  0
   59.9764   33.8675   45.0253 H   0  0  0  0  0  0  0  0  0  0  0  0
  1  2  2  0
  2  3  1  0
  3  4  1  0
  4  5  1  0
  5  6  2  0
  5  7  2  0
  5  8  1  0
  8  9  2  0
  9 10  1  0
 10 11  2  0
 11 12  1  0
 12 13  2  0
  2 14  1  0
 14 15  1  0
 15 16  1  0
 16 17  1  0
 17 18  1  0
 18 19  1  0
 19 20  2  0
 20 21  1  0
 21 22  2  0
 22 23  1  0
 23 24  1  0
 23 25  2  0
 17 26  1  0
 26 27  1  0
 13  8  1  0
 27 14  1  0
 25 19  1  0
  3 28  1  0
  3 29  1  0
  9 30  1  0
 10 31  1  0
 11 32  1  0
 12 33  1  0
 13 34  1  0
 15 35  1  0
 15 36  1  0
 16 37  1  0
 16 38  1  0
 18 39  1  0
 18 40  1  0
 20 41  1  0
 21 42  1  0
 22 43  1  0
 25 44  1  0
 26 45  1  0
 26 46  1  0
 27 47  1  0
 27 48  1  0
M  CHG  1   4  -1
M  END
>  <UniqueID>  (35) 
34

>  <SMILES>  (35) 
O=C(C[N-]S(=O)(=O)c1ccccc1)N1CCN(Cc2cccc(F)c2)CC1

>  <Energy>  (35) 
56.109816668792696

>  <Genealogy>  (35) 
O=C(C[N-]S(=O)(=O)c1ccccc1)N1CCN(Cc2cccc(F)c2)CC1 (protonated)
O=C(C[N-]S(=O)(=O)c1ccccc1)N1CCN(Cc2cccc(F)c2)CC1 (3D coordinates assigned)
O=C(C[N-]S(=O)(=O)c1ccccc1)N1CCN(Cc2cccc(F)c2)CC1 (nonaromatic ring conformer: 56.109816668792696 kcal/mol)

>  <smiles>  (35) 
O=C(CNS(=O)(=O)c1ccccc1)N1CCN(Cc2cccc(F)c2)CC1

>  <score_type>  (35) 
oracle

>  <origin>  (35) 
adg

>  <m_score__min__energy>  (35) 
-10.34

>  <m_primary>  (35) 
energy

$$$$
35:0
     RDKit          3D

 49 52  0  0  0  0  0  0  0  0999 V2000
   58.2291   32.0499   45.9208 H   0  0  0  0  0  0  0  0  0  0  0  0
   57.7510   31.3640   45.2060 C   0  0  0  0  0  0  0  0  0  0  0  0
   57.1110   30.2520   45.6560 N   0  0  0  0  0  0  0  0  0  0  0  0
   56.5020   29.3740   44.8080 C   0  0  0  0  0  0  0  0  0  0  0  0
   55.8990   28.3040   45.2490 N   0  0  0  0  0  0  0  0  0  0  0  0
   56.4800   27.1890   45.9510 C   0  0  0  0  0  0  0  0  0  0  0  0
   55.8110   26.1280   46.0610 O   0  0  0  0  0  0  0  0  0  0  0  0
   57.8330   27.2300   46.5340 C   0  0  0  0  0  0  0  0  0  0  0  0
   58.3010   28.2390   47.3500 C   0  0  0  0  0  0  0  0  0  0  0  0
   57.7549   29.1389   47.6694 H   0  0  0  0  0  0  0  0  0  0  0  0
   59.5970   27.8890   47.6850 C   0  0  0  0  0  0  0  0  0  0  0  0
   60.5220   28.6490   48.5470 C   0  0  0  0  0  0  0  0  0  0  0  0
   61.0890   28.0590   49.5080 O   0  0  0  0  0  0  0  0  0  0  0  0
   60.7750   30.0480   48.3220 N   0  0  0  0  0  0  0  0  0  0  0  0
   60.9910   30.9340   49.4710 C   0  0  0  0  0  0  0  0  0  0  0  0
   60.0960   30.9168   50.1103 H   0  0  0  0  0  0  0  0  0  0  0  0
   61.8713   30.5764   50.0253 H   0  0  0  0  0  0  0  0  0  0  0  0
   61.2560   32.3800   49.0180 C   0  0  0  0  0  0  0  0  0  0  0  0
   61.1307   33.0557   49.8769 H   0  0  0  0  0  0  0  0  0  0  0  0
   62.2820   32.4444   48.6266 H   0  0  0  0  0  0  0  0  0  0  0  0
   60.3130   32.7770   47.9460 N   0  0  0  0  0  0  0  0  0  0  0  0
   59.3580   32.6440   48.3600 H   0  0  0  0  0  0  0  0  0  0  0  0
   60.3400   34.2140   47.5470 C   0  0  0  0  0  0  0  0  0  0  0  0
   61.1654   34.4441   48.2367 H   0  0  0  0  0  0  0  0  0  0  0  0
   58.9860   34.8160   47.1760 C   0  0  0  0  0  0  0  0  0  0  0  0
   58.0843   34.1861   47.1862 H   0  0  0  0  0  0  0  0  0  0  0  0
   58.3946   35.6719   47.5332 H   0  0  0  0  0  0  0  0  0  0  0  0
   60.0380   34.6170   46.0960 C   0  0  0  0  0  0  0  0  0  0  0  0
   59.8979   33.8423   45.3277 H   0  0  0  0  0  0  0  0  0  0  0  0
   60.5221   35.2670   45.3522 H   0  0  0  0  0  0  0  0  0  0  0  0
   60.3700   31.8970   46.7390 C   0  0  0  0  0  0  0  0  0  0  0  0
   59.3402   31.6932   46.4105 H   0  0  0  0  0  0  0  0  0  0  0  0
   60.9577   32.4346   45.9804 H   0  0  0  0  0  0  0  0  0  0  0  0
   61.0770   30.5510   46.9790 C   0  0  0  0  0  0  0  0  0  0  0  0
   60.7306   29.8214   46.2322 H   0  0  0  0  0  0  0  0  0  0  0  0
   62.1635   30.6974   46.8886 H   0  0  0  0  0  0  0  0  0  0  0  0
   59.8530   26.6660   47.0940 C   0  0  0  0  0  0  0  0  0  0  0  0
   60.7892   26.0972   47.1933 H   0  0  0  0  0  0  0  0  0  0  0  0
   58.7790   26.2770   46.3770 N   0  0  0  0  0  0  0  0  0  0  0  0
   58.6310   24.9920   45.7010 C   0  0  0  0  0  0  0  0  0  0  0  0
   58.5389   24.1920   46.4503 H   0  0  0  0  0  0  0  0  0  0  0  0
   57.7291   25.0105   45.0716 H   0  0  0  0  0  0  0  0  0  0  0  0
   59.5135   24.8050   45.0716 H   0  0  0  0  0  0  0  0  0  0  0  0
   56.5200   29.6280   43.4310 C   0  0  0  0  0  0  0  0  0  0  0  0
   56.0228   28.9369   42.7345 H   0  0  0  0  0  0  0  0  0  0  0  0
   57.1730   30.7640   42.9470 C   0  0  0  0  0  0  0  0  0  0  0  0
   57.1917   30.9711   41.8668 H   0  0  0  0  0  0  0  0  0  0  0  0
   57.8020   31.6360   43.8380 C   0  0  0  0  0  0  0  0  0  0  0  0
   58.3310   32.5260   43.4664 H   0  0  0  0  0  0  0  0  0  0  0  0
  1  2  1  0
  2  3  1  0
  3  4  1  0
  4  5  2  0
  5  6  1  0
  6  7  2  0
  6  8  1  0
  8  9  2  0
  9 10  1  0
  9 11  1  0
 11 12  1  0
 12 13  2  0
 12 14  1  0
 14 15  1  0
 15 16  1  0
 15 17  1  0
 15 18  1  0
 18 19  1  0
 18 20  1  0
 18 21  1  0
 21 22  1  0
 21 23  1  0
 23 24  1  0
 23 25  1  0
 25 26  1  0
 25 27  1  0
 25 28  1  0
 28 29  1  0
 28 30  1  0
 21 31  1  0
 31 32  1  0
 31 33  1  0
 31 34  1  0
 34 35  1  0
 34 36  1  0
 11 37  2  0
 37 38  1  0
 37 39  1  0
 39 40  1  0
 40 41  1  0
 40 42  1  0
 40 43  1  0
  4 44  1  0
 44 45  1  0
 44 46  2  0
 46 47  1  0
 46 48  1  0
 48 49  1  0
 48  2  2  0
 39  8  1  0
 34 14  1  0
 28 23  1  0
M  CHG  2   3  -1  21   1
M  END
>  <UniqueID>  (36) 
35

>  <SMILES>  (36) 
Cn1cc(C(=O)N2CC[NH+](C3CC3)CC2)cc1C(=O)/N=c1/cccc[n-]1

>  <Energy>  (36) 
370.76456380194475

>  <Genealogy>  (36) 
Cn1cc(C(=O)N2CC[NH+](C3CC3)CC2)cc1C(=O)N=c1cccc[n-]1 (protonated)
Cn1cc(C(=O)N2CC[NH+](C3CC3)CC2)cc1C(=O)/N=c1/cccc[n-]1 (cis-trans isomerization)
Cn1cc(C(=O)N2CC[NH+](C3CC3)CC2)cc1C(=O)/N=c1/cccc[n-]1 (3D coordinates assigned)
Cn1cc(C(=O)N2CC[NH+](C3CC3)CC2)cc1C(=O)/N=c1/cccc[n-]1 (nonaromatic ring conformer: 370.76456380194475 kcal/mol)

>  <smiles>  (36) 
Cn1cc(C(=O)N2CCN(C3CC3)CC2)cc1C(=O)N=c1cccc[nH]1

>  <score_type>  (36) 
oracle

>  <origin>  (36) 
adg

>  <m_score__min__energy>  (36) 
-8.8900000000000006

>  <m_primary>  (36) 
energy

$$$$
36:0
     RDKit          3D

 48 51  0  0  0  0  0  0  0  0999 V2000
   53.5440   21.2450   47.2570 C   0  0  0  0  0  0  0  0  0  0  0  0
   53.6840   21.8670   45.9450 N   0  0  0  0  0  0  0  0  0  0  0  0
   54.8060   22.6880   45.5690 C   0  0  0  0  0  0  0  0  0  0  0  0
   55.5890   22.3980   44.4360 C   0  0  0  0  0  0  0  0  0  0  0  0
   56.6590   23.2250   44.0880 C   0  0  0  0  0  0  0  0  0  0  0  0
   56.9690   24.3400   44.8690 C   0  0  0  0  0  0  0  0  0  0  0  0
   56.2250   24.6280   46.0180 C   0  0  0  0  0  0  0  0  0  0  0  0
   56.5580   25.8040   46.7760 N   0  0  0  0  0  0  0  0  0  0  0  0
   56.8440   26.9820   46.3070 C   0  0  0  0  0  0  0  0  0  0  0  0
   55.9370   27.7020   45.5980 N   0  0  0  0  0  0  0  0  0  0  0  0
   56.2430   28.9400   45.1360 C   0  0  0  0  0  0  0  0  0  0  0  0
   55.3850   29.5720   44.4640 O   0  0  0  0  0  0  0  0  0  0  0  0
   57.4740   29.4830   45.3900 N   0  0  0  0  0  0  0  0  0  0  0  0
   57.8080   30.8010   44.9090 C   0  0  0  0  0  0  0  0  0  0  0  0
   57.7400   31.0920   43.5390 C   0  0  0  0  0  0  0  0  0  0  0  0
   58.0690   32.3670   43.0740 C   0  0  0  0  0  0  0  0  0  0  0  0
   58.4780   33.3570   43.9700 C   0  0  0  0  0  0  0  0  0  0  0  0
   58.5650   33.0810   45.3460 C   0  0  0  0  0  0  0  0  0  0  0  0
   59.0130   34.1350   46.2920 C   0  0  0  0  0  0  0  0  0  0  0  0
   58.1710   34.6970   47.0430 O   0  0  0  0  0  0  0  0  0  0  0  0
   60.3990   34.4850   46.4340 N   0  0  0  0  0  0  0  0  0  0  0  0
   61.3760   33.7030   46.8000 C   0  0  0  0  0  0  0  0  0  0  0  0
   61.1610   32.4800   47.4700 C   0  0  0  0  0  0  0  0  0  0  0  0
   62.2560   31.6950   47.8350 C   0  0  0  0  0  0  0  0  0  0  0  0
   63.5490   32.1160   47.5240 C   0  0  0  0  0  0  0  0  0  0  0  0
   63.7280   33.3190   46.8420 C   0  0  0  0  0  0  0  0  0  0  0  0
   62.6510   34.0740   46.4980 N   0  0  0  0  0  0  0  0  0  0  0  0
   58.2110   31.8000   45.8080 C   0  0  0  0  0  0  0  0  0  0  0  0
   58.3820   28.7590   46.1170 C   0  0  0  0  0  0  0  0  0  0  0  0
   59.5180   29.2330   46.3880 O   0  0  0  0  0  0  0  0  0  0  0  0
   58.0590   27.5210   46.5700 N   0  0  0  0  0  0  0  0  0  0  0  0
   55.1260   23.8120   46.3490 C   0  0  0  0  0  0  0  0  0  0  0  0
   53.7136   21.9987   48.0401 H   0  0  0  0  0  0  0  0  0  0  0  0
   52.5302   20.8309   47.3601 H   0  0  0  0  0  0  0  0  0  0  0  0
   54.2826   20.4364   47.3601 H   0  0  0  0  0  0  0  0  0  0  0  0
   52.9230   21.7010   45.2480 H   0  0  0  0  0  0  0  0  0  0  0  0
   55.3569   21.5156   43.8216 H   0  0  0  0  0  0  0  0  0  0  0  0
   57.2599   22.9971   43.1952 H   0  0  0  0  0  0  0  0  0  0  0  0
   57.8032   24.9958   44.5791 H   0  0  0  0  0  0  0  0  0  0  0  0
   57.4264   30.3133   42.8281 H   0  0  0  0  0  0  0  0  0  0  0  0
   58.0058   32.5921   41.9991 H   0  0  0  0  0  0  0  0  0  0  0  0
   58.7339   34.3596   43.5968 H   0  0  0  0  0  0  0  0  0  0  0  0
   60.1386   32.1478   47.7029 H   0  0  0  0  0  0  0  0  0  0  0  0
   62.0994   30.7452   48.3674 H   0  0  0  0  0  0  0  0  0  0  0  0
   64.4174   31.5060   47.8134 H   0  0  0  0  0  0  0  0  0  0  0  0
   64.7418   33.6575   46.5820 H   0  0  0  0  0  0  0  0  0  0  0  0
   58.2506   31.5795   46.8849 H   0  0  0  0  0  0  0  0  0  0  0  0
   54.5114   24.0572   47.2277 H   0  0  0  0  0  0  0  0  0  0  0  0
  1  2  1  0
  2  3  1  0
  3  4  2  0
  4  5  1  0
  5  6  2  0
  6  7  1  0
  7  8  1  0
  8  9  2  3
  9 10  1  0
 10 11  1  0
 11 12  2  0
 11 13  1  0
 13 14  1  0
 14 15  2  0
 15 16  1  0
 16 17  2  0
 17 18  1  0
 18 19  1  0
 19 20  2  0
 19 21  1  0
 21 22  2  3
 22 23  1  0
 23 24  2  0
 24 25  1  0
 25 26  2  0
 26 27  1  0
 18 28  2  0
 13 29  1  0
 29 30  2  0
 29 31  1  0
  7 32  2  0
 32  3  1  0
 31  9  1  0
 28 14  1  0
 27 22  1  0
  1 33  1  0
  1 34  1  0
  1 35  1  0
  2 36  1  0
  4 37  1  0
  5 38  1  0
  6 39  1  0
 15 40  1  0
 16 41  1  0
 17 42  1  0
 23 43  1  0
 24 44  1  0
 25 45  1  0
 26 46  1  0
 28 47  1  0
 32 48  1  0
M  CHG  3  10  -1  27  -1  31  -1
M  END
>  <UniqueID>  (37) 
36

>  <SMILES>  (37) 
CNc1cccc(N=c2[n-]c(=O)n(-c3cccc(C(=O)N=c4cccc[n-]4)c3)c(=O)[n-]2)c1

>  <Energy>  (37) 
79.24300706586824

>  <Genealogy>  (37) 
CNc1cccc(N=c2[n-]c(=O)n(-c3cccc(C(=O)N=c4cccc[n-]4)c3)c(=O)[n-]2)c1 (protonated)
CNc1cccc(N=c2[n-]c(=O)n(-c3cccc(C(=O)N=c4cccc[n-]4)c3)c(=O)[n-]2)c1 (3D coordinates assigned)
CNc1cccc(N=c2[n-]c(=O)n(-c3cccc(C(=O)N=c4cccc[n-]4)c3)c(=O)[n-]2)c1 (optimized conformer: 79.24300706586824 kcal/mol)

>  <smiles>  (37) 
CNc1cccc(N=c2[nH]c(=O)n(-c3cccc(C(=O)N=c4cccc[nH]4)c3)c(=O)[nH]2)c1

>  <score_type>  (37) 
oracle

>  <origin>  (37) 
adg

>  <m_score__min__energy>  (37) 
-13.390000000000001

>  <m_primary>  (37) 
energy

$$$$
37:0
     RDKit          3D

 43 44  0  0  0  0  0  0  0  0999 V2000
   58.3148   30.6241   46.1154 H   0  0  0  0  0  0  0  0  0  0  0  0
   57.8510   29.9580   45.3730 C   0  0  0  0  0  0  0  0  0  0  0  0
   57.3814   30.3805   44.4725 H   0  0  0  0  0  0  0  0  0  0  0  0
   57.8580   28.6360   45.5650 C   0  0  0  0  0  0  0  0  0  0  0  0
   58.3840   27.9610   46.6580 C   0  0  0  0  0  0  0  0  0  0  0  0
   59.0090   28.5930   47.8710 C   0  0  0  0  0  0  0  0  0  0  0  0
   58.5732   28.1523   48.7797 H   0  0  0  0  0  0  0  0  0  0  0  0
   60.0941   28.4130   47.8603 H   0  0  0  0  0  0  0  0  0  0  0  0
   58.8169   29.6760   47.8603 H   0  0  0  0  0  0  0  0  0  0  0  0
   58.1080   26.6060   46.4580 C   0  0  0  0  0  0  0  0  0  0  0  0
   58.2380   25.5250   47.5120 C   0  0  0  0  0  0  0  0  0  0  0  0
   58.9518   24.7676   47.1559 H   0  0  0  0  0  0  0  0  0  0  0  0
   58.5870   26.0002   48.4406 H   0  0  0  0  0  0  0  0  0  0  0  0
   56.8940   24.8370   47.8110 C   0  0  0  0  0  0  0  0  0  0  0  0
   56.5944   25.1014   48.8359 H   0  0  0  0  0  0  0  0  0  0  0  0
   56.1864   25.1928   47.0476 H   0  0  0  0  0  0  0  0  0  0  0  0
   56.9180   23.2960   47.6990 C   0  0  0  0  0  0  0  0  0  0  0  0
   57.5700   23.0229   46.8562 H   0  0  0  0  0  0  0  0  0  0  0  0
   57.2829   22.9177   48.6653 H   0  0  0  0  0  0  0  0  0  0  0  0
   55.5880   22.6740   47.4770 N   0  0  0  0  0  0  0  0  0  0  0  0
   55.0960   23.1510   46.6880 H   0  0  0  0  0  0  0  0  0  0  0  0
   55.7650   21.2620   47.0910 C   0  0  0  0  0  0  0  0  0  0  0  0
   55.8428   20.6415   47.9959 H   0  0  0  0  0  0  0  0  0  0  0  0
   54.9010   20.9339   46.4945 H   0  0  0  0  0  0  0  0  0  0  0  0
   56.6833   21.1573   46.4945 H   0  0  0  0  0  0  0  0  0  0  0  0
   54.7320   22.7500   48.6780 C   0  0  0  0  0  0  0  0  0  0  0  0
   55.3596   22.6943   49.5797 H   0  0  0  0  0  0  0  0  0  0  0  0
   54.1788   23.7008   48.6744 H   0  0  0  0  0  0  0  0  0  0  0  0
   54.0200   21.9115   48.6744 H   0  0  0  0  0  0  0  0  0  0  0  0
   57.4660   26.5270   45.2080 C   0  0  0  0  0  0  0  0  0  0  0  0
   57.0250   25.4430   44.5400 C   0  0  0  0  0  0  0  0  0  0  0  0
   57.6090   25.1208   43.6653 H   0  0  0  0  0  0  0  0  0  0  0  0
   55.8270   24.6500   44.8790 C   0  0  0  0  0  0  0  0  0  0  0  0
   54.7560   25.2400   45.5670 C   0  0  0  0  0  0  0  0  0  0  0  0
   54.8350   26.5570   46.0040 O   0  0  0  0  0  0  0  0  0  0  0  0
   53.6330   24.5200   45.8160 N   0  0  0  0  0  0  0  0  0  0  0  0
   53.5120   23.2370   45.3850 C   0  0  0  0  0  0  0  0  0  0  0  0
   52.4640   22.5880   45.6340 O   0  0  0  0  0  0  0  0  0  0  0  0
   54.5160   22.6590   44.6790 N   0  0  0  0  0  0  0  0  0  0  0  0
   55.6600   23.3380   44.4040 C   0  0  0  0  0  0  0  0  0  0  0  0
   56.5640   22.7790   43.7260 O   0  0  0  0  0  0  0  0  0  0  0  0
   57.3100   27.7670   44.6990 N   0  0  0  0  0  0  0  0  0  0  0  0
   56.8510   28.0100   43.7910 H   0  0  0  0  0  0  0  0  0  0  0  0
  1  2  1  0
  2  3  1  0
  2  4  2  0
  4  5  1  0
  5  6  1  0
  6  7  1  0
  6  8  1  0
  6  9  1  0
  5 10  2  0
 10 11  1  0
 11 12  1  0
 11 13  1  0
 11 14  1  0
 14 15  1  0
 14 16  1  0
 14 17  1  0
 17 18  1  0
 17 19  1  0
 17 20  1  0
 20 21  1  0
 20 22  1  0
 22 23  1  0
 22 24  1  0
 22 25  1  0
 20 26  1  0
 26 27  1  0
 26 28  1  0
 26 29  1  0
 10 30  1  0
 30 31  2  0
 31 32  1  0
 31 33  1  0
 33 34  2  0
 34 35  1  0
 34 36  1  0
 36 37  1  0
 37 38  2  0
 37 39  1  0
 39 40  1  0
 40 41  2  0
 30 42  1  0
 42 43  1  0
 42  4  1  0
 40 33  1  0
M  CHG  4  20   1  35  -1  36  -1  39  -1
M  END
>  <UniqueID>  (38) 
37

>  <SMILES>  (38) 
C=c1[nH]/c(=C/c2c([O-])[n-]c(=O)[n-]c2=O)c(CCC[NH+](C)C)c1C

>  <Energy>  (38) 
81.65413150853804

>  <Genealogy>  (38) 
C=c1[nH]c(=Cc2c([O-])[n-]c(=O)[n-]c2=O)c(CCC[NH+](C)C)c1C (protonated)
C=c1[nH]/c(=C/c2c([O-])[n-]c(=O)[n-]c2=O)c(CCC[NH+](C)C)c1C (cis-trans isomerization)
C=c1[nH]/c(=C/c2c([O-])[n-]c(=O)[n-]c2=O)c(CCC[NH+](C)C)c1C (3D coordinates assigned)
C=c1[nH]/c(=C/c2c([O-])[n-]c(=O)[n-]c2=O)c(CCC[NH+](C)C)c1C (optimized conformer: 81.65413150853804 kcal/mol)

>  <smiles>  (38) 
C=c1[nH]c(=Cc2c(O)[nH]c(=O)[nH]c2=O)c(CCCN(C)C)c1C

>  <score_type>  (38) 
oracle

>  <origin>  (38) 
adg

>  <m_score__min__energy>  (38) 
-12.449999999999999

>  <m_primary>  (38) 
energy

$$$$
38:0
     RDKit          3D

 30 32  0  0  0  0  0  0  0  0999 V2000
   54.7780   27.2630   46.0040 H   0  0  0  0  0  0  0  0  0  0  0  0
   54.4830   26.2970   45.9290 O   0  0  0  0  0  0  0  0  0  0  0  0
   55.3950   25.2740   45.6760 C   0  0  0  0  0  0  0  0  0  0  0  0
   54.9800   24.0970   45.0360 C   0  0  0  0  0  0  0  0  0  0  0  0
   53.9301   23.9809   44.7291 H   0  0  0  0  0  0  0  0  0  0  0  0
   55.8950   23.0720   44.7870 C   0  0  0  0  0  0  0  0  0  0  0  0
   55.5679   22.1561   44.2731 H   0  0  0  0  0  0  0  0  0  0  0  0
   57.2250   23.2090   45.1900 C   0  0  0  0  0  0  0  0  0  0  0  0
   57.9424   22.3962   45.0035 H   0  0  0  0  0  0  0  0  0  0  0  0
   57.6450   24.3780   45.8300 C   0  0  0  0  0  0  0  0  0  0  0  0
   58.6890   24.4749   46.1626 H   0  0  0  0  0  0  0  0  0  0  0  0
   56.7400   25.4310   46.0510 C   0  0  0  0  0  0  0  0  0  0  0  0
   57.1470   26.6370   46.7200 N   0  0  0  0  0  0  0  0  0  0  0  0
   57.9990   27.4840   46.2820 N   0  0  0  0  0  0  0  0  0  0  0  0
   57.7290   28.8660   46.0070 C   0  0  0  0  0  0  0  0  0  0  0  0
   56.6100   29.3630   45.3640 C   0  0  0  0  0  0  0  0  0  0  0  0
   55.5350   28.5940   44.9370 O   0  0  0  0  0  0  0  0  0  0  0  0
   56.6750   30.7040   45.1970 N   0  0  0  0  0  0  0  0  0  0  0  0
   57.8690   31.0430   45.7270 C   0  0  0  0  0  0  0  0  0  0  0  0
   58.4210   32.3200   45.7730 C   0  0  0  0  0  0  0  0  0  0  0  0
   57.8676   33.1890   45.3875 H   0  0  0  0  0  0  0  0  0  0  0  0
   59.7060   32.4690   46.3260 C   0  0  0  0  0  0  0  0  0  0  0  0
   60.1578   33.4701   46.3868 H   0  0  0  0  0  0  0  0  0  0  0  0
   60.4280   31.3440   46.8070 C   0  0  0  0  0  0  0  0  0  0  0  0
   61.7470   31.5030   47.3600 N   0  0  0  0  0  0  0  0  0  0  0  0
   62.5810   32.2520   46.8090 O   0  0  0  0  0  0  0  0  0  0  0  0
   62.1060   30.8420   48.5110 O   0  0  0  0  0  0  0  0  0  0  0  0
   59.8400   30.0610   46.7330 C   0  0  0  0  0  0  0  0  0  0  0  0
   60.3861   29.1699   47.0761 H   0  0  0  0  0  0  0  0  0  0  0  0
   58.5500   29.9530   46.2140 C   0  0  0  0  0  0  0  0  0  0  0  0
  1  2  1  0
  2  3  1  0
  3  4  2  0
  4  5  1  0
  4  6  1  0
  6  7  1  0
  6  8  2  0
  8  9  1  0
  8 10  1  0
 10 11  1  0
 10 12  2  0
 12 13  1  0
 13 14  2  0
 14 15  1  0
 15 16  2  0
 16 17  1  0
 16 18  1  0
 18 19  1  0
 19 20  2  0
 20 21  1  0
 20 22  1  0
 22 23  1  0
 22 24  2  0
 24 25  1  0
 25 26  2  0
 25 27  1  0
 24 28  1  0
 28 29  1  0
 28 30  2  0
 12  3  1  0
 30 15  1  0
 30 19  1  0
M  CHG  4  17  -1  18  -1  25   1  27  -1
M  END
>  <UniqueID>  (39) 
38

>  <SMILES>  (39) 
O=[N+]([O-])c1ccc2[n-]c([O-])c(/N=N\c3ccccc3O)c2c1

>  <Energy>  (39) 
80.47629492904618

>  <Genealogy>  (39) 
O=[N+]([O-])c1ccc2[n-]c([O-])c(N=Nc3ccccc3O)c2c1 (protonated)
O=[N+]([O-])c1ccc2[n-]c([O-])c(/N=N\c3ccccc3O)c2c1 (cis-trans isomerization)
O=[N+]([O-])c1ccc2[n-]c([O-])c(/N=N\c3ccccc3O)c2c1 (3D coordinates assigned)
O=[N+]([O-])c1ccc2[n-]c([O-])c(/N=N\c3ccccc3O)c2c1 (optimized conformer: 80.47629492904618 kcal/mol)

>  <smiles>  (39) 
O=[N+]([O-])c1ccc2[nH]c(O)c(N=Nc3ccccc3O)c2c1

>  <score_type>  (39) 
oracle

>  <origin>  (39) 
adg

>  <m_score__min__energy>  (39) 
-12.359999999999999

>  <m_primary>  (39) 
energy

$$$$
39:0
     RDKit          3D

 58 61  0  0  0  0  0  0  0  0999 V2000
   56.6510   20.6950   43.5970 C   0  0  0  0  0  0  0  0  0  0  0  0
   55.5640   21.3980   44.1910 O   0  0  0  0  0  0  0  0  0  0  0  0
   55.6240   22.7310   44.6280 C   0  0  0  0  0  0  0  0  0  0  0  0
   56.7990   23.5010   44.5220 C   0  0  0  0  0  0  0  0  0  0  0  0
   56.8220   24.8210   44.9720 C   0  0  0  0  0  0  0  0  0  0  0  0
   55.6760   25.3960   45.5430 C   0  0  0  0  0  0  0  0  0  0  0  0
   55.6490   26.7580   45.9940 N   0  0  0  0  0  0  0  0  0  0  0  0
   56.7290   27.7010   45.9410 C   0  0  0  0  0  0  0  0  0  0  0  0
   57.5710   27.7750   46.8760 O   0  0  0  0  0  0  0  0  0  0  0  0
   56.8370   28.6190   44.7700 C   0  0  0  0  0  0  0  0  0  0  0  0
   56.6500   29.9920   45.2200 N   0  0  0  0  0  0  0  0  0  0  0  0
   56.9630   31.1620   44.4530 C   0  0  0  0  0  0  0  0  0  0  0  0
   56.6560   31.1820   43.2310 O   0  0  0  0  0  0  0  0  0  0  0  0
   57.6550   32.3290   45.0360 C   0  0  0  0  0  0  0  0  0  0  0  0
   57.7200   33.5490   44.3420 C   0  0  0  0  0  0  0  0  0  0  0  0
   58.4010   34.6360   44.8930 C   0  0  0  0  0  0  0  0  0  0  0  0
   59.0450   34.5100   46.1250 C   0  0  0  0  0  0  0  0  0  0  0  0
   59.0200   33.2880   46.8100 C   0  0  0  0  0  0  0  0  0  0  0  0
   59.8600   33.1330   48.3510 S   0  0  0  0  0  0  0  0  0  0  0  0
   59.4780   31.8220   48.9800 O   0  0  0  0  0  0  0  0  0  0  0  0
   59.4560   34.2530   49.2680 O   0  0  0  0  0  0  0  0  0  0  0  0
   61.5750   33.1840   48.1010 N   0  0  0  0  0  0  0  0  0  0  0  0
   62.2310   33.1900   46.7960 C   0  0  0  0  0  0  0  0  0  0  0  0
   63.7520   33.1670   47.0850 C   0  0  0  0  0  0  0  0  0  0  0  0
   63.8190   33.1140   48.5740 C   0  0  0  0  0  0  0  0  0  0  0  0
   64.9540   33.0620   49.3850 C   0  0  0  0  0  0  0  0  0  0  0  0
   64.7800   33.0210   50.7800 C   0  0  0  0  0  0  0  0  0  0  0  0
   63.4840   33.0410   51.3330 C   0  0  0  0  0  0  0  0  0  0  0  0
   62.3580   33.0980   50.4960 C   0  0  0  0  0  0  0  0  0  0  0  0
   62.5610   33.1280   49.1140 C   0  0  0  0  0  0  0  0  0  0  0  0
   58.3190   32.2010   46.2670 C   0  0  0  0  0  0  0  0  0  0  0  0
   54.5000   24.6420   45.6240 C   0  0  0  0  0  0  0  0  0  0  0  0
   54.4680   23.3060   45.1770 C   0  0  0  0  0  0  0  0  0  0  0  0
   53.3070   22.5210   45.2560 O   0  0  0  0  0  0  0  0  0  0  0  0
   52.1210   22.9030   45.9470 C   0  0  0  0  0  0  0  0  0  0  0  0
   57.2940   20.2791   44.3867 H   0  0  0  0  0  0  0  0  0  0  0  0
   56.2615   19.8773   42.9728 H   0  0  0  0  0  0  0  0  0  0  0  0
   57.2370   21.3856   42.9728 H   0  0  0  0  0  0  0  0  0  0  0  0
   57.7044   23.0582   44.0814 H   0  0  0  0  0  0  0  0  0  0  0  0
   57.7434   25.4147   44.8789 H   0  0  0  0  0  0  0  0  0  0  0  0
   57.8310   28.5143   44.3107 H   0  0  0  0  0  0  0  0  0  0  0  0
   56.0658   28.3645   44.0280 H   0  0  0  0  0  0  0  0  0  0  0  0
   57.2325   33.6480   43.3609 H   0  0  0  0  0  0  0  0  0  0  0  0
   58.4302   35.5948   44.3546 H   0  0  0  0  0  0  0  0  0  0  0  0
   59.5732   35.3718   46.5590 H   0  0  0  0  0  0  0  0  0  0  0  0
   61.9382   32.3020   46.2166 H   0  0  0  0  0  0  0  0  0  0  0  0
   61.9457   34.0727   46.2048 H   0  0  0  0  0  0  0  0  0  0  0  0
   64.2245   32.2800   46.6377 H   0  0  0  0  0  0  0  0  0  0  0  0
   64.2832   34.0320   46.6613 H   0  0  0  0  0  0  0  0  0  0  0  0
   65.9613   33.0533   48.9431 H   0  0  0  0  0  0  0  0  0  0  0  0
   65.6578   32.9732   51.4411 H   0  0  0  0  0  0  0  0  0  0  0  0
   63.3539   33.0118   52.4249 H   0  0  0  0  0  0  0  0  0  0  0  0
   61.3422   33.1185   50.9175 H   0  0  0  0  0  0  0  0  0  0  0  0
   58.2892   31.2437   46.8080 H   0  0  0  0  0  0  0  0  0  0  0  0
   53.5899   25.0975   46.0415 H   0  0  0  0  0  0  0  0  0  0  0  0
   52.2945   22.8471   47.0318 H   0  0  0  0  0  0  0  0  0  0  0  0
   51.8518   23.9333   45.6713 H   0  0  0  0  0  0  0  0  0  0  0  0
   51.3010   22.2235   45.6713 H   0  0  0  0  0  0  0  0  0  0  0  0
  1  2  1  0
  2  3  1  0
  3  4  2  0
  4  5  1  0
  5  6  2  0
  6  7  1  0
  7  8  1  0
  8  9  2  0
  8 10  1  0
 10 11  1  0
 11 12  1  0
 12 13  2  0
 12 14  1  0
 14 15  2  0
 15 16  1  0
 16 17  2  0
 17 18  1  0
 18 19  1  0
 19 20  2  0
 19 21  2  0
 19 22  1  0
 22 23  1  0
 23 24  1  0
 24 25  1  0
 25 26  2  0
 26 27  1  0
 27 28  2  0
 28 29  1  0
 29 30  2  0
 18 31  2  0
  6 32  1  0
 32 33  2  0
 33 34  1  0
 34 35  1  0
 33  3  1  0
 31 14  1  0
 30 22  1  0
 30 25  1  0
  1 36  1  0
  1 37  1  0
  1 38  1  0
  4 39  1  0
  5 40  1  0
 10 41  1  0
 10 42  1  0
 15 43  1  0
 16 44  1  0
 17 45  1  0
 23 46  1  0
 23 47  1  0
 24 48  1  0
 24 49  1  0
 26 50  1  0
 27 51  1  0
 28 52  1  0
 29 53  1  0
 31 54  1  0
 32 55  1  0
 35 56  1  0
 35 57  1  0
 35 58  1  0
M  CHG  2   7  -1  11  -1
M  END
>  <UniqueID>  (40) 
39

>  <SMILES>  (40) 
COc1ccc([N-]C(=O)C[N-]C(=O)c2cccc(S(=O)(=O)N3CCc4ccccc43)c2)cc1OC

>  <Energy>  (40) 
82.99626593099508

>  <Genealogy>  (40) 
COc1ccc([N-]C(=O)C[N-]C(=O)c2cccc(S(=O)(=O)N3CCc4ccccc43)c2)cc1OC (protonated)
COc1ccc([N-]C(=O)C[N-]C(=O)c2cccc(S(=O)(=O)N3CCc4ccccc43)c2)cc1OC (3D coordinates assigned)
COc1ccc([N-]C(=O)C[N-]C(=O)c2cccc(S(=O)(=O)N3CCc4ccccc43)c2)cc1OC (nonaromatic ring conformer: 82.99626593099508 kcal/mol)

>  <smiles>  (40) 
COc1ccc(NC(=O)CNC(=O)c2cccc(S(=O)(=O)N3CCc4ccccc43)c2)cc1OC

>  <score_type>  (40) 
oracle

>  <origin>  (40) 
adg

>  <m_score__min__energy>  (40) 
-14.69

>  <m_primary>  (40) 
energy

$$$$
40:0
     RDKit          3D

 50 53  0  0  0  0  0  0  0  0999 V2000
   59.3570   27.4390   45.7110 O   0  0  0  0  0  0  0  0  0  0  0  0
   58.1570   27.6550   45.3870 C   0  0  0  0  0  0  0  0  0  0  0  0
   57.1640   26.6410   45.6140 N   0  0  0  0  0  0  0  0  0  0  0  0
   57.3770   25.5240   46.5340 C   0  0  0  0  0  0  0  0  0  0  0  0
   57.0210   24.1970   45.8600 C   0  0  0  0  0  0  0  0  0  0  0  0
   55.5710   24.1480   45.4840 C   0  0  0  0  0  0  0  0  0  0  0  0
   54.8870   23.0440   45.0360 C   0  0  0  0  0  0  0  0  0  0  0  0
   53.5920   23.3700   44.8820 N   0  0  0  0  0  0  0  0  0  0  0  0
   53.5310   24.6670   45.2510 C   0  0  0  0  0  0  0  0  0  0  0  0
   54.7190   25.1770   45.6340 N   0  0  0  0  0  0  0  0  0  0  0  0
   57.7980   28.9470   44.7600 C   0  0  0  0  0  0  0  0  0  0  0  0
   57.0040   28.9650   43.6020 C   0  0  0  0  0  0  0  0  0  0  0  0
   56.6600   30.1750   42.9990 C   0  0  0  0  0  0  0  0  0  0  0  0
   57.1120   31.3810   43.5370 C   0  0  0  0  0  0  0  0  0  0  0  0
   57.9260   31.3910   44.6830 C   0  0  0  0  0  0  0  0  0  0  0  0
   58.4170   32.6770   45.2460 C   0  0  0  0  0  0  0  0  0  0  0  0
   58.6770   33.7740   44.4020 C   0  0  0  0  0  0  0  0  0  0  0  0
   59.1020   34.9930   44.9360 C   0  0  0  0  0  0  0  0  0  0  0  0
   59.2830   35.1310   46.3130 C   0  0  0  0  0  0  0  0  0  0  0  0
   59.0630   34.0450   47.1650 C   0  0  0  0  0  0  0  0  0  0  0  0
   59.2450   34.2210   48.5770 N   0  0  0  0  0  0  0  0  0  0  0  0
   60.3850   33.7900   49.3320 C   0  0  0  0  0  0  0  0  0  0  0  0
   60.3990   33.9980   50.5740 O   0  0  0  0  0  0  0  0  0  0  0  0
   61.5690   33.1890   48.6770 C   0  0  0  0  0  0  0  0  0  0  0  0
   62.7750   33.9030   48.5670 C   0  0  0  0  0  0  0  0  0  0  0  0
   63.8590   33.3210   47.9080 C   0  0  0  0  0  0  0  0  0  0  0  0
   63.7380   32.0430   47.3620 C   0  0  0  0  0  0  0  0  0  0  0  0
   62.5290   31.3580   47.4910 C   0  0  0  0  0  0  0  0  0  0  0  0
   61.4820   31.9420   48.1310 N   0  0  0  0  0  0  0  0  0  0  0  0
   58.6120   32.8250   46.6320 C   0  0  0  0  0  0  0  0  0  0  0  0
   58.2650   30.1660   45.2890 C   0  0  0  0  0  0  0  0  0  0  0  0
   56.2170   26.7420   45.1860 H   0  0  0  0  0  0  0  0  0  0  0  0
   58.4337   25.5029   46.8387 H   0  0  0  0  0  0  0  0  0  0  0  0
   56.7305   25.6602   47.4135 H   0  0  0  0  0  0  0  0  0  0  0  0
   57.6306   24.0818   44.9517 H   0  0  0  0  0  0  0  0  0  0  0  0
   57.2228   23.3820   46.5706 H   0  0  0  0  0  0  0  0  0  0  0  0
   55.3267   22.0557   44.8362 H   0  0  0  0  0  0  0  0  0  0  0  0
   52.5999   25.2527   45.2403 H   0  0  0  0  0  0  0  0  0  0  0  0
   56.6508   28.0183   43.1673 H   0  0  0  0  0  0  0  0  0  0  0  0
   56.0306   30.1787   42.0968 H   0  0  0  0  0  0  0  0  0  0  0  0
   56.8290   32.3312   43.0604 H   0  0  0  0  0  0  0  0  0  0  0  0
   58.5445   33.6703   43.3149 H   0  0  0  0  0  0  0  0  0  0  0  0
   59.2945   35.8465   44.2693 H   0  0  0  0  0  0  0  0  0  0  0  0
   59.6001   36.0985   46.7295 H   0  0  0  0  0  0  0  0  0  0  0  0
   62.8636   34.9117   48.9966 H   0  0  0  0  0  0  0  0  0  0  0  0
   64.8082   33.8697   47.8192 H   0  0  0  0  0  0  0  0  0  0  0  0
   64.5860   31.5804   46.8357 H   0  0  0  0  0  0  0  0  0  0  0  0
   62.4235   30.3453   47.0746 H   0  0  0  0  0  0  0  0  0  0  0  0
   58.4096   31.9782   47.3043 H   0  0  0  0  0  0  0  0  0  0  0  0
   58.9019   30.1610   46.1859 H   0  0  0  0  0  0  0  0  0  0  0  0
  1  2  2  0
  2  3  1  0
  3  4  1  0
  4  5  1  0
  5  6  1  0
  6  7  2  0
  7  8  1  0
  8  9  1  0
  9 10  2  0
  2 11  1  0
 11 12  2  0
 12 13  1  0
 13 14  2  0
 14 15  1  0
 15 16  1  0
 16 17  2  0
 17 18  1  0
 18 19  2  0
 19 20  1  0
 20 21  1  0
 21 22  1  0
 22 23  2  0
 22 24  1  0
 24 25  2  0
 25 26  1  0
 26 27  2  0
 27 28  1  0
 28 29  2  0
 20 30  2  0
 15 31  2  0
 10  6  1  0
 31 11  1  0
 30 16  1  0
 29 24  1  0
  3 32  1  0
  4 33  1  0
  4 34  1  0
  5 35  1  0
  5 36  1  0
  7 37  1  0
  9 38  1  0
 12 39  1  0
 13 40  1  0
 14 41  1  0
 17 42  1  0
 18 43  1  0
 19 44  1  0
 25 45  1  0
 26 46  1  0
 27 47  1  0
 28 48  1  0
 30 49  1  0
 31 50  1  0
M  CHG  2   8  -1  21  -1
M  END
>  <UniqueID>  (41) 
40

>  <SMILES>  (41) 
O=C(NCCc1c[n-]cn1)c1cccc(-c2cccc([N-]C(=O)c3ccccn3)c2)c1

>  <Energy>  (41) 
87.55613970865248

>  <Genealogy>  (41) 
O=C(NCCc1c[n-]cn1)c1cccc(-c2cccc([N-]C(=O)c3ccccn3)c2)c1 (protonated)
O=C(NCCc1c[n-]cn1)c1cccc(-c2cccc([N-]C(=O)c3ccccn3)c2)c1 (3D coordinates assigned)
O=C(NCCc1c[n-]cn1)c1cccc(-c2cccc([N-]C(=O)c3ccccn3)c2)c1 (optimized conformer: 87.55613970865248 kcal/mol)

>  <smiles>  (41) 
O=C(NCCc1c[nH]cn1)c1cccc(-c2cccc(NC(=O)c3ccccn3)c2)c1

>  <score_type>  (41) 
oracle

>  <origin>  (41) 
adg

>  <m_score__min__energy>  (41) 
-13.99

>  <m_primary>  (41) 
energy

$$$$
41:0
     RDKit          3D

 40 41  0  0  0  0  0  0  0  0999 V2000
   60.6230   28.9180   44.9510 C   0  0  0  0  0  0  0  0  0  0  0  0
   59.5180   28.3010   44.5240 C   0  0  0  0  0  0  0  0  0  0  0  0
   58.7030   27.4170   45.4300 C   0  0  0  0  0  0  0  0  0  0  0  0
   58.9760   27.6820   46.8840 C   0  0  0  0  0  0  0  0  0  0  0  0
   59.4150   26.7570   47.6210 O   0  0  0  0  0  0  0  0  0  0  0  0
   58.6600   28.9630   47.4480 N   0  0  0  0  0  0  0  0  0  0  0  0
   58.8730   29.2690   48.8610 C   0  0  0  0  0  0  0  0  0  0  0  0
   60.0280   30.2590   49.0450 C   0  0  0  0  0  0  0  0  0  0  0  0
   59.4240   31.8910   49.6130 S   0  0  0  0  0  0  0  0  0  0  0  0
   59.1200   32.5530   47.9760 C   0  0  0  0  0  0  0  0  0  0  0  0
   59.5110   33.8540   47.6580 C   0  0  0  0  0  0  0  0  0  0  0  0
   59.2210   34.3450   46.3820 C   0  0  0  0  0  0  0  0  0  0  0  0
   59.6490   35.7210   45.9830 C   0  0  0  0  0  0  0  0  0  0  0  0
   58.5820   33.5480   45.4860 N   0  0  0  0  0  0  0  0  0  0  0  0
   58.2040   32.2800   45.8100 C   0  0  0  0  0  0  0  0  0  0  0  0
   57.5300   31.4190   44.8200 C   0  0  0  0  0  0  0  0  0  0  0  0
   57.5850   31.7020   43.4440 C   0  0  0  0  0  0  0  0  0  0  0  0
   56.9490   30.8490   42.5410 C   0  0  0  0  0  0  0  0  0  0  0  0
   56.2670   29.7250   43.0090 C   0  0  0  0  0  0  0  0  0  0  0  0
   56.2320   29.4700   44.3810 C   0  0  0  0  0  0  0  0  0  0  0  0
   56.8560   30.3130   45.2460 N   0  0  0  0  0  0  0  0  0  0  0  0
   58.4720   31.7990   47.0520 N   0  0  0  0  0  0  0  0  0  0  0  0
   61.1964   29.5574   44.2637 H   0  0  0  0  0  0  0  0  0  0  0  0
   60.9597   28.7867   45.9900 H   0  0  0  0  0  0  0  0  0  0  0  0
   59.1947   28.4426   43.4822 H   0  0  0  0  0  0  0  0  0  0  0  0
   57.6359   27.5962   45.2323 H   0  0  0  0  0  0  0  0  0  0  0  0
   58.9814   26.3736   45.2206 H   0  0  0  0  0  0  0  0  0  0  0  0
   58.1770   29.6740   46.8530 H   0  0  0  0  0  0  0  0  0  0  0  0
   57.9539   29.7088   49.2755 H   0  0  0  0  0  0  0  0  0  0  0  0
   59.1269   28.3359   49.3853 H   0  0  0  0  0  0  0  0  0  0  0  0
   60.7286   29.8569   49.7916 H   0  0  0  0  0  0  0  0  0  0  0  0
   60.5272   30.3932   48.0740 H   0  0  0  0  0  0  0  0  0  0  0  0
   60.0359   34.4794   48.3952 H   0  0  0  0  0  0  0  0  0  0  0  0
   59.8361   36.3227   46.8846 H   0  0  0  0  0  0  0  0  0  0  0  0
   60.5705   35.6595   45.3854 H   0  0  0  0  0  0  0  0  0  0  0  0
   58.8552   36.1931   45.3854 H   0  0  0  0  0  0  0  0  0  0  0  0
   58.1253   32.5891   43.0819 H   0  0  0  0  0  0  0  0  0  0  0  0
   56.9852   31.0622   41.4625 H   0  0  0  0  0  0  0  0  0  0  0  0
   55.7625   29.0474   42.3045 H   0  0  0  0  0  0  0  0  0  0  0  0
   55.6992   28.5865   44.7625 H   0  0  0  0  0  0  0  0  0  0  0  0
  1  2  2  0
  2  3  1  0
  3  4  1  0
  4  5  2  0
  4  6  1  0
  6  7  1  0
  7  8  1  0
  8  9  1  0
  9 10  1  0
 10 11  2  0
 11 12  1  0
 12 13  1  0
 12 14  2  0
 14 15  1  0
 15 16  1  0
 16 17  2  0
 17 18  1  0
 18 19  2  0
 19 20  1  0
 20 21  2  0
 15 22  2  0
 22 10  1  0
 21 16  1  0
  1 23  1  0
  1 24  1  0
  2 25  1  0
  3 26  1  0
  3 27  1  0
  6 28  1  0
  7 29  1  0
  7 30  1  0
  8 31  1  0
  8 32  1  0
 11 33  1  0
 13 34  1  0
 13 35  1  0
 13 36  1  0
 17 37  1  0
 18 38  1  0
 19 39  1  0
 20 40  1  0
M  END
>  <UniqueID>  (42) 
41

>  <SMILES>  (42) 
C=CCC(=O)NCCSc1cc(C)nc(-c2ccccn2)n1

>  <Energy>  (42) 
26.530114550969515

>  <Genealogy>  (42) 
C=CCC(=O)NCCSc1cc(C)nc(-c2ccccn2)n1 (3D coordinates assigned)
C=CCC(=O)NCCSc1cc(C)nc(-c2ccccn2)n1 (optimized conformer: 26.530114550969515 kcal/mol)

>  <smiles>  (42) 
C=CCC(=O)NCCSc1cc(C)nc(-c2ccccn2)n1

>  <score_type>  (42) 
oracle

>  <origin>  (42) 
adg

>  <m_score__min__energy>  (42) 
-6.6900000000000004

>  <m_primary>  (42) 
energy

$$$$
42:0
     RDKit          3D

 73 78  0  0  0  0  0  0  0  0999 V2000
   54.6915   30.2335   43.7057 H   0  0  0  0  0  0  0  0  0  0  0  0
   55.6540   30.1660   44.2340 C   0  0  0  0  0  0  0  0  0  0  0  0
   56.4940   31.2330   44.2500 N   0  0  0  0  0  0  0  0  0  0  0  0
   57.6870   31.2100   44.9010 C   0  0  0  0  0  0  0  0  0  0  0  0
   58.4050   32.2970   44.9010 N   0  0  0  0  0  0  0  0  0  0  0  0
   58.0040   33.6360   45.2250 C   0  0  0  0  0  0  0  0  0  0  0  0
   57.0060   34.1600   44.6620 O   0  0  0  0  0  0  0  0  0  0  0  0
   58.8960   34.4730   46.0890 C   0  0  0  0  0  0  0  0  0  0  0  0
   58.5203   35.5068   46.0981 H   0  0  0  0  0  0  0  0  0  0  0  0
   59.9156   34.4359   45.6779 H   0  0  0  0  0  0  0  0  0  0  0  0
   58.9300   33.9490   47.5020 C   0  0  0  0  0  0  0  0  0  0  0  0
   59.6790   34.6130   48.4890 C   0  0  0  0  0  0  0  0  0  0  0  0
   60.2498   35.5163   48.2277 H   0  0  0  0  0  0  0  0  0  0  0  0
   59.7020   34.1310   49.8010 C   0  0  0  0  0  0  0  0  0  0  0  0
   60.2983   34.6500   50.5659 H   0  0  0  0  0  0  0  0  0  0  0  0
   58.9670   32.9880   50.1440 C   0  0  0  0  0  0  0  0  0  0  0  0
   59.0260   32.3530   51.7840 S   0  0  0  0  0  0  0  0  0  0  0  0
   58.7590   33.4600   52.7650 O   0  0  0  0  0  0  0  0  0  0  0  0
   60.3880   31.7790   52.0650 O   0  0  0  0  0  0  0  0  0  0  0  0
   57.7990   31.0810   51.9700 C   0  0  0  0  0  0  0  0  0  0  0  0
   57.6212   30.8967   53.0398 H   0  0  0  0  0  0  0  0  0  0  0  0
   56.8617   31.4030   51.4927 H   0  0  0  0  0  0  0  0  0  0  0  0
   58.1546   30.1559   51.4927 H   0  0  0  0  0  0  0  0  0  0  0  0
   58.2070   32.3330   49.1650 C   0  0  0  0  0  0  0  0  0  0  0  0
   57.6248   31.4385   49.4311 H   0  0  0  0  0  0  0  0  0  0  0  0
   58.1860   32.8120   47.8520 C   0  0  0  0  0  0  0  0  0  0  0  0
   57.5838   32.2955   47.0900 H   0  0  0  0  0  0  0  0  0  0  0  0
   58.0990   30.0160   45.5300 C   0  0  0  0  0  0  0  0  0  0  0  0
   59.0730   29.9692   46.0390 H   0  0  0  0  0  0  0  0  0  0  0  0
   57.2630   28.8870   45.5050 C   0  0  0  0  0  0  0  0  0  0  0  0
   57.6950   27.6410   46.1860 C   0  0  0  0  0  0  0  0  0  0  0  0
   57.1790   26.4360   45.8780 N   0  0  0  0  0  0  0  0  0  0  0  0
   57.8870   25.5650   46.6270 C   0  0  0  0  0  0  0  0  0  0  0  0
   57.6800   24.0780   46.6100 C   0  0  0  0  0  0  0  0  0  0  0  0
   57.4505   23.9911   47.6823 H   0  0  0  0  0  0  0  0  0  0  0  0
   57.0670   23.4750   45.3540 C   0  0  0  0  0  0  0  0  0  0  0  0
   56.4247   22.5851   45.4279 H   0  0  0  0  0  0  0  0  0  0  0  0
   56.4435   23.8563   44.5319 H   0  0  0  0  0  0  0  0  0  0  0  0
   58.5620   23.3570   45.6050 C   0  0  0  0  0  0  0  0  0  0  0  0
   59.0013   22.3812   45.8596 H   0  0  0  0  0  0  0  0  0  0  0  0
   59.4682   23.6176   45.0385 H   0  0  0  0  0  0  0  0  0  0  0  0
   58.8230   26.1510   47.3980 N   0  0  0  0  0  0  0  0  0  0  0  0
   58.6970   27.4640   47.1330 C   0  0  0  0  0  0  0  0  0  0  0  0
   59.4950   28.4940   47.8300 C   0  0  0  0  0  0  0  0  0  0  0  0
   59.2800   28.7720   49.1910 C   0  0  0  0  0  0  0  0  0  0  0  0
   58.5144   28.2156   49.7515 H   0  0  0  0  0  0  0  0  0  0  0  0
   60.0370   29.7530   49.8310 C   0  0  0  0  0  0  0  0  0  0  0  0
   59.8588   29.9773   50.8930 H   0  0  0  0  0  0  0  0  0  0  0  0
   61.0200   30.4510   49.1280 C   0  0  0  0  0  0  0  0  0  0  0  0
   61.6135   31.2222   49.6409 H   0  0  0  0  0  0  0  0  0  0  0  0
   61.2570   30.1780   47.7760 C   0  0  0  0  0  0  0  0  0  0  0  0
   62.2710   30.9390   47.1060 N   0  0  0  0  0  0  0  0  0  0  0  0
   62.6920   32.6140   47.3140 S   0  0  0  0  0  0  0  0  0  0  0  0
   64.0920   32.8260   46.8060 O   0  0  0  0  0  0  0  0  0  0  0  0
   61.7550   33.5250   46.5730 O   0  0  0  0  0  0  0  0  0  0  0  0
   62.6120   33.0390   49.0490 C   0  0  0  0  0  0  0  0  0  0  0  0
   62.5737   34.1335   49.1517 H   0  0  0  0  0  0  0  0  0  0  0  0
   61.7100   32.5843   49.4844 H   0  0  0  0  0  0  0  0  0  0  0  0
   63.8190   32.5160   49.7780 C   0  0  0  0  0  0  0  0  0  0  0  0
   63.7090   31.3860   50.6050 C   0  0  0  0  0  0  0  0  0  0  0  0
   62.7267   30.9173   50.7643 H   0  0  0  0  0  0  0  0  0  0  0  0
   64.8420   30.8550   51.2260 C   0  0  0  0  0  0  0  0  0  0  0  0
   64.7500   29.9706   51.8737 H   0  0  0  0  0  0  0  0  0  0  0  0
   66.0940   31.4470   51.0250 C   0  0  0  0  0  0  0  0  0  0  0  0
   66.9850   31.0303   51.5175 H   0  0  0  0  0  0  0  0  0  0  0  0
   66.2120   32.5670   50.1990 C   0  0  0  0  0  0  0  0  0  0  0  0
   67.1961   33.0330   50.0429 H   0  0  0  0  0  0  0  0  0  0  0  0
   65.0810   33.0970   49.5700 C   0  0  0  0  0  0  0  0  0  0  0  0
   65.1799   33.9716   48.9103 H   0  0  0  0  0  0  0  0  0  0  0  0
   60.5170   29.1660   47.1420 C   0  0  0  0  0  0  0  0  0  0  0  0
   60.7403   28.8984   46.0987 H   0  0  0  0  0  0  0  0  0  0  0  0
   56.0080   28.9860   44.8850 C   0  0  0  0  0  0  0  0  0  0  0  0
   55.3083   28.1377   44.9127 H   0  0  0  0  0  0  0  0  0  0  0  0
  1  2  1  0
  2  3  1  0
  3  4  1  0
  4  5  2  0
  5  6  1  0
  6  7  2  0
  6  8  1  0
  8  9  1  0
  8 10  1  0
  8 11  1  0
 11 12  2  0
 12 13  1  0
 12 14  1  0
 14 15  1  0
 14 16  2  0
 16 17  1  0
 17 18  2  0
 17 19  2  0
 17 20  1  0
 20 21  1  0
 20 22  1  0
 20 23  1  0
 16 24  1  0
 24 25  1  0
 24 26  2  0
 26 27  1  0
  4 28  1  0
 28 29  1  0
 28 30  2  0
 30 31  1  0
 31 32  1  0
 32 33  1  0
 33 34  1  0
 34 35  1  0
 34 36  1  0
 36 37  1  0
 36 38  1  0
 36 39  1  0
 39 40  1  0
 39 41  1  0
 33 42  2  0
 42 43  1  0
 43 44  1  0
 44 45  2  0
 45 46  1  0
 45 47  1  0
 47 48  1  0
 47 49  2  0
 49 50  1  0
 49 51  1  0
 51 52  1  0
 52 53  1  0
 53 54  2  0
 53 55  2  0
 53 56  1  0
 56 57  1  0
 56 58  1  0
 56 59  1  0
 59 60  2  0
 60 61  1  0
 60 62  1  0
 62 63  1  0
 62 64  2  0
 64 65  1  0
 64 66  1  0
 66 67  1  0
 66 68  2  0
 68 69  1  0
 51 70  2  0
 70 71  1  0
 30 72  1  0
 72 73  1  0
 72  2  2  0
 26 11  1  0
 43 31  2  0
 70 44  1  0
 39 34  1  0
 68 59  1  0
M  CHG  3   3  -1  32  -1  52  -1
M  END
>  <UniqueID>  (43) 
42

>  <SMILES>  (43) 
CS(=O)(=O)c1ccc(CC(=O)/N=c2\cc(-c3[n-]c(C4CC4)nc3-c3cccc([N-]S(=O)(=O)Cc4ccccc4)c3)cc[n-]2)cc1

>  <Energy>  (43) 
387.3046082745342

>  <Genealogy>  (43) 
CS(=O)(=O)c1ccc(CC(=O)N=c2cc(-c3[n-]c(C4CC4)nc3-c3cccc([N-]S(=O)(=O)Cc4ccccc4)c3)cc[n-]2)cc1 (protonated)
CS(=O)(=O)c1ccc(CC(=O)/N=c2\cc(-c3[n-]c(C4CC4)nc3-c3cccc([N-]S(=O)(=O)Cc4ccccc4)c3)cc[n-]2)cc1 (cis-trans isomerization)
CS(=O)(=O)c1ccc(CC(=O)/N=c2\cc(-c3[n-]c(C4CC4)nc3-c3cccc([N-]S(=O)(=O)Cc4ccccc4)c3)cc[n-]2)cc1 (3D coordinates assigned)
CS(=O)(=O)c1ccc(CC(=O)/N=c2\cc(-c3[n-]c(C4CC4)nc3-c3cccc([N-]S(=O)(=O)Cc4ccccc4)c3)cc[n-]2)cc1 (nonaromatic ring conformer: 387.3046082745342 kcal/mol)

>  <smiles>  (43) 
CS(=O)(=O)c1ccc(CC(=O)N=c2cc(-c3[nH]c(C4CC4)nc3-c3cccc(NS(=O)(=O)Cc4ccccc4)c3)cc[nH]2)cc1

>  <score_type>  (43) 
oracle

>  <origin>  (43) 
adg

>  <m_score__min__energy>  (43) 
-14.57

>  <m_primary>  (43) 
energy

$$$$
43:0
     RDKit          3D

 58 62  0  0  0  0  0  0  0  0999 V2000
   59.8700   35.3240   47.5730 O   0  0  0  0  0  0  0  0  0  0  0  0
   60.4390   34.2430   47.2520 C   0  0  0  0  0  0  0  0  0  0  0  0
   59.6950   33.2470   46.3880 C   0  0  1  0  0  0  0  0  0  0  0  0
   58.4610   32.7210   47.1500 C   0  0  0  0  0  0  0  0  0  0  0  0
   57.7860   31.5920   46.3650 C   0  0  0  0  0  0  0  0  0  0  0  0
   57.7990   31.9120   44.8550 C   0  0  2  0  0  0  0  0  0  0  0  0
   58.0850   33.3730   44.4710 C   0  0  0  0  0  0  0  0  0  0  0  0
   59.3250   33.8770   45.0970 N   0  0  0  0  0  0  0  0  0  0  0  0
   56.6830   31.2310   44.0660 C   0  0  0  0  0  0  0  0  0  0  0  0
   58.1380   30.8480   43.7960 C   0  0  2  0  0  0  0  0  0  0  0  0
   58.5950   29.4990   44.2930 C   0  0  0  0  0  0  0  0  0  0  0  0
   59.7960   29.3490   45.0120 C   0  0  0  0  0  0  0  0  0  0  0  0
   60.1620   28.0970   45.5160 C   0  0  0  0  0  0  0  0  0  0  0  0
   59.3230   26.9940   45.3330 C   0  0  0  0  0  0  0  0  0  0  0  0
   58.1140   27.1410   44.6470 C   0  0  0  0  0  0  0  0  0  0  0  0
   57.7430   28.3910   44.1420 C   0  0  0  0  0  0  0  0  0  0  0  0
   61.7380   33.9450   47.8050 N   0  0  0  0  0  0  0  0  0  0  0  0
   62.7880   33.2720   47.0240 C   0  0  0  0  0  0  0  0  0  0  0  0
   63.4220   32.1500   47.8530 C   0  0  0  0  0  0  0  0  0  0  0  0
   63.6960   32.5940   49.2260 N   0  0  0  0  0  0  0  0  0  0  0  0
   64.0890   31.6270   50.2070 C   0  0  0  0  0  0  0  0  0  0  0  0
   63.1420   30.7150   50.6880 C   0  0  0  0  0  0  0  0  0  0  0  0
   63.5040   29.7510   51.6290 C   0  0  0  0  0  0  0  0  0  0  0  0
   64.8150   29.6950   52.1010 C   0  0  0  0  0  0  0  0  0  0  0  0
   65.7740   30.6050   51.6410 C   0  0  0  0  0  0  0  0  0  0  0  0
   67.0730   30.5150   52.1440 O   0  0  0  0  0  0  0  0  0  0  0  0
   65.4120   31.5810   50.6880 C   0  0  0  0  0  0  0  0  0  0  0  0
   66.5870   32.7680   50.1260 Cl  0  0  0  0  0  0  0  0  0  0  0  0
   63.4330   33.9780   49.6300 C   0  0  0  0  0  0  0  0  0  0  0  0
   62.0290   34.3950   49.1770 C   0  0  0  0  0  0  0  0  0  0  0  0
   60.3422   32.3866   46.1626 H   0  0  0  0  0  0  0  0  0  0  0  0
   58.7775   32.3399   48.1321 H   0  0  0  0  0  0  0  0  0  0  0  0
   57.7432   33.5449   47.2760 H   0  0  0  0  0  0  0  0  0  0  0  0
   58.3284   30.6515   46.5419 H   0  0  0  0  0  0  0  0  0  0  0  0
   56.7437   31.4932   46.7023 H   0  0  0  0  0  0  0  0  0  0  0  0
   58.1866   33.4395   43.3777 H   0  0  0  0  0  0  0  0  0  0  0  0
   57.2478   33.9892   44.8309 H   0  0  0  0  0  0  0  0  0  0  0  0
   60.1140   33.7310   44.4230 H   0  0  0  0  0  0  0  0  0  0  0  0
   56.0122   30.5183   44.5681 H   0  0  0  0  0  0  0  0  0  0  0  0
   55.8465   31.5838   43.4449 H   0  0  0  0  0  0  0  0  0  0  0  0
   58.7850   30.8125   42.9071 H   0  0  0  0  0  0  0  0  0  0  0  0
   60.4483   30.2190   45.1778 H   0  0  0  0  0  0  0  0  0  0  0  0
   61.1122   27.9799   46.0576 H   0  0  0  0  0  0  0  0  0  0  0  0
   59.6143   26.0100   45.7290 H   0  0  0  0  0  0  0  0  0  0  0  0
   57.4540   26.2727   44.5043 H   0  0  0  0  0  0  0  0  0  0  0  0
   56.7797   28.5080   43.6240 H   0  0  0  0  0  0  0  0  0  0  0  0
   62.3459   32.8452   46.1116 H   0  0  0  0  0  0  0  0  0  0  0  0
   63.5636   34.0047   46.7562 H   0  0  0  0  0  0  0  0  0  0  0  0
   62.7328   31.2932   47.8837 H   0  0  0  0  0  0  0  0  0  0  0  0
   64.3745   31.8648   47.3825 H   0  0  0  0  0  0  0  0  0  0  0  0
   62.1058   30.7589   50.3215 H   0  0  0  0  0  0  0  0  0  0  0  0
   62.7553   29.0350   51.9987 H   0  0  0  0  0  0  0  0  0  0  0  0
   65.0974   28.9305   52.8398 H   0  0  0  0  0  0  0  0  0  0  0  0
   67.2730   30.3710   53.1260 H   0  0  0  0  0  0  0  0  0  0  0  0
   63.5019   34.0579   50.7249 H   0  0  0  0  0  0  0  0  0  0  0  0
   64.1765   34.6398   49.1618 H   0  0  0  0  0  0  0  0  0  0  0  0
   61.2890   33.9533   49.8606 H   0  0  0  0  0  0  0  0  0  0  0  0
   61.9779   35.4937   49.1933 H   0  0  0  0  0  0  0  0  0  0  0  0
  1  2  2  0
  2  3  1  0
  3  4  1  0
  4  5  1  0
  6  5  1  1
  6  7  1  0
  7  8  1  0
  6  9  1  0
  9 10  1  0
 10 11  1  0
 11 12  2  0
 12 13  1  0
 13 14  2  0
 14 15  1  0
 15 16  2  0
  2 17  1  0
 17 18  1  0
 18 19  1  0
 19 20  1  0
 20 21  1  0
 21 22  2  0
 22 23  1  0
 23 24  2  0
 24 25  1  0
 25 26  1  0
 25 27  2  0
 27 28  1  0
 20 29  1  0
 29 30  1  0
  8  3  1  0
 16 11  1  0
 30 17  1  0
 10  6  1  0
 27 21  1  0
  3 31  1  6
  4 32  1  0
  4 33  1  0
  5 34  1  0
  5 35  1  0
  7 36  1  0
  7 37  1  0
  8 38  1  0
  9 39  1  0
  9 40  1  0
 10 41  1  6
 12 42  1  0
 13 43  1  0
 14 44  1  0
 15 45  1  0
 16 46  1  0
 18 47  1  0
 18 48  1  0
 19 49  1  0
 19 50  1  0
 22 51  1  0
 23 52  1  0
 24 53  1  0
 26 54  1  0
 29 55  1  0
 29 56  1  0
 30 57  1  0
 30 58  1  0
M  END
>  <UniqueID>  (44) 
43

>  <SMILES>  (44) 
O=C([C@H]1CC[C@]2(CN1)CC2c1ccccc1)N1CCN(c2cccc(O)c2Cl)CC1

>  <Energy>  (44) 
348.7237696843307

>  <Genealogy>  (44) 
O=C([C@H]1CC[C@]2(CN1)CC2c1ccccc1)N1CCN(c2cccc(O)c2Cl)CC1 (chirality)
O=C([C@H]1CC[C@]2(CN1)CC2c1ccccc1)N1CCN(c2cccc(O)c2Cl)CC1 (3D coordinates assigned)
O=C([C@H]1CC[C@]2(CN1)CC2c1ccccc1)N1CCN(c2cccc(O)c2Cl)CC1 (nonaromatic ring conformer: 348.7237696843307 kcal/mol)

>  <smiles>  (44) 
O=C(C1CCC2(CN1)CC2c1ccccc1)N1CCN(c2cccc(O)c2Cl)CC1

>  <score_type>  (44) 
oracle

>  <origin>  (44) 
adg

>  <m_score__min__energy>  (44) 
-8.5600000000000005

>  <m_primary>  (44) 
energy

$$$$
44:0
     RDKit          3D

 72 75  0  0  0  0  0  0  0  0999 V2000
   57.2140   29.1170   46.4070 O   0  0  0  0  0  0  0  0  0  0  0  0
   56.6530   28.3790   45.5580 C   0  0  0  0  0  0  0  0  0  0  0  0
   57.2630   27.0420   45.2050 C   0  0  0  0  0  0  0  0  0  0  0  0
   58.6930   26.8550   45.7290 C   0  0  0  0  0  0  0  0  0  0  0  0
   58.7310   26.9530   47.1880 N   0  0  0  0  0  0  0  0  0  0  0  0
   59.8930   27.1920   47.9950 C   0  0  0  0  0  0  0  0  0  0  0  0
   60.8620   26.3930   47.9060 O   0  0  0  0  0  0  0  0  0  0  0  0
   60.0000   28.3480   48.9120 C   0  0  0  0  0  0  0  0  0  0  0  0
   60.9640   28.3420   49.9350 C   0  0  0  0  0  0  0  0  0  0  0  0
   61.0680   29.4240   50.8140 C   0  0  0  0  0  0  0  0  0  0  0  0
   60.2210   30.5340   50.6720 C   0  0  0  0  0  0  0  0  0  0  0  0
   60.3220   31.8820   51.8070 S   0  0  0  0  0  0  0  0  0  0  0  0
   60.1870   31.3590   53.2100 O   0  0  0  0  0  0  0  0  0  0  0  0
   59.1780   32.8250   51.5510 O   0  0  0  0  0  0  0  0  0  0  0  0
   61.8290   32.7520   51.6620 N   0  0  0  0  0  0  0  0  0  0  0  0
   62.9240   31.8330   51.3110 C   0  0  0  0  0  0  0  0  0  0  0  0
   64.2060   32.6200   50.9700 C   0  0  0  0  0  0  0  0  0  0  0  0
   64.0790   33.9830   51.3270 O   0  0  0  0  0  0  0  0  0  0  0  0
   63.0530   34.5870   50.5580 C   0  0  0  0  0  0  0  0  0  0  0  0
   61.7190   33.8170   50.6560 C   0  0  0  0  0  0  0  0  0  0  0  0
   59.2860   30.5590   49.6290 C   0  0  0  0  0  0  0  0  0  0  0  0
   59.1850   29.4790   48.7480 C   0  0  0  0  0  0  0  0  0  0  0  0
   55.5210   28.8950   44.8480 N   0  0  0  0  0  0  0  0  0  0  0  0
   55.4940   30.1490   44.1040 C   0  0  0  0  0  0  0  0  0  0  0  0
   56.8780   30.4670   43.5330 C   0  0  0  0  0  0  0  0  0  0  0  0
   57.6530   31.3260   44.4940 C   0  0  0  0  0  0  0  0  0  0  0  0
   58.7850   30.8130   45.1500 C   0  0  0  0  0  0  0  0  0  0  0  0
   59.4630   31.5880   46.0970 C   0  0  0  0  0  0  0  0  0  0  0  0
   59.0100   32.8770   46.4110 C   0  0  0  0  0  0  0  0  0  0  0  0
   59.8380   33.8390   47.6400 S   0  0  0  0  0  0  0  0  0  0  0  0
   59.6010   35.2980   47.3580 O   0  0  0  0  0  0  0  0  0  0  0  0
   59.2510   33.5270   48.9870 O   0  0  0  0  0  0  0  0  0  0  0  0
   61.5540   33.5280   47.6730 N   0  0  0  0  0  0  0  0  0  0  0  0
   61.8130   32.1080   47.9640 C   0  0  0  0  0  0  0  0  0  0  0  0
   63.3210   31.8000   47.8520 C   0  0  0  0  0  0  0  0  0  0  0  0
   64.0770   32.9780   47.6340 O   0  0  0  0  0  0  0  0  0  0  0  0
   63.6810   33.5790   46.4130 C   0  0  0  0  0  0  0  0  0  0  0  0
   62.1720   33.9030   46.3930 C   0  0  0  0  0  0  0  0  0  0  0  0
   57.8770   33.3860   45.7650 C   0  0  0  0  0  0  0  0  0  0  0  0
   57.2020   32.6170   44.8120 C   0  0  0  0  0  0  0  0  0  0  0  0
   56.6310   26.2492   45.6317 H   0  0  0  0  0  0  0  0  0  0  0  0
   57.3156   26.9941   44.1073 H   0  0  0  0  0  0  0  0  0  0  0  0
   59.0614   25.8642   45.4248 H   0  0  0  0  0  0  0  0  0  0  0  0
   59.3286   27.6473   45.3067 H   0  0  0  0  0  0  0  0  0  0  0  0
   61.6402   27.4813   50.0445 H   0  0  0  0  0  0  0  0  0  0  0  0
   61.8164   29.4053   51.6199 H   0  0  0  0  0  0  0  0  0  0  0  0
   63.1245   31.1675   52.1636 H   0  0  0  0  0  0  0  0  0  0  0  0
   62.6246   31.2449   50.4309 H   0  0  0  0  0  0  0  0  0  0  0  0
   65.0526   32.1824   51.5194 H   0  0  0  0  0  0  0  0  0  0  0  0
   64.3748   32.5581   49.8848 H   0  0  0  0  0  0  0  0  0  0  0  0
   62.8966   35.6137   50.9206 H   0  0  0  0  0  0  0  0  0  0  0  0
   63.3710   34.5777   49.5050 H   0  0  0  0  0  0  0  0  0  0  0  0
   60.9173   34.5119   50.9466 H   0  0  0  0  0  0  0  0  0  0  0  0
   61.4867   33.3692   49.6785 H   0  0  0  0  0  0  0  0  0  0  0  0
   58.6289   31.4321   49.5031 H   0  0  0  0  0  0  0  0  0  0  0  0
   58.4617   29.5154   47.9201 H   0  0  0  0  0  0  0  0  0  0  0  0
   54.7730   30.0635   43.2776 H   0  0  0  0  0  0  0  0  0  0  0  0
   55.1972   30.9594   44.7860 H   0  0  0  0  0  0  0  0  0  0  0  0
   57.4251   29.5280   43.3629 H   0  0  0  0  0  0  0  0  0  0  0  0
   56.7580   31.0098   42.5838 H   0  0  0  0  0  0  0  0  0  0  0  0
   59.1394   29.7979   44.9179 H   0  0  0  0  0  0  0  0  0  0  0  0
   60.3555   31.1842   46.5974 H   0  0  0  0  0  0  0  0  0  0  0  0
   61.4716   31.8794   48.9844 H   0  0  0  0  0  0  0  0  0  0  0  0
   61.2685   31.4902   47.2348 H   0  0  0  0  0  0  0  0  0  0  0  0
   63.6592   31.3259   48.7852 H   0  0  0  0  0  0  0  0  0  0  0  0
   63.4732   31.1287   46.9940 H   0  0  0  0  0  0  0  0  0  0  0  0
   64.2468   34.5123   46.2762 H   0  0  0  0  0  0  0  0  0  0  0  0
   63.8873   32.8670   45.6003 H   0  0  0  0  0  0  0  0  0  0  0  0
   62.0343   34.9814   46.2255 H   0  0  0  0  0  0  0  0  0  0  0  0
   61.6936   33.3324   45.5833 H   0  0  0  0  0  0  0  0  0  0  0  0
   57.5159   34.3961   46.0084 H   0  0  0  0  0  0  0  0  0  0  0  0
   56.3132   33.0256   44.3089 H   0  0  0  0  0  0  0  0  0  0  0  0
  1  2  2  0
  2  3  1  0
  3  4  1  0
  4  5  1  0
  5  6  1  0
  6  7  2  0
  6  8  1  0
  8  9  2  0
  9 10  1  0
 10 11  2  0
 11 12  1  0
 12 13  2  0
 12 14  2  0
 12 15  1  0
 15 16  1  0
 16 17  1  0
 17 18  1  0
 18 19  1  0
 19 20  1  0
 11 21  1  0
 21 22  2  0
  2 23  1  0
 23 24  1  0
 24 25  1  0
 25 26  1  0
 26 27  2  0
 27 28  1  0
 28 29  2  0
 29 30  1  0
 30 31  2  0
 30 32  2  0
 30 33  1  0
 33 34  1  0
 34 35  1  0
 35 36  1  0
 36 37  1  0
 37 38  1  0
 29 39  1  0
 39 40  2  0
 22  8  1  0
 40 26  1  0
 20 15  1  0
 38 33  1  0
  3 41  1  0
  3 42  1  0
  4 43  1  0
  4 44  1  0
  9 45  1  0
 10 46  1  0
 16 47  1  0
 16 48  1  0
 17 49  1  0
 17 50  1  0
 19 51  1  0
 19 52  1  0
 20 53  1  0
 20 54  1  0
 21 55  1  0
 22 56  1  0
 24 57  1  0
 24 58  1  0
 25 59  1  0
 25 60  1  0
 27 61  1  0
 28 62  1  0
 34 63  1  0
 34 64  1  0
 35 65  1  0
 35 66  1  0
 37 67  1  0
 37 68  1  0
 38 69  1  0
 38 70  1  0
 39 71  1  0
 40 72  1  0
M  CHG  2   5  -1  23  -1
M  END
>  <UniqueID>  (45) 
44

>  <SMILES>  (45) 
O=C(CC[N-]C(=O)c1ccc(S(=O)(=O)N2CCOCC2)cc1)[N-]CCc1ccc(S(=O)(=O)N2CCOCC2)cc1

>  <Energy>  (45) 
88.67297775458681

>  <Genealogy>  (45) 
O=C(CC[N-]C(=O)c1ccc(S(=O)(=O)N2CCOCC2)cc1)[N-]CCc1ccc(S(=O)(=O)N2CCOCC2)cc1 (protonated)
O=C(CC[N-]C(=O)c1ccc(S(=O)(=O)N2CCOCC2)cc1)[N-]CCc1ccc(S(=O)(=O)N2CCOCC2)cc1 (3D coordinates assigned)
O=C(CC[N-]C(=O)c1ccc(S(=O)(=O)N2CCOCC2)cc1)[N-]CCc1ccc(S(=O)(=O)N2CCOCC2)cc1 (nonaromatic ring conformer: 88.67297775458681 kcal/mol)

>  <smiles>  (45) 
O=C(CCNC(=O)c1ccc(S(=O)(=O)N2CCOCC2)cc1)NCCc1ccc(S(=O)(=O)N2CCOCC2)cc1

>  <score_type>  (45) 
oracle

>  <origin>  (45) 
adg

>  <m_score__min__energy>  (45) 
-13.359999999999999

>  <m_primary>  (45) 
energy

$$$$
45:0
     RDKit          3D

 44 46  0  0  0  0  0  0  0  0999 V2000
   57.9030   31.7310   42.9980 C   0  0  0  0  0  0  0  0  0  0  0  0
   56.6690   30.8440   42.8930 C   0  0  0  0  0  0  0  0  0  0  0  0
   56.7820   29.6780   43.8200 C   0  0  0  0  0  0  0  0  0  0  0  0
   57.7300   28.7260   43.7220 N   0  0  0  0  0  0  0  0  0  0  0  0
   57.3900   27.9140   44.7450 C   0  0  0  0  0  0  0  0  0  0  0  0
   58.1060   26.6380   45.0600 C   0  0  0  0  0  0  0  0  0  0  0  0
   58.7650   26.7030   46.4120 C   0  0  0  0  0  0  0  0  0  0  0  0
   58.8860   25.6480   47.0950 O   0  0  0  0  0  0  0  0  0  0  0  0
   59.2850   27.9450   46.9270 N   0  0  0  0  0  0  0  0  0  0  0  0
   60.3940   28.6370   46.2650 C   0  0  0  0  0  0  0  0  0  0  0  0
   60.0590   30.1170   46.1550 C   0  0  0  0  0  0  0  0  0  0  0  0
   59.7400   30.6750   47.4760 N   0  0  0  0  0  0  0  0  0  0  0  0
   59.9780   32.1030   47.7280 C   0  0  0  0  0  0  0  0  0  0  0  0
   59.2010   32.9500   46.7510 C   0  0  0  0  0  0  0  0  0  0  0  0
   57.8230   32.7280   46.5800 C   0  0  0  0  0  0  0  0  0  0  0  0
   57.0820   33.5180   45.6980 C   0  0  0  0  0  0  0  0  0  0  0  0
   57.7090   34.5380   44.9780 C   0  0  0  0  0  0  0  0  0  0  0  0
   59.0780   34.7670   45.1380 C   0  0  0  0  0  0  0  0  0  0  0  0
   59.8260   33.9780   46.0190 C   0  0  0  0  0  0  0  0  0  0  0  0
   61.1560   34.2150   46.1450 F   0  0  0  0  0  0  0  0  0  0  0  0
   59.0420   29.8680   48.4490 C   0  0  0  0  0  0  0  0  0  0  0  0
   58.5820   30.3940   49.4980 O   0  0  0  0  0  0  0  0  0  0  0  0
   58.8990   28.3790   48.2750 C   0  0  0  0  0  0  0  0  0  0  0  0
   56.2950   28.3370   45.4040 N   0  0  0  0  0  0  0  0  0  0  0  0
   55.9500   29.4350   44.8020 O   0  0  0  0  0  0  0  0  0  0  0  0
   58.1420   31.9028   44.0579 H   0  0  0  0  0  0  0  0  0  0  0  0
   58.7533   31.2361   42.5060 H   0  0  0  0  0  0  0  0  0  0  0  0
   57.7048   32.6947   42.5060 H   0  0  0  0  0  0  0  0  0  0  0  0
   55.7774   31.4315   43.1574 H   0  0  0  0  0  0  0  0  0  0  0  0
   56.5856   30.4714   41.8614 H   0  0  0  0  0  0  0  0  0  0  0  0
   57.3825   25.8094   45.0529 H   0  0  0  0  0  0  0  0  0  0  0  0
   58.8852   26.4790   44.3000 H   0  0  0  0  0  0  0  0  0  0  0  0
   61.3132   28.5098   46.8556 H   0  0  0  0  0  0  0  0  0  0  0  0
   60.5489   28.2153   45.2609 H   0  0  0  0  0  0  0  0  0  0  0  0
   60.9231   30.6529   45.7354 H   0  0  0  0  0  0  0  0  0  0  0  0
   59.1833   30.2344   45.4998 H   0  0  0  0  0  0  0  0  0  0  0  0
   59.6594   32.3476   48.7520 H   0  0  0  0  0  0  0  0  0  0  0  0
   61.0509   32.3116   47.6039 H   0  0  0  0  0  0  0  0  0  0  0  0
   57.3249   31.9263   47.1450 H   0  0  0  0  0  0  0  0  0  0  0  0
   56.0045   33.3370   45.5703 H   0  0  0  0  0  0  0  0  0  0  0  0
   57.1247   35.1610   44.2849 H   0  0  0  0  0  0  0  0  0  0  0  0
   59.5695   35.5703   44.5695 H   0  0  0  0  0  0  0  0  0  0  0  0
   59.5420   27.8719   49.0094 H   0  0  0  0  0  0  0  0  0  0  0  0
   57.8411   28.1185   48.4267 H   0  0  0  0  0  0  0  0  0  0  0  0
  1  2  1  0
  2  3  1  0
  3  4  2  0
  4  5  1  0
  5  6  1  0
  6  7  1  0
  7  8  2  0
  7  9  1  0
  9 10  1  0
 10 11  1  0
 11 12  1  0
 12 13  1  0
 13 14  1  0
 14 15  2  0
 15 16  1  0
 16 17  2  0
 17 18  1  0
 18 19  2  0
 19 20  1  0
 12 21  1  0
 21 22  2  0
 21 23  1  0
  5 24  2  0
 24 25  1  0
 25  3  1  0
 23  9  1  0
 19 14  1  0
  1 26  1  0
  1 27  1  0
  1 28  1  0
  2 29  1  0
  2 30  1  0
  6 31  1  0
  6 32  1  0
 10 33  1  0
 10 34  1  0
 11 35  1  0
 11 36  1  0
 13 37  1  0
 13 38  1  0
 15 39  1  0
 16 40  1  0
 17 41  1  0
 18 42  1  0
 23 43  1  0
 23 44  1  0
M  END
>  <UniqueID>  (46) 
45

>  <SMILES>  (46) 
CCc1nc(CC(=O)N2CCN(Cc3ccccc3F)C(=O)C2)no1

>  <Energy>  (46) 
73.89774513215285

>  <Genealogy>  (46) 
CCc1nc(CC(=O)N2CCN(Cc3ccccc3F)C(=O)C2)no1 (3D coordinates assigned)
CCc1nc(CC(=O)N2CCN(Cc3ccccc3F)C(=O)C2)no1 (nonaromatic ring conformer: 73.89774513215285 kcal/mol)

>  <smiles>  (46) 
CCc1nc(CC(=O)N2CCN(Cc3ccccc3F)C(=O)C2)no1

>  <score_type>  (46) 
oracle

>  <origin>  (46) 
adg

>  <m_score__min__energy>  (46) 
-8.1699999999999999

>  <m_primary>  (46) 
energy

$$$$
46:0
     RDKit          3D

 49 51  0  0  0  0  0  0  0  0999 V2000
   61.2470   27.5560   49.9890 O   0  0  0  0  0  0  0  0  0  0  0  0
   60.4680   27.6350   49.0000 C   0  0  0  0  0  0  0  0  0  0  0  0
   60.4650   26.5420   47.9780 C   0  0  0  0  0  0  0  0  0  0  0  0
   59.4800   26.8550   46.9010 C   0  0  0  0  0  0  0  0  0  0  0  0
   58.1650   27.0530   47.1300 N   0  0  0  0  0  0  0  0  0  0  0  0
   57.6730   27.2960   45.8990 C   0  0  0  0  0  0  0  0  0  0  0  0
   56.2440   27.5390   45.6360 C   0  0  0  0  0  0  0  0  0  0  0  0
   55.4190   26.6330   45.9150 O   0  0  0  0  0  0  0  0  0  0  0  0
   55.7480   28.7790   45.1120 N   0  0  0  0  0  0  0  0  0  0  0  0
   56.1150   29.4050   43.8440 C   0  0  0  0  0  0  0  0  0  0  0  0
   56.9650   30.6310   44.0630 C   0  0  0  0  0  0  0  0  0  0  0  0
   57.4970   30.9070   45.3340 C   0  0  0  0  0  0  0  0  0  0  0  0
   58.2810   32.0470   45.5380 C   0  0  0  0  0  0  0  0  0  0  0  0
   58.5240   32.9280   44.4790 C   0  0  0  0  0  0  0  0  0  0  0  0
   57.9890   32.6660   43.2150 C   0  0  0  0  0  0  0  0  0  0  0  0
   57.2090   31.5250   43.0070 C   0  0  0  0  0  0  0  0  0  0  0  0
   58.6910   27.2040   44.9730 C   0  0  0  0  0  0  0  0  0  0  0  0
   59.7950   26.9390   45.6270 O   0  0  0  0  0  0  0  0  0  0  0  0
   59.6220   28.7820   48.8270 N   0  0  0  0  0  0  0  0  0  0  0  0
   59.6580   29.9320   49.7320 C   0  0  0  0  0  0  0  0  0  0  0  0
   59.3260   31.2140   49.0060 C   0  0  0  0  0  0  0  0  0  0  0  0
   58.2700   31.2750   48.3200 O   0  0  0  0  0  0  0  0  0  0  0  0
   60.2240   32.3440   49.0260 N   0  0  0  0  0  0  0  0  0  0  0  0
   59.6820   33.7020   48.8890 C   0  0  0  0  0  0  0  0  0  0  0  0
   60.7270   34.6250   48.2590 C   0  0  0  0  0  0  0  0  0  0  0  0
   61.9510   34.5500   48.9630 O   0  0  0  0  0  0  0  0  0  0  0  0
   62.5020   33.2570   48.8220 C   0  0  0  0  0  0  0  0  0  0  0  0
   61.6100   32.2030   49.4890 C   0  0  0  0  0  0  0  0  0  0  0  0
   61.4692   26.4512   47.5384 H   0  0  0  0  0  0  0  0  0  0  0  0
   60.1833   25.5951   48.4618 H   0  0  0  0  0  0  0  0  0  0  0  0
   56.6795   28.6815   43.2375 H   0  0  0  0  0  0  0  0  0  0  0  0
   55.1926   29.7101   43.3281 H   0  0  0  0  0  0  0  0  0  0  0  0
   57.2959   30.2235   46.1721 H   0  0  0  0  0  0  0  0  0  0  0  0
   58.7067   32.2509   46.5316 H   0  0  0  0  0  0  0  0  0  0  0  0
   59.1364   33.8273   44.6413 H   0  0  0  0  0  0  0  0  0  0  0  0
   58.1820   33.3587   42.3825 H   0  0  0  0  0  0  0  0  0  0  0  0
   56.7842   31.3261   42.0120 H   0  0  0  0  0  0  0  0  0  0  0  0
   58.5938   27.3300   43.8846 H   0  0  0  0  0  0  0  0  0  0  0  0
   59.0830   28.8610   47.9340 H   0  0  0  0  0  0  0  0  0  0  0  0
   58.9253   29.7767   50.5376 H   0  0  0  0  0  0  0  0  0  0  0  0
   60.6752   30.0191   50.1415 H   0  0  0  0  0  0  0  0  0  0  0  0
   58.7882   33.6739   48.2485 H   0  0  0  0  0  0  0  0  0  0  0  0
   59.4171   34.0857   49.8853 H   0  0  0  0  0  0  0  0  0  0  0  0
   60.8924   34.3228   47.2143 H   0  0  0  0  0  0  0  0  0  0  0  0
   60.3568   35.6599   48.3035 H   0  0  0  0  0  0  0  0  0  0  0  0
   62.5979   33.0217   47.7517 H   0  0  0  0  0  0  0  0  0  0  0  0
   63.4876   33.2412   49.3102 H   0  0  0  0  0  0  0  0  0  0  0  0
   61.9788   31.1993   49.2310 H   0  0  0  0  0  0  0  0  0  0  0  0
   61.6401   32.3459   50.5793 H   0  0  0  0  0  0  0  0  0  0  0  0
  1  2  2  0
  2  3  1  0
  3  4  1  0
  4  5  2  0
  5  6  1  0
  6  7  1  0
  7  8  2  0
  7  9  1  0
  9 10  1  0
 10 11  1  0
 11 12  2  0
 12 13  1  0
 13 14  2  0
 14 15  1  0
 15 16  2  0
  6 17  2  0
 17 18  1  0
  2 19  1  0
 19 20  1  0
 20 21  1  0
 21 22  2  0
 21 23  1  0
 23 24  1  0
 24 25  1  0
 25 26  1  0
 26 27  1  0
 27 28  1  0
 18  4  1  0
 28 23  1  0
 16 11  1  0
  3 29  1  0
  3 30  1  0
 10 31  1  0
 10 32  1  0
 12 33  1  0
 13 34  1  0
 14 35  1  0
 15 36  1  0
 16 37  1  0
 17 38  1  0
 19 39  1  0
 20 40  1  0
 20 41  1  0
 24 42  1  0
 24 43  1  0
 25 44  1  0
 25 45  1  0
 27 46  1  0
 27 47  1  0
 28 48  1  0
 28 49  1  0
M  CHG  1   9  -1
M  END
>  <UniqueID>  (47) 
46

>  <SMILES>  (47) 
O=C(Cc1nc(C(=O)[N-]Cc2ccccc2)co1)NCC(=O)N1CCOCC1

>  <Energy>  (47) 
80.15321533918666

>  <Genealogy>  (47) 
O=C(Cc1nc(C(=O)[N-]Cc2ccccc2)co1)NCC(=O)N1CCOCC1 (protonated)
O=C(Cc1nc(C(=O)[N-]Cc2ccccc2)co1)NCC(=O)N1CCOCC1 (3D coordinates assigned)
O=C(Cc1nc(C(=O)[N-]Cc2ccccc2)co1)NCC(=O)N1CCOCC1 (nonaromatic ring conformer: 80.15321533918666 kcal/mol)

>  <smiles>  (47) 
O=C(Cc1nc(C(=O)NCc2ccccc2)co1)NCC(=O)N1CCOCC1

>  <score_type>  (47) 
oracle

>  <origin>  (47) 
adg

>  <m_score__min__energy>  (47) 
-9.6899999999999995

>  <m_primary>  (47) 
energy

$$$$
47:0
     RDKit          3D

 68 71  0  0  0  0  0  0  0  0999 V2000
   54.7880   29.5260   52.8520 C   0  0  0  0  0  0  0  0  0  0  0  0
   55.7330   28.5840   53.5820 C   0  0  0  0  0  0  0  0  0  0  0  0
   57.0390   28.6940   53.0250 O   0  0  0  0  0  0  0  0  0  0  0  0
   57.9720   29.6410   53.4650 C   0  0  0  0  0  0  0  0  0  0  0  0
   58.6120   29.4470   54.5370 O   0  0  0  0  0  0  0  0  0  0  0  0
   58.1930   30.8360   52.6930 N   0  0  0  0  0  0  0  0  0  0  0  0
   57.3900   31.0490   51.4810 C   0  0  0  0  0  0  0  0  0  0  0  0
   57.7990   32.3400   50.7750 C   0  0  0  0  0  0  0  0  0  0  0  0
   59.2650   32.4090   50.7420 N   0  0  0  0  0  0  0  0  0  0  0  0
   59.8050   33.6520   49.6390 S   0  0  0  0  0  0  0  0  0  0  0  0
   61.3080   33.7030   49.6380 O   0  0  0  0  0  0  0  0  0  0  0  0
   59.2920   34.9850   50.1100 O   0  0  0  0  0  0  0  0  0  0  0  0
   59.2420   33.3540   47.9920 C   0  0  0  0  0  0  0  0  0  0  0  0
   60.0960   33.5530   46.8970 C   0  0  0  0  0  0  0  0  0  0  0  0
   59.6360   33.3310   45.5950 C   0  0  0  0  0  0  0  0  0  0  0  0
   58.3080   32.9390   45.3760 C   0  0  0  0  0  0  0  0  0  0  0  0
   57.7850   32.7620   44.0120 C   0  0  0  0  0  0  0  0  0  0  0  0
   57.7690   31.5820   43.3760 C   0  0  0  0  0  0  0  0  0  0  0  0
   56.6990   30.5760   43.5140 C   0  0  0  0  0  0  0  0  0  0  0  0
   56.0030   30.2780   42.5070 O   0  0  0  0  0  0  0  0  0  0  0  0
   56.3760   30.0400   44.8020 N   0  0  0  0  0  0  0  0  0  0  0  0
   57.2030   29.1790   45.5930 C   0  0  0  0  0  0  0  0  0  0  0  0
   56.9240   27.8160   45.6050 C   0  0  0  0  0  0  0  0  0  0  0  0
   57.7020   26.9510   46.3620 C   0  0  0  0  0  0  0  0  0  0  0  0
   58.7410   27.4370   47.1640 C   0  0  0  0  0  0  0  0  0  0  0  0
   59.4960   26.4920   47.8490 O   0  0  0  0  0  0  0  0  0  0  0  0
   58.9960   28.8400   47.2500 C   0  0  0  0  0  0  0  0  0  0  0  0
   59.9620   29.4160   48.1970 N   0  0  0  0  0  0  0  0  0  0  0  0
   59.9840   28.9250   49.5970 C   0  0  0  0  0  0  0  0  0  0  0  0
   61.0790   29.5460   50.4760 C   0  0  0  0  0  0  0  0  0  0  0  0
   61.3610   30.8730   50.0990 O   0  0  0  0  0  0  0  0  0  0  0  0
   61.9310   30.8530   48.8140 C   0  0  0  0  0  0  0  0  0  0  0  0
   60.8690   30.5040   47.7740 C   0  0  0  0  0  0  0  0  0  0  0  0
   58.2230   29.6880   46.4120 C   0  0  0  0  0  0  0  0  0  0  0  0
   57.4630   32.7150   46.4700 C   0  0  0  0  0  0  0  0  0  0  0  0
   57.9280   32.9160   47.7710 C   0  0  0  0  0  0  0  0  0  0  0  0
   59.8400   32.6200   52.0890 C   0  0  0  0  0  0  0  0  0  0  0  0
   59.0400   31.9230   53.2100 C   0  0  0  0  0  0  0  0  0  0  0  0
   54.2076   30.1045   53.5858 H   0  0  0  0  0  0  0  0  0  0  0  0
   55.3705   30.2135   52.2211 H   0  0  0  0  0  0  0  0  0  0  0  0
   54.1024   28.9413   52.2211 H   0  0  0  0  0  0  0  0  0  0  0  0
   55.7657   28.8517   54.6484 H   0  0  0  0  0  0  0  0  0  0  0  0
   55.3748   27.5496   53.4737 H   0  0  0  0  0  0  0  0  0  0  0  0
   57.5399   30.2012   50.7963 H   0  0  0  0  0  0  0  0  0  0  0  0
   56.3316   31.1273   51.7704 H   0  0  0  0  0  0  0  0  0  0  0  0
   57.4043   32.3424   49.7483 H   0  0  0  0  0  0  0  0  0  0  0  0
   57.3930   33.2089   51.3137 H   0  0  0  0  0  0  0  0  0  0  0  0
   61.1315   33.8849   47.0631 H   0  0  0  0  0  0  0  0  0  0  0  0
   60.3172   33.4642   44.7416 H   0  0  0  0  0  0  0  0  0  0  0  0
   57.3868   33.6430   43.4874 H   0  0  0  0  0  0  0  0  0  0  0  0
   58.6099   31.3483   42.7065 H   0  0  0  0  0  0  0  0  0  0  0  0
   56.0845   27.4228   45.0129 H   0  0  0  0  0  0  0  0  0  0  0  0
   57.4995   25.8702   46.3312 H   0  0  0  0  0  0  0  0  0  0  0  0
   59.0090   29.1491   50.0543 H   0  0  0  0  0  0  0  0  0  0  0  0
   60.1997   27.8476   49.5457 H   0  0  0  0  0  0  0  0  0  0  0  0
   60.7429   29.5370   51.5233 H   0  0  0  0  0  0  0  0  0  0  0  0
   61.9964   28.9522   50.3506 H   0  0  0  0  0  0  0  0  0  0  0  0
   62.3508   31.8440   48.5868 H   0  0  0  0  0  0  0  0  0  0  0  0
   62.7264   30.0938   48.7849 H   0  0  0  0  0  0  0  0  0  0  0  0
   60.2661   31.4028   47.5774 H   0  0  0  0  0  0  0  0  0  0  0  0
   61.3992   30.1517   46.8769 H   0  0  0  0  0  0  0  0  0  0  0  0
   58.4287   30.7686   46.4049 H   0  0  0  0  0  0  0  0  0  0  0  0
   56.4288   32.3793   46.3036 H   0  0  0  0  0  0  0  0  0  0  0  0
   57.2613   32.7302   48.6260 H   0  0  0  0  0  0  0  0  0  0  0  0
   60.8669   32.2258   52.0960 H   0  0  0  0  0  0  0  0  0  0  0  0
   59.8097   33.7009   52.2907 H   0  0  0  0  0  0  0  0  0  0  0  0
   59.7464   31.5045   53.9421 H   0  0  0  0  0  0  0  0  0  0  0  0
   58.3824   32.6733   53.6732 H   0  0  0  0  0  0  0  0  0  0  0  0
  1  2  1  0
  2  3  1  0
  3  4  1  0
  4  5  2  0
  4  6  1  0
  6  7  1  0
  7  8  1  0
  8  9  1  0
  9 10  1  0
 10 11  2  0
 10 12  2  0
 10 13  1  0
 13 14  2  0
 14 15  1  0
 15 16  2  0
 16 17  1  0
 17 18  2  3
 18 19  1  0
 19 20  2  0
 19 21  1  0
 21 22  1  0
 22 23  2  0
 23 24  1  0
 24 25  2  0
 25 26  1  0
 25 27  1  0
 27 28  1  0
 28 29  1  0
 29 30  1  0
 30 31  1  0
 31 32  1  0
 32 33  1  0
 27 34  2  0
 16 35  1  0
 35 36  2  0
  9 37  1  0
 37 38  1  0
 38  6  1  0
 36 13  1  0
 34 22  1  0
 33 28  1  0
  1 39  1  0
  1 40  1  0
  1 41  1  0
  2 42  1  0
  2 43  1  0
  7 44  1  0
  7 45  1  0
  8 46  1  0
  8 47  1  0
 14 48  1  0
 15 49  1  0
 17 50  1  0
 18 51  1  0
 23 52  1  0
 24 53  1  0
 29 54  1  0
 29 55  1  0
 30 56  1  0
 30 57  1  0
 32 58  1  0
 32 59  1  0
 33 60  1  0
 33 61  1  0
 34 62  1  0
 35 63  1  0
 36 64  1  0
 37 65  1  0
 37 66  1  0
 38 67  1  0
 38 68  1  0
M  CHG  2  21  -1  26  -1
M  END
>  <UniqueID>  (48) 
47

>  <SMILES>  (48) 
CCOC(=O)N1CCN(S(=O)(=O)c2ccc(C=CC(=O)[N-]c3ccc([O-])c(N4CCOCC4)c3)cc2)CC1

>  <Energy>  (48) 
88.29811755179429

>  <Genealogy>  (48) 
CCOC(=O)N1CCN(S(=O)(=O)c2ccc(C=CC(=O)[N-]c3ccc([O-])c(N4CCOCC4)c3)cc2)CC1 (protonated)
CCOC(=O)N1CCN(S(=O)(=O)c2ccc(C=CC(=O)[N-]c3ccc([O-])c(N4CCOCC4)c3)cc2)CC1 (3D coordinates assigned)
CCOC(=O)N1CCN(S(=O)(=O)c2ccc(C=CC(=O)[N-]c3ccc([O-])c(N4CCOCC4)c3)cc2)CC1 (nonaromatic ring conformer: 88.29811755179429 kcal/mol)

>  <smiles>  (48) 
CCOC(=O)N1CCN(S(=O)(=O)c2ccc(C=CC(=O)Nc3ccc(O)c(N4CCOCC4)c3)cc2)CC1

>  <score_type>  (48) 
oracle

>  <origin>  (48) 
adg

>  <m_score__min__energy>  (48) 
-12.99

>  <m_primary>  (48) 
energy

$$$$
48:0
     RDKit          3D

 42 44  0  0  0  0  0  0  0  0999 V2000
   55.8040   29.7460   44.8770 O   0  0  0  0  0  0  0  0  0  0  0  0
   57.0550   29.5710   44.7820 C   0  0  0  0  0  0  0  0  0  0  0  0
   57.6620   28.5920   45.7120 C   0  0  0  0  0  0  0  0  0  0  0  0
   58.9320   29.1490   46.2530 C   0  0  0  0  0  0  0  0  0  0  0  0
   60.0750   29.3280   45.5330 N   0  0  0  0  0  0  0  0  0  0  0  0
   60.9870   29.8400   46.3400 N   0  0  0  0  0  0  0  0  0  0  0  0
   60.4510   29.9960   47.5750 C   0  0  0  0  0  0  0  0  0  0  0  0
   61.1010   30.5330   48.7950 C   0  0  0  0  0  0  0  0  0  0  0  0
   61.9410   31.6970   48.4650 C   0  0  0  0  0  0  0  0  0  0  0  0
   61.8860   32.8930   49.1670 C   0  0  0  0  0  0  0  0  0  0  0  0
   62.7060   33.9380   48.7970 C   0  0  0  0  0  0  0  0  0  0  0  0
   63.5950   33.8370   47.7350 C   0  0  0  0  0  0  0  0  0  0  0  0
   63.6090   32.6240   47.0710 C   0  0  0  0  0  0  0  0  0  0  0  0
   62.8080   31.6000   47.4310 N   0  0  0  0  0  0  0  0  0  0  0  0
   59.1900   29.5650   47.4950 N   0  0  0  0  0  0  0  0  0  0  0  0
   57.8630   30.2660   43.8400 N   0  0  0  0  0  0  0  0  0  0  0  0
   57.2210   31.2040   42.9630 C   0  0  0  0  0  0  0  0  0  0  0  0
   57.7620   32.5950   43.0280 C   0  0  0  0  0  0  0  0  0  0  0  0
   58.0610   33.0920   44.3700 C   0  0  0  0  0  0  0  0  0  0  0  0
   59.1820   33.8780   44.5880 C   0  0  0  0  0  0  0  0  0  0  0  0
   59.5230   34.3800   45.8220 C   0  0  0  0  0  0  0  0  0  0  0  0
   58.7090   34.0890   46.9070 C   0  0  0  0  0  0  0  0  0  0  0  0
   57.6210   33.3260   46.6950 N   0  0  0  0  0  0  0  0  0  0  0  0
   57.2820   32.8330   45.4920 C   0  0  0  0  0  0  0  0  0  0  0  0
   56.9663   28.3919   46.5402 H   0  0  0  0  0  0  0  0  0  0  0  0
   57.8699   27.6544   45.1757 H   0  0  0  0  0  0  0  0  0  0  0  0
   61.9500   30.0880   46.0970 H   0  0  0  0  0  0  0  0  0  0  0  0
   60.3257   30.8386   49.5130 H   0  0  0  0  0  0  0  0  0  0  0  0
   61.7369   29.7492   49.2324 H   0  0  0  0  0  0  0  0  0  0  0  0
   61.1926   33.0066   50.0133 H   0  0  0  0  0  0  0  0  0  0  0  0
   62.6543   34.8812   49.3607 H   0  0  0  0  0  0  0  0  0  0  0  0
   64.2484   34.6712   47.4398 H   0  0  0  0  0  0  0  0  0  0  0  0
   64.2954   32.4898   46.2220 H   0  0  0  0  0  0  0  0  0  0  0  0
   58.8800   30.0460   43.8490 H   0  0  0  0  0  0  0  0  0  0  0  0
   57.3348   30.8406   41.9310 H   0  0  0  0  0  0  0  0  0  0  0  0
   56.1722   31.2645   43.2891 H   0  0  0  0  0  0  0  0  0  0  0  0
   58.6916   32.6249   42.4406 H   0  0  0  0  0  0  0  0  0  0  0  0
   56.9678   33.2466   42.6347 H   0  0  0  0  0  0  0  0  0  0  0  0
   59.8310   34.1117   43.7312 H   0  0  0  0  0  0  0  0  0  0  0  0
   60.4232   34.9999   45.9463 H   0  0  0  0  0  0  0  0  0  0  0  0
   58.9459   34.4707   47.9111 H   0  0  0  0  0  0  0  0  0  0  0  0
   56.3764   32.2165   45.3936 H   0  0  0  0  0  0  0  0  0  0  0  0
  1  2  2  0
  2  3  1  0
  3  4  1  0
  4  5  2  0
  5  6  1  0
  6  7  1  0
  7  8  1  0
  8  9  1  0
  9 10  2  0
 10 11  1  0
 11 12  2  0
 12 13  1  0
 13 14  2  0
  7 15  2  0
  2 16  1  0
 16 17  1  0
 17 18  1  0
 18 19  1  0
 19 20  2  0
 20 21  1  0
 21 22  2  0
 22 23  1  0
 23 24  2  0
 15  4  1  0
 24 19  1  0
 14  9  1  0
  3 25  1  0
  3 26  1  0
  6 27  1  0
  8 28  1  0
  8 29  1  0
 10 30  1  0
 11 31  1  0
 12 32  1  0
 13 33  1  0
 16 34  1  0
 17 35  1  0
 17 36  1  0
 18 37  1  0
 18 38  1  0
 20 39  1  0
 21 40  1  0
 22 41  1  0
 24 42  1  0
M  END
>  <smiles>  (49) 
O=C(Cc1n[nH]c(Cc2ccccn2)n1)NCCc1cccnc1

>  <score_type>  (49) 
oracle

>  <origin>  (49) 
adg

>  <m_score__min__energy>  (49) 
-8.2799999999999994

>  <m_primary>  (49) 
energy

$$$$
49:0
     RDKit          3D

 40 41  0  0  0  0  0  0  0  0999 V2000
   59.6635   27.5506   44.3695 H   0  0  0  0  0  0  0  0  0  0  0  0
   59.0190   27.9830   45.1490 C   0  0  0  0  0  0  0  0  0  0  0  0
   57.6920   27.7510   45.0590 C   0  0  0  0  0  0  0  0  0  0  0  0
   57.1180   26.3870   45.1330 C   0  0  0  0  0  0  0  0  0  0  0  0
   57.5340   25.4990   44.3410 O   0  0  0  0  0  0  0  0  0  0  0  0
   56.0420   26.0520   46.0810 C   0  0  0  0  0  0  0  0  0  0  0  0
   56.3080   25.5270   47.1950 O   0  0  0  0  0  0  0  0  0  0  0  0
   54.7210   26.3340   45.7590 O   0  0  0  0  0  0  0  0  0  0  0  0
   56.7560   28.8890   44.8780 C   0  0  0  0  0  0  0  0  0  0  0  0
   55.5480   28.7410   45.2060 O   0  0  0  0  0  0  0  0  0  0  0  0
   57.1950   30.2020   44.3380 C   0  0  0  0  0  0  0  0  0  0  0  0
   57.0280   30.4920   42.9720 C   0  0  0  0  0  0  0  0  0  0  0  0
   56.5828   29.7403   42.3036 H   0  0  0  0  0  0  0  0  0  0  0  0
   57.4250   31.7310   42.4590 C   0  0  0  0  0  0  0  0  0  0  0  0
   57.2984   31.9477   41.3880 H   0  0  0  0  0  0  0  0  0  0  0  0
   57.9820   32.6940   43.3040 C   0  0  0  0  0  0  0  0  0  0  0  0
   58.2977   33.6661   42.8972 H   0  0  0  0  0  0  0  0  0  0  0  0
   58.1380   32.4230   44.6640 C   0  0  0  0  0  0  0  0  0  0  0  0
   58.5730   33.1834   45.3293 H   0  0  0  0  0  0  0  0  0  0  0  0
   57.7420   31.1860   45.1820 C   0  0  0  0  0  0  0  0  0  0  0  0
   57.8589   30.9808   46.2564 H   0  0  0  0  0  0  0  0  0  0  0  0
   59.6740   28.7740   46.2150 C   0  0  0  0  0  0  0  0  0  0  0  0
   59.4100   28.5420   47.5730 C   0  0  0  0  0  0  0  0  0  0  0  0
   58.6850   27.7677   47.8642 H   0  0  0  0  0  0  0  0  0  0  0  0
   60.0620   29.2880   48.5580 C   0  0  0  0  0  0  0  0  0  0  0  0
   59.8334   29.1044   49.6182 H   0  0  0  0  0  0  0  0  0  0  0  0
   61.0090   30.2730   48.2110 C   0  0  0  0  0  0  0  0  0  0  0  0
   61.6840   31.0520   49.2340 N   0  0  0  0  0  0  0  0  0  0  0  0
   62.7730   31.9710   48.8750 C   0  0  0  0  0  0  0  0  0  0  0  0
   63.2384   32.3637   49.7911 H   0  0  0  0  0  0  0  0  0  0  0  0
   63.5272   31.4322   48.2826 H   0  0  0  0  0  0  0  0  0  0  0  0
   62.3687   32.8050   48.2826 H   0  0  0  0  0  0  0  0  0  0  0  0
   61.2890   30.9380   50.6430 C   0  0  0  0  0  0  0  0  0  0  0  0
   62.1469   31.1856   51.2855 H   0  0  0  0  0  0  0  0  0  0  0  0
   60.4630   31.6344   50.8497 H   0  0  0  0  0  0  0  0  0  0  0  0
   60.9611   29.9086   50.8497 H   0  0  0  0  0  0  0  0  0  0  0  0
   61.2890   30.4760   46.8440 C   0  0  0  0  0  0  0  0  0  0  0  0
   62.0298   31.2333   46.5478 H   0  0  0  0  0  0  0  0  0  0  0  0
   60.6370   29.7270   45.8610 C   0  0  0  0  0  0  0  0  0  0  0  0
   60.8821   29.8872   44.8007 H   0  0  0  0  0  0  0  0  0  0  0  0
  1  2  1  0
  2  3  2  0
  3  4  1  0
  4  5  2  0
  4  6  1  0
  6  7  2  0
  6  8  1  0
  3  9  1  0
  9 10  2  0
  9 11  1  0
 11 12  2  0
 12 13  1  0
 12 14  1  0
 14 15  1  0
 14 16  2  0
 16 17  1  0
 16 18  1  0
 18 19  1  0
 18 20  2  0
 20 21  1  0
  2 22  1  0
 22 23  2  0
 23 24  1  0
 23 25  1  0
 25 26  1  0
 25 27  2  0
 27 28  1  0
 28 29  1  0
 29 30  1  0
 29 31  1  0
 29 32  1  0
 28 33  1  0
 33 34  1  0
 33 35  1  0
 33 36  1  0
 27 37  1  0
 37 38  1  0
 37 39  2  0
 39 40  1  0
 20 11  1  0
 39 22  1  0
M  CHG  1   8  -1
M  END
>  <UniqueID>  (50) 
48

>  <SMILES>  (50) 
CN(C)c1ccc(/C=C(\C(=O)C(=O)[O-])C(=O)c2ccccc2)cc1

>  <Energy>  (50) 
58.59686222760767

>  <Genealogy>  (50) 
CN(C)c1ccc(C=C(C(=O)C(=O)[O-])C(=O)c2ccccc2)cc1 (protonated)
CN(C)c1ccc(/C=C(\C(=O)C(=O)[O-])C(=O)c2ccccc2)cc1 (cis-trans isomerization)
CN(C)c1ccc(/C=C(\C(=O)C(=O)[O-])C(=O)c2ccccc2)cc1 (3D coordinates assigned)
CN(C)c1ccc(/C=C(\C(=O)C(=O)[O-])C(=O)c2ccccc2)cc1 (optimized conformer: 58.59686222760767 kcal/mol)

>  <smiles>  (50) 
CN(C)c1ccc(C=C(C(=O)C(=O)O)C(=O)c2ccccc2)cc1

>  <score_type>  (50) 
oracle

>  <origin>  (50) 
adg

>  <m_score__min__energy>  (50) 
-10.35

>  <m_primary>  (50) 
energy

$$$$
50:0
     RDKit          3D

 29 30  0  0  0  0  0  0  0  0999 V2000
   58.2360   26.0520   46.1070 C   0  0  0  0  0  0  0  0  0  0  0  0
   57.7730   27.2740   45.8390 C   0  0  0  0  0  0  0  0  0  0  0  0
   56.5460   27.4910   45.4210 O   0  0  0  0  0  0  0  0  0  0  0  0
   56.3880   28.7820   45.2410 C   0  0  0  0  0  0  0  0  0  0  0  0
   55.1630   29.3670   44.8020 N   0  0  0  0  0  0  0  0  0  0  0  0
   57.5510   29.4660   45.5540 C   0  0  0  0  0  0  0  0  0  0  0  0
   57.7590   30.9240   45.4800 C   0  0  0  0  0  0  0  0  0  0  0  0
   56.9150   31.6310   44.8660 O   0  0  0  0  0  0  0  0  0  0  0  0
   58.9100   31.5280   46.0950 N   0  0  0  0  0  0  0  0  0  0  0  0
   59.1750   32.9400   46.0980 C   0  0  0  0  0  0  0  0  0  0  0  0
   59.7270   33.5830   47.2210 C   0  0  0  0  0  0  0  0  0  0  0  0
   59.9990   34.9550   47.1850 C   0  0  0  0  0  0  0  0  0  0  0  0
   59.7360   35.6920   46.0280 C   0  0  0  0  0  0  0  0  0  0  0  0
   60.0020   37.0210   45.9950 F   0  0  0  0  0  0  0  0  0  0  0  0
   59.2100   35.0560   44.9000 C   0  0  0  0  0  0  0  0  0  0  0  0
   58.9390   33.6850   44.9320 C   0  0  0  0  0  0  0  0  0  0  0  0
   58.4620   28.4860   45.9340 C   0  0  0  0  0  0  0  0  0  0  0  0
   59.7480   28.6690   46.2590 C   0  0  0  0  0  0  0  0  0  0  0  0
   59.2712   25.9201   46.4547 H   0  0  0  0  0  0  0  0  0  0  0  0
   57.5826   25.1762   45.9803 H   0  0  0  0  0  0  0  0  0  0  0  0
   54.3650   28.7770   44.4810 H   0  0  0  0  0  0  0  0  0  0  0  0
   55.0650   30.4070   44.7730 H   0  0  0  0  0  0  0  0  0  0  0  0
   59.6310   30.9010   46.5200 H   0  0  0  0  0  0  0  0  0  0  0  0
   59.9456   33.0048   48.1309 H   0  0  0  0  0  0  0  0  0  0  0  0
   60.4209   35.4543   48.0697 H   0  0  0  0  0  0  0  0  0  0  0  0
   59.0091   35.6347   43.9864 H   0  0  0  0  0  0  0  0  0  0  0  0
   58.5380   33.1865   44.0372 H   0  0  0  0  0  0  0  0  0  0  0  0
   60.3710   27.8085   46.5445 H   0  0  0  0  0  0  0  0  0  0  0  0
   60.1815   29.6798   46.2405 H   0  0  0  0  0  0  0  0  0  0  0  0
  1  2  2  0
  2  3  1  0
  3  4  1  0
  4  5  1  0
  4  6  2  0
  6  7  1  0
  7  8  2  0
  7  9  1  0
  9 10  1  0
 10 11  2  0
 11 12  1  0
 12 13  2  0
 13 14  1  0
 13 15  1  0
 15 16  2  0
  6 17  1  0
 17 18  2  0
 17  2  1  0
 16 10  1  0
  1 19  1  0
  1 20  1  0
  5 21  1  0
  5 22  1  0
  9 23  1  0
 11 24  1  0
 12 25  1  0
 15 26  1  0
 16 27  1  0
 18 28  1  0
 18 29  1  0
M  END
>  <UniqueID>  (51) 
49

>  <SMILES>  (51) 
C=c1oc(N)c(C(=O)Nc2ccc(F)cc2)c1=C

>  <Energy>  (51) 
66.50129185972254

>  <Genealogy>  (51) 
C=c1oc(N)c(C(=O)Nc2ccc(F)cc2)c1=C (3D coordinates assigned)
C=c1oc(N)c(C(=O)Nc2ccc(F)cc2)c1=C (optimized conformer: 66.50129185972254 kcal/mol)

>  <smiles>  (51) 
C=c1oc(N)c(C(=O)Nc2ccc(F)cc2)c1=C

>  <score_type>  (51) 
oracle

>  <origin>  (51) 
adg

>  <m_score__min__energy>  (51) 
-6.46

>  <m_primary>  (51) 
energy

$$$$
51:0
     RDKit          3D

 44 45  0  0  1  0  0  0  0  0999 V2000
   61.1340   28.7140   44.8560 C   0  0  0  0  0  0  0  0  0  0  0  0
   59.6840   28.4640   44.9280 C   0  0  0  0  0  0  0  0  0  0  0  0
   59.1540   27.1710   45.0030 C   0  0  0  0  0  0  0  0  0  0  0  0
   57.7680   27.0290   45.0700 C   0  0  0  0  0  0  0  0  0  0  0  0
   57.3340   25.8200   45.1360 N   0  0  0  0  0  0  0  0  0  0  0  0
   55.9870   25.5420   45.4530 C   0  0  0  0  0  0  0  0  0  0  0  0
   55.2010   26.3280   46.0260 O   0  0  0  0  0  0  0  0  0  0  0  0
   55.4790   24.1820   45.0590 C   0  0  0  0  0  0  0  0  0  0  0  0
   56.5310   23.5750   44.1610 C   0  0  0  0  0  0  0  0  0  0  0  0
   55.8300   22.9920   42.9500 C   0  0  0  0  0  0  0  0  0  0  0  0
   57.2430   22.4260   44.8310 C   0  0  0  0  0  0  0  0  0  0  0  0
   56.9370   28.0870   45.0660 N   0  0  0  0  0  0  0  0  0  0  0  0
   57.4710   29.3130   44.9930 C   0  0  0  0  0  0  0  0  0  0  0  0
   56.7760   30.3940   44.9590 N   0  0  0  0  0  0  0  0  0  0  0  0
   57.4330   31.6470   45.0220 C   0  0  0  0  0  0  0  0  0  0  0  0
   57.7490   32.2940   46.1980 C   0  0  0  0  0  0  0  0  0  0  0  0
   58.3820   33.5370   46.1630 C   0  0  0  0  0  0  0  0  0  0  0  0
   58.6830   34.0970   44.9270 C   0  0  0  0  0  0  0  0  0  0  0  0
   58.3790   33.4740   43.7420 C   0  0  0  0  0  0  0  0  0  0  0  0
   57.7490   32.2390   43.7940 C   0  0  0  0  0  0  0  0  0  0  0  0
   57.4270   31.5770   42.5030 C   0  0  0  0  0  0  0  0  0  0  0  0
   58.8240   29.4890   44.9250 N   0  0  0  0  0  0  0  0  0  0  0  0
   61.5449   28.7848   45.8739 H   0  0  0  0  0  0  0  0  0  0  0  0
   61.6225   27.8868   44.3202 H   0  0  0  0  0  0  0  0  0  0  0  0
   61.3173   29.6570   44.3202 H   0  0  0  0  0  0  0  0  0  0  0  0
   59.8128   26.2901   45.0090 H   0  0  0  0  0  0  0  0  0  0  0  0
   55.3351   23.5566   45.9524 H   0  0  0  0  0  0  0  0  0  0  0  0
   54.5095   24.2532   44.5443 H   0  0  0  0  0  0  0  0  0  0  0  0
   57.2570   24.3616   43.9077 H   0  0  0  0  0  0  0  0  0  0  0  0
   55.0234   22.3212   43.2809 H   0  0  0  0  0  0  0  0  0  0  0  0
   55.4046   23.8064   42.3452 H   0  0  0  0  0  0  0  0  0  0  0  0
   56.5532   22.4253   42.3452 H   0  0  0  0  0  0  0  0  0  0  0  0
   57.1734   22.5383   45.9230 H   0  0  0  0  0  0  0  0  0  0  0  0
   56.7739   21.4779   44.5292 H   0  0  0  0  0  0  0  0  0  0  0  0
   58.3008   22.4241   44.5292 H   0  0  0  0  0  0  0  0  0  0  0  0
   55.9040   27.9660   45.1230 H   0  0  0  0  0  0  0  0  0  0  0  0
   57.5019   31.8300   47.1642 H   0  0  0  0  0  0  0  0  0  0  0  0
   58.6376   34.0630   47.0946 H   0  0  0  0  0  0  0  0  0  0  0  0
   59.1835   35.0761   44.8972 H   0  0  0  0  0  0  0  0  0  0  0  0
   58.6281   33.9412   42.7778 H   0  0  0  0  0  0  0  0  0  0  0  0
   56.9535   30.6035   42.6982 H   0  0  0  0  0  0  0  0  0  0  0  0
   56.7369   32.2116   41.9276 H   0  0  0  0  0  0  0  0  0  0  0  0
   58.3523   31.4259   41.9276 H   0  0  0  0  0  0  0  0  0  0  0  0
   59.2410   30.4600   44.8690 H   0  0  0  0  0  0  0  0  0  0  0  0
  1  2  1  0
  2  3  2  0
  3  4  1  0
  4  5  2  0
  5  6  1  0
  6  7  2  0
  6  8  1  0
  8  9  1  0
  9 10  1  0
  9 11  1  0
  4 12  1  0
 12 13  1  0
 13 14  2  0
 14 15  1  0
 15 16  2  0
 16 17  1  0
 17 18  2  0
 18 19  1  0
 19 20  2  0
 20 21  1  0
 13 22  1  0
 22  2  1  0
 20 15  1  0
  1 23  1  0
  1 24  1  0
  1 25  1  0
  3 26  1  0
  8 27  1  0
  8 28  1  0
  9 29  1  0
 10 30  1  0
 10 31  1  0
 10 32  1  0
 11 33  1  0
 11 34  1  0
 11 35  1  0
 12 36  1  0
 16 37  1  0
 17 38  1  0
 18 39  1  0
 19 40  1  0
 21 41  1  0
 21 42  1  0
 21 43  1  0
 22 44  1  0
M  END
>  <smiles>  (52) 
Cc1cc(=NC(=O)CC(C)C)[nH]c(=Nc2ccccc2C)[nH]1

>  <score_type>  (52) 
oracle

>  <origin>  (52) 
adg

>  <m_score__min__energy>  (52) 
-8.2899999999999991

>  <m_primary>  (52) 
energy

$$$$
52:0
     RDKit          3D

 39 41  0  0  0  0  0  0  0  0999 V2000
   53.7190   30.4010   54.9180 C   0  0  0  0  0  0  0  0  0  0  0  0
   54.3500   30.3940   53.7320 C   0  0  0  0  0  0  0  0  0  0  0  0
   53.7310   30.4320   52.4780 C   0  0  0  0  0  0  0  0  0  0  0  0
   52.4090   30.3910   52.2160 C   0  0  0  0  0  0  0  0  0  0  0  0
   51.8020   30.8500   50.9540 C   0  0  0  0  0  0  0  0  0  0  0  0
   51.6720   30.0660   49.8690 N   0  0  0  0  0  0  0  0  0  0  0  0
   50.9990   30.8450   48.9950 C   0  0  0  0  0  0  0  0  0  0  0  0
   50.6960   30.4590   47.8350 O   0  0  0  0  0  0  0  0  0  0  0  0
   50.6670   32.0660   49.4640 N   0  0  0  0  0  0  0  0  0  0  0  0
   51.1700   32.0500   50.7100 C   0  0  0  0  0  0  0  0  0  0  0  0
   51.0080   33.0910   51.6170 O   0  0  0  0  0  0  0  0  0  0  0  0
   54.7510   30.4730   51.5410 C   0  0  0  0  0  0  0  0  0  0  0  0
   55.9410   30.4740   52.2420 C   0  0  0  0  0  0  0  0  0  0  0  0
   57.2670   30.5880   51.5920 C   0  0  0  0  0  0  0  0  0  0  0  0
   57.6180   31.6950   51.1000 O   0  0  0  0  0  0  0  0  0  0  0  0
   58.1610   29.4730   51.5440 N   0  0  0  0  0  0  0  0  0  0  0  0
   59.5450   29.5650   51.0930 C   0  0  0  0  0  0  0  0  0  0  0  0
   59.5920   29.8040   49.6080 C   0  0  0  0  0  0  0  0  0  0  0  0
   60.3490   30.8640   49.0780 C   0  0  0  0  0  0  0  0  0  0  0  0
   60.3980   31.0690   47.6950 C   0  0  0  0  0  0  0  0  0  0  0  0
   59.7020   30.2150   46.8330 C   0  0  0  0  0  0  0  0  0  0  0  0
   58.9560   29.1520   47.3520 C   0  0  0  0  0  0  0  0  0  0  0  0
   58.0700   28.0870   46.2720 Cl  0  0  0  0  0  0  0  0  0  0  0  0
   58.9020   28.9440   48.7370 C   0  0  0  0  0  0  0  0  0  0  0  0
   55.7030   30.3940   53.5770 N   0  0  0  0  0  0  0  0  0  0  0  0
   56.7190   30.3210   54.6330 C   0  0  0  0  0  0  0  0  0  0  0  0
   54.3010   30.3684   55.8508 H   0  0  0  0  0  0  0  0  0  0  0  0
   52.6203   30.4393   54.9562 H   0  0  0  0  0  0  0  0  0  0  0  0
   51.7417   29.9898   52.9930 H   0  0  0  0  0  0  0  0  0  0  0  0
   54.6351   30.4997   50.4475 H   0  0  0  0  0  0  0  0  0  0  0  0
   60.0415   30.3986   51.6112 H   0  0  0  0  0  0  0  0  0  0  0  0
   60.0608   28.6207   51.3214 H   0  0  0  0  0  0  0  0  0  0  0  0
   60.9037   31.5332   49.7521 H   0  0  0  0  0  0  0  0  0  0  0  0
   60.9852   31.9037   47.2845 H   0  0  0  0  0  0  0  0  0  0  0  0
   59.7415   30.3797   45.7461 H   0  0  0  0  0  0  0  0  0  0  0  0
   58.3178   28.1051   49.1433 H   0  0  0  0  0  0  0  0  0  0  0  0
   56.2284   30.3562   55.6169 H   0  0  0  0  0  0  0  0  0  0  0  0
   57.2808   29.3802   54.5369 H   0  0  0  0  0  0  0  0  0  0  0  0
   57.4095   31.1718   54.5369 H   0  0  0  0  0  0  0  0  0  0  0  0
  1  2  2  0
  2  3  1  0
  3  4  2  3
  4  5  1  0
  5  6  1  0
  6  7  1  0
  7  8  2  0
  7  9  1  0
  9 10  1  0
 10 11  1  0
  3 12  1  0
 12 13  2  0
 13 14  1  0
 14 15  2  0
 14 16  1  0
 16 17  1  0
 17 18  1  0
 18 19  2  0
 19 20  1  0
 20 21  2  0
 21 22  1  0
 22 23  1  0
 22 24  2  0
 13 25  1  0
 25 26  1  0
 25  2  1  0
 10  5  2  0
 24 18  1  0
  1 27  1  0
  1 28  1  0
  4 29  1  0
 12 30  1  0
 17 31  1  0
 17 32  1  0
 19 33  1  0
 20 34  1  0
 21 35  1  0
 24 36  1  0
 26 37  1  0
 26 38  1  0
 26 39  1  0
M  CHG  4   6  -1   9  -1  11  -1  16  -1
M  END
>  <UniqueID>  (53) 
50

>  <SMILES>  (53) 
C=c1c(=Cc2[n-]c(=O)[n-]c2[O-])cc(C(=O)[N-]Cc2cccc(Cl)c2)n1C

>  <Energy>  (53) 
107.3704881838278

>  <Genealogy>  (53) 
C=c1c(=Cc2[n-]c(=O)[n-]c2[O-])cc(C(=O)[N-]Cc2cccc(Cl)c2)n1C (protonated)
C=c1c(=Cc2[n-]c(=O)[n-]c2[O-])cc(C(=O)[N-]Cc2cccc(Cl)c2)n1C (3D coordinates assigned)
C=c1c(=Cc2[n-]c(=O)[n-]c2[O-])cc(C(=O)[N-]Cc2cccc(Cl)c2)n1C (optimized conformer: 107.3704881838278 kcal/mol)

>  <smiles>  (53) 
C=c1c(=Cc2[nH]c(=O)[nH]c2O)cc(C(=O)NCc2cccc(Cl)c2)n1C

>  <score_type>  (53) 
oracle

>  <origin>  (53) 
adg

>  <m_score__min__energy>  (53) 
-18.739999999999998

>  <m_primary>  (53) 
energy

$$$$
53:0
     RDKit          3D

 28 29  0  0  0  0  0  0  0  0999 V2000
   59.6660   33.2530   46.0110 C   0  0  0  0  0  0  0  0  0  0  0  0
   58.8410   32.6350   45.1710 C   0  0  0  0  0  0  0  0  0  0  0  0
   58.7250   32.9290   43.7870 N   0  0  0  0  0  0  0  0  0  0  0  0
   57.7430   32.0240   43.2690 C   0  0  0  0  0  0  0  0  0  0  0  0
   57.3960   31.9870   41.8130 C   0  0  0  0  0  0  0  0  0  0  0  0
   57.2340   31.2330   44.2300 C   0  0  0  0  0  0  0  0  0  0  0  0
   56.2180   30.1680   44.0860 C   0  0  0  0  0  0  0  0  0  0  0  0
   55.5740   30.0840   43.0070 O   0  0  0  0  0  0  0  0  0  0  0  0
   55.9270   29.2380   45.1360 N   0  0  0  0  0  0  0  0  0  0  0  0
   56.7420   28.1260   45.5350 C   0  0  0  0  0  0  0  0  0  0  0  0
   58.1310   28.2970   45.5750 C   0  0  0  0  0  0  0  0  0  0  0  0
   58.9660   27.2360   45.9430 C   0  0  0  0  0  0  0  0  0  0  0  0
   60.7070   27.4530   45.9610 Cl  0  0  0  0  0  0  0  0  0  0  0  0
   58.4120   26.0010   46.2930 C   0  0  0  0  0  0  0  0  0  0  0  0
   57.0260   25.8310   46.2910 C   0  0  0  0  0  0  0  0  0  0  0  0
   56.1850   26.8900   45.9300 C   0  0  0  0  0  0  0  0  0  0  0  0
   54.8090   26.7120   45.9980 O   0  0  0  0  0  0  0  0  0  0  0  0
   57.9190   31.5620   45.4780 C   0  0  0  0  0  0  0  0  0  0  0  0
   57.7320   31.0270   46.6040 O   0  0  0  0  0  0  0  0  0  0  0  0
   59.6917   32.9611   47.0712 H   0  0  0  0  0  0  0  0  0  0  0  0
   60.3228   34.0562   45.6456 H   0  0  0  0  0  0  0  0  0  0  0  0
   59.2690   33.6400   43.2470 H   0  0  0  0  0  0  0  0  0  0  0  0
   56.3082   31.8710   41.6982 H   0  0  0  0  0  0  0  0  0  0  0  0
   57.7172   32.9245   41.3356 H   0  0  0  0  0  0  0  0  0  0  0  0
   57.9077   31.1383   41.3356 H   0  0  0  0  0  0  0  0  0  0  0  0
   58.5690   29.2721   45.3154 H   0  0  0  0  0  0  0  0  0  0  0  0
   59.0683   25.1628   46.5701 H   0  0  0  0  0  0  0  0  0  0  0  0
   56.5931   24.8603   46.5745 H   0  0  0  0  0  0  0  0  0  0  0  0
  1  2  2  0
  2  3  1  0
  3  4  1  0
  4  5  1  0
  4  6  2  0
  6  7  1  0
  7  8  2  0
  7  9  1  0
  9 10  1  0
 10 11  2  0
 11 12  1  0
 12 13  1  0
 12 14  2  0
 14 15  1  0
 15 16  2  0
 16 17  1  0
  6 18  1  0
 18 19  2  0
 18  2  1  0
 16 10  1  0
  1 20  1  0
  1 21  1  0
  3 22  1  0
  5 23  1  0
  5 24  1  0
  5 25  1  0
 11 26  1  0
 14 27  1  0
 15 28  1  0
M  CHG  2   9  -1  17  -1
M  END
>  <UniqueID>  (54) 
51

>  <SMILES>  (54) 
C=C1NC(C)=C(C(=O)[N-]c2cc(Cl)ccc2[O-])C1=O

>  <Energy>  (54) 
61.50753152593636

>  <Genealogy>  (54) 
C=C1NC(C)=C(C(=O)[N-]c2cc(Cl)ccc2[O-])C1=O (protonated)
C=C1NC(C)=C(C(=O)[N-]c2cc(Cl)ccc2[O-])C1=O (3D coordinates assigned)
C=C1NC(C)=C(C(=O)[N-]c2cc(Cl)ccc2[O-])C1=O (nonaromatic ring conformer: 61.50753152593636 kcal/mol)

>  <smiles>  (54) 
C=C1NC(C)=C(C(=O)Nc2cc(Cl)ccc2O)C1=O

>  <score_type>  (54) 
oracle

>  <origin>  (54) 
adg

>  <m_score__min__energy>  (54) 
-13.369999999999999

>  <m_primary>  (54) 
energy

$$$$
54:0
     RDKit          3D

 48 50  0  0  0  0  0  0  0  0999 V2000
   54.8852   28.6910   55.2458 H   0  0  0  0  0  0  0  0  0  0  0  0
   54.3010   29.2720   54.5170 C   0  0  0  0  0  0  0  0  0  0  0  0
   53.2026   29.2822   54.5755 H   0  0  0  0  0  0  0  0  0  0  0  0
   54.9280   29.9680   53.5570 C   0  0  0  0  0  0  0  0  0  0  0  0
   54.3250   30.7530   52.5600 C   0  0  0  0  0  0  0  0  0  0  0  0
   53.0620   31.2030   52.4310 C   0  0  0  0  0  0  0  0  0  0  0  0
   52.5537   31.5430   53.3453 H   0  0  0  0  0  0  0  0  0  0  0  0
   52.3030   31.2790   51.1710 C   0  0  0  0  0  0  0  0  0  0  0  0
   52.3070   30.3320   50.2150 N   0  0  0  0  0  0  0  0  0  0  0  0
   51.3770   30.7720   49.3380 C   0  0  0  0  0  0  0  0  0  0  0  0
   51.0980   30.1520   48.2790 O   0  0  0  0  0  0  0  0  0  0  0  0
   50.7640   31.9210   49.6920 N   0  0  0  0  0  0  0  0  0  0  0  0
   51.3520   32.2210   50.8610 C   0  0  0  0  0  0  0  0  0  0  0  0
   51.0240   33.3290   51.6310 O   0  0  0  0  0  0  0  0  0  0  0  0
   55.3170   31.0350   51.6380 C   0  0  0  0  0  0  0  0  0  0  0  0
   55.1985   31.5979   50.7004 H   0  0  0  0  0  0  0  0  0  0  0  0
   56.4830   30.4760   52.1180 C   0  0  0  0  0  0  0  0  0  0  0  0
   57.7670   30.5160   51.3820 C   0  0  0  0  0  0  0  0  0  0  0  0
   57.9710   29.6140   50.5220 O   0  0  0  0  0  0  0  0  0  0  0  0
   58.7610   31.5580   51.6210 N   0  0  2  0  0  0  0  0  0  0  0  0
   58.6440   31.8730   52.6110 H   0  0  0  0  0  0  0  0  0  0  0  0
   58.5600   32.7640   50.7810 C   0  0  0  0  0  0  0  0  0  0  0  0
   57.5094   33.0790   50.8643 H   0  0  0  0  0  0  0  0  0  0  0  0
   59.2493   33.5398   51.1457 H   0  0  0  0  0  0  0  0  0  0  0  0
   58.8840   32.5180   49.2930 C   0  0  0  0  0  0  0  0  0  0  0  0
   58.1468   31.8123   48.8826 H   0  0  0  0  0  0  0  0  0  0  0  0
   58.8438   33.4878   48.7754 H   0  0  0  0  0  0  0  0  0  0  0  0
   60.2950   31.9340   49.0900 C   0  0  1  0  0  0  0  0  0  0  0  0
   60.3763   31.5709   48.0548 H   0  0  0  0  0  0  0  0  0  0  0  0
   61.3900   33.0090   49.2420 C   0  0  0  0  0  0  0  0  0  0  0  0
   61.1795   33.8453   48.5592 H   0  0  0  0  0  0  0  0  0  0  0  0
   61.4016   33.3750   50.2793 H   0  0  0  0  0  0  0  0  0  0  0  0
   62.6490   32.4500   48.9270 O   0  0  0  0  0  0  0  0  0  0  0  0
   63.2320   33.1740   47.8670 C   0  0  0  0  0  0  0  0  0  0  0  0
   63.8727   33.9696   48.2751 H   0  0  0  0  0  0  0  0  0  0  0  0
   63.8386   32.4953   47.2494 H   0  0  0  0  0  0  0  0  0  0  0  0
   62.4396   33.6219   47.2494 H   0  0  0  0  0  0  0  0  0  0  0  0
   60.5110   30.7270   50.0250 C   0  0  0  0  0  0  0  0  0  0  0  0
   59.8784   29.8947   49.6829 H   0  0  0  0  0  0  0  0  0  0  0  0
   61.5766   30.4561   49.9905 H   0  0  0  0  0  0  0  0  0  0  0  0
   60.1510   31.0580   51.4830 C   0  0  0  0  0  0  0  0  0  0  0  0
   60.2610   30.1472   52.0899 H   0  0  0  0  0  0  0  0  0  0  0  0
   60.8298   31.8533   51.8246 H   0  0  0  0  0  0  0  0  0  0  0  0
   56.2600   29.8640   53.3050 N   0  0  0  0  0  0  0  0  0  0  0  0
   57.2670   29.1950   54.1370 C   0  0  0  0  0  0  0  0  0  0  0  0
   57.0289   29.3532   55.1992 H   0  0  0  0  0  0  0  0  0  0  0  0
   57.2664   28.1171   53.9177 H   0  0  0  0  0  0  0  0  0  0  0  0
   58.2605   29.6133   53.9177 H   0  0  0  0  0  0  0  0  0  0  0  0
  1  2  1  0
  2  3  1  0
  2  4  2  0
  4  5  1  0
  5  6  2  0
  6  7  1  0
  6  8  1  0
  8  9  1  0
  9 10  1  0
 10 11  2  0
 10 12  1  0
 12 13  1  0
 13 14  1  0
  5 15  1  0
 15 16  1  0
 15 17  2  0
 17 18  1  0
 18 19  2  0
 18 20  1  0
 20 21  1  6
 20 22  1  0
 22 23  1  0
 22 24  1  0
 22 25  1  0
 25 26  1  0
 25 27  1  0
 25 28  1  0
 28 29  1  1
 28 30  1  0
 30 31  1  0
 30 32  1  0
 30 33  1  0
 33 34  1  0
 34 35  1  0
 34 36  1  0
 34 37  1  0
 28 38  1  0
 38 39  1  0
 38 40  1  0
 38 41  1  0
 41 42  1  0
 41 43  1  0
 17 44  1  0
 44 45  1  0
 45 46  1  0
 45 47  1  0
 45 48  1  0
 44  4  1  0
 13  8  2  0
 41 20  1  0
M  CHG  4   9  -1  12  -1  14  -1  20   1
M  END
>  <UniqueID>  (55) 
52

>  <SMILES>  (55) 
C=c1/c(=C\c2[n-]c(=O)[n-]c2[O-])cc(C(=O)[NH+]2CCC(COC)CC2)n1C

>  <Energy>  (55) 
128.35445452376462

>  <Genealogy>  (55) 
C=c1c(=Cc2[n-]c(=O)[n-]c2[O-])cc(C(=O)[NH+]2CCC(COC)CC2)n1C (protonated)
C=c1/c(=C\c2[n-]c(=O)[n-]c2[O-])cc(C(=O)[NH+]2CCC(COC)CC2)n1C (cis-trans isomerization)
C=c1/c(=C\c2[n-]c(=O)[n-]c2[O-])cc(C(=O)[NH+]2CCC(COC)CC2)n1C (3D coordinates assigned)
C=c1/c(=C\c2[n-]c(=O)[n-]c2[O-])cc(C(=O)[NH+]2CCC(COC)CC2)n1C (nonaromatic ring conformer: 128.35445452376462 kcal/mol)

>  <smiles>  (55) 
C=c1c(=Cc2[nH]c(=O)[nH]c2O)cc(C(=O)N2CCC(COC)CC2)n1C

>  <score_type>  (55) 
oracle

>  <origin>  (55) 
adg

>  <m_score__min__energy>  (55) 
-15.44

>  <m_primary>  (55) 
energy

$$$$
55:0
     RDKit          3D

 68 71  0  0  0  0  0  0  0  0999 V2000
   59.2900   29.2260   55.1330 C   0  0  0  0  0  0  0  0  0  0  0  0
   60.0290   30.1880   54.2510 C   0  0  0  0  0  0  0  0  0  0  0  0
   60.1790   31.3730   54.6570 O   0  0  0  0  0  0  0  0  0  0  0  0
   60.5670   29.7940   52.9690 N   0  0  0  0  0  0  0  0  0  0  0  0
   61.2580   30.8090   52.1590 C   0  0  0  0  0  0  0  0  0  0  0  0
   61.8320   30.2010   50.8820 C   0  0  0  0  0  0  0  0  0  0  0  0
   60.7930   29.3880   50.2250 N   0  0  0  0  0  0  0  0  0  0  0  0
   61.1030   29.0840   48.8020 C   0  0  1  0  0  0  0  0  0  0  0  0
   60.0570   28.1410   48.1380 C   0  0  0  0  0  0  0  0  0  0  0  0
   58.6160   28.6750   48.1570 C   0  0  0  0  0  0  0  0  0  0  0  0
   58.4330   29.9050   49.0620 C   0  0  0  0  0  0  0  0  0  0  0  0
   58.9980   31.1430   48.4940 N   0  0  0  0  0  0  0  0  0  0  0  0
   58.5200   32.3960   49.0010 C   0  0  0  0  0  0  0  0  0  0  0  0
   58.1440   33.2960   48.2050 O   0  0  0  0  0  0  0  0  0  0  0  0
   58.4140   32.6150   50.4470 C   0  0  0  0  0  0  0  0  0  0  0  0
   59.1500   33.6330   51.0650 C   0  0  0  0  0  0  0  0  0  0  0  0
   59.0910   33.7910   52.4510 C   0  0  0  0  0  0  0  0  0  0  0  0
   58.2820   32.9530   53.2240 C   0  0  0  0  0  0  0  0  0  0  0  0
   57.4990   31.9580   52.6070 C   0  0  0  0  0  0  0  0  0  0  0  0
   56.6290   31.0790   53.3390 N   0  0  0  0  0  0  0  0  0  0  0  0
   55.5440   30.2810   52.8480 C   0  0  0  0  0  0  0  0  0  0  0  0
   55.4490   30.0050   51.6230 O   0  0  0  0  0  0  0  0  0  0  0  0
   54.5550   29.7080   53.7780 C   0  0  0  0  0  0  0  0  0  0  0  0
   53.2710   29.5160   53.4390 C   0  0  0  0  0  0  0  0  0  0  0  0
   52.5670   30.3150   52.4050 C   0  0  0  0  0  0  0  0  0  0  0  0
   52.5950   29.8670   51.0730 C   0  0  0  0  0  0  0  0  0  0  0  0
   51.9430   30.5870   50.0680 C   0  0  0  0  0  0  0  0  0  0  0  0
   51.2720   31.7750   50.3770 C   0  0  0  0  0  0  0  0  0  0  0  0
   50.6260   32.4870   49.3710 O   0  0  0  0  0  0  0  0  0  0  0  0
   51.2600   32.2470   51.6940 C   0  0  0  0  0  0  0  0  0  0  0  0
   50.6120   33.4390   52.0050 O   0  0  0  0  0  0  0  0  0  0  0  0
   51.9060   31.5250   52.7030 C   0  0  0  0  0  0  0  0  0  0  0  0
   57.5900   31.7860   51.2200 C   0  0  0  0  0  0  0  0  0  0  0  0
   60.0870   31.1370   47.5070 C   0  0  0  0  0  0  0  0  0  0  0  0
   61.3530   30.3890   47.9990 C   0  0  0  0  0  0  0  0  0  0  0  0
   60.3390   28.2320   51.0390 C   0  0  0  0  0  0  0  0  0  0  0  0
   60.6220   28.3840   52.5480 C   0  0  0  0  0  0  0  0  0  0  0  0
   59.4809   29.4745   56.1874 H   0  0  0  0  0  0  0  0  0  0  0  0
   58.2113   29.2961   54.9292 H   0  0  0  0  0  0  0  0  0  0  0  0
   59.6358   28.2018   54.9292 H   0  0  0  0  0  0  0  0  0  0  0  0
   60.5430   31.6003   51.8895 H   0  0  0  0  0  0  0  0  0  0  0  0
   62.0881   31.2209   52.7517 H   0  0  0  0  0  0  0  0  0  0  0  0
   62.1541   31.0050   50.2038 H   0  0  0  0  0  0  0  0  0  0  0  0
   62.6965   29.5675   51.1295 H   0  0  0  0  0  0  0  0  0  0  0  0
   62.0416   28.5107   48.7853 H   0  0  0  0  0  0  0  0  0  0  0  0
   60.3518   27.9845   47.0898 H   0  0  0  0  0  0  0  0  0  0  0  0
   60.0545   27.2120   48.7270 H   0  0  0  0  0  0  0  0  0  0  0  0
   58.3331   28.9519   47.1307 H   0  0  0  0  0  0  0  0  0  0  0  0
   57.9784   27.8755   48.5624 H   0  0  0  0  0  0  0  0  0  0  0  0
   57.3564   30.0579   49.2280 H   0  0  0  0  0  0  0  0  0  0  0  0
   58.9749   29.7017   49.9974 H   0  0  0  0  0  0  0  0  0  0  0  0
   59.7737   34.3072   50.4597 H   0  0  0  0  0  0  0  0  0  0  0  0
   59.6844   34.5792   52.9374 H   0  0  0  0  0  0  0  0  0  0  0  0
   58.2569   33.0710   54.3174 H   0  0  0  0  0  0  0  0  0  0  0  0
   54.8822   29.4266   54.7898 H   0  0  0  0  0  0  0  0  0  0  0  0
   52.7096   28.7234   53.9554 H   0  0  0  0  0  0  0  0  0  0  0  0
   53.1343   28.9424   50.8195 H   0  0  0  0  0  0  0  0  0  0  0  0
   51.9575   30.2186   49.0316 H   0  0  0  0  0  0  0  0  0  0  0  0
   51.8985   31.9034   53.7359 H   0  0  0  0  0  0  0  0  0  0  0  0
   57.0077   30.9907   50.7316 H   0  0  0  0  0  0  0  0  0  0  0  0
   59.7256   30.6474   46.5906 H   0  0  0  0  0  0  0  0  0  0  0  0
   60.3739   32.1841   47.3303 H   0  0  0  0  0  0  0  0  0  0  0  0
   61.9558   30.1306   47.1159 H   0  0  0  0  0  0  0  0  0  0  0  0
   61.8511   31.0768   48.6982 H   0  0  0  0  0  0  0  0  0  0  0  0
   59.2542   28.1143   50.8997 H   0  0  0  0  0  0  0  0  0  0  0  0
   60.9053   27.3546   50.6935 H   0  0  0  0  0  0  0  0  0  0  0  0
   59.8695   27.8132   53.1119 H   0  0  0  0  0  0  0  0  0  0  0  0
   61.6344   28.0035   52.7489 H   0  0  0  0  0  0  0  0  0  0  0  0
  1  2  1  0
  2  3  2  0
  2  4  1  0
  4  5  1  0
  5  6  1  0
  6  7  1  0
  7  8  1  0
  8  9  1  0
  9 10  1  0
 10 11  1  0
 11 12  1  0
 12 13  1  0
 13 14  2  0
 13 15  1  0
 15 16  2  0
 16 17  1  0
 17 18  2  0
 18 19  1  0
 19 20  1  0
 20 21  1  0
 21 22  2  0
 21 23  1  0
 23 24  2  3
 24 25  1  0
 25 26  2  0
 26 27  1  0
 27 28  2  0
 28 29  1  0
 28 30  1  0
 30 31  1  0
 30 32  2  0
 19 33  2  0
 12 34  1  0
 34 35  1  0
  7 36  1  0
 36 37  1  0
 37  4  1  0
 35  8  1  0
 33 15  1  0
 32 25  1  0
  1 38  1  0
  1 39  1  0
  1 40  1  0
  5 41  1  0
  5 42  1  0
  6 43  1  0
  6 44  1  0
  8 45  1  1
  9 46  1  0
  9 47  1  0
 10 48  1  0
 10 49  1  0
 11 50  1  0
 11 51  1  0
 16 52  1  0
 17 53  1  0
 18 54  1  0
 23 55  1  0
 24 56  1  0
 26 57  1  0
 27 58  1  0
 32 59  1  0
 33 60  1  0
 34 61  1  0
 34 62  1  0
 35 63  1  0
 35 64  1  0
 36 65  1  0
 36 66  1  0
 37 67  1  0
 37 68  1  0
M  CHG  3  20  -1  29  -1  31  -1
M  END
>  <UniqueID>  (56) 
53

>  <SMILES>  (56) 
CC(=O)N1CCN([C@H]2CCCN(C(=O)c3cccc([N-]C(=O)C=Cc4ccc([O-])c([O-])c4)c3)CC2)CC1

>  <Energy>  (56) 
99.81060165775712

>  <Genealogy>  (56) 
CC(=O)N1CCN(C2CCCN(C(=O)c3cccc([N-]C(=O)C=Cc4ccc([O-])c([O-])c4)c3)CC2)CC1 (protonated)
CC(=O)N1CCN([C@H]2CCCN(C(=O)c3cccc([N-]C(=O)C=Cc4ccc([O-])c([O-])c4)c3)CC2)CC1 (chirality)
CC(=O)N1CCN([C@H]2CCCN(C(=O)c3cccc([N-]C(=O)C=Cc4ccc([O-])c([O-])c4)c3)CC2)CC1 (3D coordinates assigned)
CC(=O)N1CCN([C@H]2CCCN(C(=O)c3cccc([N-]C(=O)C=Cc4ccc([O-])c([O-])c4)c3)CC2)CC1 (nonaromatic ring conformer: 99.81060165775712 kcal/mol)

>  <smiles>  (56) 
CC(=O)N1CCN(C2CCCN(C(=O)c3cccc(NC(=O)C=Cc4ccc(O)c(O)c4)c3)CC2)CC1

>  <score_type>  (56) 
oracle

>  <origin>  (56) 
adg

>  <m_score__min__energy>  (56) 
-15.970000000000001

>  <m_primary>  (56) 
energy

$$$$
56:0
     RDKit          3D

 49 51  0  0  0  0  0  0  0  0999 V2000
   57.0240   27.1330   46.2910 C   0  0  0  0  0  0  0  0  0  0  0  0
   57.3930   27.5680   44.8800 C   0  0  0  0  0  0  0  0  0  0  0  0
   57.4070   29.0500   44.8270 C   0  0  0  0  0  0  0  0  0  0  0  0
   58.5620   29.7750   44.9750 C   0  0  0  0  0  0  0  0  0  0  0  0
   59.8970   29.2110   45.2340 C   0  0  0  0  0  0  0  0  0  0  0  0
   60.1750   28.8580   46.6350 C   0  0  0  0  0  0  0  0  0  0  0  0
   60.2830   27.5960   47.1500 C   0  0  0  0  0  0  0  0  0  0  0  0
   60.5390   27.4060   48.4890 C   0  0  0  0  0  0  0  0  0  0  0  0
   60.6990   28.4640   49.3720 C   0  0  0  0  0  0  0  0  0  0  0  0
   60.5930   29.7370   48.8610 C   0  0  0  0  0  0  0  0  0  0  0  0
   60.3370   29.9170   47.5270 C   0  0  0  0  0  0  0  0  0  0  0  0
   58.5130   31.1480   44.9000 N   0  0  0  0  0  0  0  0  0  0  0  0
   57.3870   31.8160   44.6870 C   0  0  0  0  0  0  0  0  0  0  0  0
   57.4310   33.6130   44.6090 S   0  0  0  0  0  0  0  0  0  0  0  0
   57.7240   34.1500   46.3280 C   0  0  0  0  0  0  0  0  0  0  0  0
   59.1080   33.8620   46.7810 C   0  0  0  0  0  0  0  0  0  0  0  0
   59.2510   33.5500   48.1360 C   0  0  0  0  0  0  0  0  0  0  0  0
   60.4860   33.2590   48.6800 C   0  0  0  0  0  0  0  0  0  0  0  0
   61.5760   33.2850   47.8350 C   0  0  0  0  0  0  0  0  0  0  0  0
   63.2060   32.9260   48.4290 S   0  0  0  0  0  0  0  0  0  0  0  0
   64.3470   33.0940   47.1770 N   0  0  0  0  0  0  0  0  0  0  0  0
   63.2270   31.5860   49.0600 O   0  0  0  0  0  0  0  0  0  0  0  0
   63.4970   33.9640   49.5050 O   0  0  0  0  0  0  0  0  0  0  0  0
   61.4460   33.5930   46.4900 C   0  0  0  0  0  0  0  0  0  0  0  0
   60.2010   33.8880   45.9390 C   0  0  0  0  0  0  0  0  0  0  0  0
   56.2430   31.1230   44.5390 N   0  0  0  0  0  0  0  0  0  0  0  0
   56.2220   29.7690   44.6030 C   0  0  0  0  0  0  0  0  0  0  0  0
   55.1450   29.1380   44.4620 O   0  0  0  0  0  0  0  0  0  0  0  0
   57.5571   27.7614   47.0196 H   0  0  0  0  0  0  0  0  0  0  0  0
   55.9392   27.2426   46.4366 H   0  0  0  0  0  0  0  0  0  0  0  0
   57.3090   26.0806   46.4366 H   0  0  0  0  0  0  0  0  0  0  0  0
   58.3889   27.1791   44.6214 H   0  0  0  0  0  0  0  0  0  0  0  0
   56.6579   27.1745   44.1625 H   0  0  0  0  0  0  0  0  0  0  0  0
   60.0032   28.2995   44.6274 H   0  0  0  0  0  0  0  0  0  0  0  0
   60.6148   30.0030   44.9742 H   0  0  0  0  0  0  0  0  0  0  0  0
   60.1643   26.7251   46.4886 H   0  0  0  0  0  0  0  0  0  0  0  0
   60.6196   26.3783   48.8728 H   0  0  0  0  0  0  0  0  0  0  0  0
   60.9027   28.2918   50.4392 H   0  0  0  0  0  0  0  0  0  0  0  0
   60.7135   30.6081   49.5217 H   0  0  0  0  0  0  0  0  0  0  0  0
   60.2556   30.9443   47.1423 H   0  0  0  0  0  0  0  0  0  0  0  0
   59.3910   31.7090   45.0130 H   0  0  0  0  0  0  0  0  0  0  0  0
   57.5485   35.2339   46.3946 H   0  0  0  0  0  0  0  0  0  0  0  0
   57.0345   33.5903   46.9771 H   0  0  0  0  0  0  0  0  0  0  0  0
   58.3610   33.5360   48.7823 H   0  0  0  0  0  0  0  0  0  0  0  0
   60.5967   33.0156   49.7470 H   0  0  0  0  0  0  0  0  0  0  0  0
   64.4510   32.2000   46.6620 H   0  0  0  0  0  0  0  0  0  0  0  0
   65.2630   33.4000   47.5210 H   0  0  0  0  0  0  0  0  0  0  0  0
   62.3392   33.6047   45.8480 H   0  0  0  0  0  0  0  0  0  0  0  0
   60.0931   34.1327   44.8720 H   0  0  0  0  0  0  0  0  0  0  0  0
  1  2  1  0
  2  3  1  0
  3  4  2  0
  4  5  1  0
  5  6  1  0
  6  7  2  0
  7  8  1  0
  8  9  2  0
  9 10  1  0
 10 11  2  0
  4 12  1  0
 12 13  1  0
 13 14  1  0
 14 15  1  0
 15 16  1  0
 16 17  2  0
 17 18  1  0
 18 19  2  0
 19 20  1  0
 20 21  1  0
 20 22  2  0
 20 23  2  0
 19 24  1  0
 24 25  2  0
 13 26  2  0
 26 27  1  0
 27 28  2  0
 27  3  1  0
 11  6  1  0
 25 16  1  0
  1 29  1  0
  1 30  1  0
  1 31  1  0
  2 32  1  0
  2 33  1  0
  5 34  1  0
  5 35  1  0
  7 36  1  0
  8 37  1  0
  9 38  1  0
 10 39  1  0
 11 40  1  0
 12 41  1  0
 15 42  1  0
 15 43  1  0
 17 44  1  0
 18 45  1  0
 21 46  1  0
 21 47  1  0
 24 48  1  0
 25 49  1  0
M  END
>  <smiles>  (57) 
CCc1c(Cc2ccccc2)[nH]c(SCc2ccc(S(N)(=O)=O)cc2)nc1=O

>  <score_type>  (57) 
oracle

>  <origin>  (57) 
adg

>  <m_score__min__energy>  (57) 
-9.8300000000000001

>  <m_primary>  (57) 
energy

$$$$
57:0
     RDKit          3D

 41 43  0  0  0  0  0  0  0  0999 V2000
   57.4190   32.2570   41.3960 C   0  0  0  0  0  0  0  0  0  0  0  0
   57.3130   31.6720   42.5920 C   0  0  0  0  0  0  0  0  0  0  0  0
   56.5850   30.5440   42.7680 N   0  0  0  0  0  0  0  0  0  0  0  0
   56.7040   30.2560   44.0800 C   0  0  0  0  0  0  0  0  0  0  0  0
   56.0960   29.2020   44.6440 C   0  0  0  0  0  0  0  0  0  0  0  0
   56.7940   28.0990   45.3250 C   0  0  0  0  0  0  0  0  0  0  0  0
   58.1280   28.0820   45.5350 N   0  0  0  0  0  0  0  0  0  0  0  0
   58.3240   26.9570   46.2580 C   0  0  0  0  0  0  0  0  0  0  0  0
   59.4650   26.5760   46.6310 O   0  0  0  0  0  0  0  0  0  0  0  0
   57.1870   26.2900   46.5420 N   0  0  0  0  0  0  0  0  0  0  0  0
   57.0440   25.0180   47.2430 C   0  0  0  0  0  0  0  0  0  0  0  0
   56.2200   27.0110   45.9530 C   0  0  0  0  0  0  0  0  0  0  0  0
   54.8630   26.7130   46.0160 O   0  0  0  0  0  0  0  0  0  0  0  0
   57.4830   31.2330   44.6750 C   0  0  0  0  0  0  0  0  0  0  0  0
   57.7330   31.3450   45.9050 O   0  0  0  0  0  0  0  0  0  0  0  0
   57.8920   32.1140   43.7420 N   0  0  0  0  0  0  0  0  0  0  0  0
   58.6890   33.3250   43.9890 C   0  0  0  0  0  0  0  0  0  0  0  0
   58.2680   33.9970   45.2700 C   0  0  0  0  0  0  0  0  0  0  0  0
   57.1470   34.5760   45.3010 O   0  0  0  0  0  0  0  0  0  0  0  0
   59.1040   33.9930   46.4480 N   0  0  0  0  0  0  0  0  0  0  0  0
   60.4600   34.5700   46.3640 C   0  0  0  0  0  0  0  0  0  0  0  0
   61.3840   33.9120   47.3520 C   0  0  0  0  0  0  0  0  0  0  0  0
   60.9270   33.5590   48.5560 C   0  0  0  0  0  0  0  0  0  0  0  0
   59.4990   33.8390   48.9150 C   0  0  0  0  0  0  0  0  0  0  0  0
   58.5750   33.4990   47.7360 C   0  0  0  0  0  0  0  0  0  0  0  0
   58.0175   33.1730   41.2829 H   0  0  0  0  0  0  0  0  0  0  0  0
   56.9078   31.8228   40.5241 H   0  0  0  0  0  0  0  0  0  0  0  0
   54.9980   29.1585   44.5943 H   0  0  0  0  0  0  0  0  0  0  0  0
   57.0637   25.1935   48.3287 H   0  0  0  0  0  0  0  0  0  0  0  0
   56.0877   24.5512   46.9643 H   0  0  0  0  0  0  0  0  0  0  0  0
   57.8728   24.3506   46.9643 H   0  0  0  0  0  0  0  0  0  0  0  0
   59.7512   33.0481   44.0604 H   0  0  0  0  0  0  0  0  0  0  0  0
   58.5283   34.0259   43.1566 H   0  0  0  0  0  0  0  0  0  0  0  0
   60.8532   34.4200   45.3477 H   0  0  0  0  0  0  0  0  0  0  0  0
   60.4010   35.6432   46.5979 H   0  0  0  0  0  0  0  0  0  0  0  0
   62.4336   33.7221   47.0833 H   0  0  0  0  0  0  0  0  0  0  0  0
   61.5937   33.0663   49.2791 H   0  0  0  0  0  0  0  0  0  0  0  0
   59.2171   33.2274   49.7847 H   0  0  0  0  0  0  0  0  0  0  0  0
   59.3938   34.9074   49.1548 H   0  0  0  0  0  0  0  0  0  0  0  0
   58.4643   32.4062   47.6771 H   0  0  0  0  0  0  0  0  0  0  0  0
   57.6078   33.9919   47.9136 H   0  0  0  0  0  0  0  0  0  0  0  0
  1  2  2  0
  2  3  1  0
  3  4  1  0
  4  5  2  3
  5  6  1  0
  6  7  1  0
  7  8  1  0
  8  9  2  0
  8 10  1  0
 10 11  1  0
 10 12  1  0
 12 13  1  0
  4 14  1  0
 14 15  2  0
 14 16  1  0
 16 17  1  0
 17 18  1  0
 18 19  2  0
 18 20  1  0
 20 21  1  0
 21 22  1  0
 22 23  2  0
 23 24  1  0
 24 25  1  0
 16  2  1  0
 25 20  1  0
 12  6  2  0
  1 26  1  0
  1 27  1  0
  5 28  1  0
 11 29  1  0
 11 30  1  0
 11 31  1  0
 17 32  1  0
 17 33  1  0
 21 34  1  0
 21 35  1  0
 22 36  1  0
 23 37  1  0
 24 38  1  0
 24 39  1  0
 25 40  1  0
 25 41  1  0
M  CHG  3   3  -1   7  -1  13  -1
M  END
>  <UniqueID>  (58) 
54

>  <SMILES>  (58) 
C=c1[n-]c(=Cc2[n-]c(=O)n(C)c2[O-])c(=O)n1CC(=O)N1CC=CCC1

>  <Energy>  (58) 
114.24458483861255

>  <Genealogy>  (58) 
C=c1[n-]c(=Cc2[n-]c(=O)n(C)c2[O-])c(=O)n1CC(=O)N1CC=CCC1 (protonated)
C=c1[n-]c(=Cc2[n-]c(=O)n(C)c2[O-])c(=O)n1CC(=O)N1CC=CCC1 (3D coordinates assigned)
C=c1[n-]c(=Cc2[n-]c(=O)n(C)c2[O-])c(=O)n1CC(=O)N1CC=CCC1 (nonaromatic ring conformer: 114.24458483861255 kcal/mol)

>  <smiles>  (58) 
C=c1[nH]c(=Cc2[nH]c(=O)n(C)c2O)c(=O)n1CC(=O)N1CC=CCC1

>  <score_type>  (58) 
oracle

>  <origin>  (58) 
adg

>  <m_score__min__energy>  (58) 
-15.109999999999999

>  <m_primary>  (58) 
energy

$$$$
58:0
     RDKit          3D

 42 44  0  0  0  0  0  0  0  0999 V2000
   60.4300   29.3330   45.9270 C   0  0  0  0  0  0  0  0  0  0  0  0
   60.2610   28.1850   45.2770 C   0  0  0  0  0  0  0  0  0  0  0  0
   59.1750   27.2460   45.6220 C   0  0  0  0  0  0  0  0  0  0  0  0
   59.2780   26.5640   46.8450 C   0  0  0  0  0  0  0  0  0  0  0  0
   58.2810   25.6770   47.2510 C   0  0  0  0  0  0  0  0  0  0  0  0
   57.1560   25.4790   46.4520 C   0  0  0  0  0  0  0  0  0  0  0  0
   57.0240   26.1680   45.2460 C   0  0  0  0  0  0  0  0  0  0  0  0
   58.0320   27.0470   44.8020 C   0  0  0  0  0  0  0  0  0  0  0  0
   57.7840   27.8550   43.5410 C   0  0  0  0  0  0  0  0  0  0  0  0
   57.9840   29.2850   43.7780 N   0  0  0  0  0  0  0  0  0  0  0  0
   57.1220   30.0520   44.6340 C   0  0  0  0  0  0  0  0  0  0  0  0
   56.1250   29.5050   45.1750 O   0  0  0  0  0  0  0  0  0  0  0  0
   57.3810   31.4790   44.8960 C   0  0  0  0  0  0  0  0  0  0  0  0
   58.6130   32.0990   44.9960 C   0  0  0  0  0  0  0  0  0  0  0  0
   58.2880   33.4140   45.2500 C   0  0  0  0  0  0  0  0  0  0  0  0
   59.2490   34.5470   45.4170 C   0  0  0  0  0  0  0  0  0  0  0  0
   60.1750   34.2710   46.5690 C   0  0  0  0  0  0  0  0  0  0  0  0
   61.4890   33.8350   46.3330 C   0  0  0  0  0  0  0  0  0  0  0  0
   62.3610   33.6130   47.4030 C   0  0  0  0  0  0  0  0  0  0  0  0
   61.9300   33.8330   48.7140 C   0  0  0  0  0  0  0  0  0  0  0  0
   60.6270   34.2800   48.9560 C   0  0  0  0  0  0  0  0  0  0  0  0
   59.7530   34.5030   47.8890 C   0  0  0  0  0  0  0  0  0  0  0  0
   56.9820   33.5350   45.2870 O   0  0  0  0  0  0  0  0  0  0  0  0
   56.4020   32.3880   45.0820 N   0  0  0  0  0  0  0  0  0  0  0  0
   61.2497   30.0097   45.6441 H   0  0  0  0  0  0  0  0  0  0  0  0
   59.7500   29.6057   46.7475 H   0  0  0  0  0  0  0  0  0  0  0  0
   60.9500   27.9277   44.4590 H   0  0  0  0  0  0  0  0  0  0  0  0
   60.1537   26.7309   47.4894 H   0  0  0  0  0  0  0  0  0  0  0  0
   58.3825   25.1336   48.2020 H   0  0  0  0  0  0  0  0  0  0  0  0
   56.3710   24.7784   46.7729 H   0  0  0  0  0  0  0  0  0  0  0  0
   56.1216   26.0232   44.6339 H   0  0  0  0  0  0  0  0  0  0  0  0
   58.4808   27.5206   42.7583 H   0  0  0  0  0  0  0  0  0  0  0  0
   56.7416   27.6975   43.2271 H   0  0  0  0  0  0  0  0  0  0  0  0
   58.7820   29.7500   43.2900 H   0  0  0  0  0  0  0  0  0  0  0  0
   59.6124   31.6503   44.8967 H   0  0  0  0  0  0  0  0  0  0  0  0
   59.8386   34.6633   44.4956 H   0  0  0  0  0  0  0  0  0  0  0  0
   58.6865   35.4704   45.6194 H   0  0  0  0  0  0  0  0  0  0  0  0
   61.8336   33.6675   45.3019 H   0  0  0  0  0  0  0  0  0  0  0  0
   63.3870   33.2649   47.2128 H   0  0  0  0  0  0  0  0  0  0  0  0
   62.6155   33.6546   49.5556 H   0  0  0  0  0  0  0  0  0  0  0  0
   60.2898   34.4563   49.9881 H   0  0  0  0  0  0  0  0  0  0  0  0
   58.7312   34.8613   48.0829 H   0  0  0  0  0  0  0  0  0  0  0  0
  1  2  2  0
  2  3  1  0
  3  4  2  0
  4  5  1  0
  5  6  2  0
  6  7  1  0
  7  8  2  0
  8  9  1  0
  9 10  1  0
 10 11  1  0
 11 12  2  0
 11 13  1  0
 13 14  1  0
 14 15  2  0
 15 16  1  0
 16 17  1  0
 17 18  2  0
 18 19  1  0
 19 20  2  0
 20 21  1  0
 21 22  2  0
 15 23  1  0
 23 24  1  0
  8  3  1  0
 24 13  2  0
 22 17  1  0
  1 25  1  0
  1 26  1  0
  2 27  1  0
  4 28  1  0
  5 29  1  0
  6 30  1  0
  7 31  1  0
  9 32  1  0
  9 33  1  0
 10 34  1  0
 14 35  1  0
 16 36  1  0
 16 37  1  0
 18 38  1  0
 19 39  1  0
 20 40  1  0
 21 41  1  0
 22 42  1  0
M  END
>  <UniqueID>  (59) 
55

>  <SMILES>  (59) 
C=Cc1ccccc1CNC(=O)c1cc(Cc2ccccc2)on1

>  <Energy>  (59) 
78.18630601242698

>  <Genealogy>  (59) 
C=Cc1ccccc1CNC(=O)c1cc(Cc2ccccc2)on1 (3D coordinates assigned)
C=Cc1ccccc1CNC(=O)c1cc(Cc2ccccc2)on1 (optimized conformer: 78.18630601242698 kcal/mol)

>  <smiles>  (59) 
C=Cc1ccccc1CNC(=O)c1cc(Cc2ccccc2)on1

>  <score_type>  (59) 
oracle

>  <origin>  (59) 
adg

>  <m_score__min__energy>  (59) 
-8.8000000000000007

>  <m_primary>  (59) 
energy

$$$$
59:0
     RDKit          3D

 84 88  0  0  0  0  0  0  0  0999 V2000
   58.1055   33.7370   43.4618 H   0  0  0  0  0  0  0  0  0  0  0  0
   57.7630   32.7020   43.6080 C   0  0  0  0  0  0  0  0  0  0  0  0
   57.4250   31.5900   42.3870 S   0  0  0  0  0  0  0  0  0  0  0  0
   57.0220   30.3760   43.4760 C   0  0  0  0  0  0  0  0  0  0  0  0
   56.6500   29.1850   43.1180 N   0  0  0  0  0  0  0  0  0  0  0  0
   57.4300   27.9900   43.2630 C   0  0  0  0  0  0  0  0  0  0  0  0
   57.8750   27.4400   42.2160 O   0  0  0  0  0  0  0  0  0  0  0  0
   57.7760   27.4160   44.5930 C   0  0  0  0  0  0  0  0  0  0  0  0
   58.3750   28.2000   45.6010 C   0  0  0  0  0  0  0  0  0  0  0  0
   58.6096   29.2562   45.4025 H   0  0  0  0  0  0  0  0  0  0  0  0
   58.6740   27.6460   46.8530 C   0  0  0  0  0  0  0  0  0  0  0  0
   59.2200   28.4690   47.8970 C   0  0  0  0  0  0  0  0  0  0  0  0
   59.6550   29.1510   48.7880 C   0  0  0  0  0  0  0  0  0  0  0  0
   60.1680   29.9900   49.8350 C   0  0  0  0  0  0  0  0  0  0  0  0
   61.4950   29.8470   50.2560 C   0  0  0  0  0  0  0  0  0  0  0  0
   62.1405   29.0884   49.7892 H   0  0  0  0  0  0  0  0  0  0  0  0
   62.0010   30.6660   51.2680 C   0  0  0  0  0  0  0  0  0  0  0  0
   63.0451   30.5499   51.5941 H   0  0  0  0  0  0  0  0  0  0  0  0
   61.1850   31.6370   51.8720 C   0  0  0  0  0  0  0  0  0  0  0  0
   61.7400   32.5480   52.8990 C   0  0  0  0  0  0  0  0  0  0  0  0
   61.7280   32.2180   54.1150 O   0  0  0  0  0  0  0  0  0  0  0  0
   62.3140   33.8030   52.5270 N   0  0  0  0  0  0  0  0  0  0  0  0
   63.6400   33.8940   51.9260 C   0  0  0  0  0  0  0  0  0  0  0  0
   64.0184   34.9209   52.0373 H   0  0  0  0  0  0  0  0  0  0  0  0
   64.3109   33.1859   52.4345 H   0  0  0  0  0  0  0  0  0  0  0  0
   63.5800   33.5440   50.4640 C   0  0  0  0  0  0  0  0  0  0  0  0
   64.2700   32.4210   49.9750 C   0  0  0  0  0  0  0  0  0  0  0  0
   64.9090   31.8328   50.6501 H   0  0  0  0  0  0  0  0  0  0  0  0
   64.1460   32.0500   48.6330 C   0  0  0  0  0  0  0  0  0  0  0  0
   64.6864   31.1697   48.2547 H   0  0  0  0  0  0  0  0  0  0  0  0
   63.3360   32.7960   47.7700 C   0  0  0  0  0  0  0  0  0  0  0  0
   63.2437   32.5036   46.7136 H   0  0  0  0  0  0  0  0  0  0  0  0
   62.6440   33.9120   48.2480 C   0  0  0  0  0  0  0  0  0  0  0  0
   62.0069   34.4971   47.5684 H   0  0  0  0  0  0  0  0  0  0  0  0
   62.7620   34.2850   49.5920 C   0  0  0  0  0  0  0  0  0  0  0  0
   62.2129   35.1610   49.9677 H   0  0  0  0  0  0  0  0  0  0  0  0
   59.8440   31.7520   51.4660 C   0  0  0  0  0  0  0  0  0  0  0  0
   59.1873   32.4883   51.9525 H   0  0  0  0  0  0  0  0  0  0  0  0
   59.3390   30.9370   50.4480 C   0  0  0  0  0  0  0  0  0  0  0  0
   58.2913   31.0399   50.1292 H   0  0  0  0  0  0  0  0  0  0  0  0
   58.4290   26.2940   47.0920 C   0  0  0  0  0  0  0  0  0  0  0  0
   58.6600   25.8606   48.0763 H   0  0  0  0  0  0  0  0  0  0  0  0
   57.8910   25.4880   46.0850 C   0  0  0  0  0  0  0  0  0  0  0  0
   57.6930   24.0850   46.3180 N   0  0  0  0  0  0  0  0  0  0  0  0
   56.9680   23.6610   47.5200 C   0  0  0  0  0  0  0  0  0  0  0  0
   57.5206   23.9841   48.4146 H   0  0  0  0  0  0  0  0  0  0  0  0
   55.9664   24.1157   47.5236 H   0  0  0  0  0  0  0  0  0  0  0  0
   56.8732   22.5651   47.5236 H   0  0  0  0  0  0  0  0  0  0  0  0
   57.8650   23.1480   45.1990 C   0  0  0  0  0  0  0  0  0  0  0  0
   58.7744   22.5512   45.3627 H   0  0  0  0  0  0  0  0  0  0  0  0
   57.9518   23.7212   44.2642 H   0  0  0  0  0  0  0  0  0  0  0  0
   56.6560   22.2090   45.0960 C   0  0  0  0  0  0  0  0  0  0  0  0
   55.8207   22.6294   45.6752 H   0  0  0  0  0  0  0  0  0  0  0  0
   56.9360   21.2231   45.4955 H   0  0  0  0  0  0  0  0  0  0  0  0
   56.2400   22.0530   43.6840 N   0  0  0  0  0  0  0  0  0  0  0  0
   56.2110   23.3570   43.0030 C   0  0  0  0  0  0  0  0  0  0  0  0
   56.1931   24.1618   43.7526 H   0  0  0  0  0  0  0  0  0  0  0  0
   57.1070   23.4620   42.3736 H   0  0  0  0  0  0  0  0  0  0  0  0
   55.3112   23.4220   42.3736 H   0  0  0  0  0  0  0  0  0  0  0  0
   57.1430   21.1430   42.9620 C   0  0  0  0  0  0  0  0  0  0  0  0
   57.7265   20.5550   43.6857 H   0  0  0  0  0  0  0  0  0  0  0  0
   56.5513   20.4642   42.3303 H   0  0  0  0  0  0  0  0  0  0  0  0
   57.8263   21.7295   42.3303 H   0  0  0  0  0  0  0  0  0  0  0  0
   57.5520   26.0510   44.8470 C   0  0  0  0  0  0  0  0  0  0  0  0
   57.1059   25.4183   44.0655 H   0  0  0  0  0  0  0  0  0  0  0  0
   57.1200   30.7870   44.7600 N   0  0  0  0  0  0  0  0  0  0  0  0
   57.5330   32.0820   44.8350 C   0  0  0  0  0  0  0  0  0  0  0  0
   57.7770   32.7580   46.1480 C   0  0  0  0  0  0  0  0  0  0  0  0
   57.2929   33.7457   46.1424 H   0  0  0  0  0  0  0  0  0  0  0  0
   57.3581   32.1356   46.9525 H   0  0  0  0  0  0  0  0  0  0  0  0
   59.2280   32.9280   46.3800 N   0  0  0  0  0  0  0  0  0  0  0  0
   59.6350   32.6110   47.7660 C   0  0  0  0  0  0  0  0  0  0  0  0
   59.1070   31.7024   48.0910 H   0  0  0  0  0  0  0  0  0  0  0  0
   60.7253   32.4651   47.7723 H   0  0  0  0  0  0  0  0  0  0  0  0
   59.3060   33.7520   48.7450 C   0  0  0  0  0  0  0  0  0  0  0  0
   58.2141   33.8704   48.8057 H   0  0  0  0  0  0  0  0  0  0  0  0
   59.7213   33.4983   49.7315 H   0  0  0  0  0  0  0  0  0  0  0  0
   59.8800   34.9700   48.3140 O   0  0  0  0  0  0  0  0  0  0  0  0
   59.3450   35.3210   47.0530 C   0  0  0  0  0  0  0  0  0  0  0  0
   58.2500   35.3897   47.1319 H   0  0  0  0  0  0  0  0  0  0  0  0
   59.7674   36.2895   46.7471 H   0  0  0  0  0  0  0  0  0  0  0  0
   59.7090   34.2680   45.9960 C   0  0  0  0  0  0  0  0  0  0  0  0
   59.2507   34.5510   45.0369 H   0  0  0  0  0  0  0  0  0  0  0  0
   60.8050   34.2297   45.9101 H   0  0  0  0  0  0  0  0  0  0  0  0
  1  2  1  0
  2  3  1  0
  3  4  1  0
  4  5  2  0
  5  6  1  0
  6  7  2  0
  6  8  1  0
  8  9  2  0
  9 10  1  0
  9 11  1  0
 11 12  1  0
 12 13  3  0
 13 14  1  0
 14 15  2  0
 15 16  1  0
 15 17  1  0
 17 18  1  0
 17 19  2  0
 19 20  1  0
 20 21  2  0
 20 22  1  0
 22 23  1  0
 23 24  1  0
 23 25  1  0
 23 26  1  0
 26 27  2  0
 27 28  1  0
 27 29  1  0
 29 30  1  0
 29 31  2  0
 31 32  1  0
 31 33  1  0
 33 34  1  0
 33 35  2  0
 35 36  1  0
 19 37  1  0
 37 38  1  0
 37 39  2  0
 39 40  1  0
 11 41  2  0
 41 42  1  0
 41 43  1  0
 43 44  1  0
 44 45  1  0
 45 46  1  0
 45 47  1  0
 45 48  1  0
 44 49  1  0
 49 50  1  0
 49 51  1  0
 49 52  1  0
 52 53  1  0
 52 54  1  0
 52 55  1  0
 55 56  1  0
 56 57  1  0
 56 58  1  0
 56 59  1  0
 55 60  1  0
 60 61  1  0
 60 62  1  0
 60 63  1  0
 43 64  2  0
 64 65  1  0
  4 66  1  0
 66 67  1  0
 67 68  1  0
 68 69  1  0
 68 70  1  0
 68 71  1  0
 71 72  1  0
 72 73  1  0
 72 74  1  0
 72 75  1  0
 75 76  1  0
 75 77  1  0
 75 78  1  0
 78 79  1  0
 79 80  1  0
 79 81  1  0
 79 82  1  0
 82 83  1  0
 82 84  1  0
 67  2  2  0
 82 71  1  0
 64  8  1  0
 39 14  1  0
 35 26  1  0
M  CHG  2  22  -1  66  -1
M  END
>  <UniqueID>  (60) 
56

>  <SMILES>  (60) 
CN(C)CCN(C)c1cc(C#Cc2ccc(C(=O)[N-]Cc3ccccc3)cc2)cc(C(=O)/N=c2\[n-]c(CN3CCOCC3)cs2)c1

>  <Energy>  (60) 
131.44953082276442

>  <Genealogy>  (60) 
CN(C)CCN(C)c1cc(C#Cc2ccc(C(=O)[N-]Cc3ccccc3)cc2)cc(C(=O)N=c2[n-]c(CN3CCOCC3)cs2)c1 (protonated)
CN(C)CCN(C)c1cc(C#Cc2ccc(C(=O)[N-]Cc3ccccc3)cc2)cc(C(=O)/N=c2\[n-]c(CN3CCOCC3)cs2)c1 (cis-trans isomerization)
CN(C)CCN(C)c1cc(C#Cc2ccc(C(=O)[N-]Cc3ccccc3)cc2)cc(C(=O)/N=c2\[n-]c(CN3CCOCC3)cs2)c1 (3D coordinates assigned)
CN(C)CCN(C)c1cc(C#Cc2ccc(C(=O)[N-]Cc3ccccc3)cc2)cc(C(=O)/N=c2\[n-]c(CN3CCOCC3)cs2)c1 (nonaromatic ring conformer: 131.44953082276442 kcal/mol)

>  <smiles>  (60) 
CN(C)CCN(C)c1cc(C#Cc2ccc(C(=O)NCc3ccccc3)cc2)cc(C(=O)N=c2[nH]c(CN3CCOCC3)cs2)c1

>  <score_type>  (60) 
oracle

>  <origin>  (60) 
adg

>  <m_score__min__energy>  (60) 
-12.039999999999999

>  <m_primary>  (60) 
energy

$$$$
60:0
     RDKit          3D

 51 54  0  0  0  0  0  0  0  0999 V2000
   56.4150   30.8590   44.5040 O   0  0  0  0  0  0  0  0  0  0  0  0
   57.4520   30.5460   45.1490 C   0  0  0  0  0  0  0  0  0  0  0  0
   57.8500   29.1290   45.2270 C   0  0  0  0  0  0  0  0  0  0  0  0
   56.9810   28.0530   45.3750 C   0  0  0  0  0  0  0  0  0  0  0  0
   57.6310   26.8030   45.3710 C   0  0  0  0  0  0  0  0  0  0  0  0
   56.9390   25.5030   45.5360 C   0  0  0  0  0  0  0  0  0  0  0  0
   55.8940   25.4620   46.2430 O   0  0  0  0  0  0  0  0  0  0  0  0
   57.3950   24.3110   44.8450 N   0  0  0  0  0  0  0  0  0  0  0  0
   56.9090   23.0840   45.5200 C   0  0  0  0  0  0  0  0  0  0  0  0
   57.0080   21.8760   44.5730 C   0  0  0  0  0  0  0  0  0  0  0  0
   56.2700   22.0130   43.3620 O   0  0  0  0  0  0  0  0  0  0  0  0
   55.9160   23.3530   43.0550 C   0  0  0  0  0  0  0  0  0  0  0  0
   57.0260   24.3600   43.4060 C   0  0  0  0  0  0  0  0  0  0  0  0
   59.0130   26.9050   45.2240 C   0  0  0  0  0  0  0  0  0  0  0  0
   59.4160   28.5280   45.0770 S   0  0  0  0  0  0  0  0  0  0  0  0
   58.2460   31.5800   45.7540 N   0  0  0  0  0  0  0  0  0  0  0  0
   58.4920   32.8200   45.0100 C   0  0  0  0  0  0  0  0  0  0  0  0
   59.3880   33.7690   45.8110 C   0  0  0  0  0  0  0  0  0  0  0  0
   60.5140   33.0140   46.3940 N   0  0  0  0  0  0  0  0  0  0  0  0
   61.5780   33.9400   46.8680 C   0  0  0  0  0  0  0  0  0  0  0  0
   62.0260   33.7440   48.3180 C   0  0  0  0  0  0  0  0  0  0  0  0
   63.4330   33.4140   47.8310 C   0  0  0  0  0  0  0  0  0  0  0  0
   62.9950   33.6200   46.3840 C   0  0  0  0  0  0  0  0  0  0  0  0
   60.0860   31.9530   47.3510 C   0  0  0  0  0  0  0  0  0  0  0  0
   58.6220   31.5130   47.1700 C   0  0  0  0  0  0  0  0  0  0  0  0
   55.8924   28.1669   45.4845 H   0  0  0  0  0  0  0  0  0  0  0  0
   58.4390   24.2710   44.9060 H   0  0  0  0  0  0  0  0  0  0  0  0
   57.5218   22.8951   46.4137 H   0  0  0  0  0  0  0  0  0  0  0  0
   55.8567   23.2274   45.8066 H   0  0  0  0  0  0  0  0  0  0  0  0
   58.0670   21.7274   44.3151 H   0  0  0  0  0  0  0  0  0  0  0  0
   56.5722   21.0207   45.1101 H   0  0  0  0  0  0  0  0  0  0  0  0
   55.7064   23.4228   41.9774 H   0  0  0  0  0  0  0  0  0  0  0  0
   55.0340   23.6089   43.6604 H   0  0  0  0  0  0  0  0  0  0  0  0
   57.9171   24.1289   42.8039 H   0  0  0  0  0  0  0  0  0  0  0  0
   56.6466   25.3695   43.1892 H   0  0  0  0  0  0  0  0  0  0  0  0
   59.7210   26.0633   45.2071 H   0  0  0  0  0  0  0  0  0  0  0  0
   58.9856   32.5767   44.0575 H   0  0  0  0  0  0  0  0  0  0  0  0
   57.5280   33.3173   44.8270 H   0  0  0  0  0  0  0  0  0  0  0  0
   59.7786   34.5527   45.1452 H   0  0  0  0  0  0  0  0  0  0  0  0
   58.8009   34.2304   46.6187 H   0  0  0  0  0  0  0  0  0  0  0  0
   61.0872   34.8759   46.5627 H   0  0  0  0  0  0  0  0  0  0  0  0
   61.9647   34.6527   48.9348 H   0  0  0  0  0  0  0  0  0  0  0  0
   61.4870   33.0513   48.9810 H   0  0  0  0  0  0  0  0  0  0  0  0
   64.2017   34.1237   48.1708 H   0  0  0  0  0  0  0  0  0  0  0  0
   63.9155   32.4728   48.1333 H   0  0  0  0  0  0  0  0  0  0  0  0
   63.4972   34.4566   45.8762 H   0  0  0  0  0  0  0  0  0  0  0  0
   63.1656   32.8368   45.6306 H   0  0  0  0  0  0  0  0  0  0  0  0
   60.7330   31.0749   47.2086 H   0  0  0  0  0  0  0  0  0  0  0  0
   60.1723   32.3772   48.3622 H   0  0  0  0  0  0  0  0  0  0  0  0
   58.5059   30.4796   47.5286 H   0  0  0  0  0  0  0  0  0  0  0  0
   57.9704   32.1854   47.7473 H   0  0  0  0  0  0  0  0  0  0  0  0
  1  2  2  0
  2  3  1  0
  3  4  2  0
  4  5  1  0
  5  6  1  0
  6  7  2  0
  6  8  1  0
  8  9  1  0
  9 10  1  0
 10 11  1  0
 11 12  1  0
 12 13  1  0
  5 14  2  0
 14 15  1  0
  2 16  1  0
 16 17  1  0
 17 18  1  0
 18 19  1  0
 19 20  1  0
 20 21  1  0
 21 22  1  0
 22 23  1  0
 19 24  1  0
 24 25  1  0
 15  3  1  0
 25 16  1  0
 13  8  1  0
 23 20  1  0
  4 26  1  0
  8 27  1  0
  9 28  1  0
  9 29  1  0
 10 30  1  0
 10 31  1  0
 12 32  1  0
 12 33  1  0
 13 34  1  0
 13 35  1  0
 14 36  1  0
 17 37  1  0
 17 38  1  0
 18 39  1  0
 18 40  1  0
 20 41  1  0
 21 42  1  0
 21 43  1  0
 22 44  1  0
 22 45  1  0
 23 46  1  0
 23 47  1  0
 24 48  1  0
 24 49  1  0
 25 50  1  0
 25 51  1  0
M  CHG  1   8   1
M  END
>  <UniqueID>  (61) 
57

>  <SMILES>  (61) 
O=C(c1cc(C(=O)[NH+]2CCOCC2)cs1)N1CCN(C2CCC2)CC1

>  <Energy>  (61) 
170.10555096413154

>  <Genealogy>  (61) 
O=C(c1cc(C(=O)[NH+]2CCOCC2)cs1)N1CCN(C2CCC2)CC1 (protonated)
O=C(c1cc(C(=O)[NH+]2CCOCC2)cs1)N1CCN(C2CCC2)CC1 (3D coordinates assigned)
O=C(c1cc(C(=O)[NH+]2CCOCC2)cs1)N1CCN(C2CCC2)CC1 (nonaromatic ring conformer: 170.10555096413154 kcal/mol)

>  <smiles>  (61) 
O=C(c1csc(C(=O)N2CCN(C3CCC3)CC2)c1)N1CCOCC1

>  <score_type>  (61) 
oracle

>  <origin>  (61) 
adg

>  <m_score__min__energy>  (61) 
-7.4400000000000004

>  <m_primary>  (61) 
energy

$$$$
61:0
     RDKit          3D

 41 43  0  0  0  0  0  0  0  0999 V2000
   56.4660   30.3030   43.2370 C   0  0  0  0  0  0  0  0  0  0  0  0
   57.2750   30.9010   44.3510 C   0  0  0  0  0  0  0  0  0  0  0  0
   56.9070   32.1220   44.8240 N   0  0  0  0  0  0  0  0  0  0  0  0
   57.5540   32.7420   45.8440 C   0  0  0  0  0  0  0  0  0  0  0  0
   57.1810   33.8920   46.1970 O   0  0  0  0  0  0  0  0  0  0  0  0
   58.6440   32.1100   46.4710 C   0  0  0  0  0  0  0  0  0  0  0  0
   59.3800   32.7350   47.5940 C   0  0  0  0  0  0  0  0  0  0  0  0
   58.8360   33.6810   48.2280 O   0  0  0  0  0  0  0  0  0  0  0  0
   60.6960   32.2840   47.9570 N   0  0  0  0  0  0  0  0  0  0  0  0
   61.4550   32.8450   49.0420 C   0  0  0  0  0  0  0  0  0  0  0  0
   60.9330   32.8600   50.3480 C   0  0  0  0  0  0  0  0  0  0  0  0
   61.6630   33.4330   51.3950 C   0  0  0  0  0  0  0  0  0  0  0  0
   61.0020   33.4460   53.0200 Cl  0  0  0  0  0  0  0  0  0  0  0  0
   62.9130   34.0050   51.1450 C   0  0  0  0  0  0  0  0  0  0  0  0
   63.4320   34.0110   49.8480 C   0  0  0  0  0  0  0  0  0  0  0  0
   62.7080   33.4410   48.7950 C   0  0  0  0  0  0  0  0  0  0  0  0
   63.4090   33.4520   47.1820 Cl  0  0  0  0  0  0  0  0  0  0  0  0
   59.0560   30.8620   45.9880 C   0  0  0  0  0  0  0  0  0  0  0  0
   58.3850   30.2380   44.9250 C   0  0  0  0  0  0  0  0  0  0  0  0
   58.8830   28.8910   44.4420 C   0  0  0  0  0  0  0  0  0  0  0  0
   58.1960   27.7720   45.1840 C   0  0  0  0  0  0  0  0  0  0  0  0
   58.9480   26.7230   45.7430 C   0  0  0  0  0  0  0  0  0  0  0  0
   58.3060   25.6720   46.4040 C   0  0  0  0  0  0  0  0  0  0  0  0
   56.9140   25.6540   46.5090 C   0  0  0  0  0  0  0  0  0  0  0  0
   56.1580   26.6900   45.9510 C   0  0  0  0  0  0  0  0  0  0  0  0
   54.7730   26.6710   46.0550 O   0  0  0  0  0  0  0  0  0  0  0  0
   56.7960   27.7450   45.2890 C   0  0  0  0  0  0  0  0  0  0  0  0
   55.6494   29.6994   43.6600 H   0  0  0  0  0  0  0  0  0  0  0  0
   56.0440   31.1079   42.6173 H   0  0  0  0  0  0  0  0  0  0  0  0
   57.1117   29.6634   42.6173 H   0  0  0  0  0  0  0  0  0  0  0  0
   61.1210   31.4910   47.4280 H   0  0  0  0  0  0  0  0  0  0  0  0
   59.9453   32.4188   50.5473 H   0  0  0  0  0  0  0  0  0  0  0  0
   63.4886   34.4507   51.9696 H   0  0  0  0  0  0  0  0  0  0  0  0
   64.4145   34.4660   49.6536 H   0  0  0  0  0  0  0  0  0  0  0  0
   59.9203   30.3621   46.4496 H   0  0  0  0  0  0  0  0  0  0  0  0
   58.6739   28.7930   43.3665 H   0  0  0  0  0  0  0  0  0  0  0  0
   59.9653   28.8265   44.6275 H   0  0  0  0  0  0  0  0  0  0  0  0
   60.0448   26.7298   45.6597 H   0  0  0  0  0  0  0  0  0  0  0  0
   58.8995   24.8564   46.8429 H   0  0  0  0  0  0  0  0  0  0  0  0
   56.4121   24.8255   47.0303 H   0  0  0  0  0  0  0  0  0  0  0  0
   56.1981   28.5567   44.8489 H   0  0  0  0  0  0  0  0  0  0  0  0
  1  2  1  0
  2  3  1  0
  3  4  1  0
  4  5  2  0
  4  6  1  0
  6  7  1  0
  7  8  2  0
  7  9  1  0
  9 10  1  0
 10 11  2  0
 11 12  1  0
 12 13  1  0
 12 14  2  0
 14 15  1  0
 15 16  2  0
 16 17  1  0
  6 18  2  0
 18 19  1  0
 19 20  1  0
 20 21  1  0
 21 22  2  0
 22 23  1  0
 23 24  2  0
 24 25  1  0
 25 26  1  0
 25 27  2  0
 19  2  2  0
 27 21  1  0
 16 10  1  0
  1 28  1  0
  1 29  1  0
  1 30  1  0
  9 31  1  0
 11 32  1  0
 14 33  1  0
 15 34  1  0
 18 35  1  0
 20 36  1  0
 20 37  1  0
 22 38  1  0
 23 39  1  0
 24 40  1  0
 27 41  1  0
M  CHG  2   3  -1  26  -1
M  END
>  <UniqueID>  (62) 
58

>  <SMILES>  (62) 
Cc1[n-]c(=O)c(C(=O)Nc2cc(Cl)ccc2Cl)cc1Cc1cccc([O-])c1

>  <Energy>  (62) 
54.15265045555402

>  <Genealogy>  (62) 
Cc1[n-]c(=O)c(C(=O)Nc2cc(Cl)ccc2Cl)cc1Cc1cccc([O-])c1 (protonated)
Cc1[n-]c(=O)c(C(=O)Nc2cc(Cl)ccc2Cl)cc1Cc1cccc([O-])c1 (3D coordinates assigned)
Cc1[n-]c(=O)c(C(=O)Nc2cc(Cl)ccc2Cl)cc1Cc1cccc([O-])c1 (optimized conformer: 54.15265045555402 kcal/mol)

>  <smiles>  (62) 
Cc1[nH]c(=O)c(C(=O)Nc2cc(Cl)ccc2Cl)cc1Cc1cccc(O)c1

>  <score_type>  (62) 
oracle

>  <origin>  (62) 
adg

>  <m_score__min__energy>  (62) 
-13.56

>  <m_primary>  (62) 
energy

$$$$
62:0
     RDKit          3D

 56 58  0  0  0  0  0  0  0  0999 V2000
   58.4070   32.6443   40.9188 H   0  0  0  0  0  0  0  0  0  0  0  0
   57.6940   32.3500   41.7030 C   0  0  0  0  0  0  0  0  0  0  0  0
   56.6130   32.3751   41.5010 H   0  0  0  0  0  0  0  0  0  0  0  0
   58.1410   31.9620   42.9010 C   0  0  0  0  0  0  0  0  0  0  0  0
   59.2248   31.9421   43.0878 H   0  0  0  0  0  0  0  0  0  0  0  0
   57.2010   31.5520   44.0000 C   0  0  0  0  0  0  0  0  0  0  0  0
   56.9938   32.4203   44.6428 H   0  0  0  0  0  0  0  0  0  0  0  0
   56.2668   31.1827   43.5519 H   0  0  0  0  0  0  0  0  0  0  0  0
   57.8140   30.4520   44.8320 C   0  0  0  0  0  0  0  0  0  0  0  0
   58.7500   30.7340   45.8370 C   0  0  0  0  0  0  0  0  0  0  0  0
   59.1980   32.0390   46.0210 O   0  0  0  0  0  0  0  0  0  0  0  0
   59.2260   29.7130   46.6720 C   0  0  0  0  0  0  0  0  0  0  0  0
   60.3970   30.1720   47.9770 S   0  0  0  0  0  0  0  0  0  0  0  0
   59.1840   30.0830   49.3510 C   0  0  0  0  0  0  0  0  0  0  0  0
   58.2784   29.5660   49.0007 H   0  0  0  0  0  0  0  0  0  0  0  0
   59.6370   29.5322   50.1885 H   0  0  0  0  0  0  0  0  0  0  0  0
   58.8080   31.4870   49.8300 C   0  0  0  0  0  0  0  0  0  0  0  0
   58.6092   32.1198   48.9524 H   0  0  0  0  0  0  0  0  0  0  0  0
   57.9170   31.3995   50.4691 H   0  0  0  0  0  0  0  0  0  0  0  0
   59.9220   32.1300   50.6600 C   0  0  0  0  0  0  0  0  0  0  0  0
   59.6941   32.0134   51.7298 H   0  0  0  0  0  0  0  0  0  0  0  0
   60.8778   31.6371   50.4289 H   0  0  0  0  0  0  0  0  0  0  0  0
   60.0470   33.9100   50.2560 S   0  0  0  0  0  0  0  0  0  0  0  0
   61.2590   33.7010   48.9390 C   0  0  0  0  0  0  0  0  0  0  0  0
   62.4440   33.0160   49.2310 C   0  0  0  0  0  0  0  0  0  0  0  0
   62.6441   32.6836   50.2603 H   0  0  0  0  0  0  0  0  0  0  0  0
   63.3740   32.7520   48.2230 C   0  0  0  0  0  0  0  0  0  0  0  0
   64.3077   32.2217   48.4617 H   0  0  0  0  0  0  0  0  0  0  0  0
   63.1190   33.1610   46.9120 C   0  0  0  0  0  0  0  0  0  0  0  0
   63.8462   32.9415   46.1164 H   0  0  0  0  0  0  0  0  0  0  0  0
   61.9420   33.8480   46.6110 C   0  0  0  0  0  0  0  0  0  0  0  0
   61.7385   34.1552   45.5745 H   0  0  0  0  0  0  0  0  0  0  0  0
   61.0180   34.1490   47.6200 C   0  0  0  0  0  0  0  0  0  0  0  0
   59.8210   34.8510   47.2620 N   0  0  0  0  0  0  0  0  0  0  0  0
   59.5470   35.3630   45.9540 C   0  0  0  0  0  0  0  0  0  0  0  0
   60.0010   36.4840   45.5980 O   0  0  0  0  0  0  0  0  0  0  0  0
   58.7110   34.5690   45.0090 C   0  0  0  0  0  0  0  0  0  0  0  0
   58.0287   33.9210   45.5787 H   0  0  0  0  0  0  0  0  0  0  0  0
   58.1252   35.2513   44.3755 H   0  0  0  0  0  0  0  0  0  0  0  0
   59.3622   33.9488   44.3755 H   0  0  0  0  0  0  0  0  0  0  0  0
   58.7790   28.3720   46.4950 C   0  0  0  0  0  0  0  0  0  0  0  0
   59.0130   27.4640   47.4650 C   0  0  0  0  0  0  0  0  0  0  0  0
   59.6383   27.7315   48.3295 H   0  0  0  0  0  0  0  0  0  0  0  0
   58.5785   26.4561   47.3913 H   0  0  0  0  0  0  0  0  0  0  0  0
   57.9690   28.0630   45.3510 C   0  0  0  0  0  0  0  0  0  0  0  0
   57.7010   26.8080   44.9010 C   0  0  0  0  0  0  0  0  0  0  0  0
   57.9987   26.5745   43.8681 H   0  0  0  0  0  0  0  0  0  0  0  0
   57.0480   25.7300   45.6690 C   0  0  0  0  0  0  0  0  0  0  0  0
   57.6940   24.6300   46.0980 N   0  0  0  0  0  0  0  0  0  0  0  0
   56.7530   23.9690   46.8070 C   0  0  0  0  0  0  0  0  0  0  0  0
   56.9750   22.8630   47.3660 O   0  0  0  0  0  0  0  0  0  0  0  0
   55.5540   24.5890   46.8770 N   0  0  0  0  0  0  0  0  0  0  0  0
   55.7610   25.7090   46.1630 C   0  0  0  0  0  0  0  0  0  0  0  0
   54.8020   26.7020   45.9940 O   0  0  0  0  0  0  0  0  0  0  0  0
   57.4220   29.1290   44.6090 C   0  0  0  0  0  0  0  0  0  0  0  0
   56.6690   28.9149   43.8363 H   0  0  0  0  0  0  0  0  0  0  0  0
  1  2  1  0
  2  3  1  0
  2  4  2  0
  4  5  1  0
  4  6  1  0
  6  7  1  0
  6  8  1  0
  6  9  1  0
  9 10  1  0
 10 11  1  0
 10 12  2  0
 12 13  1  0
 13 14  1  0
 14 15  1  0
 14 16  1  0
 14 17  1  0
 17 18  1  0
 17 19  1  0
 17 20  1  0
 20 21  1  0
 20 22  1  0
 20 23  1  0
 23 24  1  0
 24 25  2  0
 25 26  1  0
 25 27  1  0
 27 28  1  0
 27 29  2  0
 29 30  1  0
 29 31  1  0
 31 32  1  0
 31 33  2  0
 33 34  1  0
 34 35  1  0
 35 36  2  0
 35 37  1  0
 37 38  1  0
 37 39  1  0
 37 40  1  0
 12 41  1  0
 41 42  2  0
 42 43  1  0
 42 44  1  0
 41 45  1  0
 45 46  2  0
 46 47  1  0
 46 48  1  0
 48 49  1  0
 49 50  1  0
 50 51  2  0
 50 52  1  0
 52 53  1  0
 53 54  1  0
 45 55  1  0
 55 56  1  0
 55  9  2  0
 33 24  1  0
 53 48  2  0
M  CHG  5  11  -1  34  -1  49  -1  52  -1  54  -1
M  END
>  <UniqueID>  (63) 
59

>  <SMILES>  (63) 
C=CCc1c/c(=C/c2[n-]c(=O)[n-]c2[O-])c(=C)c(SCCCSc2ccccc2[N-]C(C)=O)c1[O-]

>  <Energy>  (63) 
104.52683663973339

>  <Genealogy>  (63) 
C=CCc1cc(=Cc2[n-]c(=O)[n-]c2[O-])c(=C)c(SCCCSc2ccccc2[N-]C(C)=O)c1[O-] (protonated)
C=CCc1c/c(=C/c2[n-]c(=O)[n-]c2[O-])c(=C)c(SCCCSc2ccccc2[N-]C(C)=O)c1[O-] (cis-trans isomerization)
C=CCc1c/c(=C/c2[n-]c(=O)[n-]c2[O-])c(=C)c(SCCCSc2ccccc2[N-]C(C)=O)c1[O-] (3D coordinates assigned)
C=CCc1c/c(=C/c2[n-]c(=O)[n-]c2[O-])c(=C)c(SCCCSc2ccccc2[N-]C(C)=O)c1[O-] (optimized conformer: 104.52683663973339 kcal/mol)

>  <smiles>  (63) 
C=CCc1cc(=Cc2[nH]c(=O)[nH]c2O)c(=C)c(SCCCSc2ccccc2NC(C)=O)c1O

>  <score_type>  (63) 
oracle

>  <origin>  (63) 
adg

>  <m_score__min__energy>  (63) 
-18.370000000000001

>  <m_primary>  (63) 
energy

$$$$
63:0
     RDKit          3D

 53 56  0  0  0  0  0  0  0  0999 V2000
   53.4780   27.9850   53.5490 C   0  0  0  0  0  0  0  0  0  0  0  0
   54.2210   29.0480   53.2180 C   0  0  0  0  0  0  0  0  0  0  0  0
   55.5430   28.9920   53.5360 N   0  0  0  0  0  0  0  0  0  0  0  0
   56.4510   29.8890   53.0800 C   0  0  0  0  0  0  0  0  0  0  0  0
   56.0590   30.8910   52.1900 C   0  0  0  0  0  0  0  0  0  0  0  0
   57.0550   31.8400   51.6460 C   0  0  0  0  0  0  0  0  0  0  0  0
   57.1310   32.9980   52.1410 O   0  0  0  0  0  0  0  0  0  0  0  0
   57.9520   31.4610   50.5820 N   0  0  0  0  0  0  0  0  0  0  0  0
   58.5390   30.1110   50.5590 C   0  0  0  0  0  0  0  0  0  0  0  0
   59.8850   30.0940   49.8200 C   0  0  0  0  0  0  0  0  0  0  0  0
   60.7330   31.3250   50.2070 C   0  0  0  0  0  0  0  0  0  0  0  0
   62.1490   31.2430   49.5460 C   0  0  0  0  0  0  0  0  0  0  0  0
   62.8170   32.5490   49.3240 N   0  0  0  0  0  0  0  0  0  0  0  0
   64.0740   32.4540   48.5650 C   0  0  0  0  0  0  0  0  0  0  0  0
   65.1890   33.0610   49.4100 C   0  0  0  0  0  0  0  0  0  0  0  0
   64.5850   33.2990   50.7790 C   0  0  0  0  0  0  0  0  0  0  0  0
   63.0860   33.3140   50.5470 C   0  0  0  0  0  0  0  0  0  0  0  0
   59.9890   32.6530   49.8660 C   0  0  0  0  0  0  0  0  0  0  0  0
   58.4770   32.4760   49.6620 C   0  0  0  0  0  0  0  0  0  0  0  0
   54.7000   31.0130   51.8770 C   0  0  0  0  0  0  0  0  0  0  0  0
   53.7390   30.1490   52.4400 C   0  0  0  0  0  0  0  0  0  0  0  0
   52.4330   30.4510   52.2230 C   0  0  0  0  0  0  0  0  0  0  0  0
   51.8400   30.8680   50.9380 C   0  0  0  0  0  0  0  0  0  0  0  0
   51.7350   30.0850   49.8480 N   0  0  0  0  0  0  0  0  0  0  0  0
   51.0340   30.8480   48.9810 C   0  0  0  0  0  0  0  0  0  0  0  0
   50.7400   30.4600   47.8210 O   0  0  0  0  0  0  0  0  0  0  0  0
   50.6670   32.0560   49.4600 N   0  0  0  0  0  0  0  0  0  0  0  0
   51.1740   32.0460   50.7030 C   0  0  0  0  0  0  0  0  0  0  0  0
   51.0290   33.0910   51.6050 O   0  0  0  0  0  0  0  0  0  0  0  0
   52.4027   27.9720   53.3176 H   0  0  0  0  0  0  0  0  0  0  0  0
   53.9427   27.1244   54.0524 H   0  0  0  0  0  0  0  0  0  0  0  0
   57.4981   29.8276   53.4115 H   0  0  0  0  0  0  0  0  0  0  0  0
   58.6952   29.7717   51.5936 H   0  0  0  0  0  0  0  0  0  0  0  0
   57.8455   29.4426   50.0276 H   0  0  0  0  0  0  0  0  0  0  0  0
   60.4331   29.1787   50.0881 H   0  0  0  0  0  0  0  0  0  0  0  0
   59.6952   30.1204   48.7368 H   0  0  0  0  0  0  0  0  0  0  0  0
   60.8812   31.3229   51.2970 H   0  0  0  0  0  0  0  0  0  0  0  0
   62.7948   30.6365   50.1981 H   0  0  0  0  0  0  0  0  0  0  0  0
   61.9965   30.8038   48.5491 H   0  0  0  0  0  0  0  0  0  0  0  0
   64.3010   31.3991   48.3515 H   0  0  0  0  0  0  0  0  0  0  0  0
   63.9833   32.9946   47.6113 H   0  0  0  0  0  0  0  0  0  0  0  0
   66.0379   32.3651   49.4814 H   0  0  0  0  0  0  0  0  0  0  0  0
   65.5710   33.9930   48.9679 H   0  0  0  0  0  0  0  0  0  0  0  0
   64.8616   32.4892   51.4701 H   0  0  0  0  0  0  0  0  0  0  0  0
   64.9432   34.2349   51.2326 H   0  0  0  0  0  0  0  0  0  0  0  0
   62.5700   32.8499   51.4005 H   0  0  0  0  0  0  0  0  0  0  0  0
   62.7221   34.3469   50.4436 H   0  0  0  0  0  0  0  0  0  0  0  0
   60.1478   33.3624   50.6916 H   0  0  0  0  0  0  0  0  0  0  0  0
   60.4021   33.0190   48.9145 H   0  0  0  0  0  0  0  0  0  0  0  0
   57.9710   33.4340   49.8523 H   0  0  0  0  0  0  0  0  0  0  0  0
   58.2923   32.1498   48.6278 H   0  0  0  0  0  0  0  0  0  0  0  0
   54.3758   31.7983   51.1782 H   0  0  0  0  0  0  0  0  0  0  0  0
   51.7541   30.3780   53.0854 H   0  0  0  0  0  0  0  0  0  0  0  0
  1  2  2  0
  2  3  1  0
  3  4  2  0
  4  5  1  0
  5  6  1  0
  6  7  2  0
  6  8  1  0
  8  9  1  0
  9 10  1  0
 10 11  1  0
 11 12  1  0
 12 13  1  0
 13 14  1  0
 14 15  1  0
 15 16  1  0
 16 17  1  0
 11 18  1  0
 18 19  1  0
  5 20  2  0
 20 21  1  0
 21 22  2  3
 22 23  1  0
 23 24  1  0
 24 25  1  0
 25 26  2  0
 25 27  1  0
 27 28  1  0
 28 29  1  0
 21  2  1  0
 28 23  2  0
 19  8  1  0
 17 13  1  0
  1 30  1  0
  1 31  1  0
  4 32  1  0
  9 33  1  0
  9 34  1  0
 10 35  1  0
 10 36  1  0
 11 37  1  0
 12 38  1  0
 12 39  1  0
 14 40  1  0
 14 41  1  0
 15 42  1  0
 15 43  1  0
 16 44  1  0
 16 45  1  0
 17 46  1  0
 17 47  1  0
 18 48  1  0
 18 49  1  0
 19 50  1  0
 19 51  1  0
 20 52  1  0
 22 53  1  0
M  CHG  3  24  -1  27  -1  29  -1
M  END
>  <UniqueID>  (64) 
60

>  <SMILES>  (64) 
C=c1ncc(C(=O)N2CCC(CN3CCCC3)CC2)cc1=Cc1[n-]c(=O)[n-]c1[O-]

>  <Energy>  (64) 
119.43618944092118

>  <Genealogy>  (64) 
C=c1ncc(C(=O)N2CCC(CN3CCCC3)CC2)cc1=Cc1[n-]c(=O)[n-]c1[O-] (protonated)
C=c1ncc(C(=O)N2CCC(CN3CCCC3)CC2)cc1=Cc1[n-]c(=O)[n-]c1[O-] (3D coordinates assigned)
C=c1ncc(C(=O)N2CCC(CN3CCCC3)CC2)cc1=Cc1[n-]c(=O)[n-]c1[O-] (nonaromatic ring conformer: 119.43618944092118 kcal/mol)

>  <smiles>  (64) 
C=c1ncc(C(=O)N2CCC(CN3CCCC3)CC2)cc1=Cc1[nH]c(=O)[nH]c1O

>  <score_type>  (64) 
oracle

>  <origin>  (64) 
adg

>  <m_score__min__energy>  (64) 
-17.809999999999999

>  <m_primary>  (64) 
energy

$$$$
64:0
     RDKit          3D

 68 72  0  0  0  0  0  0  0  0999 V2000
   57.9850   30.5910   45.2390 C   0  0  0  0  0  0  0  0  0  0  0  0
   58.5780   29.2670   45.0010 N   0  0  0  0  0  0  0  0  0  0  0  0
   59.9350   29.0430   45.4540 C   0  0  0  0  0  0  0  0  0  0  0  0
   60.8940   29.2810   44.6640 O   0  0  0  0  0  0  0  0  0  0  0  0
   60.2490   28.5580   46.8230 C   0  0  0  0  0  0  0  0  0  0  0  0
   60.4170   27.1910   47.0950 C   0  0  0  0  0  0  0  0  0  0  0  0
   60.5970   26.7530   48.4090 C   0  0  0  0  0  0  0  0  0  0  0  0
   60.6730   27.6770   49.4570 C   0  0  0  0  0  0  0  0  0  0  0  0
   60.8870   27.0930   51.1030 Cl  0  0  0  0  0  0  0  0  0  0  0  0
   60.6150   29.0530   49.1870 C   0  0  0  0  0  0  0  0  0  0  0  0
   60.7220   30.0050   50.2590 N   0  0  0  0  0  0  0  0  0  0  0  0
   61.8520   30.8720   50.4410 C   0  0  0  0  0  0  0  0  0  0  0  0
   62.9310   30.3940   50.8910 O   0  0  0  0  0  0  0  0  0  0  0  0
   61.7520   32.2830   50.1470 N   0  0  0  0  0  0  0  0  0  0  0  0
   60.9780   33.1680   51.0400 C   0  0  0  0  0  0  0  0  0  0  0  0
   59.6730   33.6470   50.3910 C   0  0  0  0  0  0  0  0  0  0  0  0
   59.1190   32.5830   49.4440 C   0  0  0  0  0  0  0  0  0  0  0  0
   59.6500   32.7050   48.0040 C   0  0  0  0  0  0  0  0  0  0  0  0
   61.1400   32.9460   47.8190 C   0  0  0  0  0  0  0  0  0  0  0  0
   61.5470   33.4820   46.5800 C   0  0  0  0  0  0  0  0  0  0  0  0
   62.8810   33.8150   46.3420 C   0  0  0  0  0  0  0  0  0  0  0  0
   63.8410   33.6100   47.3300 C   0  0  0  0  0  0  0  0  0  0  0  0
   63.4670   33.0690   48.5610 C   0  0  0  0  0  0  0  0  0  0  0  0
   62.1140   32.7660   48.8370 C   0  0  0  0  0  0  0  0  0  0  0  0
   60.3870   29.4840   47.8710 C   0  0  0  0  0  0  0  0  0  0  0  0
   57.7650   28.1590   44.4480 C   0  0  0  0  0  0  0  0  0  0  0  0
   57.2520   27.2080   45.5660 C   0  0  0  0  0  0  0  0  0  0  0  0
   57.8080   25.7810   45.4480 C   0  0  0  0  0  0  0  0  0  0  0  0
   57.6180   25.2600   44.0840 N   0  0  0  0  0  0  0  0  0  0  0  0
   57.3380   23.8650   43.8670 C   0  0  0  0  0  0  0  0  0  0  0  0
   56.7010   23.5060   42.8370 O   0  0  0  0  0  0  0  0  0  0  0  0
   57.7950   22.8260   44.8500 C   0  0  0  0  0  0  0  0  0  0  0  0
   56.9730   21.5430   44.8840 C   0  0  0  0  0  0  0  0  0  0  0  0
   58.3170   21.5630   44.1820 C   0  0  0  0  0  0  0  0  0  0  0  0
   57.8170   26.1360   42.9250 C   0  0  0  0  0  0  0  0  0  0  0  0
   58.5260   27.4350   43.3260 C   0  0  0  0  0  0  0  0  0  0  0  0
   57.9057   30.7680   46.3218 H   0  0  0  0  0  0  0  0  0  0  0  0
   58.6225   31.3650   44.7867 H   0  0  0  0  0  0  0  0  0  0  0  0
   56.9831   30.6307   44.7867 H   0  0  0  0  0  0  0  0  0  0  0  0
   60.4068   26.4626   46.2708 H   0  0  0  0  0  0  0  0  0  0  0  0
   60.6794   25.6768   48.6209 H   0  0  0  0  0  0  0  0  0  0  0  0
   60.7347   32.6174   51.9607 H   0  0  0  0  0  0  0  0  0  0  0  0
   61.5938   34.0538   51.2547 H   0  0  0  0  0  0  0  0  0  0  0  0
   58.9320   33.8513   51.1779 H   0  0  0  0  0  0  0  0  0  0  0  0
   59.8791   34.5610   49.8147 H   0  0  0  0  0  0  0  0  0  0  0  0
   59.3951   31.5922   49.8340 H   0  0  0  0  0  0  0  0  0  0  0  0
   58.0292   32.7255   49.3998 H   0  0  0  0  0  0  0  0  0  0  0  0
   59.4010   31.7696   47.4815 H   0  0  0  0  0  0  0  0  0  0  0  0
   59.1699   33.6112   47.6061 H   0  0  0  0  0  0  0  0  0  0  0  0
   60.8004   33.6403   45.7878 H   0  0  0  0  0  0  0  0  0  0  0  0
   63.1752   34.2406   45.3713 H   0  0  0  0  0  0  0  0  0  0  0  0
   64.8919   33.8740   47.1405 H   0  0  0  0  0  0  0  0  0  0  0  0
   64.2340   32.8761   49.3255 H   0  0  0  0  0  0  0  0  0  0  0  0
   60.3154   30.5606   47.6571 H   0  0  0  0  0  0  0  0  0  0  0  0
   56.8600   28.5833   43.9887 H   0  0  0  0  0  0  0  0  0  0  0  0
   57.5515   27.6205   46.5407 H   0  0  0  0  0  0  0  0  0  0  0  0
   56.1587   27.1426   45.4637 H   0  0  0  0  0  0  0  0  0  0  0  0
   58.8823   25.7913   45.6843 H   0  0  0  0  0  0  0  0  0  0  0  0
   57.2685   25.1316   46.1532 H   0  0  0  0  0  0  0  0  0  0  0  0
   58.1534   23.5279   45.6173 H   0  0  0  0  0  0  0  0  0  0  0  0
   56.8539   20.9911   45.8280 H   0  0  0  0  0  0  0  0  0  0  0  0
   55.9482   21.2682   44.5938 H   0  0  0  0  0  0  0  0  0  0  0  0
   59.1720   21.0247   44.6169 H   0  0  0  0  0  0  0  0  0  0  0  0
   58.6691   21.3078   43.1716 H   0  0  0  0  0  0  0  0  0  0  0  0
   58.4291   25.6092   42.1781 H   0  0  0  0  0  0  0  0  0  0  0  0
   56.8314   26.3917   42.5088 H   0  0  0  0  0  0  0  0  0  0  0  0
   59.5410   27.1965   43.6766 H   0  0  0  0  0  0  0  0  0  0  0  0
   58.5649   28.0964   42.4479 H   0  0  0  0  0  0  0  0  0  0  0  0
  1  2  1  0
  2  3  1  0
  3  4  2  0
  3  5  1  0
  5  6  2  0
  6  7  1  0
  7  8  2  0
  8  9  1  0
  8 10  1  0
 10 11  1  0
 11 12  1  0
 12 13  2  0
 12 14  1  0
 14 15  1  0
 15 16  1  0
 16 17  1  0
 17 18  1  0
 18 19  1  0
 19 20  2  0
 20 21  1  0
 21 22  2  0
 22 23  1  0
 23 24  2  0
 10 25  2  0
  2 26  1  0
 26 27  1  0
 27 28  1  0
 28 29  1  0
 29 30  1  0
 30 31  2  0
 30 32  1  0
 32 33  1  0
 33 34  1  0
 29 35  1  0
 35 36  1  0
 25  5  1  0
 36 26  1  0
 24 14  1  0
 34 32  1  0
 24 19  1  0
  1 37  1  0
  1 38  1  0
  1 39  1  0
  6 40  1  0
  7 41  1  0
 15 42  1  0
 15 43  1  0
 16 44  1  0
 16 45  1  0
 17 46  1  0
 17 47  1  0
 18 48  1  0
 18 49  1  0
 20 50  1  0
 21 51  1  0
 22 52  1  0
 23 53  1  0
 25 54  1  0
 26 55  1  0
 27 56  1  0
 27 57  1  0
 28 58  1  0
 28 59  1  0
 32 60  1  0
 33 61  1  0
 33 62  1  0
 34 63  1  0
 34 64  1  0
 35 65  1  0
 35 66  1  0
 36 67  1  0
 36 68  1  0
M  CHG  1  11  -1
M  END
>  <UniqueID>  (65) 
61

>  <SMILES>  (65) 
CN(C(=O)c1ccc(Cl)c([N-]C(=O)N2CCCCc3ccccc32)c1)C1CCN(C(=O)C2CC2)CC1

>  <Energy>  (65) 
362.3452555763134

>  <Genealogy>  (65) 
CN(C(=O)c1ccc(Cl)c([N-]C(=O)N2CCCCc3ccccc32)c1)C1CCN(C(=O)C2CC2)CC1 (protonated)
CN(C(=O)c1ccc(Cl)c([N-]C(=O)N2CCCCc3ccccc32)c1)C1CCN(C(=O)C2CC2)CC1 (3D coordinates assigned)
CN(C(=O)c1ccc(Cl)c([N-]C(=O)N2CCCCc3ccccc32)c1)C1CCN(C(=O)C2CC2)CC1 (nonaromatic ring conformer: 362.3452555763134 kcal/mol)

>  <smiles>  (65) 
CN(C(=O)c1ccc(Cl)c(NC(=O)N2CCCCc3ccccc32)c1)C1CCN(C(=O)C2CC2)CC1

>  <score_type>  (65) 
oracle

>  <origin>  (65) 
adg

>  <m_score__min__energy>  (65) 
-8.5099999999999998

>  <m_primary>  (65) 
energy

$$$$
65:0
     RDKit          3D

 52 54  0  0  0  0  0  0  0  0999 V2000
   55.5220   28.9580   44.9130 N   0  0  0  0  0  0  0  0  0  0  0  0
   56.6760   30.1210   44.3590 S   0  0  0  0  0  0  0  0  0  0  0  0
   56.2420   31.4810   44.8300 O   0  0  0  0  0  0  0  0  0  0  0  0
   56.7230   30.1130   42.8580 O   0  0  0  0  0  0  0  0  0  0  0  0
   58.2780   29.7430   45.0020 C   0  0  0  0  0  0  0  0  0  0  0  0
   59.0130   28.6890   44.4340 C   0  0  0  0  0  0  0  0  0  0  0  0
   60.2910   28.3800   44.9080 C   0  0  0  0  0  0  0  0  0  0  0  0
   60.8470   29.1200   45.9510 C   0  0  0  0  0  0  0  0  0  0  0  0
   60.1250   30.1660   46.5300 C   0  0  0  0  0  0  0  0  0  0  0  0
   58.8380   30.4760   46.0710 C   0  0  0  0  0  0  0  0  0  0  0  0
   58.1220   31.5420   46.6960 N   0  0  0  0  0  0  0  0  0  0  0  0
   58.6190   33.1920   46.5260 S   0  0  0  0  0  0  0  0  0  0  0  0
   58.4800   33.5820   45.0820 O   0  0  0  0  0  0  0  0  0  0  0  0
   57.7330   34.0680   47.3690 O   0  0  0  0  0  0  0  0  0  0  0  0
   60.2980   33.3890   47.0520 C   0  0  0  0  0  0  0  0  0  0  0  0
   61.2930   33.5470   46.0720 C   0  0  0  0  0  0  0  0  0  0  0  0
   62.6230   33.7600   46.4350 C   0  0  0  0  0  0  0  0  0  0  0  0
   62.9790   33.8210   47.7800 C   0  0  0  0  0  0  0  0  0  0  0  0
   62.0080   33.6600   48.7690 C   0  0  0  0  0  0  0  0  0  0  0  0
   60.6630   33.4340   48.4240 C   0  0  0  0  0  0  0  0  0  0  0  0
   59.6830   33.2300   49.5140 C   0  0  0  0  0  0  0  0  0  0  0  0
   59.6170   34.0590   50.4620 O   0  0  0  0  0  0  0  0  0  0  0  0
   58.7840   32.1130   49.4790 N   0  0  0  0  0  0  0  0  0  0  0  0
   57.7500   31.9360   50.4990 C   0  0  0  0  0  0  0  0  0  0  0  0
   58.0540   30.7340   51.4000 C   0  0  0  0  0  0  0  0  0  0  0  0
   56.8200   29.9970   51.7460 N   0  0  0  0  0  0  0  0  0  0  0  0
   56.9810   29.2430   52.9900 C   0  0  0  0  0  0  0  0  0  0  0  0
   55.5900   29.0570   53.5650 C   0  0  0  0  0  0  0  0  0  0  0  0
   54.7710   30.2020   52.9960 C   0  0  0  0  0  0  0  0  0  0  0  0
   55.6690   30.8820   51.9700 C   0  0  0  0  0  0  0  0  0  0  0  0
   54.6650   29.4880   45.1890 H   0  0  0  0  0  0  0  0  0  0  0  0
   58.5796   28.1027   43.6103 H   0  0  0  0  0  0  0  0  0  0  0  0
   60.8588   27.5523   44.4579 H   0  0  0  0  0  0  0  0  0  0  0  0
   61.8556   28.8796   46.3182 H   0  0  0  0  0  0  0  0  0  0  0  0
   60.5689   30.7492   47.3503 H   0  0  0  0  0  0  0  0  0  0  0  0
   61.0201   33.5022   45.0073 H   0  0  0  0  0  0  0  0  0  0  0  0
   63.3919   33.8800   45.6575 H   0  0  0  0  0  0  0  0  0  0  0  0
   64.0274   33.9964   48.0631 H   0  0  0  0  0  0  0  0  0  0  0  0
   62.2971   33.7103   49.8291 H   0  0  0  0  0  0  0  0  0  0  0  0
   58.8930   31.4030   48.7200 H   0  0  0  0  0  0  0  0  0  0  0  0
   57.6989   32.8437   51.1182 H   0  0  0  0  0  0  0  0  0  0  0  0
   56.7907   31.7551   49.9921 H   0  0  0  0  0  0  0  0  0  0  0  0
   58.7408   30.0555   50.8728 H   0  0  0  0  0  0  0  0  0  0  0  0
   58.5103   31.1036   52.3302 H   0  0  0  0  0  0  0  0  0  0  0  0
   57.4410   28.2651   52.7847 H   0  0  0  0  0  0  0  0  0  0  0  0
   57.6348   29.7760   53.6960 H   0  0  0  0  0  0  0  0  0  0  0  0
   55.1696   28.0893   53.2537 H   0  0  0  0  0  0  0  0  0  0  0  0
   55.5947   29.0601   54.6650 H   0  0  0  0  0  0  0  0  0  0  0  0
   53.8596   29.8189   52.5138 H   0  0  0  0  0  0  0  0  0  0  0  0
   54.4508   30.9017   53.7821 H   0  0  0  0  0  0  0  0  0  0  0  0
   55.1198   31.0316   51.0287 H   0  0  0  0  0  0  0  0  0  0  0  0
   55.9985   31.8673   52.3314 H   0  0  0  0  0  0  0  0  0  0  0  0
  1  2  1  0
  2  3  2  0
  2  4  2  0
  2  5  1  0
  5  6  2  0
  6  7  1  0
  7  8  2  0
  8  9  1  0
  9 10  2  0
 10 11  1  0
 11 12  1  0
 12 13  2  0
 12 14  2  0
 12 15  1  0
 15 16  2  0
 16 17  1  0
 17 18  2  0
 18 19  1  0
 19 20  2  0
 20 21  1  0
 21 22  2  0
 21 23  1  0
 23 24  1  0
 24 25  1  0
 25 26  1  0
 26 27  1  0
 27 28  1  0
 28 29  1  0
 29 30  1  0
 10  5  1  0
 20 15  1  0
 30 26  1  0
  1 31  1  0
  6 32  1  0
  7 33  1  0
  8 34  1  0
  9 35  1  0
 16 36  1  0
 17 37  1  0
 18 38  1  0
 19 39  1  0
 23 40  1  0
 24 41  1  0
 24 42  1  0
 25 43  1  0
 25 44  1  0
 27 45  1  0
 27 46  1  0
 28 47  1  0
 28 48  1  0
 29 49  1  0
 29 50  1  0
 30 51  1  0
 30 52  1  0
M  CHG  2   1  -1  11  -1
M  END
>  <UniqueID>  (66) 
62

>  <SMILES>  (66) 
[NH-]S(=O)(=O)c1ccccc1[N-]S(=O)(=O)c1ccccc1C(=O)NCCN1CCCC1

>  <Energy>  (66) 
68.78026553388506

>  <Genealogy>  (66) 
[NH-]S(=O)(=O)c1ccccc1[N-]S(=O)(=O)c1ccccc1C(=O)NCCN1CCCC1 (protonated)
[NH-]S(=O)(=O)c1ccccc1[N-]S(=O)(=O)c1ccccc1C(=O)NCCN1CCCC1 (3D coordinates assigned)
[NH-]S(=O)(=O)c1ccccc1[N-]S(=O)(=O)c1ccccc1C(=O)NCCN1CCCC1 (nonaromatic ring conformer: 68.78026553388506 kcal/mol)

>  <smiles>  (66) 
NS(=O)(=O)c1ccccc1NS(=O)(=O)c1ccccc1C(=O)NCCN1CCCC1

>  <score_type>  (66) 
oracle

>  <origin>  (66) 
adg

>  <m_score__min__energy>  (66) 
-13.119999999999999

>  <m_primary>  (66) 
energy

$$$$
66:0
     RDKit          3D

 53 56  0  0  0  0  0  0  0  0999 V2000
   65.4890   33.1720   51.8420 C   0  0  0  0  0  0  0  0  0  0  0  0
   65.4250   32.9870   50.3560 C   0  0  0  0  0  0  0  0  0  0  0  0
   66.4970   33.0550   49.6950 O   0  0  0  0  0  0  0  0  0  0  0  0
   64.1730   32.7170   49.6840 N   0  0  0  0  0  0  0  0  0  0  0  0
   64.1130   32.7050   48.2120 C   0  0  0  0  0  0  0  0  0  0  0  0
   62.8080   33.3460   47.7180 C   0  0  0  0  0  0  0  0  0  0  0  0
   61.6440   32.8880   48.4940 N   0  0  0  0  0  0  0  0  0  0  0  0
   60.3830   33.5710   48.3550 C   0  0  0  0  0  0  0  0  0  0  0  0
   59.7330   33.8890   49.3880 O   0  0  0  0  0  0  0  0  0  0  0  0
   59.8410   33.9250   47.0250 C   0  0  0  0  0  0  0  0  0  0  0  0
   60.0120   35.2230   46.5160 C   0  0  0  0  0  0  0  0  0  0  0  0
   59.4890   35.5660   45.2680 C   0  0  0  0  0  0  0  0  0  0  0  0
   58.7890   34.6210   44.5160 C   0  0  0  0  0  0  0  0  0  0  0  0
   58.6110   33.3160   45.0070 C   0  0  0  0  0  0  0  0  0  0  0  0
   57.8630   32.3370   44.2660 N   0  0  0  0  0  0  0  0  0  0  0  0
   57.7010   30.9640   44.6620 C   0  0  0  0  0  0  0  0  0  0  0  0
   56.4750   30.3230   44.4380 C   0  0  0  0  0  0  0  0  0  0  0  0
   56.2800   29.0010   44.8500 C   0  0  0  0  0  0  0  0  0  0  0  0
   57.3020   28.3050   45.5140 C   0  0  0  0  0  0  0  0  0  0  0  0
   57.0950   26.9420   45.9280 N   0  0  0  0  0  0  0  0  0  0  0  0
   55.9020   26.3350   46.0680 C   0  0  0  0  0  0  0  0  0  0  0  0
   56.1380   25.0470   46.4900 C   0  0  0  0  0  0  0  0  0  0  0  0
   55.1650   24.0870   46.7480 O   0  0  0  0  0  0  0  0  0  0  0  0
   57.4580   24.8260   46.6330 N   0  0  0  0  0  0  0  0  0  0  0  0
   58.0130   26.0060   46.2780 C   0  0  0  0  0  0  0  0  0  0  0  0
   59.6260   26.2770   46.3900 S   0  0  0  0  0  0  0  0  0  0  0  0
   58.5310   28.9460   45.7410 C   0  0  0  0  0  0  0  0  0  0  0  0
   58.7250   30.2680   45.3310 C   0  0  0  0  0  0  0  0  0  0  0  0
   59.1150   32.9850   46.2740 C   0  0  0  0  0  0  0  0  0  0  0  0
   61.8300   31.9000   49.5620 C   0  0  0  0  0  0  0  0  0  0  0  0
   62.9860   32.3310   50.4680 C   0  0  0  0  0  0  0  0  0  0  0  0
   65.1685   32.2455   52.3410 H   0  0  0  0  0  0  0  0  0  0  0  0
   66.5215   33.4095   52.1378 H   0  0  0  0  0  0  0  0  0  0  0  0
   64.8239   33.9967   52.1378 H   0  0  0  0  0  0  0  0  0  0  0  0
   64.9674   33.2699   47.8109 H   0  0  0  0  0  0  0  0  0  0  0  0
   64.1490   31.6619   47.8645 H   0  0  0  0  0  0  0  0  0  0  0  0
   62.8906   34.4388   47.8121 H   0  0  0  0  0  0  0  0  0  0  0  0
   62.6575   33.0488   46.6697 H   0  0  0  0  0  0  0  0  0  0  0  0
   60.5610   35.9732   47.1040 H   0  0  0  0  0  0  0  0  0  0  0  0
   59.6289   36.5842   44.8759 H   0  0  0  0  0  0  0  0  0  0  0  0
   58.3751   34.8986   43.5354 H   0  0  0  0  0  0  0  0  0  0  0  0
   57.3880   32.6510   43.3880 H   0  0  0  0  0  0  0  0  0  0  0  0
   55.6602   30.8638   43.9344 H   0  0  0  0  0  0  0  0  0  0  0  0
   55.3192   28.5032   44.6523 H   0  0  0  0  0  0  0  0  0  0  0  0
   54.9170   26.7867   45.8793 H   0  0  0  0  0  0  0  0  0  0  0  0
   55.4230   23.1510   47.0360 H   0  0  0  0  0  0  0  0  0  0  0  0
   59.3455   28.4044   46.2443 H   0  0  0  0  0  0  0  0  0  0  0  0
   59.6841   30.7676   45.5325 H   0  0  0  0  0  0  0  0  0  0  0  0
   58.9400   31.9792   46.6836 H   0  0  0  0  0  0  0  0  0  0  0  0
   60.9075   31.8262   50.1565 H   0  0  0  0  0  0  0  0  0  0  0  0
   62.0617   30.9213   49.1165 H   0  0  0  0  0  0  0  0  0  0  0  0
   62.6635   33.1902   51.0744 H   0  0  0  0  0  0  0  0  0  0  0  0
   63.2580   31.4791   51.1086 H   0  0  0  0  0  0  0  0  0  0  0  0
  1  2  1  0
  2  3  2  0
  2  4  1  0
  4  5  1  0
  5  6  1  0
  6  7  1  0
  7  8  1  0
  8  9  2  0
  8 10  1  0
 10 11  2  0
 11 12  1  0
 12 13  2  0
 13 14  1  0
 14 15  1  0
 15 16  1  0
 16 17  2  0
 17 18  1  0
 18 19  2  0
 19 20  1  0
 20 21  1  0
 21 22  2  0
 22 23  1  0
 22 24  1  0
 24 25  1  0
 25 26  2  0
 19 27  1  0
 27 28  2  0
 14 29  2  0
  7 30  1  0
 30 31  1  0
 31  4  1  0
 29 10  1  0
 28 16  1  0
 25 20  1  0
  1 32  1  0
  1 33  1  0
  1 34  1  0
  5 35  1  0
  5 36  1  0
  6 37  1  0
  6 38  1  0
 11 39  1  0
 12 40  1  0
 13 41  1  0
 15 42  1  0
 17 43  1  0
 18 44  1  0
 21 45  1  0
 23 46  1  0
 27 47  1  0
 28 48  1  0
 29 49  1  0
 30 50  1  0
 30 51  1  0
 31 52  1  0
 31 53  1  0
M  CHG  1  24  -1
M  END
>  <UniqueID>  (67) 
63

>  <SMILES>  (67) 
CC(=O)N1CCN(C(=O)c2cccc(Nc3ccc(-n4cc(O)[n-]c4=S)cc3)c2)CC1

>  <Energy>  (67) 
103.03397709221376

>  <Genealogy>  (67) 
CC(=O)N1CCN(C(=O)c2cccc(Nc3ccc(-n4cc(O)[n-]c4=S)cc3)c2)CC1 (protonated)
CC(=O)N1CCN(C(=O)c2cccc(Nc3ccc(-n4cc(O)[n-]c4=S)cc3)c2)CC1 (3D coordinates assigned)
CC(=O)N1CCN(C(=O)c2cccc(Nc3ccc(-n4cc(O)[n-]c4=S)cc3)c2)CC1 (nonaromatic ring conformer: 103.03397709221376 kcal/mol)

>  <smiles>  (67) 
CC(=O)N1CCN(C(=O)c2cccc(Nc3ccc(-n4cc(O)[nH]c4=S)cc3)c2)CC1

>  <score_type>  (67) 
oracle

>  <origin>  (67) 
adg

>  <m_score__min__energy>  (67) 
-10.289999999999999

>  <m_primary>  (67) 
energy

$$$$
67:0
     RDKit          3D

 53 55  0  0  0  0  0  0  0  0999 V2000
   59.9894   28.4273   48.0924 H   0  0  0  0  0  0  0  0  0  0  0  0
   60.0260   29.5190   48.2220 C   0  0  0  0  0  0  0  0  0  0  0  0
   58.8910   30.2090   48.6590 C   0  0  0  0  0  0  0  0  0  0  0  0
   57.9630   29.6587   48.8736 H   0  0  0  0  0  0  0  0  0  0  0  0
   58.9330   31.5980   48.8240 C   0  0  0  0  0  0  0  0  0  0  0  0
   58.0435   32.1379   49.1809 H   0  0  0  0  0  0  0  0  0  0  0  0
   60.1130   32.3010   48.5330 C   0  0  0  0  0  0  0  0  0  0  0  0
   61.2480   31.6100   48.0970 C   0  0  0  0  0  0  0  0  0  0  0  0
   61.2100   30.2170   47.9490 C   0  0  0  0  0  0  0  0  0  0  0  0
   62.1073   29.6729   47.6194 H   0  0  0  0  0  0  0  0  0  0  0  0
   62.4880   32.4070   47.8290 C   0  0  0  0  0  0  0  0  0  0  0  0
   63.1892   31.8045   47.2330 H   0  0  0  0  0  0  0  0  0  0  0  0
   62.9599   32.6822   48.7837 H   0  0  0  0  0  0  0  0  0  0  0  0
   62.1200   33.6860   47.0510 C   0  0  0  0  0  0  0  0  0  0  0  0
   61.8817   33.4009   46.0156 H   0  0  0  0  0  0  0  0  0  0  0  0
   62.9889   34.3565   47.1255 H   0  0  0  0  0  0  0  0  0  0  0  0
   60.9520   34.4420   47.6080 N   0  0  1  0  0  0  0  0  0  0  0  0
   61.3340   35.3380   47.9960 H   0  0  0  0  0  0  0  0  0  0  0  0
   60.0230   34.7860   46.5470 C   0  0  0  0  0  0  0  0  0  0  0  0
   60.0060   35.9570   46.0750 O   0  0  0  0  0  0  0  0  0  0  0  0
   59.0350   33.8050   46.0580 C   0  0  0  0  0  0  0  0  0  0  0  0
   57.6720   34.1390   46.0390 C   0  0  0  0  0  0  0  0  0  0  0  0
   57.3495   35.1440   46.3490 H   0  0  0  0  0  0  0  0  0  0  0  0
   56.7240   33.2000   45.6280 C   0  0  0  0  0  0  0  0  0  0  0  0
   55.6531   33.4470   45.6756 H   0  0  0  0  0  0  0  0  0  0  0  0
   57.1310   31.9390   45.1530 C   0  0  0  0  0  0  0  0  0  0  0  0
   56.1870   30.9430   44.7320 N   0  0  0  0  0  0  0  0  0  0  0  0
   56.4110   29.7780   43.9180 C   0  0  0  0  0  0  0  0  0  0  0  0
   55.6050   29.5370   42.9770 O   0  0  0  0  0  0  0  0  0  0  0  0
   57.4890   28.7700   44.2210 C   0  0  0  0  0  0  0  0  0  0  0  0
   58.4723   29.2504   44.1104 H   0  0  0  0  0  0  0  0  0  0  0  0
   57.3904   27.9290   43.5189 H   0  0  0  0  0  0  0  0  0  0  0  0
   57.3510   28.2320   45.6520 C   0  0  0  0  0  0  0  0  0  0  0  0
   56.5779   28.8101   46.1793 H   0  0  0  0  0  0  0  0  0  0  0  0
   58.3234   28.3326   46.1562 H   0  0  0  0  0  0  0  0  0  0  0  0
   56.9630   26.7790   45.6540 C   0  0  0  0  0  0  0  0  0  0  0  0
   56.0080   26.3800   46.4410 N   0  0  0  0  0  0  0  0  0  0  0  0
   54.7310   26.1500   45.9770 O   0  0  0  0  0  0  0  0  0  0  0  0
   54.3290   24.8420   45.6120 C   0  0  0  0  0  0  0  0  0  0  0  0
   54.1464   24.2479   46.5196 H   0  0  0  0  0  0  0  0  0  0  0  0
   53.4057   24.8950   45.0165 H   0  0  0  0  0  0  0  0  0  0  0  0
   55.1227   24.3672   45.0165 H   0  0  0  0  0  0  0  0  0  0  0  0
   57.6660   25.8060   44.7500 C   0  0  0  0  0  0  0  0  0  0  0  0
   58.2029   25.0629   45.3579 H   0  0  0  0  0  0  0  0  0  0  0  0
   56.9268   25.2954   44.1152 H   0  0  0  0  0  0  0  0  0  0  0  0
   58.3829   26.3474   44.1152 H   0  0  0  0  0  0  0  0  0  0  0  0
   58.4910   31.6040   45.1870 C   0  0  0  0  0  0  0  0  0  0  0  0
   58.8171   30.6078   44.8536 H   0  0  0  0  0  0  0  0  0  0  0  0
   59.4360   32.5280   45.6420 C   0  0  0  0  0  0  0  0  0  0  0  0
   60.5002   32.2514   45.6738 H   0  0  0  0  0  0  0  0  0  0  0  0
   60.2290   33.7870   48.7330 C   0  0  0  0  0  0  0  0  0  0  0  0
   59.2188   34.2164   48.8050 H   0  0  0  0  0  0  0  0  0  0  0  0
   60.8008   33.9640   49.6559 H   0  0  0  0  0  0  0  0  0  0  0  0
  1  2  1  0
  2  3  2  0
  3  4  1  0
  3  5  1  0
  5  6  1  0
  5  7  2  0
  7  8  1  0
  8  9  2  0
  9 10  1  0
  8 11  1  0
 11 12  1  0
 11 13  1  0
 11 14  1  0
 14 15  1  0
 14 16  1  0
 14 17  1  0
 17 18  1  1
 17 19  1  0
 19 20  2  0
 19 21  1  0
 21 22  2  0
 22 23  1  0
 22 24  1  0
 24 25  1  0
 24 26  2  0
 26 27  1  0
 27 28  1  0
 28 29  2  0
 28 30  1  0
 30 31  1  0
 30 32  1  0
 30 33  1  0
 33 34  1  0
 33 35  1  0
 33 36  1  0
 36 37  2  0
 37 38  1  0
 38 39  1  0
 39 40  1  0
 39 41  1  0
 39 42  1  0
 36 43  1  0
 43 44  1  0
 43 45  1  0
 43 46  1  0
 26 47  1  0
 47 48  1  0
 47 49  2  0
 49 50  1  0
 17 51  1  0
 51 52  1  0
 51 53  1  0
  9  2  1  0
 49 21  1  0
 51  7  1  0
M  CHG  2  17   1  27  -1
M  END
>  <UniqueID>  (68) 
64

>  <SMILES>  (68) 
CO/N=C(\C)CCC(=O)[N-]c1ccc(C(=O)[N@@H+]2CCc3ccccc3C2)cc1

>  <Energy>  (68) 
68.05613635820697

>  <Genealogy>  (68) 
CON=C(C)CCC(=O)[N-]c1ccc(C(=O)[NH+]2CCc3ccccc3C2)cc1 (protonated)
CON=C(C)CCC(=O)[N-]c1ccc(C(=O)[N@@H+]2CCc3ccccc3C2)cc1 (chirality)
CO/N=C(\C)CCC(=O)[N-]c1ccc(C(=O)[N@@H+]2CCc3ccccc3C2)cc1 (cis-trans isomerization)
CO/N=C(\C)CCC(=O)[N-]c1ccc(C(=O)[N@@H+]2CCc3ccccc3C2)cc1 (3D coordinates assigned)
CO/N=C(\C)CCC(=O)[N-]c1ccc(C(=O)[N@@H+]2CCc3ccccc3C2)cc1 (nonaromatic ring conformer: 68.05613635820697 kcal/mol)

>  <smiles>  (68) 
CON=C(C)CCC(=O)Nc1ccc(C(=O)N2CCc3ccccc3C2)cc1

>  <score_type>  (68) 
oracle

>  <origin>  (68) 
adg

>  <m_score__min__energy>  (68) 
-9.1899999999999995

>  <m_primary>  (68) 
energy

$$$$
68:0
     RDKit          3D

 74 78  0  0  0  0  0  0  0  0999 V2000
   61.3560   26.3160   46.5090 O   0  0  0  0  0  0  0  0  0  0  0  0
   60.4980   27.0060   47.1210 C   0  0  0  0  0  0  0  0  0  0  0  0
   60.9180   27.7760   48.2570 N   0  0  0  0  0  0  0  0  0  0  0  0
   60.2410   28.9220   48.7950 C   0  0  0  0  0  0  0  0  0  0  0  0
   60.1260   30.1190   48.0650 C   0  0  0  0  0  0  0  0  0  0  0  0
   59.4520   31.2140   48.6130 C   0  0  0  0  0  0  0  0  0  0  0  0
   58.8690   31.1180   49.8780 C   0  0  0  0  0  0  0  0  0  0  0  0
   58.9570   29.9220   50.6050 C   0  0  0  0  0  0  0  0  0  0  0  0
   58.1790   29.8010   52.1800 S   0  0  0  0  0  0  0  0  0  0  0  0
   58.6140   28.5170   52.8340 O   0  0  0  0  0  0  0  0  0  0  0  0
   56.6840   29.7690   52.0140 O   0  0  0  0  0  0  0  0  0  0  0  0
   58.6370   31.1630   53.1760 N   0  0  0  0  0  0  0  0  0  0  0  0
   59.9740   31.6590   52.7660 C   0  0  0  0  0  0  0  0  0  0  0  0
   60.2010   33.1100   53.2080 C   0  0  0  0  0  0  0  0  0  0  0  0
   59.1910   34.0500   52.5310 C   0  0  0  0  0  0  0  0  0  0  0  0
   57.8550   33.3540   52.2030 C   0  0  0  0  0  0  0  0  0  0  0  0
   57.5710   32.2010   53.1800 C   0  0  0  0  0  0  0  0  0  0  0  0
   59.6340   28.8240   50.0530 C   0  0  0  0  0  0  0  0  0  0  0  0
   59.1010   27.0290   46.6330 C   0  0  0  0  0  0  0  0  0  0  0  0
   58.2740   25.9020   46.7690 C   0  0  0  0  0  0  0  0  0  0  0  0
   56.9630   25.9270   46.2870 C   0  0  0  0  0  0  0  0  0  0  0  0
   56.4650   27.0760   45.6650 C   0  0  0  0  0  0  0  0  0  0  0  0
   57.2770   28.2100   45.5300 C   0  0  0  0  0  0  0  0  0  0  0  0
   56.6560   29.6610   44.7420 S   0  0  0  0  0  0  0  0  0  0  0  0
   56.9990   29.6130   43.2790 O   0  0  0  0  0  0  0  0  0  0  0  0
   55.1580   29.6910   44.8640 O   0  0  0  0  0  0  0  0  0  0  0  0
   57.3320   31.1150   45.4360 N   0  0  0  0  0  0  0  0  0  0  0  0
   58.7830   31.1740   45.1920 C   0  0  0  0  0  0  0  0  0  0  0  0
   59.3750   32.5110   45.6840 C   0  0  0  0  0  0  0  0  0  0  0  0
   58.3630   33.2930   46.4230 N   0  0  0  0  0  0  0  0  0  0  0  0
   58.9390   34.5480   46.9510 C   0  0  0  0  0  0  0  0  0  0  0  0
   60.2130   34.2610   47.6990 C   0  0  0  0  0  0  0  0  0  0  0  0
   60.1960   34.1640   49.1000 C   0  0  0  0  0  0  0  0  0  0  0  0
   61.3730   33.8830   49.8030 C   0  0  0  0  0  0  0  0  0  0  0  0
   62.5730   33.7000   49.1100 C   0  0  0  0  0  0  0  0  0  0  0  0
   62.5970   33.7920   47.7140 C   0  0  0  0  0  0  0  0  0  0  0  0
   61.4220   34.0690   47.0090 C   0  0  0  0  0  0  0  0  0  0  0  0
   57.2060   33.5840   45.5510 C   0  0  0  0  0  0  0  0  0  0  0  0
   56.6740   32.3040   44.8750 C   0  0  0  0  0  0  0  0  0  0  0  0
   58.5880   28.1850   46.0230 C   0  0  0  0  0  0  0  0  0  0  0  0
   60.5677   30.1934   47.0603 H   0  0  0  0  0  0  0  0  0  0  0  0
   59.3807   32.1540   48.0461 H   0  0  0  0  0  0  0  0  0  0  0  0
   58.3395   31.9823   50.3053 H   0  0  0  0  0  0  0  0  0  0  0  0
   58.7220   30.7950   54.1540 H   0  0  0  0  0  0  0  0  0  0  0  0
   60.7459   31.0223   53.2229 H   0  0  0  0  0  0  0  0  0  0  0  0
   60.0315   31.6221   51.6681 H   0  0  0  0  0  0  0  0  0  0  0  0
   60.0814   33.1776   54.2994 H   0  0  0  0  0  0  0  0  0  0  0  0
   61.2169   33.4134   52.9151 H   0  0  0  0  0  0  0  0  0  0  0  0
   58.9907   34.8954   53.2056 H   0  0  0  0  0  0  0  0  0  0  0  0
   59.6335   34.3828   51.5805 H   0  0  0  0  0  0  0  0  0  0  0  0
   57.0409   34.0906   52.2717 H   0  0  0  0  0  0  0  0  0  0  0  0
   57.9200   32.9394   51.1862 H   0  0  0  0  0  0  0  0  0  0  0  0
   57.4874   32.6143   54.1960 H   0  0  0  0  0  0  0  0  0  0  0  0
   56.6376   31.7169   52.8570 H   0  0  0  0  0  0  0  0  0  0  0  0
   59.6883   27.8787   50.6129 H   0  0  0  0  0  0  0  0  0  0  0  0
   58.6604   24.9953   47.2574 H   0  0  0  0  0  0  0  0  0  0  0  0
   56.3210   25.0406   46.3971 H   0  0  0  0  0  0  0  0  0  0  0  0
   55.4343   27.0897   45.2811 H   0  0  0  0  0  0  0  0  0  0  0  0
   59.2713   30.3463   45.7273 H   0  0  0  0  0  0  0  0  0  0  0  0
   58.9589   31.0914   44.1093 H   0  0  0  0  0  0  0  0  0  0  0  0
   60.2273   32.3052   46.3483 H   0  0  0  0  0  0  0  0  0  0  0  0
   59.7021   33.0942   44.8105 H   0  0  0  0  0  0  0  0  0  0  0  0
   59.1544   35.2291   46.1145 H   0  0  0  0  0  0  0  0  0  0  0  0
   58.2167   35.0133   47.6378 H   0  0  0  0  0  0  0  0  0  0  0  0
   59.2530   34.3096   49.6473 H   0  0  0  0  0  0  0  0  0  0  0  0
   61.3538   33.8062   50.9001 H   0  0  0  0  0  0  0  0  0  0  0  0
   63.4992   33.4835   49.6625 H   0  0  0  0  0  0  0  0  0  0  0  0
   63.5421   33.6461   47.1703 H   0  0  0  0  0  0  0  0  0  0  0  0
   61.4439   34.1368   45.9113 H   0  0  0  0  0  0  0  0  0  0  0  0
   56.4033   34.0281   46.1580 H   0  0  0  0  0  0  0  0  0  0  0  0
   57.5321   34.2806   44.7646 H   0  0  0  0  0  0  0  0  0  0  0  0
   55.5893   32.2303   45.0420 H   0  0  0  0  0  0  0  0  0  0  0  0
   56.8887   32.3548   43.7974 H   0  0  0  0  0  0  0  0  0  0  0  0
   59.2216   29.0795   45.9314 H   0  0  0  0  0  0  0  0  0  0  0  0
  1  2  2  0
  2  3  1  0
  3  4  1  0
  4  5  2  0
  5  6  1  0
  6  7  2  0
  7  8  1  0
  8  9  1  0
  9 10  2  0
  9 11  2  0
  9 12  1  0
 12 13  1  0
 13 14  1  0
 14 15  1  0
 15 16  1  0
 16 17  1  0
  8 18  2  0
  2 19  1  0
 19 20  2  0
 20 21  1  0
 21 22  2  0
 22 23  1  0
 23 24  1  0
 24 25  2  0
 24 26  2  0
 24 27  1  0
 27 28  1  0
 28 29  1  0
 29 30  1  0
 30 31  1  0
 31 32  1  0
 32 33  2  0
 33 34  1  0
 34 35  2  0
 35 36  1  0
 36 37  2  0
 30 38  1  0
 38 39  1  0
 23 40  2  0
 18  4  1  0
 40 19  1  0
 17 12  1  0
 39 27  1  0
 37 32  1  0
  5 41  1  0
  6 42  1  0
  7 43  1  0
 12 44  1  0
 13 45  1  0
 13 46  1  0
 14 47  1  0
 14 48  1  0
 15 49  1  0
 15 50  1  0
 16 51  1  0
 16 52  1  0
 17 53  1  0
 17 54  1  0
 18 55  1  0
 20 56  1  0
 21 57  1  0
 22 58  1  0
 28 59  1  0
 28 60  1  0
 29 61  1  0
 29 62  1  0
 31 63  1  0
 31 64  1  0
 33 65  1  0
 34 66  1  0
 35 67  1  0
 36 68  1  0
 37 69  1  0
 38 70  1  0
 38 71  1  0
 39 72  1  0
 39 73  1  0
 40 74  1  0
M  CHG  2   3  -1  12   1
M  END
>  <UniqueID>  (69) 
65

>  <SMILES>  (69) 
O=C([N-]c1cccc(S(=O)(=O)[NH+]2CCCCC2)c1)c1cccc(S(=O)(=O)N2CCN(Cc3ccccc3)CC2)c1

>  <Energy>  (69) 
95.93710461803187

>  <Genealogy>  (69) 
O=C([N-]c1cccc(S(=O)(=O)[NH+]2CCCCC2)c1)c1cccc(S(=O)(=O)N2CCN(Cc3ccccc3)CC2)c1 (protonated)
O=C([N-]c1cccc(S(=O)(=O)[NH+]2CCCCC2)c1)c1cccc(S(=O)(=O)N2CCN(Cc3ccccc3)CC2)c1 (3D coordinates assigned)
O=C([N-]c1cccc(S(=O)(=O)[NH+]2CCCCC2)c1)c1cccc(S(=O)(=O)N2CCN(Cc3ccccc3)CC2)c1 (nonaromatic ring conformer: 95.93710461803187 kcal/mol)

>  <smiles>  (69) 
O=C(Nc1cccc(S(=O)(=O)N2CCCCC2)c1)c1cccc(S(=O)(=O)N2CCN(Cc3ccccc3)CC2)c1

>  <score_type>  (69) 
oracle

>  <origin>  (69) 
adg

>  <m_score__min__energy>  (69) 
-11.83

>  <m_primary>  (69) 
energy

$$$$
69:0
     RDKit          3D

 66 70  0  0  0  0  0  0  0  0999 V2000
   61.1350   33.1530   51.7220 C   0  0  0  0  0  0  0  0  0  0  0  0
   61.0760   33.4800   50.4320 C   0  0  0  0  0  0  0  0  0  0  0  0
   59.7580   34.2190   49.6960 S   0  0  0  0  0  0  0  0  0  0  0  0
   60.3990   34.2370   48.1330 C   0  0  0  0  0  0  0  0  0  0  0  0
   59.8120   34.6850   47.0140 C   0  0  0  0  0  0  0  0  0  0  0  0
   59.0980   33.8510   46.0260 C   0  0  0  0  0  0  0  0  0  0  0  0
   58.3300   34.2700   44.9540 C   0  0  0  0  0  0  0  0  0  0  0  0
   57.9160   33.1210   44.3150 C   0  0  0  0  0  0  0  0  0  0  0  0
   58.4600   32.0680   45.0310 C   0  0  0  0  0  0  0  0  0  0  0  0
   58.3140   30.6220   44.7440 C   0  0  0  0  0  0  0  0  0  0  0  0
   57.0700   30.1190   44.3280 C   0  0  0  0  0  0  0  0  0  0  0  0
   56.9080   28.7580   44.0520 C   0  0  0  0  0  0  0  0  0  0  0  0
   57.9840   27.8710   44.1980 C   0  0  0  0  0  0  0  0  0  0  0  0
   57.8080   26.4340   43.8960 C   0  0  0  0  0  0  0  0  0  0  0  0
   57.7770   26.0600   42.6910 O   0  0  0  0  0  0  0  0  0  0  0  0
   57.6510   25.4580   44.9470 N   0  0  0  0  0  0  0  0  0  0  0  0
   58.0910   24.0750   44.7490 C   0  0  0  0  0  0  0  0  0  0  0  0
   56.8810   23.1210   44.7710 C   0  0  0  0  0  0  0  0  0  0  0  0
   55.7900   23.5530   45.6840 N   0  0  0  0  0  0  0  0  0  0  0  0
   54.6290   24.0760   44.9420 C   0  0  0  0  0  0  0  0  0  0  0  0
   56.2370   24.4930   46.7350 C   0  0  0  0  0  0  0  0  0  0  0  0
   56.8490   25.7710   46.1360 C   0  0  0  0  0  0  0  0  0  0  0  0
   59.2330   28.3720   44.5960 C   0  0  0  0  0  0  0  0  0  0  0  0
   59.3970   29.7320   44.8710 C   0  0  0  0  0  0  0  0  0  0  0  0
   59.1620   32.5400   46.0370 O   0  0  0  0  0  0  0  0  0  0  0  0
   61.6610   33.6460   48.1720 C   0  0  0  0  0  0  0  0  0  0  0  0
   62.0460   33.2340   49.4590 C   0  0  0  0  0  0  0  0  0  0  0  0
   63.3140   32.6170   49.7290 N   0  0  0  0  0  0  0  0  0  0  0  0
   64.5100   33.0570   49.0020 C   0  0  0  0  0  0  0  0  0  0  0  0
   65.7590   33.0370   49.9100 C   0  0  0  0  0  0  0  0  0  0  0  0
   65.5680   32.2330   51.1400 N   0  0  0  0  0  0  0  0  0  0  0  0
   66.8680   31.9040   51.7430 C   0  0  0  0  0  0  0  0  0  0  0  0
   64.8030   31.0060   50.8610 C   0  0  0  0  0  0  0  0  0  0  0  0
   63.3580   31.3870   50.5280 C   0  0  0  0  0  0  0  0  0  0  0  0
   62.0370   32.6705   52.1264 H   0  0  0  0  0  0  0  0  0  0  0  0
   60.2817   33.3655   52.3828 H   0  0  0  0  0  0  0  0  0  0  0  0
   59.8668   35.7654   46.8148 H   0  0  0  0  0  0  0  0  0  0  0  0
   58.0976   35.3070   44.6701 H   0  0  0  0  0  0  0  0  0  0  0  0
   57.2822   33.0541   43.4184 H   0  0  0  0  0  0  0  0  0  0  0  0
   56.2152   30.8025   44.2184 H   0  0  0  0  0  0  0  0  0  0  0  0
   55.9301   28.3807   43.7182 H   0  0  0  0  0  0  0  0  0  0  0  0
   58.6011   23.9919   43.7780 H   0  0  0  0  0  0  0  0  0  0  0  0
   58.7796   23.7986   45.5610 H   0  0  0  0  0  0  0  0  0  0  0  0
   56.4735   23.0548   43.7514 H   0  0  0  0  0  0  0  0  0  0  0  0
   57.2448   22.1523   45.1441 H   0  0  0  0  0  0  0  0  0  0  0  0
   53.8641   24.4206   45.6535 H   0  0  0  0  0  0  0  0  0  0  0  0
   54.9471   24.9178   44.3094 H   0  0  0  0  0  0  0  0  0  0  0  0
   54.2093   23.2800   44.3094 H   0  0  0  0  0  0  0  0  0  0  0  0
   55.3725   24.7697   47.3563 H   0  0  0  0  0  0  0  0  0  0  0  0
   57.0110   23.9921   47.3349 H   0  0  0  0  0  0  0  0  0  0  0  0
   56.0395   26.4602   45.8536 H   0  0  0  0  0  0  0  0  0  0  0  0
   57.5023   26.2353   46.8894 H   0  0  0  0  0  0  0  0  0  0  0  0
   60.0896   27.6886   44.6922 H   0  0  0  0  0  0  0  0  0  0  0  0
   60.3798   30.1100   45.1891 H   0  0  0  0  0  0  0  0  0  0  0  0
   62.2938   33.5150   47.2818 H   0  0  0  0  0  0  0  0  0  0  0  0
   64.6775   32.3845   48.1478 H   0  0  0  0  0  0  0  0  0  0  0  0
   64.3471   34.0894   48.6591 H   0  0  0  0  0  0  0  0  0  0  0  0
   66.5993   32.6127   49.3409 H   0  0  0  0  0  0  0  0  0  0  0  0
   65.9558   34.0734   50.2217 H   0  0  0  0  0  0  0  0  0  0  0  0
   66.7799   31.9263   52.8392 H   0  0  0  0  0  0  0  0  0  0  0  0
   67.1780   30.8991   51.4204 H   0  0  0  0  0  0  0  0  0  0  0  0
   67.6187   32.6405   51.4204 H   0  0  0  0  0  0  0  0  0  0  0  0
   65.2516   30.4774   50.0070 H   0  0  0  0  0  0  0  0  0  0  0  0
   64.8211   30.3473   51.7418 H   0  0  0  0  0  0  0  0  0  0  0  0
   62.8919   30.5698   49.9579 H   0  0  0  0  0  0  0  0  0  0  0  0
   62.8129   31.5577   51.4681 H   0  0  0  0  0  0  0  0  0  0  0  0
  1  2  2  0
  2  3  1  0
  3  4  1  0
  4  5  2  3
  5  6  1  0
  6  7  2  0
  7  8  1  0
  8  9  2  0
  9 10  1  0
 10 11  2  0
 11 12  1  0
 12 13  2  0
 13 14  1  0
 14 15  2  0
 14 16  1  0
 16 17  1  0
 17 18  1  0
 18 19  1  0
 19 20  1  0
 19 21  1  0
 21 22  1  0
 13 23  1  0
 23 24  2  0
  9 25  1  0
  4 26  1  0
 26 27  2  0
 27 28  1  0
 28 29  1  0
 29 30  1  0
 30 31  1  0
 31 32  1  0
 31 33  1  0
 33 34  1  0
 27  2  1  0
 34 28  1  0
 25  6  1  0
 24 10  1  0
 22 16  1  0
  1 35  1  0
  1 36  1  0
  5 37  1  0
  7 38  1  0
  8 39  1  0
 11 40  1  0
 12 41  1  0
 17 42  1  0
 17 43  1  0
 18 44  1  0
 18 45  1  0
 20 46  1  0
 20 47  1  0
 20 48  1  0
 21 49  1  0
 21 50  1  0
 22 51  1  0
 22 52  1  0
 23 53  1  0
 24 54  1  0
 26 55  1  0
 29 56  1  0
 29 57  1  0
 30 58  1  0
 30 59  1  0
 32 60  1  0
 32 61  1  0
 32 62  1  0
 33 63  1  0
 33 64  1  0
 34 65  1  0
 34 66  1  0
M  END
>  <UniqueID>  (70) 
66

>  <SMILES>  (70) 
C=c1sc(=Cc2ccc(-c3ccc(C(=O)N4CCN(C)CC4)cc3)o2)cc1N1CCN(C)CC1

>  <Energy>  (70) 
149.37856951274256

>  <Genealogy>  (70) 
C=c1sc(=Cc2ccc(-c3ccc(C(=O)N4CCN(C)CC4)cc3)o2)cc1N1CCN(C)CC1 (3D coordinates assigned)
C=c1sc(=Cc2ccc(-c3ccc(C(=O)N4CCN(C)CC4)cc3)o2)cc1N1CCN(C)CC1 (nonaromatic ring conformer: 149.37856951274256 kcal/mol)

>  <smiles>  (70) 
C=c1sc(=Cc2ccc(-c3ccc(C(=O)N4CCN(C)CC4)cc3)o2)cc1N1CCN(C)CC1

>  <score_type>  (70) 
oracle

>  <origin>  (70) 
adg

>  <m_score__min__energy>  (70) 
-9.8900000000000006

>  <m_primary>  (70) 
energy

$$$$
70:0
     RDKit          3D

 59 61  0  0  0  0  0  0  0  0999 V2000
   56.6540   30.4280   43.2610 C   0  0  0  0  0  0  0  0  0  0  0  0
   57.4880   31.3400   44.1200 C   0  0  0  0  0  0  0  0  0  0  0  0
   57.7690   32.6420   43.6730 C   0  0  0  0  0  0  0  0  0  0  0  0
   58.4780   33.5330   44.4810 C   0  0  0  0  0  0  0  0  0  0  0  0
   58.9170   33.1390   45.7500 C   0  0  0  0  0  0  0  0  0  0  0  0
   59.7570   34.3000   46.7780 S   0  0  0  0  0  0  0  0  0  0  0  0
   60.0390   35.5650   46.0130 O   0  0  0  0  0  0  0  0  0  0  0  0
   58.8730   34.6330   47.9480 O   0  0  0  0  0  0  0  0  0  0  0  0
   61.2520   33.5950   47.3420 N   0  0  0  0  0  0  0  0  0  0  0  0
   62.3380   33.8840   46.3900 C   0  0  0  0  0  0  0  0  0  0  0  0
   63.6150   33.1040   46.7680 C   0  0  0  0  0  0  0  0  0  0  0  0
   63.6130   32.6570   48.2400 C   0  0  0  0  0  0  0  0  0  0  0  0
   63.0010   33.7360   49.1410 C   0  0  0  0  0  0  0  0  0  0  0  0
   61.5780   34.1280   48.6820 C   0  0  0  0  0  0  0  0  0  0  0  0
   58.6600   31.8370   46.1960 C   0  0  0  0  0  0  0  0  0  0  0  0
   57.9730   30.9250   45.3800 C   0  0  0  0  0  0  0  0  0  0  0  0
   57.7430   29.5990   45.8750 N   0  0  0  0  0  0  0  0  0  0  0  0
   58.8070   28.6560   46.0700 C   0  0  0  0  0  0  0  0  0  0  0  0
   59.9870   28.9520   45.7400 O   0  0  0  0  0  0  0  0  0  0  0  0
   58.5360   27.3410   46.7470 C   0  0  0  0  0  0  0  0  0  0  0  0
   57.7690   26.3800   45.8340 C   0  0  0  0  0  0  0  0  0  0  0  0
   56.2850   26.6590   45.8400 C   0  0  0  0  0  0  0  0  0  0  0  0
   55.8920   27.8310   45.5960 O   0  0  0  0  0  0  0  0  0  0  0  0
   55.3060   25.6520   46.1480 N   0  0  0  0  0  0  0  0  0  0  0  0
   55.5810   24.3420   46.7380 C   0  0  0  0  0  0  0  0  0  0  0  0
   56.2600   23.4350   45.7340 C   0  0  0  0  0  0  0  0  0  0  0  0
   55.9790   23.5750   44.3640 C   0  0  0  0  0  0  0  0  0  0  0  0
   56.6370   22.7820   43.4210 C   0  0  0  0  0  0  0  0  0  0  0  0
   57.5640   21.8270   43.8340 C   0  0  0  0  0  0  0  0  0  0  0  0
   57.8150   21.6420   45.1960 C   0  0  0  0  0  0  0  0  0  0  0  0
   57.1560   22.4280   46.1510 C   0  0  0  0  0  0  0  0  0  0  0  0
   57.3890   22.1970   47.4960 O   0  0  0  0  0  0  0  0  0  0  0  0
   56.0514   29.7690   43.9033 H   0  0  0  0  0  0  0  0  0  0  0  0
   55.9877   31.0303   42.6259 H   0  0  0  0  0  0  0  0  0  0  0  0
   57.3133   29.8181   42.6259 H   0  0  0  0  0  0  0  0  0  0  0  0
   57.4274   32.9622   42.6776 H   0  0  0  0  0  0  0  0  0  0  0  0
   58.6925   34.5492   44.1185 H   0  0  0  0  0  0  0  0  0  0  0  0
   62.0203   33.5889   45.3790 H   0  0  0  0  0  0  0  0  0  0  0  0
   62.5587   34.9612   46.4208 H   0  0  0  0  0  0  0  0  0  0  0  0
   63.6872   32.2124   46.1278 H   0  0  0  0  0  0  0  0  0  0  0  0
   64.4743   33.7749   46.6216 H   0  0  0  0  0  0  0  0  0  0  0  0
   63.0239   31.7328   48.3345 H   0  0  0  0  0  0  0  0  0  0  0  0
   64.6527   32.4852   48.5555 H   0  0  0  0  0  0  0  0  0  0  0  0
   62.9500   33.3530   50.1709 H   0  0  0  0  0  0  0  0  0  0  0  0
   63.6376   34.6312   49.0831 H   0  0  0  0  0  0  0  0  0  0  0  0
   60.8513   33.7316   49.4064 H   0  0  0  0  0  0  0  0  0  0  0  0
   61.5336   35.2257   48.6266 H   0  0  0  0  0  0  0  0  0  0  0  0
   58.9996   31.5261   47.1950 H   0  0  0  0  0  0  0  0  0  0  0  0
   56.8220   29.4080   46.3380 H   0  0  0  0  0  0  0  0  0  0  0  0
   59.4948   26.8792   47.0251 H   0  0  0  0  0  0  0  0  0  0  0  0
   57.9184   27.5346   47.6364 H   0  0  0  0  0  0  0  0  0  0  0  0
   58.1468   26.4883   44.8066 H   0  0  0  0  0  0  0  0  0  0  0  0
   57.9245   25.3576   46.2088 H   0  0  0  0  0  0  0  0  0  0  0  0
   56.2377   24.4699   47.6111 H   0  0  0  0  0  0  0  0  0  0  0  0
   54.6282   23.8835   47.0411 H   0  0  0  0  0  0  0  0  0  0  0  0
   55.2354   24.3145   44.0320 H   0  0  0  0  0  0  0  0  0  0  0  0
   56.4229   22.9116   42.3498 H   0  0  0  0  0  0  0  0  0  0  0  0
   58.0977   21.2193   43.0884 H   0  0  0  0  0  0  0  0  0  0  0  0
   58.5338   20.8752   45.5205 H   0  0  0  0  0  0  0  0  0  0  0  0
  1  2  1  0
  2  3  2  0
  3  4  1  0
  4  5  2  0
  5  6  1  0
  6  7  2  0
  6  8  2  0
  6  9  1  0
  9 10  1  0
 10 11  1  0
 11 12  1  0
 12 13  1  0
 13 14  1  0
  5 15  1  0
 15 16  2  0
 16 17  1  0
 17 18  1  0
 18 19  2  0
 18 20  1  0
 20 21  1  0
 21 22  1  0
 22 23  2  0
 22 24  1  0
 24 25  1  0
 25 26  1  0
 26 27  2  0
 27 28  1  0
 28 29  2  0
 29 30  1  0
 30 31  2  0
 31 32  1  0
 16  2  1  0
 31 26  1  0
 14  9  1  0
  1 33  1  0
  1 34  1  0
  1 35  1  0
  3 36  1  0
  4 37  1  0
 10 38  1  0
 10 39  1  0
 11 40  1  0
 11 41  1  0
 12 42  1  0
 12 43  1  0
 13 44  1  0
 13 45  1  0
 14 46  1  0
 14 47  1  0
 15 48  1  0
 17 49  1  0
 20 50  1  0
 20 51  1  0
 21 52  1  0
 21 53  1  0
 25 54  1  0
 25 55  1  0
 27 56  1  0
 28 57  1  0
 29 58  1  0
 30 59  1  0
M  CHG  2  24  -1  32  -1
M  END
>  <UniqueID>  (71) 
67

>  <SMILES>  (71) 
Cc1ccc(S(=O)(=O)N2CCCCC2)cc1NC(=O)CCC(=O)[N-]Cc1ccccc1[O-]

>  <Energy>  (71) 
64.15008249518603

>  <Genealogy>  (71) 
Cc1ccc(S(=O)(=O)N2CCCCC2)cc1NC(=O)CCC(=O)[N-]Cc1ccccc1[O-] (protonated)
Cc1ccc(S(=O)(=O)N2CCCCC2)cc1NC(=O)CCC(=O)[N-]Cc1ccccc1[O-] (3D coordinates assigned)
Cc1ccc(S(=O)(=O)N2CCCCC2)cc1NC(=O)CCC(=O)[N-]Cc1ccccc1[O-] (nonaromatic ring conformer: 64.15008249518603 kcal/mol)

>  <smiles>  (71) 
Cc1ccc(S(=O)(=O)N2CCCCC2)cc1NC(=O)CCC(=O)NCc1ccccc1O

>  <score_type>  (71) 
oracle

>  <origin>  (71) 
adg

>  <m_score__min__energy>  (71) 
-15.880000000000001

>  <m_primary>  (71) 
energy

$$$$
71:0
     RDKit          3D

 59 63  0  0  0  0  0  0  0  0999 V2000
   57.7760   28.7020   46.8720 O   0  0  0  0  0  0  0  0  0  0  0  0
   57.5220   27.9850   45.8640 C   0  0  0  0  0  0  0  0  0  0  0  0
   57.1240   28.6030   44.6280 N   0  0  0  0  0  0  0  0  0  0  0  0
   57.2670   30.0070   44.3750 C   0  0  0  0  0  0  0  0  0  0  0  0
   57.1310   30.6320   43.1580 C   0  0  0  0  0  0  0  0  0  0  0  0
   57.3610   31.9500   43.3220 N   0  0  0  0  0  0  0  0  0  0  0  0
   57.6320   32.1650   44.6030 N   0  0  0  0  0  0  0  0  0  0  0  0
   57.9820   33.4630   45.1110 C   0  0  0  0  0  0  0  0  0  0  0  0
   57.2150   34.4310   44.8530 O   0  0  0  0  0  0  0  0  0  0  0  0
   59.1210   33.6680   45.9830 N   0  0  0  0  0  0  0  0  0  0  0  0
   60.2120   32.6860   46.0680 C   0  0  0  0  0  0  0  0  0  0  0  0
   61.1930   33.0450   47.1830 C   0  0  0  0  0  0  0  0  0  0  0  0
   60.4280   33.4110   48.3910 N   0  0  0  0  0  0  0  0  0  0  0  0
   61.3320   33.5070   49.5610 C   0  0  0  0  0  0  0  0  0  0  0  0
   62.4120   34.5850   49.4020 C   0  0  0  0  0  0  0  0  0  0  0  0
   63.4970   33.5160   49.4590 C   0  0  0  0  0  0  0  0  0  0  0  0
   62.4300   32.4360   49.5720 C   0  0  0  0  0  0  0  0  0  0  0  0
   59.7090   34.6970   48.1820 C   0  0  0  0  0  0  0  0  0  0  0  0
   59.2580   34.9340   46.7200 C   0  0  0  0  0  0  0  0  0  0  0  0
   57.6110   30.9960   45.2760 C   0  0  0  0  0  0  0  0  0  0  0  0
   57.5910   26.5110   45.9900 C   0  0  0  0  0  0  0  0  0  0  0  0
   56.4370   25.7710   46.2970 C   0  0  0  0  0  0  0  0  0  0  0  0
   56.5070   24.3830   46.4300 C   0  0  0  0  0  0  0  0  0  0  0  0
   57.7340   23.7380   46.2720 C   0  0  0  0  0  0  0  0  0  0  0  0
   57.8040   22.3500   46.4260 O   0  0  0  0  0  0  0  0  0  0  0  0
   57.7220   21.4450   45.3270 C   0  0  0  0  0  0  0  0  0  0  0  0
   58.4380   21.9970   44.0990 C   0  0  0  0  0  0  0  0  0  0  0  0
   57.1000   22.0950   43.3660 C   0  0  0  0  0  0  0  0  0  0  0  0
   56.3840   21.5460   44.5930 C   0  0  0  0  0  0  0  0  0  0  0  0
   58.8480   24.4680   45.9800 N   0  0  0  0  0  0  0  0  0  0  0  0
   58.8050   25.8200   45.8330 C   0  0  0  0  0  0  0  0  0  0  0  0
   56.5940   28.0360   43.9270 H   0  0  0  0  0  0  0  0  0  0  0  0
   56.8768   30.1385   42.2083 H   0  0  0  0  0  0  0  0  0  0  0  0
   59.7856   31.6926   46.2714 H   0  0  0  0  0  0  0  0  0  0  0  0
   60.7561   32.6862   45.1120 H   0  0  0  0  0  0  0  0  0  0  0  0
   61.8370   32.1803   47.4012 H   0  0  0  0  0  0  0  0  0  0  0  0
   61.8221   33.8909   46.8689 H   0  0  0  0  0  0  0  0  0  0  0  0
   60.5909   33.5623   50.3720 H   0  0  0  0  0  0  0  0  0  0  0  0
   62.3668   35.1270   48.4459 H   0  0  0  0  0  0  0  0  0  0  0  0
   62.4433   35.4440   50.0884 H   0  0  0  0  0  0  0  0  0  0  0  0
   64.1089   33.4486   48.5474 H   0  0  0  0  0  0  0  0  0  0  0  0
   64.3032   33.5812   50.2045 H   0  0  0  0  0  0  0  0  0  0  0  0
   62.3948   31.7498   48.7130 H   0  0  0  0  0  0  0  0  0  0  0  0
   62.4743   31.6967   50.3853 H   0  0  0  0  0  0  0  0  0  0  0  0
   58.8165   34.7031   48.8249 H   0  0  0  0  0  0  0  0  0  0  0  0
   60.4157   35.5019   48.4323 H   0  0  0  0  0  0  0  0  0  0  0  0
   58.2869   35.4507   46.7254 H   0  0  0  0  0  0  0  0  0  0  0  0
   60.0245   35.5428   46.2181 H   0  0  0  0  0  0  0  0  0  0  0  0
   57.8279   30.8561   46.3453 H   0  0  0  0  0  0  0  0  0  0  0  0
   55.4751   26.2869   46.4330 H   0  0  0  0  0  0  0  0  0  0  0  0
   55.6011   23.8020   46.6578 H   0  0  0  0  0  0  0  0  0  0  0  0
   58.0328   20.4953   45.7868 H   0  0  0  0  0  0  0  0  0  0  0  0
   58.9319   22.9659   44.2644 H   0  0  0  0  0  0  0  0  0  0  0  0
   59.2802   21.4490   43.6513 H   0  0  0  0  0  0  0  0  0  0  0  0
   56.8090   23.1216   43.0987 H   0  0  0  0  0  0  0  0  0  0  0  0
   56.9676   21.6160   42.3847 H   0  0  0  0  0  0  0  0  0  0  0  0
   55.6727   22.2495   45.0503 H   0  0  0  0  0  0  0  0  0  0  0  0
   55.7273   20.6676   44.5083 H   0  0  0  0  0  0  0  0  0  0  0  0
   59.7236   26.3743   45.5904 H   0  0  0  0  0  0  0  0  0  0  0  0
  1  2  2  0
  2  3  1  0
  3  4  1  0
  4  5  1  0
  5  6  2  0
  6  7  1  0
  7  8  1  0
  8  9  2  0
  8 10  1  0
 10 11  1  0
 11 12  1  0
 12 13  1  0
 13 14  1  0
 14 15  1  0
 15 16  1  0
 16 17  1  0
 13 18  1  0
 18 19  1  0
  7 20  1  0
  2 21  1  0
 21 22  2  0
 22 23  1  0
 23 24  2  0
 24 25  1  0
 25 26  1  0
 26 27  1  0
 27 28  1  0
 28 29  1  0
 24 30  1  0
 30 31  2  0
 20  4  2  0
 31 21  1  0
 19 10  1  0
 29 26  1  0
 17 14  1  0
  3 32  1  0
  5 33  1  0
 11 34  1  0
 11 35  1  0
 12 36  1  0
 12 37  1  0
 14 38  1  0
 15 39  1  0
 15 40  1  0
 16 41  1  0
 16 42  1  0
 17 43  1  0
 17 44  1  0
 18 45  1  0
 18 46  1  0
 19 47  1  0
 19 48  1  0
 20 49  1  0
 22 50  1  0
 23 51  1  0
 26 52  1  0
 27 53  1  0
 27 54  1  0
 28 55  1  0
 28 56  1  0
 29 57  1  0
 29 58  1  0
 31 59  1  0
M  END
>  <UniqueID>  (72) 
68

>  <SMILES>  (72) 
O=C(Nc1cnn(C(=O)N2CCN(C3CCC3)CC2)c1)c1ccc(OC2CCC2)nc1

>  <Energy>  (72) 
227.78699029869807

>  <Genealogy>  (72) 
O=C(Nc1cnn(C(=O)N2CCN(C3CCC3)CC2)c1)c1ccc(OC2CCC2)nc1 (3D coordinates assigned)
O=C(Nc1cnn(C(=O)N2CCN(C3CCC3)CC2)c1)c1ccc(OC2CCC2)nc1 (nonaromatic ring conformer: 227.78699029869807 kcal/mol)

>  <smiles>  (72) 
O=C(Nc1cnn(C(=O)N2CCN(C3CCC3)CC2)c1)c1ccc(OC2CCC2)nc1

>  <score_type>  (72) 
oracle

>  <origin>  (72) 
adg

>  <m_score__min__energy>  (72) 
-8.5700000000000003

>  <m_primary>  (72) 
energy

$$$$
72:0
     RDKit          3D

 43 45  0  0  0  0  0  0  0  0999 V2000
   55.7750   31.5775   44.1166 H   0  0  0  0  0  0  0  0  0  0  0  0
   55.8220   30.4790   44.0840 C   0  0  0  0  0  0  0  0  0  0  0  0
   55.0996   29.9154   43.4754 H   0  0  0  0  0  0  0  0  0  0  0  0
   56.7570   29.8290   44.7840 C   0  0  0  0  0  0  0  0  0  0  0  0
   57.7770   30.3410   45.6140 C   0  0  0  0  0  0  0  0  0  0  0  0
   58.2160   31.7270   46.0010 C   0  0  0  0  0  0  0  0  0  0  0  0
   57.3030   32.5800   46.1960 O   0  0  0  0  0  0  0  0  0  0  0  0
   59.5910   32.1610   46.1720 N   0  0  0  0  0  0  0  0  0  0  0  0
   60.1290   31.7520   45.3670 H   0  0  0  0  0  0  0  0  0  0  0  0
   60.2240   31.5520   47.3690 C   0  0  0  0  0  0  0  0  0  0  0  0
   59.5279   31.6435   48.2158 H   0  0  0  0  0  0  0  0  0  0  0  0
   60.4431   30.5028   47.1215 H   0  0  0  0  0  0  0  0  0  0  0  0
   61.5600   32.2150   47.7610 C   0  0  0  0  0  0  0  0  0  0  0  0
   61.4230   32.7632   48.7048 H   0  0  0  0  0  0  0  0  0  0  0  0
   62.3168   31.4244   47.8720 H   0  0  0  0  0  0  0  0  0  0  0  0
   62.0240   33.1550   46.7250 N   0  0  0  0  0  0  0  0  0  0  0  0
   63.3330   33.7340   47.1040 C   0  0  0  0  0  0  0  0  0  0  0  0
   64.0318   33.6301   46.2609 H   0  0  0  0  0  0  0  0  0  0  0  0
   63.1919   34.7961   47.3531 H   0  0  0  0  0  0  0  0  0  0  0  0
   63.9060   33.0160   48.3210 C   0  0  0  0  0  0  0  0  0  0  0  0
   63.5275   33.4903   49.2385 H   0  0  0  0  0  0  0  0  0  0  0  0
   63.5999   31.9596   48.3013 H   0  0  0  0  0  0  0  0  0  0  0  0
   65.0040   33.0801   48.3013 H   0  0  0  0  0  0  0  0  0  0  0  0
   61.0080   34.2110   46.5660 C   0  0  0  0  0  0  0  0  0  0  0  0
   60.7981   34.6613   47.5474 H   0  0  0  0  0  0  0  0  0  0  0  0
   61.3939   34.9726   45.8724 H   0  0  0  0  0  0  0  0  0  0  0  0
   59.7080   33.6290   45.9890 C   0  0  0  0  0  0  0  0  0  0  0  0
   58.8563   34.1124   46.4900 H   0  0  0  0  0  0  0  0  0  0  0  0
   59.7161   33.8231   44.9063 H   0  0  0  0  0  0  0  0  0  0  0  0
   58.4640   29.2210   46.0710 C   0  0  0  0  0  0  0  0  0  0  0  0
   59.3334   29.2245   46.7449 H   0  0  0  0  0  0  0  0  0  0  0  0
   57.8590   28.1020   45.5270 C   0  0  0  0  0  0  0  0  0  0  0  0
   58.1920   26.8090   45.7000 C   0  0  0  0  0  0  0  0  0  0  0  0
   59.1759   26.4928   45.3231 H   0  0  0  0  0  0  0  0  0  0  0  0
   57.3580   25.7730   46.3500 C   0  0  0  0  0  0  0  0  0  0  0  0
   57.8070   24.6680   46.9690 N   0  0  0  0  0  0  0  0  0  0  0  0
   56.6770   24.0400   47.3580 C   0  0  0  0  0  0  0  0  0  0  0  0
   56.6890   22.9500   47.9880 O   0  0  0  0  0  0  0  0  0  0  0  0
   55.5340   24.6740   47.0240 N   0  0  0  0  0  0  0  0  0  0  0  0
   55.9820   25.7660   46.3850 C   0  0  0  0  0  0  0  0  0  0  0  0
   55.1500   26.7340   45.8370 O   0  0  0  0  0  0  0  0  0  0  0  0
   56.8260   28.4810   44.7530 N   0  0  0  0  0  0  0  0  0  0  0  0
   56.1940   27.8430   44.2190 H   0  0  0  0  0  0  0  0  0  0  0  0
  1  2  1  0
  2  3  1  0
  2  4  2  0
  4  5  1  0
  5  6  1  0
  6  7  2  0
  6  8  1  0
  8  9  1  0
  8 10  1  0
 10 11  1  0
 10 12  1  0
 10 13  1  0
 13 14  1  0
 13 15  1  0
 13 16  1  0
 16 17  1  0
 17 18  1  0
 17 19  1  0
 17 20  1  0
 20 21  1  0
 20 22  1  0
 20 23  1  0
 16 24  1  0
 24 25  1  0
 24 26  1  0
 24 27  1  0
 27 28  1  0
 27 29  1  0
  5 30  2  0
 30 31  1  0
 30 32  1  0
 32 33  2  0
 33 34  1  0
 33 35  1  0
 35 36  1  0
 36 37  1  0
 37 38  2  0
 37 39  1  0
 39 40  1  0
 40 41  1  0
 32 42  1  0
 42 43  1  0
 42  4  1  0
 27  8  1  0
 40 35  2  0
M  CHG  4   8   1  36  -1  39  -1  41  -1
M  END
>  <UniqueID>  (73) 
69

>  <SMILES>  (73) 
C=c1[nH]/c(=C/c2[n-]c(=O)[n-]c2[O-])cc1C(=O)[NH+]1CCN(CC)CC1

>  <Energy>  (73) 
127.270772626092

>  <Genealogy>  (73) 
C=c1[nH]c(=Cc2[n-]c(=O)[n-]c2[O-])cc1C(=O)[NH+]1CCN(CC)CC1 (protonated)
C=c1[nH]/c(=C/c2[n-]c(=O)[n-]c2[O-])cc1C(=O)[NH+]1CCN(CC)CC1 (cis-trans isomerization)
C=c1[nH]/c(=C/c2[n-]c(=O)[n-]c2[O-])cc1C(=O)[NH+]1CCN(CC)CC1 (3D coordinates assigned)
C=c1[nH]/c(=C/c2[n-]c(=O)[n-]c2[O-])cc1C(=O)[NH+]1CCN(CC)CC1 (nonaromatic ring conformer: 127.270772626092 kcal/mol)

>  <smiles>  (73) 
C=c1[nH]c(=Cc2[nH]c(=O)[nH]c2O)cc1C(=O)N1CCN(CC)CC1

>  <score_type>  (73) 
oracle

>  <origin>  (73) 
adg

>  <m_score__min__energy>  (73) 
-15.52

>  <m_primary>  (73) 
energy

$$$$
73:0
     RDKit          3D

 57 60  0  0  0  0  0  0  0  0999 V2000
   55.2670   29.3680   45.0660 O   0  0  0  0  0  0  0  0  0  0  0  0
   56.4590   29.0890   44.7760 C   0  0  0  0  0  0  0  0  0  0  0  0
   57.3460   30.1680   44.2170 C   0  0  0  0  0  0  0  0  0  0  0  0
   56.6340   31.5220   44.2620 C   0  0  0  0  0  0  0  0  0  0  0  0
   57.5430   32.6110   43.7860 C   0  0  0  0  0  0  0  0  0  0  0  0
   58.0730   32.5310   42.6460 O   0  0  0  0  0  0  0  0  0  0  0  0
   57.8290   33.7200   44.6450 N   0  0  0  0  0  0  0  0  0  0  0  0
   57.9580   33.6080   46.0920 C   0  0  0  0  0  0  0  0  0  0  0  0
   59.3770   33.3070   46.4760 C   0  0  0  0  0  0  0  0  0  0  0  0
   60.4030   34.1330   46.1440 N   0  0  0  0  0  0  0  0  0  0  0  0
   61.4770   33.5090   46.6590 C   0  0  0  0  0  0  0  0  0  0  0  0
   62.8060   33.9210   46.5950 C   0  0  0  0  0  0  0  0  0  0  0  0
   63.7780   33.0980   47.1950 C   0  0  0  0  0  0  0  0  0  0  0  0
   63.4000   31.8960   47.8330 C   0  0  0  0  0  0  0  0  0  0  0  0
   62.0480   31.5060   47.8800 C   0  0  0  0  0  0  0  0  0  0  0  0
   61.1080   32.3480   47.2780 C   0  0  0  0  0  0  0  0  0  0  0  0
   59.7730   32.2060   47.1760 N   0  0  0  0  0  0  0  0  0  0  0  0
   58.9470   31.0890   47.6480 C   0  0  0  0  0  0  0  0  0  0  0  0
   59.5170   29.7760   47.1800 C   0  0  0  0  0  0  0  0  0  0  0  0
   59.9130   29.6080   45.8410 C   0  0  0  0  0  0  0  0  0  0  0  0
   60.4450   28.3880   45.4130 C   0  0  0  0  0  0  0  0  0  0  0  0
   60.5800   27.3280   46.3130 C   0  0  0  0  0  0  0  0  0  0  0  0
   60.1840   27.4850   47.6440 C   0  0  0  0  0  0  0  0  0  0  0  0
   59.6510   28.7030   48.0770 C   0  0  0  0  0  0  0  0  0  0  0  0
   56.9130   27.7400   44.9470 N   0  0  0  0  0  0  0  0  0  0  0  0
   57.3160   27.1520   46.2190 C   0  0  0  0  0  0  0  0  0  0  0  0
   56.8640   25.7160   46.2730 C   0  0  0  0  0  0  0  0  0  0  0  0
   57.7950   24.7130   46.5970 C   0  0  0  0  0  0  0  0  0  0  0  0
   57.4100   23.3710   46.6400 C   0  0  0  0  0  0  0  0  0  0  0  0
   56.0940   23.0130   46.3510 C   0  0  0  0  0  0  0  0  0  0  0  0
   55.1600   23.9950   46.0180 C   0  0  0  0  0  0  0  0  0  0  0  0
   55.5310   25.3440   45.9700 C   0  0  0  0  0  0  0  0  0  0  0  0
   54.5600   26.2820   45.6120 O   0  0  0  0  0  0  0  0  0  0  0  0
   58.2685   30.2238   44.8136 H   0  0  0  0  0  0  0  0  0  0  0  0
   57.5857   29.9260   43.1711 H   0  0  0  0  0  0  0  0  0  0  0  0
   55.7450   31.4846   43.6153 H   0  0  0  0  0  0  0  0  0  0  0  0
   56.3403   31.7339   45.3007 H   0  0  0  0  0  0  0  0  0  0  0  0
   57.6517   34.5570   46.5564 H   0  0  0  0  0  0  0  0  0  0  0  0
   57.3150   32.7870   46.4420 H   0  0  0  0  0  0  0  0  0  0  0  0
   63.0868   34.8583   46.0924 H   0  0  0  0  0  0  0  0  0  0  0  0
   64.8374   33.3927   47.1667 H   0  0  0  0  0  0  0  0  0  0  0  0
   64.1680   31.2595   48.2968 H   0  0  0  0  0  0  0  0  0  0  0  0
   61.7419   30.5716   48.3731 H   0  0  0  0  0  0  0  0  0  0  0  0
   58.9182   31.0996   48.7476 H   0  0  0  0  0  0  0  0  0  0  0  0
   57.9314   31.2010   47.2406 H   0  0  0  0  0  0  0  0  0  0  0  0
   59.8038   30.4389   45.1284 H   0  0  0  0  0  0  0  0  0  0  0  0
   60.7578   28.2625   44.3659 H   0  0  0  0  0  0  0  0  0  0  0  0
   60.9984   26.3689   45.9737 H   0  0  0  0  0  0  0  0  0  0  0  0
   60.2917   26.6497   48.3516 H   0  0  0  0  0  0  0  0  0  0  0  0
   59.3354   28.8216   49.1241 H   0  0  0  0  0  0  0  0  0  0  0  0
   58.4111   27.1956   46.3127 H   0  0  0  0  0  0  0  0  0  0  0  0
   56.8551   27.7132   47.0452 H   0  0  0  0  0  0  0  0  0  0  0  0
   58.8367   24.9880   46.8188 H   0  0  0  0  0  0  0  0  0  0  0  0
   58.1456   22.5962   46.9020 H   0  0  0  0  0  0  0  0  0  0  0  0
   55.7917   21.9559   46.3855 H   0  0  0  0  0  0  0  0  0  0  0  0
   54.1230   23.7065   45.7912 H   0  0  0  0  0  0  0  0  0  0  0  0
   54.7730   27.1460   45.1310 H   0  0  0  0  0  0  0  0  0  0  0  0
  1  2  2  0
  2  3  1  0
  3  4  1  0
  4  5  1  0
  5  6  2  0
  5  7  1  0
  7  8  1  0
  8  9  1  0
  9 10  2  0
 10 11  1  0
 11 12  2  0
 12 13  1  0
 13 14  2  0
 14 15  1  0
 15 16  2  0
 16 17  1  0
 17 18  1  0
 18 19  1  0
 19 20  2  0
 20 21  1  0
 21 22  2  0
 22 23  1  0
 23 24  2  0
  2 25  1  0
 25 26  1  0
 26 27  1  0
 27 28  2  0
 28 29  1  0
 29 30  2  0
 30 31  1  0
 31 32  2  0
 32 33  1  0
 17  9  1  0
 24 19  1  0
 32 27  1  0
 16 11  1  0
  3 34  1  0
  3 35  1  0
  4 36  1  0
  4 37  1  0
  8 38  1  0
  8 39  1  0
 12 40  1  0
 13 41  1  0
 14 42  1  0
 15 43  1  0
 18 44  1  0
 18 45  1  0
 20 46  1  0
 21 47  1  0
 22 48  1  0
 23 49  1  0
 24 50  1  0
 26 51  1  0
 26 52  1  0
 28 53  1  0
 29 54  1  0
 30 55  1  0
 31 56  1  0
 33 57  1  0
M  CHG  2   7  -1  25  -1
M  END
>  <UniqueID>  (74) 
70

>  <SMILES>  (74) 
O=C(CCC(=O)[N-]Cc1nc2ccccc2n1Cc1ccccc1)[N-]Cc1ccccc1O

>  <Energy>  (74) 
89.12678908477459

>  <Genealogy>  (74) 
O=C(CCC(=O)[N-]Cc1nc2ccccc2n1Cc1ccccc1)[N-]Cc1ccccc1O (protonated)
O=C(CCC(=O)[N-]Cc1nc2ccccc2n1Cc1ccccc1)[N-]Cc1ccccc1O (3D coordinates assigned)
O=C(CCC(=O)[N-]Cc1nc2ccccc2n1Cc1ccccc1)[N-]Cc1ccccc1O (optimized conformer: 89.12678908477459 kcal/mol)

>  <smiles>  (74) 
O=C(CCC(=O)NCc1nc2ccccc2n1Cc1ccccc1)NCc1ccccc1O

>  <score_type>  (74) 
oracle

>  <origin>  (74) 
adg

>  <m_score__min__energy>  (74) 
-13.26

>  <m_primary>  (74) 
energy

$$$$
74:0
     RDKit          3D

 35 36  0  0  0  0  0  0  0  0999 V2000
   56.5370   29.5190   42.7650 N   0  0  0  0  0  0  0  0  0  0  0  0
   56.4330   29.7290   44.1750 C   0  0  0  0  0  0  0  0  0  0  0  0
   55.3910   29.3650   44.7810 O   0  0  0  0  0  0  0  0  0  0  0  0
   57.5690   30.3310   44.9500 C   0  0  2  0  0  0  0  0  0  0  0  0
   58.4800   30.9650   44.0530 O   0  0  0  0  0  0  0  0  0  0  0  0
   58.1450   32.0860   43.2850 C   0  0  0  0  0  0  0  0  0  0  0  0
   57.4640   31.9660   42.2310 O   0  0  0  0  0  0  0  0  0  0  0  0
   58.5450   33.4430   43.7660 C   0  0  0  0  0  0  0  0  0  0  0  0
   58.7450   33.4070   45.2230 N   0  0  0  0  0  0  0  0  0  0  0  0
   59.9950   33.6620   45.7200 C   0  0  0  0  0  0  0  0  0  0  0  0
   60.2200   33.7070   47.0970 C   0  0  0  0  0  0  0  0  0  0  0  0
   59.1570   33.4970   47.9720 C   0  0  0  0  0  0  0  0  0  0  0  0
   57.8850   33.2470   47.4640 C   0  0  0  0  0  0  0  0  0  0  0  0
   57.6880   33.2110   46.0800 C   0  0  0  0  0  0  0  0  0  0  0  0
   56.5250   33.0060   45.6340 O   0  0  0  0  0  0  0  0  0  0  0  0
   58.2680   29.2550   45.7510 C   0  0  0  0  0  0  0  0  0  0  0  0
   58.4090   27.9510   45.2390 C   0  0  0  0  0  0  0  0  0  0  0  0
   59.0520   26.9620   45.9900 C   0  0  0  0  0  0  0  0  0  0  0  0
   59.5450   27.2600   47.2630 C   0  0  0  0  0  0  0  0  0  0  0  0
   59.3930   28.5470   47.7870 C   0  0  0  0  0  0  0  0  0  0  0  0
   58.7550   29.5390   47.0380 C   0  0  0  0  0  0  0  0  0  0  0  0
   57.3940   29.7970   42.2400 H   0  0  0  0  0  0  0  0  0  0  0  0
   55.7460   29.0820   42.2410 H   0  0  0  0  0  0  0  0  0  0  0  0
   57.1796   31.0878   45.6469 H   0  0  0  0  0  0  0  0  0  0  0  0
   59.4817   33.7450   43.2746 H   0  0  0  0  0  0  0  0  0  0  0  0
   57.7534   34.1668   43.5221 H   0  0  0  0  0  0  0  0  0  0  0  0
   60.8314   33.8333   45.0264 H   0  0  0  0  0  0  0  0  0  0  0  0
   61.2287   33.9067   47.4878 H   0  0  0  0  0  0  0  0  0  0  0  0
   59.3216   33.5285   49.0592 H   0  0  0  0  0  0  0  0  0  0  0  0
   57.0397   33.0787   48.1475 H   0  0  0  0  0  0  0  0  0  0  0  0
   58.0111   27.7088   44.2425 H   0  0  0  0  0  0  0  0  0  0  0  0
   59.1697   25.9488   45.5783 H   0  0  0  0  0  0  0  0  0  0  0  0
   60.0525   26.4822   47.8525 H   0  0  0  0  0  0  0  0  0  0  0  0
   59.7766   28.7793   48.7914 H   0  0  0  0  0  0  0  0  0  0  0  0
   58.6333   30.5482   47.4583 H   0  0  0  0  0  0  0  0  0  0  0  0
  1  2  1  0
  2  3  2  0
  2  4  1  0
  4  5  1  0
  5  6  1  0
  6  7  2  0
  6  8  1  0
  8  9  1  0
  9 10  1  0
 10 11  2  0
 11 12  1  0
 12 13  2  0
 13 14  1  0
 14 15  2  0
  4 16  1  0
 16 17  2  0
 17 18  1  0
 18 19  2  0
 19 20  1  0
 20 21  2  0
 14  9  1  0
 21 16  1  0
  1 22  1  0
  1 23  1  0
  4 24  1  1
  8 25  1  0
  8 26  1  0
 10 27  1  0
 11 28  1  0
 12 29  1  0
 13 30  1  0
 17 31  1  0
 18 32  1  0
 19 33  1  0
 20 34  1  0
 21 35  1  0
M  END
>  <UniqueID>  (75) 
71

>  <SMILES>  (75) 
NC(=O)[C@H](OC(=O)Cn1ccccc1=O)c1ccccc1

>  <Energy>  (75) 
31.120557829927055

>  <Genealogy>  (75) 
NC(=O)[C@H](OC(=O)Cn1ccccc1=O)c1ccccc1 (chirality)
NC(=O)[C@H](OC(=O)Cn1ccccc1=O)c1ccccc1 (3D coordinates assigned)
NC(=O)[C@H](OC(=O)Cn1ccccc1=O)c1ccccc1 (optimized conformer: 31.120557829927055 kcal/mol)

>  <smiles>  (75) 
NC(=O)C(OC(=O)Cn1ccccc1=O)c1ccccc1

>  <score_type>  (75) 
oracle

>  <origin>  (75) 
adg

>  <m_score__min__energy>  (75) 
-7.4000000000000004

>  <m_primary>  (75) 
energy

$$$$
75:0
     RDKit          3D

 56 58  0  0  0  0  0  0  0  0999 V2000
   67.0800   32.2230   50.7130 C   0  0  0  0  0  0  0  0  0  0  0  0
   65.7870   31.4890   50.9160 C   0  0  0  0  0  0  0  0  0  0  0  0
   65.7840   30.4940   51.6920 O   0  0  0  0  0  0  0  0  0  0  0  0
   64.5600   31.9050   50.2720 N   0  0  0  0  0  0  0  0  0  0  0  0
   63.4530   30.9470   50.1260 C   0  0  0  0  0  0  0  0  0  0  0  0
   62.1070   31.6480   50.3100 C   0  0  0  0  0  0  0  0  0  0  0  0
   62.0500   32.8630   49.4880 N   0  0  0  0  0  0  0  0  0  0  0  0
   60.8130   33.2320   48.8390 C   0  0  0  0  0  0  0  0  0  0  0  0
   59.7240   32.7340   49.2370 O   0  0  0  0  0  0  0  0  0  0  0  0
   60.7810   34.1760   47.6690 C   0  0  0  0  0  0  0  0  0  0  0  0
   59.0960   34.8310   47.3990 S   0  0  0  0  0  0  0  0  0  0  0  0
   58.5300   33.3880   46.4900 C   0  0  0  0  0  0  0  0  0  0  0  0
   58.0710   32.2700   47.0760 N   0  0  0  0  0  0  0  0  0  0  0  0
   57.7700   31.4000   46.1240 N   0  0  0  0  0  0  0  0  0  0  0  0
   58.0440   32.0140   44.9530 C   0  0  0  0  0  0  0  0  0  0  0  0
   57.9290   31.3280   43.6260 C   0  0  0  0  0  0  0  0  0  0  0  0
   56.9500   29.8440   43.7790 S   0  0  0  0  0  0  0  0  0  0  0  0
   56.2360   29.5820   42.4830 O   0  0  0  0  0  0  0  0  0  0  0  0
   55.9350   30.0160   44.8750 O   0  0  0  0  0  0  0  0  0  0  0  0
   57.9950   28.4500   44.1760 C   0  0  0  0  0  0  0  0  0  0  0  0
   58.7970   28.7230   45.4170 C   0  0  0  0  0  0  0  0  0  0  0  0
   58.2950   28.3650   46.6800 C   0  0  0  0  0  0  0  0  0  0  0  0
   59.0300   28.6480   47.8350 C   0  0  0  0  0  0  0  0  0  0  0  0
   60.2670   29.2920   47.7400 C   0  0  0  0  0  0  0  0  0  0  0  0
   60.7680   29.6580   46.4880 C   0  0  0  0  0  0  0  0  0  0  0  0
   60.0370   29.3800   45.3300 C   0  0  0  0  0  0  0  0  0  0  0  0
   58.5230   33.2640   45.1480 N   0  0  0  0  0  0  0  0  0  0  0  0
   59.0100   34.2120   44.1470 C   0  0  0  0  0  0  0  0  0  0  0  0
   63.1480   33.8270   49.6440 C   0  0  0  0  0  0  0  0  0  0  0  0
   64.4980   33.1300   49.4590 C   0  0  0  0  0  0  0  0  0  0  0  0
   67.5179   32.4716   51.6910 H   0  0  0  0  0  0  0  0  0  0  0  0
   67.7783   31.5867   50.1496 H   0  0  0  0  0  0  0  0  0  0  0  0
   66.8915   33.1488   50.1496 H   0  0  0  0  0  0  0  0  0  0  0  0
   63.4929   30.4987   49.1223 H   0  0  0  0  0  0  0  0  0  0  0  0
   63.5549   30.1674   50.8953 H   0  0  0  0  0  0  0  0  0  0  0  0
   61.2983   30.9665   50.0072 H   0  0  0  0  0  0  0  0  0  0  0  0
   61.9891   31.9253   51.3679 H   0  0  0  0  0  0  0  0  0  0  0  0
   61.4654   35.0145   47.8649 H   0  0  0  0  0  0  0  0  0  0  0  0
   61.0912   33.6267   46.7679 H   0  0  0  0  0  0  0  0  0  0  0  0
   57.9770   32.0900   48.0990 H   0  0  0  0  0  0  0  0  0  0  0  0
   57.4483   32.0074   42.9067 H   0  0  0  0  0  0  0  0  0  0  0  0
   58.9357   31.0580   43.2743 H   0  0  0  0  0  0  0  0  0  0  0  0
   57.3660   27.5627   44.3406 H   0  0  0  0  0  0  0  0  0  0  0  0
   58.6872   28.2775   43.3387 H   0  0  0  0  0  0  0  0  0  0  0  0
   57.3208   27.8606   46.7599 H   0  0  0  0  0  0  0  0  0  0  0  0
   58.6340   28.3632   48.8209 H   0  0  0  0  0  0  0  0  0  0  0  0
   60.8454   29.5104   48.6498 H   0  0  0  0  0  0  0  0  0  0  0  0
   61.7406   30.1664   46.4138 H   0  0  0  0  0  0  0  0  0  0  0  0
   60.4329   29.6761   44.3474 H   0  0  0  0  0  0  0  0  0  0  0  0
   59.4566   35.0813   44.6519 H   0  0  0  0  0  0  0  0  0  0  0  0
   59.7688   33.7236   43.5180 H   0  0  0  0  0  0  0  0  0  0  0  0
   58.1710   34.5444   43.5180 H   0  0  0  0  0  0  0  0  0  0  0  0
   63.0434   34.6211   48.8900 H   0  0  0  0  0  0  0  0  0  0  0  0
   63.1040   34.2585   50.6549 H   0  0  0  0  0  0  0  0  0  0  0  0
   64.6280   32.8679   48.3986 H   0  0  0  0  0  0  0  0  0  0  0  0
   65.2983   33.8123   49.7813 H   0  0  0  0  0  0  0  0  0  0  0  0
  1  2  1  0
  2  3  2  0
  2  4  1  0
  4  5  1  0
  5  6  1  0
  6  7  1  0
  7  8  1  0
  8  9  2  0
  8 10  1  0
 10 11  1  0
 11 12  1  0
 12 13  2  0
 13 14  1  0
 14 15  2  0
 15 16  1  0
 16 17  1  0
 17 18  2  0
 17 19  2  0
 17 20  1  0
 20 21  1  0
 21 22  2  0
 22 23  1  0
 23 24  2  0
 24 25  1  0
 25 26  2  0
 15 27  1  0
 27 28  1  0
  7 29  1  0
 29 30  1  0
 30  4  1  0
 27 12  1  0
 26 21  1  0
  1 31  1  0
  1 32  1  0
  1 33  1  0
  5 34  1  0
  5 35  1  0
  6 36  1  0
  6 37  1  0
 10 38  1  0
 10 39  1  0
 13 40  1  0
 16 41  1  0
 16 42  1  0
 20 43  1  0
 20 44  1  0
 22 45  1  0
 23 46  1  0
 24 47  1  0
 25 48  1  0
 26 49  1  0
 28 50  1  0
 28 51  1  0
 28 52  1  0
 29 53  1  0
 29 54  1  0
 30 55  1  0
 30 56  1  0
M  CHG  1  13   1
M  END
>  <UniqueID>  (76) 
72

>  <SMILES>  (76) 
CC(=O)N1CCN(C(=O)CSc2[nH+]nc(CS(=O)(=O)Cc3ccccc3)n2C)CC1

>  <Energy>  (76) 
77.87109527493006

>  <Genealogy>  (76) 
CC(=O)N1CCN(C(=O)CSc2[nH+]nc(CS(=O)(=O)Cc3ccccc3)n2C)CC1 (protonated)
CC(=O)N1CCN(C(=O)CSc2[nH+]nc(CS(=O)(=O)Cc3ccccc3)n2C)CC1 (3D coordinates assigned)
CC(=O)N1CCN(C(=O)CSc2[nH+]nc(CS(=O)(=O)Cc3ccccc3)n2C)CC1 (nonaromatic ring conformer: 77.87109527493006 kcal/mol)

>  <smiles>  (76) 
CC(=O)N1CCN(C(=O)CSc2nnc(CS(=O)(=O)Cc3ccccc3)n2C)CC1

>  <score_type>  (76) 
oracle

>  <origin>  (76) 
adg

>  <m_score__min__energy>  (76) 
-7.8300000000000001

>  <m_primary>  (76) 
energy

$$$$
76:0
     RDKit          3D

 49 52  0  0  0  0  0  0  0  0999 V2000
   54.8610   30.3200   45.1120 H   0  0  0  0  0  0  0  0  0  0  0  0
   55.1340   29.3550   44.8130 N   0  0  0  0  0  0  0  0  0  0  0  0
   56.2230   28.7940   45.2400 C   0  0  0  0  0  0  0  0  0  0  0  0
   56.1970   27.4820   45.6120 N   0  0  0  0  0  0  0  0  0  0  0  0
   57.2970   26.8400   46.0860 C   0  0  0  0  0  0  0  0  0  0  0  0
   57.2341   25.7804   46.3748 H   0  0  0  0  0  0  0  0  0  0  0  0
   58.5050   27.5250   46.2060 C   0  0  0  0  0  0  0  0  0  0  0  0
   59.9300   26.7100   46.8170 Cl  0  0  0  0  0  0  0  0  0  0  0  0
   58.5690   28.8680   45.8320 C   0  0  0  0  0  0  0  0  0  0  0  0
   59.5200   29.4139   45.9188 H   0  0  0  0  0  0  0  0  0  0  0  0
   57.4270   29.5290   45.3450 C   0  0  0  0  0  0  0  0  0  0  0  0
   57.5220   30.9630   44.9580 C   0  0  0  0  0  0  0  0  0  0  0  0
   56.5350   31.5440   44.4340 O   0  0  0  0  0  0  0  0  0  0  0  0
   58.7580   31.6840   45.0840 N   0  0  0  0  0  0  0  0  0  0  0  0
   59.3400   32.0430   46.1940 C   0  0  0  0  0  0  0  0  0  0  0  0
   60.1940   31.1680   46.7930 N   0  0  0  0  0  0  0  0  0  0  0  0
   60.8470   31.4630   47.9470 C   0  0  0  0  0  0  0  0  0  0  0  0
   61.5216   30.7216   48.4000 H   0  0  0  0  0  0  0  0  0  0  0  0
   60.6640   32.7100   48.5630 C   0  0  0  0  0  0  0  0  0  0  0  0
   61.3910   33.0560   49.8020 C   0  0  0  0  0  0  0  0  0  0  0  0
   60.7880   32.9930   50.9080 O   0  0  0  0  0  0  0  0  0  0  0  0
   62.7740   33.4490   49.7700 N   0  0  0  0  0  0  0  0  0  0  0  0
   63.2590   34.5100   50.6580 C   0  0  0  0  0  0  0  0  0  0  0  0
   63.6763   35.3302   50.0554 H   0  0  0  0  0  0  0  0  0  0  0  0
   62.4244   34.8894   51.2658 H   0  0  0  0  0  0  0  0  0  0  0  0
   64.3450   33.9490   51.5770 C   0  0  0  0  0  0  0  0  0  0  0  0
   64.8507   34.7846   52.0830 H   0  0  0  0  0  0  0  0  0  0  0  0
   63.8656   33.2794   52.3062 H   0  0  0  0  0  0  0  0  0  0  0  0
   65.3450   33.1700   50.8250 N   0  0  0  0  0  0  0  0  0  0  0  0
   66.5190   32.6650   51.5010 C   0  0  0  0  0  0  0  0  0  0  0  0
   67.4420   32.1130   50.8410 O   0  0  0  0  0  0  0  0  0  0  0  0
   66.6810   32.8290   52.9900 C   0  0  0  0  0  0  0  0  0  0  0  0
   66.7717   33.9251   52.9710 H   0  0  0  0  0  0  0  0  0  0  0  0
   65.9130   31.8070   53.8140 C   0  0  0  0  0  0  0  0  0  0  0  0
   65.4458   32.1059   54.7639 H   0  0  0  0  0  0  0  0  0  0  0  0
   65.0756   31.1213   53.6174 H   0  0  0  0  0  0  0  0  0  0  0  0
   67.4220   31.7120   53.7090 C   0  0  0  0  0  0  0  0  0  0  0  0
   68.0494   31.9421   54.5828 H   0  0  0  0  0  0  0  0  0  0  0  0
   68.1321   30.9289   53.4048 H   0  0  0  0  0  0  0  0  0  0  0  0
   65.1890   32.9910   49.3720 C   0  0  0  0  0  0  0  0  0  0  0  0
   65.4542   33.9285   48.8613 H   0  0  0  0  0  0  0  0  0  0  0  0
   65.8517   32.1779   49.0407 H   0  0  0  0  0  0  0  0  0  0  0  0
   63.7390   32.6210   49.0280 C   0  0  0  0  0  0  0  0  0  0  0  0
   63.5799   32.7685   47.9496 H   0  0  0  0  0  0  0  0  0  0  0  0
   63.5774   31.5703   49.3108 H   0  0  0  0  0  0  0  0  0  0  0  0
   59.8130   33.6390   47.9550 C   0  0  0  0  0  0  0  0  0  0  0  0
   59.6716   34.6312   48.4084 H   0  0  0  0  0  0  0  0  0  0  0  0
   59.1430   33.3120   46.7760 C   0  0  0  0  0  0  0  0  0  0  0  0
   58.4659   34.0390   46.3038 H   0  0  0  0  0  0  0  0  0  0  0  0
  1  2  1  0
  2  3  2  0
  3  4  1  0
  4  5  1  0
  5  6  1  0
  5  7  2  0
  7  8  1  0
  7  9  1  0
  9 10  1  0
  9 11  2  0
 11 12  1  0
 12 13  2  0
 12 14  1  0
 14 15  2  3
 15 16  1  0
 16 17  1  0
 17 18  1  0
 17 19  2  0
 19 20  1  0
 20 21  2  0
 20 22  1  0
 22 23  1  0
 23 24  1  0
 23 25  1  0
 23 26  1  0
 26 27  1  0
 26 28  1  0
 26 29  1  0
 29 30  1  0
 30 31  2  0
 30 32  1  0
 32 33  1  0
 32 34  1  0
 34 35  1  0
 34 36  1  0
 34 37  1  0
 37 38  1  0
 37 39  1  0
 29 40  1  0
 40 41  1  0
 40 42  1  0
 40 43  1  0
 43 44  1  0
 43 45  1  0
 19 46  1  0
 46 47  1  0
 46 48  2  0
 48 49  1  0
 11  3  1  0
 48 15  1  0
 43 22  1  0
 37 32  1  0
M  CHG  2   4  -1  16  -1
M  END
>  <UniqueID>  (77) 
73

>  <SMILES>  (77) 
[H]/N=c1\[n-]cc(Cl)cc1C(=O)N=c1ccc(C(=O)N2CCN(C(=O)C3CC3)CC2)c[n-]1

>  <Energy>  (77) 
334.5781587268435

>  <Genealogy>  (77) 
N=c1[n-]cc(Cl)cc1C(=O)N=c1ccc(C(=O)N2CCN(C(=O)C3CC3)CC2)c[n-]1 (protonated)
[H]/N=c1\[n-]cc(Cl)cc1C(=O)N=c1ccc(C(=O)N2CCN(C(=O)C3CC3)CC2)c[n-]1 (cis-trans isomerization)
[H]/N=c1\[n-]cc(Cl)cc1C(=O)N=c1ccc(C(=O)N2CCN(C(=O)C3CC3)CC2)c[n-]1 (3D coordinates assigned)
[H]/N=c1\[n-]cc(Cl)cc1C(=O)N=c1ccc(C(=O)N2CCN(C(=O)C3CC3)CC2)c[n-]1 (nonaromatic ring conformer: 334.5781587268435 kcal/mol)

>  <smiles>  (77) 
N=c1[nH]cc(Cl)cc1C(=O)N=c1ccc(C(=O)N2CCN(C(=O)C3CC3)CC2)c[nH]1

>  <score_type>  (77) 
oracle

>  <origin>  (77) 
adg

>  <m_score__min__energy>  (77) 
-11.970000000000001

>  <m_primary>  (77) 
energy

$$$$
77:0
     RDKit          3D

 59 63  0  0  0  0  0  0  0  0999 V2000
   55.8720   28.2100   45.2450 O   0  0  0  0  0  0  0  0  0  0  0  0
   56.7920   28.9850   44.8760 C   0  0  0  0  0  0  0  0  0  0  0  0
   58.0260   28.4000   44.2410 C   0  0  0  0  0  0  0  0  0  0  0  0
   59.1070   28.2120   45.2320 N   0  0  0  0  0  0  0  0  0  0  0  0
   59.6500   29.5160   45.6990 C   0  0  0  0  0  0  0  0  0  0  0  0
   60.2960   29.4090   47.0850 C   0  0  0  0  0  0  0  0  0  0  0  0
   59.2310   29.0260   48.1480 C   0  0  0  0  0  0  0  0  0  0  0  0
   58.1680   28.0470   47.5600 C   0  0  0  0  0  0  0  0  0  0  0  0
   58.6930   27.2960   46.3260 C   0  0  0  0  0  0  0  0  0  0  0  0
   58.5460   30.3080   48.7440 C   0  0  0  0  0  0  0  0  0  0  0  0
   59.0660   30.4550   50.1020 N   0  0  0  0  0  0  0  0  0  0  0  0
   58.9350   31.6500   50.8920 C   0  0  0  0  0  0  0  0  0  0  0  0
   59.8910   32.6770   50.8040 C   0  0  0  0  0  0  0  0  0  0  0  0
   59.7440   33.8450   51.5580 C   0  0  0  0  0  0  0  0  0  0  0  0
   58.6360   34.0030   52.3950 C   0  0  0  0  0  0  0  0  0  0  0  0
   57.6720   32.9960   52.4740 C   0  0  0  0  0  0  0  0  0  0  0  0
   57.8160   31.8260   51.7220 C   0  0  0  0  0  0  0  0  0  0  0  0
   59.8160   29.2970   50.4300 C   0  0  0  0  0  0  0  0  0  0  0  0
   60.3350   28.9570   51.6840 C   0  0  0  0  0  0  0  0  0  0  0  0
   61.0180   27.7400   51.8200 C   0  0  0  0  0  0  0  0  0  0  0  0
   61.1570   26.8790   50.7160 C   0  0  0  0  0  0  0  0  0  0  0  0
   61.8390   25.6760   50.8560 O   0  0  0  0  0  0  0  0  0  0  0  0
   60.6030   27.2290   49.4740 C   0  0  0  0  0  0  0  0  0  0  0  0
   59.9190   28.4460   49.3600 C   0  0  0  0  0  0  0  0  0  0  0  0
   56.6230   30.3970   45.0700 N   0  0  0  0  0  0  0  0  0  0  0  0
   57.1430   31.4550   44.2070 C   0  0  0  0  0  0  0  0  0  0  0  0
   57.8070   32.5400   45.0120 C   0  0  0  0  0  0  0  0  0  0  0  0
   58.5000   33.5810   44.3690 C   0  0  0  0  0  0  0  0  0  0  0  0
   59.1160   34.5860   45.1200 C   0  0  0  0  0  0  0  0  0  0  0  0
   59.0580   34.5540   46.5160 C   0  0  0  0  0  0  0  0  0  0  0  0
   59.6570   35.5300   47.2430 F   0  0  0  0  0  0  0  0  0  0  0  0
   58.3850   33.5140   47.1630 C   0  0  0  0  0  0  0  0  0  0  0  0
   57.7650   32.5070   46.4160 C   0  0  0  0  0  0  0  0  0  0  0  0
   57.7728   27.4252   43.7988 H   0  0  0  0  0  0  0  0  0  0  0  0
   58.3820   29.0987   43.4696 H   0  0  0  0  0  0  0  0  0  0  0  0
   60.4075   29.8625   44.9805 H   0  0  0  0  0  0  0  0  0  0  0  0
   58.8125   30.2257   45.7697 H   0  0  0  0  0  0  0  0  0  0  0  0
   61.0793   28.6370   47.0616 H   0  0  0  0  0  0  0  0  0  0  0  0
   60.7338   30.3822   47.3517 H   0  0  0  0  0  0  0  0  0  0  0  0
   57.8961   27.3129   48.3328 H   0  0  0  0  0  0  0  0  0  0  0  0
   57.2960   28.6411   47.2491 H   0  0  0  0  0  0  0  0  0  0  0  0
   59.5609   26.6901   46.6254 H   0  0  0  0  0  0  0  0  0  0  0  0
   57.8732   26.6701   45.9436 H   0  0  0  0  0  0  0  0  0  0  0  0
   58.8007   31.1917   48.1406 H   0  0  0  0  0  0  0  0  0  0  0  0
   57.4500   30.2138   48.7427 H   0  0  0  0  0  0  0  0  0  0  0  0
   60.7591   32.5609   50.1385 H   0  0  0  0  0  0  0  0  0  0  0  0
   60.5010   34.6403   51.4924 H   0  0  0  0  0  0  0  0  0  0  0  0
   58.5234   34.9204   52.9914 H   0  0  0  0  0  0  0  0  0  0  0  0
   56.7976   33.1233   53.1291 H   0  0  0  0  0  0  0  0  0  0  0  0
   57.0491   31.0396   51.7808 H   0  0  0  0  0  0  0  0  0  0  0  0
   60.2099   29.6301   52.5450 H   0  0  0  0  0  0  0  0  0  0  0  0
   61.4465   27.4575   52.7929 H   0  0  0  0  0  0  0  0  0  0  0  0
   60.7043   26.5599   48.6068 H   0  0  0  0  0  0  0  0  0  0  0  0
   57.8787   31.0223   43.5131 H   0  0  0  0  0  0  0  0  0  0  0  0
   56.3011   31.8980   43.6547 H   0  0  0  0  0  0  0  0  0  0  0  0
   58.5575   33.6045   43.2708 H   0  0  0  0  0  0  0  0  0  0  0  0
   59.6475   35.4037   44.6113 H   0  0  0  0  0  0  0  0  0  0  0  0
   58.3428   33.4873   48.2619 H   0  0  0  0  0  0  0  0  0  0  0  0
   57.2427   31.6863   46.9296 H   0  0  0  0  0  0  0  0  0  0  0  0
  1  2  2  0
  2  3  1  0
  3  4  1  0
  4  5  1  0
  5  6  1  0
  6  7  1  0
  7  8  1  0
  8  9  1  0
  7 10  1  0
 10 11  1  0
 11 12  1  0
 12 13  2  0
 13 14  1  0
 14 15  2  0
 15 16  1  0
 16 17  2  0
 11 18  1  0
 18 19  2  0
 19 20  1  0
 20 21  2  0
 21 22  1  0
 21 23  1  0
 23 24  2  0
  2 25  1  0
 25 26  1  0
 26 27  1  0
 27 28  2  0
 28 29  1  0
 29 30  2  0
 30 31  1  0
 30 32  1  0
 32 33  2  0
  9  4  1  0
 17 12  1  0
 24 18  1  0
 33 27  1  0
 24  7  1  0
  3 34  1  0
  3 35  1  0
  5 36  1  0
  5 37  1  0
  6 38  1  0
  6 39  1  0
  8 40  1  0
  8 41  1  0
  9 42  1  0
  9 43  1  0
 10 44  1  0
 10 45  1  0
 13 46  1  0
 14 47  1  0
 15 48  1  0
 16 49  1  0
 17 50  1  0
 19 51  1  0
 20 52  1  0
 23 53  1  0
 26 54  1  0
 26 55  1  0
 28 56  1  0
 29 57  1  0
 32 58  1  0
 33 59  1  0
M  CHG  2  22  -1  25  -1
M  END
>  <UniqueID>  (78) 
74

>  <SMILES>  (78) 
O=C(CN1CCC2(CC1)CN(c1ccccc1)c1ccc([O-])cc12)[N-]Cc1ccc(F)cc1

>  <Energy>  (78) 
92.11502047306872

>  <Genealogy>  (78) 
O=C(CN1CCC2(CC1)CN(c1ccccc1)c1ccc([O-])cc12)[N-]Cc1ccc(F)cc1 (protonated)
O=C(CN1CCC2(CC1)CN(c1ccccc1)c1ccc([O-])cc12)[N-]Cc1ccc(F)cc1 (3D coordinates assigned)
O=C(CN1CCC2(CC1)CN(c1ccccc1)c1ccc([O-])cc12)[N-]Cc1ccc(F)cc1 (nonaromatic ring conformer: 92.11502047306872 kcal/mol)

>  <smiles>  (78) 
O=C(CN1CCC2(CC1)CN(c1ccccc1)c1ccc(O)cc12)NCc1ccc(F)cc1

>  <score_type>  (78) 
oracle

>  <origin>  (78) 
adg

>  <m_score__min__energy>  (78) 
-12.369999999999999

>  <m_primary>  (78) 
energy

$$$$
78:0
     RDKit          3D

 57 59  0  0  0  0  0  0  0  0999 V2000
   59.3530   27.2910   48.0990 C   0  0  0  0  0  0  0  0  0  0  0  0
   58.8150   28.2170   47.2880 C   0  0  0  0  0  0  0  0  0  0  0  0
   58.2660   27.9990   46.0130 C   0  0  0  0  0  0  0  0  0  0  0  0
   57.9290   26.8600   45.3770 C   0  0  0  0  0  0  0  0  0  0  0  0
   57.3090   25.6800   46.0040 C   0  0  0  0  0  0  0  0  0  0  0  0
   57.9940   24.6420   46.5200 N   0  0  0  0  0  0  0  0  0  0  0  0
   57.0320   23.8820   47.0880 C   0  0  0  0  0  0  0  0  0  0  0  0
   57.2820   22.7950   47.6690 O   0  0  0  0  0  0  0  0  0  0  0  0
   55.7840   24.3850   46.9930 N   0  0  0  0  0  0  0  0  0  0  0  0
   55.9760   25.5290   46.3160 C   0  0  0  0  0  0  0  0  0  0  0  0
   54.9460   26.4110   45.9930 O   0  0  0  0  0  0  0  0  0  0  0  0
   58.0920   29.2490   45.4480 C   0  0  0  0  0  0  0  0  0  0  0  0
   58.4620   30.1720   46.4010 C   0  0  0  0  0  0  0  0  0  0  0  0
   58.4600   31.6300   46.2000 C   0  0  0  0  0  0  0  0  0  0  0  0
   57.4050   32.1730   45.7760 O   0  0  0  0  0  0  0  0  0  0  0  0
   59.6190   32.4330   46.5160 N   0  0  0  0  0  0  0  0  0  0  0  0
   59.5250   33.9020   46.4980 C   0  0  0  0  0  0  0  0  0  0  0  0
   60.3490   34.5520   47.6360 C   0  0  0  0  0  0  0  0  0  0  0  0
   61.3310   33.6290   48.2500 N   0  0  0  0  0  0  0  0  0  0  0  0
   62.3310   34.3760   49.0420 C   0  0  0  0  0  0  0  0  0  0  0  0
   63.7360   33.7660   48.8350 C   0  0  0  0  0  0  0  0  0  0  0  0
   64.1970   32.8970   49.9420 N   0  0  0  0  0  0  0  0  0  0  0  0
   63.4900   31.6070   49.9940 C   0  0  0  0  0  0  0  0  0  0  0  0
   65.6580   32.7080   49.9610 C   0  0  0  0  0  0  0  0  0  0  0  0
   61.9630   32.7910   47.2180 C   0  0  0  0  0  0  0  0  0  0  0  0
   60.9270   31.7890   46.7140 C   0  0  0  0  0  0  0  0  0  0  0  0
   58.8800   29.5530   47.5290 N   0  0  0  0  0  0  0  0  0  0  0  0
   59.4540   30.2300   48.7020 C   0  0  0  0  0  0  0  0  0  0  0  0
   58.5490   30.0560   49.9180 C   0  0  0  0  0  0  0  0  0  0  0  0
   59.7532   27.5852   49.0805 H   0  0  0  0  0  0  0  0  0  0  0  0
   59.3933   26.2386   47.7816 H   0  0  0  0  0  0  0  0  0  0  0  0
   58.1343   26.8067   44.2976 H   0  0  0  0  0  0  0  0  0  0  0  0
   54.0240   26.3160   46.4020 H   0  0  0  0  0  0  0  0  0  0  0  0
   57.7280   29.4648   44.4326 H   0  0  0  0  0  0  0  0  0  0  0  0
   59.9021   34.2698   45.5323 H   0  0  0  0  0  0  0  0  0  0  0  0
   58.4698   34.1758   46.6447 H   0  0  0  0  0  0  0  0  0  0  0  0
   60.8918   35.4157   47.2244 H   0  0  0  0  0  0  0  0  0  0  0  0
   59.6403   34.8448   48.4247 H   0  0  0  0  0  0  0  0  0  0  0  0
   62.3396   35.4273   48.7186 H   0  0  0  0  0  0  0  0  0  0  0  0
   62.0652   34.3143   50.1076 H   0  0  0  0  0  0  0  0  0  0  0  0
   63.7181   33.1670   47.9126 H   0  0  0  0  0  0  0  0  0  0  0  0
   64.4396   34.6101   48.7859 H   0  0  0  0  0  0  0  0  0  0  0  0
   63.3315   31.3178   51.0434 H   0  0  0  0  0  0  0  0  0  0  0  0
   62.5175   31.7013   49.4887 H   0  0  0  0  0  0  0  0  0  0  0  0
   64.0927   30.8379   49.4887 H   0  0  0  0  0  0  0  0  0  0  0  0
   66.0083   32.6627   51.0027 H   0  0  0  0  0  0  0  0  0  0  0  0
   65.9130   31.7694   49.4472 H   0  0  0  0  0  0  0  0  0  0  0  0
   66.1435   33.5508   49.4472 H   0  0  0  0  0  0  0  0  0  0  0  0
   62.3061   33.4222   46.3850 H   0  0  0  0  0  0  0  0  0  0  0  0
   62.8300   32.2607   47.6388 H   0  0  0  0  0  0  0  0  0  0  0  0
   61.2693   31.3694   45.7565 H   0  0  0  0  0  0  0  0  0  0  0  0
   60.8147   30.9946   47.4665 H   0  0  0  0  0  0  0  0  0  0  0  0
   60.4416   29.7981   48.9215 H   0  0  0  0  0  0  0  0  0  0  0  0
   59.5490   31.3034   48.4810 H   0  0  0  0  0  0  0  0  0  0  0  0
   59.1432   30.1702   50.8366 H   0  0  0  0  0  0  0  0  0  0  0  0
   57.7561   30.8181   49.8970 H   0  0  0  0  0  0  0  0  0  0  0  0
   58.0953   29.0542   49.8970 H   0  0  0  0  0  0  0  0  0  0  0  0
  1  2  2  0
  2  3  1  0
  3  4  2  3
  4  5  1  0
  5  6  1  0
  6  7  1  0
  7  8  2  0
  7  9  1  0
  9 10  1  0
 10 11  1  0
  3 12  1  0
 12 13  2  0
 13 14  1  0
 14 15  2  0
 14 16  1  0
 16 17  1  0
 17 18  1  0
 18 19  1  0
 19 20  1  0
 20 21  1  0
 21 22  1  0
 22 23  1  0
 22 24  1  0
 19 25  1  0
 25 26  1  0
 13 27  1  0
 27 28  1  0
 28 29  1  0
 27  2  1  0
 10  5  2  0
 26 16  1  0
  1 30  1  0
  1 31  1  0
  4 32  1  0
 11 33  1  0
 12 34  1  0
 17 35  1  0
 17 36  1  0
 18 37  1  0
 18 38  1  0
 20 39  1  0
 20 40  1  0
 21 41  1  0
 21 42  1  0
 23 43  1  0
 23 44  1  0
 23 45  1  0
 24 46  1  0
 24 47  1  0
 24 48  1  0
 25 49  1  0
 25 50  1  0
 26 51  1  0
 26 52  1  0
 28 53  1  0
 28 54  1  0
 29 55  1  0
 29 56  1  0
 29 57  1  0
M  CHG  2   6  -1   9  -1
M  END
>  <UniqueID>  (79) 
75

>  <SMILES>  (79) 
C=c1c(=Cc2[n-]c(=O)[n-]c2O)cc(C(=O)N2CCN(CCN(C)C)CC2)n1CC

>  <Energy>  (79) 
137.56059816801502

>  <Genealogy>  (79) 
C=c1c(=Cc2[n-]c(=O)[n-]c2O)cc(C(=O)N2CCN(CCN(C)C)CC2)n1CC (protonated)
C=c1c(=Cc2[n-]c(=O)[n-]c2O)cc(C(=O)N2CCN(CCN(C)C)CC2)n1CC (3D coordinates assigned)
C=c1c(=Cc2[n-]c(=O)[n-]c2O)cc(C(=O)N2CCN(CCN(C)C)CC2)n1CC (nonaromatic ring conformer: 137.56059816801502 kcal/mol)

>  <smiles>  (79) 
C=c1c(=Cc2[nH]c(=O)[nH]c2O)cc(C(=O)N2CCN(CCN(C)C)CC2)n1CC

>  <score_type>  (79) 
oracle

>  <origin>  (79) 
adg

>  <m_score__min__energy>  (79) 
-12.98

>  <m_primary>  (79) 
energy

$$$$
79:0
     RDKit          3D

 53 55  0  0  0  0  0  0  0  0999 V2000
   55.9190   29.5500   46.0010 H   0  0  0  0  0  0  0  0  0  0  0  0
   56.1640   28.8350   45.3280 O   0  0  0  0  0  0  0  0  0  0  0  0
   56.2670   27.5030   45.7160 C   0  0  0  0  0  0  0  0  0  0  0  0
   55.2110   26.7190   45.9940 N   0  0  0  0  0  0  0  0  0  0  0  0
   55.7940   25.5550   46.3530 C   0  0  0  0  0  0  0  0  0  0  0  0
   55.1300   24.5410   46.6950 O   0  0  0  0  0  0  0  0  0  0  0  0
   57.1440   25.5630   46.3230 N   0  0  0  0  0  0  0  0  0  0  0  0
   57.4380   26.8000   45.8900 C   0  0  0  0  0  0  0  0  0  0  0  0
   58.8060   27.3330   45.8100 C   0  0  0  0  0  0  0  0  0  0  0  0
   59.5666   26.6922   45.3399 H   0  0  0  0  0  0  0  0  0  0  0  0
   59.2110   28.5360   46.2610 C   0  0  0  0  0  0  0  0  0  0  0  0
   59.7490   28.7140   47.5240 C   0  0  0  0  0  0  0  0  0  0  0  0
   59.9529   27.9282   48.2663 H   0  0  0  0  0  0  0  0  0  0  0  0
   59.9800   30.0630   47.6730 C   0  0  0  0  0  0  0  0  0  0  0  0
   60.5000   30.6950   48.8970 C   0  0  0  0  0  0  0  0  0  0  0  0
   59.8530   30.5400   49.9680 O   0  0  0  0  0  0  0  0  0  0  0  0
   61.6770   31.5300   48.8690 N   0  0  0  0  0  0  0  0  0  0  0  0
   62.0040   32.3960   50.0130 C   0  0  0  0  0  0  0  0  0  0  0  0
   61.1630   32.3964   50.7220 H   0  0  0  0  0  0  0  0  0  0  0  0
   62.9087   32.0142   50.5087 H   0  0  0  0  0  0  0  0  0  0  0  0
   62.2610   33.8290   49.5280 C   0  0  0  0  0  0  0  0  0  0  0  0
   61.2988   34.2777   49.2402 H   0  0  0  0  0  0  0  0  0  0  0  0
   62.7411   34.3712   50.3560 H   0  0  0  0  0  0  0  0  0  0  0  0
   63.2200   33.9040   48.3150 C   0  0  0  0  0  0  0  0  0  0  0  0
   62.6918   34.3923   47.4828 H   0  0  0  0  0  0  0  0  0  0  0  0
   64.1056   34.4718   48.6364 H   0  0  0  0  0  0  0  0  0  0  0  0
   63.7120   32.5290   47.8390 C   0  0  0  0  0  0  0  0  0  0  0  0
   64.2216   32.6444   46.8710 H   0  0  0  0  0  0  0  0  0  0  0  0
   64.4037   32.1238   48.5923 H   0  0  0  0  0  0  0  0  0  0  0  0
   62.5410   31.5540   47.6760 C   0  0  0  0  0  0  0  0  0  0  0  0
   61.9400   31.8618   46.8076 H   0  0  0  0  0  0  0  0  0  0  0  0
   62.9546   30.5447   47.5338 H   0  0  0  0  0  0  0  0  0  0  0  0
   59.6490   30.7310   46.5450 N   0  0  0  0  0  0  0  0  0  0  0  0
   59.8070   32.1790   46.3360 C   0  0  0  0  0  0  0  0  0  0  0  0
   60.5920   32.5589   47.0064 H   0  0  0  0  0  0  0  0  0  0  0  0
   60.0863   32.3609   45.2877 H   0  0  0  0  0  0  0  0  0  0  0  0
   58.4950   32.9040   46.6340 C   0  0  0  0  0  0  0  0  0  0  0  0
   57.9820   32.3911   47.4609 H   0  0  0  0  0  0  0  0  0  0  0  0
   58.7271   33.9444   46.9056 H   0  0  0  0  0  0  0  0  0  0  0  0
   57.4210   32.9200   45.2020 S   0  0  0  0  0  0  0  0  0  0  0  0
   56.6440   31.6340   45.1570 O   0  0  0  0  0  0  0  0  0  0  0  0
   56.4590   34.0670   45.3310 O   0  0  0  0  0  0  0  0  0  0  0  0
   58.3370   33.0950   43.6750 C   0  0  0  0  0  0  0  0  0  0  0  0
   58.3669   34.1585   43.3954 H   0  0  0  0  0  0  0  0  0  0  0  0
   59.3530   32.7045   43.8341 H   0  0  0  0  0  0  0  0  0  0  0  0
   57.6910   32.3040   42.5460 C   0  0  0  0  0  0  0  0  0  0  0  0
   57.0489   31.5178   42.9698 H   0  0  0  0  0  0  0  0  0  0  0  0
   57.0830   32.9794   41.9262 H   0  0  0  0  0  0  0  0  0  0  0  0
   58.4743   31.8432   41.9262 H   0  0  0  0  0  0  0  0  0  0  0  0
   59.1900   29.8070   45.6600 C   0  0  0  0  0  0  0  0  0  0  0  0
   58.8860   30.0920   44.3820 C   0  0  0  0  0  0  0  0  0  0  0  0
   58.9060   31.1344   44.0312 H   0  0  0  0  0  0  0  0  0  0  0  0
   58.6173   29.2828   43.6870 H   0  0  0  0  0  0  0  0  0  0  0  0
  1  2  1  0
  2  3  1  0
  3  4  1  0
  4  5  1  0
  5  6  2  0
  5  7  1  0
  7  8  1  0
  8  9  1  0
  9 10  1  0
  9 11  2  0
 11 12  1  0
 12 13  1  0
 12 14  2  0
 14 15  1  0
 15 16  2  0
 15 17  1  0
 17 18  1  0
 18 19  1  0
 18 20  1  0
 18 21  1  0
 21 22  1  0
 21 23  1  0
 21 24  1  0
 24 25  1  0
 24 26  1  0
 24 27  1  0
 27 28  1  0
 27 29  1  0
 27 30  1  0
 30 31  1  0
 30 32  1  0
 14 33  1  0
 33 34  1  0
 34 35  1  0
 34 36  1  0
 34 37  1  0
 37 38  1  0
 37 39  1  0
 37 40  1  0
 40 41  2  0
 40 42  2  0
 40 43  1  0
 43 44  1  0
 43 45  1  0
 43 46  1  0
 46 47  1  0
 46 48  1  0
 46 49  1  0
 33 50  1  0
 50 51  2  0
 51 52  1  0
 51 53  1  0
  8  3  2  0
 50 11  1  0
 30 17  1  0
M  CHG  2   4  -1   7  -1
M  END
>  <UniqueID>  (80) 
76

>  <SMILES>  (80) 
C=c1/c(=C\c2[n-]c(=O)[n-]c2O)cc(C(=O)N2CCCCC2)n1CCS(=O)(=O)CC

>  <Energy>  (80) 
117.33610310206818

>  <Genealogy>  (80) 
C=c1c(=Cc2[n-]c(=O)[n-]c2O)cc(C(=O)N2CCCCC2)n1CCS(=O)(=O)CC (protonated)
C=c1/c(=C\c2[n-]c(=O)[n-]c2O)cc(C(=O)N2CCCCC2)n1CCS(=O)(=O)CC (cis-trans isomerization)
C=c1/c(=C\c2[n-]c(=O)[n-]c2O)cc(C(=O)N2CCCCC2)n1CCS(=O)(=O)CC (3D coordinates assigned)
C=c1/c(=C\c2[n-]c(=O)[n-]c2O)cc(C(=O)N2CCCCC2)n1CCS(=O)(=O)CC (nonaromatic ring conformer: 117.33610310206818 kcal/mol)

>  <smiles>  (80) 
C=c1c(=Cc2[nH]c(=O)[nH]c2O)cc(C(=O)N2CCCCC2)n1CCS(=O)(=O)CC

>  <score_type>  (80) 
oracle

>  <origin>  (80) 
adg

>  <m_score__min__energy>  (80) 
-13.720000000000001

>  <m_primary>  (80) 
energy

$$$$
80:0
     RDKit          3D

 58 61  0  0  0  0  0  0  0  0999 V2000
   60.3340   27.7160   45.9780 C   0  0  0  0  0  0  0  0  0  0  0  0
   59.2240   28.4020   45.6630 C   0  0  0  0  0  0  0  0  0  0  0  0
   58.0860   27.9010   45.0070 C   0  0  0  0  0  0  0  0  0  0  0  0
   57.7040   26.6390   44.7330 C   0  0  0  0  0  0  0  0  0  0  0  0
   57.1560   25.6750   45.7010 C   0  0  0  0  0  0  0  0  0  0  0  0
   57.8610   24.6890   46.2890 N   0  0  0  0  0  0  0  0  0  0  0  0
   56.9940   24.1830   47.1940 C   0  0  0  0  0  0  0  0  0  0  0  0
   57.2840   23.2150   47.9440 O   0  0  0  0  0  0  0  0  0  0  0  0
   55.7960   24.8040   47.2390 N   0  0  0  0  0  0  0  0  0  0  0  0
   55.9220   25.7540   46.2990 C   0  0  0  0  0  0  0  0  0  0  0  0
   54.9330   26.6830   46.0000 O   0  0  0  0  0  0  0  0  0  0  0  0
   57.3310   29.0030   44.6490 C   0  0  0  0  0  0  0  0  0  0  0  0
   57.9830   30.1170   45.1360 C   0  0  0  0  0  0  0  0  0  0  0  0
   57.4960   31.4980   44.9470 C   0  0  0  0  0  0  0  0  0  0  0  0
   56.2580   31.7100   44.8450 O   0  0  0  0  0  0  0  0  0  0  0  0
   58.4220   32.5840   44.8240 N   0  0  0  0  0  0  0  0  0  0  0  0
   58.3420   33.8040   45.6180 C   0  0  0  0  0  0  0  0  0  0  0  0
   59.3810   33.7700   46.7030 C   0  0  0  0  0  0  0  0  0  0  0  0
   60.7200   34.0680   46.4090 C   0  0  0  0  0  0  0  0  0  0  0  0
   61.6690   34.1250   47.4330 C   0  0  0  0  0  0  0  0  0  0  0  0
   61.2920   33.8730   48.7540 C   0  0  0  0  0  0  0  0  0  0  0  0
   59.9620   33.5390   49.0640 C   0  0  0  0  0  0  0  0  0  0  0  0
   59.5580   33.2480   50.4600 C   0  0  0  0  0  0  0  0  0  0  0  0
   59.2840   34.2080   51.2320 O   0  0  0  0  0  0  0  0  0  0  0  0
   59.4500   31.8970   50.9470 N   0  0  0  0  0  0  0  0  0  0  0  0
   59.6560   31.6000   52.3680 C   0  0  0  0  0  0  0  0  0  0  0  0
   58.3420   31.1090   53.0080 C   0  0  0  0  0  0  0  0  0  0  0  0
   57.4890   30.3010   52.0910 N   0  0  0  0  0  0  0  0  0  0  0  0
   56.2840   31.0380   51.6710 C   0  0  0  0  0  0  0  0  0  0  0  0
   58.2260   29.7410   50.9370 C   0  0  0  0  0  0  0  0  0  0  0  0
   58.8840   30.8430   50.0890 C   0  0  0  0  0  0  0  0  0  0  0  0
   59.0060   33.5190   48.0340 C   0  0  0  0  0  0  0  0  0  0  0  0
   59.1150   29.7530   45.7870 N   0  0  0  0  0  0  0  0  0  0  0  0
   60.0510   30.6590   46.4640 C   0  0  0  0  0  0  0  0  0  0  0  0
   61.1640   28.2200   46.4948 H   0  0  0  0  0  0  0  0  0  0  0  0
   60.4136   26.6498   45.7193 H   0  0  0  0  0  0  0  0  0  0  0  0
   57.8111   26.2981   43.6927 H   0  0  0  0  0  0  0  0  0  0  0  0
   56.3881   28.9931   44.0826 H   0  0  0  0  0  0  0  0  0  0  0  0
   58.5186   34.6748   44.9695 H   0  0  0  0  0  0  0  0  0  0  0  0
   57.3429   33.8788   46.0720 H   0  0  0  0  0  0  0  0  0  0  0  0
   61.0238   34.2574   45.3689 H   0  0  0  0  0  0  0  0  0  0  0  0
   62.7156   34.3689   47.1981 H   0  0  0  0  0  0  0  0  0  0  0  0
   62.0408   33.9363   49.5573 H   0  0  0  0  0  0  0  0  0  0  0  0
   60.4227   30.8176   52.4678 H   0  0  0  0  0  0  0  0  0  0  0  0
   59.9835   32.5162   52.8812 H   0  0  0  0  0  0  0  0  0  0  0  0
   58.5926   30.4908   53.8827 H   0  0  0  0  0  0  0  0  0  0  0  0
   57.7630   32.0050   53.2762 H   0  0  0  0  0  0  0  0  0  0  0  0
   55.7320   31.3756   52.5606 H   0  0  0  0  0  0  0  0  0  0  0  0
   56.5789   31.9105   51.0695 H   0  0  0  0  0  0  0  0  0  0  0  0
   55.6416   30.3781   51.0695 H   0  0  0  0  0  0  0  0  0  0  0  0
   59.0085   29.0635   51.3093 H   0  0  0  0  0  0  0  0  0  0  0  0
   57.5072   29.2038   50.3008 H   0  0  0  0  0  0  0  0  0  0  0  0
   59.6888   30.4000   49.4840 H   0  0  0  0  0  0  0  0  0  0  0  0
   58.1181   31.2916   49.4392 H   0  0  0  0  0  0  0  0  0  0  0  0
   57.9536   33.3047   48.2720 H   0  0  0  0  0  0  0  0  0  0  0  0
   59.9411   30.5527   47.5533 H   0  0  0  0  0  0  0  0  0  0  0  0
   61.0813   30.4063   46.1730 H   0  0  0  0  0  0  0  0  0  0  0  0
   59.8319   31.6969   46.1730 H   0  0  0  0  0  0  0  0  0  0  0  0
  1  2  2  0
  2  3  1  0
  3  4  2  3
  4  5  1  0
  5  6  1  0
  6  7  1  0
  7  8  2  0
  7  9  1  0
  9 10  1  0
 10 11  1  0
  3 12  1  0
 12 13  2  0
 13 14  1  0
 14 15  2  0
 14 16  1  0
 16 17  1  0
 17 18  1  0
 18 19  2  0
 19 20  1  0
 20 21  2  0
 21 22  1  0
 22 23  1  0
 23 24  2  0
 23 25  1  0
 25 26  1  0
 26 27  1  0
 27 28  1  0
 28 29  1  0
 28 30  1  0
 30 31  1  0
 22 32  2  0
 13 33  1  0
 33 34  1  0
 33  2  1  0
 10  5  2  0
 32 18  1  0
 31 25  1  0
  1 35  1  0
  1 36  1  0
  4 37  1  0
 12 38  1  0
 17 39  1  0
 17 40  1  0
 19 41  1  0
 20 42  1  0
 21 43  1  0
 26 44  1  0
 26 45  1  0
 27 46  1  0
 27 47  1  0
 29 48  1  0
 29 49  1  0
 29 50  1  0
 30 51  1  0
 30 52  1  0
 31 53  1  0
 31 54  1  0
 32 55  1  0
 34 56  1  0
 34 57  1  0
 34 58  1  0
M  CHG  4   6  -1   9  -1  11  -1  16  -1
M  END
>  <UniqueID>  (81) 
77

>  <SMILES>  (81) 
C=c1c(=Cc2[n-]c(=O)[n-]c2[O-])cc(C(=O)[N-]Cc2cccc(C(=O)N3CCN(C)CC3)c2)n1C

>  <Energy>  (81) 
143.95617736989766

>  <Genealogy>  (81) 
C=c1c(=Cc2[n-]c(=O)[n-]c2[O-])cc(C(=O)[N-]Cc2cccc(C(=O)N3CCN(C)CC3)c2)n1C (protonated)
C=c1c(=Cc2[n-]c(=O)[n-]c2[O-])cc(C(=O)[N-]Cc2cccc(C(=O)N3CCN(C)CC3)c2)n1C (3D coordinates assigned)
C=c1c(=Cc2[n-]c(=O)[n-]c2[O-])cc(C(=O)[N-]Cc2cccc(C(=O)N3CCN(C)CC3)c2)n1C (nonaromatic ring conformer: 143.95617736989766 kcal/mol)

>  <smiles>  (81) 
C=c1c(=Cc2[nH]c(=O)[nH]c2O)cc(C(=O)NCc2cccc(C(=O)N3CCN(C)CC3)c2)n1C

>  <score_type>  (81) 
oracle

>  <origin>  (81) 
adg

>  <m_score__min__energy>  (81) 
-20.030000000000001

>  <m_primary>  (81) 
energy

$$$$
81:0
     RDKit          3D

 66 70  0  0  0  0  0  0  0  0999 V2000
   56.2430   26.5400   44.6680 H   0  0  0  0  0  0  0  0  0  0  0  0
   57.0080   26.8640   45.2480 O   0  0  0  0  0  0  0  0  0  0  0  0
   57.4300   28.1930   45.2410 C   0  0  0  0  0  0  0  0  0  0  0  0
   58.7850   28.4780   45.4330 C   0  0  0  0  0  0  0  0  0  0  0  0
   59.4987   27.6575   45.5983 H   0  0  0  0  0  0  0  0  0  0  0  0
   59.2370   29.7990   45.4160 C   0  0  0  0  0  0  0  0  0  0  0  0
   60.3012   30.0162   45.5904 H   0  0  0  0  0  0  0  0  0  0  0  0
   58.3380   30.8520   45.1770 C   0  0  0  0  0  0  0  0  0  0  0  0
   58.7950   32.2560   45.1050 C   0  0  0  0  0  0  0  0  0  0  0  0
   59.4936   32.5218   44.2980 H   0  0  0  0  0  0  0  0  0  0  0  0
   58.4220   33.2340   45.9510 C   0  0  0  0  0  0  0  0  0  0  0  0
   57.3680   33.2550   46.2652 H   0  0  0  0  0  0  0  0  0  0  0  0
   59.3130   34.2830   46.4930 C   0  0  0  0  0  0  0  0  0  0  0  0
   59.3430   35.4020   45.9140 O   0  0  0  0  0  0  0  0  0  0  0  0
   60.1690   34.0760   47.6800 C   0  0  0  0  0  0  0  0  0  0  0  0
   59.7360   34.1250   49.0020 C   0  0  0  0  0  0  0  0  0  0  0  0
   58.7204   34.4010   49.3218 H   0  0  0  0  0  0  0  0  0  0  0  0
   60.7450   33.7840   49.8370 N   0  0  0  0  0  0  0  0  0  0  0  0
   60.6600   33.7060   51.2970 C   0  0  0  0  0  0  0  0  0  0  0  0
   61.2295   32.8312   51.6441 H   0  0  0  0  0  0  0  0  0  0  0  0
   61.0768   34.6311   51.7219 H   0  0  0  0  0  0  0  0  0  0  0  0
   59.2290   33.5730   51.7490 C   0  0  0  0  0  0  0  0  0  0  0  0
   58.4780   34.5870   51.7140 O   0  0  0  0  0  0  0  0  0  0  0  0
   58.6910   32.3010   52.1650 N   0  0  0  0  0  0  0  0  0  0  0  0
   59.3790   31.0430   51.8270 C   0  0  0  0  0  0  0  0  0  0  0  0
   59.9006   31.1632   50.8660 H   0  0  0  0  0  0  0  0  0  0  0  0
   60.0994   30.8076   52.6243 H   0  0  0  0  0  0  0  0  0  0  0  0
   58.3750   29.8930   51.7140 C   0  0  0  0  0  0  0  0  0  0  0  0
   57.6719   30.1128   50.8971 H   0  0  0  0  0  0  0  0  0  0  0  0
   58.9351   28.9676   51.5143 H   0  0  0  0  0  0  0  0  0  0  0  0
   57.5750   29.6990   53.0260 C   0  0  0  0  0  0  0  0  0  0  0  0
   58.2133   29.0968   53.6893 H   0  0  0  0  0  0  0  0  0  0  0  0
   56.2830   28.8710   52.8140 C   0  0  0  0  0  0  0  0  0  0  0  0
   56.3706   28.3385   51.8555 H   0  0  0  0  0  0  0  0  0  0  0  0
   56.2014   28.1954   53.6783 H   0  0  0  0  0  0  0  0  0  0  0  0
   55.0070   29.6860   52.7860 C   0  0  0  0  0  0  0  0  0  0  0  0
   54.6850   30.4630   51.6590 C   0  0  0  0  0  0  0  0  0  0  0  0
   55.3595   30.4713   50.7901 H   0  0  0  0  0  0  0  0  0  0  0  0
   53.5130   31.2250   51.6360 C   0  0  0  0  0  0  0  0  0  0  0  0
   53.2744   31.8394   50.7553 H   0  0  0  0  0  0  0  0  0  0  0  0
   52.6440   31.2070   52.7310 C   0  0  0  0  0  0  0  0  0  0  0  0
   51.7260   31.8129   52.7149 H   0  0  0  0  0  0  0  0  0  0  0  0
   52.9420   30.4190   53.8460 C   0  0  0  0  0  0  0  0  0  0  0  0
   52.2542   30.3991   54.7043 H   0  0  0  0  0  0  0  0  0  0  0  0
   54.1130   29.6560   53.8720 C   0  0  0  0  0  0  0  0  0  0  0  0
   54.3369   29.0282   54.7470 H   0  0  0  0  0  0  0  0  0  0  0  0
   57.3310   31.0300   53.7880 C   0  0  0  0  0  0  0  0  0  0  0  0
   56.3338   30.9925   54.2508 H   0  0  0  0  0  0  0  0  0  0  0  0
   58.1263   31.1315   54.5411 H   0  0  0  0  0  0  0  0  0  0  0  0
   57.4010   32.2580   52.8740 C   0  0  0  0  0  0  0  0  0  0  0  0
   56.5850   32.2083   52.1380 H   0  0  0  0  0  0  0  0  0  0  0  0
   57.3028   33.1649   53.4888 H   0  0  0  0  0  0  0  0  0  0  0  0
   61.8220   33.5460   49.0600 C   0  0  0  0  0  0  0  0  0  0  0  0
   63.1040   33.1660   49.4660 C   0  0  0  0  0  0  0  0  0  0  0  0
   63.3426   33.0217   50.5301 H   0  0  0  0  0  0  0  0  0  0  0  0
   64.0790   32.9740   48.4720 C   0  0  0  0  0  0  0  0  0  0  0  0
   65.0963   32.6678   48.7573 H   0  0  0  0  0  0  0  0  0  0  0  0
   63.7630   33.1710   47.1110 C   0  0  0  0  0  0  0  0  0  0  0  0
   64.5358   33.0202   46.3428 H   0  0  0  0  0  0  0  0  0  0  0  0
   62.4660   33.5590   46.7310 C   0  0  0  0  0  0  0  0  0  0  0  0
   62.2125   33.7284   45.6741 H   0  0  0  0  0  0  0  0  0  0  0  0
   61.5090   33.7230   47.7350 C   0  0  0  0  0  0  0  0  0  0  0  0
   56.9720   30.5680   45.0290 C   0  0  0  0  0  0  0  0  0  0  0  0
   56.2533   31.3904   44.8981 H   0  0  0  0  0  0  0  0  0  0  0  0
   56.5190   29.2440   45.0470 C   0  0  0  0  0  0  0  0  0  0  0  0
   55.1650   28.9820   44.8680 O   0  0  0  0  0  0  0  0  0  0  0  0
  1  2  1  0
  2  3  1  0
  3  4  2  0
  4  5  1  0
  4  6  1  0
  6  7  1  0
  6  8  2  0
  8  9  1  0
  9 10  1  0
  9 11  2  0
 11 12  1  0
 11 13  1  0
 13 14  2  0
 13 15  1  0
 15 16  2  0
 16 17  1  0
 16 18  1  0
 18 19  1  0
 19 20  1  0
 19 21  1  0
 19 22  1  0
 22 23  2  0
 22 24  1  0
 24 25  1  0
 25 26  1  0
 25 27  1  0
 25 28  1  0
 28 29  1  0
 28 30  1  0
 28 31  1  0
 31 32  1  0
 31 33  1  0
 33 34  1  0
 33 35  1  0
 33 36  1  0
 36 37  2  0
 37 38  1  0
 37 39  1  0
 39 40  1  0
 39 41  2  0
 41 42  1  0
 41 43  1  0
 43 44  1  0
 43 45  2  0
 45 46  1  0
 31 47  1  0
 47 48  1  0
 47 49  1  0
 47 50  1  0
 50 51  1  0
 50 52  1  0
 18 53  1  0
 53 54  2  0
 54 55  1  0
 54 56  1  0
 56 57  1  0
 56 58  2  0
 58 59  1  0
 58 60  1  0
 60 61  1  0
 60 62  2  0
  8 63  1  0
 63 64  1  0
 63 65  2  0
 65 66  1  0
 65  3  1  0
 62 15  1  0
 50 24  1  0
 62 53  1  0
 45 36  1  0
M  CHG  1  66  -1
M  END
>  <UniqueID>  (82) 
78

>  <SMILES>  (82) 
O=C(/C=C\c1ccc(O)c([O-])c1)c1cn(CC(=O)N2CCC(Cc3ccccc3)CC2)c2ccccc12

>  <Energy>  (82) 
115.39017817028916

>  <Genealogy>  (82) 
O=C(C=Cc1ccc(O)c([O-])c1)c1cn(CC(=O)N2CCC(Cc3ccccc3)CC2)c2ccccc12 (protonated)
O=C(/C=C\c1ccc(O)c([O-])c1)c1cn(CC(=O)N2CCC(Cc3ccccc3)CC2)c2ccccc12 (cis-trans isomerization)
O=C(/C=C\c1ccc(O)c([O-])c1)c1cn(CC(=O)N2CCC(Cc3ccccc3)CC2)c2ccccc12 (3D coordinates assigned)
O=C(/C=C\c1ccc(O)c([O-])c1)c1cn(CC(=O)N2CCC(Cc3ccccc3)CC2)c2ccccc12 (nonaromatic ring conformer: 115.39017817028916 kcal/mol)

>  <smiles>  (82) 
O=C(C=Cc1ccc(O)c(O)c1)c1cn(CC(=O)N2CCC(Cc3ccccc3)CC2)c2ccccc12

>  <score_type>  (82) 
oracle

>  <origin>  (82) 
adg

>  <m_score__min__energy>  (82) 
-14.369999999999999

>  <m_primary>  (82) 
energy

$$$$
82:0
     RDKit          3D

 38 40  0  0  0  0  0  0  0  0999 V2000
   57.7500   32.3080   42.1070 C   0  0  0  0  0  0  0  0  0  0  0  0
   58.0810   31.9700   43.3490 C   0  0  0  0  0  0  0  0  0  0  0  0
   58.4320   30.6610   43.7670 N   0  0  0  0  0  0  0  0  0  0  0  0
   58.7300   30.7540   45.1640 C   0  0  0  0  0  0  0  0  0  0  0  0
   59.3710   29.6200   45.9030 C   0  0  0  0  0  0  0  0  0  0  0  0
   58.5570   32.0050   45.6330 C   0  0  0  0  0  0  0  0  0  0  0  0
   58.8710   32.5170   47.0220 C   0  0  0  0  0  0  0  0  0  0  0  0
   59.3150   33.9380   47.0930 N   0  0  1  0  0  0  0  0  0  0  0  0
   59.3100   34.5370   48.4500 C   0  0  0  0  0  0  0  0  0  0  0  0
   60.5820   34.2740   49.2930 C   0  0  0  0  0  0  0  0  0  0  0  0
   61.7980   33.8570   48.5100 C   0  0  0  0  0  0  0  0  0  0  0  0
   62.9620   33.4840   49.2020 C   0  0  0  0  0  0  0  0  0  0  0  0
   64.1060   33.0930   48.5020 C   0  0  0  0  0  0  0  0  0  0  0  0
   64.1020   33.0830   47.1070 C   0  0  0  0  0  0  0  0  0  0  0  0
   62.9510   33.4560   46.4080 C   0  0  0  0  0  0  0  0  0  0  0  0
   61.7880   33.8210   47.1050 C   0  0  0  0  0  0  0  0  0  0  0  0
   60.5580   34.2360   46.3520 C   0  0  0  0  0  0  0  0  0  0  0  0
   58.1740   32.8440   44.4980 C   0  0  0  0  0  0  0  0  0  0  0  0
   58.0240   34.0950   44.5050 O   0  0  0  0  0  0  0  0  0  0  0  0
   57.4910   33.3508   41.8713 H   0  0  0  0  0  0  0  0  0  0  0  0
   57.7350   31.5450   41.3148 H   0  0  0  0  0  0  0  0  0  0  0  0
   58.5310   29.8150   43.1620 H   0  0  0  0  0  0  0  0  0  0  0  0
   59.2761   29.7879   46.9860 H   0  0  0  0  0  0  0  0  0  0  0  0
   58.8720   28.6777   45.6329 H   0  0  0  0  0  0  0  0  0  0  0  0
   60.4357   29.5616   45.6329 H   0  0  0  0  0  0  0  0  0  0  0  0
   57.9636   32.4137   47.6352 H   0  0  0  0  0  0  0  0  0  0  0  0
   59.7185   31.9157   47.3829 H   0  0  0  0  0  0  0  0  0  0  0  0
   58.5680   34.4570   46.5710 H   0  0  0  0  0  0  0  0  0  0  0  0
   59.1934   35.6253   48.3408 H   0  0  0  0  0  0  0  0  0  0  0  0
   58.4812   34.0576   48.9915 H   0  0  0  0  0  0  0  0  0  0  0  0
   60.8277   35.1991   49.8351 H   0  0  0  0  0  0  0  0  0  0  0  0
   60.3400   33.4276   49.9526 H   0  0  0  0  0  0  0  0  0  0  0  0
   62.9729   33.4999   50.3018 H   0  0  0  0  0  0  0  0  0  0  0  0
   65.0106   32.7928   49.0512 H   0  0  0  0  0  0  0  0  0  0  0  0
   65.0055   32.7813   46.5569 H   0  0  0  0  0  0  0  0  0  0  0  0
   62.9560   33.4637   45.3080 H   0  0  0  0  0  0  0  0  0  0  0  0
   60.6068   35.3190   46.1656 H   0  0  0  0  0  0  0  0  0  0  0  0
   60.5324   33.6652   45.4120 H   0  0  0  0  0  0  0  0  0  0  0  0
  1  2  2  0
  2  3  1  0
  3  4  1  0
  4  5  1  0
  4  6  2  0
  6  7  1  0
  7  8  1  0
  8  9  1  0
  9 10  1  0
 10 11  1  0
 11 12  2  0
 12 13  1  0
 13 14  2  0
 14 15  1  0
 15 16  2  0
 16 17  1  0
  6 18  1  0
 18 19  2  0
 18  2  1  0
 17  8  1  0
 16 11  1  0
  1 20  1  0
  1 21  1  0
  3 22  1  0
  5 23  1  0
  5 24  1  0
  5 25  1  0
  7 26  1  0
  7 27  1  0
  8 28  1  6
  9 29  1  0
  9 30  1  0
 10 31  1  0
 10 32  1  0
 12 33  1  0
 13 34  1  0
 14 35  1  0
 15 36  1  0
 17 37  1  0
 17 38  1  0
M  CHG  1   8   1
M  END
>  <UniqueID>  (83) 
79

>  <SMILES>  (83) 
C=C1NC(C)=C(C[N@H+]2CCc3ccccc3C2)C1=O

>  <Energy>  (83) 
75.05765184238459

>  <Genealogy>  (83) 
C=C1NC(C)=C(C[NH+]2CCc3ccccc3C2)C1=O (protonated)
C=C1NC(C)=C(C[N@H+]2CCc3ccccc3C2)C1=O (chirality)
C=C1NC(C)=C(C[N@H+]2CCc3ccccc3C2)C1=O (3D coordinates assigned)
C=C1NC(C)=C(C[N@H+]2CCc3ccccc3C2)C1=O (nonaromatic ring conformer: 75.05765184238459 kcal/mol)

>  <smiles>  (83) 
C=C1NC(C)=C(CN2CCc3ccccc3C2)C1=O

>  <score_type>  (83) 
oracle

>  <origin>  (83) 
adg

>  <m_score__min__energy>  (83) 
-5.8600000000000003

>  <m_primary>  (83) 
energy

$$$$
83:0
     RDKit          3D

 52 56  0  0  0  0  0  0  0  0999 V2000
   54.1030   23.4110   46.3200 C   0  0  0  0  0  0  0  0  0  0  0  0
   55.1250   23.6300   45.5190 C   0  0  0  0  0  0  0  0  0  0  0  0
   55.8860   22.4270   44.4410 S   0  0  0  0  0  0  0  0  0  0  0  0
   57.1160   23.6180   43.8110 C   0  0  0  0  0  0  0  0  0  0  0  0
   56.9430   24.7860   44.3740 C   0  0  0  0  0  0  0  0  0  0  0  0
   57.7700   25.9480   44.0760 C   0  0  0  0  0  0  0  0  0  0  0  0
   57.9030   26.3290   42.8330 O   0  0  0  0  0  0  0  0  0  0  0  0
   58.4850   26.7690   44.9570 N   0  0  0  0  0  0  0  0  0  0  0  0
   59.1660   27.9110   44.3060 C   0  0  0  0  0  0  0  0  0  0  0  0
   58.8880   29.1410   45.1780 C   0  0  0  0  0  0  0  0  0  0  0  0
   59.6550   28.9060   46.3960 N   0  0  0  0  0  0  0  0  0  0  0  0
   60.2750   29.9730   47.1150 C   0  0  0  0  0  0  0  0  0  0  0  0
   59.7020   30.5390   48.2370 C   0  0  0  0  0  0  0  0  0  0  0  0
   60.2800   31.5530   48.9610 C   0  0  0  0  0  0  0  0  0  0  0  0
   61.5040   32.0750   48.5900 C   0  0  0  0  0  0  0  0  0  0  0  0
   62.0680   33.1190   49.4110 C   0  0  0  0  0  0  0  0  0  0  0  0
   61.2830   34.0570   49.7540 O   0  0  0  0  0  0  0  0  0  0  0  0
   63.4340   33.1940   49.8810 C   0  0  0  0  0  0  0  0  0  0  0  0
   63.7620   33.8900   51.0120 N   0  0  0  0  0  0  0  0  0  0  0  0
   65.1060   33.7940   51.1920 C   0  0  0  0  0  0  0  0  0  0  0  0
   65.9080   34.3230   52.1880 C   0  0  0  0  0  0  0  0  0  0  0  0
   67.2800   34.0910   52.1710 C   0  0  0  0  0  0  0  0  0  0  0  0
   67.8080   33.3260   51.1430 C   0  0  0  0  0  0  0  0  0  0  0  0
   66.9750   32.7980   50.1420 C   0  0  0  0  0  0  0  0  0  0  0  0
   65.6150   33.0360   50.1690 C   0  0  0  0  0  0  0  0  0  0  0  0
   64.5700   32.6750   49.3730 N   0  0  0  0  0  0  0  0  0  0  0  0
   62.0970   31.5340   47.4770 C   0  0  0  0  0  0  0  0  0  0  0  0
   61.5130   30.5030   46.7390 C   0  0  0  0  0  0  0  0  0  0  0  0
   59.7930   27.5580   46.8530 C   0  0  0  0  0  0  0  0  0  0  0  0
   58.6690   26.6640   46.3640 C   0  0  0  0  0  0  0  0  0  0  0  0
   55.8580   24.8550   45.3280 C   0  0  0  0  0  0  0  0  0  0  0  0
   55.5170   25.9110   45.9930 O   0  0  0  0  0  0  0  0  0  0  0  0
   53.7097   24.2261   46.9453 H   0  0  0  0  0  0  0  0  0  0  0  0
   53.6426   22.4130   46.3638 H   0  0  0  0  0  0  0  0  0  0  0  0
   57.8911   23.3873   43.0654 H   0  0  0  0  0  0  0  0  0  0  0  0
   60.2484   27.7241   44.2472 H   0  0  0  0  0  0  0  0  0  0  0  0
   58.7979   28.0603   43.2802 H   0  0  0  0  0  0  0  0  0  0  0  0
   59.2278   30.0587   44.6755 H   0  0  0  0  0  0  0  0  0  0  0  0
   57.8152   29.2774   45.3790 H   0  0  0  0  0  0  0  0  0  0  0  0
   58.7263   30.1555   48.5700 H   0  0  0  0  0  0  0  0  0  0  0  0
   59.7629   31.9536   49.8454 H   0  0  0  0  0  0  0  0  0  0  0  0
   65.4615   34.9262   52.9922 H   0  0  0  0  0  0  0  0  0  0  0  0
   67.9305   34.5052   52.9554 H   0  0  0  0  0  0  0  0  0  0  0  0
   68.8899   33.1302   51.1103 H   0  0  0  0  0  0  0  0  0  0  0  0
   67.4085   32.1920   49.3328 H   0  0  0  0  0  0  0  0  0  0  0  0
   64.6910   32.1110   48.5280 H   0  0  0  0  0  0  0  0  0  0  0  0
   63.0715   31.9285   47.1534 H   0  0  0  0  0  0  0  0  0  0  0  0
   62.0311   30.1043   45.8543 H   0  0  0  0  0  0  0  0  0  0  0  0
   60.7490   27.1565   46.4857 H   0  0  0  0  0  0  0  0  0  0  0  0
   59.7573   27.5711   47.9523 H   0  0  0  0  0  0  0  0  0  0  0  0
   58.9093   25.6203   46.6148 H   0  0  0  0  0  0  0  0  0  0  0  0
   57.7385   26.9844   46.8556 H   0  0  0  0  0  0  0  0  0  0  0  0
  1  2  2  0
  2  3  1  0
  3  4  1  0
  4  5  2  0
  5  6  1  0
  6  7  2  0
  6  8  1  0
  8  9  1  0
  9 10  1  0
 10 11  1  0
 11 12  1  0
 12 13  2  0
 13 14  1  0
 14 15  2  0
 15 16  1  0
 16 17  2  0
 16 18  1  0
 18 19  2  0
 19 20  1  0
 20 21  2  0
 21 22  1  0
 22 23  2  0
 23 24  1  0
 24 25  2  0
 25 26  1  0
 15 27  1  0
 27 28  2  0
 11 29  1  0
 29 30  1  0
  5 31  1  0
 31 32  2  0
 31  2  1  0
 30  8  1  0
 28 12  1  0
 26 18  1  0
 25 20  1  0
  1 33  1  0
  1 34  1  0
  4 35  1  0
  9 36  1  0
  9 37  1  0
 10 38  1  0
 10 39  1  0
 13 40  1  0
 14 41  1  0
 21 42  1  0
 22 43  1  0
 23 44  1  0
 24 45  1  0
 26 46  1  0
 27 47  1  0
 28 48  1  0
 29 49  1  0
 29 50  1  0
 30 51  1  0
 30 52  1  0
M  END
>  <smiles>  (84) 
C=C1SC=C(C(=O)N2CCN(c3ccc(C(=O)c4nc5ccccc5[nH]4)cc3)CC2)C1=O

>  <score_type>  (84) 
oracle

>  <origin>  (84) 
adg

>  <m_score__min__energy>  (84) 
-9.0399999999999991

>  <m_primary>  (84) 
energy

$$$$
84:0
     RDKit          3D

 30 32  0  0  0  0  0  0  0  0999 V2000
   57.7359   25.6214   46.2244 H   0  0  0  0  0  0  0  0  0  0  0  0
   56.8330   26.1990   45.9770 C   0  0  0  0  0  0  0  0  0  0  0  0
   55.8399   25.7366   46.0765 H   0  0  0  0  0  0  0  0  0  0  0  0
   56.9420   27.4550   45.5580 C   0  0  0  0  0  0  0  0  0  0  0  0
   55.8800   28.2260   45.2360 N   0  0  0  0  0  0  0  0  0  0  0  0
   56.2660   29.4670   44.8350 C   0  0  0  0  0  0  0  0  0  0  0  0
   55.4210   30.3330   44.4860 O   0  0  0  0  0  0  0  0  0  0  0  0
   57.6450   29.7020   44.8420 C   0  0  0  0  0  0  0  0  0  0  0  0
   58.2420   30.8400   44.4560 C   0  0  0  0  0  0  0  0  0  0  0  0
   58.9307   30.7892   43.5998 H   0  0  0  0  0  0  0  0  0  0  0  0
   58.0420   32.1570   45.0970 C   0  0  0  0  0  0  0  0  0  0  0  0
   57.0100   33.0750   44.8920 C   0  0  0  0  0  0  0  0  0  0  0  0
   56.1391   32.9038   44.2422 H   0  0  0  0  0  0  0  0  0  0  0  0
   57.2300   34.2030   45.6030 N   0  0  0  0  0  0  0  0  0  0  0  0
   56.6260   35.0540   45.6260 H   0  0  0  0  0  0  0  0  0  0  0  0
   58.3960   34.0170   46.2440 C   0  0  0  0  0  0  0  0  0  0  0  0
   59.0460   34.9140   47.0870 C   0  0  0  0  0  0  0  0  0  0  0  0
   58.6115   35.8997   47.3096 H   0  0  0  0  0  0  0  0  0  0  0  0
   60.2750   34.5210   47.6450 C   0  0  0  0  0  0  0  0  0  0  0  0
   60.8106   35.2084   48.3163 H   0  0  0  0  0  0  0  0  0  0  0  0
   60.8320   33.2540   47.3550 C   0  0  0  0  0  0  0  0  0  0  0  0
   62.0610   32.9190   47.9430 O   0  0  0  0  0  0  0  0  0  0  0  0
   63.3040   32.9040   47.2500 C   0  0  0  0  0  0  0  0  0  0  0  0
   64.1292   32.8940   47.9773 H   0  0  0  0  0  0  0  0  0  0  0  0
   63.3609   32.0051   46.6185 H   0  0  0  0  0  0  0  0  0  0  0  0
   63.3826   33.8013   46.6185 H   0  0  0  0  0  0  0  0  0  0  0  0
   60.1430   32.3680   46.4900 C   0  0  0  0  0  0  0  0  0  0  0  0
   60.5568   31.3779   46.2480 H   0  0  0  0  0  0  0  0  0  0  0  0
   58.9250   32.7870   45.9540 C   0  0  0  0  0  0  0  0  0  0  0  0
   58.3950   28.2780   45.3590 S   0  0  0  0  0  0  0  0  0  0  0  0
  1  2  1  0
  2  3  1  0
  2  4  2  0
  4  5  1  0
  5  6  1  0
  6  7  2  0
  6  8  1  0
  8  9  2  0
  9 10  1  0
  9 11  1  0
 11 12  2  0
 12 13  1  0
 12 14  1  0
 14 15  1  0
 14 16  1  0
 16 17  2  0
 17 18  1  0
 17 19  1  0
 19 20  1  0
 19 21  2  0
 21 22  1  0
 22 23  1  0
 23 24  1  0
 23 25  1  0
 23 26  1  0
 21 27  1  0
 27 28  1  0
 27 29  2  0
  8 30  1  0
 30  4  1  0
 29 11  1  0
 29 16  1  0
M  CHG  1   5  -1
M  END
>  <UniqueID>  (85) 
80

>  <SMILES>  (85) 
C=c1[n-]c(=O)/c(=C/c2c[nH]c3ccc(OC)cc23)s1

>  <Energy>  (85) 
98.99957103100822

>  <Genealogy>  (85) 
C=c1[n-]c(=O)c(=Cc2c[nH]c3ccc(OC)cc23)s1 (protonated)
C=c1[n-]c(=O)/c(=C/c2c[nH]c3ccc(OC)cc23)s1 (cis-trans isomerization)
C=c1[n-]c(=O)/c(=C/c2c[nH]c3ccc(OC)cc23)s1 (3D coordinates assigned)
C=c1[n-]c(=O)/c(=C/c2c[nH]c3ccc(OC)cc23)s1 (optimized conformer: 98.99957103100822 kcal/mol)

>  <smiles>  (85) 
C=c1[nH]c(=O)c(=Cc2c[nH]c3ccc(OC)cc23)s1

>  <score_type>  (85) 
oracle

>  <origin>  (85) 
adg

>  <m_score__min__energy>  (85) 
-9.3599999999999994

>  <m_primary>  (85) 
energy

$$$$
85:0
     RDKit          3D

 43 45  0  0  0  0  0  0  0  0999 V2000
   54.7570   27.0880   46.4080 H   0  0  0  0  0  0  0  0  0  0  0  0
   55.0520   26.2300   45.8920 N   0  0  0  0  0  0  0  0  0  0  0  0
   56.7790   26.2360   45.8470 S   0  0  0  0  0  0  0  0  0  0  0  0
   57.3200   25.5050   47.0430 O   0  0  0  0  0  0  0  0  0  0  0  0
   57.2340   25.5210   44.6060 O   0  0  0  0  0  0  0  0  0  0  0  0
   57.3690   27.9070   45.8450 C   0  0  0  0  0  0  0  0  0  0  0  0
   56.7650   28.8360   44.9850 C   0  0  0  0  0  0  0  0  0  0  0  0
   55.9392   28.5158   44.3327 H   0  0  0  0  0  0  0  0  0  0  0  0
   57.1990   30.1610   44.9470 C   0  0  0  0  0  0  0  0  0  0  0  0
   56.7147   30.8727   44.2622 H   0  0  0  0  0  0  0  0  0  0  0  0
   58.2470   30.5960   45.7730 C   0  0  0  0  0  0  0  0  0  0  0  0
   58.7100   32.0050   45.6950 C   0  0  0  0  0  0  0  0  0  0  0  0
   59.8710   32.3560   46.3160 N   0  0  0  0  0  0  0  0  0  0  0  0
   60.3560   33.6280   46.3150 C   0  0  0  0  0  0  0  0  0  0  0  0
   61.6290   33.9270   47.0110 C   0  0  0  0  0  0  0  0  0  0  0  0
   62.6580   34.1940   46.3350 O   0  0  0  0  0  0  0  0  0  0  0  0
   61.7520   33.8370   48.4400 N   0  0  0  0  0  0  0  0  0  0  0  0
   60.8550   33.3710   49.2600 C   0  0  0  0  0  0  0  0  0  0  0  0
   60.2410   34.1800   50.1700 N   0  0  0  0  0  0  0  0  0  0  0  0
   59.3120   33.7090   51.0420 C   0  0  0  0  0  0  0  0  0  0  0  0
   58.8340   34.3938   51.7580 H   0  0  0  0  0  0  0  0  0  0  0  0
   58.9630   32.3580   51.0310 C   0  0  0  0  0  0  0  0  0  0  0  0
   58.2156   31.9723   51.7399 H   0  0  0  0  0  0  0  0  0  0  0  0
   59.5730   31.4970   50.1090 C   0  0  0  0  0  0  0  0  0  0  0  0
   59.2460   30.0340   50.1090 C   0  0  0  0  0  0  0  0  0  0  0  0
   59.1660   29.6762   51.1461 H   0  0  0  0  0  0  0  0  0  0  0  0
   58.2895   29.8721   49.5905 H   0  0  0  0  0  0  0  0  0  0  0  0
   60.0425   29.4802   49.5905 H   0  0  0  0  0  0  0  0  0  0  0  0
   60.5410   32.0060   49.2310 C   0  0  0  0  0  0  0  0  0  0  0  0
   61.0513   31.3366   48.5229 H   0  0  0  0  0  0  0  0  0  0  0  0
   59.6530   34.6270   45.6270 C   0  0  0  0  0  0  0  0  0  0  0  0
   60.0315   35.6597   45.6089 H   0  0  0  0  0  0  0  0  0  0  0  0
   58.4700   34.3000   44.9660 C   0  0  0  0  0  0  0  0  0  0  0  0
   57.9129   35.0765   44.4213 H   0  0  0  0  0  0  0  0  0  0  0  0
   57.9910   32.9890   44.9940 C   0  0  0  0  0  0  0  0  0  0  0  0
   57.0587   32.7280   44.4719 H   0  0  0  0  0  0  0  0  0  0  0  0
   58.8630   29.6650   46.6310 C   0  0  0  0  0  0  0  0  0  0  0  0
   59.7009   29.9873   47.2666 H   0  0  0  0  0  0  0  0  0  0  0  0
   58.4250   28.3300   46.6890 C   0  0  0  0  0  0  0  0  0  0  0  0
   59.1280   27.3730   47.6150 C   0  0  0  0  0  0  0  0  0  0  0  0
   58.9216   27.6540   48.6583 H   0  0  0  0  0  0  0  0  0  0  0  0
   58.7641   26.3513   47.4316 H   0  0  0  0  0  0  0  0  0  0  0  0
   60.2118   27.4147   47.4316 H   0  0  0  0  0  0  0  0  0  0  0  0
  1  2  1  0
  2  3  1  0
  3  4  2  0
  3  5  2  0
  3  6  1  0
  6  7  2  0
  7  8  1  0
  7  9  1  0
  9 10  1  0
  9 11  2  0
 11 12  1  0
 12 13  2  0
 13 14  1  0
 14 15  1  0
 15 16  2  0
 15 17  1  0
 17 18  2  0
 18 19  1  0
 19 20  1  0
 20 21  1  0
 20 22  2  0
 22 23  1  0
 22 24  1  0
 24 25  1  0
 25 26  1  0
 25 27  1  0
 25 28  1  0
 24 29  2  0
 29 30  1  0
 14 31  2  0
 31 32  1  0
 31 33  1  0
 33 34  1  0
 33 35  2  0
 35 36  1  0
 11 37  1  0
 37 38  1  0
 37 39  2  0
 39 40  1  0
 40 41  1  0
 40 42  1  0
 40 43  1  0
 39  6  1  0
 35 12  1  0
 29 18  1  0
M  CHG  2   2  -1  19  -1
M  END
>  <UniqueID>  (86) 
81

>  <SMILES>  (86) 
Cc1cc[n-]/c(=N\C(=O)c2cccc(-c3ccc(S([NH-])(=O)=O)c(C)c3)n2)c1

>  <Energy>  (86) 
57.179401875310276

>  <Genealogy>  (86) 
Cc1cc[n-]c(=NC(=O)c2cccc(-c3ccc(S([NH-])(=O)=O)c(C)c3)n2)c1 (protonated)
Cc1cc[n-]/c(=N\C(=O)c2cccc(-c3ccc(S([NH-])(=O)=O)c(C)c3)n2)c1 (cis-trans isomerization)
Cc1cc[n-]/c(=N\C(=O)c2cccc(-c3ccc(S([NH-])(=O)=O)c(C)c3)n2)c1 (3D coordinates assigned)
Cc1cc[n-]/c(=N\C(=O)c2cccc(-c3ccc(S([NH-])(=O)=O)c(C)c3)n2)c1 (optimized conformer: 57.179401875310276 kcal/mol)

>  <smiles>  (86) 
Cc1cc[nH]c(=NC(=O)c2cccc(-c3ccc(S(N)(=O)=O)c(C)c3)n2)c1

>  <score_type>  (86) 
oracle

>  <origin>  (86) 
adg

>  <m_score__min__energy>  (86) 
-12.220000000000001

>  <m_primary>  (86) 
energy

$$$$
86:0
     RDKit          3D

 63 67  0  0  0  0  0  0  0  0999 V2000
   53.8000   29.7790   52.7030 C   0  0  0  0  0  0  0  0  0  0  0  0
   55.0900   29.6840   53.4610 C   0  0  0  0  0  0  0  0  0  0  0  0
   55.1190   28.9940   54.5160 O   0  0  0  0  0  0  0  0  0  0  0  0
   56.2870   30.3470   52.9970 N   0  0  0  0  0  0  0  0  0  0  0  0
   56.3470   30.8860   51.6280 C   0  0  0  0  0  0  0  0  0  0  0  0
   57.7680   31.3090   51.2420 C   0  0  0  0  0  0  0  0  0  0  0  0
   58.3630   32.1280   52.3060 N   0  0  0  0  0  0  0  0  0  0  0  0
   59.0790   33.3400   51.9990 C   0  0  0  0  0  0  0  0  0  0  0  0
   59.0060   34.3180   52.7930 O   0  0  0  0  0  0  0  0  0  0  0  0
   59.9080   33.4700   50.7780 C   0  0  0  0  0  0  0  0  0  0  0  0
   61.3040   33.5900   50.8680 C   0  0  0  0  0  0  0  0  0  0  0  0
   62.0770   33.7280   49.7140 C   0  0  0  0  0  0  0  0  0  0  0  0
   61.4650   33.7610   48.4580 C   0  0  0  0  0  0  0  0  0  0  0  0
   60.0680   33.6610   48.3450 C   0  0  0  0  0  0  0  0  0  0  0  0
   59.4150   33.7100   47.0110 C   0  0  0  0  0  0  0  0  0  0  0  0
   59.8830   34.5900   46.0190 C   0  0  0  0  0  0  0  0  0  0  0  0
   59.2680   34.6340   44.7650 C   0  0  0  0  0  0  0  0  0  0  0  0
   58.1730   33.8120   44.4930 C   0  0  0  0  0  0  0  0  0  0  0  0
   57.6770   32.9490   45.4790 C   0  0  0  0  0  0  0  0  0  0  0  0
   56.5660   32.0900   45.2160 N   0  0  0  0  0  0  0  0  0  0  0  0
   56.7260   30.5550   44.4270 S   0  0  0  0  0  0  0  0  0  0  0  0
   57.2150   30.7700   43.0210 O   0  0  0  0  0  0  0  0  0  0  0  0
   55.3770   29.8980   44.3620 O   0  0  0  0  0  0  0  0  0  0  0  0
   57.8350   29.4960   45.2920 C   0  0  0  0  0  0  0  0  0  0  0  0
   58.3240   28.3370   44.6760 C   0  0  0  0  0  0  0  0  0  0  0  0
   59.1770   27.4730   45.3690 C   0  0  0  0  0  0  0  0  0  0  0  0
   59.5470   27.7600   46.6910 C   0  0  0  0  0  0  0  0  0  0  0  0
   60.3980   26.8970   47.3990 C   0  0  0  0  0  0  0  0  0  0  0  0
   60.7550   27.1910   48.7180 C   0  0  0  0  0  0  0  0  0  0  0  0
   60.2650   28.3440   49.3400 C   0  0  0  0  0  0  0  0  0  0  0  0
   59.4190   29.2120   48.6450 C   0  0  0  0  0  0  0  0  0  0  0  0
   59.0540   28.9300   47.3190 C   0  0  0  0  0  0  0  0  0  0  0  0
   58.2010   29.7910   46.6130 C   0  0  0  0  0  0  0  0  0  0  0  0
   58.3130   32.8830   46.7240 C   0  0  0  0  0  0  0  0  0  0  0  0
   59.2970   33.5210   49.5140 C   0  0  0  0  0  0  0  0  0  0  0  0
   58.1830   31.7490   53.7150 C   0  0  0  0  0  0  0  0  0  0  0  0
   57.4830   30.3920   53.8510 C   0  0  0  0  0  0  0  0  0  0  0  0
   52.9616   29.8407   53.4124 H   0  0  0  0  0  0  0  0  0  0  0  0
   53.8119   30.6787   52.0702 H   0  0  0  0  0  0  0  0  0  0  0  0
   53.6800   28.8873   52.0702 H   0  0  0  0  0  0  0  0  0  0  0  0
   56.0033   30.1122   50.9258 H   0  0  0  0  0  0  0  0  0  0  0  0
   55.7026   31.7764   51.5838 H   0  0  0  0  0  0  0  0  0  0  0  0
   58.3845   30.4112   51.0875 H   0  0  0  0  0  0  0  0  0  0  0  0
   57.7258   31.9012   50.3160 H   0  0  0  0  0  0  0  0  0  0  0  0
   61.7915   33.5752   51.8540 H   0  0  0  0  0  0  0  0  0  0  0  0
   63.1710   33.8110   49.7934 H   0  0  0  0  0  0  0  0  0  0  0  0
   62.0806   33.8659   47.5525 H   0  0  0  0  0  0  0  0  0  0  0  0
   60.7386   35.2479   46.2315 H   0  0  0  0  0  0  0  0  0  0  0  0
   59.6473   35.3174   43.9910 H   0  0  0  0  0  0  0  0  0  0  0  0
   57.6980   33.8419   43.5013 H   0  0  0  0  0  0  0  0  0  0  0  0
   58.0350   28.1051   43.6403 H   0  0  0  0  0  0  0  0  0  0  0  0
   59.5587   26.5665   44.8765 H   0  0  0  0  0  0  0  0  0  0  0  0
   60.7845   25.9879   46.9151 H   0  0  0  0  0  0  0  0  0  0  0  0
   61.4237   26.5132   49.2688 H   0  0  0  0  0  0  0  0  0  0  0  0
   60.5465   28.5681   50.3795 H   0  0  0  0  0  0  0  0  0  0  0  0
   59.0380   30.1185   49.1380 H   0  0  0  0  0  0  0  0  0  0  0  0
   57.8177   30.7011   47.0975 H   0  0  0  0  0  0  0  0  0  0  0  0
   57.9481   32.1780   47.4854 H   0  0  0  0  0  0  0  0  0  0  0  0
   58.2020   33.4506   49.4370 H   0  0  0  0  0  0  0  0  0  0  0  0
   59.1697   31.6913   54.1977 H   0  0  0  0  0  0  0  0  0  0  0  0
   57.5526   32.5104   54.1976 H   0  0  0  0  0  0  0  0  0  0  0  0
   58.1763   29.5940   53.5469 H   0  0  0  0  0  0  0  0  0  0  0  0
   57.1801   30.2490   54.8988 H   0  0  0  0  0  0  0  0  0  0  0  0
  1  2  1  0
  2  3  2  0
  2  4  1  0
  4  5  1  0
  5  6  1  0
  6  7  1  0
  7  8  1  0
  8  9  2  0
  8 10  1  0
 10 11  2  0
 11 12  1  0
 12 13  2  0
 13 14  1  0
 14 15  1  0
 15 16  2  0
 16 17  1  0
 17 18  2  0
 18 19  1  0
 19 20  1  0
 20 21  1  0
 21 22  2  0
 21 23  2  0
 21 24  1  0
 24 25  2  0
 25 26  1  0
 26 27  2  0
 27 28  1  0
 28 29  2  0
 29 30  1  0
 30 31  2  0
 31 32  1  0
 32 33  2  0
 19 34  2  0
 14 35  2  0
  7 36  1  0
 36 37  1  0
 37  4  1  0
 35 10  1  0
 34 15  1  0
 33 24  1  0
 32 27  1  0
  1 38  1  0
  1 39  1  0
  1 40  1  0
  5 41  1  0
  5 42  1  0
  6 43  1  0
  6 44  1  0
 11 45  1  0
 12 46  1  0
 13 47  1  0
 16 48  1  0
 17 49  1  0
 18 50  1  0
 25 51  1  0
 26 52  1  0
 28 53  1  0
 29 54  1  0
 30 55  1  0
 31 56  1  0
 33 57  1  0
 34 58  1  0
 35 59  1  0
 36 60  1  0
 36 61  1  0
 37 62  1  0
 37 63  1  0
M  CHG  1  20  -1
M  END
>  <UniqueID>  (87) 
82

>  <SMILES>  (87) 
CC(=O)N1CCN(C(=O)c2cccc(-c3cccc([N-]S(=O)(=O)c4ccc5ccccc5c4)c3)c2)CC1

>  <Energy>  (87) 
88.83357274506578

>  <Genealogy>  (87) 
CC(=O)N1CCN(C(=O)c2cccc(-c3cccc([N-]S(=O)(=O)c4ccc5ccccc5c4)c3)c2)CC1 (protonated)
CC(=O)N1CCN(C(=O)c2cccc(-c3cccc([N-]S(=O)(=O)c4ccc5ccccc5c4)c3)c2)CC1 (3D coordinates assigned)
CC(=O)N1CCN(C(=O)c2cccc(-c3cccc([N-]S(=O)(=O)c4ccc5ccccc5c4)c3)c2)CC1 (nonaromatic ring conformer: 88.83357274506578 kcal/mol)

>  <smiles>  (87) 
CC(=O)N1CCN(C(=O)c2cccc(-c3cccc(NS(=O)(=O)c4ccc5ccccc5c4)c3)c2)CC1

>  <score_type>  (87) 
oracle

>  <origin>  (87) 
adg

>  <m_score__min__energy>  (87) 
-12.550000000000001

>  <m_primary>  (87) 
energy

$$$$
87:0
     RDKit          3D

 54 57  0  0  0  0  0  0  0  0999 V2000
   60.6630   28.6140   44.8560 C   0  0  0  0  0  0  0  0  0  0  0  0
   60.0370   28.5340   46.2450 C   0  0  0  0  0  0  0  0  0  0  0  0
   58.8900   27.5490   46.2640 C   0  0  0  0  0  0  0  0  0  0  0  0
   59.1160   26.2540   46.7640 C   0  0  0  0  0  0  0  0  0  0  0  0
   58.1080   25.2870   46.7170 C   0  0  0  0  0  0  0  0  0  0  0  0
   56.8690   25.5950   46.1550 C   0  0  0  0  0  0  0  0  0  0  0  0
   56.6320   26.8720   45.6440 C   0  0  0  0  0  0  0  0  0  0  0  0
   57.6260   27.8590   45.7020 C   0  0  0  0  0  0  0  0  0  0  0  0
   57.3440   29.1510   45.1520 N   0  0  0  0  0  0  0  0  0  0  0  0
   56.7770   29.4040   43.9570 C   0  0  0  0  0  0  0  0  0  0  0  0
   56.7460   30.7690   43.7690 C   0  0  0  0  0  0  0  0  0  0  0  0
   57.3400   31.2880   44.9070 C   0  0  0  0  0  0  0  0  0  0  0  0
   57.5490   32.7180   45.2010 C   0  0  0  0  0  0  0  0  0  0  0  0
   56.6590   33.5490   44.8640 O   0  0  0  0  0  0  0  0  0  0  0  0
   58.7160   33.1580   45.9390 N   0  0  2  0  0  0  0  0  0  0  0  0
   58.5760   32.7880   47.3720 C   0  0  0  0  0  0  0  0  0  0  0  0
   59.2770   33.7600   48.3530 C   0  0  0  0  0  0  0  0  0  0  0  0
   60.5130   34.4850   47.7780 C   0  0  1  0  0  0  0  0  0  0  0  0
   61.7370   33.6710   47.8890 N   0  0  0  0  0  0  0  0  0  0  0  0
   62.7950   33.8440   48.8740 C   0  0  0  0  0  0  0  0  0  0  0  0
   63.7850   32.6850   48.6520 C   0  0  0  0  0  0  0  0  0  0  0  0
   63.1030   31.6850   47.7120 C   0  0  0  0  0  0  0  0  0  0  0  0
   61.9000   32.4120   47.2620 C   0  0  0  0  0  0  0  0  0  0  0  0
   61.0820   31.9480   46.4230 O   0  0  0  0  0  0  0  0  0  0  0  0
   60.3140   34.9960   46.3310 C   0  0  0  0  0  0  0  0  0  0  0  0
   58.9520   34.6010   45.7440 C   0  0  0  0  0  0  0  0  0  0  0  0
   57.7040   30.2850   45.7300 N   0  0  0  0  0  0  0  0  0  0  0  0
   61.7500   28.7529   44.9512 H   0  0  0  0  0  0  0  0  0  0  0  0
   60.4590   27.6825   44.3077 H   0  0  0  0  0  0  0  0  0  0  0  0
   60.2313   29.4643   44.3077 H   0  0  0  0  0  0  0  0  0  0  0  0
   60.8016   28.2104   46.9665 H   0  0  0  0  0  0  0  0  0  0  0  0
   59.6509   29.5282   46.5143 H   0  0  0  0  0  0  0  0  0  0  0  0
   60.0952   25.9999   47.1960 H   0  0  0  0  0  0  0  0  0  0  0  0
   58.2920   24.2817   47.1237 H   0  0  0  0  0  0  0  0  0  0  0  0
   56.0785   24.8312   46.1145 H   0  0  0  0  0  0  0  0  0  0  0  0
   55.6569   27.1061   45.1919 H   0  0  0  0  0  0  0  0  0  0  0  0
   56.4020   28.6489   43.2504 H   0  0  0  0  0  0  0  0  0  0  0  0
   56.3406   31.3217   42.9086 H   0  0  0  0  0  0  0  0  0  0  0  0
   59.5480   32.6570   45.5470 H   0  0  0  0  0  0  0  0  0  0  0  0
   57.5042   32.7636   47.6183 H   0  0  0  0  0  0  0  0  0  0  0  0
   59.0653   31.8104   47.4940 H   0  0  0  0  0  0  0  0  0  0  0  0
   58.5457   34.5223   48.6596 H   0  0  0  0  0  0  0  0  0  0  0  0
   59.6414   33.1449   49.1890 H   0  0  0  0  0  0  0  0  0  0  0  0
   60.6406   35.3780   48.4074 H   0  0  0  0  0  0  0  0  0  0  0  0
   63.2997   34.8100   48.7253 H   0  0  0  0  0  0  0  0  0  0  0  0
   62.3934   33.8366   49.8980 H   0  0  0  0  0  0  0  0  0  0  0  0
   64.7113   33.0622   48.1941 H   0  0  0  0  0  0  0  0  0  0  0  0
   64.0499   32.2074   49.6069 H   0  0  0  0  0  0  0  0  0  0  0  0
   63.7545   31.4357   46.8615 H   0  0  0  0  0  0  0  0  0  0  0  0
   62.8710   30.7256   48.1975 H   0  0  0  0  0  0  0  0  0  0  0  0
   60.3918   36.0932   46.3317 H   0  0  0  0  0  0  0  0  0  0  0  0
   61.0915   34.5328   45.7058 H   0  0  0  0  0  0  0  0  0  0  0  0
   58.1587   35.1711   46.2495 H   0  0  0  0  0  0  0  0  0  0  0  0
   58.9452   34.8249   44.6671 H   0  0  0  0  0  0  0  0  0  0  0  0
  1  2  1  0
  2  3  1  0
  3  4  2  0
  4  5  1  0
  5  6  2  0
  6  7  1  0
  7  8  2  0
  8  9  1  0
  9 10  1  0
 10 11  2  0
 11 12  1  0
 12 13  1  0
 13 14  2  0
 13 15  1  0
 15 16  1  0
 16 17  1  0
 17 18  1  0
 18 19  1  0
 19 20  1  0
 20 21  1  0
 21 22  1  0
 22 23  1  0
 23 24  2  0
 18 25  1  0
 25 26  1  0
 12 27  2  0
  8  3  1  0
 27  9  1  0
 26 15  1  0
 23 19  1  0
  1 28  1  0
  1 29  1  0
  1 30  1  0
  2 31  1  0
  2 32  1  0
  4 33  1  0
  5 34  1  0
  6 35  1  0
  7 36  1  0
 10 37  1  0
 11 38  1  0
 15 39  1  6
 16 40  1  0
 16 41  1  0
 17 42  1  0
 17 43  1  0
 18 44  1  1
 20 45  1  0
 20 46  1  0
 21 47  1  0
 21 48  1  0
 22 49  1  0
 22 50  1  0
 25 51  1  0
 25 52  1  0
 26 53  1  0
 26 54  1  0
M  CHG  1  15   1
M  END
>  <UniqueID>  (88) 
83

>  <SMILES>  (88) 
CCc1ccccc1-n1ccc(C(=O)[NH+]2CCC(N3CCCC3=O)CC2)n1

>  <Energy>  (88) 
105.64520015499006

>  <Genealogy>  (88) 
CCc1ccccc1-n1ccc(C(=O)[NH+]2CCC(N3CCCC3=O)CC2)n1 (protonated)
CCc1ccccc1-n1ccc(C(=O)[NH+]2CCC(N3CCCC3=O)CC2)n1 (3D coordinates assigned)
CCc1ccccc1-n1ccc(C(=O)[NH+]2CCC(N3CCCC3=O)CC2)n1 (nonaromatic ring conformer: 105.64520015499006 kcal/mol)

>  <smiles>  (88) 
CCc1ccccc1-n1ccc(C(=O)N2CCC(N3CCCC3=O)CC2)n1

>  <score_type>  (88) 
oracle

>  <origin>  (88) 
adg

>  <m_score__min__energy>  (88) 
-7.0800000000000001

>  <m_primary>  (88) 
energy

$$$$
88:0
     RDKit          3D

 67 72  0  0  0  0  0  0  0  0999 V2000
   59.1490   34.4195   43.6999 H   0  0  0  0  0  0  0  0  0  0  0  0
   58.8320   33.7310   44.4970 C   0  0  0  0  0  0  0  0  0  0  0  0
   59.1630   34.0050   45.8250 C   0  0  0  0  0  0  0  0  0  0  0  0
   59.7448   34.9064   46.0677 H   0  0  0  0  0  0  0  0  0  0  0  0
   58.7590   33.1390   46.8530 C   0  0  0  0  0  0  0  0  0  0  0  0
   59.1160   33.4430   48.2950 C   0  0  0  0  0  0  0  0  0  0  0  0
   58.8608   34.4931   48.5005 H   0  0  0  0  0  0  0  0  0  0  0  0
   58.5464   32.7387   48.9191 H   0  0  0  0  0  0  0  0  0  0  0  0
   60.5470   33.2400   48.6170 N   0  0  0  0  0  0  0  0  0  0  0  0
   61.4460   34.1810   47.9310 C   0  0  0  0  0  0  0  0  0  0  0  0
   61.5890   33.8624   46.8879 H   0  0  0  0  0  0  0  0  0  0  0  0
   61.0091   35.1905   47.9401 H   0  0  0  0  0  0  0  0  0  0  0  0
   62.7940   34.1900   48.6560 C   0  0  0  0  0  0  0  0  0  0  0  0
   63.5608   34.5998   47.9822 H   0  0  0  0  0  0  0  0  0  0  0  0
   62.6989   34.8104   49.5593 H   0  0  0  0  0  0  0  0  0  0  0  0
   63.1890   32.8340   49.0630 N   0  0  0  0  0  0  0  0  0  0  0  0
   64.3940   32.6650   49.8350 C   0  0  0  0  0  0  0  0  0  0  0  0
   65.2660   33.5780   49.8400 O   0  0  0  0  0  0  0  0  0  0  0  0
   64.6160   31.4600   50.6600 C   0  0  0  0  0  0  0  0  0  0  0  0
   65.8410   30.8680   50.6180 N   0  0  0  0  0  0  0  0  0  0  0  0
   66.1170   29.7220   51.2930 C   0  0  0  0  0  0  0  0  0  0  0  0
   67.2680   29.2180   51.2250 O   0  0  0  0  0  0  0  0  0  0  0  0
   65.1250   29.1050   52.0560 C   0  0  0  0  0  0  0  0  0  0  0  0
   65.3397   28.1710   52.5959 H   0  0  0  0  0  0  0  0  0  0  0  0
   63.8600   29.6840   52.1270 C   0  0  0  0  0  0  0  0  0  0  0  0
   63.0716   29.2033   52.7247 H   0  0  0  0  0  0  0  0  0  0  0  0
   63.5850   30.8780   51.4400 C   0  0  0  0  0  0  0  0  0  0  0  0
   62.2570   31.5170   51.6030 C   0  0  0  0  0  0  0  0  0  0  0  0
   62.1600   32.8920   51.8780 C   0  0  0  0  0  0  0  0  0  0  0  0
   63.0745   33.4969   51.9665 H   0  0  0  0  0  0  0  0  0  0  0  0
   60.9090   33.4970   52.0400 C   0  0  0  0  0  0  0  0  0  0  0  0
   60.8411   34.5734   52.2564 H   0  0  0  0  0  0  0  0  0  0  0  0
   59.7430   32.7290   51.9260 C   0  0  0  0  0  0  0  0  0  0  0  0
   58.4720   33.2870   52.0910 C   0  0  0  0  0  0  0  0  0  0  0  0
   58.3642   34.3591   52.3123 H   0  0  0  0  0  0  0  0  0  0  0  0
   57.3700   32.5000   51.9770 N   0  0  0  0  0  0  0  0  0  0  0  0
   57.4690   31.1710   51.7030 C   0  0  0  0  0  0  0  0  0  0  0  0
   56.3740   30.4660   51.6170 N   0  0  0  0  0  0  0  0  0  0  0  0
   55.0430   30.6040   52.2410 C   0  0  0  0  0  0  0  0  0  0  0  0
   55.4347   31.1600   53.1056 H   0  0  0  0  0  0  0  0  0  0  0  0
   54.0690   29.4510   52.0570 C   0  0  0  0  0  0  0  0  0  0  0  0
   54.3786   28.5514   51.5048 H   0  0  0  0  0  0  0  0  0  0  0  0
   53.4633   28.8276   52.7312 H   0  0  0  0  0  0  0  0  0  0  0  0
   53.8510   30.7700   51.3120 C   0  0  0  0  0  0  0  0  0  0  0  0
   54.0038   30.8195   50.2238 H   0  0  0  0  0  0  0  0  0  0  0  0
   53.0233   31.4895   51.2277 H   0  0  0  0  0  0  0  0  0  0  0  0
   58.6990   30.6140   51.5350 N   0  0  0  0  0  0  0  0  0  0  0  0
   59.8320   31.3550   51.6390 C   0  0  0  0  0  0  0  0  0  0  0  0
   61.0830   30.7560   51.4690 C   0  0  0  0  0  0  0  0  0  0  0  0
   61.1492   29.6845   51.2293 H   0  0  0  0  0  0  0  0  0  0  0  0
   62.5190   31.6800   48.4440 C   0  0  0  0  0  0  0  0  0  0  0  0
   62.8425   31.5985   47.3958 H   0  0  0  0  0  0  0  0  0  0  0  0
   62.7933   30.7770   49.0092 H   0  0  0  0  0  0  0  0  0  0  0  0
   60.9840   31.8300   48.4850 C   0  0  0  0  0  0  0  0  0  0  0  0
   60.5659   31.4183   47.5546 H   0  0  0  0  0  0  0  0  0  0  0  0
   60.6222   31.2873   49.3708 H   0  0  0  0  0  0  0  0  0  0  0  0
   58.0430   31.9760   46.5260 C   0  0  0  0  0  0  0  0  0  0  0  0
   57.7481   31.2771   47.3226 H   0  0  0  0  0  0  0  0  0  0  0  0
   57.6980   31.6940   45.1890 C   0  0  0  0  0  0  0  0  0  0  0  0
   56.9650   30.5480   44.8360 O   0  0  0  0  0  0  0  0  0  0  0  0
   57.5360   29.3530   44.3160 C   0  0  0  0  0  0  0  0  0  0  0  0
   57.8466   28.7031   45.1474 H   0  0  0  0  0  0  0  0  0  0  0  0
   56.7911   28.8288   43.6993 H   0  0  0  0  0  0  0  0  0  0  0  0
   58.4118   29.6033   43.6993 H   0  0  0  0  0  0  0  0  0  0  0  0
   58.0980   32.5830   44.1760 C   0  0  0  0  0  0  0  0  0  0  0  0
   57.7590   32.3220   42.8000 C   0  0  0  0  0  0  0  0  0  0  0  0
   57.4870   32.1170   41.6940 N   0  0  0  0  0  0  0  0  0  0  0  0
  1  2  1  0
  2  3  2  0
  3  4  1  0
  3  5  1  0
  5  6  1  0
  6  7  1  0
  6  8  1  0
  6  9  1  0
  9 10  1  0
 10 11  1  0
 10 12  1  0
 10 13  1  0
 13 14  1  0
 13 15  1  0
 13 16  1  0
 16 17  1  0
 17 18  2  0
 17 19  1  0
 19 20  1  0
 20 21  1  0
 21 22  2  0
 21 23  1  0
 23 24  1  0
 23 25  2  0
 25 26  1  0
 25 27  1  0
 27 28  1  0
 28 29  1  0
 29 30  1  0
 29 31  2  0
 31 32  1  0
 31 33  1  0
 33 34  2  0
 34 35  1  0
 34 36  1  0
 36 37  1  0
 37 38  2  0
 38 39  1  0
 39 40  1  0
 39 41  1  0
 41 42  1  0
 41 43  1  0
 41 44  1  0
 44 45  1  0
 44 46  1  0
 37 47  1  0
 47 48  2  0
 48 49  1  0
 49 50  1  0
 16 51  1  0
 51 52  1  0
 51 53  1  0
 51 54  1  0
 54 55  1  0
 54 56  1  0
  5 57  2  0
 57 58  1  0
 57 59  1  0
 59 60  1  0
 60 61  1  0
 61 62  1  0
 61 63  1  0
 61 64  1  0
 59 65  2  0
 65 66  1  0
 66 67  3  0
 65  2  1  0
 54  9  1  0
 27 19  2  0
 49 28  2  0
 48 33  1  0
 44 39  1  0
M  CHG  2  20  -1  36  -1
M  END
>  <UniqueID>  (89) 
84

>  <SMILES>  (89) 
COc1cc(CN2CCN(C(=O)c3[n-]c(=O)ccc3-c3ccc4c[n-]/c(=N/C5CC5)nc4c3)CC2)ccc1C#N

>  <Energy>  (89) 
370.84932246471834

>  <Genealogy>  (89) 
COc1cc(CN2CCN(C(=O)c3[n-]c(=O)ccc3-c3ccc4c[n-]c(=NC5CC5)nc4c3)CC2)ccc1C#N (protonated)
COc1cc(CN2CCN(C(=O)c3[n-]c(=O)ccc3-c3ccc4c[n-]/c(=N/C5CC5)nc4c3)CC2)ccc1C#N (cis-trans isomerization)
COc1cc(CN2CCN(C(=O)c3[n-]c(=O)ccc3-c3ccc4c[n-]/c(=N/C5CC5)nc4c3)CC2)ccc1C#N (3D coordinates assigned)
COc1cc(CN2CCN(C(=O)c3[n-]c(=O)ccc3-c3ccc4c[n-]/c(=N/C5CC5)nc4c3)CC2)ccc1C#N (nonaromatic ring conformer: 370.84932246471834 kcal/mol)

>  <smiles>  (89) 
COc1cc(CN2CCN(C(=O)c3[nH]c(=O)ccc3-c3ccc4c[nH]c(=NC5CC5)nc4c3)CC2)ccc1C#N

>  <score_type>  (89) 
oracle

>  <origin>  (89) 
adg

>  <m_score__min__energy>  (89) 
-12.390000000000001

>  <m_primary>  (89) 
energy

$$$$
89:0
     RDKit          3D

 38 41  0  0  0  0  0  0  0  0999 V2000
   56.3130   33.9010   47.0310 H   0  0  0  0  0  0  0  0  0  0  0  0
   56.8950   33.3680   46.4040 O   0  0  0  0  0  0  0  0  0  0  0  0
   58.2910   33.3130   46.4520 C   0  0  0  0  0  0  0  0  0  0  0  0
   58.9760   34.5110   46.2140 C   0  0  0  0  0  0  0  0  0  0  0  0
   58.4085   35.4171   45.9551 H   0  0  0  0  0  0  0  0  0  0  0  0
   60.3650   34.5730   46.3000 C   0  0  0  0  0  0  0  0  0  0  0  0
   60.8869   35.5217   46.1058 H   0  0  0  0  0  0  0  0  0  0  0  0
   61.0920   33.4330   46.6320 C   0  0  0  0  0  0  0  0  0  0  0  0
   62.8390   33.5160   46.7670 Cl  0  0  0  0  0  0  0  0  0  0  0  0
   60.4320   32.2230   46.8530 C   0  0  0  0  0  0  0  0  0  0  0  0
   61.0160   31.3300   47.1206 H   0  0  0  0  0  0  0  0  0  0  0  0
   59.0270   32.1250   46.7390 C   0  0  0  0  0  0  0  0  0  0  0  0
   58.3630   30.7600   46.9300 C   0  0  2  0  0  0  0  0  0  0  0  0
   57.3207   30.9146   47.2458 H   0  0  0  0  0  0  0  0  0  0  0  0
   59.0620   29.9940   48.0380 C   0  0  0  0  0  0  0  0  0  0  0  0
   60.0000   28.9850   47.7490 C   0  0  0  0  0  0  0  0  0  0  0  0
   60.6620   28.3600   48.7590 N   0  0  0  0  0  0  0  0  0  0  0  0
   60.4470   28.6790   50.0620 C   0  0  0  0  0  0  0  0  0  0  0  0
   60.9973   28.1507   50.8545 H   0  0  0  0  0  0  0  0  0  0  0  0
   59.5290   29.6760   50.3970 C   0  0  0  0  0  0  0  0  0  0  0  0
   59.2290   30.1380   52.2250 Br  0  0  0  0  0  0  0  0  0  0  0  0
   58.8390   30.3380   49.3800 C   0  0  0  0  0  0  0  0  0  0  0  0
   58.1191   31.1309   49.6311 H   0  0  0  0  0  0  0  0  0  0  0  0
   60.2630   28.6070   46.3990 N   0  0  0  0  0  0  0  0  0  0  0  0
   59.4930   29.1300   45.3180 C   0  0  0  0  0  0  0  0  0  0  0  0
   59.8100   28.8450   44.1330 O   0  0  0  0  0  0  0  0  0  0  0  0
   58.2650   29.9610   45.5890 C   0  0  1  0  0  0  0  0  0  0  0  0
   58.1726   30.7168   44.7951 H   0  0  0  0  0  0  0  0  0  0  0  0
   57.0550   29.0500   45.5840 C   0  0  0  0  0  0  0  0  0  0  0  0
   56.0160   29.4090   44.9670 O   0  0  0  0  0  0  0  0  0  0  0  0
   57.0160   27.8350   46.3470 N   0  0  0  0  0  0  0  0  0  0  0  0
   56.5440   26.6860   45.9620 C   0  0  0  0  0  0  0  0  0  0  0  0
   55.2480   26.3530   46.1350 N   0  0  0  0  0  0  0  0  0  0  0  0
   54.9670   25.1280   45.6140 C   0  0  0  0  0  0  0  0  0  0  0  0
   53.9632   24.6813   45.6666 H   0  0  0  0  0  0  0  0  0  0  0  0
   56.0400   24.4810   45.0100 C   0  0  0  0  0  0  0  0  0  0  0  0
   56.0130   23.4890   44.5353 H   0  0  0  0  0  0  0  0  0  0  0  0
   57.3860   25.4820   45.1330 S   0  0  0  0  0  0  0  0  0  0  0  0
  1  2  1  0
  2  3  1  0
  3  4  2  0
  4  5  1  0
  4  6  1  0
  6  7  1  0
  6  8  2  0
  8  9  1  0
  8 10  1  0
 10 11  1  0
 10 12  2  0
 12 13  1  0
 13 14  1  1
 13 15  1  0
 15 16  1  0
 16 17  2  0
 17 18  1  0
 18 19  1  0
 18 20  2  0
 20 21  1  0
 20 22  1  0
 22 23  1  0
 16 24  1  0
 24 25  1  0
 25 26  2  0
 25 27  1  0
 27 28  1  6
 27 29  1  0
 29 30  2  0
 29 31  1  0
 31 32  2  0
 32 33  1  0
 33 34  1  0
 34 35  1  0
 34 36  2  0
 36 37  1  0
 36 38  1  0
 12  3  1  0
 27 13  1  0
 38 32  1  0
 22 15  2  0
M  CHG  2  24  -1  33  -1
M  END
>  <UniqueID>  (90) 
85

>  <SMILES>  (90) 
O=C(/N=c1/[n-]ccs1)[C@@H]1C(=O)[N-]c2ncc(Br)cc2[C@H]1c1cc(Cl)ccc1O

>  <Energy>  (90) 
86.85072762618744

>  <Genealogy>  (90) 
O=C(N=c1[n-]ccs1)C1C(=O)[N-]c2ncc(Br)cc2C1c1cc(Cl)ccc1O (protonated)
O=C(N=c1[n-]ccs1)[C@@H]1C(=O)[N-]c2ncc(Br)cc2[C@H]1c1cc(Cl)ccc1O (chirality)
O=C(/N=c1/[n-]ccs1)[C@@H]1C(=O)[N-]c2ncc(Br)cc2[C@H]1c1cc(Cl)ccc1O (cis-trans isomerization)
O=C(/N=c1/[n-]ccs1)[C@@H]1C(=O)[N-]c2ncc(Br)cc2[C@H]1c1cc(Cl)ccc1O (3D coordinates assigned)
O=C(/N=c1/[n-]ccs1)[C@@H]1C(=O)[N-]c2ncc(Br)cc2[C@H]1c1cc(Cl)ccc1O (nonaromatic ring conformer: 86.85072762618744 kcal/mol)

>  <smiles>  (90) 
O=C(N=c1[nH]ccs1)C1C(=O)Nc2ncc(Br)cc2C1c1cc(Cl)ccc1O

>  <score_type>  (90) 
oracle

>  <origin>  (90) 
adg

>  <m_score__min__energy>  (90) 
-11.83

>  <m_primary>  (90) 
energy

$$$$
90:0
     RDKit          3D

 50 53  0  0  0  0  0  0  0  0999 V2000
   51.5974   30.7662   55.1338 H   0  0  0  0  0  0  0  0  0  0  0  0
   52.6770   30.6840   55.3280 C   0  0  0  0  0  0  0  0  0  0  0  0
   53.0603   30.7828   56.3543 H   0  0  0  0  0  0  0  0  0  0  0  0
   53.5230   30.4640   54.3170 C   0  0  0  0  0  0  0  0  0  0  0  0
   55.1820   30.3270   54.5360 S   0  0  0  0  0  0  0  0  0  0  0  0
   55.5720   30.0690   52.9240 C   0  0  0  0  0  0  0  0  0  0  0  0
   56.9200   29.7980   52.3820 C   0  0  0  0  0  0  0  0  0  0  0  0
   57.3460   28.6110   52.3900 O   0  0  0  0  0  0  0  0  0  0  0  0
   57.7700   30.8490   51.8820 N   0  0  0  0  0  0  0  0  0  0  0  0
   57.2130   31.9960   51.1510 C   0  0  0  0  0  0  0  0  0  0  0  0
   56.1908   31.7556   50.8234 H   0  0  0  0  0  0  0  0  0  0  0  0
   57.1997   32.8717   51.8165 H   0  0  0  0  0  0  0  0  0  0  0  0
   58.0730   32.3150   49.9270 C   0  0  0  0  0  0  0  0  0  0  0  0
   57.9292   31.5251   49.1751 H   0  0  0  0  0  0  0  0  0  0  0  0
   57.7611   33.2946   49.5359 H   0  0  0  0  0  0  0  0  0  0  0  0
   59.5040   32.3930   50.2690 N   0  0  0  0  0  0  0  0  0  0  0  0
   60.4170   33.0280   49.3480 C   0  0  0  0  0  0  0  0  0  0  0  0
   61.5860   33.3330   49.7170 O   0  0  0  0  0  0  0  0  0  0  0  0
   60.0060   33.3220   48.0070 N   0  0  0  0  0  0  0  0  0  0  0  0
   59.9430   32.2350   47.0290 C   0  0  0  0  0  0  0  0  0  0  0  0
   60.9384   32.0771   46.5883 H   0  0  0  0  0  0  0  0  0  0  0  0
   59.6163   31.3083   47.5234 H   0  0  0  0  0  0  0  0  0  0  0  0
   58.9480   32.6130   45.9280 C   0  0  0  0  0  0  0  0  0  0  0  0
   58.9791   31.8514   45.1349 H   0  0  0  0  0  0  0  0  0  0  0  0
   57.9391   32.6663   46.3631 H   0  0  0  0  0  0  0  0  0  0  0  0
   59.2760   33.8760   45.3750 O   0  0  0  0  0  0  0  0  0  0  0  0
   59.1160   34.8880   46.3530 C   0  0  0  0  0  0  0  0  0  0  0  0
   59.2935   35.8693   45.8887 H   0  0  0  0  0  0  0  0  0  0  0  0
   58.0928   34.8326   46.7530 H   0  0  0  0  0  0  0  0  0  0  0  0
   60.1060   34.6920   47.5080 C   0  0  0  0  0  0  0  0  0  0  0  0
   61.1292   34.8781   47.1497 H   0  0  0  0  0  0  0  0  0  0  0  0
   59.8681   35.3963   48.3188 H   0  0  0  0  0  0  0  0  0  0  0  0
   59.9620   31.9870   51.6050 C   0  0  0  0  0  0  0  0  0  0  0  0
   61.0422   31.7819   51.5708 H   0  0  0  0  0  0  0  0  0  0  0  0
   59.7535   32.8003   52.3157 H   0  0  0  0  0  0  0  0  0  0  0  0
   59.2240   30.7270   52.0630 C   0  0  0  0  0  0  0  0  0  0  0  0
   59.5851   29.8697   51.4759 H   0  0  0  0  0  0  0  0  0  0  0  0
   59.4241   30.5846   53.1352 H   0  0  0  0  0  0  0  0  0  0  0  0
   54.3950   30.0620   52.1830 C   0  0  0  0  0  0  0  0  0  0  0  0
   54.3755   29.8994   51.0953 H   0  0  0  0  0  0  0  0  0  0  0  0
   53.2240   30.2820   52.9480 C   0  0  0  0  0  0  0  0  0  0  0  0
   51.9690   30.3260   52.4370 C   0  0  0  0  0  0  0  0  0  0  0  0
   51.1539   29.9900   53.0948 H   0  0  0  0  0  0  0  0  0  0  0  0
   51.5870   30.7820   51.0800 C   0  0  0  0  0  0  0  0  0  0  0  0
   51.5140   30.0130   49.9790 N   0  0  0  0  0  0  0  0  0  0  0  0
   51.0340   30.8490   49.0320 C   0  0  0  0  0  0  0  0  0  0  0  0
   50.8310   30.4860   47.8440 O   0  0  0  0  0  0  0  0  0  0  0  0
   50.7840   32.1030   49.4620 N   0  0  0  0  0  0  0  0  0  0  0  0
   51.1280   32.0390   50.7600 C   0  0  0  0  0  0  0  0  0  0  0  0
   51.0110   33.1080   51.6410 O   0  0  0  0  0  0  0  0  0  0  0  0
  1  2  1  0
  2  3  1  0
  2  4  2  0
  4  5  1  0
  5  6  1  0
  6  7  1  0
  7  8  2  0
  7  9  1  0
  9 10  1  0
 10 11  1  0
 10 12  1  0
 10 13  1  0
 13 14  1  0
 13 15  1  0
 13 16  1  0
 16 17  1  0
 17 18  2  0
 17 19  1  0
 19 20  1  0
 20 21  1  0
 20 22  1  0
 20 23  1  0
 23 24  1  0
 23 25  1  0
 23 26  1  0
 26 27  1  0
 27 28  1  0
 27 29  1  0
 27 30  1  0
 30 31  1  0
 30 32  1  0
 16 33  1  0
 33 34  1  0
 33 35  1  0
 33 36  1  0
 36 37  1  0
 36 38  1  0
  6 39  2  0
 39 40  1  0
 39 41  1  0
 41 42  2  0
 42 43  1  0
 42 44  1  0
 44 45  1  0
 45 46  1  0
 46 47  2  0
 46 48  1  0
 48 49  1  0
 49 50  1  0
 41  4  1  0
 49 44  2  0
 36  9  1  0
 30 19  1  0
M  CHG  3  45  -1  48  -1  50  -1
M  END
>  <UniqueID>  (91) 
86

>  <SMILES>  (91) 
C=c1sc(C(=O)N2CCN(C(=O)N3CCOCC3)CC2)c/c1=C\c1[n-]c(=O)[n-]c1[O-]

>  <Energy>  (91) 
123.00710149426905

>  <Genealogy>  (91) 
C=c1sc(C(=O)N2CCN(C(=O)N3CCOCC3)CC2)cc1=Cc1[n-]c(=O)[n-]c1[O-] (protonated)
C=c1sc(C(=O)N2CCN(C(=O)N3CCOCC3)CC2)c/c1=C\c1[n-]c(=O)[n-]c1[O-] (cis-trans isomerization)
C=c1sc(C(=O)N2CCN(C(=O)N3CCOCC3)CC2)c/c1=C\c1[n-]c(=O)[n-]c1[O-] (3D coordinates assigned)
C=c1sc(C(=O)N2CCN(C(=O)N3CCOCC3)CC2)c/c1=C\c1[n-]c(=O)[n-]c1[O-] (nonaromatic ring conformer: 123.00710149426905 kcal/mol)

>  <smiles>  (91) 
C=c1sc(C(=O)N2CCN(C(=O)N3CCOCC3)CC2)cc1=Cc1[nH]c(=O)[nH]c1O

>  <score_type>  (91) 
oracle

>  <origin>  (91) 
adg

>  <m_score__min__energy>  (91) 
-17.710000000000001

>  <m_primary>  (91) 
energy

$$$$
91:0
     RDKit          3D

 58 61  0  0  0  0  0  0  0  0999 V2000
   52.9099   29.7066   54.8726 H   0  0  0  0  0  0  0  0  0  0  0  0
   53.9960   29.8600   54.7900 C   0  0  0  0  0  0  0  0  0  0  0  0
   54.6510   29.6251   55.6419 H   0  0  0  0  0  0  0  0  0  0  0  0
   54.5200   30.3320   53.6540 C   0  0  0  0  0  0  0  0  0  0  0  0
   53.8400   30.6600   52.4760 C   0  0  0  0  0  0  0  0  0  0  0  0
   52.5150   30.5200   52.2420 C   0  0  0  0  0  0  0  0  0  0  0  0
   51.8980   30.1199   53.0601 H   0  0  0  0  0  0  0  0  0  0  0  0
   51.8270   30.8600   50.9780 C   0  0  0  0  0  0  0  0  0  0  0  0
   51.7710   30.0930   49.8770 N   0  0  0  0  0  0  0  0  0  0  0  0
   51.0560   30.8380   49.0060 C   0  0  0  0  0  0  0  0  0  0  0  0
   50.7850   30.4470   47.8410 O   0  0  0  0  0  0  0  0  0  0  0  0
   50.6550   32.0360   49.4820 N   0  0  0  0  0  0  0  0  0  0  0  0
   51.1550   32.0360   50.7280 C   0  0  0  0  0  0  0  0  0  0  0  0
   51.0060   33.0900   51.6190 O   0  0  0  0  0  0  0  0  0  0  0  0
   54.8160   31.0950   51.5860 C   0  0  0  0  0  0  0  0  0  0  0  0
   54.6574   31.4326   50.5512 H   0  0  0  0  0  0  0  0  0  0  0  0
   56.0230   31.0210   52.2530 C   0  0  0  0  0  0  0  0  0  0  0  0
   57.3610   31.2630   51.6060 C   0  0  0  0  0  0  0  0  0  0  0  0
   57.2289   32.0079   50.8075 H   0  0  0  0  0  0  0  0  0  0  0  0
   58.0397   31.6074   52.4002 H   0  0  0  0  0  0  0  0  0  0  0  0
   58.0030   29.9960   50.9880 C   0  0  2  0  0  0  0  0  0  0  0  0
   57.2026   29.2424   50.9499 H   0  0  0  0  0  0  0  0  0  0  0  0
   59.1310   29.3910   51.8580 C   0  0  0  0  0  0  0  0  0  0  0  0
   58.7864   29.3467   52.9017 H   0  0  0  0  0  0  0  0  0  0  0  0
   59.3564   28.3891   51.4640 H   0  0  0  0  0  0  0  0  0  0  0  0
   60.4210   30.2150   51.8010 C   0  0  0  0  0  0  0  0  0  0  0  0
   60.2349   31.2068   52.2389 H   0  0  0  0  0  0  0  0  0  0  0  0
   61.2020   29.6864   52.3673 H   0  0  0  0  0  0  0  0  0  0  0  0
   60.8950   30.3860   50.3530 C   0  0  0  0  0  0  0  0  0  0  0  0
   61.8081   30.9993   50.3421 H   0  0  0  0  0  0  0  0  0  0  0  0
   61.0976   29.3920   49.9276 H   0  0  0  0  0  0  0  0  0  0  0  0
   59.8130   31.0760   49.5040 C   0  0  1  0  0  0  0  0  0  0  0  0
   59.6090   32.0605   49.9502 H   0  0  0  0  0  0  0  0  0  0  0  0
   60.2890   31.3890   48.0600 C   0  0  0  0  0  0  0  0  0  0  0  0
   61.2685   31.8849   48.1278 H   0  0  0  0  0  0  0  0  0  0  0  0
   60.3120   30.4215   47.5371 H   0  0  0  0  0  0  0  0  0  0  0  0
   59.3630   32.2880   47.2310 C   0  0  0  0  0  0  0  0  0  0  0  0
   58.5380   31.7390   46.1930 C   0  0  0  0  0  0  0  0  0  0  0  0
   58.4380   30.2640   45.8670 C   0  0  0  0  0  0  0  0  0  0  0  0
   58.3987   29.6839   46.8008 H   0  0  0  0  0  0  0  0  0  0  0  0
   57.5252   30.0789   45.2817 H   0  0  0  0  0  0  0  0  0  0  0  0
   59.3174   29.9574   45.2817 H   0  0  0  0  0  0  0  0  0  0  0  0
   57.7920   32.5980   45.3700 C   0  0  0  0  0  0  0  0  0  0  0  0
   57.1998   32.1772   44.5441 H   0  0  0  0  0  0  0  0  0  0  0  0
   57.7900   33.9690   45.5820 C   0  0  0  0  0  0  0  0  0  0  0  0
   57.2128   34.6269   44.9156 H   0  0  0  0  0  0  0  0  0  0  0  0
   58.5140   34.5110   46.6320 C   0  0  0  0  0  0  0  0  0  0  0  0
   58.4824   35.5967   46.8058 H   0  0  0  0  0  0  0  0  0  0  0  0
   59.2870   33.7000   47.4780 C   0  0  0  0  0  0  0  0  0  0  0  0
   60.0330   34.4190   48.5820 C   0  0  0  0  0  0  0  0  0  0  0  0
   59.6692   34.0683   49.5591 H   0  0  0  0  0  0  0  0  0  0  0  0
   61.1092   34.2088   48.4945 H   0  0  0  0  0  0  0  0  0  0  0  0
   59.8626   35.5022   48.4945 H   0  0  0  0  0  0  0  0  0  0  0  0
   58.5020   30.2630   49.5470 C   0  0  0  0  0  0  0  0  0  0  0  0
   57.7250   30.8219   49.0049 H   0  0  0  0  0  0  0  0  0  0  0  0
   58.7049   29.2866   49.0827 H   0  0  0  0  0  0  0  0  0  0  0  0
   55.8430   30.5390   53.4980 N   0  0  0  0  0  0  0  0  0  0  0  0
   56.5860   30.3430   54.2070 H   0  0  0  0  0  0  0  0  0  0  0  0
  1  2  1  0
  2  3  1  0
  2  4  2  0
  4  5  1  0
  5  6  2  0
  6  7  1  0
  6  8  1  0
  8  9  1  0
  9 10  1  0
 10 11  2  0
 10 12  1  0
 12 13  1  0
 13 14  1  0
  5 15  1  0
 15 16  1  0
 15 17  2  0
 17 18  1  0
 18 19  1  0
 18 20  1  0
 18 21  1  0
 21 22  1  6
 21 23  1  0
 23 24  1  0
 23 25  1  0
 23 26  1  0
 26 27  1  0
 26 28  1  0
 26 29  1  0
 29 30  1  0
 29 31  1  0
 29 32  1  0
 32 33  1  1
 32 34  1  0
 34 35  1  0
 34 36  1  0
 34 37  1  0
 37 38  2  0
 38 39  1  0
 39 40  1  0
 39 41  1  0
 39 42  1  0
 38 43  1  0
 43 44  1  0
 43 45  2  0
 45 46  1  0
 45 47  1  0
 47 48  1  0
 47 49  2  0
 49 50  1  0
 50 51  1  0
 50 52  1  0
 50 53  1  0
 32 54  1  0
 54 55  1  0
 54 56  1  0
 17 57  1  0
 57 58  1  0
 57  4  1  0
 13  8  2  0
 54 21  1  0
 49 37  1  0
M  CHG  3   9  -1  12  -1  14  -1
M  END
>  <UniqueID>  (92) 
87

>  <SMILES>  (92) 
C=c1[nH]c(C[C@@H]2CCC[C@@H](Cc3c(C)cccc3C)C2)c/c1=C\c1[n-]c(=O)[n-]c1[O-]

>  <Energy>  (92) 
124.40824716279718

>  <Genealogy>  (92) 
C=c1[nH]c(CC2CCCC(Cc3c(C)cccc3C)C2)cc1=Cc1[n-]c(=O)[n-]c1[O-] (protonated)
C=c1[nH]c(C[C@@H]2CCC[C@@H](Cc3c(C)cccc3C)C2)cc1=Cc1[n-]c(=O)[n-]c1[O-] (chirality)
C=c1[nH]c(C[C@@H]2CCC[C@@H](Cc3c(C)cccc3C)C2)c/c1=C\c1[n-]c(=O)[n-]c1[O-] (cis-trans isomerization)
C=c1[nH]c(C[C@@H]2CCC[C@@H](Cc3c(C)cccc3C)C2)c/c1=C\c1[n-]c(=O)[n-]c1[O-] (3D coordinates assigned)
C=c1[nH]c(C[C@@H]2CCC[C@@H](Cc3c(C)cccc3C)C2)c/c1=C\c1[n-]c(=O)[n-]c1[O-] (nonaromatic ring conformer: 124.40824716279718 kcal/mol)

>  <smiles>  (92) 
C=c1[nH]c(CC2CCCC(Cc3c(C)cccc3C)C2)cc1=Cc1[nH]c(=O)[nH]c1O

>  <score_type>  (92) 
oracle

>  <origin>  (92) 
adg

>  <m_score__min__energy>  (92) 
-18.98

>  <m_primary>  (92) 
energy

$$$$
92:0
     RDKit          3D

 42 44  0  0  0  0  0  0  0  0999 V2000
   64.1220   33.1590   47.2050 O   0  0  0  0  0  0  0  0  0  0  0  0
   62.9960   32.6920   47.1420 C   0  0  0  0  0  0  0  0  0  0  0  0
   62.7880   31.2110   47.2310 C   0  0  0  0  0  0  0  0  0  0  0  0
   61.5090   30.8780   48.0210 C   0  0  0  0  0  0  0  0  0  0  0  0
   60.3350   31.7140   47.6620 N   0  0  0  0  0  0  0  0  0  0  0  0
   59.7390   31.3400   46.3830 C   0  0  0  0  0  0  0  0  0  0  0  0
   60.0840   30.2930   45.8490 O   0  0  0  0  0  0  0  0  0  0  0  0
   58.6190   32.1700   45.7240 C   0  0  0  0  0  0  0  0  0  0  0  0
   57.7460   31.2670   44.8150 C   0  0  0  0  0  0  0  0  0  0  0  0
   57.6930   31.3890   43.4060 C   0  0  0  0  0  0  0  0  0  0  0  0
   56.9120   30.5200   42.6390 C   0  0  0  0  0  0  0  0  0  0  0  0
   56.1820   29.5030   43.2520 C   0  0  0  0  0  0  0  0  0  0  0  0
   56.2370   29.3440   44.6360 C   0  0  0  0  0  0  0  0  0  0  0  0
   55.5220   28.3220   45.2470 O   0  0  0  0  0  0  0  0  0  0  0  0
   57.0160   30.2100   45.4090 C   0  0  0  0  0  0  0  0  0  0  0  0
   57.8280   32.9050   46.8280 C   0  0  0  0  0  0  0  0  0  0  0  0
   57.2920   34.1920   46.2010 C   0  0  0  0  0  0  0  0  0  0  0  0
   58.0380   34.3840   44.8810 C   0  0  0  0  0  0  0  0  0  0  0  0
   59.1400   33.3320   44.8510 C   0  0  0  0  0  0  0  0  0  0  0  0
   60.6280   33.1660   47.7270 C   0  0  0  0  0  0  0  0  0  0  0  0
   61.8260   33.5820   46.8630 C   0  0  0  0  0  0  0  0  0  0  0  0
   62.7004   30.7987   46.2150 H   0  0  0  0  0  0  0  0  0  0  0  0
   63.6478   30.7680   47.7549 H   0  0  0  0  0  0  0  0  0  0  0  0
   61.2525   29.8249   47.8336 H   0  0  0  0  0  0  0  0  0  0  0  0
   61.7297   31.0819   49.0792 H   0  0  0  0  0  0  0  0  0  0  0  0
   59.6400   31.5260   48.4180 H   0  0  0  0  0  0  0  0  0  0  0  0
   58.2745   32.1786   42.9077 H   0  0  0  0  0  0  0  0  0  0  0  0
   56.8732   30.6392   41.5462 H   0  0  0  0  0  0  0  0  0  0  0  0
   55.5631   28.8265   42.6443 H   0  0  0  0  0  0  0  0  0  0  0  0
   57.0624   30.0673   46.4987 H   0  0  0  0  0  0  0  0  0  0  0  0
   56.9947   32.2783   47.1785 H   0  0  0  0  0  0  0  0  0  0  0  0
   58.4687   33.1240   47.6949 H   0  0  0  0  0  0  0  0  0  0  0  0
   56.2115   34.1015   46.0157 H   0  0  0  0  0  0  0  0  0  0  0  0
   57.4464   35.0512   46.8703 H   0  0  0  0  0  0  0  0  0  0  0  0
   57.3526   34.2409   44.0326 H   0  0  0  0  0  0  0  0  0  0  0  0
   58.4544   35.3992   44.8029 H   0  0  0  0  0  0  0  0  0  0  0  0
   59.3180   32.9900   43.8208 H   0  0  0  0  0  0  0  0  0  0  0  0
   60.0955   33.7287   45.2246 H   0  0  0  0  0  0  0  0  0  0  0  0
   59.7406   33.7172   47.3823 H   0  0  0  0  0  0  0  0  0  0  0  0
   60.8817   33.4011   48.7712 H   0  0  0  0  0  0  0  0  0  0  0  0
   61.5533   33.5018   45.8004 H   0  0  0  0  0  0  0  0  0  0  0  0
   62.0988   34.6204   47.1025 H   0  0  0  0  0  0  0  0  0  0  0  0
  1  2  2  0
  2  3  1  0
  3  4  1  0
  4  5  1  0
  5  6  1  0
  6  7  2  0
  6  8  1  0
  8  9  1  0
  9 10  2  0
 10 11  1  0
 11 12  2  0
 12 13  1  0
 13 14  1  0
 13 15  2  0
  8 16  1  0
 16 17  1  0
 17 18  1  0
 18 19  1  0
  5 20  1  0
 20 21  1  0
 21  2  1  0
 19  8  1  0
 15  9  1  0
  3 22  1  0
  3 23  1  0
  4 24  1  0
  4 25  1  0
  5 26  1  0
 10 27  1  0
 11 28  1  0
 12 29  1  0
 15 30  1  0
 16 31  1  0
 16 32  1  0
 17 33  1  0
 17 34  1  0
 18 35  1  0
 18 36  1  0
 19 37  1  0
 19 38  1  0
 20 39  1  0
 20 40  1  0
 21 41  1  0
 21 42  1  0
M  CHG  2   5   1  14  -1
M  END
>  <UniqueID>  (93) 
88

>  <SMILES>  (93) 
O=C1CC[NH+](C(=O)C2(c3cccc([O-])c3)CCCC2)CC1

>  <Energy>  (93) 
58.99998037367992

>  <Genealogy>  (93) 
O=C1CC[NH+](C(=O)C2(c3cccc([O-])c3)CCCC2)CC1 (protonated)
O=C1CC[NH+](C(=O)C2(c3cccc([O-])c3)CCCC2)CC1 (3D coordinates assigned)
O=C1CC[NH+](C(=O)C2(c3cccc([O-])c3)CCCC2)CC1 (nonaromatic ring conformer: 58.99998037367992 kcal/mol)

>  <smiles>  (93) 
O=C1CCN(C(=O)C2(c3cccc(O)c3)CCCC2)CC1

>  <score_type>  (93) 
oracle

>  <origin>  (93) 
adg

>  <m_score__min__energy>  (93) 
-9.6500000000000004

>  <m_primary>  (93) 
energy

$$$$
