0:0
     RDKit          3D

 24 25  0  0  0  0  0  0  0  0999 V2000
   56.9240   27.9910   45.3430 C   0  0  0  0  0  0  0  0  0  0  0  0
   56.2160   29.1730   44.9870 O   0  0  0  0  0  0  0  0  0  0  0  0
   56.8110   30.3210   44.4400 C   0  0  0  0  0  0  0  0  0  0  0  0
   56.8160   30.4640   43.0500 C   0  0  0  0  0  0  0  0  0  0  0  0
   57.3930   31.5880   42.4570 C   0  0  0  0  0  0  0  0  0  0  0  0
   57.9730   32.5820   43.2490 C   0  0  0  0  0  0  0  0  0  0  0  0
   57.9810   32.4610   44.6500 C   0  0  0  0  0  0  0  0  0  0  0  0
   58.5990   33.5170   45.4930 C   0  0  0  0  0  0  0  0  0  0  0  0
   59.2320   34.6600   45.0310 C   0  0  0  0  0  0  0  0  0  0  0  0
   59.6510   35.3530   46.1490 C   0  0  0  0  0  0  0  0  0  0  0  0
   59.2620   34.6100   47.2430 C   0  0  0  0  0  0  0  0  0  0  0  0
   58.6240   33.4960   46.8420 N   0  0  0  0  0  0  0  0  0  0  0  0
   57.3960   31.3230   45.2390 C   0  0  0  0  0  0  0  0  0  0  0  0
   56.9731   27.9090   46.4388 H   0  0  0  0  0  0  0  0  0  0  0  0
   56.4026   27.1136   44.9327 H   0  0  0  0  0  0  0  0  0  0  0  0
   57.9436   28.0367   44.9327 H   0  0  0  0  0  0  0  0  0  0  0  0
   56.3622   29.6856   42.4190 H   0  0  0  0  0  0  0  0  0  0  0  0
   57.3911   31.6916   41.3619 H   0  0  0  0  0  0  0  0  0  0  0  0
   58.4261   33.4646   42.7739 H   0  0  0  0  0  0  0  0  0  0  0  0
   59.3727   34.9564   43.9811 H   0  0  0  0  0  0  0  0  0  0  0  0
   60.1903   36.3116   46.1639 H   0  0  0  0  0  0  0  0  0  0  0  0
   59.4465   34.8878   48.2912 H   0  0  0  0  0  0  0  0  0  0  0  0
   58.2470   32.7550   47.4740 H   0  0  0  0  0  0  0  0  0  0  0  0
   57.3959   31.2156   46.3337 H   0  0  0  0  0  0  0  0  0  0  0  0
  1  2  1  0
  2  3  1  0
  3  4  2  0
  4  5  1  0
  5  6  2  0
  6  7  1  0
  7  8  1  0
  8  9  2  0
  9 10  1  0
 10 11  2  0
 11 12  1  0
  7 13  2  0
 13  3  1  0
 12  8  1  0
  1 14  1  0
  1 15  1  0
  1 16  1  0
  4 17  1  0
  5 18  1  0
  6 19  1  0
  9 20  1  0
 10 21  1  0
 11 22  1  0
 12 23  1  0
 13 24  1  0
M  END
>  <UniqueID>  (1) 
1

>  <SMILES>  (1) 
COc1cccc(-c2ccc[nH]2)c1

>  <Energy>  (1) 
51.37963951053145

>  <Genealogy>  (1) 
COc1cccc(-c2ccc[nH]2)c1 (3D coordinates assigned)
COc1cccc(-c2ccc[nH]2)c1 (optimized conformer: 51.37963951053145 kcal/mol)

>  <smiles>  (1) 
COc1cccc(-c2ccc[nH]2)c1

>  <score_type>  (1) 
oracle

>  <origin>  (1) 
adg

>  <m_score__min__energy>  (1) 
-5.4299999999999997

>  <m_primary>  (1) 
energy

$$$$
1:0
     RDKit          3D

 36 39  0  0  0  0  0  0  0  0999 V2000
   59.0590   34.9690   45.0360 C   0  0  0  0  0  0  0  0  0  0  0  0
   59.8720   35.3470   46.0250 C   0  0  0  0  0  0  0  0  0  0  0  0
   59.6140   34.9480   47.4540 C   0  0  0  0  0  0  0  0  0  0  0  0
   60.5160   33.8540   47.8670 N   0  0  0  0  0  0  0  0  0  0  0  0
   61.5190   34.1620   48.7500 C   0  0  0  0  0  0  0  0  0  0  0  0
   62.4140   33.1920   49.1930 C   0  0  0  0  0  0  0  0  0  0  0  0
   62.2970   31.8880   48.7310 C   0  0  0  0  0  0  0  0  0  0  0  0
   61.2940   31.5600   47.8240 C   0  0  0  0  0  0  0  0  0  0  0  0
   61.2080   30.3080   47.3910 O   0  0  0  0  0  0  0  0  0  0  0  0
   60.2920   29.9080   46.5250 C   0  0  0  0  0  0  0  0  0  0  0  0
   60.2650   28.5810   46.1180 C   0  0  0  0  0  0  0  0  0  0  0  0
   59.3120   28.1370   45.2040 C   0  0  0  0  0  0  0  0  0  0  0  0
   59.3260   26.9220   44.8640 O   0  0  0  0  0  0  0  0  0  0  0  0
   58.3510   29.0230   44.6680 C   0  0  0  0  0  0  0  0  0  0  0  0
   57.3970   28.5490   43.7430 C   0  0  0  0  0  0  0  0  0  0  0  0
   56.4420   29.4060   43.2030 C   0  0  0  0  0  0  0  0  0  0  0  0
   56.4180   30.7460   43.5720 C   0  0  0  0  0  0  0  0  0  0  0  0
   57.3480   31.2430   44.4840 C   0  0  0  0  0  0  0  0  0  0  0  0
   58.3340   30.3990   45.0530 C   0  0  0  0  0  0  0  0  0  0  0  0
   59.2990   30.8670   45.9870 C   0  0  0  0  0  0  0  0  0  0  0  0
   59.3950   32.1920   46.4530 C   0  0  0  0  0  0  0  0  0  0  0  0
   60.3920   32.5610   47.3830 C   0  0  0  0  0  0  0  0  0  0  0  0
   59.2722   35.2753   44.0013 H   0  0  0  0  0  0  0  0  0  0  0  0
   58.1758   34.3512   45.2558 H   0  0  0  0  0  0  0  0  0  0  0  0
   60.7515   35.9647   45.7905 H   0  0  0  0  0  0  0  0  0  0  0  0
   59.7806   35.8178   48.1064 H   0  0  0  0  0  0  0  0  0  0  0  0
   58.5748   34.5975   47.5388 H   0  0  0  0  0  0  0  0  0  0  0  0
   61.6182   35.1949   49.1151 H   0  0  0  0  0  0  0  0  0  0  0  0
   63.2094   33.4572   49.9051 H   0  0  0  0  0  0  0  0  0  0  0  0
   62.9965   31.1149   49.0816 H   0  0  0  0  0  0  0  0  0  0  0  0
   61.0037   27.8728   46.5214 H   0  0  0  0  0  0  0  0  0  0  0  0
   57.4079   27.4902   43.4451 H   0  0  0  0  0  0  0  0  0  0  0  0
   55.7047   29.0219   42.4827 H   0  0  0  0  0  0  0  0  0  0  0  0
   55.6608   31.4181   43.1419 H   0  0  0  0  0  0  0  0  0  0  0  0
   57.3160   32.3057   44.7660 H   0  0  0  0  0  0  0  0  0  0  0  0
   58.6850   32.9490   46.0885 H   0  0  0  0  0  0  0  0  0  0  0  0
  1  2  2  0
  2  3  1  0
  3  4  1  0
  4  5  2  0
  5  6  1  0
  6  7  2  0
  7  8  1  0
  8  9  1  0
  9 10  1  0
 10 11  2  0
 11 12  1  0
 12 13  2  0
 12 14  1  0
 14 15  2  0
 15 16  1  0
 16 17  2  0
 17 18  1  0
 18 19  2  0
 19 20  1  0
 20 21  2  0
 21 22  1  0
 22  4  1  0
 22  8  2  0
 20 10  1  0
 19 14  1  0
  1 23  1  0
  1 24  1  0
  2 25  1  0
  3 26  1  0
  3 27  1  0
  5 28  1  0
  6 29  1  0
  7 30  1  0
 11 31  1  0
 15 32  1  0
 16 33  1  0
 17 34  1  0
 18 35  1  0
 21 36  1  0
M  CHG  1   4   1
M  END
>  <UniqueID>  (2) 
2

>  <SMILES>  (2) 
C=CC[n+]1cccc2oc3cc(=O)c4ccccc4c-3cc21

>  <Energy>  (2) 
55.76779652258009

>  <Genealogy>  (2) 
C=CC[n+]1cccc2oc3cc(=O)c4ccccc4c-3cc21 (3D coordinates assigned)
C=CC[n+]1cccc2oc3cc(=O)c4ccccc4c-3cc21 (optimized conformer: 55.76779652258009 kcal/mol)

>  <smiles>  (2) 
C=CC[n+]1cccc2oc3cc(=O)c4ccccc4c-3cc21

>  <score_type>  (2) 
oracle

>  <origin>  (2) 
adg

>  <m_score__min__energy>  (2) 
-6.0499999999999998

>  <m_primary>  (2) 
energy

$$$$
2:0
     RDKit          3D

 35 37  0  0  0  0  0  0  0  0999 V2000
   59.6780   34.0240   47.4090 C   0  0  0  0  0  0  0  0  0  0  0  0
   61.0120   33.9970   47.5900 C   0  0  0  0  0  0  0  0  0  0  0  0
   61.6800   34.2130   48.9320 C   0  0  0  0  0  0  0  0  0  0  0  0
   62.7720   33.1560   49.1640 C   0  0  0  0  0  0  0  0  0  0  0  0
   63.6730   32.8980   47.9310 C   0  0  0  0  0  0  0  0  0  0  0  0
   63.3890   33.8440   46.7540 C   0  0  0  0  0  0  0  0  0  0  0  0
   61.9010   33.8300   46.3790 C   0  0  0  0  0  0  0  0  0  0  0  0
   58.9540   33.2940   46.3500 C   0  0  0  0  0  0  0  0  0  0  0  0
   58.6070   33.9630   45.1690 C   0  0  0  0  0  0  0  0  0  0  0  0
   57.9620   33.2810   44.1320 C   0  0  0  0  0  0  0  0  0  0  0  0
   57.6760   31.9140   44.2590 C   0  0  0  0  0  0  0  0  0  0  0  0
   57.0280   31.2200   43.2250 C   0  0  0  0  0  0  0  0  0  0  0  0
   56.7560   29.8550   43.3600 C   0  0  0  0  0  0  0  0  0  0  0  0
   57.1280   29.1750   44.5220 C   0  0  0  0  0  0  0  0  0  0  0  0
   57.7740   29.8540   45.5590 C   0  0  0  0  0  0  0  0  0  0  0  0
   58.0520   31.2250   45.4370 C   0  0  0  0  0  0  0  0  0  0  0  0
   58.6990   31.9180   46.4710 C   0  0  0  0  0  0  0  0  0  0  0  0
   59.0830   34.6362   48.1026 H   0  0  0  0  0  0  0  0  0  0  0  0
   62.1346   35.2144   48.9535 H   0  0  0  0  0  0  0  0  0  0  0  0
   60.9233   34.1241   49.7254 H   0  0  0  0  0  0  0  0  0  0  0  0
   63.4101   33.4946   49.9936 H   0  0  0  0  0  0  0  0  0  0  0  0
   62.2564   32.2096   49.3842 H   0  0  0  0  0  0  0  0  0  0  0  0
   64.7226   33.0254   48.2343 H   0  0  0  0  0  0  0  0  0  0  0  0
   63.4596   31.8765   47.5831 H   0  0  0  0  0  0  0  0  0  0  0  0
   63.6782   34.8667   47.0375 H   0  0  0  0  0  0  0  0  0  0  0  0
   63.9710   33.5039   45.8848 H   0  0  0  0  0  0  0  0  0  0  0  0
   61.7036   34.6535   45.6769 H   0  0  0  0  0  0  0  0  0  0  0  0
   61.6742   32.8555   45.9219 H   0  0  0  0  0  0  0  0  0  0  0  0
   58.8433   35.0314   45.0565 H   0  0  0  0  0  0  0  0  0  0  0  0
   57.6785   33.8181   43.2149 H   0  0  0  0  0  0  0  0  0  0  0  0
   56.7338   31.7506   42.3074 H   0  0  0  0  0  0  0  0  0  0  0  0
   56.2472   29.3147   42.5481 H   0  0  0  0  0  0  0  0  0  0  0  0
   56.9117   28.1011   44.6214 H   0  0  0  0  0  0  0  0  0  0  0  0
   58.0650   29.3137   46.4719 H   0  0  0  0  0  0  0  0  0  0  0  0
   59.0079   31.3816   47.3803 H   0  0  0  0  0  0  0  0  0  0  0  0
  1  2  2  3
  2  3  1  0
  3  4  1  0
  4  5  1  0
  5  6  1  0
  6  7  1  0
  1  8  1  0
  8  9  2  0
  9 10  1  0
 10 11  2  0
 11 12  1  0
 12 13  2  0
 13 14  1  0
 14 15  2  0
 15 16  1  0
 16 17  2  0
  7  2  1  0
 17  8  1  0
 16 11  1  0
  1 18  1  0
  3 19  1  0
  3 20  1  0
  4 21  1  0
  4 22  1  0
  5 23  1  0
  5 24  1  0
  6 25  1  0
  6 26  1  0
  7 27  1  0
  7 28  1  0
  9 29  1  0
 10 30  1  0
 12 31  1  0
 13 32  1  0
 14 33  1  0
 15 34  1  0
 17 35  1  0
M  END
>  <UniqueID>  (3) 
3

>  <SMILES>  (3) 
C(=C1CCCCC1)c1ccc2ccccc2c1

>  <Energy>  (3) 
47.1849655064602

>  <Genealogy>  (3) 
C(=C1CCCCC1)c1ccc2ccccc2c1 (3D coordinates assigned)
C(=C1CCCCC1)c1ccc2ccccc2c1 (nonaromatic ring conformer: 47.1849655064602 kcal/mol)

>  <smiles>  (3) 
C(=C1CCCCC1)c1ccc2ccccc2c1

>  <score_type>  (3) 
oracle

>  <origin>  (3) 
adg

>  <m_score__min__energy>  (3) 
-7.6799999999999997

>  <m_primary>  (3) 
energy

$$$$
3:0
     RDKit          3D

 43 45  0  0  0  0  0  0  0  0999 V2000
   60.0841   35.7315   47.7380 H   0  0  0  0  0  0  0  0  0  0  0  0
   59.6030   34.9780   47.0970 C   0  0  0  0  0  0  0  0  0  0  0  0
   58.9530   33.8840   47.6720 C   0  0  0  0  0  0  0  0  0  0  0  0
   58.9208   33.7780   48.7664 H   0  0  0  0  0  0  0  0  0  0  0  0
   58.3430   32.9230   46.8600 C   0  0  0  0  0  0  0  0  0  0  0  0
   57.8336   32.0628   47.3190 H   0  0  0  0  0  0  0  0  0  0  0  0
   58.3770   33.0500   45.4590 C   0  0  0  0  0  0  0  0  0  0  0  0
   57.7320   32.0340   44.5870 C   0  0  0  0  0  0  0  0  0  0  0  0
   57.7530   32.1840   43.1920 C   0  0  0  0  0  0  0  0  0  0  0  0
   58.2396   33.0593   42.7369 H   0  0  0  0  0  0  0  0  0  0  0  0
   57.1540   31.2180   42.3870 C   0  0  0  0  0  0  0  0  0  0  0  0
   57.1624   31.3309   41.2928 H   0  0  0  0  0  0  0  0  0  0  0  0
   56.5450   30.1100   42.9680 C   0  0  0  0  0  0  0  0  0  0  0  0
   56.0711   29.3451   42.3353 H   0  0  0  0  0  0  0  0  0  0  0  0
   56.5380   29.9730   44.3600 C   0  0  0  0  0  0  0  0  0  0  0  0
   55.9730   28.9160   44.8760 N   0  0  0  0  0  0  0  0  0  0  0  0
   56.6320   27.7710   45.5070 C   0  0  0  0  0  0  0  0  0  0  0  0
   56.1347   26.8466   45.1782 H   0  0  0  0  0  0  0  0  0  0  0  0
   56.5582   27.8887   46.5982 H   0  0  0  0  0  0  0  0  0  0  0  0
   58.1180   27.6990   45.1300 C   0  0  0  0  0  0  0  0  0  0  0  0
   58.2382   28.0246   44.0862 H   0  0  0  0  0  0  0  0  0  0  0  0
   58.4566   26.6602   45.2574 H   0  0  0  0  0  0  0  0  0  0  0  0
   58.9560   28.5820   46.0180 C   0  0  0  0  0  0  0  0  0  0  0  0
   58.6220   28.7470   47.3710 C   0  0  0  0  0  0  0  0  0  0  0  0
   57.7604   28.2080   47.7919 H   0  0  0  0  0  0  0  0  0  0  0  0
   59.3800   29.5940   48.1870 C   0  0  0  0  0  0  0  0  0  0  0  0
   59.1147   29.7139   49.2478 H   0  0  0  0  0  0  0  0  0  0  0  0
   60.4800   30.2930   47.6570 C   0  0  0  0  0  0  0  0  0  0  0  0
   61.2700   31.1530   48.4340 O   0  0  0  0  0  0  0  0  0  0  0  0
   62.2630   32.0260   47.9080 C   0  0  0  0  0  0  0  0  0  0  0  0
   62.8068   32.5041   48.7361 H   0  0  0  0  0  0  0  0  0  0  0  0
   62.9679   31.4499   47.2906 H   0  0  0  0  0  0  0  0  0  0  0  0
   61.7819   32.7989   47.2906 H   0  0  0  0  0  0  0  0  0  0  0  0
   60.8040   30.1320   46.3040 C   0  0  0  0  0  0  0  0  0  0  0  0
   61.6615   30.6752   45.8801 H   0  0  0  0  0  0  0  0  0  0  0  0
   60.0470   29.2870   45.4880 C   0  0  0  0  0  0  0  0  0  0  0  0
   60.3077   29.1741   44.4253 H   0  0  0  0  0  0  0  0  0  0  0  0
   57.1220   30.9410   45.1370 N   0  0  0  0  0  0  0  0  0  0  0  0
   57.0840   30.8730   46.1770 H   0  0  0  0  0  0  0  0  0  0  0  0
   59.0340   34.1570   44.8900 C   0  0  0  0  0  0  0  0  0  0  0  0
   59.0694   34.2691   43.7963 H   0  0  0  0  0  0  0  0  0  0  0  0
   59.6420   35.1150   45.7070 C   0  0  0  0  0  0  0  0  0  0  0  0
   60.1520   35.9782   45.2546 H   0  0  0  0  0  0  0  0  0  0  0  0
  1  2  1  0
  2  3  2  0
  3  4  1  0
  3  5  1  0
  5  6  1  0
  5  7  2  0
  7  8  1  0
  8  9  2  0
  9 10  1  0
  9 11  1  0
 11 12  1  0
 11 13  2  0
 13 14  1  0
 13 15  1  0
 15 16  2  0
 16 17  1  0
 17 18  1  0
 17 19  1  0
 17 20  1  0
 20 21  1  0
 20 22  1  0
 20 23  1  0
 23 24  2  0
 24 25  1  0
 24 26  1  0
 26 27  1  0
 26 28  2  0
 28 29  1  0
 29 30  1  0
 30 31  1  0
 30 32  1  0
 30 33  1  0
 28 34  1  0
 34 35  1  0
 34 36  2  0
 36 37  1  0
 15 38  1  0
 38 39  1  0
  7 40  1  0
 40 41  1  0
 40 42  2  0
 42 43  1  0
 42  2  1  0
 38  8  1  0
 36 23  1  0
M  END
>  <UniqueID>  (4) 
4

>  <SMILES>  (4) 
COc1ccc(CC/N=c2/cccc(-c3ccccc3)[nH]2)cc1

>  <Energy>  (4) 
48.87246310064894

>  <Genealogy>  (4) 
COc1ccc(CC/N=c2/cccc(-c3ccccc3)[nH]2)cc1 (cis-trans isomerization)
COc1ccc(CC/N=c2/cccc(-c3ccccc3)[nH]2)cc1 (3D coordinates assigned)
COc1ccc(CC/N=c2/cccc(-c3ccccc3)[nH]2)cc1 (optimized conformer: 48.87246310064894 kcal/mol)

>  <smiles>  (4) 
COc1ccc(CCN=c2cccc(-c3ccccc3)[nH]2)cc1

>  <score_type>  (4) 
oracle

>  <origin>  (4) 
adg

>  <m_score__min__energy>  (4) 
-7.4500000000000002

>  <m_primary>  (4) 
energy

$$$$
4:0
     RDKit          3D

 40 43  0  0  0  0  0  0  0  0999 V2000
   55.3795   23.9807   43.1757 H   0  0  0  0  0  0  0  0  0  0  0  0
   56.0670   23.1800   43.4860 C   0  0  0  0  0  0  0  0  0  0  0  0
   56.2350   22.0850   42.7000 N   0  0  0  0  0  0  0  0  0  0  0  0
   57.0920   21.0930   43.0570 C   0  0  0  0  0  0  0  0  0  0  0  0
   57.2045   20.2072   42.4146 H   0  0  0  0  0  0  0  0  0  0  0  0
   57.8110   21.1930   44.2070 N   0  0  0  0  0  0  0  0  0  0  0  0
   58.4780   20.4340   44.4660 H   0  0  0  0  0  0  0  0  0  0  0  0
   57.6750   22.2750   45.0200 C   0  0  0  0  0  0  0  0  0  0  0  0
   58.2781   22.3522   45.9367 H   0  0  0  0  0  0  0  0  0  0  0  0
   56.7710   23.2880   44.6930 C   0  0  0  0  0  0  0  0  0  0  0  0
   56.6770   24.4570   45.5230 N   0  0  0  0  0  0  0  0  0  0  0  0
   56.9830   25.6840   45.2060 C   0  0  0  0  0  0  0  0  0  0  0  0
   56.3780   26.6960   45.8820 N   0  0  0  0  0  0  0  0  0  0  0  0
   56.6410   28.0040   45.6260 C   0  0  0  0  0  0  0  0  0  0  0  0
   56.1195   28.7877   46.1950 H   0  0  0  0  0  0  0  0  0  0  0  0
   57.5740   28.3620   44.6400 C   0  0  0  0  0  0  0  0  0  0  0  0
   57.9140   29.8220   44.3830 C   0  0  0  0  0  0  0  0  0  0  0  0
   57.5712   30.0809   43.3704 H   0  0  0  0  0  0  0  0  0  0  0  0
   59.0030   29.9149   44.5069 H   0  0  0  0  0  0  0  0  0  0  0  0
   57.2980   30.7790   45.3400 N   0  0  0  0  0  0  0  0  0  0  0  0
   58.1490   31.0420   46.5250 C   0  0  0  0  0  0  0  0  0  0  0  0
   58.9578   30.2995   46.5923 H   0  0  0  0  0  0  0  0  0  0  0  0
   57.5803   30.9753   47.4642 H   0  0  0  0  0  0  0  0  0  0  0  0
   58.7040   32.3970   46.3070 C   0  0  0  0  0  0  0  0  0  0  0  0
   59.7330   33.0390   46.9970 C   0  0  0  0  0  0  0  0  0  0  0  0
   60.2478   32.5414   47.8320 H   0  0  0  0  0  0  0  0  0  0  0  0
   60.0950   34.3360   46.5990 C   0  0  0  0  0  0  0  0  0  0  0  0
   60.9071   34.8629   47.1214 H   0  0  0  0  0  0  0  0  0  0  0  0
   59.4220   34.9650   45.5330 C   0  0  0  0  0  0  0  0  0  0  0  0
   59.7098   35.9812   45.2254 H   0  0  0  0  0  0  0  0  0  0  0  0
   58.3840   34.2970   44.8620 C   0  0  0  0  0  0  0  0  0  0  0  0
   57.8470   34.7795   44.0321 H   0  0  0  0  0  0  0  0  0  0  0  0
   58.0510   33.0050   45.2750 C   0  0  0  0  0  0  0  0  0  0  0  0
   57.0120   32.1020   44.7330 C   0  0  0  0  0  0  0  0  0  0  0  0
   57.0811   32.0473   43.6365 H   0  0  0  0  0  0  0  0  0  0  0  0
   55.9963   32.4532   44.9676 H   0  0  0  0  0  0  0  0  0  0  0  0
   58.1590   27.3380   43.8830 C   0  0  0  0  0  0  0  0  0  0  0  0
   58.8465   27.5898   43.0620 H   0  0  0  0  0  0  0  0  0  0  0  0
   57.8750   26.0010   44.1640 C   0  0  0  0  0  0  0  0  0  0  0  0
   58.3452   25.1997   43.5750 H   0  0  0  0  0  0  0  0  0  0  0  0
  1  2  1  0
  2  3  2  0
  3  4  1  0
  4  5  1  0
  4  6  2  0
  6  7  1  0
  6  8  1  0
  8  9  1  0
  8 10  2  0
 10 11  1  0
 11 12  2  0
 12 13  1  0
 13 14  1  0
 14 15  1  0
 14 16  2  0
 16 17  1  0
 17 18  1  0
 17 19  1  0
 17 20  1  0
 20 21  1  0
 21 22  1  0
 21 23  1  0
 21 24  1  0
 24 25  2  0
 25 26  1  0
 25 27  1  0
 27 28  1  0
 27 29  2  0
 29 30  1  0
 29 31  1  0
 31 32  1  0
 31 33  2  0
 33 34  1  0
 34 35  1  0
 34 36  1  0
 16 37  1  0
 37 38  1  0
 37 39  2  0
 39 40  1  0
 10  2  1  0
 39 12  1  0
 34 20  1  0
 33 24  1  0
M  CHG  2   6   1  13  -1
M  END
>  <UniqueID>  (5) 
5

>  <SMILES>  (5) 
c1ccc2c(c1)CN(Cc1cc/c(=N\c3cnc[nH+]c3)[n-]c1)C2

>  <Energy>  (5) 
70.91221440622024

>  <Genealogy>  (5) 
c1ccc2c(c1)CN(Cc1ccc(=Nc3cnc[nH+]c3)[n-]c1)C2 (protonated)
c1ccc2c(c1)CN(Cc1cc/c(=N\c3cnc[nH+]c3)[n-]c1)C2 (cis-trans isomerization)
c1ccc2c(c1)CN(Cc1cc/c(=N\c3cnc[nH+]c3)[n-]c1)C2 (3D coordinates assigned)
c1ccc2c(c1)CN(Cc1cc/c(=N\c3cnc[nH+]c3)[n-]c1)C2 (nonaromatic ring conformer: 70.91221440622024 kcal/mol)

>  <smiles>  (5) 
c1ccc2c(c1)CN(Cc1ccc(=Nc3cncnc3)[nH]c1)C2

>  <score_type>  (5) 
oracle

>  <origin>  (5) 
adg

>  <m_score__min__energy>  (5) 
-9.0700000000000003

>  <m_primary>  (5) 
energy

$$$$
5:0
     RDKit          3D

 32 34  0  0  0  0  0  0  0  0999 V2000
   64.1688   34.5343   48.8215 H   0  0  0  0  0  0  0  0  0  0  0  0
   63.4000   33.8110   48.5120 C   0  0  0  0  0  0  0  0  0  0  0  0
   62.1140   33.9690   48.9210 N   0  0  0  0  0  0  0  0  0  0  0  0
   61.1300   33.0950   48.5760 C   0  0  0  0  0  0  0  0  0  0  0  0
   59.4570   33.4660   49.1230 S   0  0  0  0  0  0  0  0  0  0  0  0
   58.8980   33.8460   47.4620 C   0  0  0  0  0  0  0  0  0  0  0  0
   57.6560   33.3770   47.0150 C   0  0  0  0  0  0  0  0  0  0  0  0
   57.0247   32.7716   47.6820 H   0  0  0  0  0  0  0  0  0  0  0  0
   57.2180   33.6780   45.7210 C   0  0  0  0  0  0  0  0  0  0  0  0
   56.2419   33.3106   45.3713 H   0  0  0  0  0  0  0  0  0  0  0  0
   58.0210   34.4460   44.8720 C   0  0  0  0  0  0  0  0  0  0  0  0
   57.6743   34.6854   43.8559 H   0  0  0  0  0  0  0  0  0  0  0  0
   59.2640   34.9100   45.3130 C   0  0  0  0  0  0  0  0  0  0  0  0
   59.8958   35.5117   44.6431 H   0  0  0  0  0  0  0  0  0  0  0  0
   59.7040   34.6090   46.6060 C   0  0  0  0  0  0  0  0  0  0  0  0
   60.6835   34.9714   46.9515 H   0  0  0  0  0  0  0  0  0  0  0  0
   61.4380   31.9730   47.7700 C   0  0  0  0  0  0  0  0  0  0  0  0
   60.4230   30.9710   47.3680 C   0  0  0  0  0  0  0  0  0  0  0  0
   59.9630   30.1620   48.2200 O   0  0  0  0  0  0  0  0  0  0  0  0
   60.0010   30.9090   45.9950 N   0  0  0  0  0  0  0  0  0  0  0  0
   58.8860   30.4240   45.5300 C   0  0  0  0  0  0  0  0  0  0  0  0
   58.1200   30.8530   44.0890 S   0  0  0  0  0  0  0  0  0  0  0  0
   56.8570   29.7610   44.3080 C   0  0  0  0  0  0  0  0  0  0  0  0
   56.0097   29.6078   43.6235 H   0  0  0  0  0  0  0  0  0  0  0  0
   57.0720   29.0860   45.5060 C   0  0  0  0  0  0  0  0  0  0  0  0
   56.3863   28.3128   45.8829 H   0  0  0  0  0  0  0  0  0  0  0  0
   58.1970   29.4580   46.1740 N   0  0  0  0  0  0  0  0  0  0  0  0
   58.4900   29.0370   47.0840 H   0  0  0  0  0  0  0  0  0  0  0  0
   62.7630   31.8170   47.3290 C   0  0  0  0  0  0  0  0  0  0  0  0
   63.0274   30.9652   46.6852 H   0  0  0  0  0  0  0  0  0  0  0  0
   63.7440   32.7330   47.7010 C   0  0  0  0  0  0  0  0  0  0  0  0
   64.7811   32.6059   47.3571 H   0  0  0  0  0  0  0  0  0  0  0  0
  1  2  1  0
  2  3  2  0
  3  4  1  0
  4  5  1  0
  5  6  1  0
  6  7  2  0
  7  8  1  0
  7  9  1  0
  9 10  1  0
  9 11  2  0
 11 12  1  0
 11 13  1  0
 13 14  1  0
 13 15  2  0
 15 16  1  0
  4 17  2  0
 17 18  1  0
 18 19  2  0
 18 20  1  0
 20 21  2  0
 21 22  1  0
 22 23  1  0
 23 24  1  0
 23 25  2  0
 25 26  1  0
 25 27  1  0
 27 28  1  0
 17 29  1  0
 29 30  1  0
 29 31  2  0
 31 32  1  0
 31  2  1  0
 15  6  1  0
 27 21  1  0
M  END
>  <UniqueID>  (6) 
6

>  <SMILES>  (6) 
O=C(/N=c1/[nH]ccs1)c1cccnc1Sc1ccccc1

>  <Energy>  (6) 
68.27807351345851

>  <Genealogy>  (6) 
O=C(/N=c1/[nH]ccs1)c1cccnc1Sc1ccccc1 (cis-trans isomerization)
O=C(/N=c1/[nH]ccs1)c1cccnc1Sc1ccccc1 (3D coordinates assigned)
O=C(/N=c1/[nH]ccs1)c1cccnc1Sc1ccccc1 (optimized conformer: 68.27807351345851 kcal/mol)

>  <smiles>  (6) 
O=C(N=c1[nH]ccs1)c1cccnc1Sc1ccccc1

>  <score_type>  (6) 
oracle

>  <origin>  (6) 
adg

>  <m_score__min__energy>  (6) 
-6.9100000000000001

>  <m_primary>  (6) 
energy

$$$$
6:0
     RDKit          3D

 32 34  0  0  0  0  0  0  0  0999 V2000
   56.4590   24.3660   46.7880 C   0  0  0  0  0  0  0  0  0  0  0  0
   57.1980   25.5750   46.2890 C   0  0  0  0  0  0  0  0  0  0  0  0
   58.5980   25.5600   46.2150 C   0  0  0  0  0  0  0  0  0  0  0  0
   59.2750   26.6910   45.7630 C   0  0  0  0  0  0  0  0  0  0  0  0
   58.5580   27.8220   45.3840 C   0  0  0  0  0  0  0  0  0  0  0  0
   57.1550   27.8100   45.4500 C   0  0  0  0  0  0  0  0  0  0  0  0
   56.3980   28.9370   45.0930 O   0  0  0  0  0  0  0  0  0  0  0  0
   56.8630   30.0270   44.3400 C   0  0  0  0  0  0  0  0  0  0  0  0
   56.5890   30.1290   42.9640 C   0  0  0  0  0  0  0  0  0  0  0  0
   57.0410   31.2260   42.2290 C   0  0  0  0  0  0  0  0  0  0  0  0
   57.7620   32.2440   42.8560 C   0  0  0  0  0  0  0  0  0  0  0  0
   58.0290   32.1710   44.2290 C   0  0  0  0  0  0  0  0  0  0  0  0
   58.7430   33.1890   44.8750 C   0  0  0  0  0  0  0  0  0  0  0  0
   58.9960   33.0980   46.2430 C   0  0  0  0  0  0  0  0  0  0  0  0
   58.5340   31.9910   46.9550 C   0  0  0  0  0  0  0  0  0  0  0  0
   57.8410   31.0040   46.3230 N   0  0  0  0  0  0  0  0  0  0  0  0
   57.5750   31.0610   44.9820 C   0  0  0  0  0  0  0  0  0  0  0  0
   56.5100   26.6990   45.9140 N   0  0  0  0  0  0  0  0  0  0  0  0
   55.1350   26.7150   45.9950 O   0  0  0  0  0  0  0  0  0  0  0  0
   56.4583   24.3648   47.8880 H   0  0  0  0  0  0  0  0  0  0  0  0
   55.4225   24.3924   46.4207 H   0  0  0  0  0  0  0  0  0  0  0  0
   56.9551   23.4555   46.4207 H   0  0  0  0  0  0  0  0  0  0  0  0
   59.1584   24.6612   46.5118 H   0  0  0  0  0  0  0  0  0  0  0  0
   60.3735   26.6899   45.7059 H   0  0  0  0  0  0  0  0  0  0  0  0
   59.0873   28.7207   45.0345 H   0  0  0  0  0  0  0  0  0  0  0  0
   56.0133   29.3370   42.4628 H   0  0  0  0  0  0  0  0  0  0  0  0
   56.8284   31.2888   41.1516 H   0  0  0  0  0  0  0  0  0  0  0  0
   58.1206   33.1040   42.2713 H   0  0  0  0  0  0  0  0  0  0  0  0
   59.1030   34.0577   44.3042 H   0  0  0  0  0  0  0  0  0  0  0  0
   59.5558   33.8932   46.7571 H   0  0  0  0  0  0  0  0  0  0  0  0
   58.7309   31.9149   48.0346 H   0  0  0  0  0  0  0  0  0  0  0  0
   57.5170   30.1930   46.8970 H   0  0  0  0  0  0  0  0  0  0  0  0
  1  2  1  0
  2  3  2  0
  3  4  1  0
  4  5  2  0
  5  6  1  0
  6  7  1  0
  7  8  1  0
  8  9  2  0
  9 10  1  0
 10 11  2  0
 11 12  1  0
 12 13  2  0
 13 14  1  0
 14 15  2  0
 15 16  1  0
 16 17  2  0
  6 18  2  0
 18 19  1  0
 18  2  1  0
 17  8  1  0
 17 12  1  0
  1 20  1  0
  1 21  1  0
  1 22  1  0
  3 23  1  0
  4 24  1  0
  5 25  1  0
  9 26  1  0
 10 27  1  0
 11 28  1  0
 13 29  1  0
 14 30  1  0
 15 31  1  0
 16 32  1  0
M  CHG  3  16   1  18   1  19  -1
M  END
>  <UniqueID>  (7) 
7

>  <SMILES>  (7) 
Cc1cccc(Oc2cccc3ccc[nH+]c23)[n+]1[O-]

>  <Energy>  (7) 
45.51903557781018

>  <Genealogy>  (7) 
Cc1cccc(Oc2cccc3ccc[nH+]c23)[n+]1[O-] (protonated)
Cc1cccc(Oc2cccc3ccc[nH+]c23)[n+]1[O-] (3D coordinates assigned)
Cc1cccc(Oc2cccc3ccc[nH+]c23)[n+]1[O-] (optimized conformer: 45.51903557781018 kcal/mol)

>  <smiles>  (7) 
Cc1cccc(Oc2cccc3cccnc23)[n+]1[O-]

>  <score_type>  (7) 
oracle

>  <origin>  (7) 
adg

>  <m_score__min__energy>  (7) 
-6.96

>  <m_primary>  (7) 
energy

$$$$
7:0
     RDKit          3D

 32 33  0  0  1  0  0  0  0  0999 V2000
   57.0220   31.2130   42.2510 C   0  0  0  0  0  0  0  0  0  0  0  0
   56.3090   30.2560   43.2170 C   0  0  0  0  0  0  0  0  0  0  0  0
   56.3100   30.8420   44.5570 N   0  0  0  0  0  0  0  0  0  0  0  0
   57.4100   30.8280   45.2330 C   0  0  0  0  0  0  0  0  0  0  0  0
   57.9570   29.7050   45.7140 N   0  0  0  0  0  0  0  0  0  0  0  0
   59.1010   29.8220   46.4140 C   0  0  0  0  0  0  0  0  0  0  0  0
   59.6950   28.6200   46.9150 N   0  0  0  0  0  0  0  0  0  0  0  0
   59.6540   28.2450   48.3130 C   0  0  0  0  0  0  0  0  0  0  0  0
   60.3630   27.7820   45.9390 C   0  0  0  0  0  0  0  0  0  0  0  0
   59.6930   31.0040   46.6370 N   0  0  0  0  0  0  0  0  0  0  0  0
   59.1620   32.1530   46.1610 C   0  0  0  0  0  0  0  0  0  0  0  0
   59.7560   33.3760   46.3770 C   0  0  0  0  0  0  0  0  0  0  0  0
   59.1720   34.5360   45.8640 C   0  0  0  0  0  0  0  0  0  0  0  0
   57.9980   34.4470   45.1420 C   0  0  0  0  0  0  0  0  0  0  0  0
   57.3830   33.2370   44.9120 C   0  0  0  0  0  0  0  0  0  0  0  0
   57.9920   32.0880   45.4390 C   0  0  0  0  0  0  0  0  0  0  0  0
   57.5821   31.9648   42.8264 H   0  0  0  0  0  0  0  0  0  0  0  0
   57.7176   30.6433   41.6173 H   0  0  0  0  0  0  0  0  0  0  0  0
   56.2771   31.7165   41.6173 H   0  0  0  0  0  0  0  0  0  0  0  0
   55.2724   30.1004   42.8835 H   0  0  0  0  0  0  0  0  0  0  0  0
   56.8322   29.2886   43.2346 H   0  0  0  0  0  0  0  0  0  0  0  0
   59.7524   29.1454   48.9372 H   0  0  0  0  0  0  0  0  0  0  0  0
   58.6964   27.7500   48.5319 H   0  0  0  0  0  0  0  0  0  0  0  0
   60.4820   27.5548   48.5319 H   0  0  0  0  0  0  0  0  0  0  0  0
   60.9673   27.0240   46.4589 H   0  0  0  0  0  0  0  0  0  0  0  0
   59.6120   27.2832   45.3087 H   0  0  0  0  0  0  0  0  0  0  0  0
   61.0167   28.4029   45.3087 H   0  0  0  0  0  0  0  0  0  0  0  0
   60.5780   31.0410   47.1810 H   0  0  0  0  0  0  0  0  0  0  0  0
   60.6906   33.4394   46.9537 H   0  0  0  0  0  0  0  0  0  0  0  0
   59.6442   35.5149   46.0339 H   0  0  0  0  0  0  0  0  0  0  0  0
   57.5435   35.3650   44.7411 H   0  0  0  0  0  0  0  0  0  0  0  0
   56.4481   33.1732   44.3360 H   0  0  0  0  0  0  0  0  0  0  0  0
  1  2  1  0
  2  3  1  0
  3  4  2  0
  4  5  1  0
  5  6  2  0
  6  7  1  0
  7  8  1  0
  7  9  1  0
  6 10  1  0
 10 11  1  0
 11 12  2  0
 12 13  1  0
 13 14  2  0
 14 15  1  0
 15 16  2  0
 16  4  1  0
 16 11  1  0
  1 17  1  0
  1 18  1  0
  1 19  1  0
  2 20  1  0
  2 21  1  0
  8 22  1  0
  8 23  1  0
  8 24  1  0
  9 25  1  0
  9 26  1  0
  9 27  1  0
 10 28  1  0
 12 29  1  0
 13 30  1  0
 14 31  1  0
 15 32  1  0
M  END
>  <smiles>  (8) 
CCN=c1nc(N(C)C)[nH]c2ccccc12

>  <score_type>  (8) 
oracle

>  <origin>  (8) 
adg

>  <m_score__min__energy>  (8) 
-5.6299999999999999

>  <m_primary>  (8) 
energy

$$$$
8:0
     RDKit          3D

 27 28  0  0  0  0  0  0  0  0999 V2000
   56.7090   27.0600   43.8540 H   0  0  0  0  0  0  0  0  0  0  0  0
   57.4630   26.8810   44.5550 N   0  0  0  0  0  0  0  0  0  0  0  0
   58.3220   27.7930   44.8940 C   0  0  0  0  0  0  0  0  0  0  0  0
   57.9120   29.1330   45.0450 C   0  0  0  0  0  0  0  0  0  0  0  0
   56.5260   29.5010   44.8420 C   0  0  0  0  0  0  0  0  0  0  0  0
   55.4180   29.7950   44.6810 N   0  0  0  0  0  0  0  0  0  0  0  0
   58.8640   30.1050   45.4180 C   0  0  0  0  0  0  0  0  0  0  0  0
   58.4970   31.5310   45.5830 C   0  0  0  0  0  0  0  0  0  0  0  0
   58.5010   32.0850   46.8740 C   0  0  0  0  0  0  0  0  0  0  0  0
   58.7888   31.4632   47.7345 H   0  0  0  0  0  0  0  0  0  0  0  0
   58.1420   33.4200   47.0720 C   0  0  0  0  0  0  0  0  0  0  0  0
   58.1519   33.8471   48.0856 H   0  0  0  0  0  0  0  0  0  0  0  0
   57.7710   34.2120   45.9860 C   0  0  0  0  0  0  0  0  0  0  0  0
   57.4822   35.2613   46.1458 H   0  0  0  0  0  0  0  0  0  0  0  0
   57.7650   33.6770   44.6960 C   0  0  0  0  0  0  0  0  0  0  0  0
   57.4647   34.3063   43.8452 H   0  0  0  0  0  0  0  0  0  0  0  0
   58.1400   32.3400   44.4770 C   0  0  0  0  0  0  0  0  0  0  0  0
   58.1270   31.7920   43.0750 C   0  0  0  0  0  0  0  0  0  0  0  0
   58.1009   30.6929   43.1112 H   0  0  0  0  0  0  0  0  0  0  0  0
   57.2374   32.1626   42.5447 H   0  0  0  0  0  0  0  0  0  0  0  0
   59.0332   32.1200   42.5447 H   0  0  0  0  0  0  0  0  0  0  0  0
   60.1940   29.7160   45.6260 C   0  0  0  0  0  0  0  0  0  0  0  0
   60.9486   30.4622   45.9154 H   0  0  0  0  0  0  0  0  0  0  0  0
   60.5570   28.3810   45.4650 C   0  0  0  0  0  0  0  0  0  0  0  0
   61.6007   28.0745   45.6285 H   0  0  0  0  0  0  0  0  0  0  0  0
   59.6290   27.4550   45.1070 N   0  0  0  0  0  0  0  0  0  0  0  0
   59.9380   26.4620   44.9960 H   0  0  0  0  0  0  0  0  0  0  0  0
  1  2  1  0
  2  3  2  0
  3  4  1  0
  4  5  1  0
  5  6  3  0
  4  7  2  0
  7  8  1  0
  8  9  2  0
  9 10  1  0
  9 11  1  0
 11 12  1  0
 11 13  2  0
 13 14  1  0
 13 15  1  0
 15 16  1  0
 15 17  2  0
 17 18  1  0
 18 19  1  0
 18 20  1  0
 18 21  1  0
  7 22  1  0
 22 23  1  0
 22 24  2  0
 24 25  1  0
 24 26  1  0
 26 27  1  0
 26  3  1  0
 17  8  1  0
M  END
>  <UniqueID>  (9) 
8

>  <SMILES>  (9) 
[H]/N=c1\[nH]ccc(-c2ccccc2C)c1C#N

>  <Energy>  (9) 
37.10668884048445

>  <Genealogy>  (9) 
[H]/N=c1\[nH]ccc(-c2ccccc2C)c1C#N (cis-trans isomerization)
[H]/N=c1\[nH]ccc(-c2ccccc2C)c1C#N (3D coordinates assigned)
[H]/N=c1\[nH]ccc(-c2ccccc2C)c1C#N (optimized conformer: 37.10668884048445 kcal/mol)

>  <smiles>  (9) 
Cc1ccccc1-c1cc[nH]c(=N)c1C#N

>  <score_type>  (9) 
oracle

>  <origin>  (9) 
adg

>  <m_score__min__energy>  (9) 
-6.1699999999999999

>  <m_primary>  (9) 
energy

$$$$
9:0
     RDKit          3D

 29 31  0  0  0  0  0  0  0  0999 V2000
   55.5831   28.9344   43.6796 H   0  0  0  0  0  0  0  0  0  0  0  0
   56.2400   29.8100   43.7880 C   0  0  0  0  0  0  0  0  0  0  0  0
   56.6730   30.1850   45.0200 N   0  0  0  0  0  0  0  0  0  0  0  0
   57.4960   31.2550   45.1930 C   0  0  0  0  0  0  0  0  0  0  0  0
   57.8142   31.5432   46.2058 H   0  0  0  0  0  0  0  0  0  0  0  0
   57.9390   31.9900   44.0880 C   0  0  0  0  0  0  0  0  0  0  0  0
   58.7630   33.1470   44.2960 N   0  0  0  0  0  0  0  0  0  0  0  0
   59.1690   33.6100   45.4410 C   0  0  0  0  0  0  0  0  0  0  0  0
   58.2300   34.5900   46.4240 S   0  0  0  0  0  0  0  0  0  0  0  0
   59.3930   34.6760   47.6360 C   0  0  0  0  0  0  0  0  0  0  0  0
   59.3003   35.2349   48.5789 H   0  0  0  0  0  0  0  0  0  0  0  0
   60.4990   33.9150   47.2400 C   0  0  0  0  0  0  0  0  0  0  0  0
   61.7170   33.7530   48.0710 C   0  0  0  0  0  0  0  0  0  0  0  0
   61.6910   34.0650   49.4430 C   0  0  0  0  0  0  0  0  0  0  0  0
   60.7613   34.4315   49.9026 H   0  0  0  0  0  0  0  0  0  0  0  0
   62.8400   33.9120   50.2260 C   0  0  0  0  0  0  0  0  0  0  0  0
   62.8107   34.1598   51.2973 H   0  0  0  0  0  0  0  0  0  0  0  0
   64.0230   33.4460   49.6520 C   0  0  0  0  0  0  0  0  0  0  0  0
   64.9250   33.3274   50.2704 H   0  0  0  0  0  0  0  0  0  0  0  0
   64.0620   33.1300   48.2920 C   0  0  0  0  0  0  0  0  0  0  0  0
   64.9949   32.7618   47.8403 H   0  0  0  0  0  0  0  0  0  0  0  0
   62.9170   33.2810   47.5040 C   0  0  0  0  0  0  0  0  0  0  0  0
   62.9535   33.0295   46.4338 H   0  0  0  0  0  0  0  0  0  0  0  0
   60.3590   33.3200   46.0200 N   0  0  0  0  0  0  0  0  0  0  0  0
   61.0650   32.6630   45.6210 H   0  0  0  0  0  0  0  0  0  0  0  0
   57.4710   31.6370   42.8110 C   0  0  0  0  0  0  0  0  0  0  0  0
   57.7685   32.2282   41.9324 H   0  0  0  0  0  0  0  0  0  0  0  0
   56.6280   30.5350   42.6590 C   0  0  0  0  0  0  0  0  0  0  0  0
   56.2729   30.2406   41.6604 H   0  0  0  0  0  0  0  0  0  0  0  0
  1  2  1  0
  2  3  2  0
  3  4  1  0
  4  5  1  0
  4  6  2  0
  6  7  1  0
  7  8  2  0
  8  9  1  0
  9 10  1  0
 10 11  1  0
 10 12  2  0
 12 13  1  0
 13 14  2  0
 14 15  1  0
 14 16  1  0
 16 17  1  0
 16 18  2  0
 18 19  1  0
 18 20  1  0
 20 21  1  0
 20 22  2  0
 22 23  1  0
 12 24  1  0
 24 25  1  0
  6 26  1  0
 26 27  1  0
 26 28  2  0
 28 29  1  0
 28  2  1  0
 24  8  1  0
 22 13  1  0
M  END
>  <UniqueID>  (10) 
9

>  <SMILES>  (10) 
c1ccc(-c2cs/c(=N/c3cccnc3)[nH]2)cc1

>  <Energy>  (10) 
73.00434963598269

>  <Genealogy>  (10) 
c1ccc(-c2cs/c(=N/c3cccnc3)[nH]2)cc1 (cis-trans isomerization)
c1ccc(-c2cs/c(=N/c3cccnc3)[nH]2)cc1 (3D coordinates assigned)
c1ccc(-c2cs/c(=N/c3cccnc3)[nH]2)cc1 (optimized conformer: 73.00434963598269 kcal/mol)

>  <smiles>  (10) 
c1ccc(-c2csc(=Nc3cccnc3)[nH]2)cc1

>  <score_type>  (10) 
oracle

>  <origin>  (10) 
adg

>  <m_score__min__energy>  (10) 
-6.8099999999999996

>  <m_primary>  (10) 
energy

$$$$
10:0
     RDKit          3D

 45 48  0  0  0  0  0  0  0  0999 V2000
   55.3280   30.4270   44.4530 O   0  0  0  0  0  0  0  0  0  0  0  0
   56.2180   29.6410   44.8700 C   0  0  0  0  0  0  0  0  0  0  0  0
   57.5440   30.0630   44.9500 C   0  0  0  0  0  0  0  0  0  0  0  0
   58.5380   29.1880   45.4180 C   0  0  0  0  0  0  0  0  0  0  0  0
   59.9470   29.7380   45.5270 C   0  0  0  0  0  0  0  0  0  0  0  0
   60.1030   30.6250   46.6980 N   0  0  0  0  0  0  0  0  0  0  0  0
   61.1300   30.3290   47.7160 C   0  0  0  0  0  0  0  0  0  0  0  0
   61.9310   31.5480   48.1140 C   0  0  0  0  0  0  0  0  0  0  0  0
   61.5510   32.2900   49.2460 C   0  0  0  0  0  0  0  0  0  0  0  0
   62.2730   33.4250   49.6250 C   0  0  0  0  0  0  0  0  0  0  0  0
   63.3960   33.8170   48.8920 C   0  0  0  0  0  0  0  0  0  0  0  0
   63.8050   33.0660   47.7870 C   0  0  0  0  0  0  0  0  0  0  0  0
   63.0850   31.9310   47.4050 C   0  0  0  0  0  0  0  0  0  0  0  0
   59.5370   31.9560   46.6600 C   0  0  0  0  0  0  0  0  0  0  0  0
   58.2660   32.2160   47.2120 C   0  0  0  0  0  0  0  0  0  0  0  0
   57.7220   33.5020   47.1630 C   0  0  0  0  0  0  0  0  0  0  0  0
   58.4300   34.5410   46.5560 C   0  0  0  0  0  0  0  0  0  0  0  0
   59.6810   34.2930   45.9890 C   0  0  0  0  0  0  0  0  0  0  0  0
   60.2310   33.0080   46.0350 C   0  0  0  0  0  0  0  0  0  0  0  0
   58.1670   27.8720   45.8070 C   0  0  0  0  0  0  0  0  0  0  0  0
   59.0880   26.9250   46.3120 C   0  0  0  0  0  0  0  0  0  0  0  0
   58.6570   25.6560   46.7040 C   0  0  0  0  0  0  0  0  0  0  0  0
   57.3130   25.3030   46.6030 C   0  0  0  0  0  0  0  0  0  0  0  0
   56.9070   24.0690   46.9910 F   0  0  0  0  0  0  0  0  0  0  0  0
   56.3840   26.2210   46.1070 C   0  0  0  0  0  0  0  0  0  0  0  0
   55.0760   25.8710   46.0200 F   0  0  0  0  0  0  0  0  0  0  0  0
   56.8000   27.4980   45.7120 C   0  0  0  0  0  0  0  0  0  0  0  0
   55.8800   28.3840   45.2490 N   0  0  0  0  0  0  0  0  0  0  0  0
   57.8130   31.0852   44.6455 H   0  0  0  0  0  0  0  0  0  0  0  0
   60.6505   28.8976   45.6212 H   0  0  0  0  0  0  0  0  0  0  0  0
   60.1534   30.3285   44.6222 H   0  0  0  0  0  0  0  0  0  0  0  0
   60.6319   29.9285   48.6112 H   0  0  0  0  0  0  0  0  0  0  0  0
   61.8299   29.6022   47.2779 H   0  0  0  0  0  0  0  0  0  0  0  0
   60.6789   31.9749   49.8378 H   0  0  0  0  0  0  0  0  0  0  0  0
   61.9569   34.0102   50.5011 H   0  0  0  0  0  0  0  0  0  0  0  0
   63.9578   34.7163   49.1846 H   0  0  0  0  0  0  0  0  0  0  0  0
   64.6955   33.3688   47.2167 H   0  0  0  0  0  0  0  0  0  0  0  0
   63.4220   31.3334   46.5452 H   0  0  0  0  0  0  0  0  0  0  0  0
   57.6986   31.4007   47.6846 H   0  0  0  0  0  0  0  0  0  0  0  0
   56.7331   33.6964   47.6039 H   0  0  0  0  0  0  0  0  0  0  0  0
   58.0023   35.5540   46.5247 H   0  0  0  0  0  0  0  0  0  0  0  0
   60.2357   35.1102   45.5048 H   0  0  0  0  0  0  0  0  0  0  0  0
   61.2139   32.8184   45.5789 H   0  0  0  0  0  0  0  0  0  0  0  0
   60.1522   27.1902   46.3966 H   0  0  0  0  0  0  0  0  0  0  0  0
   59.3842   24.9294   47.0956 H   0  0  0  0  0  0  0  0  0  0  0  0
  1  2  2  0
  2  3  1  0
  3  4  2  0
  4  5  1  0
  5  6  1  0
  6  7  1  0
  7  8  1  0
  8  9  2  0
  9 10  1  0
 10 11  2  0
 11 12  1  0
 12 13  2  0
  6 14  1  0
 14 15  2  0
 15 16  1  0
 16 17  2  0
 17 18  1  0
 18 19  2  0
  4 20  1  0
 20 21  2  0
 21 22  1  0
 22 23  2  0
 23 24  1  0
 23 25  1  0
 25 26  1  0
 25 27  2  0
 27 28  1  0
 28  2  1  0
 13  8  1  0
 19 14  1  0
 27 20  1  0
  3 29  1  0
  5 30  1  0
  5 31  1  0
  7 32  1  0
  7 33  1  0
  9 34  1  0
 10 35  1  0
 11 36  1  0
 12 37  1  0
 13 38  1  0
 15 39  1  0
 16 40  1  0
 17 41  1  0
 18 42  1  0
 19 43  1  0
 21 44  1  0
 22 45  1  0
M  CHG  1  28  -1
M  END
>  <UniqueID>  (11) 
10

>  <SMILES>  (11) 
O=c1cc(CN(Cc2ccccc2)c2ccccc2)c2ccc(F)c(F)c2[n-]1

>  <Energy>  (11) 
58.69199446454773

>  <Genealogy>  (11) 
O=c1cc(CN(Cc2ccccc2)c2ccccc2)c2ccc(F)c(F)c2[n-]1 (protonated)
O=c1cc(CN(Cc2ccccc2)c2ccccc2)c2ccc(F)c(F)c2[n-]1 (3D coordinates assigned)
O=c1cc(CN(Cc2ccccc2)c2ccccc2)c2ccc(F)c(F)c2[n-]1 (optimized conformer: 58.69199446454773 kcal/mol)

>  <smiles>  (11) 
O=c1cc(CN(Cc2ccccc2)c2ccccc2)c2ccc(F)c(F)c2[nH]1

>  <score_type>  (11) 
oracle

>  <origin>  (11) 
adg

>  <m_score__min__energy>  (11) 
-10.949999999999999

>  <m_primary>  (11) 
energy

$$$$
11:0
     RDKit          3D

 71 71  0  0  0  0  0  0  0  0999 V2000
   61.6218   34.1743   48.6716 H   0  0  0  0  0  0  0  0  0  0  0  0
   61.4800   34.0910   47.5840 C   0  0  0  0  0  0  0  0  0  0  0  0
   60.2460   34.2200   47.0690 C   0  0  0  0  0  0  0  0  0  0  0  0
   59.3874   34.3365   47.7467 H   0  0  0  0  0  0  0  0  0  0  0  0
   60.0170   34.2080   45.5820 C   0  0  0  0  0  0  0  0  0  0  0  0
   60.7975   34.8094   45.0929 H   0  0  0  0  0  0  0  0  0  0  0  0
   60.0557   33.1667   45.2296 H   0  0  0  0  0  0  0  0  0  0  0  0
   58.6640   34.7820   45.2390 C   0  0  0  0  0  0  0  0  0  0  0  0
   58.6379   35.7345   44.6894 H   0  0  0  0  0  0  0  0  0  0  0  0
   57.4850   34.2110   45.5580 C   0  0  0  0  0  0  0  0  0  0  0  0
   56.7529   34.8256   46.1024 H   0  0  0  0  0  0  0  0  0  0  0  0
   57.0940   32.7910   45.2240 C   0  0  0  0  0  0  0  0  0  0  0  0
   57.2794   32.1485   46.0974 H   0  0  0  0  0  0  0  0  0  0  0  0
   56.0269   32.7665   44.9582 H   0  0  0  0  0  0  0  0  0  0  0  0
   57.9000   32.2890   44.0590 C   0  0  0  0  0  0  0  0  0  0  0  0
   58.9677   32.5454   43.9942 H   0  0  0  0  0  0  0  0  0  0  0  0
   57.3480   31.5360   43.0970 C   0  0  0  0  0  0  0  0  0  0  0  0
   57.6264   31.7191   42.0487 H   0  0  0  0  0  0  0  0  0  0  0  0
   56.3570   30.4460   43.4120 C   0  0  0  0  0  0  0  0  0  0  0  0
   56.3994   30.2323   44.4902 H   0  0  0  0  0  0  0  0  0  0  0  0
   55.3620   30.8027   43.1075 H   0  0  0  0  0  0  0  0  0  0  0  0
   56.6410   29.1480   42.6420 C   0  0  0  0  0  0  0  0  0  0  0  0
   55.6940   28.6061   42.5022 H   0  0  0  0  0  0  0  0  0  0  0  0
   57.0950   29.4227   41.6784 H   0  0  0  0  0  0  0  0  0  0  0  0
   57.6300   28.2310   43.3810 C   0  0  0  0  0  0  0  0  0  0  0  0
   57.2843   27.1899   43.2996 H   0  0  0  0  0  0  0  0  0  0  0  0
   58.6229   28.3455   42.9217 H   0  0  0  0  0  0  0  0  0  0  0  0
   57.7300   28.6030   44.8340 C   0  0  0  0  0  0  0  0  0  0  0  0
   56.7330   28.4260   45.5880 O   0  0  0  0  0  0  0  0  0  0  0  0
   58.9550   29.1410   45.3600 N   0  0  0  0  0  0  0  0  0  0  0  0
   59.7850   29.1930   44.7250 H   0  0  0  0  0  0  0  0  0  0  0  0
   59.1160   29.5460   46.7310 C   0  0  0  0  0  0  0  0  0  0  0  0
   59.1260   30.9130   47.0630 C   0  0  0  0  0  0  0  0  0  0  0  0
   58.9891   31.6665   46.2734 H   0  0  0  0  0  0  0  0  0  0  0  0
   59.3080   31.3220   48.3850 C   0  0  0  0  0  0  0  0  0  0  0  0
   59.2999   32.3933   48.6344 H   0  0  0  0  0  0  0  0  0  0  0  0
   59.5000   30.3750   49.3900 C   0  0  0  0  0  0  0  0  0  0  0  0
   59.6423   30.7006   50.4310 H   0  0  0  0  0  0  0  0  0  0  0  0
   59.5120   29.0150   49.0780 C   0  0  0  0  0  0  0  0  0  0  0  0
   59.6760   28.2740   49.8742 H   0  0  0  0  0  0  0  0  0  0  0  0
   59.3160   28.5840   47.7530 C   0  0  0  0  0  0  0  0  0  0  0  0
   59.3490   27.1010   47.4630 C   0  0  0  0  0  0  0  0  0  0  0  0
   59.4282   26.5499   48.4117 H   0  0  0  0  0  0  0  0  0  0  0  0
   58.4243   26.8248   46.9352 H   0  0  0  0  0  0  0  0  0  0  0  0
   60.5410   26.7470   46.5780 C   0  0  0  0  0  0  0  0  0  0  0  0
   61.4038   26.4908   47.2103 H   0  0  0  0  0  0  0  0  0  0  0  0
   60.2834   25.8866   45.9429 H   0  0  0  0  0  0  0  0  0  0  0  0
   60.7948   27.6085   45.9429 H   0  0  0  0  0  0  0  0  0  0  0  0
   62.6710   33.8350   46.7030 C   0  0  0  0  0  0  0  0  0  0  0  0
   63.3570   34.6925   46.7672 H   0  0  0  0  0  0  0  0  0  0  0  0
   62.3199   33.6992   45.6694 H   0  0  0  0  0  0  0  0  0  0  0  0
   63.4010   32.5860   47.1310 C   0  0  0  0  0  0  0  0  0  0  0  0
   64.3889   32.3848   46.6911 H   0  0  0  0  0  0  0  0  0  0  0  0
   62.9100   31.7050   48.0210 C   0  0  0  0  0  0  0  0  0  0  0  0
   62.2246   30.9305   47.6463 H   0  0  0  0  0  0  0  0  0  0  0  0
   63.2310   31.7010   49.4990 C   0  0  0  0  0  0  0  0  0  0  0  0
   64.0770   31.0216   49.6800 H   0  0  0  0  0  0  0  0  0  0  0  0
   62.3381   31.3658   50.0471 H   0  0  0  0  0  0  0  0  0  0  0  0
   63.6040   33.1080   49.9940 C   0  0  0  0  0  0  0  0  0  0  0  0
   63.8811   33.7197   49.1228 H   0  0  0  0  0  0  0  0  0  0  0  0
   64.4340   32.9870   50.7056 H   0  0  0  0  0  0  0  0  0  0  0  0
   62.4660   33.8260   50.7500 C   0  0  0  0  0  0  0  0  0  0  0  0
   62.2237   34.7532   50.2100 H   0  0  0  0  0  0  0  0  0  0  0  0
   62.8312   34.0120   51.7708 H   0  0  0  0  0  0  0  0  0  0  0  0
   61.1780   32.9940   50.8840 C   0  0  0  0  0  0  0  0  0  0  0  0
   61.1307   32.5823   51.9029 H   0  0  0  0  0  0  0  0  0  0  0  0
   61.2171   32.2007   50.1230 H   0  0  0  0  0  0  0  0  0  0  0  0
   59.9110   33.8120   50.6290 C   0  0  0  0  0  0  0  0  0  0  0  0
   59.4620   34.1019   51.5904 H   0  0  0  0  0  0  0  0  0  0  0  0
   60.1670   34.7158   50.0566 H   0  0  0  0  0  0  0  0  0  0  0  0
   59.1927   33.2067   50.0566 H   0  0  0  0  0  0  0  0  0  0  0  0
  1  2  1  0
  2  3  2  3
  3  4  1  0
  3  5  1  0
  5  6  1  0
  5  7  1  0
  5  8  1  0
  8  9  1  0
  8 10  2  0
 10 11  1  0
 10 12  1  0
 12 13  1  0
 12 14  1  0
 12 15  1  0
 15 16  1  0
 15 17  2  3
 17 18  1  0
 17 19  1  0
 19 20  1  0
 19 21  1  0
 19 22  1  0
 22 23  1  0
 22 24  1  0
 22 25  1  0
 25 26  1  0
 25 27  1  0
 25 28  1  0
 28 29  2  0
 28 30  1  0
 30 31  1  0
 30 32  1  0
 32 33  2  0
 33 34  1  0
 33 35  1  0
 35 36  1  0
 35 37  2  0
 37 38  1  0
 37 39  1  0
 39 40  1  0
 39 41  2  0
 41 42  1  0
 42 43  1  0
 42 44  1  0
 42 45  1  0
 45 46  1  0
 45 47  1  0
 45 48  1  0
  2 49  1  0
 49 50  1  0
 49 51  1  0
 49 52  1  0
 52 53  1  0
 52 54  2  3
 54 55  1  0
 54 56  1  0
 56 57  1  0
 56 58  1  0
 56 59  1  0
 59 60  1  0
 59 61  1  0
 59 62  1  0
 62 63  1  0
 62 64  1  0
 62 65  1  0
 65 66  1  0
 65 67  1  0
 65 68  1  0
 68 69  1  0
 68 70  1  0
 68 71  1  0
 41 32  1  0
M  END
>  <UniqueID>  (12) 
11

>  <SMILES>  (12) 
CCCCCC=CCC=CC/C=C\CC=CCCCC(=O)Nc1ccccc1CC

>  <Energy>  (12) 
46.80614568648796

>  <Genealogy>  (12) 
CCCCCC=CCC=CC/C=C\CC=CCCCC(=O)Nc1ccccc1CC (cis-trans isomerization)
CCCCCC=CCC=CC/C=C\CC=CCCCC(=O)Nc1ccccc1CC (3D coordinates assigned)
CCCCCC=CCC=CC/C=C\CC=CCCCC(=O)Nc1ccccc1CC (optimized conformer: 46.80614568648796 kcal/mol)

>  <smiles>  (12) 
CCCCCC=CCC=CCC=CCC=CCCCC(=O)Nc1ccccc1CC

>  <score_type>  (12) 
oracle

>  <origin>  (12) 
adg

>  <m_score__min__energy>  (12) 
-7.9299999999999997

>  <m_primary>  (12) 
energy

$$$$
12:0
     RDKit          3D

 30 31  0  0  0  0  0  0  0  0999 V2000
   57.5693   26.5713   46.5278 H   0  0  0  0  0  0  0  0  0  0  0  0
   58.0060   27.4020   45.9540 C   0  0  0  0  0  0  0  0  0  0  0  0
   57.1720   28.3410   45.3410 C   0  0  0  0  0  0  0  0  0  0  0  0
   56.0806   28.2557   45.4488 H   0  0  0  0  0  0  0  0  0  0  0  0
   57.7190   29.3930   44.5880 C   0  0  0  0  0  0  0  0  0  0  0  0
   56.8140   30.4190   43.9520 C   0  0  0  0  0  0  0  0  0  0  0  0
   55.8333   29.9594   43.7599 H   0  0  0  0  0  0  0  0  0  0  0  0
   57.2814   30.7553   43.0148 H   0  0  0  0  0  0  0  0  0  0  0  0
   56.6300   31.5870   44.8160 N   0  0  0  0  0  0  0  0  0  0  0  0
   57.4970   32.4700   45.2430 C   0  0  0  0  0  0  0  0  0  0  0  0
   58.2950   32.2920   46.4090 C   0  0  0  0  0  0  0  0  0  0  0  0
   58.2110   31.1120   47.1660 O   0  0  0  0  0  0  0  0  0  0  0  0
   59.2620   30.5780   47.9660 C   0  0  0  0  0  0  0  0  0  0  0  0
   59.0133   30.7044   49.0300 H   0  0  0  0  0  0  0  0  0  0  0  0
   59.3852   29.5080   47.7428 H   0  0  0  0  0  0  0  0  0  0  0  0
   60.1989   31.1094   47.7428 H   0  0  0  0  0  0  0  0  0  0  0  0
   59.1780   33.3240   46.7800 C   0  0  0  0  0  0  0  0  0  0  0  0
   59.7982   33.2129   47.6817 H   0  0  0  0  0  0  0  0  0  0  0  0
   59.2730   34.4820   46.0170 C   0  0  0  0  0  0  0  0  0  0  0  0
   59.9644   35.2856   46.3104 H   0  0  0  0  0  0  0  0  0  0  0  0
   58.4850   34.6140   44.8790 C   0  0  0  0  0  0  0  0  0  0  0  0
   58.5547   35.5251   44.2665 H   0  0  0  0  0  0  0  0  0  0  0  0
   57.6290   33.6210   44.5210 N   0  0  0  0  0  0  0  0  0  0  0  0
   57.0500   33.7600   43.6610 H   0  0  0  0  0  0  0  0  0  0  0  0
   59.1170   29.5180   44.5010 C   0  0  0  0  0  0  0  0  0  0  0  0
   59.5578   30.3589   43.9455 H   0  0  0  0  0  0  0  0  0  0  0  0
   59.9490   28.5790   45.1170 C   0  0  0  0  0  0  0  0  0  0  0  0
   61.0416   28.6754   45.0338 H   0  0  0  0  0  0  0  0  0  0  0  0
   59.3950   27.5170   45.8390 C   0  0  0  0  0  0  0  0  0  0  0  0
   60.4410   26.3390   46.6120 Cl  0  0  0  0  0  0  0  0  0  0  0  0
  1  2  1  0
  2  3  2  0
  3  4  1  0
  3  5  1  0
  5  6  1  0
  6  7  1  0
  6  8  1  0
  6  9  1  0
  9 10  2  0
 10 11  1  0
 11 12  1  0
 12 13  1  0
 13 14  1  0
 13 15  1  0
 13 16  1  0
 11 17  2  0
 17 18  1  0
 17 19  1  0
 19 20  1  0
 19 21  2  0
 21 22  1  0
 21 23  1  0
 23 24  1  0
  5 25  2  0
 25 26  1  0
 25 27  1  0
 27 28  1  0
 27 29  2  0
 29 30  1  0
 29  2  1  0
 23 10  1  0
M  END
>  <UniqueID>  (13) 
12

>  <SMILES>  (13) 
COc1ccc[nH]/c1=N/Cc1ccc(Cl)cc1

>  <Energy>  (13) 
35.52890849808333

>  <Genealogy>  (13) 
COc1ccc[nH]/c1=N/Cc1ccc(Cl)cc1 (cis-trans isomerization)
COc1ccc[nH]/c1=N/Cc1ccc(Cl)cc1 (3D coordinates assigned)
COc1ccc[nH]/c1=N/Cc1ccc(Cl)cc1 (optimized conformer: 35.52890849808333 kcal/mol)

>  <smiles>  (13) 
COc1ccc[nH]c1=NCc1ccc(Cl)cc1

>  <score_type>  (13) 
oracle

>  <origin>  (13) 
adg

>  <m_score__min__energy>  (13) 
-6.4900000000000002

>  <m_primary>  (13) 
energy

$$$$
13:0
     RDKit          3D

 42 44  0  0  0  0  0  0  0  0999 V2000
   61.9500   30.9070   50.4860 O   0  0  0  0  0  0  0  0  0  0  0  0
   62.0930   31.2070   49.2700 C   0  0  0  0  0  0  0  0  0  0  0  0
   63.1880   32.1620   48.8940 C   0  0  0  0  0  0  0  0  0  0  0  0
   62.6880   33.8590   49.3310 S   0  0  0  0  0  0  0  0  0  0  0  0
   61.2900   33.8670   48.2080 C   0  0  0  0  0  0  0  0  0  0  0  0
   61.5050   33.8460   46.8230 C   0  0  0  0  0  0  0  0  0  0  0  0
   60.4150   33.8500   45.9470 C   0  0  0  0  0  0  0  0  0  0  0  0
   59.1110   33.8740   46.4520 C   0  0  0  0  0  0  0  0  0  0  0  0
   58.8960   33.8920   47.8330 C   0  0  0  0  0  0  0  0  0  0  0  0
   59.9840   33.8870   48.7120 C   0  0  0  0  0  0  0  0  0  0  0  0
   61.1820   30.6730   48.2830 N   0  0  0  0  0  0  0  0  0  0  0  0
   59.9170   30.0570   48.7100 C   0  0  0  0  0  0  0  0  0  0  0  0
   58.7930   30.4490   47.7480 C   0  0  0  0  0  0  0  0  0  0  0  0
   59.1730   30.2190   46.3460 N   0  0  0  0  0  0  0  0  0  0  0  0
   58.1490   30.1980   45.3260 C   0  0  0  0  0  0  0  0  0  0  0  0
   57.0320   29.3510   45.4530 C   0  0  0  0  0  0  0  0  0  0  0  0
   56.0450   29.3280   44.4630 C   0  0  0  0  0  0  0  0  0  0  0  0
   56.1610   30.1430   43.3360 C   0  0  0  0  0  0  0  0  0  0  0  0
   57.2670   30.9850   43.1940 C   0  0  0  0  0  0  0  0  0  0  0  0
   57.4160   32.0040   41.7740 Cl  0  0  0  0  0  0  0  0  0  0  0  0
   58.2580   31.0130   44.1820 C   0  0  0  0  0  0  0  0  0  0  0  0
   60.5580   29.8600   46.0110 C   0  0  0  0  0  0  0  0  0  0  0  0
   61.5500   30.6670   46.8580 C   0  0  0  0  0  0  0  0  0  0  0  0
   64.1072   31.8988   49.4378 H   0  0  0  0  0  0  0  0  0  0  0  0
   63.3730   32.1009   47.8114 H   0  0  0  0  0  0  0  0  0  0  0  0
   62.5305   33.8264   46.4255 H   0  0  0  0  0  0  0  0  0  0  0  0
   60.5833   33.8343   44.8601 H   0  0  0  0  0  0  0  0  0  0  0  0
   58.2543   33.8787   45.7621 H   0  0  0  0  0  0  0  0  0  0  0  0
   57.8699   33.9101   48.2290 H   0  0  0  0  0  0  0  0  0  0  0  0
   59.8136   33.8988   49.7987 H   0  0  0  0  0  0  0  0  0  0  0  0
   60.0279   28.9626   48.7141 H   0  0  0  0  0  0  0  0  0  0  0  0
   59.6665   30.4103   49.7211 H   0  0  0  0  0  0  0  0  0  0  0  0
   57.9006   29.8487   47.9787 H   0  0  0  0  0  0  0  0  0  0  0  0
   58.5897   31.5223   47.8769 H   0  0  0  0  0  0  0  0  0  0  0  0
   56.9350   28.7031   46.3367 H   0  0  0  0  0  0  0  0  0  0  0  0
   55.1740   28.6652   44.5728 H   0  0  0  0  0  0  0  0  0  0  0  0
   55.3819   30.1225   42.5597 H   0  0  0  0  0  0  0  0  0  0  0  0
   59.1279   31.6759   44.0645 H   0  0  0  0  0  0  0  0  0  0  0  0
   60.7090   28.7875   46.2029 H   0  0  0  0  0  0  0  0  0  0  0  0
   60.7342   30.0875   44.9493 H   0  0  0  0  0  0  0  0  0  0  0  0
   62.5508   30.2231   46.7517 H   0  0  0  0  0  0  0  0  0  0  0  0
   61.5353   31.7068   46.4992 H   0  0  0  0  0  0  0  0  0  0  0  0
  1  2  2  0
  2  3  1  0
  3  4  1  0
  4  5  1  0
  5  6  2  0
  6  7  1  0
  7  8  2  0
  8  9  1  0
  9 10  2  0
  2 11  1  0
 11 12  1  0
 12 13  1  0
 13 14  1  0
 14 15  1  0
 15 16  2  0
 16 17  1  0
 17 18  2  0
 18 19  1  0
 19 20  1  0
 19 21  2  0
 14 22  1  0
 22 23  1  0
 10  5  1  0
 23 11  1  0
 21 15  1  0
  3 24  1  0
  3 25  1  0
  6 26  1  0
  7 27  1  0
  8 28  1  0
  9 29  1  0
 10 30  1  0
 12 31  1  0
 12 32  1  0
 13 33  1  0
 13 34  1  0
 16 35  1  0
 17 36  1  0
 18 37  1  0
 21 38  1  0
 22 39  1  0
 22 40  1  0
 23 41  1  0
 23 42  1  0
M  END
>  <UniqueID>  (14) 
13

>  <SMILES>  (14) 
O=C(CSc1ccccc1)N1CCN(c2cccc(Cl)c2)CC1

>  <Energy>  (14) 
42.07006476387605

>  <Genealogy>  (14) 
O=C(CSc1ccccc1)N1CCN(c2cccc(Cl)c2)CC1 (3D coordinates assigned)
O=C(CSc1ccccc1)N1CCN(c2cccc(Cl)c2)CC1 (nonaromatic ring conformer: 42.07006476387605 kcal/mol)

>  <smiles>  (14) 
O=C(CSc1ccccc1)N1CCN(c2cccc(Cl)c2)CC1

>  <score_type>  (14) 
oracle

>  <origin>  (14) 
adg

>  <m_score__min__energy>  (14) 
-7.7599999999999998

>  <m_primary>  (14) 
energy

$$$$
14:0
     RDKit          3D

 41 43  0  0  0  0  0  0  0  0999 V2000
   56.6570   30.4420   43.2560 C   0  0  0  0  0  0  0  0  0  0  0  0
   57.2740   29.9380   44.8910 S   0  0  0  0  0  0  0  0  0  0  0  0
   57.7780   31.5970   45.3390 C   0  0  0  0  0  0  0  0  0  0  0  0
   58.9790   31.8070   46.0270 C   0  0  0  0  0  0  0  0  0  0  0  0
   59.3470   33.1100   46.3860 C   0  0  0  0  0  0  0  0  0  0  0  0
   60.6130   33.3460   47.1030 C   0  0  0  0  0  0  0  0  0  0  0  0
   61.7340   33.5720   46.3670 N   0  0  0  0  0  0  0  0  0  0  0  0
   62.9350   33.8170   46.9480 C   0  0  0  0  0  0  0  0  0  0  0  0
   63.0300   33.8420   48.3370 C   0  0  0  0  0  0  0  0  0  0  0  0
   61.9230   33.5980   49.0840 N   0  0  0  0  0  0  0  0  0  0  0  0
   60.7100   33.3410   48.5170 C   0  0  0  0  0  0  0  0  0  0  0  0
   59.5380   33.0260   49.4280 C   0  0  0  0  0  0  0  0  0  0  0  0
   59.4330   31.5140   49.6910 C   0  0  0  0  0  0  0  0  0  0  0  0
   58.2240   31.1780   50.5930 C   0  0  0  0  0  0  0  0  0  0  0  0
   57.7050   32.3640   51.3130 N   0  0  0  0  0  0  0  0  0  0  0  0
   56.7710   31.9490   52.3700 C   0  0  0  0  0  0  0  0  0  0  0  0
   58.8080   33.1590   51.8830 C   0  0  0  0  0  0  0  0  0  0  0  0
   59.6530   33.7970   50.7630 C   0  0  0  0  0  0  0  0  0  0  0  0
   58.5230   34.1820   46.0150 C   0  0  0  0  0  0  0  0  0  0  0  0
   57.3370   33.9300   45.3240 C   0  0  0  0  0  0  0  0  0  0  0  0
   56.9920   32.6540   45.0050 N   0  0  0  0  0  0  0  0  0  0  0  0
   55.8106   31.1334   43.3807 H   0  0  0  0  0  0  0  0  0  0  0  0
   57.4618   30.9443   42.6992 H   0  0  0  0  0  0  0  0  0  0  0  0
   56.3254   29.5531   42.6992 H   0  0  0  0  0  0  0  0  0  0  0  0
   59.6278   30.9565   46.2833 H   0  0  0  0  0  0  0  0  0  0  0  0
   63.8258   33.9943   46.3275 H   0  0  0  0  0  0  0  0  0  0  0  0
   63.9925   34.0573   48.8242 H   0  0  0  0  0  0  0  0  0  0  0  0
   58.6205   33.3520   48.9163 H   0  0  0  0  0  0  0  0  0  0  0  0
   59.3180   30.9913   48.7300 H   0  0  0  0  0  0  0  0  0  0  0  0
   60.3488   31.1892   50.2067 H   0  0  0  0  0  0  0  0  0  0  0  0
   57.4196   30.7666   49.9656 H   0  0  0  0  0  0  0  0  0  0  0  0
   58.5617   30.4514   51.3467 H   0  0  0  0  0  0  0  0  0  0  0  0
   57.2194   32.1482   53.3545 H   0  0  0  0  0  0  0  0  0  0  0  0
   55.8327   32.5149   52.2731 H   0  0  0  0  0  0  0  0  0  0  0  0
   56.5621   30.8734   52.2731 H   0  0  0  0  0  0  0  0  0  0  0  0
   58.3899   33.9541   52.5178 H   0  0  0  0  0  0  0  0  0  0  0  0
   59.4521   32.4954   52.4785 H   0  0  0  0  0  0  0  0  0  0  0  0
   59.3091   34.8299   50.6055 H   0  0  0  0  0  0  0  0  0  0  0  0
   60.7064   33.7673   51.0785 H   0  0  0  0  0  0  0  0  0  0  0  0
   58.8092   35.2139   46.2667 H   0  0  0  0  0  0  0  0  0  0  0  0
   56.6805   34.7646   45.0371 H   0  0  0  0  0  0  0  0  0  0  0  0
  1  2  1  0
  2  3  1  0
  3  4  2  0
  4  5  1  0
  5  6  1  0
  6  7  2  0
  7  8  1  0
  8  9  2  0
  9 10  1  0
 10 11  2  0
 11 12  1  0
 12 13  1  0
 13 14  1  0
 14 15  1  0
 15 16  1  0
 15 17  1  0
 17 18  1  0
  5 19  2  0
 19 20  1  0
 20 21  2  0
 21  3  1  0
 11  6  1  0
 18 12  1  0
  1 22  1  0
  1 23  1  0
  1 24  1  0
  4 25  1  0
  8 26  1  0
  9 27  1  0
 12 28  1  0
 13 29  1  0
 13 30  1  0
 14 31  1  0
 14 32  1  0
 16 33  1  0
 16 34  1  0
 16 35  1  0
 17 36  1  0
 17 37  1  0
 18 38  1  0
 18 39  1  0
 19 40  1  0
 20 41  1  0
M  END
>  <UniqueID>  (15) 
14

>  <SMILES>  (15) 
CSc1cc(-c2nccnc2C2CCN(C)CC2)ccn1

>  <Energy>  (15) 
53.084152443267946

>  <Genealogy>  (15) 
CSc1cc(-c2nccnc2C2CCN(C)CC2)ccn1 (3D coordinates assigned)
CSc1cc(-c2nccnc2C2CCN(C)CC2)ccn1 (nonaromatic ring conformer: 53.084152443267946 kcal/mol)

>  <smiles>  (15) 
CSc1cc(-c2nccnc2C2CCN(C)CC2)ccn1

>  <score_type>  (15) 
oracle

>  <origin>  (15) 
adg

>  <m_score__min__energy>  (15) 
-7.0099999999999998

>  <m_primary>  (15) 
energy

$$$$
15:0
     RDKit          3D

 29 31  0  0  0  0  0  0  0  0999 V2000
   57.4030   31.9610   41.8640 C   0  0  0  0  0  0  0  0  0  0  0  0
   57.3770   31.3440   43.1760 N   0  0  0  0  0  0  0  0  0  0  0  0
   57.3380   29.9910   43.3730 C   0  0  0  0  0  0  0  0  0  0  0  0
   57.3310   29.7760   44.7410 C   0  0  0  0  0  0  0  0  0  0  0  0
   57.3640   30.9810   45.3200 N   0  0  0  0  0  0  0  0  0  0  0  0
   57.3930   31.9510   44.3910 C   0  0  0  0  0  0  0  0  0  0  0  0
   57.4300   33.7190   44.5740 S   0  0  0  0  0  0  0  0  0  0  0  0
   57.9910   34.2500   46.1970 C   0  0  0  0  0  0  0  0  0  0  0  0
   59.3190   33.6610   46.5110 C   0  0  0  0  0  0  0  0  0  0  0  0
   60.4440   34.3900   46.6890 N   0  0  0  0  0  0  0  0  0  0  0  0
   61.4930   33.6060   46.9550 C   0  0  0  0  0  0  0  0  0  0  0  0
   62.8190   33.8950   47.2030 C   0  0  0  0  0  0  0  0  0  0  0  0
   63.7250   32.8570   47.4570 C   0  0  0  0  0  0  0  0  0  0  0  0
   63.2500   31.5600   47.4500 C   0  0  0  0  0  0  0  0  0  0  0  0
   61.9050   31.2900   47.1980 C   0  0  0  0  0  0  0  0  0  0  0  0
   61.0140   32.3110   46.9470 C   0  0  0  0  0  0  0  0  0  0  0  0
   59.6840   32.3800   46.6730 N   0  0  0  0  0  0  0  0  0  0  0  0
   57.4491   33.0545   41.9739 H   0  0  0  0  0  0  0  0  0  0  0  0
   58.2872   31.6104   41.3114 H   0  0  0  0  0  0  0  0  0  0  0  0
   56.4925   31.6861   41.3114 H   0  0  0  0  0  0  0  0  0  0  0  0
   57.3163   29.2179   42.5907 H   0  0  0  0  0  0  0  0  0  0  0  0
   57.3036   28.8025   45.2524 H   0  0  0  0  0  0  0  0  0  0  0  0
   58.0699   35.3471   46.2110 H   0  0  0  0  0  0  0  0  0  0  0  0
   57.2657   33.9105   46.9511 H   0  0  0  0  0  0  0  0  0  0  0  0
   63.1645   34.9393   47.2013 H   0  0  0  0  0  0  0  0  0  0  0  0
   64.7857   33.0691   47.6566 H   0  0  0  0  0  0  0  0  0  0  0  0
   63.9424   30.7281   47.6460 H   0  0  0  0  0  0  0  0  0  0  0  0
   61.5508   30.2486   47.1996 H   0  0  0  0  0  0  0  0  0  0  0  0
   59.0350   31.5550   46.5990 H   0  0  0  0  0  0  0  0  0  0  0  0
  1  2  1  0
  2  3  1  0
  3  4  2  0
  4  5  1  0
  5  6  2  0
  6  7  1  0
  7  8  1  0
  8  9  1  0
  9 10  2  0
 10 11  1  0
 11 12  2  0
 12 13  1  0
 13 14  2  0
 14 15  1  0
 15 16  2  0
 16 17  1  0
  6  2  1  0
 17  9  1  0
 16 11  1  0
  1 18  1  0
  1 19  1  0
  1 20  1  0
  3 21  1  0
  4 22  1  0
  8 23  1  0
  8 24  1  0
 12 25  1  0
 13 26  1  0
 14 27  1  0
 15 28  1  0
 17 29  1  0
M  END
>  <smiles>  (16) 
Cn1ccnc1SCc1nc2ccccc2[nH]1

>  <score_type>  (16) 
oracle

>  <origin>  (16) 
adg

>  <m_score__min__energy>  (16) 
-6.25

>  <m_primary>  (16) 
energy

$$$$
16:0
     RDKit          3D

 31 33  0  0  0  0  0  0  0  0999 V2000
   55.7240   26.3490   46.2090 N   0  0  0  0  0  0  0  0  0  0  0  0
   56.6120   27.2010   45.8610 C   0  0  0  0  0  0  0  0  0  0  0  0
   56.1700   28.3640   45.3250 N   0  0  0  0  0  0  0  0  0  0  0  0
   57.0120   29.3370   44.9220 C   0  0  0  0  0  0  0  0  0  0  0  0
   56.5570   30.6180   44.3330 C   0  0  0  0  0  0  0  0  0  0  0  0
   57.4270   31.7660   44.7060 C   0  0  0  0  0  0  0  0  0  0  0  0
   57.9010   32.6830   43.7970 C   0  0  0  0  0  0  0  0  0  0  0  0
   58.7020   33.7190   44.2310 C   0  0  0  0  0  0  0  0  0  0  0  0
   59.0620   33.8870   45.5580 C   0  0  0  0  0  0  0  0  0  0  0  0
   58.5830   32.9610   46.4740 C   0  0  0  0  0  0  0  0  0  0  0  0
   57.7890   31.9390   46.0280 C   0  0  0  0  0  0  0  0  0  0  0  0
   58.3380   29.1360   45.0630 N   0  0  0  0  0  0  0  0  0  0  0  0
   58.8650   28.0090   45.5860 C   0  0  0  0  0  0  0  0  0  0  0  0
   60.2400   27.8390   45.7140 C   0  0  0  0  0  0  0  0  0  0  0  0
   60.7200   26.6640   46.2580 C   0  0  0  0  0  0  0  0  0  0  0  0
   59.8130   25.6870   46.6600 C   0  0  0  0  0  0  0  0  0  0  0  0
   58.4500   25.8520   46.5350 C   0  0  0  0  0  0  0  0  0  0  0  0
   57.9700   27.0250   45.9920 C   0  0  0  0  0  0  0  0  0  0  0  0
   55.5290   25.9530   47.1330 H   0  0  0  0  0  0  0  0  0  0  0  0
   55.1520   28.5260   45.2140 H   0  0  0  0  0  0  0  0  0  0  0  0
   56.5552   30.5199   43.2374 H   0  0  0  0  0  0  0  0  0  0  0  0
   55.5505   30.8240   44.7262 H   0  0  0  0  0  0  0  0  0  0  0  0
   57.6433   32.5910   42.7316 H   0  0  0  0  0  0  0  0  0  0  0  0
   59.0711   34.4438   43.4904 H   0  0  0  0  0  0  0  0  0  0  0  0
   59.7034   34.7229   45.8739 H   0  0  0  0  0  0  0  0  0  0  0  0
   58.8372   33.0469   47.5408 H   0  0  0  0  0  0  0  0  0  0  0  0
   57.4173   31.2126   46.7657 H   0  0  0  0  0  0  0  0  0  0  0  0
   60.9335   28.6278   45.3872 H   0  0  0  0  0  0  0  0  0  0  0  0
   61.8021   26.5024   46.3720 H   0  0  0  0  0  0  0  0  0  0  0  0
   60.1972   24.7513   47.0922 H   0  0  0  0  0  0  0  0  0  0  0  0
   57.7580   25.0622   46.8625 H   0  0  0  0  0  0  0  0  0  0  0  0
  1  2  2  3
  2  3  1  0
  3  4  1  0
  4  5  1  0
  5  6  1  0
  6  7  2  0
  7  8  1  0
  8  9  2  0
  9 10  1  0
 10 11  2  0
  4 12  2  0
 12 13  1  0
 13 14  2  0
 14 15  1  0
 15 16  2  0
 16 17  1  0
 17 18  2  0
 18  2  1  0
 11  6  1  0
 18 13  1  0
  1 19  1  0
  3 20  1  0
  5 21  1  0
  5 22  1  0
  7 23  1  0
  8 24  1  0
  9 25  1  0
 10 26  1  0
 11 27  1  0
 14 28  1  0
 15 29  1  0
 16 30  1  0
 17 31  1  0
M  END
>  <smiles>  (17) 
N=c1[nH]c(Cc2ccccc2)nc2ccccc12

>  <score_type>  (17) 
oracle

>  <origin>  (17) 
adg

>  <m_score__min__energy>  (17) 
-7.3399999999999999

>  <m_primary>  (17) 
energy

$$$$
17:0
     RDKit          3D

 44 46  0  0  0  0  0  0  0  0999 V2000
   57.7390   27.4500   47.1430 O   0  0  0  0  0  0  0  0  0  0  0  0
   57.4560   26.8130   46.0910 C   0  0  0  0  0  0  0  0  0  0  0  0
   57.2470   27.5230   44.8560 N   0  0  0  0  0  0  0  0  0  0  0  0
   57.4490   28.9370   44.7010 C   0  0  0  0  0  0  0  0  0  0  0  0
   58.6660   29.5480   45.0480 C   0  0  0  0  0  0  0  0  0  0  0  0
   58.8470   30.9210   44.8610 C   0  0  0  0  0  0  0  0  0  0  0  0
   57.8270   31.7040   44.2960 C   0  0  0  0  0  0  0  0  0  0  0  0
   58.0190   33.1940   44.0870 C   0  0  0  0  0  0  0  0  0  0  0  0
   58.1430   33.9640   45.3450 N   0  0  0  0  0  0  0  0  0  0  0  0
   57.3850   33.4010   46.4910 C   0  0  0  0  0  0  0  0  0  0  0  0
   58.3060   32.8250   47.5760 C   0  0  0  0  0  0  0  0  0  0  0  0
   59.2670   33.8990   48.1170 C   0  0  0  0  0  0  0  0  0  0  0  0
   59.6350   34.9620   47.0640 C   0  0  0  0  0  0  0  0  0  0  0  0
   59.5300   34.3910   45.6470 C   0  0  0  0  0  0  0  0  0  0  0  0
   56.6110   31.0920   43.9520 C   0  0  0  0  0  0  0  0  0  0  0  0
   56.4300   29.7190   44.1380 C   0  0  0  0  0  0  0  0  0  0  0  0
   57.3370   25.3360   46.1610 C   0  0  0  0  0  0  0  0  0  0  0  0
   56.7660   24.7360   47.2990 C   0  0  0  0  0  0  0  0  0  0  0  0
   56.6430   23.3460   47.3810 C   0  0  0  0  0  0  0  0  0  0  0  0
   57.0780   22.5400   46.3280 C   0  0  0  0  0  0  0  0  0  0  0  0
   57.6330   23.1230   45.1880 C   0  0  0  0  0  0  0  0  0  0  0  0
   57.7600   24.5130   45.1000 C   0  0  0  0  0  0  0  0  0  0  0  0
   56.8800   27.0060   44.0260 H   0  0  0  0  0  0  0  0  0  0  0  0
   59.4813   28.9417   45.4695 H   0  0  0  0  0  0  0  0  0  0  0  0
   59.7955   31.3921   45.1585 H   0  0  0  0  0  0  0  0  0  0  0  0
   58.9343   33.3459   43.4961 H   0  0  0  0  0  0  0  0  0  0  0  0
   57.1191   33.5634   43.5734 H   0  0  0  0  0  0  0  0  0  0  0  0
   56.7720   34.1990   46.9352 H   0  0  0  0  0  0  0  0  0  0  0  0
   56.7617   32.5789   46.1093 H   0  0  0  0  0  0  0  0  0  0  0  0
   57.6904   32.4441   48.4042 H   0  0  0  0  0  0  0  0  0  0  0  0
   58.9030   32.0146   47.1324 H   0  0  0  0  0  0  0  0  0  0  0  0
   58.7871   34.4015   48.9697 H   0  0  0  0  0  0  0  0  0  0  0  0
   60.1972   33.3907   48.4109 H   0  0  0  0  0  0  0  0  0  0  0  0
   58.9480   35.8157   47.1595 H   0  0  0  0  0  0  0  0  0  0  0  0
   60.6733   35.2814   47.2368 H   0  0  0  0  0  0  0  0  0  0  0  0
   59.8333   35.1635   44.9250 H   0  0  0  0  0  0  0  0  0  0  0  0
   60.1893   33.5135   45.5742 H   0  0  0  0  0  0  0  0  0  0  0  0
   55.7944   31.6982   43.5328 H   0  0  0  0  0  0  0  0  0  0  0  0
   55.4814   29.2481   43.8407 H   0  0  0  0  0  0  0  0  0  0  0  0
   56.4141   25.3654   48.1297 H   0  0  0  0  0  0  0  0  0  0  0  0
   56.2022   22.8863   48.2778 H   0  0  0  0  0  0  0  0  0  0  0  0
   56.9835   21.4462   46.3965 H   0  0  0  0  0  0  0  0  0  0  0  0
   57.9715   22.4875   44.3564 H   0  0  0  0  0  0  0  0  0  0  0  0
   58.1931   24.9661   44.1961 H   0  0  0  0  0  0  0  0  0  0  0  0
  1  2  2  0
  2  3  1  0
  3  4  1  0
  4  5  2  0
  5  6  1  0
  6  7  2  0
  7  8  1  0
  8  9  1  0
  9 10  1  0
 10 11  1  0
 11 12  1  0
 12 13  1  0
 13 14  1  0
  7 15  1  0
 15 16  2  0
  2 17  1  0
 17 18  2  0
 18 19  1  0
 19 20  2  0
 20 21  1  0
 21 22  2  0
 16  4  1  0
 22 17  1  0
 14  9  1  0
  3 23  1  0
  5 24  1  0
  6 25  1  0
  8 26  1  0
  8 27  1  0
 10 28  1  0
 10 29  1  0
 11 30  1  0
 11 31  1  0
 12 32  1  0
 12 33  1  0
 13 34  1  0
 13 35  1  0
 14 36  1  0
 14 37  1  0
 15 38  1  0
 16 39  1  0
 18 40  1  0
 19 41  1  0
 20 42  1  0
 21 43  1  0
 22 44  1  0
M  END
>  <UniqueID>  (18) 
15

>  <SMILES>  (18) 
O=C(Nc1ccc(CN2CCCCC2)cc1)c1ccccc1

>  <Energy>  (18) 
61.57927105827006

>  <Genealogy>  (18) 
O=C(Nc1ccc(CN2CCCCC2)cc1)c1ccccc1 (3D coordinates assigned)
O=C(Nc1ccc(CN2CCCCC2)cc1)c1ccccc1 (nonaromatic ring conformer: 61.57927105827006 kcal/mol)

>  <smiles>  (18) 
O=C(Nc1ccc(CN2CCCCC2)cc1)c1ccccc1

>  <score_type>  (18) 
oracle

>  <origin>  (18) 
adg

>  <m_score__min__energy>  (18) 
-8.1099999999999994

>  <m_primary>  (18) 
energy

$$$$
18:0
     RDKit          3D

 26 27  0  0  0  0  0  0  0  0999 V2000
   55.6130   27.0680   45.8700 F   0  0  0  0  0  0  0  0  0  0  0  0
   56.6550   27.8080   45.4200 C   0  0  0  0  0  0  0  0  0  0  0  0
   57.9550   27.2980   45.4920 C   0  0  0  0  0  0  0  0  0  0  0  0
   59.0320   28.0630   45.0360 C   0  0  0  0  0  0  0  0  0  0  0  0
   58.8110   29.3360   44.5010 C   0  0  0  0  0  0  0  0  0  0  0  0
   57.5070   29.8500   44.4130 C   0  0  0  0  0  0  0  0  0  0  0  0
   57.2760   31.2260   43.8470 C   0  0  0  0  0  0  0  0  0  0  0  0
   56.9000   32.1430   44.8760 O   0  0  0  0  0  0  0  0  0  0  0  0
   57.7610   33.0600   45.4990 C   0  0  0  0  0  0  0  0  0  0  0  0
   58.0010   33.0550   46.8880 C   0  0  0  0  0  0  0  0  0  0  0  0
   58.8660   33.9960   47.4560 C   0  0  0  0  0  0  0  0  0  0  0  0
   59.5000   34.9440   46.6480 C   0  0  0  0  0  0  0  0  0  0  0  0
   59.2700   34.9520   45.2700 C   0  0  0  0  0  0  0  0  0  0  0  0
   58.4060   34.0120   44.6990 C   0  0  0  0  0  0  0  0  0  0  0  0
   56.4310   29.0810   44.8870 C   0  0  0  0  0  0  0  0  0  0  0  0
   58.1300   26.2947   45.9076 H   0  0  0  0  0  0  0  0  0  0  0  0
   60.0549   27.6633   45.0980 H   0  0  0  0  0  0  0  0  0  0  0  0
   59.6618   29.9371   44.1477 H   0  0  0  0  0  0  0  0  0  0  0  0
   58.2020   31.5795   43.3700 H   0  0  0  0  0  0  0  0  0  0  0  0
   56.4614   31.1710   43.1098 H   0  0  0  0  0  0  0  0  0  0  0  0
   57.5065   32.3088   47.5272 H   0  0  0  0  0  0  0  0  0  0  0  0
   59.0477   33.9899   48.5409 H   0  0  0  0  0  0  0  0  0  0  0  0
   60.1797   35.6834   47.0968 H   0  0  0  0  0  0  0  0  0  0  0  0
   59.7687   35.6980   44.6338 H   0  0  0  0  0  0  0  0  0  0  0  0
   58.2315   34.0203   43.6130 H   0  0  0  0  0  0  0  0  0  0  0  0
   55.4079   29.4822   44.8386 H   0  0  0  0  0  0  0  0  0  0  0  0
  1  2  1  0
  2  3  2  0
  3  4  1  0
  4  5  2  0
  5  6  1  0
  6  7  1  0
  7  8  1  0
  8  9  1  0
  9 10  2  0
 10 11  1  0
 11 12  2  0
 12 13  1  0
 13 14  2  0
  6 15  2  0
 15  2  1  0
 14  9  1  0
  3 16  1  0
  4 17  1  0
  5 18  1  0
  7 19  1  0
  7 20  1  0
 10 21  1  0
 11 22  1  0
 12 23  1  0
 13 24  1  0
 14 25  1  0
 15 26  1  0
M  END
>  <UniqueID>  (19) 
16

>  <SMILES>  (19) 
Fc1cccc(COc2ccccc2)c1

>  <Energy>  (19) 
26.481204474103127

>  <Genealogy>  (19) 
Fc1cccc(COc2ccccc2)c1 (3D coordinates assigned)
Fc1cccc(COc2ccccc2)c1 (optimized conformer: 26.481204474103127 kcal/mol)

>  <smiles>  (19) 
Fc1cccc(COc2ccccc2)c1

>  <score_type>  (19) 
oracle

>  <origin>  (19) 
adg

>  <m_score__min__energy>  (19) 
-5.8499999999999996

>  <m_primary>  (19) 
energy

$$$$
19:0
     RDKit          3D

 43 43  0  0  0  0  0  0  0  0999 V2000
   61.1170   30.4440   46.7650 C   0  0  0  0  0  0  0  0  0  0  0  0
   61.0280   31.5920   47.5800 O   0  0  0  0  0  0  0  0  0  0  0  0
   61.8760   32.6270   47.1010 C   0  0  0  0  0  0  0  0  0  0  0  0
   61.0660   33.5450   46.1710 C   0  0  0  0  0  0  0  0  0  0  0  0
   59.6390   33.1560   46.1400 N   0  0  0  0  0  0  0  0  0  0  0  0
   58.9870   33.5230   44.8580 C   0  0  0  0  0  0  0  0  0  0  0  0
   58.1500   32.3690   44.3690 C   0  0  0  0  0  0  0  0  0  0  0  0
   57.7750   31.3390   45.2490 C   0  0  0  0  0  0  0  0  0  0  0  0
   57.0310   30.2510   44.7850 C   0  0  0  0  0  0  0  0  0  0  0  0
   56.6570   30.1780   43.4410 C   0  0  0  0  0  0  0  0  0  0  0  0
   57.0270   31.1960   42.5580 C   0  0  0  0  0  0  0  0  0  0  0  0
   57.7710   32.2870   43.0170 C   0  0  0  0  0  0  0  0  0  0  0  0
   58.7850   33.8030   47.5390 S   0  0  0  0  0  0  0  0  0  0  0  0
   57.3190   33.4670   47.4830 O   0  0  0  0  0  0  0  0  0  0  0  0
   58.9200   35.3010   47.5890 O   0  0  0  0  0  0  0  0  0  0  0  0
   59.4450   33.1000   48.9950 N   0  0  0  0  0  0  0  0  0  0  0  0
   59.6800   34.1370   50.0090 C   0  0  0  0  0  0  0  0  0  0  0  0
   58.5310   32.0730   49.5140 C   0  0  0  0  0  0  0  0  0  0  0  0
   62.3140   33.4050   48.1980 O   0  0  0  0  0  0  0  0  0  0  0  0
   63.7240   33.4480   48.2320 C   0  0  0  0  0  0  0  0  0  0  0  0
   61.1864   29.5482   47.3997 H   0  0  0  0  0  0  0  0  0  0  0  0
   60.2215   30.3749   46.1299 H   0  0  0  0  0  0  0  0  0  0  0  0
   62.0124   30.5137   46.1299 H   0  0  0  0  0  0  0  0  0  0  0  0
   62.7313   32.1868   46.5674 H   0  0  0  0  0  0  0  0  0  0  0  0
   61.1470   34.5812   46.5311 H   0  0  0  0  0  0  0  0  0  0  0  0
   61.4727   33.4534   45.1530 H   0  0  0  0  0  0  0  0  0  0  0  0
   58.3441   34.4021   45.0126 H   0  0  0  0  0  0  0  0  0  0  0  0
   59.7582   33.7583   44.1097 H   0  0  0  0  0  0  0  0  0  0  0  0
   58.0686   31.3897   46.3079 H   0  0  0  0  0  0  0  0  0  0  0  0
   56.7390   29.4498   45.4799 H   0  0  0  0  0  0  0  0  0  0  0  0
   56.0719   29.3201   43.0781 H   0  0  0  0  0  0  0  0  0  0  0  0
   56.7323   31.1388   41.4998 H   0  0  0  0  0  0  0  0  0  0  0  0
   58.0613   33.0849   42.3176 H   0  0  0  0  0  0  0  0  0  0  0  0
   60.3590   32.6490   48.7570 H   0  0  0  0  0  0  0  0  0  0  0  0
   59.5805   33.6978   51.0126 H   0  0  0  0  0  0  0  0  0  0  0  0
   60.6937   34.5463   49.8868 H   0  0  0  0  0  0  0  0  0  0  0  0
   58.9418   34.9433   49.8868 H   0  0  0  0  0  0  0  0  0  0  0  0
   58.5465   32.0904   50.6138 H   0  0  0  0  0  0  0  0  0  0  0  0
   57.5103   32.2770   49.1584 H   0  0  0  0  0  0  0  0  0  0  0  0
   58.8521   31.0828   49.1584 H   0  0  0  0  0  0  0  0  0  0  0  0
   64.0654   33.4584   49.2776 H   0  0  0  0  0  0  0  0  0  0  0  0
   64.1303   32.5618   47.7224 H   0  0  0  0  0  0  0  0  0  0  0  0
   64.0755   34.3573   47.7224 H   0  0  0  0  0  0  0  0  0  0  0  0
  1  2  1  0
  2  3  1  0
  3  4  1  0
  4  5  1  0
  5  6  1  0
  6  7  1  0
  7  8  2  0
  8  9  1  0
  9 10  2  0
 10 11  1  0
 11 12  2  0
  5 13  1  0
 13 14  2  0
 13 15  2  0
 13 16  1  0
 16 17  1  0
 16 18  1  0
  3 19  1  0
 19 20  1  0
 12  7  1  0
  1 21  1  0
  1 22  1  0
  1 23  1  0
  3 24  1  0
  4 25  1  0
  4 26  1  0
  6 27  1  0
  6 28  1  0
  8 29  1  0
  9 30  1  0
 10 31  1  0
 11 32  1  0
 12 33  1  0
 16 34  1  0
 17 35  1  0
 17 36  1  0
 17 37  1  0
 18 38  1  0
 18 39  1  0
 18 40  1  0
 20 41  1  0
 20 42  1  0
 20 43  1  0
M  CHG  1  16   1
M  END
>  <UniqueID>  (20) 
17

>  <SMILES>  (20) 
COC(CN(Cc1ccccc1)S(=O)(=O)[NH+](C)C)OC

>  <Energy>  (20) 
42.154724439280145

>  <Genealogy>  (20) 
COC(CN(Cc1ccccc1)S(=O)(=O)[NH+](C)C)OC (protonated)
COC(CN(Cc1ccccc1)S(=O)(=O)[NH+](C)C)OC (3D coordinates assigned)
COC(CN(Cc1ccccc1)S(=O)(=O)[NH+](C)C)OC (optimized conformer: 42.154724439280145 kcal/mol)

>  <smiles>  (20) 
COC(CN(Cc1ccccc1)S(=O)(=O)N(C)C)OC

>  <score_type>  (20) 
oracle

>  <origin>  (20) 
adg

>  <m_score__min__energy>  (20) 
-4.8799999999999999

>  <m_primary>  (20) 
energy

$$$$
20:0
     RDKit          3D

 33 34  0  0  0  0  0  0  0  0999 V2000
   58.8930   28.6240   48.0240 C   0  0  0  0  0  0  0  0  0  0  0  0
   59.1270   29.8440   47.2570 N   0  0  0  0  0  0  0  0  0  0  0  0
   58.8980   31.1320   47.9100 C   0  0  0  0  0  0  0  0  0  0  0  0
   60.0140   29.7780   46.1340 C   0  0  0  0  0  0  0  0  0  0  0  0
   60.2190   28.6420   45.4550 C   0  0  0  0  0  0  0  0  0  0  0  0
   59.2450   28.0810   44.4480 C   0  0  1  0  0  0  0  0  0  0  0  0
   58.9650   26.7390   44.7410 O   0  0  0  0  0  0  0  0  0  0  0  0
   57.9600   28.8550   44.4490 C   0  0  0  0  0  0  0  0  0  0  0  0
   57.5170   30.0900   43.9920 C   0  0  0  0  0  0  0  0  0  0  0  0
   58.0810   31.2060   43.2980 N   0  0  0  0  0  0  0  0  0  0  0  0
   57.8300   32.5820   43.7080 C   0  0  0  0  0  0  0  0  0  0  0  0
   58.7310   33.0590   44.8340 C   0  0  0  0  0  0  0  0  0  0  0  0
   57.2820   32.7020   45.1190 C   0  0  0  0  0  0  0  0  0  0  0  0
   56.2560   29.8140   44.4830 C   0  0  0  0  0  0  0  0  0  0  0  0
   55.1580   30.4280   44.5050 O   0  0  0  0  0  0  0  0  0  0  0  0
   56.6950   28.5900   44.9400 C   0  0  0  0  0  0  0  0  0  0  0  0
   56.1640   27.6270   45.5520 O   0  0  0  0  0  0  0  0  0  0  0  0
   58.9369   28.8527   49.0991 H   0  0  0  0  0  0  0  0  0  0  0  0
   57.9008   28.2192   47.7754 H   0  0  0  0  0  0  0  0  0  0  0  0
   59.6650   27.8809   47.7754 H   0  0  0  0  0  0  0  0  0  0  0  0
   58.9217   30.9990   49.0017 H   0  0  0  0  0  0  0  0  0  0  0  0
   59.6843   31.8402   47.6098 H   0  0  0  0  0  0  0  0  0  0  0  0
   57.9158   31.5258   47.6098 H   0  0  0  0  0  0  0  0  0  0  0  0
   60.5435   30.6894   45.8194 H   0  0  0  0  0  0  0  0  0  0  0  0
   61.1499   28.0865   45.6418 H   0  0  0  0  0  0  0  0  0  0  0  0
   59.7105   28.1598   43.4545 H   0  0  0  0  0  0  0  0  0  0  0  0
   57.9840   26.6740   44.8780 H   0  0  0  0  0  0  0  0  0  0  0  0
   58.7860   31.0170   42.5520 H   0  0  0  0  0  0  0  0  0  0  0  0
   57.5426   32.9735   42.7210 H   0  0  0  0  0  0  0  0  0  0  0  0
   59.5399   32.4114   45.2031 H   0  0  0  0  0  0  0  0  0  0  0  0
   59.3621   33.9438   45.0037 H   0  0  0  0  0  0  0  0  0  0  0  0
   57.0418   31.7959   45.6946 H   0  0  0  0  0  0  0  0  0  0  0  0
   56.4293   33.2214   45.5807 H   0  0  0  0  0  0  0  0  0  0  0  0
  1  2  1  0
  2  3  1  0
  2  4  1  0
  4  5  2  3
  5  6  1  0
  6  7  1  0
  6  8  1  0
  8  9  2  0
  9 10  1  0
 10 11  1  0
 11 12  1  0
 12 13  1  0
  9 14  1  0
 14 15  2  0
 14 16  1  0
 16 17  2  0
 16  8  1  0
 13 11  1  0
  1 18  1  0
  1 19  1  0
  1 20  1  0
  3 21  1  0
  3 22  1  0
  3 23  1  0
  4 24  1  0
  5 25  1  0
  6 26  1  6
  7 27  1  0
 10 28  1  0
 11 29  1  0
 12 30  1  0
 12 31  1  0
 13 32  1  0
 13 33  1  0
M  END
>  <UniqueID>  (21) 
18

>  <SMILES>  (21) 
CN(C)C=C[C@@H](O)c1c(NC2CC2)c(=O)c1=O

>  <Energy>  (21) 
284.0099818754378

>  <Genealogy>  (21) 
CN(C)C=C[C@@H](O)c1c(NC2CC2)c(=O)c1=O (chirality)
CN(C)C=C[C@@H](O)c1c(NC2CC2)c(=O)c1=O (3D coordinates assigned)
CN(C)C=C[C@@H](O)c1c(NC2CC2)c(=O)c1=O (nonaromatic ring conformer: 284.0099818754378 kcal/mol)

>  <smiles>  (21) 
CN(C)C=CC(O)c1c(NC2CC2)c(=O)c1=O

>  <score_type>  (21) 
oracle

>  <origin>  (21) 
adg

>  <m_score__min__energy>  (21) 
-6.1699999999999999

>  <m_primary>  (21) 
energy

$$$$
21:0
     RDKit          3D

 41 43  0  0  0  0  0  0  0  0999 V2000
   64.8910   32.3910   49.7520 C   0  0  0  0  0  0  0  0  0  0  0  0
   63.7740   31.9640   48.7810 C   0  0  0  0  0  0  0  0  0  0  0  0
   62.6870   32.9750   48.5720 N   0  0  0  0  0  0  0  0  0  0  0  0
   63.0230   34.2240   49.3060 C   0  0  0  0  0  0  0  0  0  0  0  0
   62.5430   33.2850   47.1060 C   0  0  0  0  0  0  0  0  0  0  0  0
   61.0960   33.5670   46.6790 C   0  0  0  0  0  0  0  0  0  0  0  0
   60.2710   32.4050   47.0020 N   0  0  0  0  0  0  0  0  0  0  0  0
   59.1070   32.1100   46.2210 C   0  0  0  0  0  0  0  0  0  0  0  0
   58.1390   33.1030   46.0330 C   0  0  0  0  0  0  0  0  0  0  0  0
   56.9990   32.8250   45.2770 C   0  0  0  0  0  0  0  0  0  0  0  0
   56.8280   31.5970   44.7240 N   0  0  0  0  0  0  0  0  0  0  0  0
   57.7480   30.6060   44.8790 C   0  0  0  0  0  0  0  0  0  0  0  0
   57.5330   29.3560   44.2880 C   0  0  0  0  0  0  0  0  0  0  0  0
   58.4750   28.3370   44.4420 C   0  0  0  0  0  0  0  0  0  0  0  0
   59.6380   28.5610   45.1840 C   0  0  0  0  0  0  0  0  0  0  0  0
   59.8640   29.8050   45.7810 C   0  0  0  0  0  0  0  0  0  0  0  0
   58.9210   30.8400   45.6370 C   0  0  0  0  0  0  0  0  0  0  0  0
   60.5860   31.5970   48.1810 C   0  0  0  0  0  0  0  0  0  0  0  0
   61.4190   32.4260   49.1700 C   0  0  0  0  0  0  0  0  0  0  0  0
   64.5462   32.2592   50.7882 H   0  0  0  0  0  0  0  0  0  0  0  0
   65.7829   31.7704   49.5806 H   0  0  0  0  0  0  0  0  0  0  0  0
   65.1415   33.4483   49.5806 H   0  0  0  0  0  0  0  0  0  0  0  0
   64.2345   31.7531   47.8046 H   0  0  0  0  0  0  0  0  0  0  0  0
   63.2912   31.0878   49.2384 H   0  0  0  0  0  0  0  0  0  0  0  0
   62.9729   34.0377   50.3889 H   0  0  0  0  0  0  0  0  0  0  0  0
   64.0396   34.5458   49.0360 H   0  0  0  0  0  0  0  0  0  0  0  0
   62.3050   35.0124   49.0360 H   0  0  0  0  0  0  0  0  0  0  0  0
   63.1528   34.1711   46.8760 H   0  0  0  0  0  0  0  0  0  0  0  0
   62.8758   32.3944   46.5528 H   0  0  0  0  0  0  0  0  0  0  0  0
   60.7178   34.4490   47.2166 H   0  0  0  0  0  0  0  0  0  0  0  0
   61.0583   33.7610   45.5969 H   0  0  0  0  0  0  0  0  0  0  0  0
   58.2760   34.0990   46.4794 H   0  0  0  0  0  0  0  0  0  0  0  0
   56.2364   33.6038   45.1288 H   0  0  0  0  0  0  0  0  0  0  0  0
   56.6203   29.1759   43.7011 H   0  0  0  0  0  0  0  0  0  0  0  0
   58.3013   27.3549   43.9779 H   0  0  0  0  0  0  0  0  0  0  0  0
   60.3784   27.7556   45.2988 H   0  0  0  0  0  0  0  0  0  0  0  0
   60.7808   29.9752   46.3645 H   0  0  0  0  0  0  0  0  0  0  0  0
   59.6516   31.2793   48.6667 H   0  0  0  0  0  0  0  0  0  0  0  0
   61.1618   30.7120   47.8725 H   0  0  0  0  0  0  0  0  0  0  0  0
   60.8058   33.2690   49.5211 H   0  0  0  0  0  0  0  0  0  0  0  0
   61.7117   31.7541   49.9903 H   0  0  0  0  0  0  0  0  0  0  0  0
  1  2  1  0
  2  3  1  0
  3  4  1  0
  3  5  1  0
  5  6  1  0
  6  7  1  0
  7  8  1  0
  8  9  2  0
  9 10  1  0
 10 11  2  0
 11 12  1  0
 12 13  2  0
 13 14  1  0
 14 15  2  0
 15 16  1  0
 16 17  2  0
  7 18  1  0
 18 19  1  0
 19  3  1  0
 17  8  1  0
 17 12  1  0
  1 20  1  0
  1 21  1  0
  1 22  1  0
  2 23  1  0
  2 24  1  0
  4 25  1  0
  4 26  1  0
  4 27  1  0
  5 28  1  0
  5 29  1  0
  6 30  1  0
  6 31  1  0
  9 32  1  0
 10 33  1  0
 13 34  1  0
 14 35  1  0
 15 36  1  0
 16 37  1  0
 18 38  1  0
 18 39  1  0
 19 40  1  0
 19 41  1  0
M  CHG  1   3   1
M  END
>  <UniqueID>  (22) 
19

>  <SMILES>  (22) 
CC[N+]1(C)CCN(c2ccnc3ccccc23)CC1

>  <Energy>  (22) 
66.17740339471256

>  <Genealogy>  (22) 
CC[N+]1(C)CCN(c2ccnc3ccccc23)CC1 (3D coordinates assigned)
CC[N+]1(C)CCN(c2ccnc3ccccc23)CC1 (nonaromatic ring conformer: 66.17740339471256 kcal/mol)

>  <smiles>  (22) 
CC[N+]1(C)CCN(c2ccnc3ccccc23)CC1

>  <score_type>  (22) 
oracle

>  <origin>  (22) 
adg

>  <m_score__min__energy>  (22) 
-5.1399999999999997

>  <m_primary>  (22) 
energy

$$$$
22:0
     RDKit          3D

 21 22  0  0  0  0  0  0  0  0999 V2000
   56.2680   29.4170   42.6250 C   0  0  0  0  0  0  0  0  0  0  0  0
   56.8610   30.5470   43.4050 C   0  0  0  0  0  0  0  0  0  0  0  0
   57.5210   31.5920   42.7550 C   0  0  0  0  0  0  0  0  0  0  0  0
   58.0640   32.6300   43.5090 C   0  0  0  0  0  0  0  0  0  0  0  0
   57.9350   32.6060   44.9070 C   0  0  0  0  0  0  0  0  0  0  0  0
   58.4760   33.6520   45.7370 N   0  0  0  0  0  0  0  0  0  0  0  0
   59.3650   34.5910   45.3520 C   0  0  0  0  0  0  0  0  0  0  0  0
   59.6350   35.4050   46.4310 C   0  0  0  0  0  0  0  0  0  0  0  0
   58.9170   34.9740   47.4830 N   0  0  0  0  0  0  0  0  0  0  0  0
   58.2220   33.9100   47.0400 C   0  0  0  0  0  0  0  0  0  0  0  0
   57.2810   31.5600   45.4830 N   0  0  0  0  0  0  0  0  0  0  0  0
   56.7620   30.5670   44.7600 N   0  0  0  0  0  0  0  0  0  0  0  0
   55.8713   28.6611   43.3187 H   0  0  0  0  0  0  0  0  0  0  0  0
   55.4530   29.7968   41.9913 H   0  0  0  0  0  0  0  0  0  0  0  0
   57.0436   28.9621   41.9913 H   0  0  0  0  0  0  0  0  0  0  0  0
   57.6112   31.5955   41.6587 H   0  0  0  0  0  0  0  0  0  0  0  0
   58.5887   33.4604   43.0139 H   0  0  0  0  0  0  0  0  0  0  0  0
   59.8007   34.6902   44.3469 H   0  0  0  0  0  0  0  0  0  0  0  0
   60.3227   36.2635   46.4314 H   0  0  0  0  0  0  0  0  0  0  0  0
   58.9020   35.3800   48.4440 H   0  0  0  0  0  0  0  0  0  0  0  0
   57.5314   33.3218   47.6621 H   0  0  0  0  0  0  0  0  0  0  0  0
  1  2  1  0
  2  3  2  0
  3  4  1  0
  4  5  2  0
  5  6  1  0
  6  7  1  0
  7  8  2  0
  8  9  1  0
  9 10  2  0
  5 11  1  0
 11 12  2  0
 12  2  1  0
 10  6  1  0
  1 13  1  0
  1 14  1  0
  1 15  1  0
  3 16  1  0
  4 17  1  0
  7 18  1  0
  8 19  1  0
  9 20  1  0
 10 21  1  0
M  CHG  1   9   1
M  END
>  <UniqueID>  (23) 
20

>  <SMILES>  (23) 
Cc1ccc(-n2cc[nH+]c2)nn1

>  <Energy>  (23) 
53.26566040723308

>  <Genealogy>  (23) 
Cc1ccc(-n2cc[nH+]c2)nn1 (protonated)
Cc1ccc(-n2cc[nH+]c2)nn1 (3D coordinates assigned)
Cc1ccc(-n2cc[nH+]c2)nn1 (optimized conformer: 53.26566040723308 kcal/mol)

>  <smiles>  (23) 
Cc1ccc(-n2ccnc2)nn1

>  <score_type>  (23) 
oracle

>  <origin>  (23) 
adg

>  <m_score__min__energy>  (23) 
-4.4100000000000001

>  <m_primary>  (23) 
energy

$$$$
23:0
     RDKit          3D

 39 40  0  0  0  0  0  0  0  0999 V2000
   57.0080   24.2670   43.8590 C   0  0  0  0  0  0  0  0  0  0  0  0
   57.3900   25.6440   44.1460 N   0  0  0  0  0  0  0  0  0  0  0  0
   58.2370   26.3340   43.3970 N   0  0  0  0  0  0  0  0  0  0  0  0
   58.3490   27.5690   43.9240 C   0  0  0  0  0  0  0  0  0  0  0  0
   57.5480   27.6700   45.0500 C   0  0  0  0  0  0  0  0  0  0  0  0
   57.4570   28.8400   45.9410 C   0  0  0  0  0  0  0  0  0  0  0  0
   58.1100   28.8760   47.0180 O   0  0  0  0  0  0  0  0  0  0  0  0
   56.6470   29.9540   45.5550 N   0  0  0  0  0  0  0  0  0  0  0  0
   56.0740   30.1190   44.2220 C   0  0  0  0  0  0  0  0  0  0  0  0
   57.0220   30.9010   43.2990 C   0  0  0  0  0  0  0  0  0  0  0  0
   58.4450   31.0310   43.8670 C   0  0  0  0  0  0  0  0  0  0  0  0
   58.6010   32.2710   44.6600 N   0  0  0  0  0  0  0  0  0  0  0  0
   57.3750   33.0910   44.5860 C   0  0  0  0  0  0  0  0  0  0  0  0
   57.4210   34.2510   45.6000 C   0  0  0  0  0  0  0  0  0  0  0  0
   58.7290   34.4310   46.1020 O   0  0  0  0  0  0  0  0  0  0  0  0
   59.1150   33.2940   46.8540 C   0  0  0  0  0  0  0  0  0  0  0  0
   58.9230   31.9780   46.0690 C   0  0  0  0  0  0  0  0  0  0  0  0
   56.9510   26.4210   45.1610 C   0  0  0  0  0  0  0  0  0  0  0  0
   55.9760   26.0140   46.1340 N   0  0  0  0  0  0  0  0  0  0  0  0
   54.7750   26.3170   45.9870 O   0  0  0  0  0  0  0  0  0  0  0  0
   56.3350   25.1900   47.1740 O   0  0  0  0  0  0  0  0  0  0  0  0
   56.8573   23.7238   44.8036 H   0  0  0  0  0  0  0  0  0  0  0  0
   56.0737   24.2591   43.2784 H   0  0  0  0  0  0  0  0  0  0  0  0
   57.8047   23.7789   43.2784 H   0  0  0  0  0  0  0  0  0  0  0  0
   58.9805   28.3747   43.5214 H   0  0  0  0  0  0  0  0  0  0  0  0
   55.8883   29.1261   43.7865 H   0  0  0  0  0  0  0  0  0  0  0  0
   55.1355   30.6850   44.3154 H   0  0  0  0  0  0  0  0  0  0  0  0
   57.0773   30.3803   42.3316 H   0  0  0  0  0  0  0  0  0  0  0  0
   56.6154   31.9179   43.1965 H   0  0  0  0  0  0  0  0  0  0  0  0
   58.6526   30.1651   44.5129 H   0  0  0  0  0  0  0  0  0  0  0  0
   59.1510   31.0690   43.0243 H   0  0  0  0  0  0  0  0  0  0  0  0
   57.2802   33.5046   43.5711 H   0  0  0  0  0  0  0  0  0  0  0  0
   56.5123   32.4519   44.8253 H   0  0  0  0  0  0  0  0  0  0  0  0
   57.0956   35.1768   45.1030 H   0  0  0  0  0  0  0  0  0  0  0  0
   56.7527   34.0100   46.4398 H   0  0  0  0  0  0  0  0  0  0  0  0
   60.1767   33.3927   47.1244 H   0  0  0  0  0  0  0  0  0  0  0  0
   58.4749   33.2488   47.7474 H   0  0  0  0  0  0  0  0  0  0  0  0
   59.8503   31.3881   46.1153 H   0  0  0  0  0  0  0  0  0  0  0  0
   58.0949   31.4091   46.5169 H   0  0  0  0  0  0  0  0  0  0  0  0
  1  2  1  0
  2  3  1  0
  3  4  2  0
  4  5  1  0
  5  6  1  0
  6  7  2  0
  6  8  1  0
  8  9  1  0
  9 10  1  0
 10 11  1  0
 11 12  1  0
 12 13  1  0
 13 14  1  0
 14 15  1  0
 15 16  1  0
 16 17  1  0
  5 18  2  0
 18 19  1  0
 19 20  2  0
 19 21  1  0
 18  2  1  0
 17 12  1  0
  1 22  1  0
  1 23  1  0
  1 24  1  0
  4 25  1  0
  9 26  1  0
  9 27  1  0
 10 28  1  0
 10 29  1  0
 11 30  1  0
 11 31  1  0
 13 32  1  0
 13 33  1  0
 14 34  1  0
 14 35  1  0
 16 36  1  0
 16 37  1  0
 17 38  1  0
 17 39  1  0
M  CHG  3   8  -1  19   1  21  -1
M  END
>  <UniqueID>  (24) 
21

>  <SMILES>  (24) 
Cn1ncc(C(=O)[N-]CCCN2CCOCC2)c1[N+](=O)[O-]

>  <Energy>  (24) 
76.9362254488645

>  <Genealogy>  (24) 
Cn1ncc(C(=O)[N-]CCCN2CCOCC2)c1[N+](=O)[O-] (protonated)
Cn1ncc(C(=O)[N-]CCCN2CCOCC2)c1[N+](=O)[O-] (3D coordinates assigned)
Cn1ncc(C(=O)[N-]CCCN2CCOCC2)c1[N+](=O)[O-] (nonaromatic ring conformer: 76.9362254488645 kcal/mol)

>  <smiles>  (24) 
Cn1ncc(C(=O)NCCCN2CCOCC2)c1[N+](=O)[O-]

>  <score_type>  (24) 
oracle

>  <origin>  (24) 
adg

>  <m_score__min__energy>  (24) 
-9.7100000000000009

>  <m_primary>  (24) 
energy

$$$$
24:0
     RDKit          3D

 44 47  0  0  0  0  0  0  0  0999 V2000
   66.7290   32.4220   50.4410 C   0  0  0  0  0  0  0  0  0  0  0  0
   65.6620   33.8290   50.8750 S   0  0  0  0  0  0  0  0  0  0  0  0
   64.2910   33.2380   49.8860 C   0  0  0  0  0  0  0  0  0  0  0  0
   63.0450   33.1960   50.4160 N   0  0  0  0  0  0  0  0  0  0  0  0
   61.9840   32.7490   49.6940 C   0  0  0  0  0  0  0  0  0  0  0  0
   60.6680   32.6560   50.3660 C   0  0  0  0  0  0  0  0  0  0  0  0
   59.9550   31.4440   50.3960 C   0  0  0  0  0  0  0  0  0  0  0  0
   58.7190   31.3690   51.0450 C   0  0  0  0  0  0  0  0  0  0  0  0
   58.1930   32.4960   51.6810 C   0  0  0  0  0  0  0  0  0  0  0  0
   58.9050   33.6980   51.6760 C   0  0  0  0  0  0  0  0  0  0  0  0
   60.1430   33.7780   51.0270 C   0  0  0  0  0  0  0  0  0  0  0  0
   62.2000   32.3520   48.3530 C   0  0  0  0  0  0  0  0  0  0  0  0
   61.1090   31.9400   47.4400 C   0  0  0  0  0  0  0  0  0  0  0  0
   60.9700   30.5910   47.0840 C   0  0  0  0  0  0  0  0  0  0  0  0
   59.9490   30.1900   46.2190 C   0  0  0  0  0  0  0  0  0  0  0  0
   59.0550   31.1340   45.6810 C   0  0  0  0  0  0  0  0  0  0  0  0
   57.9670   30.7060   44.7650 C   0  0  0  0  0  0  0  0  0  0  0  0
   57.0220   29.7450   45.1740 C   0  0  0  0  0  0  0  0  0  0  0  0
   56.0000   29.3460   44.3090 C   0  0  0  0  0  0  0  0  0  0  0  0
   55.9080   29.8970   43.0300 C   0  0  0  0  0  0  0  0  0  0  0  0
   56.8380   30.8500   42.6120 C   0  0  0  0  0  0  0  0  0  0  0  0
   57.8630   31.2550   43.4730 C   0  0  0  0  0  0  0  0  0  0  0  0
   59.2130   32.4880   46.0220 C   0  0  0  0  0  0  0  0  0  0  0  0
   60.2340   32.8890   46.8870 C   0  0  0  0  0  0  0  0  0  0  0  0
   63.4690   32.3940   47.8680 N   0  0  0  0  0  0  0  0  0  0  0  0
   64.4910   32.8180   48.6090 N   0  0  0  0  0  0  0  0  0  0  0  0
   67.0937   31.9411   51.3606 H   0  0  0  0  0  0  0  0  0  0  0  0
   66.1537   31.6942   49.8499 H   0  0  0  0  0  0  0  0  0  0  0  0
   67.5850   32.7796   49.8499 H   0  0  0  0  0  0  0  0  0  0  0  0
   60.3717   30.5513   49.9067 H   0  0  0  0  0  0  0  0  0  0  0  0
   58.1602   30.4216   51.0548 H   0  0  0  0  0  0  0  0  0  0  0  0
   57.2176   32.4370   52.1861 H   0  0  0  0  0  0  0  0  0  0  0  0
   58.4923   34.5829   52.1827 H   0  0  0  0  0  0  0  0  0  0  0  0
   60.7062   34.7229   51.0350 H   0  0  0  0  0  0  0  0  0  0  0  0
   61.6690   29.8440   47.4882 H   0  0  0  0  0  0  0  0  0  0  0  0
   59.8430   29.1271   45.9562 H   0  0  0  0  0  0  0  0  0  0  0  0
   57.0890   29.3060   46.1804 H   0  0  0  0  0  0  0  0  0  0  0  0
   55.2658   28.5954   44.6369 H   0  0  0  0  0  0  0  0  0  0  0  0
   55.1024   29.5801   42.3513 H   0  0  0  0  0  0  0  0  0  0  0  0
   56.7647   31.2833   41.6036 H   0  0  0  0  0  0  0  0  0  0  0  0
   58.5925   32.0073   43.1385 H   0  0  0  0  0  0  0  0  0  0  0  0
   58.5265   33.2390   45.6040 H   0  0  0  0  0  0  0  0  0  0  0  0
   60.3532   33.9537   47.1363 H   0  0  0  0  0  0  0  0  0  0  0  0
   65.4490   32.8360   48.1960 H   0  0  0  0  0  0  0  0  0  0  0  0
  1  2  1  0
  2  3  1  0
  3  4  2  0
  4  5  1  0
  5  6  1  0
  6  7  2  0
  7  8  1  0
  8  9  2  0
  9 10  1  0
 10 11  2  0
  5 12  2  0
 12 13  1  0
 13 14  2  0
 14 15  1  0
 15 16  2  0
 16 17  1  0
 17 18  2  0
 18 19  1  0
 19 20  2  0
 20 21  1  0
 21 22  2  0
 16 23  1  0
 23 24  2  0
 12 25  1  0
 25 26  2  0
 26  3  1  0
 11  6  1  0
 24 13  1  0
 22 17  1  0
  1 27  1  0
  1 28  1  0
  1 29  1  0
  7 30  1  0
  8 31  1  0
  9 32  1  0
 10 33  1  0
 11 34  1  0
 14 35  1  0
 15 36  1  0
 18 37  1  0
 19 38  1  0
 20 39  1  0
 21 40  1  0
 22 41  1  0
 23 42  1  0
 24 43  1  0
 26 44  1  0
M  CHG  1  26   1
M  END
>  <UniqueID>  (25) 
22

>  <SMILES>  (25) 
CSc1nc(-c2ccccc2)c(-c2ccc(-c3ccccc3)cc2)n[nH+]1

>  <Energy>  (25) 
62.145737637939405

>  <Genealogy>  (25) 
CSc1nc(-c2ccccc2)c(-c2ccc(-c3ccccc3)cc2)n[nH+]1 (protonated)
CSc1nc(-c2ccccc2)c(-c2ccc(-c3ccccc3)cc2)n[nH+]1 (3D coordinates assigned)
CSc1nc(-c2ccccc2)c(-c2ccc(-c3ccccc3)cc2)n[nH+]1 (optimized conformer: 62.145737637939405 kcal/mol)

>  <smiles>  (25) 
CSc1nnc(-c2ccc(-c3ccccc3)cc2)c(-c2ccccc2)n1

>  <score_type>  (25) 
oracle

>  <origin>  (25) 
adg

>  <m_score__min__energy>  (25) 
-7.0300000000000002

>  <m_primary>  (25) 
energy

$$$$
25:0
     RDKit          3D

 32 33  0  0  0  0  0  0  0  0999 V2000
   59.0493   35.4283   46.9982 H   0  0  0  0  0  0  0  0  0  0  0  0
   58.6710   34.5170   46.5120 C   0  0  0  0  0  0  0  0  0  0  0  0
   58.5750   33.3270   47.2360 C   0  0  0  0  0  0  0  0  0  0  0  0
   58.8771   33.3026   48.2934 H   0  0  0  0  0  0  0  0  0  0  0  0
   58.0960   32.1660   46.6210 C   0  0  0  0  0  0  0  0  0  0  0  0
   58.0230   31.2318   47.1971 H   0  0  0  0  0  0  0  0  0  0  0  0
   57.7070   32.1870   45.2690 C   0  0  0  0  0  0  0  0  0  0  0  0
   57.1990   30.9620   44.6160 C   0  0  0  0  0  0  0  0  0  0  0  0
   55.9470   30.4840   44.7850 N   0  0  0  0  0  0  0  0  0  0  0  0
   55.8940   29.4110   44.0580 O   0  0  0  0  0  0  0  0  0  0  0  0
   57.0500   29.2330   43.4680 C   0  0  0  0  0  0  0  0  0  0  0  0
   57.3220   28.2480   42.6710 N   0  0  0  0  0  0  0  0  0  0  0  0
   57.9430   27.0080   43.1270 C   0  0  0  0  0  0  0  0  0  0  0  0
   58.5486   26.5855   42.3116 H   0  0  0  0  0  0  0  0  0  0  0  0
   57.1523   26.3010   43.4185 H   0  0  0  0  0  0  0  0  0  0  0  0
   58.8430   27.2710   44.3390 C   0  0  0  0  0  0  0  0  0  0  0  0
   58.7902   28.3427   44.5813 H   0  0  0  0  0  0  0  0  0  0  0  0
   59.8551   26.9461   44.0562 H   0  0  0  0  0  0  0  0  0  0  0  0
   58.4590   26.4720   45.5990 C   0  0  0  0  0  0  0  0  0  0  0  0
   59.3579   26.3530   46.2218 H   0  0  0  0  0  0  0  0  0  0  0  0
   58.0541   25.5082   45.2568 H   0  0  0  0  0  0  0  0  0  0  0  0
   57.3670   27.1410   46.4470 C   0  0  0  0  0  0  0  0  0  0  0  0
   57.7812   28.0440   46.9192 H   0  0  0  0  0  0  0  0  0  0  0  0
   57.0302   26.4256   47.2116 H   0  0  0  0  0  0  0  0  0  0  0  0
   56.2200   27.5160   45.6240 N   0  0  0  0  0  0  0  0  0  0  0  0
   56.0400   28.5350   45.7740 H   0  0  0  0  0  0  0  0  0  0  0  0
   56.4870   27.4060   44.6190 H   0  0  0  0  0  0  0  0  0  0  0  0
   57.9370   30.1940   43.7820 N   0  0  0  0  0  0  0  0  0  0  0  0
   57.8070   33.3910   44.5480 C   0  0  0  0  0  0  0  0  0  0  0  0
   57.5068   33.4217   43.4902 H   0  0  0  0  0  0  0  0  0  0  0  0
   58.2860   34.5490   45.1690 C   0  0  0  0  0  0  0  0  0  0  0  0
   58.3598   35.4869   44.5991 H   0  0  0  0  0  0  0  0  0  0  0  0
  1  2  1  0
  2  3  2  0
  3  4  1  0
  3  5  1  0
  5  6  1  0
  5  7  2  0
  7  8  1  0
  8  9  2  0
  9 10  1  0
 10 11  1  0
 11 12  2  0
 12 13  1  0
 13 14  1  0
 13 15  1  0
 13 16  1  0
 16 17  1  0
 16 18  1  0
 16 19  1  0
 19 20  1  0
 19 21  1  0
 19 22  1  0
 22 23  1  0
 22 24  1  0
 22 25  1  0
 25 26  1  0
 25 27  1  0
 11 28  1  0
  7 29  1  0
 29 30  1  0
 29 31  2  0
 31 32  1  0
 31  2  1  0
 28  8  1  0
M  CHG  1  28  -1
M  END
>  <UniqueID>  (26) 
23

>  <SMILES>  (26) 
NCCCC/N=c1/[n-]c(-c2ccccc2)no1

>  <Energy>  (26) 
59.26978451053308

>  <Genealogy>  (26) 
NCCCCN=c1[n-]c(-c2ccccc2)no1 (protonated)
NCCCC/N=c1/[n-]c(-c2ccccc2)no1 (cis-trans isomerization)
NCCCC/N=c1/[n-]c(-c2ccccc2)no1 (3D coordinates assigned)
NCCCC/N=c1/[n-]c(-c2ccccc2)no1 (optimized conformer: 59.26978451053308 kcal/mol)

>  <smiles>  (26) 
NCCCCN=c1[nH]c(-c2ccccc2)no1

>  <score_type>  (26) 
oracle

>  <origin>  (26) 
adg

>  <m_score__min__energy>  (26) 
-8.6799999999999997

>  <m_primary>  (26) 
energy

$$$$
26:0
     RDKit          3D

 41 44  0  0  0  0  0  0  0  0999 V2000
   59.3690   33.4940   51.7180 C   0  0  0  0  0  0  0  0  0  0  0  0
   60.2170   33.5180   50.4810 C   0  0  0  0  0  0  0  0  0  0  0  0
   61.5610   33.1310   50.5400 C   0  0  0  0  0  0  0  0  0  0  0  0
   62.3440   33.1220   49.3840 C   0  0  0  0  0  0  0  0  0  0  0  0
   61.7950   33.4930   48.1460 C   0  0  0  0  0  0  0  0  0  0  0  0
   62.6800   33.5030   46.9290 C   0  0  0  0  0  0  0  0  0  0  0  0
   60.4230   33.8370   48.0710 C   0  0  0  0  0  0  0  0  0  0  0  0
   59.8010   34.1700   46.8190 N   0  0  0  0  0  0  0  0  0  0  0  0
   59.9520   35.3070   46.0870 C   0  0  0  0  0  0  0  0  0  0  0  0
   59.2690   35.2650   44.9130 N   0  0  0  0  0  0  0  0  0  0  0  0
   58.6890   34.0540   44.9180 C   0  0  0  0  0  0  0  0  0  0  0  0
   57.8720   33.4550   43.9730 C   0  0  0  0  0  0  0  0  0  0  0  0
   57.4190   32.1940   44.2420 N   0  0  0  0  0  0  0  0  0  0  0  0
   57.7610   31.5350   45.4010 C   0  0  0  0  0  0  0  0  0  0  0  0
   57.2700   30.2530   45.6710 O   0  0  0  0  0  0  0  0  0  0  0  0
   58.0490   29.0910   45.7680 C   0  0  0  0  0  0  0  0  0  0  0  0
   59.4460   29.1390   45.9380 C   0  0  0  0  0  0  0  0  0  0  0  0
   60.1840   27.9550   46.0440 C   0  0  0  0  0  0  0  0  0  0  0  0
   59.5360   26.7190   45.9940 C   0  0  0  0  0  0  0  0  0  0  0  0
   60.2530   25.5730   46.0990 F   0  0  0  0  0  0  0  0  0  0  0  0
   58.1470   26.6640   45.8470 C   0  0  0  0  0  0  0  0  0  0  0  0
   57.4060   27.8440   45.7410 C   0  0  0  0  0  0  0  0  0  0  0  0
   56.0580   27.7800   45.6000 F   0  0  0  0  0  0  0  0  0  0  0  0
   58.5630   32.1470   46.3260 N   0  0  0  0  0  0  0  0  0  0  0  0
   59.0130   33.3960   46.0550 C   0  0  0  0  0  0  0  0  0  0  0  0
   59.6510   33.8530   49.2440 C   0  0  0  0  0  0  0  0  0  0  0  0
   60.0166   33.5123   52.6069 H   0  0  0  0  0  0  0  0  0  0  0  0
   58.7088   34.3738   51.7271 H   0  0  0  0  0  0  0  0  0  0  0  0
   58.7596   32.5782   51.7271 H   0  0  0  0  0  0  0  0  0  0  0  0
   62.0026   32.8324   51.5022 H   0  0  0  0  0  0  0  0  0  0  0  0
   63.4005   32.8216   49.4436 H   0  0  0  0  0  0  0  0  0  0  0  0
   63.7343   33.5149   47.2424 H   0  0  0  0  0  0  0  0  0  0  0  0
   62.4864   32.6026   46.3275 H   0  0  0  0  0  0  0  0  0  0  0  0
   62.4662   34.3988   46.3275 H   0  0  0  0  0  0  0  0  0  0  0  0
   60.5597   36.1652   46.4098 H   0  0  0  0  0  0  0  0  0  0  0  0
   59.2230   35.9980   44.1720 H   0  0  0  0  0  0  0  0  0  0  0  0
   57.5986   33.9741   43.0425 H   0  0  0  0  0  0  0  0  0  0  0  0
   59.9590   30.1108   45.9876 H   0  0  0  0  0  0  0  0  0  0  0  0
   61.2763   27.9978   46.1669 H   0  0  0  0  0  0  0  0  0  0  0  0
   57.6364   25.6902   45.8147 H   0  0  0  0  0  0  0  0  0  0  0  0
   58.5883   34.1321   49.1909 H   0  0  0  0  0  0  0  0  0  0  0  0
  1  2  1  0
  2  3  2  0
  3  4  1  0
  4  5  2  0
  5  6  1  0
  5  7  1  0
  7  8  1  0
  8  9  1  0
  9 10  2  0
 10 11  1  0
 11 12  2  0
 12 13  1  0
 13 14  2  0
 14 15  1  0
 15 16  1  0
 16 17  2  0
 17 18  1  0
 18 19  2  0
 19 20  1  0
 19 21  1  0
 21 22  2  0
 22 23  1  0
 14 24  1  0
 24 25  2  0
  7 26  2  0
 26  2  1  0
 25  8  1  0
 25 11  1  0
 22 16  1  0
  1 27  1  0
  1 28  1  0
  1 29  1  0
  3 30  1  0
  4 31  1  0
  6 32  1  0
  6 33  1  0
  6 34  1  0
  9 35  1  0
 10 36  1  0
 12 37  1  0
 17 38  1  0
 18 39  1  0
 21 40  1  0
 26 41  1  0
M  CHG  1  10   1
M  END
>  <UniqueID>  (27) 
24

>  <SMILES>  (27) 
Cc1ccc(C)c(-n2c[nH+]c3cnc(Oc4ccc(F)cc4F)nc32)c1

>  <Energy>  (27) 
98.51610761844431

>  <Genealogy>  (27) 
Cc1ccc(C)c(-n2c[nH+]c3cnc(Oc4ccc(F)cc4F)nc32)c1 (protonated)
Cc1ccc(C)c(-n2c[nH+]c3cnc(Oc4ccc(F)cc4F)nc32)c1 (3D coordinates assigned)
Cc1ccc(C)c(-n2c[nH+]c3cnc(Oc4ccc(F)cc4F)nc32)c1 (optimized conformer: 98.51610761844431 kcal/mol)

>  <smiles>  (27) 
Cc1ccc(C)c(-n2cnc3cnc(Oc4ccc(F)cc4F)nc32)c1

>  <score_type>  (27) 
oracle

>  <origin>  (27) 
adg

>  <m_score__min__energy>  (27) 
-7.2599999999999998

>  <m_primary>  (27) 
energy

$$$$
27:0
     RDKit          3D

 35 37  0  0  0  0  0  0  0  0999 V2000
   57.3740   33.6460   44.8990 C   0  0  0  0  0  0  0  0  0  0  0  0
   58.5300   34.6030   45.1850 C   0  0  0  0  0  0  0  0  0  0  0  0
   59.0450   34.4830   46.6250 C   0  0  0  0  0  0  0  0  0  0  0  0
   59.7300   33.2080   46.8360 N   0  0  0  0  0  0  0  0  0  0  0  0
   59.1520   32.0240   47.1570 C   0  0  0  0  0  0  0  0  0  0  0  0
   60.1310   31.0660   47.3980 C   0  0  0  0  0  0  0  0  0  0  0  0
   59.8610   29.3900   47.9670 S   0  0  0  0  0  0  0  0  0  0  0  0
   58.9930   28.9430   46.4630 C   0  0  0  0  0  0  0  0  0  0  0  0
   59.7130   28.5710   45.3210 C   0  0  0  0  0  0  0  0  0  0  0  0
   59.0350   28.1990   44.1560 C   0  0  0  0  0  0  0  0  0  0  0  0
   57.6360   28.1980   44.1300 C   0  0  0  0  0  0  0  0  0  0  0  0
   56.9140   28.5720   45.2690 C   0  0  0  0  0  0  0  0  0  0  0  0
   55.5250   28.5690   45.2440 O   0  0  0  0  0  0  0  0  0  0  0  0
   57.5920   28.9480   46.4340 C   0  0  0  0  0  0  0  0  0  0  0  0
   61.3380   31.7020   47.2130 C   0  0  0  0  0  0  0  0  0  0  0  0
   62.6560   31.2890   47.3490 C   0  0  0  0  0  0  0  0  0  0  0  0
   63.6390   32.2110   47.1280 N   0  0  0  0  0  0  0  0  0  0  0  0
   63.3370   33.5070   46.7920 C   0  0  0  0  0  0  0  0  0  0  0  0
   62.0360   33.9080   46.6690 N   0  0  0  0  0  0  0  0  0  0  0  0
   61.0580   32.9920   46.8780 C   0  0  0  0  0  0  0  0  0  0  0  0
   56.9470   33.2925   45.8491 H   0  0  0  0  0  0  0  0  0  0  0  0
   56.5986   34.1701   44.3210 H   0  0  0  0  0  0  0  0  0  0  0  0
   57.7441   32.7864   44.3210 H   0  0  0  0  0  0  0  0  0  0  0  0
   59.3556   34.3763   44.4944 H   0  0  0  0  0  0  0  0  0  0  0  0
   58.1587   35.6290   45.0457 H   0  0  0  0  0  0  0  0  0  0  0  0
   59.7477   35.3054   46.8247 H   0  0  0  0  0  0  0  0  0  0  0  0
   58.1847   34.5341   47.3086 H   0  0  0  0  0  0  0  0  0  0  0  0
   58.0680   31.8472   47.2178 H   0  0  0  0  0  0  0  0  0  0  0  0
   60.8128   28.5714   45.3404 H   0  0  0  0  0  0  0  0  0  0  0  0
   59.6017   27.9070   43.2596 H   0  0  0  0  0  0  0  0  0  0  0  0
   57.1034   27.9031   43.2138 H   0  0  0  0  0  0  0  0  0  0  0  0
   57.0248   29.2477   47.3276 H   0  0  0  0  0  0  0  0  0  0  0  0
   62.9009   30.2529   47.6257 H   0  0  0  0  0  0  0  0  0  0  0  0
   64.6390   31.9260   47.2220 H   0  0  0  0  0  0  0  0  0  0  0  0
   64.1488   34.2291   46.6202 H   0  0  0  0  0  0  0  0  0  0  0  0
  1  2  1  0
  2  3  1  0
  3  4  1  0
  4  5  1  0
  5  6  2  0
  6  7  1  0
  7  8  1  0
  8  9  2  0
  9 10  1  0
 10 11  2  0
 11 12  1  0
 12 13  1  0
 12 14  2  0
  6 15  1  0
 15 16  2  0
 16 17  1  0
 17 18  2  0
 18 19  1  0
 19 20  2  0
 20  4  1  0
 14  8  1  0
 20 15  1  0
  1 21  1  0
  1 22  1  0
  1 23  1  0
  2 24  1  0
  2 25  1  0
  3 26  1  0
  3 27  1  0
  5 28  1  0
  9 29  1  0
 10 30  1  0
 11 31  1  0
 14 32  1  0
 16 33  1  0
 17 34  1  0
 18 35  1  0
M  CHG  2  13  -1  17   1
M  END
>  <UniqueID>  (28) 
25

>  <SMILES>  (28) 
CCCn1cc(Sc2cccc([O-])c2)c2c[nH+]cnc21

>  <Energy>  (28) 
62.895501622308

>  <Genealogy>  (28) 
CCCn1cc(Sc2cccc([O-])c2)c2c[nH+]cnc21 (protonated)
CCCn1cc(Sc2cccc([O-])c2)c2c[nH+]cnc21 (3D coordinates assigned)
CCCn1cc(Sc2cccc([O-])c2)c2c[nH+]cnc21 (optimized conformer: 62.895501622308 kcal/mol)

>  <smiles>  (28) 
CCCn1cc(Sc2cccc(O)c2)c2cncnc21

>  <score_type>  (28) 
oracle

>  <origin>  (28) 
adg

>  <m_score__min__energy>  (28) 
-9.4800000000000004

>  <m_primary>  (28) 
energy

$$$$
28:0
     RDKit          3D

 51 55  0  0  0  0  0  0  0  0999 V2000
   57.0210   34.5990   44.6320 O   0  0  0  0  0  0  0  0  0  0  0  0
   57.2950   33.5830   45.3230 C   0  0  0  0  0  0  0  0  0  0  0  0
   56.4870   32.4090   45.1670 N   0  0  0  0  0  0  0  0  0  0  0  0
   56.9460   31.1340   44.6980 C   0  0  0  0  0  0  0  0  0  0  0  0
   56.2730   30.5240   43.6370 C   0  0  0  0  0  0  0  0  0  0  0  0
   56.6790   29.2730   43.1730 C   0  0  0  0  0  0  0  0  0  0  0  0
   57.7790   28.6270   43.7450 C   0  0  0  0  0  0  0  0  0  0  0  0
   58.2070   27.0290   43.1350 Cl  0  0  0  0  0  0  0  0  0  0  0  0
   58.5070   29.2530   44.7830 C   0  0  0  0  0  0  0  0  0  0  0  0
   59.7110   28.5750   45.4010 C   0  0  0  0  0  0  0  0  0  0  0  0
   60.2260   29.3110   46.4540 F   0  0  0  0  0  0  0  0  0  0  0  0
   60.7110   28.4340   44.4550 F   0  0  0  0  0  0  0  0  0  0  0  0
   59.3470   27.3280   45.8720 F   0  0  0  0  0  0  0  0  0  0  0  0
   58.0690   30.5060   45.2590 C   0  0  0  0  0  0  0  0  0  0  0  0
   58.3800   33.6340   46.2720 N   0  0  0  0  0  0  0  0  0  0  0  0
   58.2540   32.9930   47.5870 C   0  0  0  0  0  0  0  0  0  0  0  0
   59.5860   32.3540   47.9870 C   0  0  0  0  0  0  0  0  0  0  0  0
   60.7030   33.2890   47.8030 N   0  0  0  0  0  0  0  0  0  0  0  0
   61.8970   33.0780   48.5660 C   0  0  0  0  0  0  0  0  0  0  0  0
   63.0760   32.7790   47.9370 N   0  0  0  0  0  0  0  0  0  0  0  0
   64.2230   32.5380   48.6480 C   0  0  0  0  0  0  0  0  0  0  0  0
   64.2210   32.5870   50.0130 N   0  0  0  0  0  0  0  0  0  0  0  0
   63.0620   32.8810   50.6470 C   0  0  0  0  0  0  0  0  0  0  0  0
   62.8940   32.9670   51.9830 N   0  0  0  0  0  0  0  0  0  0  0  0
   61.5890   33.2860   52.1360 C   0  0  0  0  0  0  0  0  0  0  0  0
   60.9140   33.4950   53.3370 C   0  0  0  0  0  0  0  0  0  0  0  0
   59.5490   33.8300   53.2770 C   0  0  0  0  0  0  0  0  0  0  0  0
   58.8950   33.9560   52.0310 C   0  0  0  0  0  0  0  0  0  0  0  0
   59.5970   33.7450   50.8300 C   0  0  0  0  0  0  0  0  0  0  0  0
   60.9450   33.4020   50.9180 C   0  0  0  0  0  0  0  0  0  0  0  0
   61.9000   33.1330   49.9590 C   0  0  0  0  0  0  0  0  0  0  0  0
   60.4920   34.6060   47.1890 C   0  0  0  0  0  0  0  0  0  0  0  0
   59.5230   34.5190   45.9990 C   0  0  0  0  0  0  0  0  0  0  0  0
   55.4191   31.0324   43.1654 H   0  0  0  0  0  0  0  0  0  0  0  0
   56.1296   28.7910   42.3509 H   0  0  0  0  0  0  0  0  0  0  0  0
   58.6135   30.9968   46.0791 H   0  0  0  0  0  0  0  0  0  0  0  0
   57.9731   33.7487   48.3353 H   0  0  0  0  0  0  0  0  0  0  0  0
   57.4800   32.2131   47.5361 H   0  0  0  0  0  0  0  0  0  0  0  0
   59.5376   32.0574   49.0451 H   0  0  0  0  0  0  0  0  0  0  0  0
   59.7574   31.4777   47.3445 H   0  0  0  0  0  0  0  0  0  0  0  0
   63.1040   32.7210   46.8950 H   0  0  0  0  0  0  0  0  0  0  0  0
   65.1551   32.3026   48.1134 H   0  0  0  0  0  0  0  0  0  0  0  0
   63.6110   32.8240   52.7280 H   0  0  0  0  0  0  0  0  0  0  0  0
   61.4326   33.4009   54.3025 H   0  0  0  0  0  0  0  0  0  0  0  0
   58.9863   33.9952   54.2077 H   0  0  0  0  0  0  0  0  0  0  0  0
   57.8279   34.2213   51.9996 H   0  0  0  0  0  0  0  0  0  0  0  0
   59.0988   33.8473   49.8546 H   0  0  0  0  0  0  0  0  0  0  0  0
   60.0737   35.2897   47.9424 H   0  0  0  0  0  0  0  0  0  0  0  0
   61.4603   34.9768   46.8217 H   0  0  0  0  0  0  0  0  0  0  0  0
   59.1441   35.5276   45.7771 H   0  0  0  0  0  0  0  0  0  0  0  0
   60.0759   34.1002   45.1453 H   0  0  0  0  0  0  0  0  0  0  0  0
  1  2  2  0
  2  3  1  0
  3  4  1  0
  4  5  2  0
  5  6  1  0
  6  7  2  0
  7  8  1  0
  7  9  1  0
  9 10  1  0
 10 11  1  0
 10 12  1  0
 10 13  1  0
  9 14  2  0
  2 15  1  0
 15 16  1  0
 16 17  1  0
 17 18  1  0
 18 19  1  0
 19 20  2  0
 20 21  1  0
 21 22  2  0
 22 23  1  0
 23 24  1  0
 24 25  1  0
 25 26  2  0
 26 27  1  0
 27 28  2  0
 28 29  1  0
 29 30  2  0
 30 31  1  0
 18 32  1  0
 32 33  1  0
 14  4  1  0
 33 15  1  0
 31 19  1  0
 31 23  2  0
 30 25  1  0
  5 34  1  0
  6 35  1  0
 14 36  1  0
 16 37  1  0
 16 38  1  0
 17 39  1  0
 17 40  1  0
 20 41  1  0
 21 42  1  0
 24 43  1  0
 26 44  1  0
 27 45  1  0
 28 46  1  0
 29 47  1  0
 32 48  1  0
 32 49  1  0
 33 50  1  0
 33 51  1  0
M  CHG  2   3  -1  20   1
M  END
>  <UniqueID>  (29) 
26

>  <SMILES>  (29) 
O=C([N-]c1ccc(Cl)c(C(F)(F)F)c1)N1CCN(c2[nH+]cnc3[nH]c4ccccc4c23)CC1

>  <Energy>  (29) 
111.00086778945659

>  <Genealogy>  (29) 
O=C([N-]c1ccc(Cl)c(C(F)(F)F)c1)N1CCN(c2[nH+]cnc3[nH]c4ccccc4c23)CC1 (protonated)
O=C([N-]c1ccc(Cl)c(C(F)(F)F)c1)N1CCN(c2[nH+]cnc3[nH]c4ccccc4c23)CC1 (3D coordinates assigned)
O=C([N-]c1ccc(Cl)c(C(F)(F)F)c1)N1CCN(c2[nH+]cnc3[nH]c4ccccc4c23)CC1 (nonaromatic ring conformer: 111.00086778945659 kcal/mol)

>  <smiles>  (29) 
O=C(Nc1ccc(Cl)c(C(F)(F)F)c1)N1CCN(c2ncnc3[nH]c4ccccc4c23)CC1

>  <score_type>  (29) 
oracle

>  <origin>  (29) 
adg

>  <m_score__min__energy>  (29) 
-8.3699999999999992

>  <m_primary>  (29) 
energy

$$$$
29:0
     RDKit          3D

 42 43  0  0  0  0  0  0  0  0999 V2000
   59.6820   29.1160   45.0100 C   0  0  0  0  0  0  0  0  0  0  0  0
   58.4360   29.2750   44.1320 C   0  0  1  0  0  0  0  0  0  0  0  0
   57.6800   28.0100   44.0830 N   0  0  0  0  0  0  0  0  0  0  0  0
   57.9770   27.1640   45.2460 C   0  0  0  0  0  0  0  0  0  0  0  0
   57.0700   25.9660   45.2430 C   0  0  0  0  0  0  0  0  0  0  0  0
   57.3170   24.8890   44.3800 C   0  0  0  0  0  0  0  0  0  0  0  0
   56.4470   23.7960   44.3600 C   0  0  0  0  0  0  0  0  0  0  0  0
   55.3300   23.7970   45.1980 C   0  0  0  0  0  0  0  0  0  0  0  0
   55.0930   24.8550   46.0170 N   0  0  0  0  0  0  0  0  0  0  0  0
   55.9260   25.9290   46.0560 C   0  0  0  0  0  0  0  0  0  0  0  0
   57.5800   30.3790   44.7000 C   0  0  0  0  0  0  0  0  0  0  0  0
   56.3410   30.1910   44.8550 O   0  0  0  0  0  0  0  0  0  0  0  0
   58.1770   31.6210   45.1000 N   0  0  0  0  0  0  0  0  0  0  0  0
   57.3920   32.7080   45.7010 C   0  0  0  0  0  0  0  0  0  0  0  0
   57.8260   32.9520   47.1720 C   0  0  0  0  0  0  0  0  0  0  0  0
   58.8050   34.1280   47.3500 C   0  0  0  0  0  0  0  0  0  0  0  0
   59.7270   34.2800   46.1380 C   0  0  0  0  0  0  0  0  0  0  0  0
   58.9300   34.5920   44.8580 C   0  0  0  0  0  0  0  0  0  0  0  0
   57.5060   33.9940   44.8570 C   0  0  0  0  0  0  0  0  0  0  0  0
   59.3907   29.1532   46.0701 H   0  0  0  0  0  0  0  0  0  0  0  0
   60.1611   28.1494   44.7951 H   0  0  0  0  0  0  0  0  0  0  0  0
   60.3885   29.9313   44.7951 H   0  0  0  0  0  0  0  0  0  0  0  0
   58.7355   29.5322   43.1053 H   0  0  0  0  0  0  0  0  0  0  0  0
   56.6560   28.2330   44.1220 H   0  0  0  0  0  0  0  0  0  0  0  0
   59.0241   26.8305   45.1981 H   0  0  0  0  0  0  0  0  0  0  0  0
   57.8161   27.7415   46.1683 H   0  0  0  0  0  0  0  0  0  0  0  0
   58.1958   24.9046   43.7186 H   0  0  0  0  0  0  0  0  0  0  0  0
   56.6398   22.9440   43.6915 H   0  0  0  0  0  0  0  0  0  0  0  0
   54.6407   22.9397   45.1951 H   0  0  0  0  0  0  0  0  0  0  0  0
   55.7028   26.7717   46.7268 H   0  0  0  0  0  0  0  0  0  0  0  0
   59.1930   31.7630   44.9040 H   0  0  0  0  0  0  0  0  0  0  0  0
   56.3336   32.4086   45.7117 H   0  0  0  0  0  0  0  0  0  0  0  0
   56.9252   33.1586   47.7686 H   0  0  0  0  0  0  0  0  0  0  0  0
   58.3544   32.0455   47.5023 H   0  0  0  0  0  0  0  0  0  0  0  0
   58.2288   35.0561   47.4792 H   0  0  0  0  0  0  0  0  0  0  0  0
   59.4280   33.9270   48.2340 H   0  0  0  0  0  0  0  0  0  0  0  0
   60.4342   35.1009   46.3277 H   0  0  0  0  0  0  0  0  0  0  0  0
   60.2607   33.3297   45.9891 H   0  0  0  0  0  0  0  0  0  0  0  0
   58.8489   35.6843   44.7561 H   0  0  0  0  0  0  0  0  0  0  0  0
   59.4737   34.1336   44.0188 H   0  0  0  0  0  0  0  0  0  0  0  0
   56.8109   34.7432   45.2639 H   0  0  0  0  0  0  0  0  0  0  0  0
   57.2613   33.7285   43.8180 H   0  0  0  0  0  0  0  0  0  0  0  0
  1  2  1  0
  2  3  1  0
  3  4  1  0
  4  5  1  0
  5  6  2  0
  6  7  1  0
  7  8  2  0
  8  9  1  0
  9 10  2  0
  2 11  1  0
 11 12  2  0
 11 13  1  0
 13 14  1  0
 14 15  1  0
 15 16  1  0
 16 17  1  0
 17 18  1  0
 18 19  1  0
 10  5  1  0
 19 14  1  0
  1 20  1  0
  1 21  1  0
  1 22  1  0
  2 23  1  6
  3 24  1  0
  4 25  1  0
  4 26  1  0
  6 27  1  0
  7 28  1  0
  8 29  1  0
 10 30  1  0
 13 31  1  0
 14 32  1  0
 15 33  1  0
 15 34  1  0
 16 35  1  0
 16 36  1  0
 17 37  1  0
 17 38  1  0
 18 39  1  0
 18 40  1  0
 19 41  1  0
 19 42  1  0
M  END
>  <UniqueID>  (30) 
27

>  <SMILES>  (30) 
C[C@@H](NCc1cccnc1)C(=O)NC1CCCCC1

>  <Energy>  (30) 
38.483873951568974

>  <Genealogy>  (30) 
C[C@@H](NCc1cccnc1)C(=O)NC1CCCCC1 (chirality)
C[C@@H](NCc1cccnc1)C(=O)NC1CCCCC1 (3D coordinates assigned)
C[C@@H](NCc1cccnc1)C(=O)NC1CCCCC1 (nonaromatic ring conformer: 38.483873951568974 kcal/mol)

>  <smiles>  (30) 
CC(NCc1cccnc1)C(=O)NC1CCCCC1

>  <score_type>  (30) 
oracle

>  <origin>  (30) 
adg

>  <m_score__min__energy>  (30) 
-7.5300000000000002

>  <m_primary>  (30) 
energy

$$$$
30:0
     RDKit          3D

 48 51  0  0  0  0  0  0  0  0999 V2000
   60.1570   29.3490   51.1930 C   0  0  0  0  0  0  0  0  0  0  0  0
   59.6710   30.0540   49.9950 N   0  0  1  0  0  0  0  0  0  0  0  0
   59.9040   31.4830   50.1060 C   0  0  0  0  0  0  0  0  0  0  0  0
   60.3180   31.9650   51.1990 O   0  0  0  0  0  0  0  0  0  0  0  0
   59.7760   32.4040   48.9420 C   0  0  0  0  0  0  0  0  0  0  0  0
   58.5640   32.3720   48.2210 C   0  0  0  0  0  0  0  0  0  0  0  0
   58.3810   33.1580   47.0810 C   0  0  0  0  0  0  0  0  0  0  0  0
   57.2190   33.0780   46.3750 N   0  0  0  0  0  0  0  0  0  0  0  0
   57.0170   33.8020   45.2410 C   0  0  0  0  0  0  0  0  0  0  0  0
   58.0170   34.6570   44.7660 C   0  0  0  0  0  0  0  0  0  0  0  0
   59.2220   34.7640   45.4710 C   0  0  0  0  0  0  0  0  0  0  0  0
   59.4140   34.0090   46.6390 C   0  0  0  0  0  0  0  0  0  0  0  0
   60.6150   34.0710   47.3570 C   0  0  0  0  0  0  0  0  0  0  0  0
   60.8160   33.2620   48.4910 C   0  0  0  0  0  0  0  0  0  0  0  0
   62.1650   33.2710   49.0940 C   0  0  0  0  0  0  0  0  0  0  0  0
   63.2340   32.6440   48.4320 C   0  0  0  0  0  0  0  0  0  0  0  0
   64.5120   32.6420   49.0020 C   0  0  0  0  0  0  0  0  0  0  0  0
   64.7260   33.2460   50.2460 C   0  0  0  0  0  0  0  0  0  0  0  0
   65.9660   33.2430   50.7940 F   0  0  0  0  0  0  0  0  0  0  0  0
   63.6580   33.8480   50.9230 C   0  0  0  0  0  0  0  0  0  0  0  0
   62.3780   33.8570   50.3540 C   0  0  0  0  0  0  0  0  0  0  0  0
   60.4420   29.4170   48.5590 S   0  0  0  0  0  0  0  0  0  0  0  0
   61.7030   30.1940   48.2970 O   0  0  0  0  0  0  0  0  0  0  0  0
   60.8240   27.9790   48.7820 O   0  0  0  0  0  0  0  0  0  0  0  0
   59.3930   29.5260   47.1440 C   0  0  0  0  0  0  0  0  0  0  0  0
   58.2200   28.7620   47.0770 C   0  0  0  0  0  0  0  0  0  0  0  0
   57.3990   28.8300   45.9450 C   0  0  0  0  0  0  0  0  0  0  0  0
   57.7500   29.6600   44.8750 C   0  0  0  0  0  0  0  0  0  0  0  0
   56.7260   29.7390   43.4520 Cl  0  0  0  0  0  0  0  0  0  0  0  0
   58.9160   30.4280   44.9410 C   0  0  0  0  0  0  0  0  0  0  0  0
   59.7300   30.3660   46.0750 C   0  0  0  0  0  0  0  0  0  0  0  0
   59.7991   29.8681   52.0944 H   0  0  0  0  0  0  0  0  0  0  0  0
   59.7780   28.3164   51.1898 H   0  0  0  0  0  0  0  0  0  0  0  0
   61.2569   29.3359   51.1898 H   0  0  0  0  0  0  0  0  0  0  0  0
   58.6520   29.8500   49.8880 H   0  0  0  0  0  0  0  0  0  0  0  0
   57.7490   31.7168   48.5624 H   0  0  0  0  0  0  0  0  0  0  0  0
   56.0652   33.7148   44.6965 H   0  0  0  0  0  0  0  0  0  0  0  0
   57.8581   35.2401   43.8469 H   0  0  0  0  0  0  0  0  0  0  0  0
   60.0147   35.4366   45.1114 H   0  0  0  0  0  0  0  0  0  0  0  0
   61.4091   34.7589   47.0313 H   0  0  0  0  0  0  0  0  0  0  0  0
   63.0657   32.1529   47.4622 H   0  0  0  0  0  0  0  0  0  0  0  0
   65.3494   32.1651   48.4716 H   0  0  0  0  0  0  0  0  0  0  0  0
   63.8248   34.3153   51.9047 H   0  0  0  0  0  0  0  0  0  0  0  0
   61.5397   34.3225   50.8930 H   0  0  0  0  0  0  0  0  0  0  0  0
   57.9436   28.1069   47.9163 H   0  0  0  0  0  0  0  0  0  0  0  0
   56.4778   28.2307   45.8969 H   0  0  0  0  0  0  0  0  0  0  0  0
   59.1928   31.0811   44.1003 H   0  0  0  0  0  0  0  0  0  0  0  0
   60.6408   30.9805   46.1285 H   0  0  0  0  0  0  0  0  0  0  0  0
  1  2  1  0
  2  3  1  0
  3  4  2  0
  3  5  1  0
  5  6  2  0
  6  7  1  0
  7  8  2  0
  8  9  1  0
  9 10  2  0
 10 11  1  0
 11 12  2  0
 12 13  1  0
 13 14  2  0
 14 15  1  0
 15 16  2  0
 16 17  1  0
 17 18  2  0
 18 19  1  0
 18 20  1  0
 20 21  2  0
  2 22  1  0
 22 23  2  0
 22 24  2  0
 22 25  1  0
 25 26  2  0
 26 27  1  0
 27 28  2  0
 28 29  1  0
 28 30  1  0
 30 31  2  0
 14  5  1  0
 21 15  1  0
 31 25  1  0
 12  7  1  0
  1 32  1  0
  1 33  1  0
  1 34  1  0
  2 35  1  6
  6 36  1  0
  9 37  1  0
 10 38  1  0
 11 39  1  0
 13 40  1  0
 16 41  1  0
 17 42  1  0
 20 43  1  0
 21 44  1  0
 26 45  1  0
 27 46  1  0
 30 47  1  0
 31 48  1  0
M  CHG  1   2   1
M  END
>  <UniqueID>  (31) 
28

>  <SMILES>  (31) 
C[N@@H+](C(=O)c1cc2ncccc2cc1-c1ccc(F)cc1)S(=O)(=O)c1ccc(Cl)cc1

>  <Energy>  (31) 
68.993353928737

>  <Genealogy>  (31) 
C[NH+](C(=O)c1cc2ncccc2cc1-c1ccc(F)cc1)S(=O)(=O)c1ccc(Cl)cc1 (protonated)
C[N@@H+](C(=O)c1cc2ncccc2cc1-c1ccc(F)cc1)S(=O)(=O)c1ccc(Cl)cc1 (chirality)
C[N@@H+](C(=O)c1cc2ncccc2cc1-c1ccc(F)cc1)S(=O)(=O)c1ccc(Cl)cc1 (3D coordinates assigned)
C[N@@H+](C(=O)c1cc2ncccc2cc1-c1ccc(F)cc1)S(=O)(=O)c1ccc(Cl)cc1 (optimized conformer: 68.993353928737 kcal/mol)

>  <smiles>  (31) 
CN(C(=O)c1cc2ncccc2cc1-c1ccc(F)cc1)S(=O)(=O)c1ccc(Cl)cc1

>  <score_type>  (31) 
oracle

>  <origin>  (31) 
adg

>  <m_score__min__energy>  (31) 
-7.2400000000000002

>  <m_primary>  (31) 
energy

$$$$
31:0
     RDKit          3D

 43 45  0  0  0  0  0  0  0  0999 V2000
   60.7560   26.8220   48.1680 C   0  0  0  0  0  0  0  0  0  0  0  0
   59.8520   27.3040   47.0720 C   0  0  0  0  0  0  0  0  0  0  0  0
   60.3880   27.9090   45.9260 C   0  0  0  0  0  0  0  0  0  0  0  0
   59.5480   28.3320   44.8920 C   0  0  0  0  0  0  0  0  0  0  0  0
   58.1570   28.1430   44.9860 C   0  0  0  0  0  0  0  0  0  0  0  0
   57.2560   28.5730   43.9560 N   0  0  0  0  0  0  0  0  0  0  0  0
   56.5580   30.1560   43.8360 S   0  0  0  0  0  0  0  0  0  0  0  0
   56.3500   30.4910   42.3850 O   0  0  0  0  0  0  0  0  0  0  0  0
   55.2290   30.1610   44.5360 O   0  0  0  0  0  0  0  0  0  0  0  0
   57.6100   31.3450   44.5990 C   0  0  0  0  0  0  0  0  0  0  0  0
   58.0520   31.1650   45.9130 C   0  0  0  0  0  0  0  0  0  0  0  0
   58.8680   32.1250   46.5110 C   0  0  0  0  0  0  0  0  0  0  0  0
   59.2430   33.2680   45.7840 C   0  0  0  0  0  0  0  0  0  0  0  0
   60.0770   34.2860   46.3770 N   0  0  0  0  0  0  0  0  0  0  0  0
   59.6420   35.6870   46.3310 C   0  0  0  0  0  0  0  0  0  0  0  0
   61.2720   33.9340   47.1060 C   0  0  0  0  0  0  0  0  0  0  0  0
   61.2280   33.7130   48.4940 C   0  0  0  0  0  0  0  0  0  0  0  0
   62.3920   33.3770   49.1940 C   0  0  0  0  0  0  0  0  0  0  0  0
   63.6100   33.2670   48.5170 C   0  0  0  0  0  0  0  0  0  0  0  0
   63.6650   33.4900   47.1380 C   0  0  0  0  0  0  0  0  0  0  0  0
   62.5030   33.8230   46.4350 C   0  0  0  0  0  0  0  0  0  0  0  0
   58.7930   33.4190   44.5070 N   0  0  0  0  0  0  0  0  0  0  0  0
   58.0010   32.4940   43.9040 C   0  0  0  0  0  0  0  0  0  0  0  0
   57.6280   27.5120   46.1190 C   0  0  0  0  0  0  0  0  0  0  0  0
   58.4670   27.0920   47.1540 C   0  0  0  0  0  0  0  0  0  0  0  0
   60.3084   27.0607   49.1441 H   0  0  0  0  0  0  0  0  0  0  0  0
   60.8887   25.7334   48.0818 H   0  0  0  0  0  0  0  0  0  0  0  0
   61.7338   27.3185   48.0818 H   0  0  0  0  0  0  0  0  0  0  0  0
   61.4754   28.0514   45.8404 H   0  0  0  0  0  0  0  0  0  0  0  0
   59.9762   28.8146   44.0011 H   0  0  0  0  0  0  0  0  0  0  0  0
   57.7564   30.2667   46.4749 H   0  0  0  0  0  0  0  0  0  0  0  0
   59.2161   31.9885   47.5455 H   0  0  0  0  0  0  0  0  0  0  0  0
   59.5237   36.0680   47.3561 H   0  0  0  0  0  0  0  0  0  0  0  0
   60.3959   36.2878   45.8012 H   0  0  0  0  0  0  0  0  0  0  0  0
   58.6804   35.7552   45.8012 H   0  0  0  0  0  0  0  0  0  0  0  0
   60.2732   33.8048   49.0325 H   0  0  0  0  0  0  0  0  0  0  0  0
   62.3485   33.1991   50.2787 H   0  0  0  0  0  0  0  0  0  0  0  0
   64.5247   33.0051   49.0690 H   0  0  0  0  0  0  0  0  0  0  0  0
   64.6235   33.4034   46.6053 H   0  0  0  0  0  0  0  0  0  0  0  0
   62.5520   33.9993   45.3503 H   0  0  0  0  0  0  0  0  0  0  0  0
   57.6668   32.6492   42.8675 H   0  0  0  0  0  0  0  0  0  0  0  0
   56.5432   27.3458   46.1945 H   0  0  0  0  0  0  0  0  0  0  0  0
   58.0405   26.5932   48.0367 H   0  0  0  0  0  0  0  0  0  0  0  0
  1  2  1  0
  2  3  2  0
  3  4  1  0
  4  5  2  0
  5  6  1  0
  6  7  1  0
  7  8  2  0
  7  9  2  0
  7 10  1  0
 10 11  2  0
 11 12  1  0
 12 13  2  0
 13 14  1  0
 14 15  1  0
 14 16  1  0
 16 17  2  0
 17 18  1  0
 18 19  2  0
 19 20  1  0
 20 21  2  0
 13 22  1  0
 22 23  2  0
  5 24  1  0
 24 25  2  0
 25  2  1  0
 23 10  1  0
 21 16  1  0
  1 26  1  0
  1 27  1  0
  1 28  1  0
  3 29  1  0
  4 30  1  0
 11 31  1  0
 12 32  1  0
 15 33  1  0
 15 34  1  0
 15 35  1  0
 17 36  1  0
 18 37  1  0
 19 38  1  0
 20 39  1  0
 21 40  1  0
 23 41  1  0
 24 42  1  0
 25 43  1  0
M  CHG  1   6  -1
M  END
>  <UniqueID>  (32) 
29

>  <SMILES>  (32) 
Cc1ccc([N-]S(=O)(=O)c2ccc(N(C)c3ccccc3)nc2)cc1

>  <Energy>  (32) 
55.66723494023813

>  <Genealogy>  (32) 
Cc1ccc([N-]S(=O)(=O)c2ccc(N(C)c3ccccc3)nc2)cc1 (protonated)
Cc1ccc([N-]S(=O)(=O)c2ccc(N(C)c3ccccc3)nc2)cc1 (3D coordinates assigned)
Cc1ccc([N-]S(=O)(=O)c2ccc(N(C)c3ccccc3)nc2)cc1 (optimized conformer: 55.66723494023813 kcal/mol)

>  <smiles>  (32) 
Cc1ccc(NS(=O)(=O)c2ccc(N(C)c3ccccc3)nc2)cc1

>  <score_type>  (32) 
oracle

>  <origin>  (32) 
adg

>  <m_score__min__energy>  (32) 
-9.7599999999999998

>  <m_primary>  (32) 
energy

$$$$
32:0
     RDKit          3D

 59 63  0  0  0  0  0  0  0  0999 V2000
   62.4560   29.3080   51.3870 C   0  0  0  0  0  0  0  0  0  0  0  0
   61.4260   29.2740   50.4120 O   0  0  0  0  0  0  0  0  0  0  0  0
   60.3600   30.1860   50.3490 C   0  0  0  0  0  0  0  0  0  0  0  0
   59.1170   29.9320   50.9660 C   0  0  0  0  0  0  0  0  0  0  0  0
   58.0880   30.8760   50.9000 C   0  0  0  0  0  0  0  0  0  0  0  0
   58.2870   32.0790   50.2210 C   0  0  0  0  0  0  0  0  0  0  0  0
   59.5140   32.3420   49.6040 C   0  0  0  0  0  0  0  0  0  0  0  0
   60.5480   31.3970   49.6570 C   0  0  0  0  0  0  0  0  0  0  0  0
   61.7970   31.6690   49.0120 N   0  0  0  0  0  0  0  0  0  0  0  0
   62.7930   32.5270   49.6540 C   0  0  0  0  0  0  0  0  0  0  0  0
   63.2840   33.6030   48.6710 C   0  0  0  0  0  0  0  0  0  0  0  0
   63.3810   33.1400   47.2570 N   0  0  0  0  0  0  0  0  0  0  0  0
   62.3880   33.7890   46.3750 C   0  0  0  0  0  0  0  0  0  0  0  0
   61.0920   34.0590   47.1450 C   0  0  0  0  0  0  0  0  0  0  0  0
   59.9250   33.8260   46.2880 N   0  0  0  0  0  0  0  0  0  0  0  0
   59.5010   32.5680   46.1330 N   0  0  0  0  0  0  0  0  0  0  0  0
   58.4190   32.2530   45.3710 C   0  0  0  0  0  0  0  0  0  0  0  0
   58.0450   30.8760   45.2080 N   0  0  0  0  0  0  0  0  0  0  0  0
   57.2540   30.3990   44.2170 C   0  0  0  0  0  0  0  0  0  0  0  0
   57.0860   29.0260   44.3410 C   0  0  0  0  0  0  0  0  0  0  0  0
   57.8230   28.6680   45.4480 C   0  0  0  0  0  0  0  0  0  0  0  0
   58.0470   27.4140   46.0110 C   0  0  0  0  0  0  0  0  0  0  0  0
   58.9040   27.3350   47.1240 C   0  0  0  0  0  0  0  0  0  0  0  0
   59.5220   28.4960   47.6330 C   0  0  0  0  0  0  0  0  0  0  0  0
   59.2810   29.7500   47.0410 C   0  0  0  0  0  0  0  0  0  0  0  0
   58.4000   29.8070   45.9540 C   0  0  0  0  0  0  0  0  0  0  0  0
   57.7410   33.2740   44.7030 C   0  0  0  0  0  0  0  0  0  0  0  0
   58.1640   34.5890   44.8670 C   0  0  0  0  0  0  0  0  0  0  0  0
   59.2670   34.8580   45.6760 C   0  0  0  0  0  0  0  0  0  0  0  0
   59.6500   36.0500   45.8280 O   0  0  0  0  0  0  0  0  0  0  0  0
   63.3750   31.6670   47.1170 C   0  0  0  0  0  0  0  0  0  0  0  0
   62.1060   31.0470   47.7210 C   0  0  0  0  0  0  0  0  0  0  0  0
   62.0098   29.2933   52.3924 H   0  0  0  0  0  0  0  0  0  0  0  0
   63.1080   28.4309   51.2623 H   0  0  0  0  0  0  0  0  0  0  0  0
   63.0488   30.2262   51.2623 H   0  0  0  0  0  0  0  0  0  0  0  0
   58.9565   28.9852   51.5024 H   0  0  0  0  0  0  0  0  0  0  0  0
   57.1214   30.6706   51.3833 H   0  0  0  0  0  0  0  0  0  0  0  0
   57.4771   32.8217   50.1711 H   0  0  0  0  0  0  0  0  0  0  0  0
   59.6684   33.2940   49.0751 H   0  0  0  0  0  0  0  0  0  0  0  0
   62.3409   33.0150   50.5300 H   0  0  0  0  0  0  0  0  0  0  0  0
   63.6487   31.9102   49.9659 H   0  0  0  0  0  0  0  0  0  0  0  0
   62.5839   34.4506   48.7093 H   0  0  0  0  0  0  0  0  0  0  0  0
   64.3021   33.8769   48.9846 H   0  0  0  0  0  0  0  0  0  0  0  0
   62.7969   34.7415   46.0068 H   0  0  0  0  0  0  0  0  0  0  0  0
   62.1697   33.1213   45.5285 H   0  0  0  0  0  0  0  0  0  0  0  0
   61.0416   33.3876   48.0149 H   0  0  0  0  0  0  0  0  0  0  0  0
   61.0868   35.1086   47.4740 H   0  0  0  0  0  0  0  0  0  0  0  0
   56.8062   31.0147   43.4230 H   0  0  0  0  0  0  0  0  0  0  0  0
   56.4911   28.3653   43.6932 H   0  0  0  0  0  0  0  0  0  0  0  0
   57.5688   26.5134   45.5984 H   0  0  0  0  0  0  0  0  0  0  0  0
   59.0932   26.3616   47.6002 H   0  0  0  0  0  0  0  0  0  0  0  0
   60.1969   28.4210   48.4984 H   0  0  0  0  0  0  0  0  0  0  0  0
   59.7704   30.6588   47.4211 H   0  0  0  0  0  0  0  0  0  0  0  0
   56.8830   33.0417   44.0550 H   0  0  0  0  0  0  0  0  0  0  0  0
   57.6327   35.4096   44.3627 H   0  0  0  0  0  0  0  0  0  0  0  0
   63.4244   31.4097   46.0487 H   0  0  0  0  0  0  0  0  0  0  0  0
   64.2449   31.2663   47.6581 H   0  0  0  0  0  0  0  0  0  0  0  0
   61.2629   31.2040   47.0322 H   0  0  0  0  0  0  0  0  0  0  0  0
   62.2736   29.9708   47.8749 H   0  0  0  0  0  0  0  0  0  0  0  0
  1  2  1  0
  2  3  1  0
  3  4  2  0
  4  5  1  0
  5  6  2  0
  6  7  1  0
  7  8  2  0
  8  9  1  0
  9 10  1  0
 10 11  1  0
 11 12  1  0
 12 13  1  0
 13 14  1  0
 14 15  1  0
 15 16  1  0
 16 17  2  0
 17 18  1  0
 18 19  1  0
 19 20  2  0
 20 21  1  0
 21 22  2  0
 22 23  1  0
 23 24  2  0
 24 25  1  0
 25 26  2  0
 17 27  1  0
 27 28  2  0
 28 29  1  0
 29 30  2  0
 12 31  1  0
 31 32  1  0
  8  3  1  0
 32  9  1  0
 29 15  1  0
 26 18  1  0
 26 21  1  0
  1 33  1  0
  1 34  1  0
  1 35  1  0
  4 36  1  0
  5 37  1  0
  6 38  1  0
  7 39  1  0
 10 40  1  0
 10 41  1  0
 11 42  1  0
 11 43  1  0
 13 44  1  0
 13 45  1  0
 14 46  1  0
 14 47  1  0
 19 48  1  0
 20 49  1  0
 22 50  1  0
 23 51  1  0
 24 52  1  0
 25 53  1  0
 27 54  1  0
 28 55  1  0
 31 56  1  0
 31 57  1  0
 32 58  1  0
 32 59  1  0
M  END
>  <UniqueID>  (33) 
30

>  <SMILES>  (33) 
COc1ccccc1N1CCN(CCn2nc(-n3ccc4ccccc43)ccc2=O)CC1

>  <Energy>  (33) 
114.5448881095822

>  <Genealogy>  (33) 
COc1ccccc1N1CCN(CCn2nc(-n3ccc4ccccc43)ccc2=O)CC1 (3D coordinates assigned)
COc1ccccc1N1CCN(CCn2nc(-n3ccc4ccccc43)ccc2=O)CC1 (nonaromatic ring conformer: 114.5448881095822 kcal/mol)

>  <smiles>  (33) 
COc1ccccc1N1CCN(CCn2nc(-n3ccc4ccccc43)ccc2=O)CC1

>  <score_type>  (33) 
oracle

>  <origin>  (33) 
adg

>  <m_score__min__energy>  (33) 
-8.7699999999999996

>  <m_primary>  (33) 
energy

$$$$
33:0
     RDKit          3D

 36 37  0  0  0  0  0  0  0  0999 V2000
   56.2940   30.3690   44.1160 C   0  0  0  0  0  0  0  0  0  0  0  0
   56.6710   29.6380   45.3290 N   0  0  0  0  0  0  0  0  0  0  0  0
   56.8870   28.2070   45.0620 C   0  0  0  0  0  0  0  0  0  0  0  0
   58.2750   27.7380   45.5280 C   0  0  0  0  0  0  0  0  0  0  0  0
   58.4550   27.7780   47.0550 C   0  0  0  0  0  0  0  0  0  0  0  0
   59.2380   28.9520   47.4790 N   0  0  0  0  0  0  0  0  0  0  0  0
   59.0410   30.1180   46.8460 N   0  0  0  0  0  0  0  0  0  0  0  0
   59.6980   31.2600   47.2060 C   0  0  0  0  0  0  0  0  0  0  0  0
   59.4180   32.5410   46.5090 C   0  0  0  0  0  0  0  0  0  0  0  0
   60.1820   33.6870   46.7970 C   0  0  0  0  0  0  0  0  0  0  0  0
   59.9220   34.8930   46.1410 C   0  0  0  0  0  0  0  0  0  0  0  0
   58.8990   34.9700   45.1930 C   0  0  0  0  0  0  0  0  0  0  0  0
   58.1330   33.8390   44.9000 C   0  0  0  0  0  0  0  0  0  0  0  0
   58.3900   32.6290   45.5520 C   0  0  0  0  0  0  0  0  0  0  0  0
   60.6240   31.2080   48.2520 C   0  0  0  0  0  0  0  0  0  0  0  0
   60.8480   30.0020   48.9030 C   0  0  0  0  0  0  0  0  0  0  0  0
   60.1410   28.8690   48.5100 C   0  0  0  0  0  0  0  0  0  0  0  0
   60.3360   27.7820   49.1190 O   0  0  0  0  0  0  0  0  0  0  0  0
   55.8062   31.3148   44.3946 H   0  0  0  0  0  0  0  0  0  0  0  0
   57.1946   30.5821   43.5215 H   0  0  0  0  0  0  0  0  0  0  0  0
   55.5982   29.7588   43.5215 H   0  0  0  0  0  0  0  0  0  0  0  0
   55.8720   29.7200   46.0000 H   0  0  0  0  0  0  0  0  0  0  0  0
   56.1188   27.6265   45.5938 H   0  0  0  0  0  0  0  0  0  0  0  0
   56.8223   28.0503   43.9751 H   0  0  0  0  0  0  0  0  0  0  0  0
   58.4257   26.7033   45.1866 H   0  0  0  0  0  0  0  0  0  0  0  0
   59.0125   28.4310   45.0968 H   0  0  0  0  0  0  0  0  0  0  0  0
   57.4638   27.8196   47.5302 H   0  0  0  0  0  0  0  0  0  0  0  0
   59.0000   26.8727   47.3607 H   0  0  0  0  0  0  0  0  0  0  0  0
   58.3710   30.1550   46.0440 H   0  0  0  0  0  0  0  0  0  0  0  0
   60.9886   33.6331   47.5429 H   0  0  0  0  0  0  0  0  0  0  0  0
   60.5244   35.7840   46.3717 H   0  0  0  0  0  0  0  0  0  0  0  0
   58.6967   35.9205   44.6775 H   0  0  0  0  0  0  0  0  0  0  0  0
   57.3261   33.9005   44.1549 H   0  0  0  0  0  0  0  0  0  0  0  0
   57.7853   31.7411   45.3156 H   0  0  0  0  0  0  0  0  0  0  0  0
   61.1697   32.1133   48.5563 H   0  0  0  0  0  0  0  0  0  0  0  0
   61.5787   29.9424   49.7231 H   0  0  0  0  0  0  0  0  0  0  0  0
  1  2  1  0
  2  3  1  0
  3  4  1  0
  4  5  1  0
  5  6  1  0
  6  7  1  0
  7  8  2  0
  8  9  1  0
  9 10  2  0
 10 11  1  0
 11 12  2  0
 12 13  1  0
 13 14  2  0
  8 15  1  0
 15 16  2  0
 16 17  1  0
 17 18  2  0
 17  6  1  0
 14  9  1  0
  1 19  1  0
  1 20  1  0
  1 21  1  0
  2 22  1  0
  3 23  1  0
  3 24  1  0
  4 25  1  0
  4 26  1  0
  5 27  1  0
  5 28  1  0
  7 29  1  0
 10 30  1  0
 11 31  1  0
 12 32  1  0
 13 33  1  0
 14 34  1  0
 15 35  1  0
 16 36  1  0
M  CHG  1   7   1
M  END
>  <UniqueID>  (34) 
31

>  <SMILES>  (34) 
CNCCCn1[nH+]c(-c2ccccc2)ccc1=O

>  <Energy>  (34) 
38.03800936057692

>  <Genealogy>  (34) 
CNCCCn1[nH+]c(-c2ccccc2)ccc1=O (protonated)
CNCCCn1[nH+]c(-c2ccccc2)ccc1=O (3D coordinates assigned)
CNCCCn1[nH+]c(-c2ccccc2)ccc1=O (optimized conformer: 38.03800936057692 kcal/mol)

>  <smiles>  (34) 
CNCCCn1nc(-c2ccccc2)ccc1=O

>  <score_type>  (34) 
oracle

>  <origin>  (34) 
adg

>  <m_score__min__energy>  (34) 
-5.5099999999999998

>  <m_primary>  (34) 
energy

$$$$
34:0
     RDKit          3D

 37 38  0  0  0  0  0  0  0  0999 V2000
   57.4020   32.3940   51.9800 C   0  0  0  0  0  0  0  0  0  0  0  0
   58.4990   33.4510   51.9020 C   0  0  0  0  0  0  0  0  0  0  0  0
   59.6350   33.0080   50.9720 C   0  0  0  0  0  0  0  0  0  0  0  0
   59.1750   32.9480   49.5700 N   0  0  0  0  0  0  0  0  0  0  0  0
   59.8700   33.8900   48.6570 C   0  0  0  0  0  0  0  0  0  0  0  0
   59.1200   34.0390   47.3370 C   0  0  0  0  0  0  0  0  0  0  0  0
   57.9540   33.2850   47.1120 C   0  0  0  0  0  0  0  0  0  0  0  0
   57.2710   33.3810   45.8950 C   0  0  0  0  0  0  0  0  0  0  0  0
   57.7500   34.2190   44.8860 C   0  0  0  0  0  0  0  0  0  0  0  0
   58.9170   34.9600   45.0900 C   0  0  0  0  0  0  0  0  0  0  0  0
   59.6030   34.8690   46.3030 C   0  0  0  0  0  0  0  0  0  0  0  0
   61.3680   33.6220   48.4620 C   0  0  0  0  0  0  0  0  0  0  0  0
   62.2600   34.0730   49.4580 C   0  0  0  0  0  0  0  0  0  0  0  0
   63.6330   33.8390   49.3520 C   0  0  0  0  0  0  0  0  0  0  0  0
   64.1400   33.1350   48.2590 C   0  0  0  0  0  0  0  0  0  0  0  0
   63.2720   32.6550   47.2770 C   0  0  0  0  0  0  0  0  0  0  0  0
   61.8970   32.8860   47.3770 C   0  0  0  0  0  0  0  0  0  0  0  0
   57.1765   32.1767   53.0345 H   0  0  0  0  0  0  0  0  0  0  0  0
   56.4960   32.7683   51.4809 H   0  0  0  0  0  0  0  0  0  0  0  0
   57.7424   31.4748   51.4809 H   0  0  0  0  0  0  0  0  0  0  0  0
   58.0674   34.3877   51.5194 H   0  0  0  0  0  0  0  0  0  0  0  0
   58.9130   33.5965   52.9107 H   0  0  0  0  0  0  0  0  0  0  0  0
   60.4642   33.7268   51.0486 H   0  0  0  0  0  0  0  0  0  0  0  0
   59.9672   32.0045   51.2762 H   0  0  0  0  0  0  0  0  0  0  0  0
   58.1400   33.0980   49.5040 H   0  0  0  0  0  0  0  0  0  0  0  0
   59.3460   31.9750   49.2210 H   0  0  0  0  0  0  0  0  0  0  0  0
   59.8473   34.8616   49.1723 H   0  0  0  0  0  0  0  0  0  0  0  0
   57.5766   32.6151   47.8986 H   0  0  0  0  0  0  0  0  0  0  0  0
   56.3544   32.7950   45.7325 H   0  0  0  0  0  0  0  0  0  0  0  0
   57.2091   34.2958   43.9313 H   0  0  0  0  0  0  0  0  0  0  0  0
   59.2963   35.6166   44.2931 H   0  0  0  0  0  0  0  0  0  0  0  0
   60.5260   35.4482   46.4534 H   0  0  0  0  0  0  0  0  0  0  0  0
   61.8685   34.6167   50.3304 H   0  0  0  0  0  0  0  0  0  0  0  0
   64.3153   34.2101   50.1309 H   0  0  0  0  0  0  0  0  0  0  0  0
   65.2222   32.9586   48.1715 H   0  0  0  0  0  0  0  0  0  0  0  0
   63.6718   32.0924   46.4205 H   0  0  0  0  0  0  0  0  0  0  0  0
   61.2205   32.4916   46.6045 H   0  0  0  0  0  0  0  0  0  0  0  0
  1  2  1  0
  2  3  1  0
  3  4  1  0
  4  5  1  0
  5  6  1  0
  6  7  2  0
  7  8  1  0
  8  9  2  0
  9 10  1  0
 10 11  2  0
  5 12  1  0
 12 13  2  0
 13 14  1  0
 14 15  2  0
 15 16  1  0
 16 17  2  0
 11  6  1  0
 17 12  1  0
  1 18  1  0
  1 19  1  0
  1 20  1  0
  2 21  1  0
  2 22  1  0
  3 23  1  0
  3 24  1  0
  4 25  1  0
  4 26  1  0
  5 27  1  0
  7 28  1  0
  8 29  1  0
  9 30  1  0
 10 31  1  0
 11 32  1  0
 13 33  1  0
 14 34  1  0
 15 35  1  0
 16 36  1  0
 17 37  1  0
M  CHG  1   4   1
M  END
>  <UniqueID>  (35) 
32

>  <SMILES>  (35) 
CCC[NH2+]C(c1ccccc1)c1ccccc1

>  <Energy>  (35) 
41.23369797461593

>  <Genealogy>  (35) 
CCC[NH2+]C(c1ccccc1)c1ccccc1 (protonated)
CCC[NH2+]C(c1ccccc1)c1ccccc1 (3D coordinates assigned)
CCC[NH2+]C(c1ccccc1)c1ccccc1 (optimized conformer: 41.23369797461593 kcal/mol)

>  <smiles>  (35) 
CCCNC(c1ccccc1)c1ccccc1

>  <score_type>  (35) 
oracle

>  <origin>  (35) 
adg

>  <m_score__min__energy>  (35) 
-4.7800000000000002

>  <m_primary>  (35) 
energy

$$$$
35:0
     RDKit          3D

 36 39  0  0  0  0  0  0  0  0999 V2000
   63.7811   32.5097   49.3791 H   0  0  0  0  0  0  0  0  0  0  0  0
   62.9690   32.5750   48.6400 C   0  0  0  0  0  0  0  0  0  0  0  0
   62.8160   33.7410   47.8720 C   0  0  0  0  0  0  0  0  0  0  0  0
   63.5236   34.5745   47.9930 H   0  0  0  0  0  0  0  0  0  0  0  0
   61.7640   33.8450   46.9520 C   0  0  0  0  0  0  0  0  0  0  0  0
   61.6134   34.7690   46.3744 H   0  0  0  0  0  0  0  0  0  0  0  0
   60.9110   32.7530   46.7830 C   0  0  0  0  0  0  0  0  0  0  0  0
   61.0960   31.5740   47.4840 C   0  0  0  0  0  0  0  0  0  0  0  0
   62.0920   31.4930   48.4700 C   0  0  0  0  0  0  0  0  0  0  0  0
   62.1834   30.5955   49.0994 H   0  0  0  0  0  0  0  0  0  0  0  0
   60.0090   30.6570   47.1170 C   0  0  0  0  0  0  0  0  0  0  0  0
   59.1230   31.3560   46.2930 C   0  0  0  0  0  0  0  0  0  0  0  0
   57.9640   30.7160   45.7910 C   0  0  0  0  0  0  0  0  0  0  0  0
   57.0990   31.2730   44.9880 N   0  0  0  0  0  0  0  0  0  0  0  0
   56.6560   30.8440   43.6970 C   0  0  0  0  0  0  0  0  0  0  0  0
   57.0140   31.4730   42.6660 O   0  0  0  0  0  0  0  0  0  0  0  0
   55.6510   29.7410   43.5870 C   0  0  0  0  0  0  0  0  0  0  0  0
   55.9864   29.0177   42.8291 H   0  0  0  0  0  0  0  0  0  0  0  0
   54.6800   30.1672   43.2946 H   0  0  0  0  0  0  0  0  0  0  0  0
   55.5070   29.0630   44.8700 N   0  0  0  0  0  0  0  0  0  0  0  0
   55.6840   29.7660   45.6240 H   0  0  0  0  0  0  0  0  0  0  0  0
   56.2650   28.3460   44.9510 H   0  0  0  0  0  0  0  0  0  0  0  0
   57.7560   29.4150   46.1280 N   0  0  0  0  0  0  0  0  0  0  0  0
   58.6170   28.6950   46.8970 C   0  0  0  0  0  0  0  0  0  0  0  0
   58.3360   27.3490   47.1610 C   0  0  0  0  0  0  0  0  0  0  0  0
   57.3912   26.9075   46.8112 H   0  0  0  0  0  0  0  0  0  0  0  0
   59.2500   26.5660   47.8660 C   0  0  0  0  0  0  0  0  0  0  0  0
   59.0156   25.5153   48.0918 H   0  0  0  0  0  0  0  0  0  0  0  0
   60.4630   27.1170   48.2850 C   0  0  0  0  0  0  0  0  0  0  0  0
   61.1945   26.4901   48.8159 H   0  0  0  0  0  0  0  0  0  0  0  0
   60.7520   28.4610   48.0330 C   0  0  0  0  0  0  0  0  0  0  0  0
   61.7209   28.8789   48.3436 H   0  0  0  0  0  0  0  0  0  0  0  0
   59.8110   29.2840   47.3840 C   0  0  0  0  0  0  0  0  0  0  0  0
   59.6490   32.7360   45.9930 C   0  0  0  0  0  0  0  0  0  0  0  0
   59.8461   32.8658   44.9186 H   0  0  0  0  0  0  0  0  0  0  0  0
   58.9504   33.5466   46.2477 H   0  0  0  0  0  0  0  0  0  0  0  0
  1  2  1  0
  2  3  2  0
  3  4  1  0
  3  5  1  0
  5  6  1  0
  5  7  2  0
  7  8  1  0
  8  9  2  0
  9 10  1  0
  8 11  1  0
 11 12  2  0
 12 13  1  0
 13 14  2  0
 14 15  1  0
 15 16  2  0
 15 17  1  0
 17 18  1  0
 17 19  1  0
 17 20  1  0
 20 21  1  0
 20 22  1  0
 13 23  1  0
 23 24  1  0
 24 25  2  0
 25 26  1  0
 25 27  1  0
 27 28  1  0
 27 29  2  0
 29 30  1  0
 29 31  1  0
 31 32  1  0
 31 33  2  0
 12 34  1  0
 34 35  1  0
 34 36  1  0
  9  2  1  0
 33 11  1  0
 34  7  1  0
 33 24  1  0
M  CHG  1  23  -1
M  END
>  <UniqueID>  (36) 
33

>  <SMILES>  (36) 
NCC(=O)/N=c1/[n-]c2ccccc2c2c1Cc1ccccc1-2

>  <Energy>  (36) 
83.51364964882146

>  <Genealogy>  (36) 
NCC(=O)N=c1[n-]c2ccccc2c2c1Cc1ccccc1-2 (protonated)
NCC(=O)/N=c1/[n-]c2ccccc2c2c1Cc1ccccc1-2 (cis-trans isomerization)
NCC(=O)/N=c1/[n-]c2ccccc2c2c1Cc1ccccc1-2 (3D coordinates assigned)
NCC(=O)/N=c1/[n-]c2ccccc2c2c1Cc1ccccc1-2 (nonaromatic ring conformer: 83.51364964882146 kcal/mol)

>  <smiles>  (36) 
NCC(=O)N=c1[nH]c2ccccc2c2c1Cc1ccccc1-2

>  <score_type>  (36) 
oracle

>  <origin>  (36) 
adg

>  <m_score__min__energy>  (36) 
-8.8100000000000005

>  <m_primary>  (36) 
energy

$$$$
36:0
     RDKit          3D

 47 50  0  0  0  0  0  0  0  0999 V2000
   58.1840   35.0090   44.6460 O   0  0  0  0  0  0  0  0  0  0  0  0
   58.7610   33.9190   44.8930 C   0  0  0  0  0  0  0  0  0  0  0  0
   59.6150   33.7800   46.1200 C   0  0  0  0  0  0  0  0  0  0  0  0
   59.0850   32.6970   47.0680 C   0  0  0  0  0  0  0  0  0  0  0  0
   59.0900   31.3530   46.4650 N   0  0  0  0  0  0  0  0  0  0  0  0
   60.1620   30.4070   46.6770 C   0  0  0  0  0  0  0  0  0  0  0  0
   60.1650   29.3360   46.0100 O   0  0  0  0  0  0  0  0  0  0  0  0
   61.2890   30.6180   47.6700 C   0  0  0  0  0  0  0  0  0  0  0  0
   60.7930   30.8550   49.1130 C   0  0  0  0  0  0  0  0  0  0  0  0
   61.9870   30.9520   50.0750 C   0  0  0  0  0  0  0  0  0  0  0  0
   63.0540   31.8070   49.5280 N   0  0  0  0  0  0  0  0  0  0  0  0
   64.3550   31.8040   50.1490 C   0  0  0  0  0  0  0  0  0  0  0  0
   64.6790   30.8470   51.1240 C   0  0  0  0  0  0  0  0  0  0  0  0
   65.9490   30.8540   51.7040 C   0  0  0  0  0  0  0  0  0  0  0  0
   66.8690   31.7790   51.3220 N   0  0  0  0  0  0  0  0  0  0  0  0
   66.5870   32.7140   50.3760 C   0  0  0  0  0  0  0  0  0  0  0  0
   65.3290   32.7430   49.7720 C   0  0  0  0  0  0  0  0  0  0  0  0
   62.8020   32.5950   48.3130 C   0  0  0  0  0  0  0  0  0  0  0  0
   62.3090   31.6820   47.1820 C   0  0  0  0  0  0  0  0  0  0  0  0
   58.0230   30.9620   45.5840 C   0  0  0  0  0  0  0  0  0  0  0  0
   57.2670   29.8170   45.8800 C   0  0  0  0  0  0  0  0  0  0  0  0
   56.3090   29.3510   44.9750 C   0  0  0  0  0  0  0  0  0  0  0  0
   55.5590   28.2220   45.2780 O   0  0  0  0  0  0  0  0  0  0  0  0
   56.1140   30.0160   43.7610 C   0  0  0  0  0  0  0  0  0  0  0  0
   56.8690   31.1500   43.4510 C   0  0  0  0  0  0  0  0  0  0  0  0
   57.8120   31.6410   44.3630 C   0  0  0  0  0  0  0  0  0  0  0  0
   58.5740   32.8050   44.0150 N   0  0  0  0  0  0  0  0  0  0  0  0
   60.6374   33.5143   45.8131 H   0  0  0  0  0  0  0  0  0  0  0  0
   59.5981   34.7400   46.6568 H   0  0  0  0  0  0  0  0  0  0  0  0
   59.7163   32.6797   47.9686 H   0  0  0  0  0  0  0  0  0  0  0  0
   58.0405   32.9483   47.3042 H   0  0  0  0  0  0  0  0  0  0  0  0
   61.8419   29.6682   47.7168 H   0  0  0  0  0  0  0  0  0  0  0  0
   60.2190   31.7926   49.1506 H   0  0  0  0  0  0  0  0  0  0  0  0
   60.1551   30.0118   49.4164 H   0  0  0  0  0  0  0  0  0  0  0  0
   61.6430   31.3767   51.0296 H   0  0  0  0  0  0  0  0  0  0  0  0
   62.3957   29.9411   50.2201 H   0  0  0  0  0  0  0  0  0  0  0  0
   63.9360   30.0955   51.4293 H   0  0  0  0  0  0  0  0  0  0  0  0
   66.2057   30.1093   52.4718 H   0  0  0  0  0  0  0  0  0  0  0  0
   67.3520   33.4493   50.0860 H   0  0  0  0  0  0  0  0  0  0  0  0
   65.1016   33.4975   49.0046 H   0  0  0  0  0  0  0  0  0  0  0  0
   62.0365   33.3558   48.5256 H   0  0  0  0  0  0  0  0  0  0  0  0
   63.7378   33.0811   47.9999 H   0  0  0  0  0  0  0  0  0  0  0  0
   61.8276   32.3038   46.4128 H   0  0  0  0  0  0  0  0  0  0  0  0
   63.1830   31.1454   46.7843 H   0  0  0  0  0  0  0  0  0  0  0  0
   57.4292   29.2840   46.8285 H   0  0  0  0  0  0  0  0  0  0  0  0
   55.3636   29.6452   43.0473 H   0  0  0  0  0  0  0  0  0  0  0  0
   56.7223   31.6592   42.4870 H   0  0  0  0  0  0  0  0  0  0  0  0
  1  2  2  0
  2  3  1  0
  3  4  1  0
  4  5  1  0
  5  6  1  0
  6  7  2  0
  6  8  1  0
  8  9  1  0
  9 10  1  0
 10 11  1  0
 11 12  1  0
 12 13  2  0
 13 14  1  0
 14 15  2  0
 15 16  1  0
 16 17  2  0
 11 18  1  0
 18 19  1  0
  5 20  1  0
 20 21  2  0
 21 22  1  0
 22 23  1  0
 22 24  2  0
 24 25  1  0
 25 26  2  0
 26 27  1  0
 27  2  1  0
 19  8  1  0
 26 20  1  0
 17 12  1  0
  3 28  1  0
  3 29  1  0
  4 30  1  0
  4 31  1  0
  8 32  1  0
  9 33  1  0
  9 34  1  0
 10 35  1  0
 10 36  1  0
 13 37  1  0
 14 38  1  0
 16 39  1  0
 17 40  1  0
 18 41  1  0
 18 42  1  0
 19 43  1  0
 19 44  1  0
 21 45  1  0
 24 46  1  0
 25 47  1  0
M  CHG  2  23  -1  27  -1
M  END
>  <UniqueID>  (37) 
34

>  <SMILES>  (37) 
O=C1CCN(C(=O)C2CCN(c3ccncc3)CC2)c2cc([O-])ccc2[N-]1

>  <Energy>  (37) 
73.99450149319372

>  <Genealogy>  (37) 
O=C1CCN(C(=O)C2CCN(c3ccncc3)CC2)c2cc([O-])ccc2[N-]1 (protonated)
O=C1CCN(C(=O)C2CCN(c3ccncc3)CC2)c2cc([O-])ccc2[N-]1 (3D coordinates assigned)
O=C1CCN(C(=O)C2CCN(c3ccncc3)CC2)c2cc([O-])ccc2[N-]1 (nonaromatic ring conformer: 73.99450149319372 kcal/mol)

>  <smiles>  (37) 
O=C1CCN(C(=O)C2CCN(c3ccncc3)CC2)c2cc(O)ccc2N1

>  <score_type>  (37) 
oracle

>  <origin>  (37) 
adg

>  <m_score__min__energy>  (37) 
-9.9800000000000004

>  <m_primary>  (37) 
energy

$$$$
37:0
     RDKit          3D

 50 52  0  0  0  0  0  0  0  0999 V2000
   56.8956   32.8574   43.0883 H   0  0  0  0  0  0  0  0  0  0  0  0
   57.7210   32.4280   43.6750 C   0  0  0  0  0  0  0  0  0  0  0  0
   58.6850   33.2260   44.0410 N   0  0  0  0  0  0  0  0  0  0  0  0
   58.6510   34.2390   45.0590 C   0  0  0  0  0  0  0  0  0  0  0  0
   59.1500   35.3800   44.8590 O   0  0  0  0  0  0  0  0  0  0  0  0
   58.1360   33.8910   46.4180 C   0  0  0  0  0  0  0  0  0  0  0  0
   57.1233   33.4711   46.3278 H   0  0  0  0  0  0  0  0  0  0  0  0
   58.1081   34.7991   47.0382 H   0  0  0  0  0  0  0  0  0  0  0  0
   59.0150   32.9060   47.0460 N   0  0  0  0  0  0  0  0  0  0  0  0
   58.6330   31.7000   47.5290 C   0  0  0  0  0  0  0  0  0  0  0  0
   57.5963   31.3332   47.5574 H   0  0  0  0  0  0  0  0  0  0  0  0
   59.7400   30.9920   47.9840 C   0  0  0  0  0  0  0  0  0  0  0  0
   59.7220   29.6560   48.6600 C   0  0  0  0  0  0  0  0  0  0  0  0
   59.2036   29.7429   49.6263 H   0  0  0  0  0  0  0  0  0  0  0  0
   60.7560   29.3178   48.8225 H   0  0  0  0  0  0  0  0  0  0  0  0
   59.0080   28.6630   47.8020 C   0  0  0  0  0  0  0  0  0  0  0  0
   57.8080   28.8730   47.4710 O   0  0  0  0  0  0  0  0  0  0  0  0
   59.6610   27.4870   47.4210 O   0  0  0  0  0  0  0  0  0  0  0  0
   60.4930   26.7500   48.3080 C   0  0  0  0  0  0  0  0  0  0  0  0
   60.2233   26.9889   49.3473 H   0  0  0  0  0  0  0  0  0  0  0  0
   60.3541   25.6732   48.1314 H   0  0  0  0  0  0  0  0  0  0  0  0
   61.5452   27.0178   48.1314 H   0  0  0  0  0  0  0  0  0  0  0  0
   60.8290   31.8150   47.7690 C   0  0  0  0  0  0  0  0  0  0  0  0
   62.1850   31.6320   48.0440 C   0  0  0  0  0  0  0  0  0  0  0  0
   62.5474   30.7095   48.5211 H   0  0  0  0  0  0  0  0  0  0  0  0
   63.0740   32.6640   47.6920 C   0  0  0  0  0  0  0  0  0  0  0  0
   64.4010   32.5190   47.9250 F   0  0  0  0  0  0  0  0  0  0  0  0
   62.5930   33.8450   47.0860 C   0  0  0  0  0  0  0  0  0  0  0  0
   63.2970   34.6457   46.8153 H   0  0  0  0  0  0  0  0  0  0  0  0
   61.2200   34.0050   46.8260 C   0  0  0  0  0  0  0  0  0  0  0  0
   60.8363   34.9215   46.3540 H   0  0  0  0  0  0  0  0  0  0  0  0
   60.3570   32.9650   47.1850 C   0  0  0  0  0  0  0  0  0  0  0  0
   57.6610   30.9870   43.9940 C   0  0  0  0  0  0  0  0  0  0  0  0
   56.4340   30.3410   44.2100 C   0  0  0  0  0  0  0  0  0  0  0  0
   55.4935   30.8992   44.0922 H   0  0  0  0  0  0  0  0  0  0  0  0
   56.4010   28.9920   44.5740 C   0  0  0  0  0  0  0  0  0  0  0  0
   55.4340   28.4906   44.7274 H   0  0  0  0  0  0  0  0  0  0  0  0
   57.5950   28.2730   44.7450 C   0  0  0  0  0  0  0  0  0  0  0  0
   57.5610   26.8180   45.1600 C   0  0  0  0  0  0  0  0  0  0  0  0
   56.9945   26.2393   44.4156 H   0  0  0  0  0  0  0  0  0  0  0  0
   56.9090   26.6960   46.4640 N   0  0  0  0  0  0  0  0  0  0  0  0
   56.3190   27.5450   46.6200 H   0  0  0  0  0  0  0  0  0  0  0  0
   57.6520   26.7220   47.2020 H   0  0  0  0  0  0  0  0  0  0  0  0
   58.9260   26.2940   45.2360 N   0  0  0  0  0  0  0  0  0  0  0  0
   59.5890   27.1010   45.2580 H   0  0  0  0  0  0  0  0  0  0  0  0
   59.0340   25.8070   46.1560 H   0  0  0  0  0  0  0  0  0  0  0  0
   58.8230   28.9310   44.5610 C   0  0  0  0  0  0  0  0  0  0  0  0
   59.7650   28.3812   44.7037 H   0  0  0  0  0  0  0  0  0  0  0  0
   58.8540   30.2790   44.1980 C   0  0  0  0  0  0  0  0  0  0  0  0
   59.8205   30.7887   44.0713 H   0  0  0  0  0  0  0  0  0  0  0  0
  1  2  1  0
  2  3  2  0
  3  4  1  0
  4  5  2  0
  4  6  1  0
  6  7  1  0
  6  8  1  0
  6  9  1  0
  9 10  1  0
 10 11  1  0
 10 12  2  0
 12 13  1  0
 13 14  1  0
 13 15  1  0
 13 16  1  0
 16 17  2  0
 16 18  1  0
 18 19  1  0
 19 20  1  0
 19 21  1  0
 19 22  1  0
 12 23  1  0
 23 24  2  0
 24 25  1  0
 24 26  1  0
 26 27  1  0
 26 28  2  0
 28 29  1  0
 28 30  1  0
 30 31  1  0
 30 32  2  0
  2 33  1  0
 33 34  2  0
 34 35  1  0
 34 36  1  0
 36 37  1  0
 36 38  2  0
 38 39  1  0
 39 40  1  0
 39 41  1  0
 41 42  1  0
 41 43  1  0
 39 44  1  0
 44 45  1  0
 44 46  1  0
 38 47  1  0
 47 48  1  0
 47 49  2  0
 49 50  1  0
 32  9  1  0
 49 33  1  0
 32 23  1  0
M  END
>  <UniqueID>  (38) 
35

>  <SMILES>  (38) 
COC(=O)Cc1cn(CC(=O)/N=C\c2ccc(C(N)N)cc2)c2ccc(F)cc12

>  <Energy>  (38) 
86.69487567512779

>  <Genealogy>  (38) 
COC(=O)Cc1cn(CC(=O)/N=C\c2ccc(C(N)N)cc2)c2ccc(F)cc12 (cis-trans isomerization)
COC(=O)Cc1cn(CC(=O)/N=C\c2ccc(C(N)N)cc2)c2ccc(F)cc12 (3D coordinates assigned)
COC(=O)Cc1cn(CC(=O)/N=C\c2ccc(C(N)N)cc2)c2ccc(F)cc12 (optimized conformer: 86.69487567512779 kcal/mol)

>  <smiles>  (38) 
COC(=O)Cc1cn(CC(=O)N=Cc2ccc(C(N)N)cc2)c2ccc(F)cc12

>  <score_type>  (38) 
oracle

>  <origin>  (38) 
adg

>  <m_score__min__energy>  (38) 
-8.7200000000000006

>  <m_primary>  (38) 
energy

$$$$
38:0
     RDKit          3D

 49 51  0  0  1  0  0  0  0  0999 V2000
   60.0330   28.1000   46.6990 C   0  0  0  0  0  0  0  0  0  0  0  0
   59.2200   26.9210   46.3690 C   0  0  0  0  0  0  0  0  0  0  0  0
   59.7820   25.6770   46.0760 C   0  0  0  0  0  0  0  0  0  0  0  0
   59.0000   24.5800   45.7680 C   0  0  0  0  0  0  0  0  0  0  0  0
   59.5510   23.2870   45.4630 C   0  0  0  0  0  0  0  0  0  0  0  0
   59.9940   22.2360   45.2370 N   0  0  0  0  0  0  0  0  0  0  0  0
   57.6250   24.6890   45.7410 C   0  0  0  0  0  0  0  0  0  0  0  0
   57.0450   25.9140   46.0270 C   0  0  0  0  0  0  0  0  0  0  0  0
   55.5470   26.0430   46.0000 C   0  0  0  0  0  0  0  0  0  0  0  0
   57.8450   27.0190   46.3380 C   0  0  0  0  0  0  0  0  0  0  0  0
   57.1590   28.1960   46.6080 O   0  0  0  0  0  0  0  0  0  0  0  0
   56.8750   29.0840   45.5790 C   0  0  0  0  0  0  0  0  0  0  0  0
   57.7680   30.1320   45.4100 C   0  0  0  0  0  0  0  0  0  0  0  0
   57.5190   31.0340   44.4000 C   0  0  0  0  0  0  0  0  0  0  0  0
   58.2930   32.0050   44.1980 N   0  0  0  0  0  0  0  0  0  0  0  0
   57.9500   33.3950   44.1450 C   0  0  0  0  0  0  0  0  0  0  0  0
   58.0740   34.1730   45.4030 C   0  0  0  0  0  0  0  0  0  0  0  0
   58.4010   33.3140   46.6110 C   0  0  0  0  0  0  0  0  0  0  0  0
   59.8540   33.0970   46.8010 C   0  0  0  0  0  0  0  0  0  0  0  0
   60.2320   31.8180   47.2240 C   0  0  0  0  0  0  0  0  0  0  0  0
   61.5590   31.5120   47.4300 C   0  0  0  0  0  0  0  0  0  0  0  0
   62.5150   32.4860   47.2140 C   0  0  0  0  0  0  0  0  0  0  0  0
   62.1330   33.7460   46.7970 C   0  0  0  0  0  0  0  0  0  0  0  0
   60.8070   34.0700   46.5850 C   0  0  0  0  0  0  0  0  0  0  0  0
   56.4480   30.8560   43.6460 N   0  0  0  0  0  0  0  0  0  0  0  0
   55.5600   29.8610   43.7730 C   0  0  0  0  0  0  0  0  0  0  0  0
   55.8050   28.9660   44.7740 N   0  0  0  0  0  0  0  0  0  0  0  0
   60.1036   28.2024   47.7919 H   0  0  0  0  0  0  0  0  0  0  0  0
   61.0413   27.9801   46.2760 H   0  0  0  0  0  0  0  0  0  0  0  0
   59.5625   28.9999   46.2760 H   0  0  0  0  0  0  0  0  0  0  0  0
   60.8764   25.5671   46.0907 H   0  0  0  0  0  0  0  0  0  0  0  0
   56.9997   23.8177   45.4964 H   0  0  0  0  0  0  0  0  0  0  0  0
   55.1632   26.0761   47.0303 H   0  0  0  0  0  0  0  0  0  0  0  0
   55.2681   26.9685   45.4750 H   0  0  0  0  0  0  0  0  0  0  0  0
   55.1140   25.1788   45.4750 H   0  0  0  0  0  0  0  0  0  0  0  0
   58.6473   30.2390   46.0623 H   0  0  0  0  0  0  0  0  0  0  0  0
   58.6031   33.8687   43.3973 H   0  0  0  0  0  0  0  0  0  0  0  0
   56.8766   33.4131   43.9052 H   0  0  0  0  0  0  0  0  0  0  0  0
   58.8749   34.9163   45.2762 H   0  0  0  0  0  0  0  0  0  0  0  0
   57.0978   34.6433   45.5925 H   0  0  0  0  0  0  0  0  0  0  0  0
   58.0016   33.8082   47.5090 H   0  0  0  0  0  0  0  0  0  0  0  0
   57.9441   32.3277   46.4421 H   0  0  0  0  0  0  0  0  0  0  0  0
   59.4627   31.0502   47.3935 H   0  0  0  0  0  0  0  0  0  0  0  0
   61.8538   30.5056   47.7621 H   0  0  0  0  0  0  0  0  0  0  0  0
   63.5792   32.2581   47.3740 H   0  0  0  0  0  0  0  0  0  0  0  0
   62.9049   34.5116   46.6293 H   0  0  0  0  0  0  0  0  0  0  0  0
   60.5187   35.0781   46.2525 H   0  0  0  0  0  0  0  0  0  0  0  0
   54.6864   29.7708   43.1107 H   0  0  0  0  0  0  0  0  0  0  0  0
   55.1420   28.1780   44.9080 H   0  0  0  0  0  0  0  0  0  0  0  0
  1  2  1  0
  2  3  2  0
  3  4  1  0
  4  5  1  0
  5  6  3  0
  4  7  2  0
  7  8  1  0
  8  9  1  0
  8 10  2  0
 10 11  1  0
 11 12  1  0
 12 13  2  0
 13 14  1  0
 14 15  2  0
 15 16  1  0
 16 17  1  0
 17 18  1  0
 18 19  1  0
 19 20  2  0
 20 21  1  0
 21 22  2  0
 22 23  1  0
 23 24  2  0
 14 25  1  0
 25 26  2  0
 26 27  1  0
 10  2  1  0
 27 12  1  0
 24 19  1  0
  1 28  1  0
  1 29  1  0
  1 30  1  0
  3 31  1  0
  7 32  1  0
  9 33  1  0
  9 34  1  0
  9 35  1  0
 13 36  1  0
 16 37  1  0
 16 38  1  0
 17 39  1  0
 17 40  1  0
 18 41  1  0
 18 42  1  0
 20 43  1  0
 21 44  1  0
 22 45  1  0
 23 46  1  0
 24 47  1  0
 26 48  1  0
 27 49  1  0
M  END
>  <smiles>  (39) 
Cc1cc(C#N)cc(C)c1Oc1cc(=NCCCc2ccccc2)nc[nH]1

>  <score_type>  (39) 
oracle

>  <origin>  (39) 
adg

>  <m_score__min__energy>  (39) 
-9.2699999999999996

>  <m_primary>  (39) 
energy

$$$$
39:0
     RDKit          3D

 48 51  0  0  0  0  0  0  0  0999 V2000
   57.3820   23.5250   47.3940 O   0  0  0  0  0  0  0  0  0  0  0  0
   57.5530   24.1450   46.3090 C   0  0  0  0  0  0  0  0  0  0  0  0
   57.7160   25.6160   46.3430 C   0  0  0  0  0  0  0  0  0  0  0  0
   56.8760   26.4480   45.5830 C   0  0  0  0  0  0  0  0  0  0  0  0
   57.0170   27.8370   45.6480 C   0  0  0  0  0  0  0  0  0  0  0  0
   58.0000   28.4180   46.4620 C   0  0  0  0  0  0  0  0  0  0  0  0
   58.0810   29.8470   46.5200 N   0  0  0  0  0  0  0  0  0  0  0  0
   57.7860   30.9380   45.2010 S   0  0  0  0  0  0  0  0  0  0  0  0
   56.3200   30.9440   44.8560 O   0  0  0  0  0  0  0  0  0  0  0  0
   58.5410   30.4510   43.9970 O   0  0  0  0  0  0  0  0  0  0  0  0
   58.3880   32.5490   45.6240 C   0  0  0  0  0  0  0  0  0  0  0  0
   58.4500   33.5120   44.6040 C   0  0  0  0  0  0  0  0  0  0  0  0
   58.9090   34.8040   44.8680 C   0  0  0  0  0  0  0  0  0  0  0  0
   59.3160   35.1550   46.1560 C   0  0  0  0  0  0  0  0  0  0  0  0
   59.2720   34.2070   47.1870 C   0  0  0  0  0  0  0  0  0  0  0  0
   59.6840   34.5390   48.4880 C   0  0  0  0  0  0  0  0  0  0  0  0
   59.6390   33.5780   49.4980 C   0  0  0  0  0  0  0  0  0  0  0  0
   59.1750   32.2930   49.2040 C   0  0  0  0  0  0  0  0  0  0  0  0
   58.7710   31.9860   47.9410 N   0  0  0  0  0  0  0  0  0  0  0  0
   58.8050   32.8950   46.9260 C   0  0  0  0  0  0  0  0  0  0  0  0
   58.8600   27.5840   47.1990 C   0  0  0  0  0  0  0  0  0  0  0  0
   58.7220   26.1960   47.1360 C   0  0  0  0  0  0  0  0  0  0  0  0
   57.5740   23.4090   45.0690 N   0  0  0  0  0  0  0  0  0  0  0  0
   57.0570   24.0040   43.8250 C   0  0  0  0  0  0  0  0  0  0  0  0
   56.1220   23.0180   43.1150 C   0  0  0  0  0  0  0  0  0  0  0  0
   56.7100   21.5960   42.9820 C   0  0  0  0  0  0  0  0  0  0  0  0
   58.0780   21.4310   43.6570 C   0  0  0  0  0  0  0  0  0  0  0  0
   58.0620   22.0210   45.0720 C   0  0  0  0  0  0  0  0  0  0  0  0
   56.1054   26.0047   44.9352 H   0  0  0  0  0  0  0  0  0  0  0  0
   56.3505   28.4806   45.0550 H   0  0  0  0  0  0  0  0  0  0  0  0
   58.1332   33.2454   43.5849 H   0  0  0  0  0  0  0  0  0  0  0  0
   58.9499   35.5475   44.0583 H   0  0  0  0  0  0  0  0  0  0  0  0
   59.6712   36.1755   46.3618 H   0  0  0  0  0  0  0  0  0  0  0  0
   60.0416   35.5553   48.7101 H   0  0  0  0  0  0  0  0  0  0  0  0
   59.9661   33.8296   50.5177 H   0  0  0  0  0  0  0  0  0  0  0  0
   59.1362   31.5288   49.9942 H   0  0  0  0  0  0  0  0  0  0  0  0
   59.6455   28.0276   47.8284 H   0  0  0  0  0  0  0  0  0  0  0  0
   59.4045   25.5522   47.7103 H   0  0  0  0  0  0  0  0  0  0  0  0
   56.5017   24.9227   44.0651 H   0  0  0  0  0  0  0  0  0  0  0  0
   57.9021   24.2386   43.1611 H   0  0  0  0  0  0  0  0  0  0  0  0
   55.1843   22.9547   43.6866 H   0  0  0  0  0  0  0  0  0  0  0  0
   55.9649   23.3992   42.0952 H   0  0  0  0  0  0  0  0  0  0  0  0
   56.0076   20.8849   43.4414 H   0  0  0  0  0  0  0  0  0  0  0  0
   56.8553   21.4063   41.9083 H   0  0  0  0  0  0  0  0  0  0  0  0
   58.3245   20.3606   43.7154 H   0  0  0  0  0  0  0  0  0  0  0  0
   58.8320   21.9657   43.0607 H   0  0  0  0  0  0  0  0  0  0  0  0
   57.4024   21.4110   45.7067 H   0  0  0  0  0  0  0  0  0  0  0  0
   59.0910   22.0165   45.4608 H   0  0  0  0  0  0  0  0  0  0  0  0
  1  2  2  0
  2  3  1  0
  3  4  2  0
  4  5  1  0
  5  6  2  0
  6  7  1  0
  7  8  1  0
  8  9  2  0
  8 10  2  0
  8 11  1  0
 11 12  2  0
 12 13  1  0
 13 14  2  0
 14 15  1  0
 15 16  2  0
 16 17  1  0
 17 18  2  0
 18 19  1  0
 19 20  2  0
  6 21  1  0
 21 22  2  0
  2 23  1  0
 23 24  1  0
 24 25  1  0
 25 26  1  0
 26 27  1  0
 27 28  1  0
 22  3  1  0
 28 23  1  0
 20 11  1  0
 20 15  1  0
  4 29  1  0
  5 30  1  0
 12 31  1  0
 13 32  1  0
 14 33  1  0
 16 34  1  0
 17 35  1  0
 18 36  1  0
 21 37  1  0
 22 38  1  0
 24 39  1  0
 24 40  1  0
 25 41  1  0
 25 42  1  0
 26 43  1  0
 26 44  1  0
 27 45  1  0
 27 46  1  0
 28 47  1  0
 28 48  1  0
M  CHG  1   7  -1
M  END
>  <UniqueID>  (40) 
36

>  <SMILES>  (40) 
O=C(c1ccc([N-]S(=O)(=O)c2cccc3cccnc23)cc1)N1CCCCC1

>  <Energy>  (40) 
65.64881541741123

>  <Genealogy>  (40) 
O=C(c1ccc([N-]S(=O)(=O)c2cccc3cccnc23)cc1)N1CCCCC1 (protonated)
O=C(c1ccc([N-]S(=O)(=O)c2cccc3cccnc23)cc1)N1CCCCC1 (3D coordinates assigned)
O=C(c1ccc([N-]S(=O)(=O)c2cccc3cccnc23)cc1)N1CCCCC1 (nonaromatic ring conformer: 65.64881541741123 kcal/mol)

>  <smiles>  (40) 
O=C(c1ccc(NS(=O)(=O)c2cccc3cccnc23)cc1)N1CCCCC1

>  <score_type>  (40) 
oracle

>  <origin>  (40) 
adg

>  <m_score__min__energy>  (40) 
-11.34

>  <m_primary>  (40) 
energy

$$$$
40:0
     RDKit          3D

 48 51  0  0  0  0  0  0  0  0999 V2000
   59.2887   25.7159   47.2299 H   0  0  0  0  0  0  0  0  0  0  0  0
   58.7780   26.6070   46.8360 C   0  0  0  0  0  0  0  0  0  0  0  0
   59.4280   27.7990   46.7880 N   0  0  0  0  0  0  0  0  0  0  0  0
   58.8170   28.9140   46.3040 C   0  0  0  0  0  0  0  0  0  0  0  0
   59.4670   30.1530   46.2480 C   0  0  0  0  0  0  0  0  0  0  0  0
   60.8780   30.3180   46.7250 C   0  0  0  0  0  0  0  0  0  0  0  0
   60.8954   30.3200   47.8249 H   0  0  0  0  0  0  0  0  0  0  0  0
   61.4915   29.4855   46.3501 H   0  0  0  0  0  0  0  0  0  0  0  0
   61.2829   31.2696   46.3501 H   0  0  0  0  0  0  0  0  0  0  0  0
   58.8010   31.2280   45.7470 N   0  0  0  0  0  0  0  0  0  0  0  0
   57.5160   31.1270   45.2970 C   0  0  0  0  0  0  0  0  0  0  0  0
   56.8920   32.1640   44.8200 N   0  0  0  0  0  0  0  0  0  0  0  0
   57.0130   33.5240   45.3420 C   0  0  0  0  0  0  0  0  0  0  0  0
   56.2218   34.1504   44.9044 H   0  0  0  0  0  0  0  0  0  0  0  0
   56.9132   33.4926   46.4370 H   0  0  0  0  0  0  0  0  0  0  0  0
   58.3790   34.1200   44.9890 C   0  0  0  0  0  0  0  0  0  0  0  0
   58.8255   33.5395   44.1682 H   0  0  0  0  0  0  0  0  0  0  0  0
   58.2406   35.1674   44.6828 H   0  0  0  0  0  0  0  0  0  0  0  0
   59.2970   34.0800   46.1790 C   0  0  0  0  0  0  0  0  0  0  0  0
   60.6720   33.8470   46.0050 C   0  0  0  0  0  0  0  0  0  0  0  0
   61.0820   33.7184   44.9924 H   0  0  0  0  0  0  0  0  0  0  0  0
   61.5210   33.7780   47.1140 C   0  0  0  0  0  0  0  0  0  0  0  0
   62.5976   33.6032   46.9715 H   0  0  0  0  0  0  0  0  0  0  0  0
   61.0030   33.9310   48.4040 C   0  0  0  0  0  0  0  0  0  0  0  0
   61.6725   33.8797   49.2753 H   0  0  0  0  0  0  0  0  0  0  0  0
   59.6350   34.1490   48.5860 C   0  0  0  0  0  0  0  0  0  0  0  0
   59.2279   34.2658   49.6012 H   0  0  0  0  0  0  0  0  0  0  0  0
   58.7820   34.2190   47.4790 C   0  0  0  0  0  0  0  0  0  0  0  0
   57.7045   34.3834   47.6269 H   0  0  0  0  0  0  0  0  0  0  0  0
   56.8760   29.9300   45.3480 N   0  0  0  0  0  0  0  0  0  0  0  0
   57.4970   28.8280   45.8400 C   0  0  0  0  0  0  0  0  0  0  0  0
   56.8490   27.6350   45.8860 N   0  0  0  0  0  0  0  0  0  0  0  0
   57.4480   26.5150   46.3800 C   0  0  0  0  0  0  0  0  0  0  0  0
   56.6940   25.2350   46.4040 C   0  0  0  0  0  0  0  0  0  0  0  0
   55.4980   25.0750   45.6790 C   0  0  0  0  0  0  0  0  0  0  0  0
   55.1032   25.9123   45.0848 H   0  0  0  0  0  0  0  0  0  0  0  0
   54.8090   23.8600   45.7090 C   0  0  0  0  0  0  0  0  0  0  0  0
   53.8737   23.7464   45.1412 H   0  0  0  0  0  0  0  0  0  0  0  0
   55.3030   22.7890   46.4570 C   0  0  0  0  0  0  0  0  0  0  0  0
   54.7531   21.8366   46.4808 H   0  0  0  0  0  0  0  0  0  0  0  0
   56.5020   22.9250   47.1800 C   0  0  0  0  0  0  0  0  0  0  0  0
   57.0420   21.8790   47.9420 O   0  0  0  0  0  0  0  0  0  0  0  0
   56.5300   21.4530   49.2010 C   0  0  0  0  0  0  0  0  0  0  0  0
   57.1029   21.9297   50.0101 H   0  0  0  0  0  0  0  0  0  0  0  0
   55.4714   21.7406   49.2826 H   0  0  0  0  0  0  0  0  0  0  0  0
   56.6203   20.3598   49.2826 H   0  0  0  0  0  0  0  0  0  0  0  0
   57.1880   24.1450   47.1440 C   0  0  0  0  0  0  0  0  0  0  0  0
   58.1288   24.2532   47.7036 H   0  0  0  0  0  0  0  0  0  0  0  0
  1  2  1  0
  2  3  2  0
  3  4  1  0
  4  5  1  0
  5  6  1  0
  6  7  1  0
  6  8  1  0
  6  9  1  0
  5 10  2  0
 10 11  1  0
 11 12  2  0
 12 13  1  0
 13 14  1  0
 13 15  1  0
 13 16  1  0
 16 17  1  0
 16 18  1  0
 16 19  1  0
 19 20  2  0
 20 21  1  0
 20 22  1  0
 22 23  1  0
 22 24  2  0
 24 25  1  0
 24 26  1  0
 26 27  1  0
 26 28  2  0
 28 29  1  0
 11 30  1  0
 30 31  1  0
 31 32  1  0
 32 33  2  0
 33 34  1  0
 34 35  2  0
 35 36  1  0
 35 37  1  0
 37 38  1  0
 37 39  2  0
 39 40  1  0
 39 41  1  0
 41 42  1  0
 42 43  1  0
 43 44  1  0
 43 45  1  0
 43 46  1  0
 41 47  2  0
 47 48  1  0
 33  2  1  0
 47 34  1  0
 31  4  2  0
 28 19  1  0
M  CHG  1  30  -1
M  END
>  <UniqueID>  (41) 
37

>  <SMILES>  (41) 
COc1cccc(-c2cnc3c(C)n/c(=N\CCc4ccccc4)[n-]c3n2)c1

>  <Energy>  (41) 
57.00660740008638

>  <Genealogy>  (41) 
COc1cccc(-c2cnc3c(C)nc(=NCCc4ccccc4)[n-]c3n2)c1 (protonated)
COc1cccc(-c2cnc3c(C)n/c(=N\CCc4ccccc4)[n-]c3n2)c1 (cis-trans isomerization)
COc1cccc(-c2cnc3c(C)n/c(=N\CCc4ccccc4)[n-]c3n2)c1 (3D coordinates assigned)
COc1cccc(-c2cnc3c(C)n/c(=N\CCc4ccccc4)[n-]c3n2)c1 (optimized conformer: 57.00660740008638 kcal/mol)

>  <smiles>  (41) 
COc1cccc(-c2cnc3c(C)nc(=NCCc4ccccc4)[nH]c3n2)c1

>  <score_type>  (41) 
oracle

>  <origin>  (41) 
adg

>  <m_score__min__energy>  (41) 
-10.69

>  <m_primary>  (41) 
energy

$$$$
41:0
     RDKit          3D

 37 39  0  0  0  0  0  0  0  0999 V2000
   55.9680   30.8300   44.8520 O   0  0  0  0  0  0  0  0  0  0  0  0
   57.2160   30.6490   44.8310 C   0  0  0  0  0  0  0  0  0  0  0  0
   58.0950   31.7110   45.2310 N   0  0  0  0  0  0  0  0  0  0  0  0
   57.6300   33.0980   45.3690 C   0  0  0  0  0  0  0  0  0  0  0  0
   58.6380   34.0840   44.7920 C   0  0  0  0  0  0  0  0  0  0  0  0
   59.9990   33.9530   45.4750 C   0  0  0  0  0  0  0  0  0  0  0  0
   59.9440   33.7970   46.9470 N   0  0  0  0  0  0  0  0  0  0  0  0
   61.2010   33.8100   47.6950 C   0  0  0  0  0  0  0  0  0  0  0  0
   62.4260   33.4380   47.0860 C   0  0  0  0  0  0  0  0  0  0  0  0
   63.6250   33.4540   47.8060 C   0  0  0  0  0  0  0  0  0  0  0  0
   63.6350   33.8420   49.1440 C   0  0  0  0  0  0  0  0  0  0  0  0
   62.4480   34.2190   49.7660 C   0  0  0  0  0  0  0  0  0  0  0  0
   61.2450   34.2080   49.0550 C   0  0  0  0  0  0  0  0  0  0  0  0
   58.6900   33.4690   47.6720 C   0  0  0  0  0  0  0  0  0  0  0  0
   57.4020   33.4710   46.8300 C   0  0  0  0  0  0  0  0  0  0  0  0
   57.7490   29.3390   44.4010 C   0  0  0  0  0  0  0  0  0  0  0  0
   58.8270   28.6730   45.0360 C   0  0  0  0  0  0  0  0  0  0  0  0
   59.1970   27.4840   44.4960 N   0  0  0  0  0  0  0  0  0  0  0  0
   58.1690   27.2640   43.2120 S   0  0  0  0  0  0  0  0  0  0  0  0
   57.2470   28.6470   43.3020 C   0  0  0  0  0  0  0  0  0  0  0  0
   59.0810   31.4770   45.4850 H   0  0  0  0  0  0  0  0  0  0  0  0
   56.6823   33.1577   44.8138 H   0  0  0  0  0  0  0  0  0  0  0  0
   58.7567   33.8864   43.7164 H   0  0  0  0  0  0  0  0  0  0  0  0
   58.2617   35.1036   44.9621 H   0  0  0  0  0  0  0  0  0  0  0  0
   60.5083   33.0724   45.0566 H   0  0  0  0  0  0  0  0  0  0  0  0
   60.5329   34.8955   45.2837 H   0  0  0  0  0  0  0  0  0  0  0  0
   62.4336   33.1317   46.0295 H   0  0  0  0  0  0  0  0  0  0  0  0
   64.5636   33.1591   47.3140 H   0  0  0  0  0  0  0  0  0  0  0  0
   64.5793   33.8504   49.7081 H   0  0  0  0  0  0  0  0  0  0  0  0
   62.4571   34.5270   50.8220 H   0  0  0  0  0  0  0  0  0  0  0  0
   60.3163   34.5134   49.5592 H   0  0  0  0  0  0  0  0  0  0  0  0
   58.8058   32.4653   48.1070 H   0  0  0  0  0  0  0  0  0  0  0  0
   58.5593   34.2700   48.4145 H   0  0  0  0  0  0  0  0  0  0  0  0
   56.6984   32.7479   47.2683 H   0  0  0  0  0  0  0  0  0  0  0  0
   57.0077   34.4978   46.8441 H   0  0  0  0  0  0  0  0  0  0  0  0
   59.3345   29.0954   45.9158 H   0  0  0  0  0  0  0  0  0  0  0  0
   56.4225   28.9480   42.6390 H   0  0  0  0  0  0  0  0  0  0  0  0
  1  2  2  0
  2  3  1  0
  3  4  1  0
  4  5  1  0
  5  6  1  0
  6  7  1  0
  7  8  1  0
  8  9  2  0
  9 10  1  0
 10 11  2  0
 11 12  1  0
 12 13  2  0
  7 14  1  0
 14 15  1  0
  2 16  1  0
 16 17  1  0
 17 18  2  0
 18 19  1  0
 19 20  1  0
 15  4  1  0
 20 16  2  0
 13  8  1  0
  3 21  1  0
  4 22  1  0
  5 23  1  0
  5 24  1  0
  6 25  1  0
  6 26  1  0
  9 27  1  0
 10 28  1  0
 11 29  1  0
 12 30  1  0
 13 31  1  0
 14 32  1  0
 14 33  1  0
 15 34  1  0
 15 35  1  0
 17 36  1  0
 20 37  1  0
M  END
>  <UniqueID>  (42) 
38

>  <SMILES>  (42) 
O=C(NC1CCN(c2ccccc2)CC1)c1cnsc1

>  <Energy>  (42) 
75.6945596820963

>  <Genealogy>  (42) 
O=C(NC1CCN(c2ccccc2)CC1)c1cnsc1 (3D coordinates assigned)
O=C(NC1CCN(c2ccccc2)CC1)c1cnsc1 (nonaromatic ring conformer: 75.6945596820963 kcal/mol)

>  <smiles>  (42) 
O=C(NC1CCN(c2ccccc2)CC1)c1cnsc1

>  <score_type>  (42) 
oracle

>  <origin>  (42) 
adg

>  <m_score__min__energy>  (42) 
-7.5599999999999996

>  <m_primary>  (42) 
energy

$$$$
42:0
     RDKit          3D

 42 44  0  0  0  0  0  0  0  0999 V2000
   59.4880   24.8850   46.0190 C   0  0  0  0  0  0  0  0  0  0  0  0
   58.1540   25.6290   46.1810 C   0  0  2  0  0  0  0  0  0  0  0  0
   57.2220   25.4220   44.9780 C   0  0  0  0  0  0  0  0  0  0  0  0
   57.7550   26.0630   43.6860 C   0  0  0  0  0  0  0  0  0  0  0  0
   58.5910   27.3380   43.9090 C   0  0  0  0  0  0  0  0  0  0  0  0
   58.3520   27.9430   45.2260 N   0  0  0  0  0  0  0  0  0  0  0  0
   58.4870   29.3650   45.3630 C   0  0  0  0  0  0  0  0  0  0  0  0
   59.6240   29.8780   46.0260 C   0  0  0  0  0  0  0  0  0  0  0  0
   59.7140   31.2540   46.2110 C   0  0  0  0  0  0  0  0  0  0  0  0
   58.7320   32.1030   45.7840 C   0  0  0  0  0  0  0  0  0  0  0  0
   57.5910   31.6420   45.1310 C   0  0  0  0  0  0  0  0  0  0  0  0
   57.4660   30.2520   44.8950 C   0  0  0  0  0  0  0  0  0  0  0  0
   56.3170   29.7650   44.1790 N   0  0  0  0  0  0  0  0  0  0  0  0
   56.2710   29.8200   42.9320 O   0  0  0  0  0  0  0  0  0  0  0  0
   55.1960   29.3550   44.8640 O   0  0  0  0  0  0  0  0  0  0  0  0
   59.0520   33.3670   46.1320 N   0  0  0  0  0  0  0  0  0  0  0  0
   58.2480   34.5740   45.9610 C   0  0  0  0  0  0  0  0  0  0  0  0
   60.2280   33.2400   46.7960 C   0  0  0  0  0  0  0  0  0  0  0  0
   60.8330   34.2070   47.3310 O   0  0  0  0  0  0  0  0  0  0  0  0
   60.6740   31.9600   46.8410 N   0  0  0  0  0  0  0  0  0  0  0  0
   61.8510   31.4460   47.5400 C   0  0  0  0  0  0  0  0  0  0  0  0
   58.3490   27.1350   46.4550 C   0  0  0  0  0  0  0  0  0  0  0  0
   59.9020   24.6541   47.0116 H   0  0  0  0  0  0  0  0  0  0  0  0
   59.3212   23.9496   45.4647 H   0  0  0  0  0  0  0  0  0  0  0  0
   60.1962   25.5184   45.4647 H   0  0  0  0  0  0  0  0  0  0  0  0
   57.6719   25.1856   47.0647 H   0  0  0  0  0  0  0  0  0  0  0  0
   57.1023   24.3416   44.8095 H   0  0  0  0  0  0  0  0  0  0  0  0
   56.2652   25.9097   45.2161 H   0  0  0  0  0  0  0  0  0  0  0  0
   58.3849   25.3240   43.1692 H   0  0  0  0  0  0  0  0  0  0  0  0
   56.8757   26.3619   43.0966 H   0  0  0  0  0  0  0  0  0  0  0  0
   59.6571   27.0798   43.8275 H   0  0  0  0  0  0  0  0  0  0  0  0
   58.2934   28.0712   43.1449 H   0  0  0  0  0  0  0  0  0  0  0  0
   60.4176   29.2070   46.3866 H   0  0  0  0  0  0  0  0  0  0  0  0
   56.8063   32.3413   44.8067 H   0  0  0  0  0  0  0  0  0  0  0  0
   57.9788   34.9781   46.9480 H   0  0  0  0  0  0  0  0  0  0  0  0
   58.8273   35.3244   45.4031 H   0  0  0  0  0  0  0  0  0  0  0  0
   57.3323   34.3286   45.4031 H   0  0  0  0  0  0  0  0  0  0  0  0
   61.6918   31.5155   48.6262 H   0  0  0  0  0  0  0  0  0  0  0  0
   62.0139   30.3948   47.2598 H   0  0  0  0  0  0  0  0  0  0  0  0
   62.7328   32.0410   47.2598 H   0  0  0  0  0  0  0  0  0  0  0  0
   59.3101   27.2766   46.9709 H   0  0  0  0  0  0  0  0  0  0  0  0
   57.5016   27.4718   47.0703 H   0  0  0  0  0  0  0  0  0  0  0  0
  1  2  1  0
  2  3  1  0
  3  4  1  0
  4  5  1  0
  5  6  1  0
  6  7  1  0
  7  8  2  0
  8  9  1  0
  9 10  2  0
 10 11  1  0
 11 12  2  0
 12 13  1  0
 13 14  2  0
 13 15  1  0
 10 16  1  0
 16 17  1  0
 16 18  1  0
 18 19  2  0
 18 20  1  0
 20 21  1  0
  6 22  1  0
 22  2  1  0
 12  7  1  0
 20  9  1  0
  1 23  1  0
  1 24  1  0
  1 25  1  0
  2 26  1  1
  3 27  1  0
  3 28  1  0
  4 29  1  0
  4 30  1  0
  5 31  1  0
  5 32  1  0
  8 33  1  0
 11 34  1  0
 17 35  1  0
 17 36  1  0
 17 37  1  0
 21 38  1  0
 21 39  1  0
 21 40  1  0
 22 41  1  0
 22 42  1  0
M  CHG  2  13   1  15  -1
M  END
>  <UniqueID>  (43) 
39

>  <SMILES>  (43) 
C[C@@H]1CCCN(c2cc3c(cc2[N+](=O)[O-])n(C)c(=O)n3C)C1

>  <Energy>  (43) 
93.18689005153902

>  <Genealogy>  (43) 
C[C@@H]1CCCN(c2cc3c(cc2[N+](=O)[O-])n(C)c(=O)n3C)C1 (chirality)
C[C@@H]1CCCN(c2cc3c(cc2[N+](=O)[O-])n(C)c(=O)n3C)C1 (3D coordinates assigned)
C[C@@H]1CCCN(c2cc3c(cc2[N+](=O)[O-])n(C)c(=O)n3C)C1 (nonaromatic ring conformer: 93.18689005153902 kcal/mol)

>  <smiles>  (43) 
CC1CCCN(c2cc3c(cc2[N+](=O)[O-])n(C)c(=O)n3C)C1

>  <score_type>  (43) 
oracle

>  <origin>  (43) 
adg

>  <m_score__min__energy>  (43) 
-7.2800000000000002

>  <m_primary>  (43) 
energy

$$$$
43:0
     RDKit          3D

 31 32  0  0  0  0  0  0  0  0999 V2000
   57.5800   31.2090   44.4940 C   0  0  0  0  0  0  0  0  0  0  0  0
   58.3390   32.4360   45.0220 C   0  0  1  0  0  0  0  0  0  0  0  0
   57.3730   33.6500   45.1490 C   0  0  0  0  0  0  0  0  0  0  0  0
   57.9470   34.9080   44.8240 O   0  0  0  0  0  0  0  0  0  0  0  0
   59.2720   35.0890   45.3000 C   0  0  0  0  0  0  0  0  0  0  0  0
   59.5040   34.6010   46.7420 C   0  0  0  0  0  0  0  0  0  0  0  0
   59.9500   33.1990   46.8180 N   0  0  0  0  0  0  0  0  0  0  0  0
   61.2760   32.9210   47.3140 C   0  0  0  0  0  0  0  0  0  0  0  0
   62.3930   33.5720   46.7640 C   0  0  0  0  0  0  0  0  0  0  0  0
   63.6700   33.2790   47.2430 C   0  0  0  0  0  0  0  0  0  0  0  0
   63.8300   32.3400   48.2600 C   0  0  0  0  0  0  0  0  0  0  0  0
   62.7040   31.7030   48.7840 C   0  0  0  0  0  0  0  0  0  0  0  0
   61.4630   31.9980   48.3060 N   0  0  0  0  0  0  0  0  0  0  0  0
   59.0880   32.0990   46.3460 C   0  0  0  0  0  0  0  0  0  0  0  0
   57.2114   30.6131   45.3419 H   0  0  0  0  0  0  0  0  0  0  0  0
   56.7288   31.5402   43.8810 H   0  0  0  0  0  0  0  0  0  0  0  0
   58.2564   30.5952   43.8810 H   0  0  0  0  0  0  0  0  0  0  0  0
   59.1174   32.7246   44.3003 H   0  0  0  0  0  0  0  0  0  0  0  0
   56.5199   33.4796   44.4758 H   0  0  0  0  0  0  0  0  0  0  0  0
   57.0866   33.7065   46.2095 H   0  0  0  0  0  0  0  0  0  0  0  0
   59.9540   34.5371   44.6365 H   0  0  0  0  0  0  0  0  0  0  0  0
   59.4585   36.1731   45.3024 H   0  0  0  0  0  0  0  0  0  0  0  0
   60.2716   35.2373   47.2067 H   0  0  0  0  0  0  0  0  0  0  0  0
   58.5394   34.6650   47.2668 H   0  0  0  0  0  0  0  0  0  0  0  0
   62.2611   34.3098   45.9589 H   0  0  0  0  0  0  0  0  0  0  0  0
   64.5482   33.7878   46.8190 H   0  0  0  0  0  0  0  0  0  0  0  0
   64.8326   32.1033   48.6456 H   0  0  0  0  0  0  0  0  0  0  0  0
   62.8192   30.9595   49.5865 H   0  0  0  0  0  0  0  0  0  0  0  0
   60.6450   31.5110   48.7320 H   0  0  0  0  0  0  0  0  0  0  0  0
   59.7144   31.2106   46.1777 H   0  0  0  0  0  0  0  0  0  0  0  0
   58.3256   31.9241   47.1194 H   0  0  0  0  0  0  0  0  0  0  0  0
  1  2  1  0
  2  3  1  0
  3  4  1  0
  4  5  1  0
  5  6  1  0
  6  7  1  0
  7  8  1  0
  8  9  2  0
  9 10  1  0
 10 11  2  0
 11 12  1  0
 12 13  2  0
  7 14  1  0
 14  2  1  0
 13  8  1  0
  1 15  1  0
  1 16  1  0
  1 17  1  0
  2 18  1  6
  3 19  1  0
  3 20  1  0
  5 21  1  0
  5 22  1  0
  6 23  1  0
  6 24  1  0
  9 25  1  0
 10 26  1  0
 11 27  1  0
 12 28  1  0
 13 29  1  0
 14 30  1  0
 14 31  1  0
M  CHG  1  13   1
M  END
>  <UniqueID>  (44) 
40

>  <SMILES>  (44) 
C[C@H]1COCCN(c2cccc[nH+]2)C1

>  <Energy>  (44) 
47.75238845761417

>  <Genealogy>  (44) 
CC1COCCN(c2cccc[nH+]2)C1 (protonated)
C[C@H]1COCCN(c2cccc[nH+]2)C1 (chirality)
C[C@H]1COCCN(c2cccc[nH+]2)C1 (3D coordinates assigned)
C[C@H]1COCCN(c2cccc[nH+]2)C1 (nonaromatic ring conformer: 47.75238845761417 kcal/mol)

>  <smiles>  (44) 
CC1COCCN(c2ccccn2)C1

>  <score_type>  (44) 
oracle

>  <origin>  (44) 
adg

>  <m_score__min__energy>  (44) 
-2.2200000000000002

>  <m_primary>  (44) 
energy

$$$$
44:0
     RDKit          3D

 52 56  0  0  0  0  0  0  0  0999 V2000
   55.3400   29.0140   44.7290 O   0  0  0  0  0  0  0  0  0  0  0  0
   56.5100   29.2700   45.1230 C   0  0  0  0  0  0  0  0  0  0  0  0
   56.9090   30.5650   45.2270 N   0  0  0  0  0  0  0  0  0  0  0  0
   58.1610   30.8970   45.6470 C   0  0  0  0  0  0  0  0  0  0  0  0
   58.5630   32.3220   45.7510 C   0  0  0  0  0  0  0  0  0  0  0  0
   58.1610   33.2530   44.7750 C   0  0  0  0  0  0  0  0  0  0  0  0
   58.5410   34.5920   44.8770 C   0  0  0  0  0  0  0  0  0  0  0  0
   59.3220   35.0220   45.9500 C   0  0  0  0  0  0  0  0  0  0  0  0
   59.7320   34.1190   46.9360 C   0  0  0  0  0  0  0  0  0  0  0  0
   60.5150   34.6090   47.9970 O   0  0  0  0  0  0  0  0  0  0  0  0
   61.7210   34.0170   48.4830 C   0  0  0  0  0  0  0  0  0  0  0  0
   62.6750   33.6890   47.3120 C   0  0  0  0  0  0  0  0  0  0  0  0
   63.4380   32.3630   47.5090 C   0  0  0  0  0  0  0  0  0  0  0  0
   63.8210   32.1270   48.9190 N   0  0  0  0  0  0  0  0  0  0  0  0
   64.8630   33.0750   49.3840 C   0  0  0  0  0  0  0  0  0  0  0  0
   66.0290   32.3930   50.1090 C   0  0  0  0  0  0  0  0  0  0  0  0
   65.6810   33.1350   51.3880 C   0  0  0  0  0  0  0  0  0  0  0  0
   64.4930   33.7800   50.6940 C   0  0  0  0  0  0  0  0  0  0  0  0
   62.6410   32.0870   49.8310 C   0  0  0  0  0  0  0  0  0  0  0  0
   61.3700   32.7500   49.2610 C   0  0  0  0  0  0  0  0  0  0  0  0
   59.3540   32.7660   46.8290 C   0  0  0  0  0  0  0  0  0  0  0  0
   59.0390   29.9100   45.9730 N   0  0  0  0  0  0  0  0  0  0  0  0
   58.6960   28.6000   45.8880 C   0  0  0  0  0  0  0  0  0  0  0  0
   59.6220   27.6080   46.2310 C   0  0  0  0  0  0  0  0  0  0  0  0
   59.2670   26.2580   46.1440 C   0  0  0  0  0  0  0  0  0  0  0  0
   57.9860   25.8950   45.7140 C   0  0  0  0  0  0  0  0  0  0  0  0
   57.0530   26.8790   45.3700 C   0  0  0  0  0  0  0  0  0  0  0  0
   57.4020   28.2380   45.4540 C   0  0  0  0  0  0  0  0  0  0  0  0
   57.5435   32.9232   43.9265 H   0  0  0  0  0  0  0  0  0  0  0  0
   58.2233   35.3115   44.1080 H   0  0  0  0  0  0  0  0  0  0  0  0
   59.6175   36.0792   46.0210 H   0  0  0  0  0  0  0  0  0  0  0  0
   62.2369   34.7255   49.1478 H   0  0  0  0  0  0  0  0  0  0  0  0
   62.0835   33.6189   46.3872 H   0  0  0  0  0  0  0  0  0  0  0  0
   63.4227   34.4943   47.2615 H   0  0  0  0  0  0  0  0  0  0  0  0
   62.7955   31.5347   47.1758 H   0  0  0  0  0  0  0  0  0  0  0  0
   64.3646   32.4227   46.9191 H   0  0  0  0  0  0  0  0  0  0  0  0
   65.0303   33.6448   48.4581 H   0  0  0  0  0  0  0  0  0  0  0  0
   65.9310   31.3000   50.1848 H   0  0  0  0  0  0  0  0  0  0  0  0
   67.0468   32.4499   49.6957 H   0  0  0  0  0  0  0  0  0  0  0  0
   65.4081   32.4786   52.2274 H   0  0  0  0  0  0  0  0  0  0  0  0
   66.4351   33.7572   51.8923 H   0  0  0  0  0  0  0  0  0  0  0  0
   63.5176   33.4793   51.1041 H   0  0  0  0  0  0  0  0  0  0  0  0
   64.3643   34.8722   50.7176 H   0  0  0  0  0  0  0  0  0  0  0  0
   62.4109   31.0337   50.0493 H   0  0  0  0  0  0  0  0  0  0  0  0
   62.9185   32.6610   50.7274 H   0  0  0  0  0  0  0  0  0  0  0  0
   60.8648   32.0418   48.5878 H   0  0  0  0  0  0  0  0  0  0  0  0
   60.7089   33.0216   50.0972 H   0  0  0  0  0  0  0  0  0  0  0  0
   59.6802   32.0481   47.5959 H   0  0  0  0  0  0  0  0  0  0  0  0
   60.6299   27.8904   46.5693 H   0  0  0  0  0  0  0  0  0  0  0  0
   59.9963   25.4801   46.4142 H   0  0  0  0  0  0  0  0  0  0  0  0
   57.7115   24.8320   45.6462 H   0  0  0  0  0  0  0  0  0  0  0  0
   56.0465   26.5893   45.0339 H   0  0  0  0  0  0  0  0  0  0  0  0
  1  2  2  0
  2  3  1  0
  3  4  1  0
  4  5  1  0
  5  6  2  0
  6  7  1  0
  7  8  2  0
  8  9  1  0
  9 10  1  0
 10 11  1  0
 11 12  1  0
 12 13  1  0
 13 14  1  0
 14 15  1  0
 15 16  1  0
 16 17  1  0
 17 18  1  0
 14 19  1  0
 19 20  1  0
  9 21  2  0
  4 22  2  0
 22 23  1  0
 23 24  2  0
 24 25  1  0
 25 26  2  0
 26 27  1  0
 27 28  2  0
 28  2  1  0
 21  5  1  0
 28 23  1  0
 20 11  1  0
 18 15  1  0
  6 29  1  0
  7 30  1  0
  8 31  1  0
 11 32  1  0
 12 33  1  0
 12 34  1  0
 13 35  1  0
 13 36  1  0
 15 37  1  0
 16 38  1  0
 16 39  1  0
 17 40  1  0
 17 41  1  0
 18 42  1  0
 18 43  1  0
 19 44  1  0
 19 45  1  0
 20 46  1  0
 20 47  1  0
 21 48  1  0
 24 49  1  0
 25 50  1  0
 26 51  1  0
 27 52  1  0
M  CHG  1   3  -1
M  END
>  <UniqueID>  (45) 
41

>  <SMILES>  (45) 
O=c1[n-]c(-c2cccc(OC3CCN(C4CCC4)CC3)c2)nc2ccccc12

>  <Energy>  (45) 
131.88719393758322

>  <Genealogy>  (45) 
O=c1[n-]c(-c2cccc(OC3CCN(C4CCC4)CC3)c2)nc2ccccc12 (protonated)
O=c1[n-]c(-c2cccc(OC3CCN(C4CCC4)CC3)c2)nc2ccccc12 (3D coordinates assigned)
O=c1[n-]c(-c2cccc(OC3CCN(C4CCC4)CC3)c2)nc2ccccc12 (nonaromatic ring conformer: 131.88719393758322 kcal/mol)

>  <smiles>  (45) 
O=c1[nH]c(-c2cccc(OC3CCN(C4CCC4)CC3)c2)nc2ccccc12

>  <score_type>  (45) 
oracle

>  <origin>  (45) 
adg

>  <m_score__min__energy>  (45) 
-11

>  <m_primary>  (45) 
energy

$$$$
45:0
     RDKit          3D

 28 29  0  0  0  0  0  0  0  0999 V2000
   55.1510   26.5020   45.9990 N   0  0  0  0  0  0  0  0  0  0  0  0
   56.8530   26.7970   45.9840 S   0  0  0  0  0  0  0  0  0  0  0  0
   57.3970   26.6770   47.3800 O   0  0  0  0  0  0  0  0  0  0  0  0
   57.5300   25.7770   45.1140 O   0  0  0  0  0  0  0  0  0  0  0  0
   57.1640   28.4150   45.3620 C   0  0  0  0  0  0  0  0  0  0  0  0
   56.1530   29.1230   44.6990 C   0  0  0  0  0  0  0  0  0  0  0  0
   56.3980   30.4120   44.2170 C   0  0  0  0  0  0  0  0  0  0  0  0
   57.6520   31.0170   44.3960 C   0  0  0  0  0  0  0  0  0  0  0  0
   57.8670   32.3500   43.8920 N   0  0  0  0  0  0  0  0  0  0  0  0
   57.4200   33.5700   44.5660 C   0  0  0  0  0  0  0  0  0  0  0  0
   58.3010   33.8740   45.7380 C   0  0  0  0  0  0  0  0  0  0  0  0
   59.2950   34.8450   45.7800 C   0  0  0  0  0  0  0  0  0  0  0  0
   59.9390   34.9210   47.0190 C   0  0  0  0  0  0  0  0  0  0  0  0
   59.4440   34.0170   47.9490 C   0  0  0  0  0  0  0  0  0  0  0  0
   60.0530   33.8160   49.7440 Br  0  0  0  0  0  0  0  0  0  0  0  0
   58.2100   33.1230   47.2430 S   0  0  0  0  0  0  0  0  0  0  0  0
   58.6630   30.3010   45.0660 C   0  0  0  0  0  0  0  0  0  0  0  0
   58.4170   29.0110   45.5470 C   0  0  0  0  0  0  0  0  0  0  0  0
   54.7470   27.0890   46.7620 H   0  0  0  0  0  0  0  0  0  0  0  0
   55.1638   28.6633   44.5574 H   0  0  0  0  0  0  0  0  0  0  0  0
   55.6001   30.9578   43.6921 H   0  0  0  0  0  0  0  0  0  0  0  0
   58.3510   32.4640   42.9740 H   0  0  0  0  0  0  0  0  0  0  0  0
   57.4580   34.4101   43.8569 H   0  0  0  0  0  0  0  0  0  0  0  0
   56.3903   33.4222   44.9236 H   0  0  0  0  0  0  0  0  0  0  0  0
   59.5493   35.4886   44.9249 H   0  0  0  0  0  0  0  0  0  0  0  0
   60.7554   35.6259   47.2349 H   0  0  0  0  0  0  0  0  0  0  0  0
   59.6523   30.7593   45.2119 H   0  0  0  0  0  0  0  0  0  0  0  0
   59.2119   28.4621   46.0732 H   0  0  0  0  0  0  0  0  0  0  0  0
  1  2  1  0
  2  3  2  0
  2  4  2  0
  2  5  1  0
  5  6  2  0
  6  7  1  0
  7  8  2  0
  8  9  1  0
  9 10  1  0
 10 11  1  0
 11 12  2  0
 12 13  1  0
 13 14  2  0
 14 15  1  0
 14 16  1  0
  8 17  1  0
 17 18  2  0
 18  5  1  0
 16 11  1  0
  1 19  1  0
  6 20  1  0
  7 21  1  0
  9 22  1  0
 10 23  1  0
 10 24  1  0
 12 25  1  0
 13 26  1  0
 17 27  1  0
 18 28  1  0
M  CHG  1   1  -1
M  END
>  <UniqueID>  (46) 
42

>  <SMILES>  (46) 
[NH-]S(=O)(=O)c1ccc(NCc2ccc(Br)s2)cc1

>  <Energy>  (46) 
52.64392086436926

>  <Genealogy>  (46) 
[NH-]S(=O)(=O)c1ccc(NCc2ccc(Br)s2)cc1 (protonated)
[NH-]S(=O)(=O)c1ccc(NCc2ccc(Br)s2)cc1 (3D coordinates assigned)
[NH-]S(=O)(=O)c1ccc(NCc2ccc(Br)s2)cc1 (optimized conformer: 52.64392086436926 kcal/mol)

>  <smiles>  (46) 
NS(=O)(=O)c1ccc(NCc2ccc(Br)s2)cc1

>  <score_type>  (46) 
oracle

>  <origin>  (46) 
adg

>  <m_score__min__energy>  (46) 
-10.32

>  <m_primary>  (46) 
energy

$$$$
46:0
     RDKit          3D

 35 38  0  0  0  0  0  0  0  0999 V2000
   54.6230   26.0120   45.9310 O   0  0  0  0  0  0  0  0  0  0  0  0
   55.4980   25.1820   45.6380 C   0  0  0  0  0  0  0  0  0  0  0  0
   55.3610   23.8830   45.0280 N   0  0  0  0  0  0  0  0  0  0  0  0
   56.5430   23.3800   44.9160 C   0  0  0  0  0  0  0  0  0  0  0  0
   56.9320   22.1440   44.3880 C   0  0  0  0  0  0  0  0  0  0  0  0
   58.2830   21.7820   44.3590 C   0  0  0  0  0  0  0  0  0  0  0  0
   59.2460   22.6630   44.8600 C   0  0  0  0  0  0  0  0  0  0  0  0
   58.8440   23.8910   45.3840 C   0  0  0  0  0  0  0  0  0  0  0  0
   57.4970   24.2440   45.4100 C   0  0  0  0  0  0  0  0  0  0  0  0
   56.9150   25.3600   45.8640 C   0  0  0  0  0  0  0  0  0  0  0  0
   57.5970   26.5100   46.4620 C   0  0  0  0  0  0  0  0  0  0  0  0
   57.1770   27.8160   45.8930 C   0  0  0  0  0  0  0  0  0  0  0  0
   57.9900   28.9310   45.8140 C   0  0  0  0  0  0  0  0  0  0  0  0
   57.2460   29.9560   45.2220 C   0  0  0  0  0  0  0  0  0  0  0  0
   57.7630   31.2990   44.9670 C   0  0  0  0  0  0  0  0  0  0  0  0
   57.8320   31.8200   43.6720 C   0  0  0  0  0  0  0  0  0  0  0  0
   58.3300   33.0960   43.4910 C   0  0  0  0  0  0  0  0  0  0  0  0
   58.7650   33.8790   44.5430 C   0  0  0  0  0  0  0  0  0  0  0  0
   58.6810   33.3280   45.8080 C   0  0  0  0  0  0  0  0  0  0  0  0
   58.1920   32.0600   46.0420 C   0  0  0  0  0  0  0  0  0  0  0  0
   56.0400   29.4480   44.9660 N   0  0  0  0  0  0  0  0  0  0  0  0
   55.9860   28.1680   45.3630 N   0  0  0  0  0  0  0  0  0  0  0  0
   56.1718   21.4536   43.9938 H   0  0  0  0  0  0  0  0  0  0  0  0
   58.5860   20.8093   43.9442 H   0  0  0  0  0  0  0  0  0  0  0  0
   60.3114   22.3898   44.8410 H   0  0  0  0  0  0  0  0  0  0  0  0
   59.5976   24.5873   45.7805 H   0  0  0  0  0  0  0  0  0  0  0  0
   57.3844   26.5170   47.5412 H   0  0  0  0  0  0  0  0  0  0  0  0
   58.6695   26.3955   46.2459 H   0  0  0  0  0  0  0  0  0  0  0  0
   59.0335   28.9995   46.1552 H   0  0  0  0  0  0  0  0  0  0  0  0
   57.4953   31.2240   42.8110 H   0  0  0  0  0  0  0  0  0  0  0  0
   58.3821   33.5039   42.4708 H   0  0  0  0  0  0  0  0  0  0  0  0
   59.1596   34.8930   44.3815 H   0  0  0  0  0  0  0  0  0  0  0  0
   59.0192   33.9276   46.6660 H   0  0  0  0  0  0  0  0  0  0  0  0
   58.1434   31.6595   47.0654 H   0  0  0  0  0  0  0  0  0  0  0  0
   55.1470   27.5410   45.2730 H   0  0  0  0  0  0  0  0  0  0  0  0
  1  2  2  0
  2  3  1  0
  3  4  2  0
  4  5  1  0
  5  6  2  0
  6  7  1  0
  7  8  2  0
  8  9  1  0
  9 10  2  0
 10 11  1  0
 11 12  1  0
 12 13  2  0
 13 14  1  0
 14 15  1  0
 15 16  2  0
 16 17  1  0
 17 18  2  0
 18 19  1  0
 19 20  2  0
 14 21  2  0
 21 22  1  0
 10  2  1  0
 22 12  1  0
  9  4  1  0
 20 15  1  0
  5 23  1  0
  6 24  1  0
  7 25  1  0
  8 26  1  0
 11 27  1  0
 11 28  1  0
 13 29  1  0
 16 30  1  0
 17 31  1  0
 18 32  1  0
 19 33  1  0
 20 34  1  0
 22 35  1  0
M  END
>  <smiles>  (47) 
O=C1N=c2ccccc2=C1Cc1cc(-c2ccccc2)n[nH]1

>  <score_type>  (47) 
oracle

>  <origin>  (47) 
adg

>  <m_score__min__energy>  (47) 
-9.1500000000000004

>  <m_primary>  (47) 
energy

$$$$
47:0
     RDKit          3D

 35 36  0  0  0  0  0  0  0  0999 V2000
   55.3970   29.7060   43.7550 C   0  0  0  0  0  0  0  0  0  0  0  0
   55.5260   28.8250   44.8660 O   0  0  0  0  0  0  0  0  0  0  0  0
   56.7340   28.2400   45.2810 C   0  0  0  0  0  0  0  0  0  0  0  0
   57.9710   28.9000   45.1460 C   0  0  0  0  0  0  0  0  0  0  0  0
   59.1550   28.2900   45.5900 C   0  0  0  0  0  0  0  0  0  0  0  0
   60.4620   29.0200   45.4910 C   0  0  0  0  0  0  0  0  0  0  0  0
   59.0980   27.0250   46.1900 C   0  0  0  0  0  0  0  0  0  0  0  0
   57.8740   26.3660   46.3250 C   0  0  0  0  0  0  0  0  0  0  0  0
   56.6930   26.9710   45.8760 C   0  0  0  0  0  0  0  0  0  0  0  0
   55.4340   26.3110   46.0460 N   0  0  0  0  0  0  0  0  0  0  0  0
   55.2280   24.9030   45.8680 C   0  0  0  0  0  0  0  0  0  0  0  0
   55.1320   24.1690   46.8870 O   0  0  0  0  0  0  0  0  0  0  0  0
   55.1710   24.2710   44.5000 C   0  0  0  0  0  0  0  0  0  0  0  0
   56.3410   23.3450   44.2730 C   0  0  0  0  0  0  0  0  0  0  0  0
   56.2790   22.3570   43.2750 C   0  0  0  0  0  0  0  0  0  0  0  0
   57.3400   21.4640   43.1000 C   0  0  0  0  0  0  0  0  0  0  0  0
   58.4740   21.5550   43.9130 C   0  0  0  0  0  0  0  0  0  0  0  0
   58.5510   22.5450   44.8960 C   0  0  0  0  0  0  0  0  0  0  0  0
   57.4940   23.4420   45.0720 C   0  0  0  0  0  0  0  0  0  0  0  0
   55.2465   30.7336   44.1175 H   0  0  0  0  0  0  0  0  0  0  0  0
   56.3111   29.6626   43.1446 H   0  0  0  0  0  0  0  0  0  0  0  0
   54.5337   29.4024   43.1446 H   0  0  0  0  0  0  0  0  0  0  0  0
   58.0096   29.9001   44.6896 H   0  0  0  0  0  0  0  0  0  0  0  0
   60.8412   29.2318   46.5016 H   0  0  0  0  0  0  0  0  0  0  0  0
   61.1895   28.3976   44.9494 H   0  0  0  0  0  0  0  0  0  0  0  0
   60.3136   29.9659   44.9494 H   0  0  0  0  0  0  0  0  0  0  0  0
   60.0200   26.5495   46.5558 H   0  0  0  0  0  0  0  0  0  0  0  0
   57.8372   25.3678   46.7858 H   0  0  0  0  0  0  0  0  0  0  0  0
   54.2371   23.6968   44.4095 H   0  0  0  0  0  0  0  0  0  0  0  0
   55.2112   25.0714   43.7465 H   0  0  0  0  0  0  0  0  0  0  0  0
   55.3916   22.2863   42.6289 H   0  0  0  0  0  0  0  0  0  0  0  0
   57.2828   20.6887   42.3218 H   0  0  0  0  0  0  0  0  0  0  0  0
   59.3053   20.8473   43.7787 H   0  0  0  0  0  0  0  0  0  0  0  0
   59.4452   22.6184   45.5324 H   0  0  0  0  0  0  0  0  0  0  0  0
   57.5643   24.2274   45.8389 H   0  0  0  0  0  0  0  0  0  0  0  0
  1  2  1  0
  2  3  1  0
  3  4  2  0
  4  5  1  0
  5  6  1  0
  5  7  2  0
  7  8  1  0
  8  9  2  0
  9 10  1  0
 10 11  1  0
 11 12  2  0
 11 13  1  0
 13 14  1  0
 14 15  2  0
 15 16  1  0
 16 17  2  0
 17 18  1  0
 18 19  2  0
  9  3  1  0
 19 14  1  0
  1 20  1  0
  1 21  1  0
  1 22  1  0
  4 23  1  0
  6 24  1  0
  6 25  1  0
  6 26  1  0
  7 27  1  0
  8 28  1  0
 13 29  1  0
 13 30  1  0
 15 31  1  0
 16 32  1  0
 17 33  1  0
 18 34  1  0
 19 35  1  0
M  CHG  1  10  -1
M  END
>  <UniqueID>  (48) 
43

>  <SMILES>  (48) 
COc1cc(C)ccc1[N-]C(=O)Cc1ccccc1

>  <Energy>  (48) 
36.38831078702631

>  <Genealogy>  (48) 
COc1cc(C)ccc1[N-]C(=O)Cc1ccccc1 (protonated)
COc1cc(C)ccc1[N-]C(=O)Cc1ccccc1 (3D coordinates assigned)
COc1cc(C)ccc1[N-]C(=O)Cc1ccccc1 (optimized conformer: 36.38831078702631 kcal/mol)

>  <smiles>  (48) 
COc1cc(C)ccc1NC(=O)Cc1ccccc1

>  <score_type>  (48) 
oracle

>  <origin>  (48) 
adg

>  <m_score__min__energy>  (48) 
-9.5399999999999991

>  <m_primary>  (48) 
energy

$$$$
48:0
     RDKit          3D

 24 25  0  0  1  0  0  0  0  0999 V2000
   55.3660   26.2640   46.0420 O   0  0  0  0  0  0  0  0  0  0  0  0
   56.5750   26.1310   45.6450 C   0  0  0  0  0  0  0  0  0  0  0  0
   57.4830   27.2130   45.7140 N   0  0  0  0  0  0  0  0  0  0  0  0
   57.1170   28.3780   45.3050 C   0  0  0  0  0  0  0  0  0  0  0  0
   58.1350   29.3470   45.3120 C   0  0  0  0  0  0  0  0  0  0  0  0
   57.7900   30.6100   44.8780 C   0  0  0  0  0  0  0  0  0  0  0  0
   56.5320   30.8270   44.4850 N   0  0  0  0  0  0  0  0  0  0  0  0
   55.5500   29.9210   44.4730 C   0  0  0  0  0  0  0  0  0  0  0  0
   55.8720   28.6700   44.8970 N   0  0  0  0  0  0  0  0  0  0  0  0
   56.9140   24.8080   45.1320 C   0  0  0  0  0  0  0  0  0  0  0  0
   56.1720   24.2390   44.1240 C   0  0  0  0  0  0  0  0  0  0  0  0
   56.4770   22.9830   43.6100 C   0  0  0  0  0  0  0  0  0  0  0  0
   57.5610   22.3430   44.1660 C   0  0  0  0  0  0  0  0  0  0  0  0
   58.3280   22.8740   45.1730 C   0  0  0  0  0  0  0  0  0  0  0  0
   57.9930   24.1310   45.6610 C   0  0  0  0  0  0  0  0  0  0  0  0
   59.1557   29.1101   45.6468 H   0  0  0  0  0  0  0  0  0  0  0  0
   58.5339   31.4200   44.8560 H   0  0  0  0  0  0  0  0  0  0  0  0
   54.5335   30.1742   44.1374 H   0  0  0  0  0  0  0  0  0  0  0  0
   55.1450   27.9270   44.9080 H   0  0  0  0  0  0  0  0  0  0  0  0
   55.3143   24.7918   43.7131 H   0  0  0  0  0  0  0  0  0  0  0  0
   55.8844   22.5265   42.8035 H   0  0  0  0  0  0  0  0  0  0  0  0
   57.8284   21.3479   43.7810 H   0  0  0  0  0  0  0  0  0  0  0  0
   59.1849   22.3192   45.5826 H   0  0  0  0  0  0  0  0  0  0  0  0
   58.5871   24.5853   46.4676 H   0  0  0  0  0  0  0  0  0  0  0  0
  1  2  2  0
  2  3  1  0
  3  4  2  0
  4  5  1  0
  5  6  2  0
  6  7  1  0
  7  8  2  0
  8  9  1  0
  2 10  1  0
 10 11  2  0
 11 12  1  0
 12 13  2  0
 13 14  1  0
 14 15  2  0
  9  4  1  0
 15 10  1  0
  5 16  1  0
  6 17  1  0
  8 18  1  0
  9 19  1  0
 11 20  1  0
 12 21  1  0
 13 22  1  0
 14 23  1  0
 15 24  1  0
M  END
>  <smiles>  (49) 
O=C(N=c1ccnc[nH]1)c1ccccc1

>  <score_type>  (49) 
oracle

>  <origin>  (49) 
adg

>  <m_score__min__energy>  (49) 
-6.3600000000000003

>  <m_primary>  (49) 
energy

$$$$
49:0
     RDKit          3D

 38 39  0  0  0  0  0  0  0  0999 V2000
   55.0130   25.1580   45.6190 C   0  0  0  0  0  0  0  0  0  0  0  0
   55.3280   26.4940   45.9930 O   0  0  0  0  0  0  0  0  0  0  0  0
   56.6030   27.0690   45.8850 C   0  0  0  0  0  0  0  0  0  0  0  0
   57.6370   26.5440   46.6640 C   0  0  0  0  0  0  0  0  0  0  0  0
   58.9200   27.0850   46.5980 C   0  0  0  0  0  0  0  0  0  0  0  0
   59.1930   28.1750   45.7510 C   0  0  0  0  0  0  0  0  0  0  0  0
   60.4730   28.7500   45.6780 O   0  0  0  0  0  0  0  0  0  0  0  0
   61.3700   28.5960   44.5830 C   0  0  0  0  0  0  0  0  0  0  0  0
   58.1580   28.7180   44.9650 C   0  0  0  0  0  0  0  0  0  0  0  0
   58.4260   29.8500   44.1140 N   0  0  0  0  0  0  0  0  0  0  0  0
   57.4960   31.3140   44.1580 S   0  0  0  0  0  0  0  0  0  0  0  0
   57.2780   31.8130   42.7580 O   0  0  0  0  0  0  0  0  0  0  0  0
   56.1550   31.0180   44.7710 O   0  0  0  0  0  0  0  0  0  0  0  0
   58.3510   32.5590   45.0870 C   0  0  0  0  0  0  0  0  0  0  0  0
   58.5850   33.8090   44.4890 C   0  0  0  0  0  0  0  0  0  0  0  0
   59.2090   34.8330   45.2010 C   0  0  0  0  0  0  0  0  0  0  0  0
   59.6080   34.6240   46.5200 C   0  0  0  0  0  0  0  0  0  0  0  0
   59.3900   33.3880   47.1300 C   0  0  0  0  0  0  0  0  0  0  0  0
   58.7730   32.3400   46.4240 C   0  0  0  0  0  0  0  0  0  0  0  0
   58.5330   31.0330   47.1330 C   0  0  0  0  0  0  0  0  0  0  0  0
   56.8720   28.1500   45.0260 C   0  0  0  0  0  0  0  0  0  0  0  0
   54.8693   24.5483   46.5232 H   0  0  0  0  0  0  0  0  0  0  0  0
   54.0889   25.1525   45.0223 H   0  0  0  0  0  0  0  0  0  0  0  0
   55.8373   24.7402   45.0223 H   0  0  0  0  0  0  0  0  0  0  0  0
   57.4369   25.6961   47.3355 H   0  0  0  0  0  0  0  0  0  0  0  0
   59.7252   26.6565   47.2128 H   0  0  0  0  0  0  0  0  0  0  0  0
   62.3871   28.4214   44.9639 H   0  0  0  0  0  0  0  0  0  0  0  0
   61.0560   27.7386   43.9696 H   0  0  0  0  0  0  0  0  0  0  0  0
   61.3599   29.5090   43.9696 H   0  0  0  0  0  0  0  0  0  0  0  0
   59.2900   29.8630   43.5290 H   0  0  0  0  0  0  0  0  0  0  0  0
   58.2727   33.9815   43.4485 H   0  0  0  0  0  0  0  0  0  0  0  0
   59.3865   35.8067   44.7211 H   0  0  0  0  0  0  0  0  0  0  0  0
   60.0956   35.4348   47.0811 H   0  0  0  0  0  0  0  0  0  0  0  0
   59.7037   33.2321   48.1727 H   0  0  0  0  0  0  0  0  0  0  0  0
   58.5627   31.1950   48.2206 H   0  0  0  0  0  0  0  0  0  0  0  0
   57.5471   30.6369   46.8481 H   0  0  0  0  0  0  0  0  0  0  0  0
   59.3139   30.3125   46.8481 H   0  0  0  0  0  0  0  0  0  0  0  0
   56.0678   28.5560   44.3947 H   0  0  0  0  0  0  0  0  0  0  0  0
  1  2  1  0
  2  3  1  0
  3  4  2  0
  4  5  1  0
  5  6  2  0
  6  7  1  0
  7  8  1  0
  6  9  1  0
  9 10  1  0
 10 11  1  0
 11 12  2  0
 11 13  2  0
 11 14  1  0
 14 15  2  0
 15 16  1  0
 16 17  2  0
 17 18  1  0
 18 19  2  0
 19 20  1  0
  9 21  2  0
 21  3  1  0
 19 14  1  0
  1 22  1  0
  1 23  1  0
  1 24  1  0
  4 25  1  0
  5 26  1  0
  8 27  1  0
  8 28  1  0
  8 29  1  0
 10 30  1  0
 15 31  1  0
 16 32  1  0
 17 33  1  0
 18 34  1  0
 20 35  1  0
 20 36  1  0
 20 37  1  0
 21 38  1  0
M  END
>  <UniqueID>  (50) 
44

>  <SMILES>  (50) 
COc1ccc(OC)c(NS(=O)(=O)c2ccccc2C)c1

>  <Energy>  (50) 
40.510104303099766

>  <Genealogy>  (50) 
COc1ccc(OC)c(NS(=O)(=O)c2ccccc2C)c1 (3D coordinates assigned)
COc1ccc(OC)c(NS(=O)(=O)c2ccccc2C)c1 (optimized conformer: 40.510104303099766 kcal/mol)

>  <smiles>  (50) 
COc1ccc(OC)c(NS(=O)(=O)c2ccccc2C)c1

>  <score_type>  (50) 
oracle

>  <origin>  (50) 
adg

>  <m_score__min__energy>  (50) 
-7.7400000000000002

>  <m_primary>  (50) 
energy

$$$$
50:0
     RDKit          3D

 34 35  0  0  0  0  0  0  0  0999 V2000
   63.8060   33.1150   47.1060 N   0  0  0  0  0  0  0  0  0  0  0  0
   62.6530   33.1930   47.1200 C   0  0  0  0  0  0  0  0  0  0  0  0
   61.2160   33.2890   47.1380 C   0  0  0  0  0  0  0  0  0  0  0  0
   60.4900   32.7140   48.1880 C   0  0  0  0  0  0  0  0  0  0  0  0
   59.0940   32.7870   48.1940 C   0  0  0  0  0  0  0  0  0  0  0  0
   58.4200   33.4210   47.1470 C   0  0  0  0  0  0  0  0  0  0  0  0
   59.1390   33.9880   46.0820 C   0  0  0  0  0  0  0  0  0  0  0  0
   58.4030   34.5930   44.9150 C   0  0  0  0  0  0  0  0  0  0  0  0
   57.3900   33.6550   44.3990 N   0  0  0  0  0  0  0  0  0  0  0  0
   57.9770   32.5630   43.6030 C   0  0  0  0  0  0  0  0  0  0  0  0
   57.7040   31.2180   44.2260 C   0  0  0  0  0  0  0  0  0  0  0  0
   56.4410   30.6230   44.1080 C   0  0  0  0  0  0  0  0  0  0  0  0
   56.2160   29.3390   44.6090 C   0  0  0  0  0  0  0  0  0  0  0  0
   57.2490   28.6230   45.2430 C   0  0  0  0  0  0  0  0  0  0  0  0
   57.0130   27.2140   45.7410 C   0  0  0  0  0  0  0  0  0  0  0  0
   55.6660   26.9110   45.6620 F   0  0  0  0  0  0  0  0  0  0  0  0
   57.4280   27.1130   47.0560 F   0  0  0  0  0  0  0  0  0  0  0  0
   57.7110   26.2810   44.9930 F   0  0  0  0  0  0  0  0  0  0  0  0
   58.5140   29.2390   45.3880 C   0  0  0  0  0  0  0  0  0  0  0  0
   59.8680   28.4140   46.1550 Cl  0  0  0  0  0  0  0  0  0  0  0  0
   58.7280   30.5300   44.8930 C   0  0  0  0  0  0  0  0  0  0  0  0
   60.5430   33.9360   46.0930 C   0  0  0  0  0  0  0  0  0  0  0  0
   61.0179   32.2050   49.0079 H   0  0  0  0  0  0  0  0  0  0  0  0
   58.5249   32.3444   49.0248 H   0  0  0  0  0  0  0  0  0  0  0  0
   57.3214   33.4763   47.1569 H   0  0  0  0  0  0  0  0  0  0  0  0
   57.9060   35.5185   45.2413 H   0  0  0  0  0  0  0  0  0  0  0  0
   59.1251   34.8113   44.1145 H   0  0  0  0  0  0  0  0  0  0  0  0
   56.7590   34.1930   43.7610 H   0  0  0  0  0  0  0  0  0  0  0  0
   57.5429   32.5838   42.5925 H   0  0  0  0  0  0  0  0  0  0  0  0
   59.0663   32.7109   43.5639 H   0  0  0  0  0  0  0  0  0  0  0  0
   55.6222   31.1702   43.6181 H   0  0  0  0  0  0  0  0  0  0  0  0
   55.2206   28.8821   44.5071 H   0  0  0  0  0  0  0  0  0  0  0  0
   59.7085   31.0098   45.0282 H   0  0  0  0  0  0  0  0  0  0  0  0
   61.1155   34.4045   45.2790 H   0  0  0  0  0  0  0  0  0  0  0  0
  1  2  3  0
  2  3  1  0
  3  4  2  0
  4  5  1  0
  5  6  2  0
  6  7  1  0
  7  8  1  0
  8  9  1  0
  9 10  1  0
 10 11  1  0
 11 12  2  0
 12 13  1  0
 13 14  2  0
 14 15  1  0
 15 16  1  0
 15 17  1  0
 15 18  1  0
 14 19  1  0
 19 20  1  0
 19 21  2  0
  7 22  2  0
 22  3  1  0
 21 11  1  0
  4 23  1  0
  5 24  1  0
  6 25  1  0
  8 26  1  0
  8 27  1  0
  9 28  1  0
 10 29  1  0
 10 30  1  0
 12 31  1  0
 13 32  1  0
 21 33  1  0
 22 34  1  0
M  END
>  <UniqueID>  (51) 
45

>  <SMILES>  (51) 
N#Cc1cccc(CNCc2ccc(C(F)(F)F)c(Cl)c2)c1

>  <Energy>  (51) 
31.519905164770936

>  <Genealogy>  (51) 
N#Cc1cccc(CNCc2ccc(C(F)(F)F)c(Cl)c2)c1 (3D coordinates assigned)
N#Cc1cccc(CNCc2ccc(C(F)(F)F)c(Cl)c2)c1 (optimized conformer: 31.519905164770936 kcal/mol)

>  <smiles>  (51) 
N#Cc1cccc(CNCc2ccc(C(F)(F)F)c(Cl)c2)c1

>  <score_type>  (51) 
oracle

>  <origin>  (51) 
adg

>  <m_score__min__energy>  (51) 
-6.8899999999999997

>  <m_primary>  (51) 
energy

$$$$
51:0
     RDKit          3D

 44 45  0  0  0  0  0  0  0  0999 V2000
   57.2940   32.3680   41.0030 C   0  0  0  0  0  0  0  0  0  0  0  0
   57.1740   31.5790   42.2740 C   0  0  0  0  0  0  0  0  0  0  0  0
   56.7230   30.2570   42.2410 C   0  0  0  0  0  0  0  0  0  0  0  0
   56.6460   29.5090   43.4140 C   0  0  0  0  0  0  0  0  0  0  0  0
   57.0330   30.0640   44.6510 C   0  0  0  0  0  0  0  0  0  0  0  0
   56.9460   29.3230   45.8440 O   0  0  0  0  0  0  0  0  0  0  0  0
   57.2510   27.9360   46.0020 C   0  0  0  0  0  0  0  0  0  0  0  0
   58.7760   27.6840   45.9850 C   0  0  0  0  0  0  0  0  0  0  0  0
   59.6140   28.8620   46.3270 N   0  0  0  0  0  0  0  0  0  0  0  0
   60.5580   29.2170   45.2520 C   0  0  0  0  0  0  0  0  0  0  0  0
   60.3160   28.7130   47.6140 C   0  0  0  0  0  0  0  0  0  0  0  0
   57.5130   31.3990   44.6910 C   0  0  0  0  0  0  0  0  0  0  0  0
   57.9650   32.0430   45.9580 C   0  0  0  0  0  0  0  0  0  0  0  0
   57.4780   33.1540   46.3020 O   0  0  0  0  0  0  0  0  0  0  0  0
   58.9180   31.3940   46.8110 N   0  0  0  0  0  0  0  0  0  0  0  0
   59.9030   32.0210   47.6430 C   0  0  0  0  0  0  0  0  0  0  0  0
   59.6410   32.3730   48.9800 C   0  0  0  0  0  0  0  0  0  0  0  0
   60.6210   33.0210   49.7420 C   0  0  0  0  0  0  0  0  0  0  0  0
   60.2880   33.4550   51.4100 Cl  0  0  0  0  0  0  0  0  0  0  0  0
   61.8560   33.3400   49.1700 C   0  0  0  0  0  0  0  0  0  0  0  0
   62.1140   33.0140   47.8360 C   0  0  0  0  0  0  0  0  0  0  0  0
   63.6550   33.4360   47.1110 Cl  0  0  0  0  0  0  0  0  0  0  0  0
   61.1370   32.3630   47.0740 C   0  0  0  0  0  0  0  0  0  0  0  0
   57.5800   32.1380   43.4920 C   0  0  0  0  0  0  0  0  0  0  0  0
   57.4554   33.4291   41.2440 H   0  0  0  0  0  0  0  0  0  0  0  0
   58.1452   31.9916   40.4167 H   0  0  0  0  0  0  0  0  0  0  0  0
   56.3694   32.2617   40.4167 H   0  0  0  0  0  0  0  0  0  0  0  0
   56.4270   29.8041   41.2833 H   0  0  0  0  0  0  0  0  0  0  0  0
   56.2788   28.4728   43.3745 H   0  0  0  0  0  0  0  0  0  0  0  0
   56.8421   27.5875   46.9619 H   0  0  0  0  0  0  0  0  0  0  0  0
   56.8018   27.3867   45.1615 H   0  0  0  0  0  0  0  0  0  0  0  0
   58.9975   26.8865   46.7095 H   0  0  0  0  0  0  0  0  0  0  0  0
   59.0306   27.4179   44.9485 H   0  0  0  0  0  0  0  0  0  0  0  0
   58.9570   29.6720   46.4310 H   0  0  0  0  0  0  0  0  0  0  0  0
   61.5008   29.5715   45.6942 H   0  0  0  0  0  0  0  0  0  0  0  0
   60.7550   28.3315   44.6298 H   0  0  0  0  0  0  0  0  0  0  0  0
   60.1227   30.0129   44.6298 H   0  0  0  0  0  0  0  0  0  0  0  0
   59.6046   28.8640   48.4393 H   0  0  0  0  0  0  0  0  0  0  0  0
   60.7472   27.7033   47.6817 H   0  0  0  0  0  0  0  0  0  0  0  0
   61.1202   29.4605   47.6817 H   0  0  0  0  0  0  0  0  0  0  0  0
   58.6640   32.1386   49.4277 H   0  0  0  0  0  0  0  0  0  0  0  0
   62.6251   33.8479   49.7704 H   0  0  0  0  0  0  0  0  0  0  0  0
   61.3393   32.1181   46.0209 H   0  0  0  0  0  0  0  0  0  0  0  0
   57.9575   33.1710   43.5138 H   0  0  0  0  0  0  0  0  0  0  0  0
  1  2  1  0
  2  3  2  0
  3  4  1  0
  4  5  2  0
  5  6  1  0
  6  7  1  0
  7  8  1  0
  8  9  1  0
  9 10  1  0
  9 11  1  0
  5 12  1  0
 12 13  1  0
 13 14  2  0
 13 15  1  0
 15 16  1  0
 16 17  2  0
 17 18  1  0
 18 19  1  0
 18 20  2  0
 20 21  1  0
 21 22  1  0
 21 23  2  0
 12 24  2  0
 24  2  1  0
 23 16  1  0
  1 25  1  0
  1 26  1  0
  1 27  1  0
  3 28  1  0
  4 29  1  0
  7 30  1  0
  7 31  1  0
  8 32  1  0
  8 33  1  0
  9 34  1  0
 10 35  1  0
 10 36  1  0
 10 37  1  0
 11 38  1  0
 11 39  1  0
 11 40  1  0
 17 41  1  0
 20 42  1  0
 23 43  1  0
 24 44  1  0
M  CHG  2   9   1  15  -1
M  END
>  <UniqueID>  (52) 
46

>  <SMILES>  (52) 
Cc1ccc(OCC[NH+](C)C)c(C(=O)[N-]c2cc(Cl)cc(Cl)c2)c1

>  <Energy>  (52) 
51.034635515497925

>  <Genealogy>  (52) 
Cc1ccc(OCC[NH+](C)C)c(C(=O)[N-]c2cc(Cl)cc(Cl)c2)c1 (protonated)
Cc1ccc(OCC[NH+](C)C)c(C(=O)[N-]c2cc(Cl)cc(Cl)c2)c1 (3D coordinates assigned)
Cc1ccc(OCC[NH+](C)C)c(C(=O)[N-]c2cc(Cl)cc(Cl)c2)c1 (optimized conformer: 51.034635515497925 kcal/mol)

>  <smiles>  (52) 
Cc1ccc(OCCN(C)C)c(C(=O)Nc2cc(Cl)cc(Cl)c2)c1

>  <score_type>  (52) 
oracle

>  <origin>  (52) 
adg

>  <m_score__min__energy>  (52) 
-6.5700000000000003

>  <m_primary>  (52) 
energy

$$$$
52:0
     RDKit          3D

 58 61  0  0  1  0  0  0  0  0999 V2000
   54.0170   28.7360   52.6240 C   0  0  0  0  0  0  0  0  0  0  0  0
   53.6530   30.1450   52.2580 C   0  0  0  0  0  0  0  0  0  0  0  0
   53.0460   30.8400   53.4490 C   0  0  0  0  0  0  0  0  0  0  0  0
   52.5480   30.0630   51.2010 C   0  0  0  0  0  0  0  0  0  0  0  0
   54.7560   30.8880   51.6800 N   0  0  0  0  0  0  0  0  0  0  0  0
   55.9700   30.9900   52.4090 C   0  0  0  0  0  0  0  0  0  0  0  0
   56.0110   30.4200   53.5300 O   0  0  0  0  0  0  0  0  0  0  0  0
   57.1410   31.7050   51.9350 C   0  0  0  0  0  0  0  0  0  0  0  0
   57.3500   32.9750   52.4490 C   0  0  0  0  0  0  0  0  0  0  0  0
   58.4650   33.7000   52.0190 C   0  0  0  0  0  0  0  0  0  0  0  0
   59.3530   33.1540   51.0920 C   0  0  0  0  0  0  0  0  0  0  0  0
   60.4690   33.8370   50.5840 N   0  0  0  0  0  0  0  0  0  0  0  0
   60.8380   33.7040   49.3720 C   0  0  0  0  0  0  0  0  0  0  0  0
   59.8390   33.6230   48.4520 N   0  0  0  0  0  0  0  0  0  0  0  0
   60.0600   33.4870   47.1420 C   0  0  0  0  0  0  0  0  0  0  0  0
   59.0190   33.4040   46.1910 N   0  0  0  0  0  0  0  0  0  0  0  0
   58.2560   32.1860   45.9580 C   0  0  0  0  0  0  0  0  0  0  0  0
   57.6940   32.0660   44.5790 C   0  0  0  0  0  0  0  0  0  0  0  0
   57.3960   33.2730   43.9640 O   0  0  0  0  0  0  0  0  0  0  0  0
   57.2850   34.3270   44.8550 C   0  0  0  0  0  0  0  0  0  0  0  0
   58.6880   34.5670   45.4100 C   0  0  0  0  0  0  0  0  0  0  0  0
   61.3430   33.4310   46.7390 N   0  0  0  0  0  0  0  0  0  0  0  0
   62.3690   33.5070   47.6070 C   0  0  0  0  0  0  0  0  0  0  0  0
   62.1600   33.6490   48.9880 C   0  0  0  0  0  0  0  0  0  0  0  0
   63.4630   33.6980   49.6660 C   0  0  0  0  0  0  0  0  0  0  0  0
   64.3310   32.9010   48.6520 C   0  0  0  0  0  0  0  0  0  0  0  0
   63.8490   33.4650   47.3510 C   0  0  0  0  0  0  0  0  0  0  0  0
   59.1340   31.8630   50.5760 C   0  0  0  0  0  0  0  0  0  0  0  0
   58.0120   31.1760   51.0280 C   0  0  0  0  0  0  0  0  0  0  0  0
   54.0427   28.6366   53.7192 H   0  0  0  0  0  0  0  0  0  0  0  0
   53.2680   28.0446   52.2105 H   0  0  0  0  0  0  0  0  0  0  0  0
   55.0072   28.4939   52.2105 H   0  0  0  0  0  0  0  0  0  0  0  0
   53.4376   30.3917   54.3740 H   0  0  0  0  0  0  0  0  0  0  0  0
   53.3051   31.9087   53.4213 H   0  0  0  0  0  0  0  0  0  0  0  0
   51.9522   30.7271   53.4213 H   0  0  0  0  0  0  0  0  0  0  0  0
   51.5695   29.9904   51.6983 H   0  0  0  0  0  0  0  0  0  0  0  0
   52.5739   30.9655   50.5727 H   0  0  0  0  0  0  0  0  0  0  0  0
   52.7068   29.1742   50.5727 H   0  0  0  0  0  0  0  0  0  0  0  0
   54.6860   31.3460   50.7520 H   0  0  0  0  0  0  0  0  0  0  0  0
   56.6512   33.4046   53.1819 H   0  0  0  0  0  0  0  0  0  0  0  0
   58.6439   34.7104   52.4152 H   0  0  0  0  0  0  0  0  0  0  0  0
   58.8420   33.6660   48.7590 H   0  0  0  0  0  0  0  0  0  0  0  0
   58.9179   31.3257   46.1362 H   0  0  0  0  0  0  0  0  0  0  0  0
   57.3981   32.2157   46.6459 H   0  0  0  0  0  0  0  0  0  0  0  0
   58.4291   31.5366   43.9550 H   0  0  0  0  0  0  0  0  0  0  0  0
   56.7406   31.5267   44.6797 H   0  0  0  0  0  0  0  0  0  0  0  0
   56.9208   35.2268   44.3375 H   0  0  0  0  0  0  0  0  0  0  0  0
   56.5701   34.0980   45.6591 H   0  0  0  0  0  0  0  0  0  0  0  0
   59.4071   34.6901   44.5868 H   0  0  0  0  0  0  0  0  0  0  0  0
   58.7251   35.4816   46.0201 H   0  0  0  0  0  0  0  0  0  0  0  0
   63.8215   34.7311   49.7855 H   0  0  0  0  0  0  0  0  0  0  0  0
   63.4654   33.2973   50.6904 H   0  0  0  0  0  0  0  0  0  0  0  0
   65.4038   33.0925   48.8017 H   0  0  0  0  0  0  0  0  0  0  0  0
   64.2333   31.8085   48.7346 H   0  0  0  0  0  0  0  0  0  0  0  0
   64.2585   34.4691   47.1663 H   0  0  0  0  0  0  0  0  0  0  0  0
   64.1458   32.8892   46.4620 H   0  0  0  0  0  0  0  0  0  0  0  0
   59.8226   31.4151   49.8444 H   0  0  0  0  0  0  0  0  0  0  0  0
   57.8193   30.1655   50.6384 H   0  0  0  0  0  0  0  0  0  0  0  0
  1  2  1  0
  2  3  1  0
  2  4  1  0
  2  5  1  0
  5  6  1  0
  6  7  2  0
  6  8  1  0
  8  9  2  0
  9 10  1  0
 10 11  2  0
 11 12  1  0
 12 13  2  0
 13 14  1  0
 14 15  1  0
 15 16  1  0
 16 17  1  0
 17 18  1  0
 18 19  1  0
 19 20  1  0
 20 21  1  0
 15 22  2  0
 22 23  1  0
 23 24  2  0
 24 25  1  0
 25 26  1  0
 26 27  1  0
 11 28  1  0
 28 29  2  0
 29  8  1  0
 24 13  1  0
 21 16  1  0
 27 23  1  0
  1 30  1  0
  1 31  1  0
  1 32  1  0
  3 33  1  0
  3 34  1  0
  3 35  1  0
  4 36  1  0
  4 37  1  0
  4 38  1  0
  5 39  1  0
  9 40  1  0
 10 41  1  0
 14 42  1  0
 17 43  1  0
 17 44  1  0
 18 45  1  0
 18 46  1  0
 20 47  1  0
 20 48  1  0
 21 49  1  0
 21 50  1  0
 25 51  1  0
 25 52  1  0
 26 53  1  0
 26 54  1  0
 27 55  1  0
 27 56  1  0
 28 57  1  0
 29 58  1  0
M  END
>  <smiles>  (53) 
CC(C)(C)NC(=O)c1ccc(N=c2[nH]c(N3CCOCC3)nc3c2CCC3)cc1

>  <score_type>  (53) 
oracle

>  <origin>  (53) 
adg

>  <m_score__min__energy>  (53) 
-8.3000000000000007

>  <m_primary>  (53) 
energy

$$$$
53:0
     RDKit          3D

 50 53  0  0  0  0  0  0  0  0999 V2000
   63.0550   34.2260   50.5950 C   0  0  0  0  0  0  0  0  0  0  0  0
   62.3510   33.3030   49.8080 O   0  0  0  0  0  0  0  0  0  0  0  0
   61.5900   33.6340   48.7100 C   0  0  0  0  0  0  0  0  0  0  0  0
   62.1470   33.4980   47.4560 C   0  0  0  0  0  0  0  0  0  0  0  0
   61.3550   33.8410   46.3640 C   0  0  0  0  0  0  0  0  0  0  0  0
   60.0670   34.2940   46.5750 C   0  0  0  0  0  0  0  0  0  0  0  0
   59.2890   34.6390   45.3300 C   0  0  0  0  0  0  0  0  0  0  0  0
   57.8750   34.1400   45.4740 C   0  0  0  0  0  0  0  0  0  0  0  0
   57.9050   32.6980   45.5230 N   0  0  0  0  0  0  0  0  0  0  0  0
   58.2170   31.8500   44.4500 C   0  0  0  0  0  0  0  0  0  0  0  0
   58.5080   32.3450   43.3120 O   0  0  0  0  0  0  0  0  0  0  0  0
   58.2310   30.4110   44.5470 C   0  0  0  0  0  0  0  0  0  0  0  0
   57.3900   29.6370   43.7540 C   0  0  0  0  0  0  0  0  0  0  0  0
   57.3480   28.2770   43.7910 C   0  0  0  0  0  0  0  0  0  0  0  0
   58.1900   27.5380   44.6720 C   0  0  0  0  0  0  0  0  0  0  0  0
   58.9920   28.3690   45.4230 C   0  0  0  0  0  0  0  0  0  0  0  0
   59.0480   29.7070   45.4030 C   0  0  0  0  0  0  0  0  0  0  0  0
   59.9670   27.1990   46.4630 S   0  0  0  0  0  0  0  0  0  0  0  0
   59.1330   25.7270   45.7160 C   0  0  0  0  0  0  0  0  0  0  0  0
   59.3350   24.4480   45.9930 N   0  0  0  0  0  0  0  0  0  0  0  0
   58.6380   23.4860   45.3530 C   0  0  0  0  0  0  0  0  0  0  0  0
   58.8170   22.2490   45.6030 N   0  0  0  0  0  0  0  0  0  0  0  0
   57.7290   23.9430   44.4210 C   0  0  0  0  0  0  0  0  0  0  0  0
   56.9520   22.9730   43.7030 C   0  0  0  0  0  0  0  0  0  0  0  0
   56.3350   22.1950   43.1140 N   0  0  0  0  0  0  0  0  0  0  0  0
   57.5470   25.2670   44.1640 C   0  0  0  0  0  0  0  0  0  0  0  0
   58.2660   26.2490   44.8220 N   0  0  0  0  0  0  0  0  0  0  0  0
   59.5170   34.4280   47.8310 C   0  0  0  0  0  0  0  0  0  0  0  0
   60.3050   34.0880   48.9260 C   0  0  0  0  0  0  0  0  0  0  0  0
   59.8250   34.1940   50.2240 O   0  0  0  0  0  0  0  0  0  0  0  0
   59.2780   33.0420   50.8260 C   0  0  0  0  0  0  0  0  0  0  0  0
   62.8861   34.0046   51.6592 H   0  0  0  0  0  0  0  0  0  0  0  0
   64.1297   34.1540   50.3716 H   0  0  0  0  0  0  0  0  0  0  0  0
   62.7014   35.2434   50.3716 H   0  0  0  0  0  0  0  0  0  0  0  0
   63.1762   33.1330   47.3239 H   0  0  0  0  0  0  0  0  0  0  0  0
   61.7512   33.7521   45.3417 H   0  0  0  0  0  0  0  0  0  0  0  0
   59.2815   35.7302   45.1917 H   0  0  0  0  0  0  0  0  0  0  0  0
   59.7607   34.1647   44.4567 H   0  0  0  0  0  0  0  0  0  0  0  0
   57.4342   34.5344   46.4015 H   0  0  0  0  0  0  0  0  0  0  0  0
   57.2660   34.4772   44.6223 H   0  0  0  0  0  0  0  0  0  0  0  0
   57.6730   32.2560   46.4420 H   0  0  0  0  0  0  0  0  0  0  0  0
   56.7180   30.1556   43.0544 H   0  0  0  0  0  0  0  0  0  0  0  0
   56.6525   27.7393   43.1298 H   0  0  0  0  0  0  0  0  0  0  0  0
   59.7434   30.2410   46.0673 H   0  0  0  0  0  0  0  0  0  0  0  0
   59.1230   21.5930   44.8640 H   0  0  0  0  0  0  0  0  0  0  0  0
   56.8047   25.5659   43.4092 H   0  0  0  0  0  0  0  0  0  0  0  0
   58.4876   34.7922   47.9639 H   0  0  0  0  0  0  0  0  0  0  0  0
   59.3257   33.1424   51.9204 H   0  0  0  0  0  0  0  0  0  0  0  0
   58.2295   32.9277   50.5136 H   0  0  0  0  0  0  0  0  0  0  0  0
   59.8522   32.1573   50.5136 H   0  0  0  0  0  0  0  0  0  0  0  0
  1  2  1  0
  2  3  1  0
  3  4  2  0
  4  5  1  0
  5  6  2  0
  6  7  1  0
  7  8  1  0
  8  9  1  0
  9 10  1  0
 10 11  2  0
 10 12  1  0
 12 13  2  0
 13 14  1  0
 14 15  2  0
 15 16  1  0
 16 17  2  0
 16 18  1  0
 18 19  1  0
 19 20  2  0
 20 21  1  0
 21 22  2  3
 21 23  1  0
 23 24  1  0
 24 25  3  0
 23 26  2  0
 26 27  1  0
  6 28  1  0
 28 29  2  0
 29 30  1  0
 30 31  1  0
 29  3  1  0
 17 12  1  0
 27 19  1  0
 27 15  1  0
  1 32  1  0
  1 33  1  0
  1 34  1  0
  4 35  1  0
  5 36  1  0
  7 37  1  0
  7 38  1  0
  8 39  1  0
  8 40  1  0
  9 41  1  0
 13 42  1  0
 14 43  1  0
 17 44  1  0
 22 45  1  0
 26 46  1  0
 28 47  1  0
 31 48  1  0
 31 49  1  0
 31 50  1  0
M  END
>  <smiles>  (54) 
COc1ccc(CCNC(=O)c2ccc3c(c2)sc2nc(=N)c(C#N)cn23)cc1OC

>  <score_type>  (54) 
oracle

>  <origin>  (54) 
adg

>  <m_score__min__energy>  (54) 
-8.2599999999999998

>  <m_primary>  (54) 
energy

$$$$
54:0
     RDKit          3D

 41 42  0  0  0  0  0  0  0  0999 V2000
   57.2218   34.4278   44.2467 H   0  0  0  0  0  0  0  0  0  0  0  0
   57.7090   33.5070   44.6000 C   0  0  0  0  0  0  0  0  0  0  0  0
   57.4460   32.3670   43.9300 C   0  0  0  0  0  0  0  0  0  0  0  0
   57.7690   32.3160   42.5240 C   0  0  0  0  0  0  0  0  0  0  0  0
   58.0280   32.2760   41.3960 N   0  0  0  0  0  0  0  0  0  0  0  0
   56.7990   31.1790   44.5380 C   0  0  0  0  0  0  0  0  0  0  0  0
   55.6700   30.8070   44.1180 O   0  0  0  0  0  0  0  0  0  0  0  0
   57.4010   30.5220   45.6600 N   0  0  0  0  0  0  0  0  0  0  0  0
   58.0320   29.2300   45.6870 C   0  0  0  0  0  0  0  0  0  0  0  0
   57.3510   28.0670   45.2800 C   0  0  0  0  0  0  0  0  0  0  0  0
   56.2977   28.1311   44.9694 H   0  0  0  0  0  0  0  0  0  0  0  0
   58.0040   26.8320   45.2680 C   0  0  0  0  0  0  0  0  0  0  0  0
   57.4606   25.9266   44.9599 H   0  0  0  0  0  0  0  0  0  0  0  0
   59.3440   26.7450   45.6460 C   0  0  0  0  0  0  0  0  0  0  0  0
   59.8534   25.7701   45.6438 H   0  0  0  0  0  0  0  0  0  0  0  0
   60.0390   27.8940   46.0270 C   0  0  0  0  0  0  0  0  0  0  0  0
   61.0985   27.8223   46.3140 H   0  0  0  0  0  0  0  0  0  0  0  0
   59.3930   29.1420   46.0460 C   0  0  0  0  0  0  0  0  0  0  0  0
   60.1660   30.3790   46.4160 C   0  0  0  0  0  0  0  0  0  0  0  0
   60.2192   30.4642   47.5114 H   0  0  0  0  0  0  0  0  0  0  0  0
   61.1836   30.3126   46.0035 H   0  0  0  0  0  0  0  0  0  0  0  0
   59.6603   31.2645   46.0035 H   0  0  0  0  0  0  0  0  0  0  0  0
   58.6020   33.6140   45.7730 C   0  0  0  0  0  0  0  0  0  0  0  0
   58.0670   33.4730   47.0570 C   0  0  0  0  0  0  0  0  0  0  0  0
   56.9886   33.2972   47.1836 H   0  0  0  0  0  0  0  0  0  0  0  0
   58.8930   33.5540   48.1790 C   0  0  0  0  0  0  0  0  0  0  0  0
   58.4636   33.4304   49.1841 H   0  0  0  0  0  0  0  0  0  0  0  0
   60.2730   33.7930   48.0320 C   0  0  0  0  0  0  0  0  0  0  0  0
   61.1380   33.8620   49.1350 O   0  0  0  0  0  0  0  0  0  0  0  0
   61.4020   32.7800   50.0220 C   0  0  0  0  0  0  0  0  0  0  0  0
   61.3168   33.1290   51.0617 H   0  0  0  0  0  0  0  0  0  0  0  0
   60.6740   31.9746   49.8448 H   0  0  0  0  0  0  0  0  0  0  0  0
   62.4191   32.4004   49.8448 H   0  0  0  0  0  0  0  0  0  0  0  0
   60.8130   33.9710   46.7490 C   0  0  0  0  0  0  0  0  0  0  0  0
   62.1910   34.2100   46.6330 O   0  0  0  0  0  0  0  0  0  0  0  0
   63.2050   33.2800   47.0040 C   0  0  0  0  0  0  0  0  0  0  0  0
   63.2669   33.2232   48.1008 H   0  0  0  0  0  0  0  0  0  0  0  0
   62.9583   32.2875   46.5988 H   0  0  0  0  0  0  0  0  0  0  0  0
   64.1725   33.6114   46.5988 H   0  0  0  0  0  0  0  0  0  0  0  0
   59.9690   33.9010   45.6240 C   0  0  0  0  0  0  0  0  0  0  0  0
   60.3838   34.0726   44.6197 H   0  0  0  0  0  0  0  0  0  0  0  0
  1  2  1  0
  2  3  2  0
  3  4  1  0
  4  5  3  0
  3  6  1  0
  6  7  2  0
  6  8  1  0
  8  9  1  0
  9 10  2  0
 10 11  1  0
 10 12  1  0
 12 13  1  0
 12 14  2  0
 14 15  1  0
 14 16  1  0
 16 17  1  0
 16 18  2  0
 18 19  1  0
 19 20  1  0
 19 21  1  0
 19 22  1  0
  2 23  1  0
 23 24  2  0
 24 25  1  0
 24 26  1  0
 26 27  1  0
 26 28  2  0
 28 29  1  0
 29 30  1  0
 30 31  1  0
 30 32  1  0
 30 33  1  0
 28 34  1  0
 34 35  1  0
 35 36  1  0
 36 37  1  0
 36 38  1  0
 36 39  1  0
 34 40  2  0
 40 41  1  0
 18  9  1  0
 40 23  1  0
M  CHG  1   8  -1
M  END
>  <UniqueID>  (55) 
47

>  <SMILES>  (55) 
COc1ccc(/C=C(/C#N)C(=O)[N-]c2ccccc2C)cc1OC

>  <Energy>  (55) 
48.45290166546463

>  <Genealogy>  (55) 
COc1ccc(C=C(C#N)C(=O)[N-]c2ccccc2C)cc1OC (protonated)
COc1ccc(/C=C(/C#N)C(=O)[N-]c2ccccc2C)cc1OC (cis-trans isomerization)
COc1ccc(/C=C(/C#N)C(=O)[N-]c2ccccc2C)cc1OC (3D coordinates assigned)
COc1ccc(/C=C(/C#N)C(=O)[N-]c2ccccc2C)cc1OC (optimized conformer: 48.45290166546463 kcal/mol)

>  <smiles>  (55) 
COc1ccc(C=C(C#N)C(=O)Nc2ccccc2C)cc1OC

>  <score_type>  (55) 
oracle

>  <origin>  (55) 
adg

>  <m_score__min__energy>  (55) 
-8.7400000000000002

>  <m_primary>  (55) 
energy

$$$$
55:0
     RDKit          3D

 37 38  0  0  0  0  0  0  0  0999 V2000
   58.9080   29.8480   47.6180 C   0  0  0  0  0  0  0  0  0  0  0  0
   58.4210   29.3860   46.2850 C   0  0  0  0  0  0  0  0  0  0  0  0
   58.8720   28.2730   45.6020 C   0  0  0  0  0  0  0  0  0  0  0  0
   58.0840   28.2330   44.4700 C   0  0  0  0  0  0  0  0  0  0  0  0
   58.1660   27.2000   43.3870 C   0  0  0  0  0  0  0  0  0  0  0  0
   57.2100   29.2630   44.5090 N   0  0  0  0  0  0  0  0  0  0  0  0
   56.2080   29.6210   43.5030 C   0  0  0  0  0  0  0  0  0  0  0  0
   56.7090   30.7710   42.6210 C   0  0  0  0  0  0  0  0  0  0  0  0
   58.0340   31.2460   43.0560 N   0  0  0  0  0  0  0  0  0  0  0  0
   58.1240   32.7170   43.0370 C   0  0  0  0  0  0  0  0  0  0  0  0
   58.2940   33.2880   44.4240 C   0  0  0  0  0  0  0  0  0  0  0  0
   57.3960   32.9400   45.4460 C   0  0  0  0  0  0  0  0  0  0  0  0
   57.5340   33.4910   46.7240 C   0  0  0  0  0  0  0  0  0  0  0  0
   58.5690   34.3920   46.9900 C   0  0  0  0  0  0  0  0  0  0  0  0
   59.4650   34.7450   45.9770 C   0  0  0  0  0  0  0  0  0  0  0  0
   59.3300   34.1980   44.6980 C   0  0  0  0  0  0  0  0  0  0  0  0
   57.4080   29.9670   45.6130 N   0  0  0  0  0  0  0  0  0  0  0  0
   58.3557   29.3240   48.4119 H   0  0  0  0  0  0  0  0  0  0  0  0
   59.9818   29.6287   47.7123 H   0  0  0  0  0  0  0  0  0  0  0  0
   58.7455   30.9318   47.7123 H   0  0  0  0  0  0  0  0  0  0  0  0
   59.6741   27.5789   45.8934 H   0  0  0  0  0  0  0  0  0  0  0  0
   58.2454   26.2003   43.8391 H   0  0  0  0  0  0  0  0  0  0  0  0
   57.2611   27.2497   42.7636 H   0  0  0  0  0  0  0  0  0  0  0  0
   59.0517   27.3919   42.7636 H   0  0  0  0  0  0  0  0  0  0  0  0
   56.0026   28.7446   42.8707 H   0  0  0  0  0  0  0  0  0  0  0  0
   55.2914   29.9449   44.0178 H   0  0  0  0  0  0  0  0  0  0  0  0
   56.7787   30.4198   41.5809 H   0  0  0  0  0  0  0  0  0  0  0  0
   55.9979   31.6060   42.7050 H   0  0  0  0  0  0  0  0  0  0  0  0
   58.2470   30.8970   44.0200 H   0  0  0  0  0  0  0  0  0  0  0  0
   58.7580   30.8690   42.4010 H   0  0  0  0  0  0  0  0  0  0  0  0
   58.9870   33.0127   42.4224 H   0  0  0  0  0  0  0  0  0  0  0  0
   57.1860   33.1108   42.6186 H   0  0  0  0  0  0  0  0  0  0  0  0
   56.5805   32.2310   45.2405 H   0  0  0  0  0  0  0  0  0  0  0  0
   56.8274   33.2151   47.5206 H   0  0  0  0  0  0  0  0  0  0  0  0
   58.6783   34.8230   47.9961 H   0  0  0  0  0  0  0  0  0  0  0  0
   60.2784   35.4551   46.1869 H   0  0  0  0  0  0  0  0  0  0  0  0
   60.0364   34.4803   43.9034 H   0  0  0  0  0  0  0  0  0  0  0  0
  1  2  1  0
  2  3  1  0
  3  4  2  0
  4  5  1  0
  4  6  1  0
  6  7  1  0
  7  8  1  0
  8  9  1  0
  9 10  1  0
 10 11  1  0
 11 12  2  0
 12 13  1  0
 13 14  2  0
 14 15  1  0
 15 16  2  0
  6 17  1  0
 17  2  2  0
 16 11  1  0
  1 18  1  0
  1 19  1  0
  1 20  1  0
  3 21  1  0
  5 22  1  0
  5 23  1  0
  5 24  1  0
  7 25  1  0
  7 26  1  0
  8 27  1  0
  8 28  1  0
  9 29  1  0
  9 30  1  0
 10 31  1  0
 10 32  1  0
 12 33  1  0
 13 34  1  0
 14 35  1  0
 15 36  1  0
 16 37  1  0
M  CHG  1   9   1
M  END
>  <UniqueID>  (56) 
48

>  <SMILES>  (56) 
Cc1cc(C)n(CC[NH2+]Cc2ccccc2)n1

>  <Energy>  (56) 
60.346229161758224

>  <Genealogy>  (56) 
Cc1cc(C)n(CC[NH2+]Cc2ccccc2)n1 (protonated)
Cc1cc(C)n(CC[NH2+]Cc2ccccc2)n1 (3D coordinates assigned)
Cc1cc(C)n(CC[NH2+]Cc2ccccc2)n1 (optimized conformer: 60.346229161758224 kcal/mol)

>  <smiles>  (56) 
Cc1cc(C)n(CCNCc2ccccc2)n1

>  <score_type>  (56) 
oracle

>  <origin>  (56) 
adg

>  <m_score__min__energy>  (56) 
-4.79

>  <m_primary>  (56) 
energy

$$$$
56:0
     RDKit          3D

 27 29  0  0  0  0  0  0  0  0999 V2000
   60.0230   36.0910   45.9540 C   0  0  0  0  0  0  0  0  0  0  0  0
   59.4240   34.7240   45.8090 C   0  0  0  0  0  0  0  0  0  0  0  0
   58.3720   34.5040   44.9080 C   0  0  0  0  0  0  0  0  0  0  0  0
   57.8380   33.2230   44.7450 C   0  0  0  0  0  0  0  0  0  0  0  0
   58.3520   32.1330   45.4710 C   0  0  0  0  0  0  0  0  0  0  0  0
   57.7780   30.7740   45.2900 C   0  0  0  0  0  0  0  0  0  0  0  0
   57.0980   30.2940   44.1690 C   0  0  0  0  0  0  0  0  0  0  0  0
   56.6740   28.9650   44.2910 C   0  0  0  0  0  0  0  0  0  0  0  0
   57.0170   28.3880   45.5070 C   0  0  0  0  0  0  0  0  0  0  0  0
   56.7140   27.0140   45.9260 C   0  0  0  0  0  0  0  0  0  0  0  0
   57.6600   26.1190   46.2850 N   0  0  0  0  0  0  0  0  0  0  0  0
   56.8950   25.0510   46.5710 C   0  0  0  0  0  0  0  0  0  0  0  0
   57.3560   23.9470   46.9620 O   0  0  0  0  0  0  0  0  0  0  0  0
   55.6200   25.2880   46.4000 O   0  0  0  0  0  0  0  0  0  0  0  0
   55.4650   26.5100   45.9940 N   0  0  0  0  0  0  0  0  0  0  0  0
   57.8440   29.5250   46.4250 S   0  0  0  0  0  0  0  0  0  0  0  0
   59.4230   32.3570   46.3580 C   0  0  0  0  0  0  0  0  0  0  0  0
   59.9560   33.6400   46.5190 C   0  0  0  0  0  0  0  0  0  0  0  0
   60.1292   36.3334   47.0217 H   0  0  0  0  0  0  0  0  0  0  0  0
   61.0122   36.1107   45.4733 H   0  0  0  0  0  0  0  0  0  0  0  0
   59.3670   36.8317   45.4733 H   0  0  0  0  0  0  0  0  0  0  0  0
   57.9650   35.3444   44.3265 H   0  0  0  0  0  0  0  0  0  0  0  0
   57.0071   33.0652   44.0417 H   0  0  0  0  0  0  0  0  0  0  0  0
   56.9124   30.9037   43.2725 H   0  0  0  0  0  0  0  0  0  0  0  0
   56.1239   28.4310   43.5022 H   0  0  0  0  0  0  0  0  0  0  0  0
   59.8436   31.5160   46.9287 H   0  0  0  0  0  0  0  0  0  0  0  0
   60.7987   33.7989   47.2079 H   0  0  0  0  0  0  0  0  0  0  0  0
  1  2  1  0
  2  3  2  0
  3  4  1  0
  4  5  2  0
  5  6  1  0
  6  7  2  0
  7  8  1  0
  8  9  2  0
  9 10  1  0
 10 11  2  0
 11 12  1  0
 12 13  2  0
 12 14  1  0
 14 15  1  0
  9 16  1  0
  5 17  1  0
 17 18  2  0
 18  2  1  0
 16  6  1  0
 15 10  1  0
  1 19  1  0
  1 20  1  0
  1 21  1  0
  3 22  1  0
  4 23  1  0
  7 24  1  0
  8 25  1  0
 17 26  1  0
 18 27  1  0
M  CHG  1  15  -1
M  END
>  <UniqueID>  (57) 
49

>  <SMILES>  (57) 
Cc1ccc(-c2ccc(-c3nc(=O)o[n-]3)s2)cc1

>  <Energy>  (57) 
90.53845764779416

>  <Genealogy>  (57) 
Cc1ccc(-c2ccc(-c3nc(=O)o[n-]3)s2)cc1 (protonated)
Cc1ccc(-c2ccc(-c3nc(=O)o[n-]3)s2)cc1 (3D coordinates assigned)
Cc1ccc(-c2ccc(-c3nc(=O)o[n-]3)s2)cc1 (optimized conformer: 90.53845764779416 kcal/mol)

>  <smiles>  (57) 
Cc1ccc(-c2ccc(-c3nc(=O)o[nH]3)s2)cc1

>  <score_type>  (57) 
oracle

>  <origin>  (57) 
adg

>  <m_score__min__energy>  (57) 
-9.0299999999999994

>  <m_primary>  (57) 
energy

$$$$
57:0
     RDKit          3D

 40 43  0  0  0  0  0  0  0  0999 V2000
   57.1710   30.0960   45.3040 O   0  0  0  0  0  0  0  0  0  0  0  0
   58.0590   29.8750   46.1720 C   0  0  0  0  0  0  0  0  0  0  0  0
   58.4350   28.5150   46.4520 N   0  0  0  0  0  0  0  0  0  0  0  0
   57.4090   27.4630   46.3970 C   0  0  0  0  0  0  0  0  0  0  0  0
   57.9090   26.1730   47.0540 C   0  0  0  0  0  0  0  0  0  0  0  0
   59.2360   25.6890   46.4410 C   0  0  0  0  0  0  0  0  0  0  0  0
   60.1680   26.8320   45.9920 C   0  0  0  0  0  0  0  0  0  0  0  0
   59.8440   28.1590   46.6820 C   0  0  0  0  0  0  0  0  0  0  0  0
   58.6940   30.9780   46.8580 N   0  0  0  0  0  0  0  0  0  0  0  0
   58.8320   32.2850   46.2570 C   0  0  0  0  0  0  0  0  0  0  0  0
   57.7310   32.9560   45.6930 C   0  0  0  0  0  0  0  0  0  0  0  0
   57.8550   34.2840   45.2730 C   0  0  0  0  0  0  0  0  0  0  0  0
   59.0630   34.9640   45.4410 C   0  0  0  0  0  0  0  0  0  0  0  0
   60.1550   34.3190   46.0250 C   0  0  0  0  0  0  0  0  0  0  0  0
   60.0460   32.9820   46.4230 C   0  0  0  0  0  0  0  0  0  0  0  0
   61.4640   32.1300   47.1230 S   0  0  0  0  0  0  0  0  0  0  0  0
   60.5040   31.4130   48.4610 C   0  0  0  0  0  0  0  0  0  0  0  0
   61.0040   31.3980   49.7670 C   0  0  0  0  0  0  0  0  0  0  0  0
   60.2890   30.7490   50.7790 C   0  0  0  0  0  0  0  0  0  0  0  0
   59.0740   30.1210   50.4890 C   0  0  0  0  0  0  0  0  0  0  0  0
   58.5590   30.1550   49.1890 C   0  0  0  0  0  0  0  0  0  0  0  0
   59.2720   30.8030   48.1670 C   0  0  0  0  0  0  0  0  0  0  0  0
   56.5091   27.8104   46.9256 H   0  0  0  0  0  0  0  0  0  0  0  0
   57.1794   27.2525   45.3420 H   0  0  0  0  0  0  0  0  0  0  0  0
   58.0604   26.3572   48.1279 H   0  0  0  0  0  0  0  0  0  0  0  0
   57.1530   25.3918   46.8864 H   0  0  0  0  0  0  0  0  0  0  0  0
   59.7653   25.0851   47.1927 H   0  0  0  0  0  0  0  0  0  0  0  0
   58.9808   25.1115   45.5403 H   0  0  0  0  0  0  0  0  0  0  0  0
   61.2056   26.5550   46.2300 H   0  0  0  0  0  0  0  0  0  0  0  0
   60.0247   26.9743   44.9107 H   0  0  0  0  0  0  0  0  0  0  0  0
   60.0231   28.0608   47.7629 H   0  0  0  0  0  0  0  0  0  0  0  0
   60.4882   28.9483   46.2672 H   0  0  0  0  0  0  0  0  0  0  0  0
   56.7692   32.4338   45.5821 H   0  0  0  0  0  0  0  0  0  0  0  0
   56.9983   34.7946   44.8088 H   0  0  0  0  0  0  0  0  0  0  0  0
   59.1545   36.0098   45.1126 H   0  0  0  0  0  0  0  0  0  0  0  0
   61.1005   34.8616   46.1721 H   0  0  0  0  0  0  0  0  0  0  0  0
   61.9575   31.8955   49.9979 H   0  0  0  0  0  0  0  0  0  0  0  0
   60.6837   30.7327   51.8056 H   0  0  0  0  0  0  0  0  0  0  0  0
   58.5221   29.5992   51.2847 H   0  0  0  0  0  0  0  0  0  0  0  0
   57.5950   29.6740   48.9669 H   0  0  0  0  0  0  0  0  0  0  0  0
  1  2  2  0
  2  3  1  0
  3  4  1  0
  4  5  1  0
  5  6  1  0
  6  7  1  0
  7  8  1  0
  2  9  1  0
  9 10  1  0
 10 11  2  0
 11 12  1  0
 12 13  2  0
 13 14  1  0
 14 15  2  0
 15 16  1  0
 16 17  1  0
 17 18  2  0
 18 19  1  0
 19 20  2  0
 20 21  1  0
 21 22  2  0
  8  3  1  0
 22  9  1  0
 15 10  1  0
 22 17  1  0
  4 23  1  0
  4 24  1  0
  5 25  1  0
  5 26  1  0
  6 27  1  0
  6 28  1  0
  7 29  1  0
  7 30  1  0
  8 31  1  0
  8 32  1  0
 11 33  1  0
 12 34  1  0
 13 35  1  0
 14 36  1  0
 18 37  1  0
 19 38  1  0
 20 39  1  0
 21 40  1  0
M  END
>  <UniqueID>  (58) 
50

>  <SMILES>  (58) 
O=C(N1CCCCC1)N1c2ccccc2Sc2ccccc21

>  <Energy>  (58) 
66.59430165484154

>  <Genealogy>  (58) 
O=C(N1CCCCC1)N1c2ccccc2Sc2ccccc21 (3D coordinates assigned)
O=C(N1CCCCC1)N1c2ccccc2Sc2ccccc21 (nonaromatic ring conformer: 66.59430165484154 kcal/mol)

>  <smiles>  (58) 
O=C(N1CCCCC1)N1c2ccccc2Sc2ccccc21

>  <score_type>  (58) 
oracle

>  <origin>  (58) 
adg

>  <m_score__min__energy>  (58) 
-7.3899999999999997

>  <m_primary>  (58) 
energy

$$$$
58:0
     RDKit          3D

 42 44  0  0  0  0  0  0  0  0999 V2000
   57.8940   32.0700   42.3730 C   0  0  0  0  0  0  0  0  0  0  0  0
   57.9250   32.6120   43.7730 C   0  0  0  0  0  0  0  0  0  0  0  0
   58.8910   33.5830   44.0890 C   0  0  0  0  0  0  0  0  0  0  0  0
   58.9370   34.1530   45.3630 C   0  0  0  0  0  0  0  0  0  0  0  0
   58.0160   33.7650   46.3340 C   0  0  0  0  0  0  0  0  0  0  0  0
   57.0600   32.7900   46.0410 C   0  0  0  0  0  0  0  0  0  0  0  0
   57.0260   32.1790   44.7800 C   0  0  0  0  0  0  0  0  0  0  0  0
   56.0410   31.1570   44.5570 N   0  0  0  0  0  0  0  0  0  0  0  0
   56.1630   29.7390   44.7630 C   0  0  0  0  0  0  0  0  0  0  0  0
   55.1620   29.0240   44.4960 O   0  0  0  0  0  0  0  0  0  0  0  0
   57.3870   29.0800   45.3200 C   0  0  0  0  0  0  0  0  0  0  0  0
   58.1660   29.7440   46.2120 C   0  0  0  0  0  0  0  0  0  0  0  0
   59.4090   29.1990   46.8260 C   0  0  0  0  0  0  0  0  0  0  0  0
   60.3860   30.1160   47.4680 C   0  0  0  0  0  0  0  0  0  0  0  0
   60.9380   31.1990   46.7540 C   0  0  0  0  0  0  0  0  0  0  0  0
   61.8600   32.0550   47.3640 C   0  0  0  0  0  0  0  0  0  0  0  0
   62.2470   31.8400   48.6880 C   0  0  0  0  0  0  0  0  0  0  0  0
   61.7170   30.7650   49.4040 C   0  0  0  0  0  0  0  0  0  0  0  0
   60.7950   29.9040   48.8000 C   0  0  0  0  0  0  0  0  0  0  0  0
   59.6280   27.9210   46.8560 N   0  0  0  0  0  0  0  0  0  0  0  0
   58.5030   26.8390   46.1370 S   0  0  0  0  0  0  0  0  0  0  0  0
   57.5000   26.3940   47.1630 O   0  0  0  0  0  0  0  0  0  0  0  0
   59.2250   25.6430   45.5810 O   0  0  0  0  0  0  0  0  0  0  0  0
   57.7090   27.7300   44.8730 N   0  0  2  0  0  0  0  0  0  0  0  0
   58.5580   27.7800   43.6760 C   0  0  0  0  0  0  0  0  0  0  0  0
   57.8312   30.9723   42.4061 H   0  0  0  0  0  0  0  0  0  0  0  0
   57.0174   32.4716   41.8437 H   0  0  0  0  0  0  0  0  0  0  0  0
   58.8107   32.3690   41.8437 H   0  0  0  0  0  0  0  0  0  0  0  0
   59.6178   33.8969   43.3253 H   0  0  0  0  0  0  0  0  0  0  0  0
   59.7005   34.9085   45.6001 H   0  0  0  0  0  0  0  0  0  0  0  0
   58.0419   34.2270   47.3320 H   0  0  0  0  0  0  0  0  0  0  0  0
   56.3266   32.4987   46.8073 H   0  0  0  0  0  0  0  0  0  0  0  0
   57.8566   30.7588   46.5026 H   0  0  0  0  0  0  0  0  0  0  0  0
   60.6411   31.3719   45.7090 H   0  0  0  0  0  0  0  0  0  0  0  0
   62.2814   32.8998   46.7994 H   0  0  0  0  0  0  0  0  0  0  0  0
   62.9693   32.5174   49.1670 H   0  0  0  0  0  0  0  0  0  0  0  0
   62.0254   30.5947   50.4461 H   0  0  0  0  0  0  0  0  0  0  0  0
   60.3863   29.0556   49.3684 H   0  0  0  0  0  0  0  0  0  0  0  0
   56.8360   27.2030   44.6390 H   0  0  0  0  0  0  0  0  0  0  0  0
   59.6140   27.8422   43.9778 H   0  0  0  0  0  0  0  0  0  0  0  0
   58.4008   26.8710   43.0768 H   0  0  0  0  0  0  0  0  0  0  0  0
   58.2952   28.6642   43.0768 H   0  0  0  0  0  0  0  0  0  0  0  0
  1  2  1  0
  2  3  2  0
  3  4  1  0
  4  5  2  0
  5  6  1  0
  6  7  2  0
  7  8  1  0
  8  9  1  0
  9 10  2  0
  9 11  1  0
 11 12  2  0
 12 13  1  0
 13 14  1  0
 14 15  2  0
 15 16  1  0
 16 17  2  0
 17 18  1  0
 18 19  2  0
 13 20  2  0
 20 21  1  0
 21 22  2  0
 21 23  2  0
 21 24  1  0
 24 25  1  0
  7  2  1  0
 24 11  1  0
 19 14  1  0
  1 26  1  0
  1 27  1  0
  1 28  1  0
  3 29  1  0
  4 30  1  0
  5 31  1  0
  6 32  1  0
 12 33  1  0
 15 34  1  0
 16 35  1  0
 17 36  1  0
 18 37  1  0
 19 38  1  0
 24 39  1  6
 25 40  1  0
 25 41  1  0
 25 42  1  0
M  CHG  2   8  -1  24   1
M  END
>  <UniqueID>  (59) 
51

>  <SMILES>  (59) 
Cc1ccccc1[N-]C(=O)C1=CC(c2ccccc2)=NS(=O)(=O)[N@@H+]1C

>  <Energy>  (59) 
61.84992755496559

>  <Genealogy>  (59) 
Cc1ccccc1[N-]C(=O)C1=CC(c2ccccc2)=NS(=O)(=O)[NH+]1C (protonated)
Cc1ccccc1[N-]C(=O)C1=CC(c2ccccc2)=NS(=O)(=O)[N@@H+]1C (chirality)
Cc1ccccc1[N-]C(=O)C1=CC(c2ccccc2)=NS(=O)(=O)[N@@H+]1C (3D coordinates assigned)
Cc1ccccc1[N-]C(=O)C1=CC(c2ccccc2)=NS(=O)(=O)[N@@H+]1C (nonaromatic ring conformer: 61.84992755496559 kcal/mol)

>  <smiles>  (59) 
Cc1ccccc1NC(=O)C1=CC(c2ccccc2)=NS(=O)(=O)N1C

>  <score_type>  (59) 
oracle

>  <origin>  (59) 
adg

>  <m_score__min__energy>  (59) 
-8.6899999999999995

>  <m_primary>  (59) 
energy

$$$$
59:0
     RDKit          3D

 29 31  0  0  0  0  0  0  0  0999 V2000
   59.4960   34.8640   46.1330 C   0  0  0  0  0  0  0  0  0  0  0  0
   59.2830   34.4990   44.8010 C   0  0  0  0  0  0  0  0  0  0  0  0
   58.3480   33.5070   44.4870 C   0  0  0  0  0  0  0  0  0  0  0  0
   57.6150   32.8750   45.5110 C   0  0  0  0  0  0  0  0  0  0  0  0
   56.6670   31.8740   45.2440 O   0  0  0  0  0  0  0  0  0  0  0  0
   56.9440   30.6880   44.5540 C   0  0  0  0  0  0  0  0  0  0  0  0
   56.3260   30.4750   43.3200 C   0  0  0  0  0  0  0  0  0  0  0  0
   56.5590   29.2910   42.6220 C   0  0  0  0  0  0  0  0  0  0  0  0
   57.3930   28.3450   43.1290 N   0  0  0  0  0  0  0  0  0  0  0  0
   58.0380   28.5260   44.3180 C   0  0  0  0  0  0  0  0  0  0  0  0
   58.9100   27.5410   44.8070 C   0  0  0  0  0  0  0  0  0  0  0  0
   59.5870   27.7370   46.0130 C   0  0  0  0  0  0  0  0  0  0  0  0
   59.4080   28.9180   46.7350 C   0  0  0  0  0  0  0  0  0  0  0  0
   58.5410   29.9070   46.2620 C   0  0  0  0  0  0  0  0  0  0  0  0
   57.8350   29.7170   45.0600 C   0  0  0  0  0  0  0  0  0  0  0  0
   57.8430   33.2430   46.8430 C   0  0  0  0  0  0  0  0  0  0  0  0
   58.7780   34.2350   47.1530 C   0  0  0  0  0  0  0  0  0  0  0  0
   60.2290   35.6466   46.3783 H   0  0  0  0  0  0  0  0  0  0  0  0
   59.8512   34.9923   43.9986 H   0  0  0  0  0  0  0  0  0  0  0  0
   58.1846   33.2196   43.4379 H   0  0  0  0  0  0  0  0  0  0  0  0
   55.6567   31.2400   42.8996 H   0  0  0  0  0  0  0  0  0  0  0  0
   56.0645   29.1211   41.6542 H   0  0  0  0  0  0  0  0  0  0  0  0
   57.5410   27.4680   42.5790 H   0  0  0  0  0  0  0  0  0  0  0  0
   59.0608   26.6114   44.2386 H   0  0  0  0  0  0  0  0  0  0  0  0
   60.2634   26.9581   46.3949 H   0  0  0  0  0  0  0  0  0  0  0  0
   59.9510   29.0709   47.6793 H   0  0  0  0  0  0  0  0  0  0  0  0
   58.4100   30.8384   46.8323 H   0  0  0  0  0  0  0  0  0  0  0  0
   57.2829   32.7484   47.6502 H   0  0  0  0  0  0  0  0  0  0  0  0
   58.9486   34.5206   48.2015 H   0  0  0  0  0  0  0  0  0  0  0  0
  1  2  2  0
  2  3  1  0
  3  4  2  0
  4  5  1  0
  5  6  1  0
  6  7  2  0
  7  8  1  0
  8  9  2  0
  9 10  1  0
 10 11  2  0
 11 12  1  0
 12 13  2  0
 13 14  1  0
 14 15  2  0
  4 16  1  0
 16 17  2  0
 17  1  1  0
 15  6  1  0
 15 10  1  0
  1 18  1  0
  2 19  1  0
  3 20  1  0
  7 21  1  0
  8 22  1  0
  9 23  1  0
 11 24  1  0
 12 25  1  0
 13 26  1  0
 14 27  1  0
 16 28  1  0
 17 29  1  0
M  CHG  1   9   1
M  END
>  <UniqueID>  (60) 
52

>  <SMILES>  (60) 
c1ccc(Oc2cc[nH+]c3ccccc23)cc1

>  <Energy>  (60) 
44.00955356133122

>  <Genealogy>  (60) 
c1ccc(Oc2cc[nH+]c3ccccc23)cc1 (protonated)
c1ccc(Oc2cc[nH+]c3ccccc23)cc1 (3D coordinates assigned)
c1ccc(Oc2cc[nH+]c3ccccc23)cc1 (optimized conformer: 44.00955356133122 kcal/mol)

>  <smiles>  (60) 
c1ccc(Oc2ccnc3ccccc23)cc1

>  <score_type>  (60) 
oracle

>  <origin>  (60) 
adg

>  <m_score__min__energy>  (60) 
-5.4699999999999998

>  <m_primary>  (60) 
energy

$$$$
60:0
     RDKit          3D

 38 39  0  0  0  0  0  0  0  0999 V2000
   58.5560   32.3680   49.2160 C   0  0  0  0  0  0  0  0  0  0  0  0
   59.2720   33.5730   48.9650 O   0  0  0  0  0  0  0  0  0  0  0  0
   60.5550   33.6340   48.3990 C   0  0  0  0  0  0  0  0  0  0  0  0
   61.7150   33.7290   49.1940 C   0  0  0  0  0  0  0  0  0  0  0  0
   62.9750   33.8190   48.5970 C   0  0  0  0  0  0  0  0  0  0  0  0
   63.0930   33.8160   47.2070 C   0  0  0  0  0  0  0  0  0  0  0  0
   61.9520   33.7180   46.4080 C   0  0  0  0  0  0  0  0  0  0  0  0
   60.6810   33.6200   46.9960 C   0  0  0  0  0  0  0  0  0  0  0  0
   59.5190   33.5070   46.1610 N   0  0  0  0  0  0  0  0  0  0  0  0
   58.5510   34.5780   45.9920 C   0  0  0  0  0  0  0  0  0  0  0  0
   57.5340   34.0450   44.9920 C   0  0  0  0  0  0  0  0  0  0  0  0
   57.6860   32.5190   45.0300 C   0  0  1  0  0  0  0  0  0  0  0  0
   57.4020   31.8480   43.6760 C   0  0  0  0  0  0  0  0  0  0  0  0
   57.7620   30.4310   43.7250 N   0  0  0  0  0  0  0  0  0  0  0  0
   56.9700   29.4460   44.4030 C   0  0  0  0  0  0  0  0  0  0  0  0
   57.4670   28.0410   44.5130 C   0  0  0  0  0  0  0  0  0  0  0  0
   55.8670   29.7580   44.9270 O   0  0  0  0  0  0  0  0  0  0  0  0
   59.1150   32.2690   45.5170 C   0  0  0  0  0  0  0  0  0  0  0  0
   58.4650   32.2149   50.3015 H   0  0  0  0  0  0  0  0  0  0  0  0
   57.5528   32.4379   48.7702 H   0  0  0  0  0  0  0  0  0  0  0  0
   59.0971   31.5203   48.7702 H   0  0  0  0  0  0  0  0  0  0  0  0
   61.6278   33.7323   50.2905 H   0  0  0  0  0  0  0  0  0  0  0  0
   63.8757   33.8924   49.2242 H   0  0  0  0  0  0  0  0  0  0  0  0
   64.0860   33.8909   46.7398 H   0  0  0  0  0  0  0  0  0  0  0  0
   62.0496   33.7176   45.3123 H   0  0  0  0  0  0  0  0  0  0  0  0
   58.0636   34.8117   46.9500 H   0  0  0  0  0  0  0  0  0  0  0  0
   59.0239   35.5071   45.6409 H   0  0  0  0  0  0  0  0  0  0  0  0
   56.5153   34.3377   45.2862 H   0  0  0  0  0  0  0  0  0  0  0  0
   57.7033   34.4478   43.9825 H   0  0  0  0  0  0  0  0  0  0  0  0
   56.9418   32.0668   45.7021 H   0  0  0  0  0  0  0  0  0  0  0  0
   56.3313   31.9423   43.4420 H   0  0  0  0  0  0  0  0  0  0  0  0
   58.0031   32.3428   42.8989 H   0  0  0  0  0  0  0  0  0  0  0  0
   58.6870   30.1460   43.3320 H   0  0  0  0  0  0  0  0  0  0  0  0
   57.5635   27.7682   45.5743 H   0  0  0  0  0  0  0  0  0  0  0  0
   56.7549   27.3608   44.0229 H   0  0  0  0  0  0  0  0  0  0  0  0
   58.4484   27.9598   44.0229 H   0  0  0  0  0  0  0  0  0  0  0  0
   59.1379   31.4355   46.2344 H   0  0  0  0  0  0  0  0  0  0  0  0
   59.7890   31.9954   44.6919 H   0  0  0  0  0  0  0  0  0  0  0  0
  1  2  1  0
  2  3  1  0
  3  4  2  0
  4  5  1  0
  5  6  2  0
  6  7  1  0
  7  8  2  0
  8  9  1  0
  9 10  1  0
 10 11  1  0
 11 12  1  0
 12 13  1  0
 13 14  1  0
 14 15  1  0
 15 16  1  0
 15 17  2  0
 12 18  1  0
  8  3  1  0
 18  9  1  0
  1 19  1  0
  1 20  1  0
  1 21  1  0
  4 22  1  0
  5 23  1  0
  6 24  1  0
  7 25  1  0
 10 26  1  0
 10 27  1  0
 11 28  1  0
 11 29  1  0
 12 30  1  1
 13 31  1  0
 13 32  1  0
 14 33  1  0
 16 34  1  0
 16 35  1  0
 16 36  1  0
 18 37  1  0
 18 38  1  0
M  END
>  <UniqueID>  (61) 
53

>  <SMILES>  (61) 
COc1ccccc1N1CC[C@@H](CNC(C)=O)C1

>  <Energy>  (61) 
37.672688292974605

>  <Genealogy>  (61) 
COc1ccccc1N1CC[C@@H](CNC(C)=O)C1 (chirality)
COc1ccccc1N1CC[C@@H](CNC(C)=O)C1 (3D coordinates assigned)
COc1ccccc1N1CC[C@@H](CNC(C)=O)C1 (nonaromatic ring conformer: 37.672688292974605 kcal/mol)

>  <smiles>  (61) 
COc1ccccc1N1CCC(CNC(C)=O)C1

>  <score_type>  (61) 
oracle

>  <origin>  (61) 
adg

>  <m_score__min__energy>  (61) 
-6.5800000000000001

>  <m_primary>  (61) 
energy

$$$$
61:0
     RDKit          3D

 33 34  0  0  0  0  0  0  0  0999 V2000
   59.7990   30.4860   45.8600 C   0  0  0  0  0  0  0  0  0  0  0  0
   58.9530   29.5080   45.0760 C   0  0  0  0  0  0  0  0  0  0  0  0
   59.1240   28.1450   45.3410 C   0  0  0  0  0  0  0  0  0  0  0  0
   58.3740   27.2200   44.6340 C   0  0  0  0  0  0  0  0  0  0  0  0
   58.5160   25.9880   44.8600 O   0  0  0  0  0  0  0  0  0  0  0  0
   57.4850   27.6420   43.7030 N   0  0  0  0  0  0  0  0  0  0  0  0
   57.3100   28.9660   43.4330 C   0  0  0  0  0  0  0  0  0  0  0  0
   56.3230   29.3310   42.4530 N   0  0  0  0  0  0  0  0  0  0  0  0
   58.0660   29.9160   44.0960 N   0  0  0  0  0  0  0  0  0  0  0  0
   57.9120   31.3520   43.7760 C   0  0  0  0  0  0  0  0  0  0  0  0
   57.1260   32.0720   44.8790 C   0  0  0  0  0  0  0  0  0  0  0  0
   58.0050   33.0630   45.5930 C   0  0  0  0  0  0  0  0  0  0  0  0
   58.6850   34.0570   44.8710 C   0  0  0  0  0  0  0  0  0  0  0  0
   59.4740   34.9980   45.5390 C   0  0  0  0  0  0  0  0  0  0  0  0
   59.5810   34.9590   46.9320 C   0  0  0  0  0  0  0  0  0  0  0  0
   58.8960   33.9810   47.6590 C   0  0  0  0  0  0  0  0  0  0  0  0
   58.1060   33.0390   46.9950 C   0  0  0  0  0  0  0  0  0  0  0  0
   59.6524   30.3165   46.9369 H   0  0  0  0  0  0  0  0  0  0  0  0
   60.8593   30.3389   45.6067 H   0  0  0  0  0  0  0  0  0  0  0  0
   59.5007   31.5140   45.6067 H   0  0  0  0  0  0  0  0  0  0  0  0
   59.8454   27.8120   46.1017 H   0  0  0  0  0  0  0  0  0  0  0  0
   56.9170   26.9310   43.1870 H   0  0  0  0  0  0  0  0  0  0  0  0
   55.4980   28.7410   42.2130 H   0  0  0  0  0  0  0  0  0  0  0  0
   56.4550   30.1930   41.8780 H   0  0  0  0  0  0  0  0  0  0  0  0
   58.9078   31.8103   43.6843 H   0  0  0  0  0  0  0  0  0  0  0  0
   57.3598   31.4461   42.8293 H   0  0  0  0  0  0  0  0  0  0  0  0
   56.2742   32.6026   44.4287 H   0  0  0  0  0  0  0  0  0  0  0  0
   56.7685   31.3267   45.6048 H   0  0  0  0  0  0  0  0  0  0  0  0
   58.5965   34.0954   43.7752 H   0  0  0  0  0  0  0  0  0  0  0  0
   60.0110   35.7697   44.9679 H   0  0  0  0  0  0  0  0  0  0  0  0
   60.2044   35.6981   47.4565 H   0  0  0  0  0  0  0  0  0  0  0  0
   58.9791   33.9530   48.7555 H   0  0  0  0  0  0  0  0  0  0  0  0
   57.5614   32.2763   47.5710 H   0  0  0  0  0  0  0  0  0  0  0  0
  1  2  1  0
  2  3  2  0
  3  4  1  0
  4  5  2  0
  4  6  1  0
  6  7  2  0
  7  8  1  0
  7  9  1  0
  9 10  1  0
 10 11  1  0
 11 12  1  0
 12 13  2  0
 13 14  1  0
 14 15  2  0
 15 16  1  0
 16 17  2  0
  9  2  1  0
 17 12  1  0
  1 18  1  0
  1 19  1  0
  1 20  1  0
  3 21  1  0
  6 22  1  0
  8 23  1  0
  8 24  1  0
 10 25  1  0
 10 26  1  0
 11 27  1  0
 11 28  1  0
 13 29  1  0
 14 30  1  0
 15 31  1  0
 16 32  1  0
 17 33  1  0
M  CHG  1   6   1
M  END
>  <UniqueID>  (62) 
54

>  <SMILES>  (62) 
Cc1cc(=O)[nH+]c(N)n1CCc1ccccc1

>  <Energy>  (62) 
36.40393225514926

>  <Genealogy>  (62) 
Cc1cc(=O)[nH+]c(N)n1CCc1ccccc1 (protonated)
Cc1cc(=O)[nH+]c(N)n1CCc1ccccc1 (3D coordinates assigned)
Cc1cc(=O)[nH+]c(N)n1CCc1ccccc1 (optimized conformer: 36.40393225514926 kcal/mol)

>  <smiles>  (62) 
Cc1cc(=O)nc(N)n1CCc1ccccc1

>  <score_type>  (62) 
oracle

>  <origin>  (62) 
adg

>  <m_score__min__energy>  (62) 
-5.0499999999999998

>  <m_primary>  (62) 
energy

$$$$
62:0
     RDKit          3D

 57 59  0  0  0  0  0  0  0  0999 V2000
   56.1410   25.6800   46.0110 C   0  0  0  0  0  0  0  0  0  0  0  0
   56.4630   27.0680   46.0190 O   0  0  0  0  0  0  0  0  0  0  0  0
   57.7610   27.5850   46.1640 C   0  0  0  0  0  0  0  0  0  0  0  0
   58.4190   27.6040   47.4110 C   0  0  0  0  0  0  0  0  0  0  0  0
   59.7140   28.1170   47.5180 C   0  0  0  0  0  0  0  0  0  0  0  0
   60.3680   28.6090   46.3880 C   0  0  0  0  0  0  0  0  0  0  0  0
   59.7280   28.5950   45.1480 C   0  0  0  0  0  0  0  0  0  0  0  0
   58.4160   28.1030   45.0310 C   0  0  0  0  0  0  0  0  0  0  0  0
   57.7640   28.0340   43.7050 C   0  0  0  0  0  0  0  0  0  0  0  0
   57.0480   28.9930   43.1910 N   0  0  0  0  0  0  0  0  0  0  0  0
   56.6890   30.2410   43.8060 C   0  0  0  0  0  0  0  0  0  0  0  0
   55.9540   30.2670   44.8320 O   0  0  0  0  0  0  0  0  0  0  0  0
   57.0860   31.5240   43.1370 C   0  0  0  0  0  0  0  0  0  0  0  0
   58.3460   32.1510   43.7550 C   0  0  0  0  0  0  0  0  0  0  0  0
   58.0400   33.2080   44.7890 C   0  0  0  0  0  0  0  0  0  0  0  0
   57.1980   34.1100   44.5300 O   0  0  0  0  0  0  0  0  0  0  0  0
   58.6700   33.1770   46.0840 N   0  0  0  0  0  0  0  0  0  0  0  0
   58.9860   34.4490   46.7510 C   0  0  0  0  0  0  0  0  0  0  0  0
   59.5370   34.2340   48.1650 C   0  0  0  0  0  0  0  0  0  0  0  0
   60.5240   33.1490   48.1660 N   0  0  0  0  0  0  0  0  0  0  0  0
   61.6980   33.2580   48.9830 C   0  0  0  0  0  0  0  0  0  0  0  0
   61.5700   33.4960   50.3600 C   0  0  0  0  0  0  0  0  0  0  0  0
   62.7060   33.6140   51.1630 C   0  0  0  0  0  0  0  0  0  0  0  0
   63.9760   33.4980   50.5970 C   0  0  0  0  0  0  0  0  0  0  0  0
   64.1160   33.2570   49.2280 C   0  0  0  0  0  0  0  0  0  0  0  0
   62.9760   33.1300   48.4080 C   0  0  0  0  0  0  0  0  0  0  0  0
   63.0730   32.8660   47.0330 O   0  0  0  0  0  0  0  0  0  0  0  0
   63.3830   33.8440   46.0480 C   0  0  0  0  0  0  0  0  0  0  0  0
   60.2620   31.8920   47.4520 C   0  0  0  0  0  0  0  0  0  0  0  0
   58.8800   31.9050   46.7910 C   0  0  0  0  0  0  0  0  0  0  0  0
   56.0568   25.3172   47.0460 H   0  0  0  0  0  0  0  0  0  0  0  0
   55.1839   25.5286   45.4904 H   0  0  0  0  0  0  0  0  0  0  0  0
   56.9337   25.1227   45.4904 H   0  0  0  0  0  0  0  0  0  0  0  0
   57.9099   27.2128   48.3042 H   0  0  0  0  0  0  0  0  0  0  0  0
   60.2191   28.1331   48.4951 H   0  0  0  0  0  0  0  0  0  0  0  0
   61.3893   29.0084   46.4746 H   0  0  0  0  0  0  0  0  0  0  0  0
   60.2527   28.9709   44.2573 H   0  0  0  0  0  0  0  0  0  0  0  0
   57.8920   27.1142   43.1155 H   0  0  0  0  0  0  0  0  0  0  0  0
   57.2796   31.3209   42.0734 H   0  0  0  0  0  0  0  0  0  0  0  0
   56.2599   32.2378   43.2714 H   0  0  0  0  0  0  0  0  0  0  0  0
   58.9341   31.3540   44.2335 H   0  0  0  0  0  0  0  0  0  0  0  0
   58.8994   32.6416   42.9407 H   0  0  0  0  0  0  0  0  0  0  0  0
   59.7384   34.9856   46.1544 H   0  0  0  0  0  0  0  0  0  0  0  0
   58.0556   35.0300   46.8334 H   0  0  0  0  0  0  0  0  0  0  0  0
   60.0162   35.1611   48.5128 H   0  0  0  0  0  0  0  0  0  0  0  0
   58.7077   33.9646   48.8356 H   0  0  0  0  0  0  0  0  0  0  0  0
   60.5701   33.5900   50.8088 H   0  0  0  0  0  0  0  0  0  0  0  0
   62.5997   33.7985   52.2422 H   0  0  0  0  0  0  0  0  0  0  0  0
   64.8698   33.5966   51.2306 H   0  0  0  0  0  0  0  0  0  0  0  0
   65.1200   33.1659   48.7879 H   0  0  0  0  0  0  0  0  0  0  0  0
   63.6799   34.7808   46.5422 H   0  0  0  0  0  0  0  0  0  0  0  0
   64.2106   33.4824   45.4200 H   0  0  0  0  0  0  0  0  0  0  0  0
   62.4982   34.0252   45.4200 H   0  0  0  0  0  0  0  0  0  0  0  0
   61.0292   31.7542   46.6758 H   0  0  0  0  0  0  0  0  0  0  0  0
   60.2914   31.0671   48.1791 H   0  0  0  0  0  0  0  0  0  0  0  0
   58.8122   31.0743   46.0732 H   0  0  0  0  0  0  0  0  0  0  0  0
   58.1086   31.7929   47.5671 H   0  0  0  0  0  0  0  0  0  0  0  0
  1  2  1  0
  2  3  1  0
  3  4  2  0
  4  5  1  0
  5  6  2  0
  6  7  1  0
  7  8  2  0
  8  9  1  0
  9 10  2  3
 10 11  1  0
 11 12  2  0
 11 13  1  0
 13 14  1  0
 14 15  1  0
 15 16  2  0
 15 17  1  0
 17 18  1  0
 18 19  1  0
 19 20  1  0
 20 21  1  0
 21 22  2  0
 22 23  1  0
 23 24  2  0
 24 25  1  0
 25 26  2  0
 26 27  1  0
 27 28  1  0
 20 29  1  0
 29 30  1  0
  8  3  1  0
 30 17  1  0
 26 21  1  0
  1 31  1  0
  1 32  1  0
  1 33  1  0
  4 34  1  0
  5 35  1  0
  6 36  1  0
  7 37  1  0
  9 38  1  0
 13 39  1  0
 13 40  1  0
 14 41  1  0
 14 42  1  0
 18 43  1  0
 18 44  1  0
 19 45  1  0
 19 46  1  0
 22 47  1  0
 23 48  1  0
 24 49  1  0
 25 50  1  0
 28 51  1  0
 28 52  1  0
 28 53  1  0
 29 54  1  0
 29 55  1  0
 30 56  1  0
 30 57  1  0
M  END
>  <UniqueID>  (63) 
55

>  <SMILES>  (63) 
COc1ccccc1C=NC(=O)CCC(=O)N1CCN(c2ccccc2OC)CC1

>  <Energy>  (63) 
69.03812689904356

>  <Genealogy>  (63) 
COc1ccccc1C=NC(=O)CCC(=O)N1CCN(c2ccccc2OC)CC1 (3D coordinates assigned)
COc1ccccc1C=NC(=O)CCC(=O)N1CCN(c2ccccc2OC)CC1 (nonaromatic ring conformer: 69.03812689904356 kcal/mol)

>  <smiles>  (63) 
COc1ccccc1C=NC(=O)CCC(=O)N1CCN(c2ccccc2OC)CC1

>  <score_type>  (63) 
oracle

>  <origin>  (63) 
adg

>  <m_score__min__energy>  (63) 
-8.4399999999999995

>  <m_primary>  (63) 
energy

$$$$
63:0
     RDKit          3D

 35 36  0  0  0  0  0  0  0  0999 V2000
   55.0910   23.2260   44.8000 C   0  0  0  0  0  0  0  0  0  0  0  0
   55.5830   24.5350   45.3280 C   0  0  0  0  0  0  0  0  0  0  0  0
   54.7710   25.5620   45.6450 N   0  0  0  0  0  0  0  0  0  0  0  0
   55.5440   26.5530   46.0660 N   0  0  0  0  0  0  0  0  0  0  0  0
   56.8180   26.1160   45.9960 C   0  0  0  0  0  0  0  0  0  0  0  0
   57.9980   26.9480   46.4070 C   0  0  0  0  0  0  0  0  0  0  0  0
   57.9750   28.3220   45.7300 C   0  0  0  0  0  0  0  0  0  0  0  0
   57.3380   28.2440   44.4060 N   0  0  0  0  0  0  0  0  0  0  0  0
   56.4360   29.6890   44.0510 S   0  0  0  0  0  0  0  0  0  0  0  0
   56.0570   29.7170   42.5950 O   0  0  0  0  0  0  0  0  0  0  0  0
   55.1740   29.6950   44.8680 O   0  0  0  0  0  0  0  0  0  0  0  0
   57.3830   31.1170   44.4590 C   0  0  0  0  0  0  0  0  0  0  0  0
   57.7350   32.0290   43.4540 C   0  0  0  0  0  0  0  0  0  0  0  0
   58.4760   33.1730   43.7690 C   0  0  0  0  0  0  0  0  0  0  0  0
   58.8650   33.4130   45.0910 C   0  0  0  0  0  0  0  0  0  0  0  0
   59.5810   34.5230   45.3950 F   0  0  0  0  0  0  0  0  0  0  0  0
   58.5130   32.5090   46.0970 C   0  0  0  0  0  0  0  0  0  0  0  0
   57.7720   31.3640   45.7850 C   0  0  0  0  0  0  0  0  0  0  0  0
   56.8760   24.8400   45.5600 N   0  0  0  0  0  0  0  0  0  0  0  0
   58.0600   24.0350   45.2690 C   0  0  0  0  0  0  0  0  0  0  0  0
   54.8414   22.5620   45.6407 H   0  0  0  0  0  0  0  0  0  0  0  0
   54.1940   23.3923   44.1854 H   0  0  0  0  0  0  0  0  0  0  0  0
   55.8755   22.7604   44.1854 H   0  0  0  0  0  0  0  0  0  0  0  0
   57.9761   27.0860   47.4981 H   0  0  0  0  0  0  0  0  0  0  0  0
   58.9152   26.4249   46.0985 H   0  0  0  0  0  0  0  0  0  0  0  0
   57.4105   29.0248   46.3605 H   0  0  0  0  0  0  0  0  0  0  0  0
   59.0112   28.6682   45.6018 H   0  0  0  0  0  0  0  0  0  0  0  0
   56.6450   27.4600   44.4250 H   0  0  0  0  0  0  0  0  0  0  0  0
   57.4274   31.8443   42.4141 H   0  0  0  0  0  0  0  0  0  0  0  0
   58.7529   33.8841   42.9767 H   0  0  0  0  0  0  0  0  0  0  0  0
   58.8192   32.6981   47.1365 H   0  0  0  0  0  0  0  0  0  0  0  0
   57.4938   30.6563   46.5799 H   0  0  0  0  0  0  0  0  0  0  0  0
   58.5280   23.7168   46.2123 H   0  0  0  0  0  0  0  0  0  0  0  0
   57.7668   23.1483   44.6878 H   0  0  0  0  0  0  0  0  0  0  0  0
   58.7767   24.6338   44.6878 H   0  0  0  0  0  0  0  0  0  0  0  0
  1  2  1  0
  2  3  2  0
  3  4  1  0
  4  5  2  0
  5  6  1  0
  6  7  1  0
  7  8  1  0
  8  9  1  0
  9 10  2  0
  9 11  2  0
  9 12  1  0
 12 13  2  0
 13 14  1  0
 14 15  2  0
 15 16  1  0
 15 17  1  0
 17 18  2  0
  5 19  1  0
 19 20  1  0
 19  2  1  0
 18 12  1  0
  1 21  1  0
  1 22  1  0
  1 23  1  0
  6 24  1  0
  6 25  1  0
  7 26  1  0
  7 27  1  0
  8 28  1  0
 13 29  1  0
 14 30  1  0
 17 31  1  0
 18 32  1  0
 20 33  1  0
 20 34  1  0
 20 35  1  0
M  END
>  <UniqueID>  (64) 
56

>  <SMILES>  (64) 
Cc1nnc(CCNS(=O)(=O)c2ccc(F)cc2)n1C

>  <Energy>  (64) 
64.41597191724627

>  <Genealogy>  (64) 
Cc1nnc(CCNS(=O)(=O)c2ccc(F)cc2)n1C (3D coordinates assigned)
Cc1nnc(CCNS(=O)(=O)c2ccc(F)cc2)n1C (optimized conformer: 64.41597191724627 kcal/mol)

>  <smiles>  (64) 
Cc1nnc(CCNS(=O)(=O)c2ccc(F)cc2)n1C

>  <score_type>  (64) 
oracle

>  <origin>  (64) 
adg

>  <m_score__min__energy>  (64) 
-8.1799999999999997

>  <m_primary>  (64) 
energy

$$$$
64:0
     RDKit          3D

 59 63  0  0  0  0  0  0  0  0999 V2000
   56.0240   29.1980   51.9900 O   0  0  0  0  0  0  0  0  0  0  0  0
   56.5920   30.1100   52.6530 C   0  0  0  0  0  0  0  0  0  0  0  0
   56.0720   30.4780   53.9410 N   0  0  0  0  0  0  0  0  0  0  0  0
   54.7660   30.0240   54.4130 C   0  0  0  0  0  0  0  0  0  0  0  0
   53.6740   30.6100   53.5580 C   0  0  0  0  0  0  0  0  0  0  0  0
   53.9200   30.9600   52.2230 C   0  0  0  0  0  0  0  0  0  0  0  0
   52.8950   31.5290   51.4610 C   0  0  0  0  0  0  0  0  0  0  0  0
   51.6680   31.7450   52.0120 N   0  0  0  0  0  0  0  0  0  0  0  0
   50.6750   32.3090   51.2460 O   0  0  0  0  0  0  0  0  0  0  0  0
   51.4080   31.4150   53.3080 C   0  0  0  0  0  0  0  0  0  0  0  0
   52.4050   30.8450   54.1030 C   0  0  0  0  0  0  0  0  0  0  0  0
   57.7560   30.7650   52.1110 N   0  0  0  0  0  0  0  0  0  0  0  0
   58.1560   32.0990   52.5860 C   0  0  0  0  0  0  0  0  0  0  0  0
   58.7110   32.9520   51.4370 C   0  0  0  0  0  0  0  0  0  0  0  0
   59.6870   32.1680   50.5810 C   0  0  0  0  0  0  0  0  0  0  0  0
   60.7830   32.7640   50.0220 C   0  0  0  0  0  0  0  0  0  0  0  0
   62.0550   32.9130   50.8570 C   0  0  0  0  0  0  0  0  0  0  0  0
   62.1900   32.1440   52.0420 C   0  0  0  0  0  0  0  0  0  0  0  0
   63.2510   32.3310   52.9260 C   0  0  0  0  0  0  0  0  0  0  0  0
   64.2500   33.2470   52.6290 C   0  0  0  0  0  0  0  0  0  0  0  0
   65.5840   33.4880   53.7420 Cl  0  0  0  0  0  0  0  0  0  0  0  0
   64.2300   33.9160   51.4090 C   0  0  0  0  0  0  0  0  0  0  0  0
   63.1810   33.7120   50.4880 C   0  0  0  0  0  0  0  0  0  0  0  0
   63.4010   34.2140   49.0890 C   0  0  0  0  0  0  0  0  0  0  0  0
   63.1100   33.1010   48.0760 C   0  0  0  0  0  0  0  0  0  0  0  0
   61.6880   33.2360   47.6420 C   0  0  0  0  0  0  0  0  0  0  0  0
   61.4290   33.5800   46.3010 C   0  0  0  0  0  0  0  0  0  0  0  0
   60.1670   34.0170   45.9100 C   0  0  0  0  0  0  0  0  0  0  0  0
   59.1620   34.1640   46.8600 C   0  0  0  0  0  0  0  0  0  0  0  0
   57.9510   34.6550   46.4960 F   0  0  0  0  0  0  0  0  0  0  0  0
   59.4000   33.8120   48.1890 C   0  0  0  0  0  0  0  0  0  0  0  0
   60.6410   33.2630   48.5970 C   0  0  0  0  0  0  0  0  0  0  0  0
   59.1740   30.8290   50.1010 C   0  0  0  0  0  0  0  0  0  0  0  0
   58.7120   30.0010   51.2990 C   0  0  0  0  0  0  0  0  0  0  0  0
   56.6500   31.0610   54.5850 H   0  0  0  0  0  0  0  0  0  0  0  0
   54.7210   28.9263   54.3586 H   0  0  0  0  0  0  0  0  0  0  0  0
   54.6247   30.3535   55.4529 H   0  0  0  0  0  0  0  0  0  0  0  0
   54.9114   30.7884   51.7785 H   0  0  0  0  0  0  0  0  0  0  0  0
   53.0802   31.8034   50.4120 H   0  0  0  0  0  0  0  0  0  0  0  0
   50.4088   31.5982   53.7300 H   0  0  0  0  0  0  0  0  0  0  0  0
   52.1951   30.5823   55.1503 H   0  0  0  0  0  0  0  0  0  0  0  0
   57.2794   32.6043   53.0175 H   0  0  0  0  0  0  0  0  0  0  0  0
   58.9445   31.9779   53.3433 H   0  0  0  0  0  0  0  0  0  0  0  0
   57.8749   33.2897   50.8070 H   0  0  0  0  0  0  0  0  0  0  0  0
   59.2461   33.8090   51.8720 H   0  0  0  0  0  0  0  0  0  0  0  0
   61.4346   31.3774   52.2696 H   0  0  0  0  0  0  0  0  0  0  0  0
   63.2965   31.7519   53.8601 H   0  0  0  0  0  0  0  0  0  0  0  0
   65.0432   34.6134   51.1593 H   0  0  0  0  0  0  0  0  0  0  0  0
   62.7294   35.0640   48.8980 H   0  0  0  0  0  0  0  0  0  0  0  0
   64.4486   34.5321   48.9821 H   0  0  0  0  0  0  0  0  0  0  0  0
   63.7771   33.2025   47.2073 H   0  0  0  0  0  0  0  0  0  0  0  0
   63.2796   32.1142   48.5316 H   0  0  0  0  0  0  0  0  0  0  0  0
   62.2332   33.5024   45.5545 H   0  0  0  0  0  0  0  0  0  0  0  0
   59.9650   34.2454   44.8531 H   0  0  0  0  0  0  0  0  0  0  0  0
   58.6071   33.9640   48.9362 H   0  0  0  0  0  0  0  0  0  0  0  0
   58.3283   30.9849   49.4151 H   0  0  0  0  0  0  0  0  0  0  0  0
   59.9792   30.2951   49.5751 H   0  0  0  0  0  0  0  0  0  0  0  0
   58.2280   29.0812   50.9389 H   0  0  0  0  0  0  0  0  0  0  0  0
   59.5860   29.7505   51.9181 H   0  0  0  0  0  0  0  0  0  0  0  0
  1  2  2  0
  2  3  1  0
  3  4  1  0
  4  5  1  0
  5  6  2  0
  6  7  1  0
  7  8  2  0
  8  9  1  0
  8 10  1  0
 10 11  2  0
  2 12  1  0
 12 13  1  0
 13 14  1  0
 14 15  1  0
 15 16  2  3
 16 17  1  0
 17 18  2  0
 18 19  1  0
 19 20  2  0
 20 21  1  0
 20 22  1  0
 22 23  2  0
 23 24  1  0
 24 25  1  0
 25 26  1  0
 26 27  2  0
 27 28  1  0
 28 29  2  0
 29 30  1  0
 29 31  1  0
 31 32  2  0
 15 33  1  0
 33 34  1  0
 11  5  1  0
 34 12  1  0
 32 16  1  0
 23 17  1  0
 32 26  1  0
  3 35  1  0
  4 36  1  0
  4 37  1  0
  6 38  1  0
  7 39  1  0
 10 40  1  0
 11 41  1  0
 13 42  1  0
 13 43  1  0
 14 44  1  0
 14 45  1  0
 18 46  1  0
 19 47  1  0
 22 48  1  0
 24 49  1  0
 24 50  1  0
 25 51  1  0
 25 52  1  0
 27 53  1  0
 28 54  1  0
 31 55  1  0
 33 56  1  0
 33 57  1  0
 34 58  1  0
 34 59  1  0
M  CHG  2   8   1   9  -1
M  END
>  <UniqueID>  (65) 
57

>  <SMILES>  (65) 
O=C(NCc1cc[n+]([O-])cc1)N1CCC(=C2c3ccc(Cl)cc3CCc3ccc(F)cc32)CC1

>  <Energy>  (65) 
110.25487083561218

>  <Genealogy>  (65) 
O=C(NCc1cc[n+]([O-])cc1)N1CCC(=C2c3ccc(Cl)cc3CCc3ccc(F)cc32)CC1 (3D coordinates assigned)
O=C(NCc1cc[n+]([O-])cc1)N1CCC(=C2c3ccc(Cl)cc3CCc3ccc(F)cc32)CC1 (nonaromatic ring conformer: 110.25487083561218 kcal/mol)

>  <smiles>  (65) 
O=C(NCc1cc[n+]([O-])cc1)N1CCC(=C2c3ccc(Cl)cc3CCc3ccc(F)cc32)CC1

>  <score_type>  (65) 
oracle

>  <origin>  (65) 
adg

>  <m_score__min__energy>  (65) 
-8.9700000000000006

>  <m_primary>  (65) 
energy

$$$$
65:0
     RDKit          3D

 53 56  0  0  0  0  0  0  0  0999 V2000
   56.9440   23.6850   43.7090 C   0  0  0  0  0  0  0  0  0  0  0  0
   57.1950   25.1070   44.1150 C   0  0  0  0  0  0  0  0  0  0  0  0
   56.7950   25.5620   45.3790 C   0  0  0  0  0  0  0  0  0  0  0  0
   56.9970   26.8960   45.7460 C   0  0  0  0  0  0  0  0  0  0  0  0
   57.5910   27.7960   44.8470 C   0  0  0  0  0  0  0  0  0  0  0  0
   57.8140   29.2060   45.2350 C   0  0  0  0  0  0  0  0  0  0  0  0
   57.2800   30.3220   44.6120 C   0  0  0  0  0  0  0  0  0  0  0  0
   56.3350   30.3680   43.4490 C   0  0  0  0  0  0  0  0  0  0  0  0
   57.8230   31.3970   45.2970 C   0  0  0  0  0  0  0  0  0  0  0  0
   57.6210   32.8510   44.9900 C   0  0  0  0  0  0  0  0  0  0  0  0
   57.7440   33.6730   46.2030 N   0  0  0  0  0  0  0  0  0  0  0  0
   58.9120   34.5860   46.1550 C   0  0  0  0  0  0  0  0  0  0  0  0
   60.1520   33.8930   45.5890 C   0  0  0  0  0  0  0  0  0  0  0  0
   60.7890   33.1640   46.7640 C   0  0  0  0  0  0  0  0  0  0  0  0
   60.3180   33.8860   48.0240 C   0  0  0  0  0  0  0  0  0  0  0  0
   59.3320   34.9600   47.5750 C   0  0  0  0  0  0  0  0  0  0  0  0
   58.6530   30.9500   46.2580 N   0  0  0  0  0  0  0  0  0  0  0  0
   58.6470   29.6260   46.2160 N   0  0  0  0  0  0  0  0  0  0  0  0
   59.3690   28.8100   47.1550 C   0  0  0  0  0  0  0  0  0  0  0  0
   59.9230   27.5880   46.7390 C   0  0  0  0  0  0  0  0  0  0  0  0
   60.6190   26.7830   47.6440 C   0  0  0  0  0  0  0  0  0  0  0  0
   60.7650   27.1880   48.9720 C   0  0  0  0  0  0  0  0  0  0  0  0
   60.2140   28.3980   49.3990 C   0  0  0  0  0  0  0  0  0  0  0  0
   59.5150   29.2120   48.4990 C   0  0  0  0  0  0  0  0  0  0  0  0
   58.8830   30.7510   49.0710 Cl  0  0  0  0  0  0  0  0  0  0  0  0
   57.9710   27.3440   43.5730 C   0  0  0  0  0  0  0  0  0  0  0  0
   57.7700   26.0100   43.2080 C   0  0  0  0  0  0  0  0  0  0  0  0
   56.8338   23.0610   44.6081 H   0  0  0  0  0  0  0  0  0  0  0  0
   56.0226   23.6317   43.1106 H   0  0  0  0  0  0  0  0  0  0  0  0
   57.7915   23.3195   43.1106 H   0  0  0  0  0  0  0  0  0  0  0  0
   56.3197   24.8660   46.0859 H   0  0  0  0  0  0  0  0  0  0  0  0
   56.6891   27.2419   46.7438 H   0  0  0  0  0  0  0  0  0  0  0  0
   55.3003   30.4184   43.8190 H   0  0  0  0  0  0  0  0  0  0  0  0
   56.5493   31.2568   42.8373 H   0  0  0  0  0  0  0  0  0  0  0  0
   56.4620   29.4626   42.8373 H   0  0  0  0  0  0  0  0  0  0  0  0
   58.3790   33.1723   44.2605 H   0  0  0  0  0  0  0  0  0  0  0  0
   56.6084   32.9831   44.5811 H   0  0  0  0  0  0  0  0  0  0  0  0
   57.8340   33.0040   47.0030 H   0  0  0  0  0  0  0  0  0  0  0  0
   58.6015   35.4430   45.5392 H   0  0  0  0  0  0  0  0  0  0  0  0
   59.8667   33.1781   44.8032 H   0  0  0  0  0  0  0  0  0  0  0  0
   60.8471   34.6134   45.1331 H   0  0  0  0  0  0  0  0  0  0  0  0
   60.4626   32.1137   46.7826 H   0  0  0  0  0  0  0  0  0  0  0  0
   61.8864   33.1673   46.6885 H   0  0  0  0  0  0  0  0  0  0  0  0
   59.8222   33.1772   48.7035 H   0  0  0  0  0  0  0  0  0  0  0  0
   61.1667   34.3308   48.5642 H   0  0  0  0  0  0  0  0  0  0  0  0
   58.4560   34.9755   48.2401 H   0  0  0  0  0  0  0  0  0  0  0  0
   59.7871   35.9609   47.6079 H   0  0  0  0  0  0  0  0  0  0  0  0
   59.8081   27.2630   45.6944 H   0  0  0  0  0  0  0  0  0  0  0  0
   61.0525   25.8289   47.3098 H   0  0  0  0  0  0  0  0  0  0  0  0
   61.3146   26.5533   49.6827 H   0  0  0  0  0  0  0  0  0  0  0  0
   60.3295   28.7131   50.4466 H   0  0  0  0  0  0  0  0  0  0  0  0
   58.4293   28.0436   42.8585 H   0  0  0  0  0  0  0  0  0  0  0  0
   58.0639   25.6664   42.2052 H   0  0  0  0  0  0  0  0  0  0  0  0
  1  2  1  0
  2  3  2  0
  3  4  1  0
  4  5  2  0
  5  6  1  0
  6  7  2  0
  7  8  1  0
  7  9  1  0
  9 10  1  0
 10 11  1  0
 11 12  1  0
 12 13  1  0
 13 14  1  0
 14 15  1  0
 15 16  1  0
  9 17  2  0
 17 18  1  0
 18 19  1  0
 19 20  2  0
 20 21  1  0
 21 22  2  0
 22 23  1  0
 23 24  2  0
 24 25  1  0
  5 26  1  0
 26 27  2  0
 27  2  1  0
 18  6  1  0
 24 19  1  0
 16 12  1  0
  1 28  1  0
  1 29  1  0
  1 30  1  0
  3 31  1  0
  4 32  1  0
  8 33  1  0
  8 34  1  0
  8 35  1  0
 10 36  1  0
 10 37  1  0
 11 38  1  0
 12 39  1  0
 13 40  1  0
 13 41  1  0
 14 42  1  0
 14 43  1  0
 15 44  1  0
 15 45  1  0
 16 46  1  0
 16 47  1  0
 20 48  1  0
 21 49  1  0
 22 50  1  0
 23 51  1  0
 26 52  1  0
 27 53  1  0
M  END
>  <UniqueID>  (66) 
58

>  <SMILES>  (66) 
Cc1ccc(-c2c(C)c(CNC3CCCC3)nn2-c2ccccc2Cl)cc1

>  <Energy>  (66) 
95.35667881443705

>  <Genealogy>  (66) 
Cc1ccc(-c2c(C)c(CNC3CCCC3)nn2-c2ccccc2Cl)cc1 (3D coordinates assigned)
Cc1ccc(-c2c(C)c(CNC3CCCC3)nn2-c2ccccc2Cl)cc1 (nonaromatic ring conformer: 95.35667881443705 kcal/mol)

>  <smiles>  (66) 
Cc1ccc(-c2c(C)c(CNC3CCCC3)nn2-c2ccccc2Cl)cc1

>  <score_type>  (66) 
oracle

>  <origin>  (66) 
adg

>  <m_score__min__energy>  (66) 
-8.7100000000000009

>  <m_primary>  (66) 
energy

$$$$
66:0
     RDKit          3D

 29 30  0  0  0  0  0  0  0  0999 V2000
   59.6634   34.5043   47.1819 H   0  0  0  0  0  0  0  0  0  0  0  0
   59.0630   33.8250   46.5590 C   0  0  0  0  0  0  0  0  0  0  0  0
   57.8080   34.2260   46.1020 C   0  0  0  0  0  0  0  0  0  0  0  0
   57.4179   35.2196   46.3678 H   0  0  0  0  0  0  0  0  0  0  0  0
   57.0470   33.3680   45.3080 C   0  0  0  0  0  0  0  0  0  0  0  0
   56.0541   33.6865   44.9579 H   0  0  0  0  0  0  0  0  0  0  0  0
   57.5380   32.0990   44.9510 C   0  0  0  0  0  0  0  0  0  0  0  0
   56.6800   31.1950   44.0950 C   0  0  0  0  0  0  0  0  0  0  0  0
   55.8224   31.7683   43.7131 H   0  0  0  0  0  0  0  0  0  0  0  0
   57.2907   30.8164   43.2621 H   0  0  0  0  0  0  0  0  0  0  0  0
   56.1880   30.0560   44.8690 N   0  0  0  0  0  0  0  0  0  0  0  0
   56.7240   28.8720   44.8720 C   0  0  0  0  0  0  0  0  0  0  0  0
   56.2270   27.8310   45.6190 O   0  0  0  0  0  0  0  0  0  0  0  0
   57.0210   26.6690   45.4060 C   0  0  0  0  0  0  0  0  0  0  0  0
   56.4110   25.8602   44.9774 H   0  0  0  0  0  0  0  0  0  0  0  0
   57.4453   26.2874   46.3464 H   0  0  0  0  0  0  0  0  0  0  0  0
   58.1260   27.0980   44.4110 C   0  0  0  0  0  0  0  0  0  0  0  0
   58.0691   26.4984   43.4906 H   0  0  0  0  0  0  0  0  0  0  0  0
   59.1328   26.9480   44.8279 H   0  0  0  0  0  0  0  0  0  0  0  0
   57.8630   28.4980   44.1230 N   0  0  0  0  0  0  0  0  0  0  0  0
   58.4390   29.1050   43.5010 H   0  0  0  0  0  0  0  0  0  0  0  0
   58.8020   31.6830   45.4270 C   0  0  0  0  0  0  0  0  0  0  0  0
   59.2740   30.4030   45.0930 O   0  0  0  0  0  0  0  0  0  0  0  0
   60.2240   29.6650   45.8540 C   0  0  0  0  0  0  0  0  0  0  0  0
   60.0309   29.8150   46.9265 H   0  0  0  0  0  0  0  0  0  0  0  0
   60.1366   28.5956   45.6118 H   0  0  0  0  0  0  0  0  0  0  0  0
   61.2386   30.0141   45.6118 H   0  0  0  0  0  0  0  0  0  0  0  0
   59.5590   32.5620   46.2270 C   0  0  0  0  0  0  0  0  0  0  0  0
   60.5486   32.2511   46.5931 H   0  0  0  0  0  0  0  0  0  0  0  0
  1  2  1  0
  2  3  2  0
  3  4  1  0
  3  5  1  0
  5  6  1  0
  5  7  2  0
  7  8  1  0
  8  9  1  0
  8 10  1  0
  8 11  1  0
 11 12  2  0
 12 13  1  0
 13 14  1  0
 14 15  1  0
 14 16  1  0
 14 17  1  0
 17 18  1  0
 17 19  1  0
 17 20  1  0
 20 21  1  0
  7 22  1  0
 22 23  1  0
 23 24  1  0
 24 25  1  0
 24 26  1  0
 24 27  1  0
 22 28  2  0
 28 29  1  0
 28  2  1  0
 20 12  1  0
M  END
>  <UniqueID>  (67) 
59

>  <SMILES>  (67) 
COc1ccccc1C/N=C1\NCCO1

>  <Energy>  (67) 
41.253312004620305

>  <Genealogy>  (67) 
COc1ccccc1C/N=C1\NCCO1 (cis-trans isomerization)
COc1ccccc1C/N=C1\NCCO1 (3D coordinates assigned)
COc1ccccc1C/N=C1\NCCO1 (nonaromatic ring conformer: 41.253312004620305 kcal/mol)

>  <smiles>  (67) 
COc1ccccc1CN=C1NCCO1

>  <score_type>  (67) 
oracle

>  <origin>  (67) 
adg

>  <m_score__min__energy>  (67) 
-5.2599999999999998

>  <m_primary>  (67) 
energy

$$$$
67:0
     RDKit          3D

 44 46  0  0  0  0  0  0  0  0999 V2000
   59.2680   34.8980   44.8720 C   0  0  0  0  0  0  0  0  0  0  0  0
   58.9380   34.1710   46.1260 C   0  0  0  0  0  0  0  0  0  0  0  0
   59.5080   34.3900   47.3640 C   0  0  0  0  0  0  0  0  0  0  0  0
   58.9320   33.5120   48.2610 C   0  0  0  0  0  0  0  0  0  0  0  0
   59.2840   33.4450   49.6910 C   0  0  0  0  0  0  0  0  0  0  0  0
   60.8020   33.3950   49.8520 C   0  0  0  0  0  0  0  0  0  0  0  0
   61.0840   32.1770   50.7210 C   0  0  0  0  0  0  0  0  0  0  0  0
   61.4910   31.1480   49.8750 O   0  0  0  0  0  0  0  0  0  0  0  0
   60.8520   30.7060   48.7360 C   0  0  0  0  0  0  0  0  0  0  0  0
   59.6640   29.9790   48.8560 C   0  0  0  0  0  0  0  0  0  0  0  0
   59.0750   29.6740   50.1830 C   0  0  0  0  0  0  0  0  0  0  0  0
   58.9950   29.5190   47.7450 C   0  0  0  0  0  0  0  0  0  0  0  0
   59.4720   29.7570   46.4580 C   0  0  0  0  0  0  0  0  0  0  0  0
   58.7270   29.2320   45.3420 C   0  0  0  0  0  0  0  0  0  0  0  0
   59.1700   28.0510   44.7730 C   0  0  0  0  0  0  0  0  0  0  0  0
   58.4970   27.5280   43.6900 C   0  0  0  0  0  0  0  0  0  0  0  0
   57.4080   28.1570   43.1760 N   0  0  0  0  0  0  0  0  0  0  0  0
   56.9890   29.2770   43.7150 N   0  0  0  0  0  0  0  0  0  0  0  0
   57.6200   29.8280   44.7840 C   0  0  0  0  0  0  0  0  0  0  0  0
   57.1180   30.9080   45.2480 N   0  0  0  0  0  0  0  0  0  0  0  0
   60.6400   30.4730   46.3660 C   0  0  0  0  0  0  0  0  0  0  0  0
   61.3340   30.9470   47.4660 C   0  0  0  0  0  0  0  0  0  0  0  0
   62.8040   31.8440   47.2660 Cl  0  0  0  0  0  0  0  0  0  0  0  0
   58.0590   32.8100   47.5730 O   0  0  0  0  0  0  0  0  0  0  0  0
   58.0460   33.1770   46.3240 N   0  0  0  0  0  0  0  0  0  0  0  0
   59.7110   35.8739   45.1197 H   0  0  0  0  0  0  0  0  0  0  0  0
   59.9864   34.3078   44.2842 H   0  0  0  0  0  0  0  0  0  0  0  0
   58.3508   35.0502   44.2842 H   0  0  0  0  0  0  0  0  0  0  0  0
   60.2849   35.1336   47.5955 H   0  0  0  0  0  0  0  0  0  0  0  0
   58.8920   34.3350   50.2050 H   0  0  0  0  0  0  0  0  0  0  0  0
   58.8437   32.5375   50.1298 H   0  0  0  0  0  0  0  0  0  0  0  0
   61.2884   33.2874   48.8713 H   0  0  0  0  0  0  0  0  0  0  0  0
   61.1928   34.3174   50.3065 H   0  0  0  0  0  0  0  0  0  0  0  0
   61.8806   32.4070   51.4438 H   0  0  0  0  0  0  0  0  0  0  0  0
   60.1854   31.8848   51.2842 H   0  0  0  0  0  0  0  0  0  0  0  0
   59.7532   30.0252   50.9747 H   0  0  0  0  0  0  0  0  0  0  0  0
   58.1045   30.1829   50.2791 H   0  0  0  0  0  0  0  0  0  0  0  0
   58.9305   28.5878   50.2791 H   0  0  0  0  0  0  0  0  0  0  0  0
   58.0625   28.9505   47.8761 H   0  0  0  0  0  0  0  0  0  0  0  0
   60.0511   27.5344   45.1813 H   0  0  0  0  0  0  0  0  0  0  0  0
   58.8461   26.5890   43.2358 H   0  0  0  0  0  0  0  0  0  0  0  0
   56.1500   29.7430   43.3050 H   0  0  0  0  0  0  0  0  0  0  0  0
   57.6090   31.4560   45.9570 H   0  0  0  0  0  0  0  0  0  0  0  0
   61.0458   30.6810   45.3650 H   0  0  0  0  0  0  0  0  0  0  0  0
  1  2  1  0
  2  3  1  0
  3  4  2  0
  4  5  1  0
  5  6  1  0
  6  7  1  0
  7  8  1  0
  8  9  1  0
  9 10  2  0
 10 11  1  0
 10 12  1  0
 12 13  2  0
 13 14  1  0
 14 15  2  0
 15 16  1  0
 16 17  2  0
 17 18  1  0
 18 19  1  0
 19 20  2  3
 13 21  1  0
 21 22  2  0
 22 23  1  0
  4 24  1  0
 24 25  1  0
 25  2  2  0
 22  9  1  0
 19 14  1  0
  1 26  1  0
  1 27  1  0
  1 28  1  0
  3 29  1  0
  5 30  1  0
  5 31  1  0
  6 32  1  0
  6 33  1  0
  7 34  1  0
  7 35  1  0
 11 36  1  0
 11 37  1  0
 11 38  1  0
 12 39  1  0
 15 40  1  0
 16 41  1  0
 18 42  1  0
 20 43  1  0
 21 44  1  0
M  END
>  <smiles>  (68) 
Cc1cc(CCCOc2c(C)cc(-c3ccn[nH]c3=N)cc2Cl)on1

>  <score_type>  (68) 
oracle

>  <origin>  (68) 
adg

>  <m_score__min__energy>  (68) 
-9.0700000000000003

>  <m_primary>  (68) 
energy

$$$$
68:0
     RDKit          3D

 25 27  0  0  0  0  0  0  0  0999 V2000
   58.7400   28.1076   46.3088 H   0  0  0  0  0  0  0  0  0  0  0  0
   58.1970   29.0620   46.2440 C   0  0  0  0  0  0  0  0  0  0  0  0
   58.3190   29.9000   47.2340 N   0  0  0  0  0  0  0  0  0  0  0  0
   58.9060   31.1740   47.1320 N   0  0  0  0  0  0  0  0  0  0  0  0
   60.1490   31.5330   47.5380 C   0  0  0  0  0  0  0  0  0  0  0  0
   61.1370   30.5780   48.4250 S   0  0  0  0  0  0  0  0  0  0  0  0
   60.4810   32.7510   47.1300 O   0  0  0  0  0  0  0  0  0  0  0  0
   59.4620   33.1810   46.4210 C   0  0  0  0  0  0  0  0  0  0  0  0
   59.3040   34.3790   45.7370 C   0  0  0  0  0  0  0  0  0  0  0  0
   60.0744   35.1635   45.7681 H   0  0  0  0  0  0  0  0  0  0  0  0
   58.1150   34.5460   45.0020 C   0  0  0  0  0  0  0  0  0  0  0  0
   57.9352   35.4798   44.4492 H   0  0  0  0  0  0  0  0  0  0  0  0
   57.1510   33.5090   44.9760 C   0  0  0  0  0  0  0  0  0  0  0  0
   56.2273   33.6388   44.3929 H   0  0  0  0  0  0  0  0  0  0  0  0
   57.3570   32.3470   45.6690 N   0  0  0  0  0  0  0  0  0  0  0  0
   56.6500   31.5810   45.6300 H   0  0  0  0  0  0  0  0  0  0  0  0
   58.4970   32.2220   46.3980 C   0  0  0  0  0  0  0  0  0  0  0  0
   57.3780   29.3090   45.0410 C   0  0  0  0  0  0  0  0  0  0  0  0
   56.2730   30.0170   45.0670 O   0  0  0  0  0  0  0  0  0  0  0  0
   55.7860   30.0840   43.8500 C   0  0  0  0  0  0  0  0  0  0  0  0
   54.8607   30.6070   43.5666 H   0  0  0  0  0  0  0  0  0  0  0  0
   56.6090   29.4000   42.9800 C   0  0  0  0  0  0  0  0  0  0  0  0
   56.4687   29.2762   41.8960 H   0  0  0  0  0  0  0  0  0  0  0  0
   57.6430   28.9030   43.7440 C   0  0  0  0  0  0  0  0  0  0  0  0
   58.5001   28.3079   43.3959 H   0  0  0  0  0  0  0  0  0  0  0  0
  1  2  1  0
  2  3  2  0
  3  4  1  0
  4  5  1  0
  5  6  2  0
  5  7  1  0
  7  8  1  0
  8  9  2  0
  9 10  1  0
  9 11  1  0
 11 12  1  0
 11 13  2  0
 13 14  1  0
 13 15  1  0
 15 16  1  0
 15 17  2  0
  2 18  1  0
 18 19  1  0
 19 20  1  0
 20 21  1  0
 20 22  2  0
 22 23  1  0
 22 24  1  0
 24 25  1  0
 17  4  1  0
 24 18  2  0
 17  8  1  0
M  CHG  1  15   1
M  END
>  <UniqueID>  (69) 
60

>  <SMILES>  (69) 
S=c1oc2ccc[nH+]c2n1/N=C\c1ccco1

>  <Energy>  (69) 
106.84329276259774

>  <Genealogy>  (69) 
S=c1oc2ccc[nH+]c2n1N=Cc1ccco1 (protonated)
S=c1oc2ccc[nH+]c2n1/N=C\c1ccco1 (cis-trans isomerization)
S=c1oc2ccc[nH+]c2n1/N=C\c1ccco1 (3D coordinates assigned)
S=c1oc2ccc[nH+]c2n1/N=C\c1ccco1 (optimized conformer: 106.84329276259774 kcal/mol)

>  <smiles>  (69) 
S=c1oc2cccnc2n1N=Cc1ccco1

>  <score_type>  (69) 
oracle

>  <origin>  (69) 
adg

>  <m_score__min__energy>  (69) 
-4.3600000000000003

>  <m_primary>  (69) 
energy

$$$$
69:0
     RDKit          3D

 32 34  0  0  0  0  0  0  0  0999 V2000
   59.5034   35.2579   46.5167 H   0  0  0  0  0  0  0  0  0  0  0  0
   58.9680   34.3550   46.1880 C   0  0  0  0  0  0  0  0  0  0  0  0
   57.7240   34.4690   45.6210 N   0  0  0  0  0  0  0  0  0  0  0  0
   57.0210   33.3760   45.1980 C   0  0  0  0  0  0  0  0  0  0  0  0
   56.0245   33.4835   44.7448 H   0  0  0  0  0  0  0  0  0  0  0  0
   57.6040   32.1240   45.3580 C   0  0  0  0  0  0  0  0  0  0  0  0
   57.1070   30.9260   45.0220 N   0  0  0  0  0  0  0  0  0  0  0  0
   58.1010   30.0790   45.4080 C   0  0  0  0  0  0  0  0  0  0  0  0
   58.0200   28.6480   45.2440 N   0  0  0  0  0  0  0  0  0  0  0  0
   57.3790   27.8420   46.2950 C   0  0  0  0  0  0  0  0  0  0  0  0
   58.1106   27.6531   47.0944 H   0  0  0  0  0  0  0  0  0  0  0  0
   56.5129   28.4036   46.6752 H   0  0  0  0  0  0  0  0  0  0  0  0
   56.8840   26.5220   45.7660 C   0  0  0  0  0  0  0  0  0  0  0  0
   55.8930   25.9420   46.3720 N   0  0  0  0  0  0  0  0  0  0  0  0
   54.6060   25.9730   45.8800 O   0  0  0  0  0  0  0  0  0  0  0  0
   53.9420   24.7700   45.5350 C   0  0  0  0  0  0  0  0  0  0  0  0
   53.6481   24.2375   46.4516 H   0  0  0  0  0  0  0  0  0  0  0  0
   53.0449   25.0032   44.9428 H   0  0  0  0  0  0  0  0  0  0  0  0
   54.6175   24.1352   44.9428 H   0  0  0  0  0  0  0  0  0  0  0  0
   57.6700   25.8130   44.6910 C   0  0  0  0  0  0  0  0  0  0  0  0
   58.5542   25.3388   45.1420 H   0  0  0  0  0  0  0  0  0  0  0  0
   57.0282   25.0512   44.2244 H   0  0  0  0  0  0  0  0  0  0  0  0
   58.1220   26.8030   43.6190 C   0  0  0  0  0  0  0  0  0  0  0  0
   58.7897   26.2884   42.9124 H   0  0  0  0  0  0  0  0  0  0  0  0
   57.2324   27.1866   43.0980 H   0  0  0  0  0  0  0  0  0  0  0  0
   58.8670   27.9810   44.2430 C   0  0  0  0  0  0  0  0  0  0  0  0
   59.7832   27.6146   44.7291 H   0  0  0  0  0  0  0  0  0  0  0  0
   59.1224   28.7021   43.4526 H   0  0  0  0  0  0  0  0  0  0  0  0
   59.1820   30.6960   45.9640 N   0  0  0  0  0  0  0  0  0  0  0  0
   58.8330   31.9900   45.9160 C   0  0  0  0  0  0  0  0  0  0  0  0
   59.5640   33.0900   46.3520 C   0  0  0  0  0  0  0  0  0  0  0  0
   60.5606   32.9770   46.8036 H   0  0  0  0  0  0  0  0  0  0  0  0
  1  2  1  0
  2  3  2  0
  3  4  1  0
  4  5  1  0
  4  6  2  0
  6  7  1  0
  7  8  1  0
  8  9  1  0
  9 10  1  0
 10 11  1  0
 10 12  1  0
 10 13  1  0
 13 14  2  0
 14 15  1  0
 15 16  1  0
 16 17  1  0
 16 18  1  0
 16 19  1  0
 13 20  1  0
 20 21  1  0
 20 22  1  0
 20 23  1  0
 23 24  1  0
 23 25  1  0
 23 26  1  0
 26 27  1  0
 26 28  1  0
  8 29  2  0
 29 30  1  0
 30 31  2  0
 31 32  1  0
 31  2  1  0
 30  6  1  0
 26  9  1  0
M  CHG  1   7  -1
M  END
>  <UniqueID>  (70) 
61

>  <SMILES>  (70) 
CO/N=C1\CCCN(c2nc3ccncc3[n-]2)C1

>  <Energy>  (70) 
65.11845755956483

>  <Genealogy>  (70) 
CON=C1CCCN(c2nc3ccncc3[n-]2)C1 (protonated)
CO/N=C1\CCCN(c2nc3ccncc3[n-]2)C1 (cis-trans isomerization)
CO/N=C1\CCCN(c2nc3ccncc3[n-]2)C1 (3D coordinates assigned)
CO/N=C1\CCCN(c2nc3ccncc3[n-]2)C1 (nonaromatic ring conformer: 65.11845755956483 kcal/mol)

>  <smiles>  (70) 
CON=C1CCCN(c2nc3ccncc3[nH]2)C1

>  <score_type>  (70) 
oracle

>  <origin>  (70) 
adg

>  <m_score__min__energy>  (70) 
-8.4900000000000002

>  <m_primary>  (70) 
energy

$$$$
70:0
     RDKit          3D

 18 20  0  0  0  0  0  0  0  0999 V2000
   55.1630   28.1820   44.9430 H   0  0  0  0  0  0  0  0  0  0  0  0
   55.2940   29.1140   44.4910 N   0  0  0  0  0  0  0  0  0  0  0  0
   56.2300   29.9190   44.8770 C   0  0  0  0  0  0  0  0  0  0  0  0
   57.3500   29.4970   45.5260 N   0  0  0  0  0  0  0  0  0  0  0  0
   57.9830   30.6700   45.7020 C   0  0  0  0  0  0  0  0  0  0  0  0
   59.1870   30.8390   46.3150 N   0  0  0  0  0  0  0  0  0  0  0  0
   59.7200   30.0320   46.7060 H   0  0  0  0  0  0  0  0  0  0  0  0
   59.6620   32.1140   46.3940 C   0  0  0  0  0  0  0  0  0  0  0  0
   61.1020   32.6230   47.0870 S   0  0  0  0  0  0  0  0  0  0  0  0
   60.8580   34.2640   46.7370 C   0  0  0  0  0  0  0  0  0  0  0  0
   61.5519   35.0779   46.9940 H   0  0  0  0  0  0  0  0  0  0  0  0
   59.6400   34.4230   46.0720 C   0  0  0  0  0  0  0  0  0  0  0  0
   59.2503   35.3949   45.7351 H   0  0  0  0  0  0  0  0  0  0  0  0
   58.9710   33.2100   45.8820 C   0  0  0  0  0  0  0  0  0  0  0  0
   57.7350   32.9940   45.2580 C   0  0  0  0  0  0  0  0  0  0  0  0
   57.0590   33.9400   44.7720 O   0  0  0  0  0  0  0  0  0  0  0  0
   57.2940   31.7080   45.1980 N   0  0  0  0  0  0  0  0  0  0  0  0
   56.1760   31.2560   44.6680 N   0  0  0  0  0  0  0  0  0  0  0  0
  1  2  1  0
  2  3  2  0
  3  4  1  0
  4  5  2  0
  5  6  1  0
  6  7  1  0
  6  8  1  0
  8  9  1  0
  9 10  1  0
 10 11  1  0
 10 12  2  0
 12 13  1  0
 12 14  1  0
 14 15  1  0
 15 16  2  0
 15 17  1  0
 17 18  1  0
 18  3  1  0
 17  5  1  0
 14  8  2  0
M  CHG  1  18  -1
M  END
>  <UniqueID>  (71) 
62

>  <SMILES>  (71) 
[H]/N=c1\nc2[nH]c3sccc3c(=O)n2[n-]1

>  <Energy>  (71) 
92.67568930900627

>  <Genealogy>  (71) 
N=c1nc2[nH]c3sccc3c(=O)n2[n-]1 (protonated)
[H]/N=c1\nc2[nH]c3sccc3c(=O)n2[n-]1 (cis-trans isomerization)
[H]/N=c1\nc2[nH]c3sccc3c(=O)n2[n-]1 (3D coordinates assigned)
[H]/N=c1\nc2[nH]c3sccc3c(=O)n2[n-]1 (optimized conformer: 92.67568930900627 kcal/mol)

>  <smiles>  (71) 
N=c1nc2[nH]c3sccc3c(=O)n2[nH]1

>  <score_type>  (71) 
oracle

>  <origin>  (71) 
adg

>  <m_score__min__energy>  (71) 
-7.5099999999999998

>  <m_primary>  (71) 
energy

$$$$
71:0
     RDKit          3D

 41 43  0  0  0  0  0  0  0  0999 V2000
   62.9140   33.7910   46.7080 C   0  0  0  0  0  0  0  0  0  0  0  0
   61.7450   33.8400   47.6780 C   0  0  0  0  0  0  0  0  0  0  0  0
   60.6080   34.4000   47.0250 O   0  0  0  0  0  0  0  0  0  0  0  0
   59.5880   33.6480   46.4250 C   0  0  0  0  0  0  0  0  0  0  0  0
   58.7620   34.1690   45.4100 C   0  0  0  0  0  0  0  0  0  0  0  0
   57.7610   33.3780   44.8400 C   0  0  0  0  0  0  0  0  0  0  0  0
   57.5820   32.0490   45.2620 C   0  0  0  0  0  0  0  0  0  0  0  0
   56.5440   31.2210   44.7200 N   0  0  0  0  0  0  0  0  0  0  0  0
   56.5390   29.7880   44.6630 C   0  0  0  0  0  0  0  0  0  0  0  0
   55.4600   29.1760   44.8760 O   0  0  0  0  0  0  0  0  0  0  0  0
   57.7940   28.9980   44.4030 C   0  0  0  0  0  0  0  0  0  0  0  0
   57.6310   27.6070   44.8440 N   0  0  0  0  0  0  0  0  0  0  0  0
   57.7770   26.5340   43.8470 C   0  0  0  0  0  0  0  0  0  0  0  0
   57.2530   25.1990   44.3250 C   0  0  0  0  0  0  0  0  0  0  0  0
   57.0120   24.1760   43.3920 C   0  0  0  0  0  0  0  0  0  0  0  0
   56.6040   22.9110   43.8230 C   0  0  0  0  0  0  0  0  0  0  0  0
   56.4480   22.6510   45.1870 C   0  0  0  0  0  0  0  0  0  0  0  0
   56.6990   23.6570   46.1230 C   0  0  0  0  0  0  0  0  0  0  0  0
   57.1010   24.9290   45.6980 C   0  0  0  0  0  0  0  0  0  0  0  0
   57.3350   25.9520   46.6630 N   0  0  0  0  0  0  0  0  0  0  0  0
   57.5950   27.2890   46.2480 C   0  0  0  0  0  0  0  0  0  0  0  0
   57.7690   28.1830   47.1190 O   0  0  0  0  0  0  0  0  0  0  0  0
   58.3850   31.5430   46.2900 C   0  0  0  0  0  0  0  0  0  0  0  0
   59.3870   32.3340   46.8600 C   0  0  0  0  0  0  0  0  0  0  0  0
   63.8574   33.7515   47.2724 H   0  0  0  0  0  0  0  0  0  0  0  0
   62.8278   32.8957   46.0748 H   0  0  0  0  0  0  0  0  0  0  0  0
   62.9030   34.6904   46.0748 H   0  0  0  0  0  0  0  0  0  0  0  0
   61.5077   32.8211   48.0178 H   0  0  0  0  0  0  0  0  0  0  0  0
   62.0135   34.4625   48.5443 H   0  0  0  0  0  0  0  0  0  0  0  0
   58.9056   35.2034   45.0644 H   0  0  0  0  0  0  0  0  0  0  0  0
   57.1105   33.7968   44.0580 H   0  0  0  0  0  0  0  0  0  0  0  0
   58.0129   29.0120   43.3251 H   0  0  0  0  0  0  0  0  0  0  0  0
   58.6221   29.4533   44.9660 H   0  0  0  0  0  0  0  0  0  0  0  0
   57.2242   26.8219   42.9406 H   0  0  0  0  0  0  0  0  0  0  0  0
   58.8531   26.4119   43.6546 H   0  0  0  0  0  0  0  0  0  0  0  0
   57.1451   24.3720   42.3178 H   0  0  0  0  0  0  0  0  0  0  0  0
   56.4052   22.1181   43.0869 H   0  0  0  0  0  0  0  0  0  0  0  0
   56.1275   21.6540   45.5237 H   0  0  0  0  0  0  0  0  0  0  0  0
   56.5805   23.4493   47.1967 H   0  0  0  0  0  0  0  0  0  0  0  0
   58.2269   30.5164   46.6520 H   0  0  0  0  0  0  0  0  0  0  0  0
   60.0222   31.9197   47.6568 H   0  0  0  0  0  0  0  0  0  0  0  0
  1  2  1  0
  2  3  1  0
  3  4  1  0
  4  5  2  0
  5  6  1  0
  6  7  2  0
  7  8  1  0
  8  9  1  0
  9 10  2  0
  9 11  1  0
 11 12  1  0
 12 13  1  0
 13 14  1  0
 14 15  2  0
 15 16  1  0
 16 17  2  0
 17 18  1  0
 18 19  2  0
 19 20  1  0
 20 21  1  0
 21 22  2  0
  7 23  1  0
 23 24  2  0
 24  4  1  0
 21 12  1  0
 19 14  1  0
  1 25  1  0
  1 26  1  0
  1 27  1  0
  2 28  1  0
  2 29  1  0
  5 30  1  0
  6 31  1  0
 11 32  1  0
 11 33  1  0
 13 34  1  0
 13 35  1  0
 15 36  1  0
 16 37  1  0
 17 38  1  0
 18 39  1  0
 23 40  1  0
 24 41  1  0
M  CHG  2   8  -1  20  -1
M  END
>  <UniqueID>  (72) 
63

>  <SMILES>  (72) 
CCOc1ccc([N-]C(=O)CN2Cc3ccccc3[N-]C2=O)cc1

>  <Energy>  (72) 
44.789999778478425

>  <Genealogy>  (72) 
CCOc1ccc([N-]C(=O)CN2Cc3ccccc3[N-]C2=O)cc1 (protonated)
CCOc1ccc([N-]C(=O)CN2Cc3ccccc3[N-]C2=O)cc1 (3D coordinates assigned)
CCOc1ccc([N-]C(=O)CN2Cc3ccccc3[N-]C2=O)cc1 (nonaromatic ring conformer: 44.789999778478425 kcal/mol)

>  <smiles>  (72) 
CCOc1ccc(NC(=O)CN2Cc3ccccc3NC2=O)cc1

>  <score_type>  (72) 
oracle

>  <origin>  (72) 
adg

>  <m_score__min__energy>  (72) 
-11.210000000000001

>  <m_primary>  (72) 
energy

$$$$
72:0
     RDKit          3D

 35 37  0  0  0  0  0  0  0  0999 V2000
   57.6470   26.4520   45.6020 C   0  0  0  0  0  0  0  0  0  0  0  0
   56.2790   27.0410   45.7630 C   0  0  0  0  0  0  0  0  0  0  0  0
   55.3870   26.3640   46.3380 O   0  0  0  0  0  0  0  0  0  0  0  0
   55.9410   28.3370   45.2480 N   0  0  0  0  0  0  0  0  0  0  0  0
   56.7900   29.4920   45.2220 C   0  0  0  0  0  0  0  0  0  0  0  0
   56.5870   30.4610   44.2320 C   0  0  0  0  0  0  0  0  0  0  0  0
   57.3880   31.6050   44.1870 C   0  0  0  0  0  0  0  0  0  0  0  0
   58.4000   31.7980   45.1340 C   0  0  0  0  0  0  0  0  0  0  0  0
   59.2070   32.9820   45.0580 N   0  0  0  0  0  0  0  0  0  0  0  0
   59.3580   33.9700   46.0870 C   0  0  0  0  0  0  0  0  0  0  0  0
   58.5770   34.9590   46.0930 O   0  0  0  0  0  0  0  0  0  0  0  0
   60.4300   33.8880   47.1060 C   0  0  0  0  0  0  0  0  0  0  0  0
   60.1580   34.2490   48.4530 C   0  0  0  0  0  0  0  0  0  0  0  0
   61.1600   34.1720   49.4370 C   0  0  0  0  0  0  0  0  0  0  0  0
   62.4220   33.7390   49.0450 C   0  0  0  0  0  0  0  0  0  0  0  0
   63.5780   33.5640   49.7740 C   0  0  0  0  0  0  0  0  0  0  0  0
   64.5240   33.1190   48.8560 C   0  0  0  0  0  0  0  0  0  0  0  0
   63.9840   33.0220   47.6190 N   0  0  0  0  0  0  0  0  0  0  0  0
   62.7020   33.4020   47.7490 C   0  0  0  0  0  0  0  0  0  0  0  0
   61.7350   33.4700   46.7480 C   0  0  0  0  0  0  0  0  0  0  0  0
   58.5660   30.8560   46.1650 C   0  0  0  0  0  0  0  0  0  0  0  0
   57.7670   29.7120   46.2080 C   0  0  0  0  0  0  0  0  0  0  0  0
   58.0842   26.2638   46.5937 H   0  0  0  0  0  0  0  0  0  0  0  0
   57.5755   25.5049   45.0471 H   0  0  0  0  0  0  0  0  0  0  0  0
   58.2858   27.1548   45.0471 H   0  0  0  0  0  0  0  0  0  0  0  0
   55.7919   30.3208   43.4849 H   0  0  0  0  0  0  0  0  0  0  0  0
   57.2221   32.3582   43.4027 H   0  0  0  0  0  0  0  0  0  0  0  0
   59.1506   34.5932   48.7299 H   0  0  0  0  0  0  0  0  0  0  0  0
   60.9523   34.4452   50.4821 H   0  0  0  0  0  0  0  0  0  0  0  0
   63.7220   33.7386   50.8505 H   0  0  0  0  0  0  0  0  0  0  0  0
   65.5688   32.8787   49.1022 H   0  0  0  0  0  0  0  0  0  0  0  0
   64.4660   32.7130   46.7470 H   0  0  0  0  0  0  0  0  0  0  0  0
   61.9785   33.2063   45.7082 H   0  0  0  0  0  0  0  0  0  0  0  0
   59.3284   31.0212   46.9406 H   0  0  0  0  0  0  0  0  0  0  0  0
   57.9028   28.9795   47.0173 H   0  0  0  0  0  0  0  0  0  0  0  0
  1  2  1  0
  2  3  2  0
  2  4  1  0
  4  5  1  0
  5  6  2  0
  6  7  1  0
  7  8  2  0
  8  9  1  0
  9 10  1  0
 10 11  2  0
 10 12  1  0
 12 13  2  0
 13 14  1  0
 14 15  2  0
 15 16  1  0
 16 17  2  0
 17 18  1  0
 18 19  1  0
 19 20  2  0
  8 21  1  0
 21 22  2  0
 22  5  1  0
 20 12  1  0
 19 15  1  0
  1 23  1  0
  1 24  1  0
  1 25  1  0
  6 26  1  0
  7 27  1  0
 13 28  1  0
 14 29  1  0
 16 30  1  0
 17 31  1  0
 18 32  1  0
 20 33  1  0
 21 34  1  0
 22 35  1  0
M  CHG  2   4  -1   9  -1
M  END
>  <UniqueID>  (73) 
64

>  <SMILES>  (73) 
CC(=O)[N-]c1ccc([N-]C(=O)c2ccc3cc[nH]c3c2)cc1

>  <Energy>  (73) 
79.61069503603515

>  <Genealogy>  (73) 
CC(=O)[N-]c1ccc([N-]C(=O)c2ccc3cc[nH]c3c2)cc1 (protonated)
CC(=O)[N-]c1ccc([N-]C(=O)c2ccc3cc[nH]c3c2)cc1 (3D coordinates assigned)
CC(=O)[N-]c1ccc([N-]C(=O)c2ccc3cc[nH]c3c2)cc1 (optimized conformer: 79.61069503603515 kcal/mol)

>  <smiles>  (73) 
CC(=O)Nc1ccc(NC(=O)c2ccc3cc[nH]c3c2)cc1

>  <score_type>  (73) 
oracle

>  <origin>  (73) 
adg

>  <m_score__min__energy>  (73) 
-10.880000000000001

>  <m_primary>  (73) 
energy

$$$$
73:0
     RDKit          3D

 42 45  0  0  0  0  0  0  0  0999 V2000
   54.3300   26.3290   45.9940 O   0  0  0  0  0  0  0  0  0  0  0  0
   55.5750   26.1500   46.0430 C   0  0  0  0  0  0  0  0  0  0  0  0
   56.1150   24.8540   46.3370 N   0  0  0  0  0  0  0  0  0  0  0  0
   56.5330   23.8610   45.3880 C   0  0  0  0  0  0  0  0  0  0  0  0
   55.8660   23.7850   44.1580 C   0  0  0  0  0  0  0  0  0  0  0  0
   56.2560   22.8460   43.1980 C   0  0  0  0  0  0  0  0  0  0  0  0
   57.3260   21.9860   43.4550 C   0  0  0  0  0  0  0  0  0  0  0  0
   58.0140   22.0710   44.6680 C   0  0  0  0  0  0  0  0  0  0  0  0
   57.6270   23.0080   45.6310 C   0  0  0  0  0  0  0  0  0  0  0  0
   56.4440   27.2620   45.8060 N   0  0  0  0  0  0  0  0  0  0  0  0
   57.8720   27.2750   45.9610 C   0  0  0  0  0  0  0  0  0  0  0  0
   58.5550   26.1870   46.5370 C   0  0  0  0  0  0  0  0  0  0  0  0
   59.9420   26.2300   46.7010 C   0  0  0  0  0  0  0  0  0  0  0  0
   60.6610   27.3510   46.2850 C   0  0  0  0  0  0  0  0  0  0  0  0
   59.9980   28.4240   45.6860 C   0  0  0  0  0  0  0  0  0  0  0  0
   58.6090   28.3850   45.4990 C   0  0  0  0  0  0  0  0  0  0  0  0
   57.9490   29.5000   44.8800 N   0  0  0  0  0  0  0  0  0  0  0  0
   57.0340   29.3940   43.7430 C   0  0  0  0  0  0  0  0  0  0  0  0
   56.6760   30.8490   43.3510 C   0  0  0  0  0  0  0  0  0  0  0  0
   57.4010   31.6690   44.3620 C   0  0  0  0  0  0  0  0  0  0  0  0
   57.3920   33.0570   44.5110 C   0  0  0  0  0  0  0  0  0  0  0  0
   58.1270   33.6220   45.5680 C   0  0  0  0  0  0  0  0  0  0  0  0
   58.8420   32.7950   46.4540 C   0  0  0  0  0  0  0  0  0  0  0  0
   58.8330   31.4010   46.2850 C   0  0  0  0  0  0  0  0  0  0  0  0
   58.1100   30.8680   45.2120 C   0  0  0  0  0  0  0  0  0  0  0  0
   55.0304   24.4683   43.9463 H   0  0  0  0  0  0  0  0  0  0  0  0
   55.7196   22.7847   42.2396 H   0  0  0  0  0  0  0  0  0  0  0  0
   57.6269   21.2420   42.7027 H   0  0  0  0  0  0  0  0  0  0  0  0
   58.8622   21.3992   44.8659 H   0  0  0  0  0  0  0  0  0  0  0  0
   58.1781   23.0790   46.5803 H   0  0  0  0  0  0  0  0  0  0  0  0
   57.9935   25.2979   46.8598 H   0  0  0  0  0  0  0  0  0  0  0  0
   60.4677   25.3790   47.1587 H   0  0  0  0  0  0  0  0  0  0  0  0
   61.7509   27.3895   46.4290 H   0  0  0  0  0  0  0  0  0  0  0  0
   60.5690   29.3054   45.3588 H   0  0  0  0  0  0  0  0  0  0  0  0
   57.5250   28.8809   42.9030 H   0  0  0  0  0  0  0  0  0  0  0  0
   56.1366   28.8116   43.9990 H   0  0  0  0  0  0  0  0  0  0  0  0
   57.0253   31.0796   42.3338 H   0  0  0  0  0  0  0  0  0  0  0  0
   55.5922   31.0369   43.3438 H   0  0  0  0  0  0  0  0  0  0  0  0
   56.8231   33.6938   43.8176 H   0  0  0  0  0  0  0  0  0  0  0  0
   58.1432   34.7136   45.7028 H   0  0  0  0  0  0  0  0  0  0  0  0
   59.4105   33.2425   47.2826 H   0  0  0  0  0  0  0  0  0  0  0  0
   59.3801   30.7450   46.9781 H   0  0  0  0  0  0  0  0  0  0  0  0
  1  2  2  0
  2  3  1  0
  3  4  1  0
  4  5  2  0
  5  6  1  0
  6  7  2  0
  7  8  1  0
  8  9  2  0
  2 10  1  0
 10 11  1  0
 11 12  2  0
 12 13  1  0
 13 14  2  0
 14 15  1  0
 15 16  2  0
 16 17  1  0
 17 18  1  0
 18 19  1  0
 19 20  1  0
 20 21  2  0
 21 22  1  0
 22 23  2  0
 23 24  1  0
 24 25  2  0
  9  4  1  0
 16 11  1  0
 25 17  1  0
 25 20  1  0
  5 26  1  0
  6 27  1  0
  7 28  1  0
  8 29  1  0
  9 30  1  0
 12 31  1  0
 13 32  1  0
 14 33  1  0
 15 34  1  0
 18 35  1  0
 18 36  1  0
 19 37  1  0
 19 38  1  0
 21 39  1  0
 22 40  1  0
 23 41  1  0
 24 42  1  0
M  CHG  2   3  -1  10  -1
M  END
>  <UniqueID>  (74) 
65

>  <SMILES>  (74) 
O=C([N-]c1ccccc1)[N-]c1ccccc1N1CCc2ccccc21

>  <Energy>  (74) 
73.54025615422935

>  <Genealogy>  (74) 
O=C([N-]c1ccccc1)[N-]c1ccccc1N1CCc2ccccc21 (protonated)
O=C([N-]c1ccccc1)[N-]c1ccccc1N1CCc2ccccc21 (3D coordinates assigned)
O=C([N-]c1ccccc1)[N-]c1ccccc1N1CCc2ccccc21 (nonaromatic ring conformer: 73.54025615422935 kcal/mol)

>  <smiles>  (74) 
O=C(Nc1ccccc1)Nc1ccccc1N1CCc2ccccc21

>  <score_type>  (74) 
oracle

>  <origin>  (74) 
adg

>  <m_score__min__energy>  (74) 
-12.109999999999999

>  <m_primary>  (74) 
energy

$$$$
74:0
     RDKit          3D

 43 45  0  0  0  0  0  0  0  0999 V2000
   57.6870   28.8120   44.4600 C   0  0  0  0  0  0  0  0  0  0  0  0
   57.1450   30.1500   44.8630 C   0  0  0  0  0  0  0  0  0  0  0  0
   55.9960   30.4810   44.4630 O   0  0  0  0  0  0  0  0  0  0  0  0
   57.9030   31.0450   45.7090 N   0  0  0  0  0  0  0  0  0  0  0  0
   57.4170   32.4120   45.9620 C   0  0  0  0  0  0  0  0  0  0  0  0
   58.5870   33.4040   45.9740 C   0  0  0  0  0  0  0  0  0  0  0  0
   59.7320   32.8940   46.7420 N   0  0  0  0  0  0  0  0  0  0  0  0
   60.8550   33.7620   46.9730 C   0  0  0  0  0  0  0  0  0  0  0  0
   60.6550   34.9600   47.3100 O   0  0  0  0  0  0  0  0  0  0  0  0
   62.2640   33.3020   46.7280 C   0  0  0  0  0  0  0  0  0  0  0  0
   63.4310   34.1910   47.8200 S   0  0  0  0  0  0  0  0  0  0  0  0
   63.2690   33.0480   49.2060 C   0  0  0  0  0  0  0  0  0  0  0  0
   64.3350   32.1810   49.4760 C   0  0  0  0  0  0  0  0  0  0  0  0
   64.2550   31.2580   50.5200 C   0  0  0  0  0  0  0  0  0  0  0  0
   63.1070   31.1920   51.3120 C   0  0  0  0  0  0  0  0  0  0  0  0
   62.0360   32.0620   51.0720 C   0  0  0  0  0  0  0  0  0  0  0  0
   60.8820   32.0090   51.8630 C   0  0  0  0  0  0  0  0  0  0  0  0
   59.8290   32.8870   51.6150 C   0  0  0  0  0  0  0  0  0  0  0  0
   59.9400   33.8190   50.5840 C   0  0  0  0  0  0  0  0  0  0  0  0
   61.0650   33.8690   49.8180 N   0  0  0  0  0  0  0  0  0  0  0  0
   62.1120   33.0110   50.0200 C   0  0  0  0  0  0  0  0  0  0  0  0
   59.6350   31.5900   47.4070 C   0  0  0  0  0  0  0  0  0  0  0  0
   59.0940   30.5500   46.4220 C   0  0  0  0  0  0  0  0  0  0  0  0
   57.9243   28.2262   45.3603 H   0  0  0  0  0  0  0  0  0  0  0  0
   56.9348   28.2767   43.8620 H   0  0  0  0  0  0  0  0  0  0  0  0
   58.5997   28.9511   43.8620 H   0  0  0  0  0  0  0  0  0  0  0  0
   56.7088   32.6969   45.1700 H   0  0  0  0  0  0  0  0  0  0  0  0
   56.9191   32.4370   46.9425 H   0  0  0  0  0  0  0  0  0  0  0  0
   58.9076   33.5879   44.9380 H   0  0  0  0  0  0  0  0  0  0  0  0
   58.2416   34.3317   46.4536 H   0  0  0  0  0  0  0  0  0  0  0  0
   62.3319   32.2226   46.9289 H   0  0  0  0  0  0  0  0  0  0  0  0
   62.5284   33.5118   45.6811 H   0  0  0  0  0  0  0  0  0  0  0  0
   65.2446   32.2278   48.8591 H   0  0  0  0  0  0  0  0  0  0  0  0
   65.0986   30.5808   50.7193 H   0  0  0  0  0  0  0  0  0  0  0  0
   63.0436   30.4551   52.1262 H   0  0  0  0  0  0  0  0  0  0  0  0
   60.8068   31.2752   52.6791 H   0  0  0  0  0  0  0  0  0  0  0  0
   58.9167   32.8452   52.2282 H   0  0  0  0  0  0  0  0  0  0  0  0
   59.1138   34.5183   50.3880 H   0  0  0  0  0  0  0  0  0  0  0  0
   61.1020   34.5940   49.0710 H   0  0  0  0  0  0  0  0  0  0  0  0
   60.6319   31.2812   47.7545 H   0  0  0  0  0  0  0  0  0  0  0  0
   58.9532   31.6682   48.2667 H   0  0  0  0  0  0  0  0  0  0  0  0
   59.8773   30.3134   45.6868 H   0  0  0  0  0  0  0  0  0  0  0  0
   58.8059   29.6542   46.9917 H   0  0  0  0  0  0  0  0  0  0  0  0
  1  2  1  0
  2  3  2  0
  2  4  1  0
  4  5  1  0
  5  6  1  0
  6  7  1  0
  7  8  1  0
  8  9  2  0
  8 10  1  0
 10 11  1  0
 11 12  1  0
 12 13  2  0
 13 14  1  0
 14 15  2  0
 15 16  1  0
 16 17  2  0
 17 18  1  0
 18 19  2  0
 19 20  1  0
 20 21  2  0
  7 22  1  0
 22 23  1  0
 23  4  1  0
 21 12  1  0
 21 16  1  0
  1 24  1  0
  1 25  1  0
  1 26  1  0
  5 27  1  0
  5 28  1  0
  6 29  1  0
  6 30  1  0
 10 31  1  0
 10 32  1  0
 13 33  1  0
 14 34  1  0
 15 35  1  0
 17 36  1  0
 18 37  1  0
 19 38  1  0
 20 39  1  0
 22 40  1  0
 22 41  1  0
 23 42  1  0
 23 43  1  0
M  CHG  1  20   1
M  END
>  <UniqueID>  (75) 
66

>  <SMILES>  (75) 
CC(=O)N1CCN(C(=O)CSc2cccc3ccc[nH+]c23)CC1

>  <Energy>  (75) 
46.35603834341587

>  <Genealogy>  (75) 
CC(=O)N1CCN(C(=O)CSc2cccc3ccc[nH+]c23)CC1 (protonated)
CC(=O)N1CCN(C(=O)CSc2cccc3ccc[nH+]c23)CC1 (3D coordinates assigned)
CC(=O)N1CCN(C(=O)CSc2cccc3ccc[nH+]c23)CC1 (nonaromatic ring conformer: 46.35603834341587 kcal/mol)

>  <smiles>  (75) 
CC(=O)N1CCN(C(=O)CSc2cccc3cccnc23)CC1

>  <score_type>  (75) 
oracle

>  <origin>  (75) 
adg

>  <m_score__min__energy>  (75) 
-6.4800000000000004

>  <m_primary>  (75) 
energy

$$$$
75:0
     RDKit          3D

 39 41  0  0  0  0  0  0  0  0999 V2000
   64.5120   32.7680   49.0470 C   0  0  0  0  0  0  0  0  0  0  0  0
   63.3430   32.7930   50.0180 C   0  0  0  0  0  0  0  0  0  0  0  0
   62.5120   33.9160   49.7350 O   0  0  0  0  0  0  0  0  0  0  0  0
   61.5790   33.9660   48.6890 C   0  0  0  0  0  0  0  0  0  0  0  0
   61.9430   33.7910   47.3410 C   0  0  0  0  0  0  0  0  0  0  0  0
   60.9720   33.8420   46.3370 C   0  0  0  0  0  0  0  0  0  0  0  0
   59.6300   34.0690   46.6620 C   0  0  0  0  0  0  0  0  0  0  0  0
   58.4190   34.1100   45.3850 S   0  0  0  0  0  0  0  0  0  0  0  0
   58.6770   35.3040   44.5120 O   0  0  0  0  0  0  0  0  0  0  0  0
   57.0330   34.2190   45.9570 O   0  0  0  0  0  0  0  0  0  0  0  0
   58.5320   32.6690   44.4280 N   0  0  0  0  0  0  0  0  0  0  0  0
   57.7610   31.4740   44.6300 C   0  0  0  0  0  0  0  0  0  0  0  0
   56.6080   31.2000   43.8710 C   0  0  0  0  0  0  0  0  0  0  0  0
   55.8770   30.0290   44.0900 C   0  0  0  0  0  0  0  0  0  0  0  0
   56.2820   29.1120   45.0640 C   0  0  0  0  0  0  0  0  0  0  0  0
   55.5370   27.9530   45.2540 O   0  0  0  0  0  0  0  0  0  0  0  0
   57.4310   29.3690   45.8320 C   0  0  0  0  0  0  0  0  0  0  0  0
   57.8690   28.4740   46.8210 C   0  0  0  0  0  0  0  0  0  0  0  0
   59.0160   28.7610   47.5630 C   0  0  0  0  0  0  0  0  0  0  0  0
   59.7190   29.9430   47.3130 C   0  0  0  0  0  0  0  0  0  0  0  0
   60.9010   30.2590   48.0680 C   0  0  0  0  0  0  0  0  0  0  0  0
   61.8520   30.5140   48.6760 N   0  0  0  0  0  0  0  0  0  0  0  0
   59.2850   30.8020   46.3540 N   0  0  0  0  0  0  0  0  0  0  0  0
   58.1710   30.5550   45.6100 C   0  0  0  0  0  0  0  0  0  0  0  0
   59.2650   34.2490   48.0030 C   0  0  0  0  0  0  0  0  0  0  0  0
   60.2350   34.1960   49.0090 C   0  0  0  0  0  0  0  0  0  0  0  0
   65.4564   32.7478   49.6106 H   0  0  0  0  0  0  0  0  0  0  0  0
   64.4436   31.8711   48.4138 H   0  0  0  0  0  0  0  0  0  0  0  0
   64.4820   33.6670   48.4138 H   0  0  0  0  0  0  0  0  0  0  0  0
   62.7577   31.8678   49.9106 H   0  0  0  0  0  0  0  0  0  0  0  0
   63.7237   32.8697   51.0472 H   0  0  0  0  0  0  0  0  0  0  0  0
   62.9958   33.6134   47.0764 H   0  0  0  0  0  0  0  0  0  0  0  0
   61.2643   33.7029   45.2857 H   0  0  0  0  0  0  0  0  0  0  0  0
   56.2798   31.9125   43.0999 H   0  0  0  0  0  0  0  0  0  0  0  0
   54.9764   29.8276   43.4914 H   0  0  0  0  0  0  0  0  0  0  0  0
   57.3085   27.5468   47.0111 H   0  0  0  0  0  0  0  0  0  0  0  0
   59.3639   28.0625   48.3383 H   0  0  0  0  0  0  0  0  0  0  0  0
   58.2125   34.4325   48.2650 H   0  0  0  0  0  0  0  0  0  0  0  0
   59.9402   34.3360   50.0595 H   0  0  0  0  0  0  0  0  0  0  0  0
  1  2  1  0
  2  3  1  0
  3  4  1  0
  4  5  2  0
  5  6  1  0
  6  7  2  0
  7  8  1  0
  8  9  2  0
  8 10  2  0
  8 11  1  0
 11 12  1  0
 12 13  2  0
 13 14  1  0
 14 15  2  0
 15 16  1  0
 15 17  1  0
 17 18  2  0
 18 19  1  0
 19 20  2  0
 20 21  1  0
 21 22  3  0
 20 23  1  0
 23 24  2  0
  7 25  1  0
 25 26  2  0
 26  4  1  0
 24 12  1  0
 24 17  1  0
  1 27  1  0
  1 28  1  0
  1 29  1  0
  2 30  1  0
  2 31  1  0
  5 32  1  0
  6 33  1  0
 13 34  1  0
 14 35  1  0
 18 36  1  0
 19 37  1  0
 25 38  1  0
 26 39  1  0
M  CHG  2  11  -1  16  -1
M  END
>  <UniqueID>  (76) 
67

>  <SMILES>  (76) 
CCOc1ccc(S(=O)(=O)[N-]c2ccc([O-])c3ccc(C#N)nc23)cc1

>  <Energy>  (76) 
44.68258642131411

>  <Genealogy>  (76) 
CCOc1ccc(S(=O)(=O)[N-]c2ccc([O-])c3ccc(C#N)nc23)cc1 (protonated)
CCOc1ccc(S(=O)(=O)[N-]c2ccc([O-])c3ccc(C#N)nc23)cc1 (3D coordinates assigned)
CCOc1ccc(S(=O)(=O)[N-]c2ccc([O-])c3ccc(C#N)nc23)cc1 (optimized conformer: 44.68258642131411 kcal/mol)

>  <smiles>  (76) 
CCOc1ccc(S(=O)(=O)Nc2ccc(O)c3ccc(C#N)nc23)cc1

>  <score_type>  (76) 
oracle

>  <origin>  (76) 
adg

>  <m_score__min__energy>  (76) 
-11.52

>  <m_primary>  (76) 
energy

$$$$
76:0
     RDKit          3D

 44 46  0  0  0  0  0  0  0  0999 V2000
   60.0550   30.1850   47.4410 C   0  0  0  0  0  0  0  0  0  0  0  0
   58.8290   30.4900   46.6990 N   0  0  0  0  0  0  0  0  0  0  0  0
   57.9960   29.4050   46.2320 C   0  0  0  0  0  0  0  0  0  0  0  0
   57.9280   28.3410   46.9060 O   0  0  0  0  0  0  0  0  0  0  0  0
   57.1910   29.5040   44.9940 C   0  0  0  0  0  0  0  0  0  0  0  0
   57.6270   29.1660   43.7260 C   0  0  0  0  0  0  0  0  0  0  0  0
   56.5540   29.3880   42.8890 C   0  0  0  0  0  0  0  0  0  0  0  0
   55.5330   29.8480   43.6920 C   0  0  0  0  0  0  0  0  0  0  0  0
   55.9420   29.9060   44.9380 O   0  0  0  0  0  0  0  0  0  0  0  0
   58.6220   31.8390   46.2480 C   0  0  0  0  0  0  0  0  0  0  0  0
   58.7220   32.1250   44.8780 C   0  0  0  0  0  0  0  0  0  0  0  0
   58.5040   33.4210   44.4090 C   0  0  0  0  0  0  0  0  0  0  0  0
   58.1860   34.4430   45.3040 C   0  0  0  0  0  0  0  0  0  0  0  0
   58.0880   34.1740   46.6710 C   0  0  0  0  0  0  0  0  0  0  0  0
   58.3080   32.8730   47.1600 C   0  0  0  0  0  0  0  0  0  0  0  0
   58.1760   32.6060   48.6430 C   0  0  0  0  0  0  0  0  0  0  0  0
   59.4780   32.6960   49.3180 N   0  0  0  0  0  0  0  0  0  0  0  0
   60.2070   33.9090   48.9160 C   0  0  0  0  0  0  0  0  0  0  0  0
   61.5440   33.5840   48.2900 C   0  0  0  0  0  0  0  0  0  0  0  0
   62.4960   32.8850   49.0460 C   0  0  0  0  0  0  0  0  0  0  0  0
   63.7120   32.5190   48.4630 C   0  0  0  0  0  0  0  0  0  0  0  0
   63.9680   32.8270   47.1630 N   0  0  0  0  0  0  0  0  0  0  0  0
   63.0590   33.4910   46.4010 C   0  0  0  0  0  0  0  0  0  0  0  0
   61.8320   33.8780   46.9450 C   0  0  0  0  0  0  0  0  0  0  0  0
   59.8521   30.2355   48.5210 H   0  0  0  0  0  0  0  0  0  0  0  0
   60.3998   29.1737   47.1796 H   0  0  0  0  0  0  0  0  0  0  0  0
   60.8335   30.9169   47.1796 H   0  0  0  0  0  0  0  0  0  0  0  0
   58.6238   28.7964   43.4435 H   0  0  0  0  0  0  0  0  0  0  0  0
   56.5199   29.2300   41.8009 H   0  0  0  0  0  0  0  0  0  0  0  0
   54.5276   30.1247   43.3419 H   0  0  0  0  0  0  0  0  0  0  0  0
   58.9739   31.3224   44.1691 H   0  0  0  0  0  0  0  0  0  0  0  0
   58.5829   33.6370   43.3333 H   0  0  0  0  0  0  0  0  0  0  0  0
   58.0120   35.4634   44.9320 H   0  0  0  0  0  0  0  0  0  0  0  0
   57.8370   34.9850   47.3705 H   0  0  0  0  0  0  0  0  0  0  0  0
   57.4926   33.3481   49.0816 H   0  0  0  0  0  0  0  0  0  0  0  0
   57.7830   31.5877   48.7795 H   0  0  0  0  0  0  0  0  0  0  0  0
   60.0430   31.8700   49.0110 H   0  0  0  0  0  0  0  0  0  0  0  0
   59.5986   34.4638   48.1865 H   0  0  0  0  0  0  0  0  0  0  0  0
   60.3913   34.5099   49.8188 H   0  0  0  0  0  0  0  0  0  0  0  0
   62.2863   32.6257   50.0942 H   0  0  0  0  0  0  0  0  0  0  0  0
   64.4647   31.9801   49.0572 H   0  0  0  0  0  0  0  0  0  0  0  0
   64.8810   32.5440   46.7410 H   0  0  0  0  0  0  0  0  0  0  0  0
   63.2907   33.7246   45.3514 H   0  0  0  0  0  0  0  0  0  0  0  0
   61.0952   34.4097   46.3250 H   0  0  0  0  0  0  0  0  0  0  0  0
  1  2  1  0
  2  3  1  0
  3  4  2  0
  3  5  1  0
  5  6  2  0
  6  7  1  0
  7  8  2  0
  8  9  1  0
  2 10  1  0
 10 11  2  0
 11 12  1  0
 12 13  2  0
 13 14  1  0
 14 15  2  0
 15 16  1  0
 16 17  1  0
 17 18  1  0
 18 19  1  0
 19 20  2  0
 20 21  1  0
 21 22  2  0
 22 23  1  0
 23 24  2  0
  9  5  1  0
 15 10  1  0
 24 19  1  0
  1 25  1  0
  1 26  1  0
  1 27  1  0
  6 28  1  0
  7 29  1  0
  8 30  1  0
 11 31  1  0
 12 32  1  0
 13 33  1  0
 14 34  1  0
 16 35  1  0
 16 36  1  0
 17 37  1  0
 18 38  1  0
 18 39  1  0
 20 40  1  0
 21 41  1  0
 22 42  1  0
 23 43  1  0
 24 44  1  0
M  CHG  1  22   1
M  END
>  <UniqueID>  (77) 
68

>  <SMILES>  (77) 
CN(C(=O)c1ccco1)c1ccccc1CNCc1cc[nH+]cc1

>  <Energy>  (77) 
75.21168443653407

>  <Genealogy>  (77) 
CN(C(=O)c1ccco1)c1ccccc1CNCc1cc[nH+]cc1 (protonated)
CN(C(=O)c1ccco1)c1ccccc1CNCc1cc[nH+]cc1 (3D coordinates assigned)
CN(C(=O)c1ccco1)c1ccccc1CNCc1cc[nH+]cc1 (optimized conformer: 75.21168443653407 kcal/mol)

>  <smiles>  (77) 
CN(C(=O)c1ccco1)c1ccccc1CNCc1ccncc1

>  <score_type>  (77) 
oracle

>  <origin>  (77) 
adg

>  <m_score__min__energy>  (77) 
-6.9900000000000002

>  <m_primary>  (77) 
energy

$$$$
77:0
     RDKit          3D

 36 37  0  0  0  0  0  0  0  0999 V2000
   54.3330   26.2600   45.1130 H   0  0  0  0  0  0  0  0  0  0  0  0
   54.7700   26.3410   46.0580 N   0  0  0  0  0  0  0  0  0  0  0  0
   56.3430   25.6350   45.9510 S   0  0  0  0  0  0  0  0  0  0  0  0
   56.7680   25.1510   47.3100 O   0  0  0  0  0  0  0  0  0  0  0  0
   56.3080   24.4640   45.0090 O   0  0  0  0  0  0  0  0  0  0  0  0
   57.4820   26.8370   45.3520 C   0  0  0  0  0  0  0  0  0  0  0  0
   58.1060   26.6690   44.1100 C   0  0  0  0  0  0  0  0  0  0  0  0
   57.8893   25.7778   43.5027 H   0  0  0  0  0  0  0  0  0  0  0  0
   59.0030   27.6310   43.6410 C   0  0  0  0  0  0  0  0  0  0  0  0
   59.4836   27.5006   42.6602 H   0  0  0  0  0  0  0  0  0  0  0  0
   59.2920   28.7590   44.4140 C   0  0  0  0  0  0  0  0  0  0  0  0
   59.9891   29.5200   44.0333 H   0  0  0  0  0  0  0  0  0  0  0  0
   58.6950   28.9250   45.6770 C   0  0  0  0  0  0  0  0  0  0  0  0
   58.9360   30.0970   46.4750 N   0  0  0  0  0  0  0  0  0  0  0  0
   58.1800   30.8170   46.5280 H   0  0  0  0  0  0  0  0  0  0  0  0
   60.1570   30.3560   47.1830 C   0  0  0  0  0  0  0  0  0  0  0  0
   60.8830   29.4030   47.5770 O   0  0  0  0  0  0  0  0  0  0  0  0
   60.5620   31.7670   47.4840 C   0  0  0  0  0  0  0  0  0  0  0  0
   60.3427   31.9869   48.5393 H   0  0  0  0  0  0  0  0  0  0  0  0
   61.6385   31.8729   47.2840 H   0  0  0  0  0  0  0  0  0  0  0  0
   59.8360   32.7120   46.6380 N   0  0  0  0  0  0  0  0  0  0  0  0
   58.5690   33.3150   46.9410 C   0  0  0  0  0  0  0  0  0  0  0  0
   58.5330   34.2900   47.7360 O   0  0  0  0  0  0  0  0  0  0  0  0
   57.3600   32.9020   46.2910 N   0  0  0  0  0  0  0  0  0  0  0  0
   57.2990   32.3230   45.1300 C   0  0  0  0  0  0  0  0  0  0  0  0
   56.6520   31.1320   44.9710 N   0  0  0  0  0  0  0  0  0  0  0  0
   56.5830   30.5110   43.7620 C   0  0  0  0  0  0  0  0  0  0  0  0
   56.0553   29.5504   43.6677 H   0  0  0  0  0  0  0  0  0  0  0  0
   57.1800   31.0900   42.6420 C   0  0  0  0  0  0  0  0  0  0  0  0
   57.1319   30.5883   41.6642 H   0  0  0  0  0  0  0  0  0  0  0  0
   57.8390   32.3130   42.7760 C   0  0  0  0  0  0  0  0  0  0  0  0
   58.3131   32.7826   41.9015 H   0  0  0  0  0  0  0  0  0  0  0  0
   57.8950   32.9390   44.0230 C   0  0  0  0  0  0  0  0  0  0  0  0
   58.4032   33.9082   44.1346 H   0  0  0  0  0  0  0  0  0  0  0  0
   57.7790   27.9630   46.1300 C   0  0  0  0  0  0  0  0  0  0  0  0
   57.2893   28.0948   47.1061 H   0  0  0  0  0  0  0  0  0  0  0  0
  1  2  1  0
  2  3  1  0
  3  4  2  0
  3  5  2  0
  3  6  1  0
  6  7  2  0
  7  8  1  0
  7  9  1  0
  9 10  1  0
  9 11  2  0
 11 12  1  0
 11 13  1  0
 13 14  1  0
 14 15  1  0
 14 16  1  0
 16 17  2  0
 16 18  1  0
 18 19  1  0
 18 20  1  0
 18 21  1  0
 21 22  1  0
 22 23  2  0
 22 24  1  0
 24 25  2  0
 25 26  1  0
 26 27  1  0
 27 28  1  0
 27 29  2  0
 29 30  1  0
 29 31  1  0
 31 32  1  0
 31 33  2  0
 33 34  1  0
 13 35  2  0
 35 36  1  0
 35  6  1  0
 33 25  1  0
M  CHG  3   2  -1  21  -1  26  -1
M  END
>  <UniqueID>  (78) 
69

>  <SMILES>  (78) 
[NH-]S(=O)(=O)c1cccc(NC(=O)C[N-]C(=O)/N=c2/cccc[n-]2)c1

>  <Energy>  (78) 
43.492732322154716

>  <Genealogy>  (78) 
[NH-]S(=O)(=O)c1cccc(NC(=O)C[N-]C(=O)N=c2cccc[n-]2)c1 (protonated)
[NH-]S(=O)(=O)c1cccc(NC(=O)C[N-]C(=O)/N=c2/cccc[n-]2)c1 (cis-trans isomerization)
[NH-]S(=O)(=O)c1cccc(NC(=O)C[N-]C(=O)/N=c2/cccc[n-]2)c1 (3D coordinates assigned)
[NH-]S(=O)(=O)c1cccc(NC(=O)C[N-]C(=O)/N=c2/cccc[n-]2)c1 (optimized conformer: 43.492732322154716 kcal/mol)

>  <smiles>  (78) 
NS(=O)(=O)c1cccc(NC(=O)CNC(=O)N=c2cccc[nH]2)c1

>  <score_type>  (78) 
oracle

>  <origin>  (78) 
adg

>  <m_score__min__energy>  (78) 
-12.050000000000001

>  <m_primary>  (78) 
energy

$$$$
78:0
     RDKit          3D

 28 30  0  0  0  0  0  0  0  0999 V2000
   58.1410   30.2210   46.2600 C   0  0  0  0  0  0  0  0  0  0  0  0
   57.3770   30.0340   44.9880 C   0  0  0  0  0  0  0  0  0  0  0  0
   56.3200   30.8020   44.6500 N   0  0  0  0  0  0  0  0  0  0  0  0
   55.9060   30.2950   43.4700 C   0  0  0  0  0  0  0  0  0  0  0  0
   56.7070   29.2330   43.1150 C   0  0  0  0  0  0  0  0  0  0  0  0
   57.6400   29.0770   44.0700 N   0  0  0  0  0  0  0  0  0  0  0  0
   58.6460   28.0180   44.1280 C   0  0  0  0  0  0  0  0  0  0  0  0
   58.0260   26.7480   44.6220 C   0  0  0  0  0  0  0  0  0  0  0  0
   57.6930   26.5380   45.9580 C   0  0  0  0  0  0  0  0  0  0  0  0
   57.0870   24.9750   46.0940 S   0  0  0  0  0  0  0  0  0  0  0  0
   57.2830   24.6340   44.4580 C   0  0  0  0  0  0  0  0  0  0  0  0
   56.9500   23.3590   43.8100 C   0  0  0  0  0  0  0  0  0  0  0  0
   57.6680   22.1850   43.8930 C   0  0  0  0  0  0  0  0  0  0  0  0
   56.9710   21.2710   43.1290 C   0  0  0  0  0  0  0  0  0  0  0  0
   55.9040   21.8420   42.6160 O   0  0  0  0  0  0  0  0  0  0  0  0
   55.8600   23.0960   43.0050 C   0  0  0  0  0  0  0  0  0  0  0  0
   57.8060   25.6890   43.7960 N   0  0  0  0  0  0  0  0  0  0  0  0
   57.4715   30.0571   47.1173 H   0  0  0  0  0  0  0  0  0  0  0  0
   58.9702   29.4993   46.2991 H   0  0  0  0  0  0  0  0  0  0  0  0
   58.5432   31.2441   46.2991 H   0  0  0  0  0  0  0  0  0  0  0  0
   55.0573   30.6729   42.8811 H   0  0  0  0  0  0  0  0  0  0  0  0
   56.6018   28.6193   42.2082 H   0  0  0  0  0  0  0  0  0  0  0  0
   59.0602   27.8538   43.1223 H   0  0  0  0  0  0  0  0  0  0  0  0
   59.4481   28.3198   44.8176 H   0  0  0  0  0  0  0  0  0  0  0  0
   57.8060   27.2638   46.7768 H   0  0  0  0  0  0  0  0  0  0  0  0
   58.6003   22.0129   44.4508 H   0  0  0  0  0  0  0  0  0  0  0  0
   57.2643   20.2224   42.9729 H   0  0  0  0  0  0  0  0  0  0  0  0
   55.0789   23.8210   42.7326 H   0  0  0  0  0  0  0  0  0  0  0  0
  1  2  1  0
  2  3  2  0
  3  4  1  0
  4  5  2  0
  5  6  1  0
  6  7  1  0
  7  8  1  0
  8  9  2  0
  9 10  1  0
 10 11  1  0
 11 12  1  0
 12 13  1  0
 13 14  2  0
 14 15  1  0
 15 16  1  0
 11 17  2  0
  6  2  1  0
 17  8  1  0
 16 12  2  0
  1 18  1  0
  1 19  1  0
  1 20  1  0
  4 21  1  0
  5 22  1  0
  7 23  1  0
  7 24  1  0
  9 25  1  0
 13 26  1  0
 14 27  1  0
 16 28  1  0
M  END
>  <UniqueID>  (79) 
70

>  <SMILES>  (79) 
Cc1nccn1Cc1csc(-c2ccoc2)n1

>  <Energy>  (79) 
110.76998953564645

>  <Genealogy>  (79) 
Cc1nccn1Cc1csc(-c2ccoc2)n1 (3D coordinates assigned)
Cc1nccn1Cc1csc(-c2ccoc2)n1 (optimized conformer: 110.76998953564645 kcal/mol)

>  <smiles>  (79) 
Cc1nccn1Cc1csc(-c2ccoc2)n1

>  <score_type>  (79) 
oracle

>  <origin>  (79) 
adg

>  <m_score__min__energy>  (79) 
-6.0999999999999996

>  <m_primary>  (79) 
energy

$$$$
79:0
     RDKit          3D

 27 29  0  0  0  0  0  0  0  0999 V2000
   64.5690   33.8250   49.8620 F   0  0  0  0  0  0  0  0  0  0  0  0
   63.4700   33.7440   49.0730 C   0  0  0  0  0  0  0  0  0  0  0  0
   62.1960   33.8660   49.6340 C   0  0  0  0  0  0  0  0  0  0  0  0
   61.0600   33.7830   48.8220 C   0  0  0  0  0  0  0  0  0  0  0  0
   61.1920   33.5770   47.4380 C   0  0  0  0  0  0  0  0  0  0  0  0
   59.9900   33.4900   46.5840 C   0  0  0  0  0  0  0  0  0  0  0  0
   59.1400   34.5130   46.3600 N   0  0  0  0  0  0  0  0  0  0  0  0
   58.2100   34.0310   45.5530 N   0  0  0  0  0  0  0  0  0  0  0  0
   58.5140   32.7420   45.3080 C   0  0  0  0  0  0  0  0  0  0  0  0
   57.7460   31.8150   44.4550 C   0  0  0  0  0  0  0  0  0  0  0  0
   57.7620   31.9100   43.0520 C   0  0  0  0  0  0  0  0  0  0  0  0
   57.0140   31.0040   42.2970 C   0  0  0  0  0  0  0  0  0  0  0  0
   56.2620   30.0170   42.9350 C   0  0  0  0  0  0  0  0  0  0  0  0
   56.2690   29.9510   44.3290 C   0  0  0  0  0  0  0  0  0  0  0  0
   57.0020   30.8420   45.0490 N   0  0  0  0  0  0  0  0  0  0  0  0
   59.6120   32.4060   45.9420 O   0  0  0  0  0  0  0  0  0  0  0  0
   62.4760   33.4540   46.8810 C   0  0  0  0  0  0  0  0  0  0  0  0
   63.6100   33.5380   47.6970 C   0  0  0  0  0  0  0  0  0  0  0  0
   62.0862   34.0277   50.7165 H   0  0  0  0  0  0  0  0  0  0  0  0
   60.0593   33.8794   49.2685 H   0  0  0  0  0  0  0  0  0  0  0  0
   57.4030   34.5840   45.1930 H   0  0  0  0  0  0  0  0  0  0  0  0
   58.3574   32.6897   42.5545 H   0  0  0  0  0  0  0  0  0  0  0  0
   57.0177   31.0686   41.1989 H   0  0  0  0  0  0  0  0  0  0  0  0
   55.6710   29.2998   42.3465 H   0  0  0  0  0  0  0  0  0  0  0  0
   55.6813   29.1779   44.8457 H   0  0  0  0  0  0  0  0  0  0  0  0
   62.5905   33.2910   45.7992 H   0  0  0  0  0  0  0  0  0  0  0  0
   64.6128   33.4418   47.2553 H   0  0  0  0  0  0  0  0  0  0  0  0
  1  2  1  0
  2  3  2  0
  3  4  1  0
  4  5  2  0
  5  6  1  0
  6  7  2  0
  7  8  1  0
  8  9  2  0
  9 10  1  0
 10 11  2  0
 11 12  1  0
 12 13  2  0
 13 14  1  0
 14 15  2  0
  9 16  1  0
  5 17  1  0
 17 18  2  0
 18  2  1  0
 16  6  1  0
 15 10  1  0
  3 19  1  0
  4 20  1  0
  8 21  1  0
 11 22  1  0
 12 23  1  0
 13 24  1  0
 14 25  1  0
 17 26  1  0
 18 27  1  0
M  CHG  1   8   1
M  END
>  <UniqueID>  (80) 
71

>  <SMILES>  (80) 
Fc1ccc(-c2n[nH+]c(-c3ccccn3)o2)cc1

>  <Energy>  (80) 
66.4558555368947

>  <Genealogy>  (80) 
Fc1ccc(-c2n[nH+]c(-c3ccccn3)o2)cc1 (protonated)
Fc1ccc(-c2n[nH+]c(-c3ccccn3)o2)cc1 (3D coordinates assigned)
Fc1ccc(-c2n[nH+]c(-c3ccccn3)o2)cc1 (optimized conformer: 66.4558555368947 kcal/mol)

>  <smiles>  (80) 
Fc1ccc(-c2nnc(-c3ccccn3)o2)cc1

>  <score_type>  (80) 
oracle

>  <origin>  (80) 
adg

>  <m_score__min__energy>  (80) 
-5.4000000000000004

>  <m_primary>  (80) 
energy

$$$$
80:0
     RDKit          3D

 53 56  0  0  0  0  0  0  0  0999 V2000
   61.6820   29.0070   50.1780 O   0  0  0  0  0  0  0  0  0  0  0  0
   60.8710   29.8690   49.7360 C   0  0  0  0  0  0  0  0  0  0  0  0
   60.6670   31.0610   50.4460 C   0  0  0  0  0  0  0  0  0  0  0  0
   61.4070   31.2480   51.7660 C   0  0  0  0  0  0  0  0  0  0  0  0
   62.8570   31.0610   51.5820 N   0  0  0  0  0  0  0  0  0  0  0  0
   63.5340   32.3140   51.2030 C   0  0  0  0  0  0  0  0  0  0  0  0
   63.3640   32.6250   49.7350 C   0  0  0  0  0  0  0  0  0  0  0  0
   62.9860   33.9140   49.3260 C   0  0  0  0  0  0  0  0  0  0  0  0
   62.8030   34.1970   47.9690 C   0  0  0  0  0  0  0  0  0  0  0  0
   62.9920   33.1960   47.0120 C   0  0  0  0  0  0  0  0  0  0  0  0
   63.3620   31.9090   47.4120 C   0  0  0  0  0  0  0  0  0  0  0  0
   63.5470   31.6220   48.7670 C   0  0  0  0  0  0  0  0  0  0  0  0
   59.8080   32.0570   49.8980 C   0  0  0  0  0  0  0  0  0  0  0  0
   59.7080   33.4230   50.5760 C   0  0  0  0  0  0  0  0  0  0  0  0
   58.6380   33.4600   51.4510 F   0  0  0  0  0  0  0  0  0  0  0  0
   59.0500   31.7690   48.7700 N   0  0  0  0  0  0  0  0  0  0  0  0
   57.9960   32.7150   48.3150 C   0  0  0  0  0  0  0  0  0  0  0  0
   58.4050   33.5130   47.0930 C   0  0  0  0  0  0  0  0  0  0  0  0
   59.5690   34.2980   47.1540 C   0  0  0  0  0  0  0  0  0  0  0  0
   59.9870   35.0350   46.0420 C   0  0  0  0  0  0  0  0  0  0  0  0
   59.2530   34.9880   44.8540 C   0  0  0  0  0  0  0  0  0  0  0  0
   58.1030   34.2000   44.7760 C   0  0  0  0  0  0  0  0  0  0  0  0
   57.6810   33.4620   45.8850 C   0  0  0  0  0  0  0  0  0  0  0  0
   59.2580   30.5920   48.0660 C   0  0  0  0  0  0  0  0  0  0  0  0
   58.5770   30.3060   46.8500 C   0  0  0  0  0  0  0  0  0  0  0  0
   58.8080   29.1200   46.1510 C   0  0  0  0  0  0  0  0  0  0  0  0
   57.9540   28.8060   44.6500 Cl  0  0  0  0  0  0  0  0  0  0  0  0
   59.7180   28.1880   46.6370 C   0  0  0  0  0  0  0  0  0  0  0  0
   60.4020   28.4380   47.8230 C   0  0  0  0  0  0  0  0  0  0  0  0
   60.1860   29.6320   48.5430 C   0  0  0  0  0  0  0  0  0  0  0  0
   61.2192   32.2636   52.1444 H   0  0  0  0  0  0  0  0  0  0  0  0
   61.0425   30.4992   52.4846 H   0  0  0  0  0  0  0  0  0  0  0  0
   63.0280   30.3620   50.8230 H   0  0  0  0  0  0  0  0  0  0  0  0
   63.2780   30.6850   52.4640 H   0  0  0  0  0  0  0  0  0  0  0  0
   63.1096   33.1398   51.7928 H   0  0  0  0  0  0  0  0  0  0  0  0
   64.6089   32.1945   51.4036 H   0  0  0  0  0  0  0  0  0  0  0  0
   62.8333   34.7041   50.0760 H   0  0  0  0  0  0  0  0  0  0  0  0
   62.5097   35.2093   47.6540 H   0  0  0  0  0  0  0  0  0  0  0  0
   62.8496   33.4210   45.9447 H   0  0  0  0  0  0  0  0  0  0  0  0
   63.5078   31.1206   46.6589 H   0  0  0  0  0  0  0  0  0  0  0  0
   63.8370   30.6073   49.0775 H   0  0  0  0  0  0  0  0  0  0  0  0
   60.6363   33.6179   51.1331 H   0  0  0  0  0  0  0  0  0  0  0  0
   59.5573   34.1903   49.8023 H   0  0  0  0  0  0  0  0  0  0  0  0
   57.0903   32.1402   48.0715 H   0  0  0  0  0  0  0  0  0  0  0  0
   57.8205   33.4304   49.1320 H   0  0  0  0  0  0  0  0  0  0  0  0
   60.1557   34.3328   48.0838 H   0  0  0  0  0  0  0  0  0  0  0  0
   60.8951   35.6528   46.1024 H   0  0  0  0  0  0  0  0  0  0  0  0
   59.5809   35.5713   43.9809 H   0  0  0  0  0  0  0  0  0  0  0  0
   57.5278   34.1601   43.8392 H   0  0  0  0  0  0  0  0  0  0  0  0
   56.7782   32.8375   45.8147 H   0  0  0  0  0  0  0  0  0  0  0  0
   57.8542   31.0339   46.4528 H   0  0  0  0  0  0  0  0  0  0  0  0
   59.8972   27.2538   46.0846 H   0  0  0  0  0  0  0  0  0  0  0  0
   61.1194   27.6960   48.2035 H   0  0  0  0  0  0  0  0  0  0  0  0
  1  2  2  0
  2  3  1  0
  3  4  1  0
  4  5  1  0
  5  6  1  0
  6  7  1  0
  7  8  2  0
  8  9  1  0
  9 10  2  0
 10 11  1  0
 11 12  2  0
  3 13  2  0
 13 14  1  0
 14 15  1  0
 13 16  1  0
 16 17  1  0
 17 18  1  0
 18 19  2  0
 19 20  1  0
 20 21  2  0
 21 22  1  0
 22 23  2  0
 16 24  1  0
 24 25  2  0
 25 26  1  0
 26 27  1  0
 26 28  2  0
 28 29  1  0
 29 30  2  0
 30  2  1  0
 12  7  1  0
 23 18  1  0
 30 24  1  0
  4 31  1  0
  4 32  1  0
  5 33  1  0
  5 34  1  0
  6 35  1  0
  6 36  1  0
  8 37  1  0
  9 38  1  0
 10 39  1  0
 11 40  1  0
 12 41  1  0
 14 42  1  0
 14 43  1  0
 17 44  1  0
 17 45  1  0
 19 46  1  0
 20 47  1  0
 21 48  1  0
 22 49  1  0
 23 50  1  0
 25 51  1  0
 28 52  1  0
 29 53  1  0
M  CHG  1   5   1
M  END
>  <UniqueID>  (81) 
72

>  <SMILES>  (81) 
O=c1c(C[NH2+]Cc2ccccc2)c(CF)n(Cc2ccccc2)c2cc(Cl)ccc12

>  <Energy>  (81) 
78.4240455219949

>  <Genealogy>  (81) 
O=c1c(C[NH2+]Cc2ccccc2)c(CF)n(Cc2ccccc2)c2cc(Cl)ccc12 (protonated)
O=c1c(C[NH2+]Cc2ccccc2)c(CF)n(Cc2ccccc2)c2cc(Cl)ccc12 (3D coordinates assigned)
O=c1c(C[NH2+]Cc2ccccc2)c(CF)n(Cc2ccccc2)c2cc(Cl)ccc12 (optimized conformer: 78.4240455219949 kcal/mol)

>  <smiles>  (81) 
O=c1c(CNCc2ccccc2)c(CF)n(Cc2ccccc2)c2cc(Cl)ccc12

>  <score_type>  (81) 
oracle

>  <origin>  (81) 
adg

>  <m_score__min__energy>  (81) 
-6.2999999999999998

>  <m_primary>  (81) 
energy

$$$$
81:0
     RDKit          3D

 34 36  0  0  0  0  0  0  0  0999 V2000
   56.9062   33.3547   44.4428 H   0  0  0  0  0  0  0  0  0  0  0  0
   57.2310   32.4490   44.9760 C   0  0  0  0  0  0  0  0  0  0  0  0
   56.7730   31.2300   44.5870 N   0  0  0  0  0  0  0  0  0  0  0  0
   57.1770   30.1400   45.2320 N   0  0  0  0  0  0  0  0  0  0  0  0
   56.8720   28.8730   44.9210 C   0  0  0  0  0  0  0  0  0  0  0  0
   56.1799   28.5503   44.1292 H   0  0  0  0  0  0  0  0  0  0  0  0
   57.5790   28.0430   45.7690 C   0  0  0  0  0  0  0  0  0  0  0  0
   57.5090   26.6080   45.7480 N   0  0  0  0  0  0  0  0  0  0  0  0
   58.4120   26.0810   45.7700 H   0  0  0  0  0  0  0  0  0  0  0  0
   56.2910   25.8490   45.7240 C   0  0  0  0  0  0  0  0  0  0  0  0
   55.1840   26.3930   45.9820 O   0  0  0  0  0  0  0  0  0  0  0  0
   56.3410   24.3750   45.4820 C   0  0  0  0  0  0  0  0  0  0  0  0
   56.3590   23.8456   46.4460 H   0  0  0  0  0  0  0  0  0  0  0  0
   55.4528   24.0668   44.9109 H   0  0  0  0  0  0  0  0  0  0  0  0
   57.2480   24.1277   44.9109 H   0  0  0  0  0  0  0  0  0  0  0  0
   58.3240   28.8420   46.6340 C   0  0  0  0  0  0  0  0  0  0  0  0
   59.0019   28.5061   47.4325 H   0  0  0  0  0  0  0  0  0  0  0  0
   58.0300   30.1560   46.2750 C   0  0  0  0  0  0  0  0  0  0  0  0
   58.5180   31.3920   46.7650 C   0  0  0  0  0  0  0  0  0  0  0  0
   59.3000   31.5240   47.8050 N   0  0  0  0  0  0  0  0  0  0  0  0
   60.6740   31.9230   47.8460 C   0  0  0  0  0  0  0  0  0  0  0  0
   61.6370   31.1620   47.1730 C   0  0  0  0  0  0  0  0  0  0  0  0
   61.3411   30.2410   46.6493 H   0  0  0  0  0  0  0  0  0  0  0  0
   62.9740   31.5700   47.1650 C   0  0  0  0  0  0  0  0  0  0  0  0
   63.7318   30.9596   46.6520 H   0  0  0  0  0  0  0  0  0  0  0  0
   63.3490   32.7540   47.8090 C   0  0  0  0  0  0  0  0  0  0  0  0
   64.4026   33.0700   47.8088 H   0  0  0  0  0  0  0  0  0  0  0  0
   62.3850   33.5360   48.4530 C   0  0  0  0  0  0  0  0  0  0  0  0
   62.7460   34.6920   49.0640 F   0  0  0  0  0  0  0  0  0  0  0  0
   61.0470   33.1300   48.4600 C   0  0  0  0  0  0  0  0  0  0  0  0
   60.2854   33.7567   48.9470 H   0  0  0  0  0  0  0  0  0  0  0  0
   58.1200   32.5520   46.0600 C   0  0  0  0  0  0  0  0  0  0  0  0
   58.5840   33.8620   46.4550 C   0  0  0  0  0  0  0  0  0  0  0  0
   58.9560   34.9110   46.7730 N   0  0  0  0  0  0  0  0  0  0  0  0
  1  2  1  0
  2  3  1  0
  3  4  1  0
  4  5  1  0
  5  6  1  0
  5  7  2  0
  7  8  1  0
  8  9  1  0
  8 10  1  0
 10 11  2  0
 10 12  1  0
 12 13  1  0
 12 14  1  0
 12 15  1  0
  7 16  1  0
 16 17  1  0
 16 18  2  0
 18 19  1  0
 19 20  2  0
 20 21  1  0
 21 22  2  0
 22 23  1  0
 22 24  1  0
 24 25  1  0
 24 26  2  0
 26 27  1  0
 26 28  1  0
 28 29  1  0
 28 30  2  0
 30 31  1  0
 19 32  1  0
 32 33  1  0
 33 34  3  0
 32  2  2  0
 18  4  1  0
 30 21  1  0
M  CHG  1   3  -1
M  END
>  <UniqueID>  (82) 
73

>  <SMILES>  (82) 
CC(=O)Nc1cc2/c(=N\c3cccc(F)c3)c(C#N)c[n-]n2c1

>  <Energy>  (82) 
83.774016595136

>  <Genealogy>  (82) 
CC(=O)Nc1cc2c(=Nc3cccc(F)c3)c(C#N)c[n-]n2c1 (protonated)
CC(=O)Nc1cc2/c(=N\c3cccc(F)c3)c(C#N)c[n-]n2c1 (cis-trans isomerization)
CC(=O)Nc1cc2/c(=N\c3cccc(F)c3)c(C#N)c[n-]n2c1 (3D coordinates assigned)
CC(=O)Nc1cc2/c(=N\c3cccc(F)c3)c(C#N)c[n-]n2c1 (optimized conformer: 83.774016595136 kcal/mol)

>  <smiles>  (82) 
CC(=O)Nc1cc2c(=Nc3cccc(F)c3)c(C#N)c[nH]n2c1

>  <score_type>  (82) 
oracle

>  <origin>  (82) 
adg

>  <m_score__min__energy>  (82) 
-8.4399999999999995

>  <m_primary>  (82) 
energy

$$$$
82:0
     RDKit          3D

 37 40  0  0  1  0  0  0  0  0999 V2000
   58.7670   34.4700   45.3910 C   0  0  0  0  0  0  0  0  0  0  0  0
   58.0590   33.9510   46.4560 C   0  0  0  0  0  0  0  0  0  0  0  0
   57.3860   32.7480   46.2630 C   0  0  0  0  0  0  0  0  0  0  0  0
   57.4180   32.0800   45.0480 C   0  0  0  0  0  0  0  0  0  0  0  0
   59.6960   28.7520   47.7290 N   0  0  0  0  0  0  0  0  0  0  0  0
   58.8010   28.7140   46.7950 C   0  0  0  0  0  0  0  0  0  0  0  0
   56.9380   28.5900   44.8470 N   0  0  0  0  0  0  0  0  0  0  0  0
   57.4580   27.4310   45.2890 C   0  0  0  0  0  0  0  0  0  0  0  0
   58.4160   27.4730   46.2880 C   0  0  0  0  0  0  0  0  0  0  0  0
   57.2970   29.7950   45.3240 C   0  0  0  0  0  0  0  0  0  0  0  0
   56.7360   30.8490   44.8320 N   0  0  0  0  0  0  0  0  0  0  0  0
   60.5320   29.9240   47.7770 C   0  0  0  0  0  0  0  0  0  0  0  0
   60.5440   30.9710   46.9310 N   0  0  0  0  0  0  0  0  0  0  0  0
   61.4430   31.8800   47.2710 C   0  0  0  0  0  0  0  0  0  0  0  0
   61.8420   33.1000   46.7510 C   0  0  0  0  0  0  0  0  0  0  0  0
   62.8390   33.7650   47.4120 C   0  0  0  0  0  0  0  0  0  0  0  0
   63.4600   33.2910   48.5520 C   0  0  0  0  0  0  0  0  0  0  0  0
   63.0580   32.0730   49.0700 C   0  0  0  0  0  0  0  0  0  0  0  0
   62.0580   31.3880   48.4210 C   0  0  0  0  0  0  0  0  0  0  0  0
   61.4890   30.2040   48.7060 N   0  0  0  0  0  0  0  0  0  0  0  0
   58.2280   29.8380   46.2960 N   0  0  0  0  0  0  0  0  0  0  0  0
   58.1420   32.6220   43.9770 C   0  0  0  0  0  0  0  0  0  0  0  0
   58.8180   33.8270   44.1600 C   0  0  0  0  0  0  0  0  0  0  0  0
   59.3064   35.4199   45.5202 H   0  0  0  0  0  0  0  0  0  0  0  0
   58.0276   34.4707   47.4250 H   0  0  0  0  0  0  0  0  0  0  0  0
   56.8133   32.3154   47.0966 H   0  0  0  0  0  0  0  0  0  0  0  0
   56.2150   28.5040   44.0890 H   0  0  0  0  0  0  0  0  0  0  0  0
   57.1293   26.4703   44.8660 H   0  0  0  0  0  0  0  0  0  0  0  0
   58.8646   26.5458   46.6741 H   0  0  0  0  0  0  0  0  0  0  0  0
   61.3774   33.5168   45.8452 H   0  0  0  0  0  0  0  0  0  0  0  0
   63.1660   34.7359   47.0115 H   0  0  0  0  0  0  0  0  0  0  0  0
   64.2584   33.8710   49.0380 H   0  0  0  0  0  0  0  0  0  0  0  0
   63.5260   31.6633   49.9772 H   0  0  0  0  0  0  0  0  0  0  0  0
   61.7610   29.6030   49.5290 H   0  0  0  0  0  0  0  0  0  0  0  0
   58.5290   30.7360   46.6850 H   0  0  0  0  0  0  0  0  0  0  0  0
   58.1761   32.1042   43.0071 H   0  0  0  0  0  0  0  0  0  0  0  0
   59.3911   34.2684   43.3313 H   0  0  0  0  0  0  0  0  0  0  0  0
  1  2  2  0
  2  3  1  0
  3  4  2  0
  4  5  1  0
  5  6  2  0
  6  7  1  0
  7  8  1  0
  8  9  2  0
  9 10  1  0
 10 11  2  0
 11 12  1  0
 12 13  2  0
 13 14  1  0
 14 15  2  0
 15 16  1  0
 16 17  2  0
 17 18  1  0
 18 19  2  0
 19 20  1  0
 10 21  1  0
  4 22  1  0
 22 23  2  0
 23  1  1  0
 21  6  1  0
 20 12  1  0
 19 14  1  0
  1 24  1  0
  2 25  1  0
  3 26  1  0
  7 27  1  0
  8 28  1  0
  9 29  1  0
 15 30  1  0
 16 31  1  0
 17 32  1  0
 18 33  1  0
 20 34  1  0
 21 35  1  0
 22 36  1  0
 23 37  1  0
M  END
>  <smiles>  (83) 
c1ccc(N=c2[nH]ccc(=Nc3nc4ccccc4[nH]3)[nH]2)cc1

>  <score_type>  (83) 
oracle

>  <origin>  (83) 
adg

>  <m_score__min__energy>  (83) 
-7.5999999999999996

>  <m_primary>  (83) 
energy

$$$$
83:0
     RDKit          3D

 39 41  0  0  0  0  0  0  0  0999 V2000
   55.1760   28.0370   44.9250 H   0  0  0  0  0  0  0  0  0  0  0  0
   55.3030   28.9720   44.4820 N   0  0  0  0  0  0  0  0  0  0  0  0
   56.2420   29.8130   44.7930 C   0  0  0  0  0  0  0  0  0  0  0  0
   56.0520   31.1290   44.5150 N   0  0  0  0  0  0  0  0  0  0  0  0
   56.9490   32.0800   44.8810 C   0  0  0  0  0  0  0  0  0  0  0  0
   56.7713   33.1353   44.6267 H   0  0  0  0  0  0  0  0  0  0  0  0
   58.1030   31.7090   45.5850 C   0  0  0  0  0  0  0  0  0  0  0  0
   59.1130   32.7050   46.0260 C   0  0  0  0  0  0  0  0  0  0  0  0
   60.2760   32.2740   46.6940 C   0  0  0  0  0  0  0  0  0  0  0  0
   60.4324   31.2012   46.8803 H   0  0  0  0  0  0  0  0  0  0  0  0
   61.2330   33.1990   47.1220 C   0  0  0  0  0  0  0  0  0  0  0  0
   62.1404   32.8510   47.6374 H   0  0  0  0  0  0  0  0  0  0  0  0
   61.0400   34.5630   46.8970 C   0  0  0  0  0  0  0  0  0  0  0  0
   61.7962   35.2884   47.2318 H   0  0  0  0  0  0  0  0  0  0  0  0
   59.8870   35.0060   46.2470 C   0  0  0  0  0  0  0  0  0  0  0  0
   59.7334   36.0814   46.0739 H   0  0  0  0  0  0  0  0  0  0  0  0
   58.9260   34.0850   45.8150 C   0  0  0  0  0  0  0  0  0  0  0  0
   58.0178   34.4414   45.3069 H   0  0  0  0  0  0  0  0  0  0  0  0
   58.3090   30.3880   45.8400 N   0  0  0  0  0  0  0  0  0  0  0  0
   57.4310   29.4220   45.4560 C   0  0  0  0  0  0  0  0  0  0  0  0
   57.7830   28.0170   45.7430 C   0  0  0  0  0  0  0  0  0  0  0  0
   58.8910   27.7650   46.2870 O   0  0  0  0  0  0  0  0  0  0  0  0
   56.9390   26.9450   45.2930 N   0  0  0  0  0  0  0  0  0  0  0  0
   56.2650   27.1480   44.5200 H   0  0  0  0  0  0  0  0  0  0  0  0
   57.0440   25.5880   45.7610 C   0  0  0  0  0  0  0  0  0  0  0  0
   56.9640   24.5350   44.8410 C   0  0  0  0  0  0  0  0  0  0  0  0
   56.8403   24.7546   43.7703 H   0  0  0  0  0  0  0  0  0  0  0  0
   57.0400   23.2070   45.2720 C   0  0  0  0  0  0  0  0  0  0  0  0
   56.9871   22.3890   44.5385 H   0  0  0  0  0  0  0  0  0  0  0  0
   57.1840   22.9130   46.6410 C   0  0  0  0  0  0  0  0  0  0  0  0
   57.2660   21.5960   47.1210 O   0  0  0  0  0  0  0  0  0  0  0  0
   57.4150   20.4470   46.2940 C   0  0  0  0  0  0  0  0  0  0  0  0
   57.5309   19.5535   46.9251 H   0  0  0  0  0  0  0  0  0  0  0  0
   56.5240   20.3343   45.6589 H   0  0  0  0  0  0  0  0  0  0  0  0
   58.3053   20.5653   45.6589 H   0  0  0  0  0  0  0  0  0  0  0  0
   57.2420   23.9650   47.5630 C   0  0  0  0  0  0  0  0  0  0  0  0
   57.3630   23.6990   48.8870 F   0  0  0  0  0  0  0  0  0  0  0  0
   57.1660   25.2930   47.1300 C   0  0  0  0  0  0  0  0  0  0  0  0
   57.2019   26.1108   47.8647 H   0  0  0  0  0  0  0  0  0  0  0  0
  1  2  1  0
  2  3  2  0
  3  4  1  0
  4  5  1  0
  5  6  1  0
  5  7  2  0
  7  8  1  0
  8  9  2  0
  9 10  1  0
  9 11  1  0
 11 12  1  0
 11 13  2  0
 13 14  1  0
 13 15  1  0
 15 16  1  0
 15 17  2  0
 17 18  1  0
  7 19  1  0
 19 20  2  0
 20 21  1  0
 21 22  2  0
 21 23  1  0
 23 24  1  0
 23 25  1  0
 25 26  2  0
 26 27  1  0
 26 28  1  0
 28 29  1  0
 28 30  2  0
 30 31  1  0
 31 32  1  0
 32 33  1  0
 32 34  1  0
 32 35  1  0
 30 36  1  0
 36 37  1  0
 36 38  2  0
 38 39  1  0
 20  3  1  0
 38 25  1  0
 17  8  1  0
M  CHG  1   4  -1
M  END
>  <UniqueID>  (84) 
74

>  <SMILES>  (84) 
[H]/N=c1/[n-]cc(-c2ccccc2)nc1C(=O)Nc1ccc(OC)c(F)c1

>  <Energy>  (84) 
56.9297026915169

>  <Genealogy>  (84) 
COc1ccc(NC(=O)c2nc(-c3ccccc3)c[n-]c2=N)cc1F (protonated)
[H]/N=c1/[n-]cc(-c2ccccc2)nc1C(=O)Nc1ccc(OC)c(F)c1 (cis-trans isomerization)
[H]/N=c1/[n-]cc(-c2ccccc2)nc1C(=O)Nc1ccc(OC)c(F)c1 (3D coordinates assigned)
[H]/N=c1/[n-]cc(-c2ccccc2)nc1C(=O)Nc1ccc(OC)c(F)c1 (optimized conformer: 56.9297026915169 kcal/mol)

>  <smiles>  (84) 
COc1ccc(NC(=O)c2nc(-c3ccccc3)c[nH]c2=N)cc1F

>  <score_type>  (84) 
oracle

>  <origin>  (84) 
adg

>  <m_score__min__energy>  (84) 
-9.5099999999999998

>  <m_primary>  (84) 
energy

$$$$
84:0
     RDKit          3D

 38 39  0  0  0  0  0  0  0  0999 V2000
   55.8800   22.5860   43.0900 O   0  0  0  0  0  0  0  0  0  0  0  0
   56.8480   22.9040   43.8310 C   0  0  0  0  0  0  0  0  0  0  0  0
   57.0510   24.3340   44.1990 C   0  0  0  0  0  0  0  0  0  0  0  0
   56.7000   24.8300   45.4700 C   0  0  0  0  0  0  0  0  0  0  0  0
   56.9000   26.1740   45.7900 C   0  0  0  0  0  0  0  0  0  0  0  0
   57.4530   27.0570   44.8520 C   0  0  0  0  0  0  0  0  0  0  0  0
   57.6660   28.4390   45.1930 N   0  0  0  0  0  0  0  0  0  0  0  0
   58.6460   28.8180   46.2170 C   0  0  0  0  0  0  0  0  0  0  0  0
   60.0470   28.9340   45.6170 C   0  0  0  0  0  0  0  0  0  0  0  0
   59.9520   29.1710   44.2580 F   0  0  0  0  0  0  0  0  0  0  0  0
   60.7350   29.9770   46.2110 F   0  0  0  0  0  0  0  0  0  0  0  0
   56.7630   29.6810   44.3740 S   0  0  0  0  0  0  0  0  0  0  0  0
   55.3520   29.7090   44.8930 O   0  0  0  0  0  0  0  0  0  0  0  0
   56.7090   29.3800   42.9030 O   0  0  0  0  0  0  0  0  0  0  0  0
   57.5270   31.2460   44.6310 C   0  0  0  0  0  0  0  0  0  0  0  0
   57.7800   31.6950   45.9350 C   0  0  0  0  0  0  0  0  0  0  0  0
   58.3720   32.9440   46.1470 C   0  0  0  0  0  0  0  0  0  0  0  0
   58.7140   33.7510   45.0580 C   0  0  0  0  0  0  0  0  0  0  0  0
   58.4660   33.3080   43.7560 C   0  0  0  0  0  0  0  0  0  0  0  0
   57.8740   32.0590   43.5410 C   0  0  0  0  0  0  0  0  0  0  0  0
   57.8090   26.5710   43.5860 C   0  0  0  0  0  0  0  0  0  0  0  0
   57.6080   25.2260   43.2610 C   0  0  0  0  0  0  0  0  0  0  0  0
   57.7580   21.8090   44.3110 C   0  0  0  0  0  0  0  0  0  0  0  0
   59.0500   22.2840   44.4370 F   0  0  0  0  0  0  0  0  0  0  0  0
   57.3160   21.3200   45.5270 F   0  0  0  0  0  0  0  0  0  0  0  0
   56.2639   24.1514   46.2178 H   0  0  0  0  0  0  0  0  0  0  0  0
   56.6210   26.5438   46.7877 H   0  0  0  0  0  0  0  0  0  0  0  0
   58.3582   29.7878   46.6491 H   0  0  0  0  0  0  0  0  0  0  0  0
   58.6605   28.0394   46.9939 H   0  0  0  0  0  0  0  0  0  0  0  0
   60.5877   27.9928   45.7953 H   0  0  0  0  0  0  0  0  0  0  0  0
   57.5119   31.0626   46.7942 H   0  0  0  0  0  0  0  0  0  0  0  0
   58.5688   33.2919   47.1718 H   0  0  0  0  0  0  0  0  0  0  0  0
   59.1780   34.7341   45.2258 H   0  0  0  0  0  0  0  0  0  0  0  0
   58.7367   33.9423   42.8991 H   0  0  0  0  0  0  0  0  0  0  0  0
   57.6800   31.7132   42.5150 H   0  0  0  0  0  0  0  0  0  0  0  0
   58.2494   27.2525   42.8433 H   0  0  0  0  0  0  0  0  0  0  0  0
   57.8878   24.8601   42.2621 H   0  0  0  0  0  0  0  0  0  0  0  0
   57.7473   20.9936   43.5728 H   0  0  0  0  0  0  0  0  0  0  0  0
  1  2  2  0
  2  3  1  0
  3  4  2  0
  4  5  1  0
  5  6  2  0
  6  7  1  0
  7  8  1  0
  8  9  1  0
  9 10  1  0
  9 11  1  0
  7 12  1  0
 12 13  2  0
 12 14  2  0
 12 15  1  0
 15 16  2  0
 16 17  1  0
 17 18  2  0
 18 19  1  0
 19 20  2  0
  6 21  1  0
 21 22  2  0
  2 23  1  0
 23 24  1  0
 23 25  1  0
 22  3  1  0
 20 15  1  0
  4 26  1  0
  5 27  1  0
  8 28  1  0
  8 29  1  0
  9 30  1  0
 16 31  1  0
 17 32  1  0
 18 33  1  0
 19 34  1  0
 20 35  1  0
 21 36  1  0
 22 37  1  0
 23 38  1  0
M  END
>  <UniqueID>  (85) 
75

>  <SMILES>  (85) 
O=C(c1ccc(N(CC(F)F)S(=O)(=O)c2ccccc2)cc1)C(F)F

>  <Energy>  (85) 
41.106607398985304

>  <Genealogy>  (85) 
O=C(c1ccc(N(CC(F)F)S(=O)(=O)c2ccccc2)cc1)C(F)F (3D coordinates assigned)
O=C(c1ccc(N(CC(F)F)S(=O)(=O)c2ccccc2)cc1)C(F)F (optimized conformer: 41.106607398985304 kcal/mol)

>  <smiles>  (85) 
O=C(c1ccc(N(CC(F)F)S(=O)(=O)c2ccccc2)cc1)C(F)F

>  <score_type>  (85) 
oracle

>  <origin>  (85) 
adg

>  <m_score__min__energy>  (85) 
-7.0099999999999998

>  <m_primary>  (85) 
energy

$$$$
85:0
     RDKit          3D

 46 48  0  0  0  0  0  0  0  0999 V2000
   63.2040   33.9230   46.3590 C   0  0  0  0  0  0  0  0  0  0  0  0
   63.4280   33.0810   47.1910 C   0  0  0  0  0  0  0  0  0  0  0  0
   63.7000   32.0480   48.2140 C   0  0  0  0  0  0  0  0  0  0  0  0
   62.7370   32.0500   49.3610 N   0  0  0  0  0  0  0  0  0  0  0  0
   63.3070   31.2740   50.4900 C   0  0  0  0  0  0  0  0  0  0  0  0
   62.4820   33.4510   49.7920 C   0  0  0  0  0  0  0  0  0  0  0  0
   61.4650   31.4240   48.8650 C   0  0  0  0  0  0  0  0  0  0  0  0
   60.1720   31.7470   49.6670 C   0  0  0  0  0  0  0  0  0  0  0  0
   58.8670   31.3970   48.9100 C   0  0  0  0  0  0  0  0  0  0  0  0
   59.0380   31.4790   47.4510 N   0  0  0  0  0  0  0  0  0  0  0  0
   59.0190   32.7530   46.7630 C   0  0  0  0  0  0  0  0  0  0  0  0
   59.6980   33.8730   47.2770 C   0  0  0  0  0  0  0  0  0  0  0  0
   59.8040   35.0430   46.5190 C   0  0  0  0  0  0  0  0  0  0  0  0
   59.2460   35.1060   45.2400 C   0  0  0  0  0  0  0  0  0  0  0  0
   58.5580   34.0060   44.7240 C   0  0  0  0  0  0  0  0  0  0  0  0
   58.4280   32.8410   45.4870 C   0  0  0  0  0  0  0  0  0  0  0  0
   57.4060   31.4950   44.8900 S   0  0  0  0  0  0  0  0  0  0  0  0
   58.5910   30.2350   45.3670 C   0  0  0  0  0  0  0  0  0  0  0  0
   58.8560   29.1670   44.5050 C   0  0  0  0  0  0  0  0  0  0  0  0
   59.6690   28.1140   44.9290 C   0  0  0  0  0  0  0  0  0  0  0  0
   60.2150   28.1260   46.2150 C   0  0  0  0  0  0  0  0  0  0  0  0
   59.9730   29.2030   47.0720 C   0  0  0  0  0  0  0  0  0  0  0  0
   59.1700   30.2790   46.6510 C   0  0  0  0  0  0  0  0  0  0  0  0
   62.9995   34.6918   45.5993 H   0  0  0  0  0  0  0  0  0  0  0  0
   63.6559   31.0619   47.7285 H   0  0  0  0  0  0  0  0  0  0  0  0
   64.6915   32.2729   48.6339 H   0  0  0  0  0  0  0  0  0  0  0  0
   62.9807   31.7182   51.4420 H   0  0  0  0  0  0  0  0  0  0  0  0
   62.9576   30.2326   50.4325 H   0  0  0  0  0  0  0  0  0  0  0  0
   64.4053   31.2960   50.4325 H   0  0  0  0  0  0  0  0  0  0  0  0
   62.4730   33.5007   50.8908 H   0  0  0  0  0  0  0  0  0  0  0  0
   63.2759   34.1049   49.4019 H   0  0  0  0  0  0  0  0  0  0  0  0
   61.5086   33.7832   49.4019 H   0  0  0  0  0  0  0  0  0  0  0  0
   61.3086   31.7610   47.8296 H   0  0  0  0  0  0  0  0  0  0  0  0
   61.6124   30.3396   48.9762 H   0  0  0  0  0  0  0  0  0  0  0  0
   60.1933   31.1742   50.6059 H   0  0  0  0  0  0  0  0  0  0  0  0
   60.1629   32.8335   49.8388 H   0  0  0  0  0  0  0  0  0  0  0  0
   58.5661   30.3728   49.1754 H   0  0  0  0  0  0  0  0  0  0  0  0
   58.0975   32.1261   49.2037 H   0  0  0  0  0  0  0  0  0  0  0  0
   60.1476   33.8279   48.2799 H   0  0  0  0  0  0  0  0  0  0  0  0
   60.3289   35.9173   46.9314 H   0  0  0  0  0  0  0  0  0  0  0  0
   59.3486   36.0219   44.6395 H   0  0  0  0  0  0  0  0  0  0  0  0
   58.1181   34.0557   43.7170 H   0  0  0  0  0  0  0  0  0  0  0  0
   58.4243   29.1561   43.4933 H   0  0  0  0  0  0  0  0  0  0  0  0
   59.8797   27.2745   44.2502 H   0  0  0  0  0  0  0  0  0  0  0  0
   60.8375   27.2848   46.5541 H   0  0  0  0  0  0  0  0  0  0  0  0
   60.4123   29.2096   48.0804 H   0  0  0  0  0  0  0  0  0  0  0  0
  1  2  3  0
  2  3  1  0
  3  4  1  0
  4  5  1  0
  4  6  1  0
  4  7  1  0
  7  8  1  0
  8  9  1  0
  9 10  1  0
 10 11  1  0
 11 12  2  0
 12 13  1  0
 13 14  2  0
 14 15  1  0
 15 16  2  0
 16 17  1  0
 17 18  1  0
 18 19  2  0
 19 20  1  0
 20 21  2  0
 21 22  1  0
 22 23  2  0
 23 10  1  0
 16 11  1  0
 23 18  1  0
  1 24  1  0
  3 25  1  0
  3 26  1  0
  5 27  1  0
  5 28  1  0
  5 29  1  0
  6 30  1  0
  6 31  1  0
  6 32  1  0
  7 33  1  0
  7 34  1  0
  8 35  1  0
  8 36  1  0
  9 37  1  0
  9 38  1  0
 12 39  1  0
 13 40  1  0
 14 41  1  0
 15 42  1  0
 19 43  1  0
 20 44  1  0
 21 45  1  0
 22 46  1  0
M  CHG  1   4   1
M  END
>  <UniqueID>  (86) 
76

>  <SMILES>  (86) 
C#CC[N+](C)(C)CCCN1c2ccccc2Sc2ccccc21

>  <Energy>  (86) 
77.24720254075682

>  <Genealogy>  (86) 
C#CC[N+](C)(C)CCCN1c2ccccc2Sc2ccccc21 (3D coordinates assigned)
C#CC[N+](C)(C)CCCN1c2ccccc2Sc2ccccc21 (nonaromatic ring conformer: 77.24720254075682 kcal/mol)

>  <smiles>  (86) 
C#CC[N+](C)(C)CCCN1c2ccccc2Sc2ccccc21

>  <score_type>  (86) 
oracle

>  <origin>  (86) 
adg

>  <m_score__min__energy>  (86) 
-5.9000000000000004

>  <m_primary>  (86) 
energy

$$$$
86:0
     RDKit          3D

 42 44  0  0  0  0  0  0  0  0999 V2000
   59.5830   28.7200   44.4770 C   0  0  0  0  0  0  0  0  0  0  0  0
   59.8610   29.9190   45.2850 N   0  0  0  0  0  0  0  0  0  0  0  0
   60.6430   29.5510   46.4800 C   0  0  0  0  0  0  0  0  0  0  0  0
   58.6230   30.6940   45.5730 C   0  0  2  0  0  0  0  0  0  0  0  0
   57.4750   30.2950   44.6180 C   0  0  0  0  0  0  0  0  0  0  0  0
   56.5800   29.3350   45.2590 N   0  0  0  0  0  0  0  0  0  0  0  0
   57.0250   28.2280   46.0500 C   0  0  0  0  0  0  0  0  0  0  0  0
   57.7970   28.4100   47.0280 O   0  0  0  0  0  0  0  0  0  0  0  0
   56.5800   26.8730   45.7100 C   0  0  0  0  0  0  0  0  0  0  0  0
   57.3020   25.9210   45.0220 C   0  0  0  0  0  0  0  0  0  0  0  0
   56.4400   24.8430   44.9700 C   0  0  0  0  0  0  0  0  0  0  0  0
   56.7100   23.5470   44.3350 C   0  0  0  0  0  0  0  0  0  0  0  0
   57.6890   22.6400   44.7240 C   0  0  0  0  0  0  0  0  0  0  0  0
   57.7180   21.4860   43.9320 C   0  0  0  0  0  0  0  0  0  0  0  0
   56.7640   21.4780   42.9210 C   0  0  0  0  0  0  0  0  0  0  0  0
   55.8860   22.9090   43.0130 S   0  0  0  0  0  0  0  0  0  0  0  0
   55.2860   25.1530   45.5940 N   0  0  0  0  0  0  0  0  0  0  0  0
   55.4060   26.3760   46.0240 O   0  0  0  0  0  0  0  0  0  0  0  0
   58.8470   32.2050   45.6290 C   0  0  0  0  0  0  0  0  0  0  0  0
   59.8290   32.7850   46.4610 C   0  0  0  0  0  0  0  0  0  0  0  0
   60.0000   34.1720   46.4970 C   0  0  0  0  0  0  0  0  0  0  0  0
   59.1970   34.9980   45.7090 C   0  0  0  0  0  0  0  0  0  0  0  0
   58.2150   34.4390   44.8880 C   0  0  0  0  0  0  0  0  0  0  0  0
   58.0390   33.0540   44.8490 C   0  0  0  0  0  0  0  0  0  0  0  0
   59.3852   27.8670   45.1427 H   0  0  0  0  0  0  0  0  0  0  0  0
   58.7031   28.9015   43.8423 H   0  0  0  0  0  0  0  0  0  0  0  0
   60.4530   28.4958   43.8423 H   0  0  0  0  0  0  0  0  0  0  0  0
   60.0771   29.8173   47.3849 H   0  0  0  0  0  0  0  0  0  0  0  0
   60.8352   28.4679   46.4732 H   0  0  0  0  0  0  0  0  0  0  0  0
   61.6000   30.0933   46.4732 H   0  0  0  0  0  0  0  0  0  0  0  0
   58.3134   30.4181   46.5918 H   0  0  0  0  0  0  0  0  0  0  0  0
   56.9037   31.1944   44.3446 H   0  0  0  0  0  0  0  0  0  0  0  0
   57.9077   29.8299   43.7200 H   0  0  0  0  0  0  0  0  0  0  0  0
   58.3199   26.0008   44.6128 H   0  0  0  0  0  0  0  0  0  0  0  0
   58.3720   22.8117   45.5690 H   0  0  0  0  0  0  0  0  0  0  0  0
   58.4291   20.6627   44.0945 H   0  0  0  0  0  0  0  0  0  0  0  0
   56.6099   20.6735   42.1868 H   0  0  0  0  0  0  0  0  0  0  0  0
   60.4646   32.1405   47.0859 H   0  0  0  0  0  0  0  0  0  0  0  0
   60.7692   34.6134   47.1478 H   0  0  0  0  0  0  0  0  0  0  0  0
   59.3374   36.0887   45.7345 H   0  0  0  0  0  0  0  0  0  0  0  0
   57.5790   35.0908   44.2710 H   0  0  0  0  0  0  0  0  0  0  0  0
   57.2611   32.6221   44.2022 H   0  0  0  0  0  0  0  0  0  0  0  0
  1  2  1  0
  2  3  1  0
  2  4  1  0
  4  5  1  0
  5  6  1  0
  6  7  1  0
  7  8  2  0
  7  9  1  0
  9 10  2  0
 10 11  1  0
 11 12  1  0
 12 13  2  0
 13 14  1  0
 14 15  2  0
 15 16  1  0
 11 17  2  0
 17 18  1  0
  4 19  1  0
 19 20  2  0
 20 21  1  0
 21 22  2  0
 22 23  1  0
 23 24  2  0
 18  9  1  0
 24 19  1  0
 16 12  1  0
  1 25  1  0
  1 26  1  0
  1 27  1  0
  3 28  1  0
  3 29  1  0
  3 30  1  0
  4 31  1  1
  5 32  1  0
  5 33  1  0
 10 34  1  0
 13 35  1  0
 14 36  1  0
 15 37  1  0
 20 38  1  0
 21 39  1  0
 22 40  1  0
 23 41  1  0
 24 42  1  0
M  CHG  1   6  -1
M  END
>  <UniqueID>  (87) 
77

>  <SMILES>  (87) 
CN(C)[C@H](C[N-]C(=O)c1cc(-c2cccs2)no1)c1ccccc1

>  <Energy>  (87) 
102.41151740764707

>  <Genealogy>  (87) 
CN(C)C(C[N-]C(=O)c1cc(-c2cccs2)no1)c1ccccc1 (protonated)
CN(C)[C@H](C[N-]C(=O)c1cc(-c2cccs2)no1)c1ccccc1 (chirality)
CN(C)[C@H](C[N-]C(=O)c1cc(-c2cccs2)no1)c1ccccc1 (3D coordinates assigned)
CN(C)[C@H](C[N-]C(=O)c1cc(-c2cccs2)no1)c1ccccc1 (optimized conformer: 102.41151740764707 kcal/mol)

>  <smiles>  (87) 
CN(C)C(CNC(=O)c1cc(-c2cccs2)no1)c1ccccc1

>  <score_type>  (87) 
oracle

>  <origin>  (87) 
adg

>  <m_score__min__energy>  (87) 
-10.109999999999999

>  <m_primary>  (87) 
energy

$$$$
87:0
     RDKit          3D

 34 36  0  0  0  0  0  0  0  0999 V2000
   59.5890   34.0660   49.9890 O   0  0  0  0  0  0  0  0  0  0  0  0
   60.0180   34.1440   48.8070 C   0  0  0  0  0  0  0  0  0  0  0  0
   61.3660   33.7800   48.3940 C   0  0  0  0  0  0  0  0  0  0  0  0
   62.4320   33.2510   49.1180 C   0  0  0  0  0  0  0  0  0  0  0  0
   63.6340   33.0000   48.4320 C   0  0  0  0  0  0  0  0  0  0  0  0
   63.7400   33.2830   47.0530 C   0  0  0  0  0  0  0  0  0  0  0  0
   62.6460   33.8180   46.3510 C   0  0  0  0  0  0  0  0  0  0  0  0
   61.4680   34.0540   47.0590 C   0  0  0  0  0  0  0  0  0  0  0  0
   60.1860   34.5930   46.6290 C   0  0  0  0  0  0  0  0  0  0  0  0
   59.9460   35.0100   45.4640 O   0  0  0  0  0  0  0  0  0  0  0  0
   59.2270   34.6430   47.7060 N   0  0  0  0  0  0  0  0  0  0  0  0
   58.0310   33.8150   47.4400 C   0  0  0  0  0  0  0  0  0  0  0  0
   58.1730   32.8650   46.2320 C   0  0  0  0  0  0  0  0  0  0  0  0
   57.3880   33.6120   44.7560 S   0  0  0  0  0  0  0  0  0  0  0  0
   57.8520   32.3100   43.5610 C   0  0  0  0  0  0  0  0  0  0  0  0
   57.4880   30.9580   44.0830 C   0  0  0  0  0  0  0  0  0  0  0  0
   58.3380   29.8760   44.1860 C   0  0  0  0  0  0  0  0  0  0  0  0
   57.5700   28.8500   44.6940 C   0  0  0  0  0  0  0  0  0  0  0  0
   56.3030   29.3700   44.8710 C   0  0  0  0  0  0  0  0  0  0  0  0
   56.2860   30.6300   44.4960 O   0  0  0  0  0  0  0  0  0  0  0  0
   62.3367   33.0363   50.1926 H   0  0  0  0  0  0  0  0  0  0  0  0
   64.4956   32.5812   48.9726 H   0  0  0  0  0  0  0  0  0  0  0  0
   64.6841   33.0837   46.5248 H   0  0  0  0  0  0  0  0  0  0  0  0
   62.7169   34.0435   45.2767 H   0  0  0  0  0  0  0  0  0  0  0  0
   58.9560   35.6380   47.8890 H   0  0  0  0  0  0  0  0  0  0  0  0
   57.8266   33.2075   48.3340 H   0  0  0  0  0  0  0  0  0  0  0  0
   57.2131   34.5103   47.1999 H   0  0  0  0  0  0  0  0  0  0  0  0
   59.2399   32.6904   46.0287 H   0  0  0  0  0  0  0  0  0  0  0  0
   57.6772   31.9104   46.4618 H   0  0  0  0  0  0  0  0  0  0  0  0
   57.3226   32.4852   42.6128 H   0  0  0  0  0  0  0  0  0  0  0  0
   58.9401   32.3466   43.4038 H   0  0  0  0  0  0  0  0  0  0  0  0
   59.4045   29.8397   43.9189 H   0  0  0  0  0  0  0  0  0  0  0  0
   57.8999   27.8240   44.9140 H   0  0  0  0  0  0  0  0  0  0  0  0
   55.4394   28.8146   45.2657 H   0  0  0  0  0  0  0  0  0  0  0  0
  1  2  2  0
  2  3  1  0
  3  4  2  0
  4  5  1  0
  5  6  2  0
  6  7  1  0
  7  8  2  0
  8  9  1  0
  9 10  2  0
  9 11  1  0
 11 12  1  0
 12 13  1  0
 13 14  1  0
 14 15  1  0
 15 16  1  0
 16 17  2  0
 17 18  1  0
 18 19  2  0
 19 20  1  0
 11  2  1  0
 20 16  1  0
  8  3  1  0
  4 21  1  0
  5 22  1  0
  6 23  1  0
  7 24  1  0
 11 25  1  0
 12 26  1  0
 12 27  1  0
 13 28  1  0
 13 29  1  0
 15 30  1  0
 15 31  1  0
 17 32  1  0
 18 33  1  0
 19 34  1  0
M  CHG  1  11   1
M  END
>  <UniqueID>  (88) 
78

>  <SMILES>  (88) 
O=C1c2ccccc2C(=O)[NH+]1CCSCc1ccco1

>  <Energy>  (88) 
83.09731328746133

>  <Genealogy>  (88) 
O=C1c2ccccc2C(=O)[NH+]1CCSCc1ccco1 (protonated)
O=C1c2ccccc2C(=O)[NH+]1CCSCc1ccco1 (3D coordinates assigned)
O=C1c2ccccc2C(=O)[NH+]1CCSCc1ccco1 (nonaromatic ring conformer: 83.09731328746133 kcal/mol)

>  <smiles>  (88) 
O=C1c2ccccc2C(=O)N1CCSCc1ccco1

>  <score_type>  (88) 
oracle

>  <origin>  (88) 
adg

>  <m_score__min__energy>  (88) 
-5.9100000000000001

>  <m_primary>  (88) 
energy

$$$$
88:0
     RDKit          3D

 50 53  0  0  0  0  0  0  0  0999 V2000
   60.0350   27.5960   48.4930 C   0  0  0  0  0  0  0  0  0  0  0  0
   59.2050   27.2550   47.2910 C   0  0  0  0  0  0  0  0  0  0  0  0
   59.1440   25.9340   46.8260 C   0  0  0  0  0  0  0  0  0  0  0  0
   58.3370   25.6100   45.7330 C   0  0  0  0  0  0  0  0  0  0  0  0
   57.5790   26.5990   45.1010 C   0  0  0  0  0  0  0  0  0  0  0  0
   57.6260   27.9280   45.5550 C   0  0  0  0  0  0  0  0  0  0  0  0
   56.8090   28.9790   44.9060 C   0  0  0  0  0  0  0  0  0  0  0  0
   55.5540   28.9290   45.0110 O   0  0  0  0  0  0  0  0  0  0  0  0
   57.4140   30.0480   44.1470 N   0  0  0  0  0  0  0  0  0  0  0  0
   56.6840   30.6450   43.0280 C   0  0  0  0  0  0  0  0  0  0  0  0
   57.4790   31.8170   42.4550 C   0  0  0  0  0  0  0  0  0  0  0  0
   57.3610   32.9810   43.2730 O   0  0  0  0  0  0  0  0  0  0  0  0
   57.9380   33.0770   44.5420 C   0  0  0  0  0  0  0  0  0  0  0  0
   57.8030   34.2860   45.2350 C   0  0  0  0  0  0  0  0  0  0  0  0
   58.3750   34.4500   46.4950 C   0  0  0  0  0  0  0  0  0  0  0  0
   59.0710   33.3950   47.0970 C   0  0  0  0  0  0  0  0  0  0  0  0
   59.7200   33.5830   48.4420 C   0  0  0  0  0  0  0  0  0  0  0  0
   61.2170   33.5070   48.3100 C   0  0  0  0  0  0  0  0  0  0  0  0
   62.0090   33.1570   49.4150 C   0  0  0  0  0  0  0  0  0  0  0  0
   63.4030   33.1240   49.3000 C   0  0  0  0  0  0  0  0  0  0  0  0
   64.0140   33.4480   48.0850 C   0  0  0  0  0  0  0  0  0  0  0  0
   63.2320   33.8090   46.9840 C   0  0  0  0  0  0  0  0  0  0  0  0
   61.8390   33.8440   47.0950 C   0  0  0  0  0  0  0  0  0  0  0  0
   59.1980   32.1760   46.4150 C   0  0  0  0  0  0  0  0  0  0  0  0
   58.6370   31.9970   45.1380 C   0  0  0  0  0  0  0  0  0  0  0  0
   58.7190   30.6060   44.5310 C   0  0  0  0  0  0  0  0  0  0  0  0
   58.4280   28.2440   46.6670 C   0  0  0  0  0  0  0  0  0  0  0  0
   59.4692   27.3635   49.4072 H   0  0  0  0  0  0  0  0  0  0  0  0
   60.9636   27.0065   48.4766 H   0  0  0  0  0  0  0  0  0  0  0  0
   60.2809   28.6680   48.4766 H   0  0  0  0  0  0  0  0  0  0  0  0
   59.7337   25.1499   47.3236 H   0  0  0  0  0  0  0  0  0  0  0  0
   58.2981   24.5728   45.3686 H   0  0  0  0  0  0  0  0  0  0  0  0
   56.9421   26.3359   44.2436 H   0  0  0  0  0  0  0  0  0  0  0  0
   56.5347   29.8877   42.2443 H   0  0  0  0  0  0  0  0  0  0  0  0
   55.7088   31.0085   43.3843 H   0  0  0  0  0  0  0  0  0  0  0  0
   58.5394   31.5317   42.3906 H   0  0  0  0  0  0  0  0  0  0  0  0
   57.0750   32.0532   41.4595 H   0  0  0  0  0  0  0  0  0  0  0  0
   57.2399   35.1144   44.7804 H   0  0  0  0  0  0  0  0  0  0  0  0
   58.2793   35.4125   47.0189 H   0  0  0  0  0  0  0  0  0  0  0  0
   59.4401   34.5669   48.8465 H   0  0  0  0  0  0  0  0  0  0  0  0
   59.3780   32.7877   49.1206 H   0  0  0  0  0  0  0  0  0  0  0  0
   61.5320   32.9079   50.3744 H   0  0  0  0  0  0  0  0  0  0  0  0
   64.0191   32.8427   50.1668 H   0  0  0  0  0  0  0  0  0  0  0  0
   65.1100   33.4189   47.9954 H   0  0  0  0  0  0  0  0  0  0  0  0
   63.7135   34.0659   46.0289 H   0  0  0  0  0  0  0  0  0  0  0  0
   61.2273   34.1362   46.2287 H   0  0  0  0  0  0  0  0  0  0  0  0
   59.7453   31.3466   46.8867 H   0  0  0  0  0  0  0  0  0  0  0  0
   59.3524   30.6563   43.6331 H   0  0  0  0  0  0  0  0  0  0  0  0
   59.1358   29.9434   45.3038 H   0  0  0  0  0  0  0  0  0  0  0  0
   58.4464   29.2747   47.0508 H   0  0  0  0  0  0  0  0  0  0  0  0
  1  2  1  0
  2  3  2  0
  3  4  1  0
  4  5  2  0
  5  6  1  0
  6  7  1  0
  7  8  2  0
  7  9  1  0
  9 10  1  0
 10 11  1  0
 11 12  1  0
 12 13  1  0
 13 14  2  0
 14 15  1  0
 15 16  2  0
 16 17  1  0
 17 18  1  0
 18 19  2  0
 19 20  1  0
 20 21  2  0
 21 22  1  0
 22 23  2  0
 16 24  1  0
 24 25  2  0
 25 26  1  0
  6 27  2  0
 27  2  1  0
 26  9  1  0
 25 13  1  0
 23 18  1  0
  1 28  1  0
  1 29  1  0
  1 30  1  0
  3 31  1  0
  4 32  1  0
  5 33  1  0
 10 34  1  0
 10 35  1  0
 11 36  1  0
 11 37  1  0
 14 38  1  0
 15 39  1  0
 17 40  1  0
 17 41  1  0
 19 42  1  0
 20 43  1  0
 21 44  1  0
 22 45  1  0
 23 46  1  0
 24 47  1  0
 26 48  1  0
 26 49  1  0
 27 50  1  0
M  END
>  <UniqueID>  (89) 
79

>  <SMILES>  (89) 
Cc1cccc(C(=O)N2CCOc3ccc(Cc4ccccc4)cc3C2)c1

>  <Energy>  (89) 
67.8698840755057

>  <Genealogy>  (89) 
Cc1cccc(C(=O)N2CCOc3ccc(Cc4ccccc4)cc3C2)c1 (3D coordinates assigned)
Cc1cccc(C(=O)N2CCOc3ccc(Cc4ccccc4)cc3C2)c1 (nonaromatic ring conformer: 67.8698840755057 kcal/mol)

>  <smiles>  (89) 
Cc1cccc(C(=O)N2CCOc3ccc(Cc4ccccc4)cc3C2)c1

>  <score_type>  (89) 
oracle

>  <origin>  (89) 
adg

>  <m_score__min__energy>  (89) 
-7.6799999999999997

>  <m_primary>  (89) 
energy

$$$$
89:0
     RDKit          3D

 23 24  0  0  0  0  0  0  0  0999 V2000
   55.8685   24.6885   46.6853 H   0  0  0  0  0  0  0  0  0  0  0  0
   56.3310   25.6260   46.3430 C   0  0  0  0  0  0  0  0  0  0  0  0
   55.5960   26.7150   45.9900 N   0  0  0  0  0  0  0  0  0  0  0  0
   56.3800   27.7470   45.6150 C   0  0  0  0  0  0  0  0  0  0  0  0
   55.8830   28.8750   45.1960 N   0  0  0  0  0  0  0  0  0  0  0  0
   56.5880   29.9110   44.4950 C   0  0  0  0  0  0  0  0  0  0  0  0
   56.3770   30.0600   43.1200 C   0  0  0  0  0  0  0  0  0  0  0  0
   55.7018   29.3702   42.5925 H   0  0  0  0  0  0  0  0  0  0  0  0
   57.0190   31.0800   42.4130 C   0  0  0  0  0  0  0  0  0  0  0  0
   56.8622   31.1800   41.3288 H   0  0  0  0  0  0  0  0  0  0  0  0
   57.8600   31.9730   43.0820 C   0  0  0  0  0  0  0  0  0  0  0  0
   58.3708   32.7681   42.5191 H   0  0  0  0  0  0  0  0  0  0  0  0
   58.0570   31.8630   44.4630 C   0  0  0  0  0  0  0  0  0  0  0  0
   58.8980   32.7940   45.0910 O   0  0  0  0  0  0  0  0  0  0  0  0
   58.4700   34.0570   45.5900 C   0  0  0  0  0  0  0  0  0  0  0  0
   58.4764   34.0380   46.6898 H   0  0  0  0  0  0  0  0  0  0  0  0
   59.1521   34.8426   45.2328 H   0  0  0  0  0  0  0  0  0  0  0  0
   57.4508   34.2661   45.2328 H   0  0  0  0  0  0  0  0  0  0  0  0
   57.4070   30.8330   45.1710 C   0  0  0  0  0  0  0  0  0  0  0  0
   57.5409   30.7494   46.2596 H   0  0  0  0  0  0  0  0  0  0  0  0
   58.0170   27.3400   45.6830 S   0  0  0  0  0  0  0  0  0  0  0  0
   57.7090   25.7830   46.2400 C   0  0  0  0  0  0  0  0  0  0  0  0
   58.4656   25.0217   46.4808 H   0  0  0  0  0  0  0  0  0  0  0  0
  1  2  1  0
  2  3  1  0
  3  4  1  0
  4  5  2  0
  5  6  1  0
  6  7  2  0
  7  8  1  0
  7  9  1  0
  9 10  1  0
  9 11  2  0
 11 12  1  0
 11 13  1  0
 13 14  1  0
 14 15  1  0
 15 16  1  0
 15 17  1  0
 15 18  1  0
 13 19  2  0
 19 20  1  0
  4 21  1  0
 21 22  1  0
 22 23  1  0
 22  2  2  0
 19  6  1  0
M  CHG  1   3  -1
M  END
>  <UniqueID>  (90) 
80

>  <SMILES>  (90) 
COc1cccc(/N=c2/[n-]ccs2)c1

>  <Energy>  (90) 
60.00096539257475

>  <Genealogy>  (90) 
COc1cccc(N=c2[n-]ccs2)c1 (protonated)
COc1cccc(/N=c2/[n-]ccs2)c1 (cis-trans isomerization)
COc1cccc(/N=c2/[n-]ccs2)c1 (3D coordinates assigned)
COc1cccc(/N=c2/[n-]ccs2)c1 (optimized conformer: 60.00096539257475 kcal/mol)

>  <smiles>  (90) 
COc1cccc(N=c2[nH]ccs2)c1

>  <score_type>  (90) 
oracle

>  <origin>  (90) 
adg

>  <m_score__min__energy>  (90) 
-7.2300000000000004

>  <m_primary>  (90) 
energy

$$$$
90:0
     RDKit          3D

 36 36  0  0  0  0  0  0  0  0999 V2000
   59.2780   34.6140   47.2350 C   0  0  0  0  0  0  0  0  0  0  0  0
   59.6600   34.5570   45.7590 C   0  0  0  0  0  0  0  0  0  0  0  0
   58.4160   34.4640   44.8690 C   0  0  0  0  0  0  0  0  0  0  0  0
   58.2150   33.0430   44.3490 C   0  0  0  0  0  0  0  0  0  0  0  0
   57.5440   32.2690   45.3400 O   0  0  0  0  0  0  0  0  0  0  0  0
   57.5550   30.8670   45.3920 C   0  0  0  0  0  0  0  0  0  0  0  0
   58.1780   30.2480   46.4790 C   0  0  0  0  0  0  0  0  0  0  0  0
   58.2190   28.8550   46.5810 C   0  0  0  0  0  0  0  0  0  0  0  0
   57.6470   28.0380   45.5790 C   0  0  0  0  0  0  0  0  0  0  0  0
   57.6320   26.5010   45.6660 C   0  0  0  0  0  0  0  0  0  0  0  0
   57.7560   25.8110   44.2890 C   0  0  0  0  0  0  0  0  0  0  0  0
   58.8240   26.0560   46.5400 C   0  0  0  0  0  0  0  0  0  0  0  0
   56.3210   26.0380   46.2770 C   0  0  0  0  0  0  0  0  0  0  0  0
   56.3080   25.0680   47.0820 O   0  0  0  0  0  0  0  0  0  0  0  0
   55.1290   26.7010   46.0020 O   0  0  0  0  0  0  0  0  0  0  0  0
   57.0020   28.6760   44.4980 C   0  0  0  0  0  0  0  0  0  0  0  0
   56.9620   30.0700   44.4000 C   0  0  0  0  0  0  0  0  0  0  0  0
   60.1785   34.4796   47.8523 H   0  0  0  0  0  0  0  0  0  0  0  0
   58.8226   35.5900   47.4585 H   0  0  0  0  0  0  0  0  0  0  0  0
   58.5575   33.8134   47.4585 H   0  0  0  0  0  0  0  0  0  0  0  0
   60.2210   35.4665   45.4980 H   0  0  0  0  0  0  0  0  0  0  0  0
   60.2758   33.6609   45.5924 H   0  0  0  0  0  0  0  0  0  0  0  0
   57.5330   34.7603   45.4543 H   0  0  0  0  0  0  0  0  0  0  0  0
   58.5528   35.1343   44.0076 H   0  0  0  0  0  0  0  0  0  0  0  0
   57.6091   33.0699   43.4313 H   0  0  0  0  0  0  0  0  0  0  0  0
   59.1926   32.5901   44.1274 H   0  0  0  0  0  0  0  0  0  0  0  0
   58.6415   30.8644   47.2634 H   0  0  0  0  0  0  0  0  0  0  0  0
   58.7024   28.3882   47.4519 H   0  0  0  0  0  0  0  0  0  0  0  0
   57.9489   24.7376   44.4328 H   0  0  0  0  0  0  0  0  0  0  0  0
   56.8197   25.9432   43.7270 H   0  0  0  0  0  0  0  0  0  0  0  0
   58.5877   26.2609   43.7270 H   0  0  0  0  0  0  0  0  0  0  0  0
   58.5570   26.1557   47.6024 H   0  0  0  0  0  0  0  0  0  0  0  0
   59.0681   25.0062   46.3202 H   0  0  0  0  0  0  0  0  0  0  0  0
   59.6963   26.6890   46.3202 H   0  0  0  0  0  0  0  0  0  0  0  0
   56.5222   28.0656   43.7187 H   0  0  0  0  0  0  0  0  0  0  0  0
   56.4637   30.5445   43.5418 H   0  0  0  0  0  0  0  0  0  0  0  0
  1  2  1  0
  2  3  1  0
  3  4  1  0
  4  5  1  0
  5  6  1  0
  6  7  2  0
  7  8  1  0
  8  9  2  0
  9 10  1  0
 10 11  1  0
 10 12  1  0
 10 13  1  0
 13 14  2  0
 13 15  1  0
  9 16  1  0
 16 17  2  0
 17  6  1  0
  1 18  1  0
  1 19  1  0
  1 20  1  0
  2 21  1  0
  2 22  1  0
  3 23  1  0
  3 24  1  0
  4 25  1  0
  4 26  1  0
  7 27  1  0
  8 28  1  0
 11 29  1  0
 11 30  1  0
 11 31  1  0
 12 32  1  0
 12 33  1  0
 12 34  1  0
 16 35  1  0
 17 36  1  0
M  CHG  1  15  -1
M  END
>  <UniqueID>  (91) 
81

>  <SMILES>  (91) 
CCCCOc1ccc(C(C)(C)C(=O)[O-])cc1

>  <Energy>  (91) 
29.22500641984278

>  <Genealogy>  (91) 
CCCCOc1ccc(C(C)(C)C(=O)[O-])cc1 (protonated)
CCCCOc1ccc(C(C)(C)C(=O)[O-])cc1 (3D coordinates assigned)
CCCCOc1ccc(C(C)(C)C(=O)[O-])cc1 (optimized conformer: 29.22500641984278 kcal/mol)

>  <smiles>  (91) 
CCCCOc1ccc(C(C)(C)C(=O)O)cc1

>  <score_type>  (91) 
oracle

>  <origin>  (91) 
adg

>  <m_score__min__energy>  (91) 
-9.0199999999999996

>  <m_primary>  (91) 
energy

$$$$
91:0
     RDKit          3D

 40 41  0  0  0  0  0  0  0  0999 V2000
   60.5500   28.9190   44.9140 C   0  0  0  0  0  0  0  0  0  0  0  0
   60.2870   28.6140   46.3830 C   0  0  0  0  0  0  0  0  0  0  0  0
   59.6480   29.7180   47.0200 O   0  0  0  0  0  0  0  0  0  0  0  0
   60.2840   30.5510   47.9470 C   0  0  0  0  0  0  0  0  0  0  0  0
   60.1160   30.3700   49.1850 O   0  0  0  0  0  0  0  0  0  0  0  0
   61.1170   31.6820   47.4800 C   0  0  0  0  0  0  0  0  0  0  0  0
   62.5160   31.5260   47.4990 C   0  0  0  0  0  0  0  0  0  0  0  0
   63.3570   32.5810   47.1450 C   0  0  0  0  0  0  0  0  0  0  0  0
   62.8150   33.8090   46.7700 C   0  0  0  0  0  0  0  0  0  0  0  0
   61.4310   33.9780   46.7240 C   0  0  0  0  0  0  0  0  0  0  0  0
   60.5660   32.9190   47.0500 C   0  0  0  0  0  0  0  0  0  0  0  0
   58.8220   33.1740   46.8630 S   0  0  0  0  0  0  0  0  0  0  0  0
   58.6070   34.3730   45.9830 O   0  0  0  0  0  0  0  0  0  0  0  0
   58.1780   33.4030   48.2030 O   0  0  0  0  0  0  0  0  0  0  0  0
   58.0820   31.7760   46.1460 N   0  0  0  0  0  0  0  0  0  0  0  0
   57.7980   31.6900   44.7430 C   0  0  0  0  0  0  0  0  0  0  0  0
   58.3830   32.6240   43.8750 C   0  0  0  0  0  0  0  0  0  0  0  0
   58.1260   32.5740   42.5030 C   0  0  0  0  0  0  0  0  0  0  0  0
   57.2920   31.5840   41.9850 C   0  0  0  0  0  0  0  0  0  0  0  0
   56.7230   30.6320   42.8340 C   0  0  0  0  0  0  0  0  0  0  0  0
   56.9810   30.6640   44.2190 C   0  0  0  0  0  0  0  0  0  0  0  0
   56.4670   29.6890   45.0890 O   0  0  0  0  0  0  0  0  0  0  0  0
   57.0590   28.4150   45.3170 C   0  0  0  0  0  0  0  0  0  0  0  0
   61.2665   29.7499   44.8346 H   0  0  0  0  0  0  0  0  0  0  0  0
   60.9669   28.0272   44.4233 H   0  0  0  0  0  0  0  0  0  0  0  0
   59.6065   29.2002   44.4233 H   0  0  0  0  0  0  0  0  0  0  0  0
   59.6381   27.7289   46.4575 H   0  0  0  0  0  0  0  0  0  0  0  0
   61.2485   28.4252   46.8828 H   0  0  0  0  0  0  0  0  0  0  0  0
   62.9511   30.5605   47.7966 H   0  0  0  0  0  0  0  0  0  0  0  0
   64.4483   32.4437   47.1618 H   0  0  0  0  0  0  0  0  0  0  0  0
   63.4795   34.6462   46.5099 H   0  0  0  0  0  0  0  0  0  0  0  0
   61.0117   34.9513   46.4292 H   0  0  0  0  0  0  0  0  0  0  0  0
   58.0440   30.9040   46.7180 H   0  0  0  0  0  0  0  0  0  0  0  0
   59.0489   33.4014   44.2778 H   0  0  0  0  0  0  0  0  0  0  0  0
   58.5818   33.3160   41.8309 H   0  0  0  0  0  0  0  0  0  0  0  0
   57.0818   31.5526   40.9057 H   0  0  0  0  0  0  0  0  0  0  0  0
   56.0687   29.8515   42.4184 H   0  0  0  0  0  0  0  0  0  0  0  0
   57.1415   28.2375   46.3994 H   0  0  0  0  0  0  0  0  0  0  0  0
   56.4320   27.6330   44.8639 H   0  0  0  0  0  0  0  0  0  0  0  0
   58.0610   28.3899   44.8639 H   0  0  0  0  0  0  0  0  0  0  0  0
  1  2  1  0
  2  3  1  0
  3  4  1  0
  4  5  2  0
  4  6  1  0
  6  7  2  0
  7  8  1  0
  8  9  2  0
  9 10  1  0
 10 11  2  0
 11 12  1  0
 12 13  2  0
 12 14  2  0
 12 15  1  0
 15 16  1  0
 16 17  2  0
 17 18  1  0
 18 19  2  0
 19 20  1  0
 20 21  2  0
 21 22  1  0
 22 23  1  0
 11  6  1  0
 21 16  1  0
  1 24  1  0
  1 25  1  0
  1 26  1  0
  2 27  1  0
  2 28  1  0
  7 29  1  0
  8 30  1  0
  9 31  1  0
 10 32  1  0
 15 33  1  0
 17 34  1  0
 18 35  1  0
 19 36  1  0
 20 37  1  0
 23 38  1  0
 23 39  1  0
 23 40  1  0
M  END
>  <UniqueID>  (92) 
82

>  <SMILES>  (92) 
CCOC(=O)c1ccccc1S(=O)(=O)Nc1ccccc1OC

>  <Energy>  (92) 
48.26542639762543

>  <Genealogy>  (92) 
CCOC(=O)c1ccccc1S(=O)(=O)Nc1ccccc1OC (3D coordinates assigned)
CCOC(=O)c1ccccc1S(=O)(=O)Nc1ccccc1OC (optimized conformer: 48.26542639762543 kcal/mol)

>  <smiles>  (92) 
CCOC(=O)c1ccccc1S(=O)(=O)Nc1ccccc1OC

>  <score_type>  (92) 
oracle

>  <origin>  (92) 
adg

>  <m_score__min__energy>  (92) 
-7.3300000000000001

>  <m_primary>  (92) 
energy

$$$$
92:0
     RDKit          3D

 41 43  0  0  0  0  0  0  0  0999 V2000
   59.6430   35.1340   45.6270 C   0  0  0  0  0  0  0  0  0  0  0  0
   58.8080   34.3510   46.6480 C   0  0  0  0  0  0  0  0  0  0  0  0
   59.2750   34.5930   48.0930 C   0  0  0  0  0  0  0  0  0  0  0  0
   58.7030   32.9040   46.2840 N   0  0  0  0  0  0  0  0  0  0  0  0
   59.6750   31.9670   46.6090 C   0  0  0  0  0  0  0  0  0  0  0  0
   60.9180   32.2920   47.3360 C   0  0  0  0  0  0  0  0  0  0  0  0
   61.8950   33.1000   46.7350 C   0  0  0  0  0  0  0  0  0  0  0  0
   63.1090   33.3380   47.3860 C   0  0  0  0  0  0  0  0  0  0  0  0
   63.3700   32.7400   48.6230 C   0  0  0  0  0  0  0  0  0  0  0  0
   64.8950   33.0350   49.4380 Cl  0  0  0  0  0  0  0  0  0  0  0  0
   62.4210   31.8900   49.2010 C   0  0  0  0  0  0  0  0  0  0  0  0
   61.2060   31.6510   48.5510 C   0  0  0  0  0  0  0  0  0  0  0  0
   59.5170   30.6210   46.2460 C   0  0  0  0  0  0  0  0  0  0  0  0
   58.3930   30.2030   45.5340 C   0  0  0  0  0  0  0  0  0  0  0  0
   58.2220   28.7790   45.1470 C   0  0  0  0  0  0  0  0  0  0  0  0
   57.9760   27.7950   46.1250 C   0  0  0  0  0  0  0  0  0  0  0  0
   57.8170   26.4560   45.7580 C   0  0  0  0  0  0  0  0  0  0  0  0
   57.9010   26.0820   44.4150 C   0  0  0  0  0  0  0  0  0  0  0  0
   58.1450   27.0480   43.4360 C   0  0  0  0  0  0  0  0  0  0  0  0
   58.3050   28.3890   43.7960 C   0  0  0  0  0  0  0  0  0  0  0  0
   57.4370   31.1560   45.1860 C   0  0  0  0  0  0  0  0  0  0  0  0
   57.6040   32.4930   45.5520 C   0  0  0  0  0  0  0  0  0  0  0  0
   56.7200   33.3150   45.1850 O   0  0  0  0  0  0  0  0  0  0  0  0
   60.3462   35.7934   46.1569 H   0  0  0  0  0  0  0  0  0  0  0  0
   60.2052   34.4299   44.9960 H   0  0  0  0  0  0  0  0  0  0  0  0
   58.9765   35.7402   44.9960 H   0  0  0  0  0  0  0  0  0  0  0  0
   57.7822   34.7460   46.6075 H   0  0  0  0  0  0  0  0  0  0  0  0
   58.5211   34.2023   48.7923 H   0  0  0  0  0  0  0  0  0  0  0  0
   60.2322   34.0774   48.2602 H   0  0  0  0  0  0  0  0  0  0  0  0
   59.4058   35.6723   48.2602 H   0  0  0  0  0  0  0  0  0  0  0  0
   61.7051   33.5477   45.7483 H   0  0  0  0  0  0  0  0  0  0  0  0
   63.8599   33.9964   46.9248 H   0  0  0  0  0  0  0  0  0  0  0  0
   62.6307   31.4091   50.1678 H   0  0  0  0  0  0  0  0  0  0  0  0
   60.4742   30.9589   48.9931 H   0  0  0  0  0  0  0  0  0  0  0  0
   60.2877   29.8877   46.5259 H   0  0  0  0  0  0  0  0  0  0  0  0
   57.9087   28.0827   47.1846 H   0  0  0  0  0  0  0  0  0  0  0  0
   57.6252   25.6948   46.5286 H   0  0  0  0  0  0  0  0  0  0  0  0
   57.7751   25.0275   44.1284 H   0  0  0  0  0  0  0  0  0  0  0  0
   58.2114   26.7524   42.3785 H   0  0  0  0  0  0  0  0  0  0  0  0
   58.4969   29.1443   43.0197 H   0  0  0  0  0  0  0  0  0  0  0  0
   56.5446   30.8525   44.6190 H   0  0  0  0  0  0  0  0  0  0  0  0
  1  2  1  0
  2  3  1  0
  2  4  1  0
  4  5  1  0
  5  6  1  0
  6  7  2  0
  7  8  1  0
  8  9  2  0
  9 10  1  0
  9 11  1  0
 11 12  2  0
  5 13  2  0
 13 14  1  0
 14 15  1  0
 15 16  2  0
 16 17  1  0
 17 18  2  0
 18 19  1  0
 19 20  2  0
 14 21  2  0
 21 22  1  0
 22 23  2  0
 22  4  1  0
 12  6  1  0
 20 15  1  0
  1 24  1  0
  1 25  1  0
  1 26  1  0
  2 27  1  0
  3 28  1  0
  3 29  1  0
  3 30  1  0
  7 31  1  0
  8 32  1  0
 11 33  1  0
 12 34  1  0
 13 35  1  0
 16 36  1  0
 17 37  1  0
 18 38  1  0
 19 39  1  0
 20 40  1  0
 21 41  1  0
M  END
>  <UniqueID>  (93) 
83

>  <SMILES>  (93) 
CC(C)n1c(-c2ccc(Cl)cc2)cc(-c2ccccc2)cc1=O

>  <Energy>  (93) 
64.85265650526267

>  <Genealogy>  (93) 
CC(C)n1c(-c2ccc(Cl)cc2)cc(-c2ccccc2)cc1=O (3D coordinates assigned)
CC(C)n1c(-c2ccc(Cl)cc2)cc(-c2ccccc2)cc1=O (optimized conformer: 64.85265650526267 kcal/mol)

>  <smiles>  (93) 
CC(C)n1c(-c2ccc(Cl)cc2)cc(-c2ccccc2)cc1=O

>  <score_type>  (93) 
oracle

>  <origin>  (93) 
adg

>  <m_score__min__energy>  (93) 
-7.8499999999999996

>  <m_primary>  (93) 
energy

$$$$
93:0
     RDKit          3D

 35 38  0  0  0  0  0  0  0  0999 V2000
   55.4400   29.0570   44.8580 O   0  0  0  0  0  0  0  0  0  0  0  0
   56.5020   29.7060   44.6530 C   0  0  0  0  0  0  0  0  0  0  0  0
   57.8140   28.9660   44.5780 C   0  0  0  0  0  0  0  0  0  0  0  0
   58.2740   28.5600   45.9090 N   0  0  0  0  0  0  0  0  0  0  0  0
   57.7630   27.5910   46.7100 C   0  0  0  0  0  0  0  0  0  0  0  0
   56.8060   26.8430   46.3770 O   0  0  0  0  0  0  0  0  0  0  0  0
   58.3690   27.5160   47.8820 O   0  0  0  0  0  0  0  0  0  0  0  0
   59.2860   28.4540   47.8650 C   0  0  0  0  0  0  0  0  0  0  0  0
   60.1910   28.7990   48.8600 C   0  0  0  0  0  0  0  0  0  0  0  0
   61.0740   29.8650   48.6010 C   0  0  0  0  0  0  0  0  0  0  0  0
   61.0340   30.5630   47.3620 C   0  0  0  0  0  0  0  0  0  0  0  0
   61.9410   31.6530   47.1160 N   0  0  0  0  0  0  0  0  0  0  0  0
   61.5140   32.7640   46.7430 O   0  0  0  0  0  0  0  0  0  0  0  0
   63.2960   31.4820   47.2770 O   0  0  0  0  0  0  0  0  0  0  0  0
   60.0920   30.1760   46.3760 C   0  0  0  0  0  0  0  0  0  0  0  0
   59.2410   29.1100   46.6670 C   0  0  0  0  0  0  0  0  0  0  0  0
   56.4020   31.1340   44.4990 N   0  0  0  0  0  0  0  0  0  0  0  0
   57.1580   32.0610   45.0140 C   0  0  0  0  0  0  0  0  0  0  0  0
   57.4390   32.1600   46.3410 N   0  0  0  0  0  0  0  0  0  0  0  0
   58.2350   33.2380   46.3860 C   0  0  0  0  0  0  0  0  0  0  0  0
   58.8290   33.8120   47.5080 C   0  0  0  0  0  0  0  0  0  0  0  0
   59.6340   34.9510   47.3080 C   0  0  0  0  0  0  0  0  0  0  0  0
   59.8190   35.4770   46.0090 C   0  0  0  0  0  0  0  0  0  0  0  0
   59.2020   34.8690   44.9000 C   0  0  0  0  0  0  0  0  0  0  0  0
   58.4130   33.7450   45.1360 C   0  0  0  0  0  0  0  0  0  0  0  0
   57.7380   33.0120   44.2370 N   0  0  0  0  0  0  0  0  0  0  0  0
   57.6841   28.0689   43.9548 H   0  0  0  0  0  0  0  0  0  0  0  0
   58.5670   29.6383   44.1409 H   0  0  0  0  0  0  0  0  0  0  0  0
   60.2173   28.2583   49.8176 H   0  0  0  0  0  0  0  0  0  0  0  0
   61.8049   30.1621   49.3675 H   0  0  0  0  0  0  0  0  0  0  0  0
   60.0339   30.7004   45.4108 H   0  0  0  0  0  0  0  0  0  0  0  0
   58.6752   33.3915   48.5128 H   0  0  0  0  0  0  0  0  0  0  0  0
   60.1214   35.4338   48.1678 H   0  0  0  0  0  0  0  0  0  0  0  0
   60.4491   36.3670   45.8642 H   0  0  0  0  0  0  0  0  0  0  0  0
   59.3377   35.2667   43.8834 H   0  0  0  0  0  0  0  0  0  0  0  0
  1  2  2  0
  2  3  1  0
  3  4  1  0
  4  5  1  0
  5  6  2  0
  5  7  1  0
  7  8  1  0
  8  9  2  0
  9 10  1  0
 10 11  2  0
 11 12  1  0
 12 13  2  0
 12 14  1  0
 11 15  1  0
 15 16  2  0
  2 17  1  0
 17 18  2  3
 18 19  1  0
 19 20  1  0
 20 21  2  0
 21 22  1  0
 22 23  2  0
 23 24  1  0
 24 25  2  0
 25 26  1  0
 16  4  1  0
 26 18  1  0
 16  8  1  0
 25 20  1  0
  3 27  1  0
  3 28  1  0
  9 29  1  0
 10 30  1  0
 15 31  1  0
 21 32  1  0
 22 33  1  0
 23 34  1  0
 24 35  1  0
M  CHG  4  12   1  14  -1  19  -1  26  -1
M  END
>  <UniqueID>  (94) 
84

>  <SMILES>  (94) 
O=C(Cn1c(=O)oc2ccc([N+](=O)[O-])cc21)N=c1[n-]c2ccccc2[n-]1

>  <Energy>  (94) 
120.66878008278849

>  <Genealogy>  (94) 
O=C(Cn1c(=O)oc2ccc([N+](=O)[O-])cc21)N=c1[n-]c2ccccc2[n-]1 (protonated)
O=C(Cn1c(=O)oc2ccc([N+](=O)[O-])cc21)N=c1[n-]c2ccccc2[n-]1 (3D coordinates assigned)
O=C(Cn1c(=O)oc2ccc([N+](=O)[O-])cc21)N=c1[n-]c2ccccc2[n-]1 (optimized conformer: 120.66878008278849 kcal/mol)

>  <smiles>  (94) 
O=C(Cn1c(=O)oc2ccc([N+](=O)[O-])cc21)N=c1[nH]c2ccccc2[nH]1

>  <score_type>  (94) 
oracle

>  <origin>  (94) 
adg

>  <m_score__min__energy>  (94) 
-11.31

>  <m_primary>  (94) 
energy

$$$$
