0:0
     RDKit          3D

 61 63  0  0  0  0  0  0  0  0999 V2000
   54.5600   25.1110   45.6170 C   0  0  0  0  0  0  0  0  0  0  0  0
   55.1490   26.3880   45.9950 N   0  0  0  0  0  0  0  0  0  0  0  0
   56.5570   26.6560   46.0450 C   0  0  0  0  0  0  0  0  0  0  0  0
   57.1890   26.3910   47.1010 O   0  0  0  0  0  0  0  0  0  0  0  0
   57.2940   27.2760   44.8910 C   0  0  0  0  0  0  0  0  0  0  0  0
   56.9760   29.0310   44.8140 S   0  0  0  0  0  0  0  0  0  0  0  0
   57.3830   29.5530   43.4650 O   0  0  0  0  0  0  0  0  0  0  0  0
   55.5070   29.2880   45.0050 O   0  0  0  0  0  0  0  0  0  0  0  0
   57.9090   29.8550   46.0600 C   0  0  0  0  0  0  0  0  0  0  0  0
   58.3490   29.1430   47.1780 C   0  0  0  0  0  0  0  0  0  0  0  0
   59.0640   29.7890   48.1850 C   0  0  0  0  0  0  0  0  0  0  0  0
   59.3530   31.1600   48.0910 C   0  0  0  0  0  0  0  0  0  0  0  0
   60.0630   31.7940   49.1660 N   0  0  0  0  0  0  0  0  0  0  0  0
   59.3390   32.7080   50.0640 C   0  0  0  0  0  0  0  0  0  0  0  0
   59.9010   32.6490   51.4940 C   0  0  0  0  0  0  0  0  0  0  0  0
   60.2380   31.1940   51.8700 C   0  0  0  0  0  0  0  0  0  0  0  0
   60.6610   31.0930   53.3400 C   0  0  0  0  0  0  0  0  0  0  0  0
   61.3240   30.6000   50.9340 C   0  0  0  0  0  0  0  0  0  0  0  0
   61.3840   31.2910   49.5590 C   0  0  0  0  0  0  0  0  0  0  0  0
   58.9220   31.8840   46.9550 C   0  0  0  0  0  0  0  0  0  0  0  0
   59.3030   33.5960   46.7340 S   0  0  0  0  0  0  0  0  0  0  0  0
   58.5270   34.1580   45.5750 O   0  0  0  0  0  0  0  0  0  0  0  0
   58.9160   34.3460   47.9770 O   0  0  0  0  0  0  0  0  0  0  0  0
   60.9960   33.8270   46.4240 N   0  0  0  0  0  0  0  0  0  0  0  0
   62.0310   33.6440   47.4070 C   0  0  0  0  0  0  0  0  0  0  0  0
   63.1570   32.8340   47.1660 C   0  0  0  0  0  0  0  0  0  0  0  0
   64.1310   32.6620   48.1530 C   0  0  0  0  0  0  0  0  0  0  0  0
   63.9950   33.2930   49.3970 C   0  0  0  0  0  0  0  0  0  0  0  0
   65.2140   33.0910   50.6510 S   0  0  0  0  0  0  0  0  0  0  0  0
   66.7750   32.9760   49.9150 N   0  0  0  0  0  0  0  0  0  0  0  0
   65.1780   34.2730   51.5790 O   0  0  0  0  0  0  0  0  0  0  0  0
   64.9460   31.8400   51.4430 O   0  0  0  0  0  0  0  0  0  0  0  0
   62.8800   34.1020   49.6410 C   0  0  0  0  0  0  0  0  0  0  0  0
   61.9060   34.2780   48.6540 C   0  0  0  0  0  0  0  0  0  0  0  0
   58.1910   31.2230   45.9550 C   0  0  0  0  0  0  0  0  0  0  0  0
   54.2989   24.5450   46.5234 H   0  0  0  0  0  0  0  0  0  0  0  0
   53.6525   25.2879   45.0211 H   0  0  0  0  0  0  0  0  0  0  0  0
   55.2836   24.5355   45.0211 H   0  0  0  0  0  0  0  0  0  0  0  0
   58.3736   27.1093   45.0199 H   0  0  0  0  0  0  0  0  0  0  0  0
   56.9465   26.8109   43.9567 H   0  0  0  0  0  0  0  0  0  0  0  0
   58.1304   28.0684   47.2641 H   0  0  0  0  0  0  0  0  0  0  0  0
   59.4052   29.2193   49.0620 H   0  0  0  0  0  0  0  0  0  0  0  0
   59.4357   33.7355   49.6832 H   0  0  0  0  0  0  0  0  0  0  0  0
   58.2830   32.4012   50.0934 H   0  0  0  0  0  0  0  0  0  0  0  0
   60.8135   33.2605   51.5519 H   0  0  0  0  0  0  0  0  0  0  0  0
   59.1461   33.0364   52.1940 H   0  0  0  0  0  0  0  0  0  0  0  0
   59.3249   30.5956   51.7353 H   0  0  0  0  0  0  0  0  0  0  0  0
   59.7949   31.2998   53.9858 H   0  0  0  0  0  0  0  0  0  0  0  0
   61.0372   30.0798   53.5445 H   0  0  0  0  0  0  0  0  0  0  0  0
   61.4544   31.8270   53.5445 H   0  0  0  0  0  0  0  0  0  0  0  0
   62.3036   30.7079   51.4225 H   0  0  0  0  0  0  0  0  0  0  0  0
   61.0635   29.5458   50.7589 H   0  0  0  0  0  0  0  0  0  0  0  0
   62.0893   32.1336   49.6102 H   0  0  0  0  0  0  0  0  0  0  0  0
   61.7161   30.5558   48.8112 H   0  0  0  0  0  0  0  0  0  0  0  0
   61.2630   34.0980   45.4510 H   0  0  0  0  0  0  0  0  0  0  0  0
   63.2709   32.3328   46.1935 H   0  0  0  0  0  0  0  0  0  0  0  0
   65.0080   32.0288   47.9528 H   0  0  0  0  0  0  0  0  0  0  0  0
   66.6200   32.9000   48.8840 H   0  0  0  0  0  0  0  0  0  0  0  0
   62.7693   34.6021   50.6145 H   0  0  0  0  0  0  0  0  0  0  0  0
   61.0345   34.9182   48.8556 H   0  0  0  0  0  0  0  0  0  0  0  0
   57.8357   31.7858   45.0792 H   0  0  0  0  0  0  0  0  0  0  0  0
  1  2  1  0
  2  3  1  0
  3  4  2  0
  3  5  1  0
  5  6  1  0
  6  7  2  0
  6  8  2  0
  6  9  1  0
  9 10  2  0
 10 11  1  0
 11 12  2  0
 12 13  1  0
 13 14  1  0
 14 15  1  0
 15 16  1  0
 16 17  1  0
 16 18  1  0
 18 19  1  0
 12 20  1  0
 20 21  1  0
 21 22  2  0
 21 23  2  0
 21 24  1  0
 24 25  1  0
 25 26  2  0
 26 27  1  0
 27 28  2  0
 28 29  1  0
 29 30  1  0
 29 31  2  0
 29 32  2  0
 28 33  1  0
 33 34  2  0
 20 35  2  0
 35  9  1  0
 19 13  1  0
 34 25  1  0
  1 36  1  0
  1 37  1  0
  1 38  1  0
  5 39  1  0
  5 40  1  0
 10 41  1  0
 11 42  1  0
 14 43  1  0
 14 44  1  0
 15 45  1  0
 15 46  1  0
 16 47  1  0
 17 48  1  0
 17 49  1  0
 17 50  1  0
 18 51  1  0
 18 52  1  0
 19 53  1  0
 19 54  1  0
 24 55  1  0
 26 56  1  0
 27 57  1  0
 30 58  1  0
 33 59  1  0
 34 60  1  0
 35 61  1  0
M  CHG  2   2  -1  30  -1
M  END
>  <UniqueID>  (1) 
1

>  <SMILES>  (1) 
C[N-]C(=O)CS(=O)(=O)c1ccc(N2CCC(C)CC2)c(S(=O)(=O)Nc2ccc(S([NH-])(=O)=O)cc2)c1

>  <Energy>  (1) 
62.43292442126251

>  <Genealogy>  (1) 
C[N-]C(=O)CS(=O)(=O)c1ccc(N2CCC(C)CC2)c(S(=O)(=O)Nc2ccc(S([NH-])(=O)=O)cc2)c1 (protonated)
C[N-]C(=O)CS(=O)(=O)c1ccc(N2CCC(C)CC2)c(S(=O)(=O)Nc2ccc(S([NH-])(=O)=O)cc2)c1 (3D coordinates assigned)
C[N-]C(=O)CS(=O)(=O)c1ccc(N2CCC(C)CC2)c(S(=O)(=O)Nc2ccc(S([NH-])(=O)=O)cc2)c1 (nonaromatic ring conformer: 62.43292442126251 kcal/mol)

>  <smiles>  (1) 
CNC(=O)CS(=O)(=O)c1ccc(N2CCC(C)CC2)c(S(=O)(=O)Nc2ccc(S(N)(=O)=O)cc2)c1

>  <score_type>  (1) 
oracle

>  <origin>  (1) 
adg

>  <m_score__min__energy>  (1) 
-13.99

>  <m_primary>  (1) 
energy

$$$$
1:0
     RDKit          3D

 39 41  0  0  0  0  0  0  0  0999 V2000
   60.9744   28.5503   47.3999 H   0  0  0  0  0  0  0  0  0  0  0  0
   60.2380   28.6790   46.5930 C   0  0  0  0  0  0  0  0  0  0  0  0
   58.9500   28.3540   46.6810 C   0  0  0  0  0  0  0  0  0  0  0  0
   58.3600   27.4650   47.7620 C   0  0  0  0  0  0  0  0  0  0  0  0
   57.3517   27.8355   47.9987 H   0  0  0  0  0  0  0  0  0  0  0  0
   59.0492   27.5148   48.6179 H   0  0  0  0  0  0  0  0  0  0  0  0
   58.2500   26.0090   47.3850 C   0  0  0  0  0  0  0  0  0  0  0  0
   58.6991   25.2761   48.0714 H   0  0  0  0  0  0  0  0  0  0  0  0
   57.6500   25.5310   46.2820 C   0  0  0  0  0  0  0  0  0  0  0  0
   58.2995   25.2874   45.4283 H   0  0  0  0  0  0  0  0  0  0  0  0
   56.1990   25.3010   46.1060 C   0  0  0  0  0  0  0  0  0  0  0  0
   55.5620   24.1220   46.2340 N   0  0  0  0  0  0  0  0  0  0  0  0
   54.2680   24.4350   46.0110 C   0  0  0  0  0  0  0  0  0  0  0  0
   53.3480   23.5770   46.0430 O   0  0  0  0  0  0  0  0  0  0  0  0
   54.0370   25.7390   45.7510 N   0  0  0  0  0  0  0  0  0  0  0  0
   55.2680   26.2720   45.8170 C   0  0  0  0  0  0  0  0  0  0  0  0
   55.5350   27.6210   45.6200 O   0  0  0  0  0  0  0  0  0  0  0  0
   58.2090   28.6690   45.4890 N   0  0  1  0  0  0  0  0  0  0  0  0
   57.6560   27.8260   45.2000 H   0  0  0  0  0  0  0  0  0  0  0  0
   57.2670   29.8050   45.6880 C   0  0  0  0  0  0  0  0  0  0  0  0
   56.3314   29.5690   45.1599 H   0  0  0  0  0  0  0  0  0  0  0  0
   57.1397   29.9120   46.7754 H   0  0  0  0  0  0  0  0  0  0  0  0
   57.7690   31.1560   45.1820 C   0  0  0  0  0  0  0  0  0  0  0  0
   57.5650   31.4930   43.8300 C   0  0  0  0  0  0  0  0  0  0  0  0
   57.0149   30.8011   43.1754 H   0  0  0  0  0  0  0  0  0  0  0  0
   58.0510   32.6920   43.3100 C   0  0  0  0  0  0  0  0  0  0  0  0
   57.9004   32.9307   42.2468 H   0  0  0  0  0  0  0  0  0  0  0  0
   58.7270   33.5880   44.1350 C   0  0  0  0  0  0  0  0  0  0  0  0
   59.1299   34.5218   43.7160 H   0  0  0  0  0  0  0  0  0  0  0  0
   58.8950   33.3050   45.4920 C   0  0  0  0  0  0  0  0  0  0  0  0
   59.7140   34.4940   46.5000 Cl  0  0  0  0  0  0  0  0  0  0  0  0
   58.4020   32.0990   46.0310 C   0  0  0  0  0  0  0  0  0  0  0  0
   58.5120   31.8420   47.7700 Cl  0  0  0  0  0  0  0  0  0  0  0  0
   59.2570   28.9290   44.4820 C   0  0  0  0  0  0  0  0  0  0  0  0
   58.9760   29.7878   43.8547 H   0  0  0  0  0  0  0  0  0  0  0  0
   59.3933   28.0625   43.8182 H   0  0  0  0  0  0  0  0  0  0  0  0
   60.5390   29.2380   45.2560 C   0  0  0  0  0  0  0  0  0  0  0  0
   60.7222   30.3214   45.3085 H   0  0  0  0  0  0  0  0  0  0  0  0
   61.4455   28.8184   44.7953 H   0  0  0  0  0  0  0  0  0  0  0  0
  1  2  1  0
  2  3  2  0
  3  4  1  0
  4  5  1  0
  4  6  1  0
  4  7  1  0
  7  8  1  0
  7  9  2  0
  9 10  1  0
  9 11  1  0
 11 12  1  0
 12 13  1  0
 13 14  2  0
 13 15  1  0
 15 16  1  0
 16 17  1  0
  3 18  1  0
 18 19  1  6
 18 20  1  0
 20 21  1  0
 20 22  1  0
 20 23  1  0
 23 24  2  0
 24 25  1  0
 24 26  1  0
 26 27  1  0
 26 28  2  0
 28 29  1  0
 28 30  1  0
 30 31  1  0
 30 32  2  0
 32 33  1  0
 18 34  1  0
 34 35  1  0
 34 36  1  0
 34 37  1  0
 37 38  1  0
 37 39  1  0
 37  2  1  0
 16 11  2  0
 32 23  1  0
M  CHG  4  12  -1  15  -1  17  -1  18   1
M  END
>  <UniqueID>  (2) 
2

>  <SMILES>  (2) 
O=c1[n-]c([O-])c(/C=C\CC2=CCC[N@@H+]2Cc2cccc(Cl)c2Cl)[n-]1

>  <Energy>  (2) 
86.55484278324403

>  <Genealogy>  (2) 
O=c1[n-]c([O-])c(C=CCC2=CCC[NH+]2Cc2cccc(Cl)c2Cl)[n-]1 (protonated)
O=c1[n-]c([O-])c(C=CCC2=CCC[N@@H+]2Cc2cccc(Cl)c2Cl)[n-]1 (chirality)
O=c1[n-]c([O-])c(/C=C\CC2=CCC[N@@H+]2Cc2cccc(Cl)c2Cl)[n-]1 (cis-trans isomerization)
O=c1[n-]c([O-])c(/C=C\CC2=CCC[N@@H+]2Cc2cccc(Cl)c2Cl)[n-]1 (3D coordinates assigned)
O=c1[n-]c([O-])c(/C=C\CC2=CCC[N@@H+]2Cc2cccc(Cl)c2Cl)[n-]1 (nonaromatic ring conformer: 86.55484278324403 kcal/mol)

>  <smiles>  (2) 
O=c1[nH]c(O)c(C=CCC2=CCCN2Cc2cccc(Cl)c2Cl)[nH]1

>  <score_type>  (2) 
oracle

>  <origin>  (2) 
adg

>  <m_score__min__energy>  (2) 
-14.84

>  <m_primary>  (2) 
energy

$$$$
2:0
     RDKit          3D

 48 51  0  0  0  0  0  0  0  0999 V2000
   60.4070   25.6490   46.3030 C   0  0  0  0  0  0  0  0  0  0  0  0
   59.2470   26.5610   46.0280 C   0  0  0  0  0  0  0  0  0  0  0  0
   59.4660   27.8600   45.5500 C   0  0  0  0  0  0  0  0  0  0  0  0
   58.3860   28.6980   45.2590 C   0  0  0  0  0  0  0  0  0  0  0  0
   57.0660   28.2360   45.4170 C   0  0  0  0  0  0  0  0  0  0  0  0
   55.9350   29.0770   45.1480 N   0  0  0  0  0  0  0  0  0  0  0  0
   55.5800   29.6570   43.8860 C   0  0  0  0  0  0  0  0  0  0  0  0
   54.4220   29.5080   43.4120 O   0  0  0  0  0  0  0  0  0  0  0  0
   56.5500   30.4910   43.1720 C   0  0  0  0  0  0  0  0  0  0  0  0
   56.5630   30.4990   41.9100 O   0  0  0  0  0  0  0  0  0  0  0  0
   57.4700   31.2560   43.8990 O   0  0  0  0  0  0  0  0  0  0  0  0
   57.0850   32.1190   44.9280 C   0  0  0  0  0  0  0  0  0  0  0  0
   57.9370   32.9610   45.5460 C   0  0  0  0  0  0  0  0  0  0  0  0
   57.8910   34.4200   45.1830 C   0  0  0  0  0  0  0  0  0  0  0  0
   59.2850   35.0240   45.2910 C   0  0  0  0  0  0  0  0  0  0  0  0
   59.8330   34.8380   46.7060 C   0  0  0  0  0  0  0  0  0  0  0  0
   59.8100   33.4220   47.1370 N   0  0  0  0  0  0  0  0  0  0  0  0
   58.8840   32.5380   46.6240 C   0  0  0  0  0  0  0  0  0  0  0  0
   58.8250   31.2690   47.1090 N   0  0  0  0  0  0  0  0  0  0  0  0
   59.6620   30.8270   48.0740 C   0  0  0  0  0  0  0  0  0  0  0  0
   59.5750   29.5030   48.5240 C   0  0  0  0  0  0  0  0  0  0  0  0
   60.4410   29.0460   49.5200 C   0  0  0  0  0  0  0  0  0  0  0  0
   61.3920   29.9080   50.0720 C   0  0  0  0  0  0  0  0  0  0  0  0
   61.4820   31.2330   49.6290 C   0  0  0  0  0  0  0  0  0  0  0  0
   60.6160   31.7000   48.6210 C   0  0  0  0  0  0  0  0  0  0  0  0
   60.6590   33.0190   48.1410 C   0  0  0  0  0  0  0  0  0  0  0  0
   61.4840   33.8350   48.6410 O   0  0  0  0  0  0  0  0  0  0  0  0
   56.8450   26.9370   45.8990 C   0  0  0  0  0  0  0  0  0  0  0  0
   55.5400   26.4790   46.0780 O   0  0  0  0  0  0  0  0  0  0  0  0
   57.9320   26.1000   46.1910 C   0  0  0  0  0  0  0  0  0  0  0  0
   60.5410   25.5437   47.3897 H   0  0  0  0  0  0  0  0  0  0  0  0
   60.2099   24.6614   45.8604 H   0  0  0  0  0  0  0  0  0  0  0  0
   61.3202   26.0736   45.8604 H   0  0  0  0  0  0  0  0  0  0  0  0
   60.4942   28.2223   45.4029 H   0  0  0  0  0  0  0  0  0  0  0  0
   58.5685   29.7233   44.9049 H   0  0  0  0  0  0  0  0  0  0  0  0
   56.0333   32.1109   45.2502 H   0  0  0  0  0  0  0  0  0  0  0  0
   57.5254   34.5280   44.1512 H   0  0  0  0  0  0  0  0  0  0  0  0
   57.2141   34.9444   45.8735 H   0  0  0  0  0  0  0  0  0  0  0  0
   59.9536   34.5252   44.5740 H   0  0  0  0  0  0  0  0  0  0  0  0
   59.2285   36.0994   45.0665 H   0  0  0  0  0  0  0  0  0  0  0  0
   60.8717   35.1990   46.7331 H   0  0  0  0  0  0  0  0  0  0  0  0
   59.1907   35.4087   47.3928 H   0  0  0  0  0  0  0  0  0  0  0  0
   58.8249   28.8236   48.0930 H   0  0  0  0  0  0  0  0  0  0  0  0
   60.3742   28.0055   49.8705 H   0  0  0  0  0  0  0  0  0  0  0  0
   62.0718   29.5446   50.8567 H   0  0  0  0  0  0  0  0  0  0  0  0
   62.2295   31.9099   50.0684 H   0  0  0  0  0  0  0  0  0  0  0  0
   54.7430   27.0980   45.9810 H   0  0  0  0  0  0  0  0  0  0  0  0
   57.7523   25.0759   46.5500 H   0  0  0  0  0  0  0  0  0  0  0  0
  1  2  1  0
  2  3  2  0
  3  4  1  0
  4  5  2  0
  5  6  1  0
  6  7  1  0
  7  8  2  0
  7  9  1  0
  9 10  2  0
  9 11  1  0
 11 12  1  0
 12 13  2  3
 13 14  1  0
 14 15  1  0
 15 16  1  0
 16 17  1  0
 17 18  1  0
 18 19  2  0
 19 20  1  0
 20 21  2  0
 21 22  1  0
 22 23  2  0
 23 24  1  0
 24 25  2  0
 25 26  1  0
 26 27  2  0
  5 28  1  0
 28 29  1  0
 28 30  2  0
 30  2  1  0
 18 13  1  0
 25 20  1  0
 26 17  1  0
  1 31  1  0
  1 32  1  0
  1 33  1  0
  3 34  1  0
  4 35  1  0
 12 36  1  0
 14 37  1  0
 14 38  1  0
 15 39  1  0
 15 40  1  0
 16 41  1  0
 16 42  1  0
 21 43  1  0
 22 44  1  0
 23 45  1  0
 24 46  1  0
 29 47  1  0
 30 48  1  0
M  CHG  1   6  -1
M  END
>  <UniqueID>  (3) 
3

>  <SMILES>  (3) 
Cc1ccc([N-]C(=O)C(=O)OC=C2CCCn3c2nc2ccccc2c3=O)c(O)c1

>  <Energy>  (3) 
68.89350578085535

>  <Genealogy>  (3) 
Cc1ccc([N-]C(=O)C(=O)OC=C2CCCn3c2nc2ccccc2c3=O)c(O)c1 (protonated)
Cc1ccc([N-]C(=O)C(=O)OC=C2CCCn3c2nc2ccccc2c3=O)c(O)c1 (3D coordinates assigned)
Cc1ccc([N-]C(=O)C(=O)OC=C2CCCn3c2nc2ccccc2c3=O)c(O)c1 (nonaromatic ring conformer: 68.89350578085535 kcal/mol)

>  <smiles>  (3) 
Cc1ccc(NC(=O)C(=O)OC=C2CCCn3c2nc2ccccc2c3=O)c(O)c1

>  <score_type>  (3) 
oracle

>  <origin>  (3) 
adg

>  <m_score__min__energy>  (3) 
-11.539999999999999

>  <m_primary>  (3) 
energy

$$$$
3:0
     RDKit          3D

 43 46  0  0  0  0  0  0  0  0999 V2000
   60.8030   27.8570   49.1540 H   0  0  0  0  0  0  0  0  0  0  0  0
   60.6050   28.0950   50.1180 O   0  0  0  0  0  0  0  0  0  0  0  0
   61.3490   27.5410   51.1540 C   0  0  0  0  0  0  0  0  0  0  0  0
   61.8760   26.2900   51.0710 N   0  0  0  0  0  0  0  0  0  0  0  0
   62.5390   25.9690   52.2020 C   0  0  0  0  0  0  0  0  0  0  0  0
   63.1130   24.8620   52.3690 O   0  0  0  0  0  0  0  0  0  0  0  0
   62.5030   27.1990   53.3480 S   0  0  0  0  0  0  0  0  0  0  0  0
   61.6040   28.2150   52.3470 C   0  0  0  0  0  0  0  0  0  0  0  0
   61.0860   29.5650   52.7330 C   0  0  0  0  0  0  0  0  0  0  0  0
   61.3969   30.3031   51.9790 H   0  0  0  0  0  0  0  0  0  0  0  0
   61.4948   29.8396   53.7166 H   0  0  0  0  0  0  0  0  0  0  0  0
   59.5850   29.5390   52.8140 C   0  0  0  0  0  0  0  0  0  0  0  0
   58.9480   29.2200   54.0250 C   0  0  0  0  0  0  0  0  0  0  0  0
   59.5490   29.0199   54.9243 H   0  0  0  0  0  0  0  0  0  0  0  0
   57.5540   29.1560   54.0910 C   0  0  0  0  0  0  0  0  0  0  0  0
   57.0620   28.9121   55.0441 H   0  0  0  0  0  0  0  0  0  0  0  0
   56.7790   29.4010   52.9490 C   0  0  0  0  0  0  0  0  0  0  0  0
   55.3430   29.3350   53.0220 N   0  0  0  0  0  0  0  0  0  0  0  0
   54.6280   28.3910   53.6740 C   0  0  0  0  0  0  0  0  0  0  0  0
   55.2120   27.2350   54.4290 C   0  0  0  0  0  0  0  0  0  0  0  0
   55.1193   27.4185   55.5096 H   0  0  0  0  0  0  0  0  0  0  0  0
   54.6709   26.3142   54.1657 H   0  0  0  0  0  0  0  0  0  0  0  0
   56.2743   27.1242   54.1657 H   0  0  0  0  0  0  0  0  0  0  0  0
   53.2780   28.6550   53.5730 C   0  0  0  0  0  0  0  0  0  0  0  0
   52.4615   28.0785   54.0322 H   0  0  0  0  0  0  0  0  0  0  0  0
   53.1470   29.7860   52.7820 C   0  0  0  0  0  0  0  0  0  0  0  0
   51.9510   30.2790   52.4080 C   0  0  0  0  0  0  0  0  0  0  0  0
   51.1606   30.3165   53.1721 H   0  0  0  0  0  0  0  0  0  0  0  0
   51.6120   30.7720   51.0630 C   0  0  0  0  0  0  0  0  0  0  0  0
   51.5390   30.0050   49.9600 N   0  0  0  0  0  0  0  0  0  0  0  0
   51.0660   30.8530   49.0210 C   0  0  0  0  0  0  0  0  0  0  0  0
   50.8720   30.5040   47.8270 O   0  0  0  0  0  0  0  0  0  0  0  0
   50.8060   32.1020   49.4650 N   0  0  0  0  0  0  0  0  0  0  0  0
   51.1430   32.0270   50.7620 C   0  0  0  0  0  0  0  0  0  0  0  0
   51.0200   33.0850   51.6540 O   0  0  0  0  0  0  0  0  0  0  0  0
   54.4530   30.2160   52.4950 C   0  0  0  0  0  0  0  0  0  0  0  0
   54.8160   31.3900   51.9540 C   0  0  0  0  0  0  0  0  0  0  0  0
   55.8795   31.6089   51.7777 H   0  0  0  0  0  0  0  0  0  0  0  0
   54.0499   32.1329   51.6871 H   0  0  0  0  0  0  0  0  0  0  0  0
   57.4130   29.7100   51.7370 C   0  0  0  0  0  0  0  0  0  0  0  0
   56.8109   29.9034   50.8370 H   0  0  0  0  0  0  0  0  0  0  0  0
   58.8080   29.7730   51.6690 C   0  0  0  0  0  0  0  0  0  0  0  0
   59.2991   30.0072   50.7130 H   0  0  0  0  0  0  0  0  0  0  0  0
  1  2  1  0
  2  3  1  0
  3  4  1  0
  4  5  1  0
  5  6  2  0
  5  7  1  0
  7  8  1  0
  8  9  1  0
  9 10  1  0
  9 11  1  0
  9 12  1  0
 12 13  2  0
 13 14  1  0
 13 15  1  0
 15 16  1  0
 15 17  2  0
 17 18  1  0
 18 19  1  0
 19 20  1  0
 20 21  1  0
 20 22  1  0
 20 23  1  0
 19 24  2  0
 24 25  1  0
 24 26  1  0
 26 27  2  0
 27 28  1  0
 27 29  1  0
 29 30  1  0
 30 31  1  0
 31 32  2  0
 31 33  1  0
 33 34  1  0
 34 35  1  0
 26 36  1  0
 36 37  2  0
 37 38  1  0
 37 39  1  0
 17 40  1  0
 40 41  1  0
 40 42  2  0
 42 43  1  0
  8  3  2  0
 42 12  1  0
 36 18  1  0
 34 29  2  0
M  CHG  4   4  -1  30  -1  33  -1  35  -1
M  END
>  <UniqueID>  (4) 
4

>  <SMILES>  (4) 
C=c1/c(=C\c2[n-]c(=O)[n-]c2[O-])cc(C)n1-c1ccc(Cc2sc(=O)[n-]c2O)cc1

>  <Energy>  (4) 
149.9686934892424

>  <Genealogy>  (4) 
C=c1c(=Cc2[n-]c(=O)[n-]c2[O-])cc(C)n1-c1ccc(Cc2sc(=O)[n-]c2O)cc1 (protonated)
C=c1/c(=C\c2[n-]c(=O)[n-]c2[O-])cc(C)n1-c1ccc(Cc2sc(=O)[n-]c2O)cc1 (cis-trans isomerization)
C=c1/c(=C\c2[n-]c(=O)[n-]c2[O-])cc(C)n1-c1ccc(Cc2sc(=O)[n-]c2O)cc1 (3D coordinates assigned)
C=c1/c(=C\c2[n-]c(=O)[n-]c2[O-])cc(C)n1-c1ccc(Cc2sc(=O)[n-]c2O)cc1 (optimized conformer: 149.9686934892424 kcal/mol)

>  <smiles>  (4) 
C=c1c(=Cc2[nH]c(=O)[nH]c2O)cc(C)n1-c1ccc(Cc2sc(=O)[nH]c2O)cc1

>  <score_type>  (4) 
oracle

>  <origin>  (4) 
adg

>  <m_score__min__energy>  (4) 
-16.379999999999999

>  <m_primary>  (4) 
energy

$$$$
4:0
     RDKit          3D

 44 46  0  0  0  0  0  0  0  0999 V2000
   55.1390   29.3310   44.7630 N   0  0  0  0  0  0  0  0  0  0  0  0
   56.2280   30.0150   44.1490 C   0  0  0  0  0  0  0  0  0  0  0  0
   56.8210   29.4950   43.1670 O   0  0  0  0  0  0  0  0  0  0  0  0
   56.6480   31.3620   44.6530 C   0  0  0  0  0  0  0  0  0  0  0  0
   57.9220   31.2670   45.3960 N   0  0  0  0  0  0  0  0  0  0  0  0
   58.2870   30.0940   46.0120 C   0  0  0  0  0  0  0  0  0  0  0  0
   57.4560   28.9660   45.9990 O   0  0  0  0  0  0  0  0  0  0  0  0
   59.5130   30.0000   46.6840 C   0  0  0  0  0  0  0  0  0  0  0  0
   59.9620   28.6870   47.2950 C   0  0  0  0  0  0  0  0  0  0  0  0
   60.0120   28.7950   48.7970 C   0  0  0  0  0  0  0  0  0  0  0  0
   59.2700   29.7840   49.4630 C   0  0  0  0  0  0  0  0  0  0  0  0
   59.2890   29.8590   50.8600 C   0  0  0  0  0  0  0  0  0  0  0  0
   60.0420   28.9450   51.6000 C   0  0  0  0  0  0  0  0  0  0  0  0
   60.7800   27.9550   50.9460 C   0  0  0  0  0  0  0  0  0  0  0  0
   60.7650   27.8770   49.5500 C   0  0  0  0  0  0  0  0  0  0  0  0
   60.3370   31.1320   46.7320 C   0  0  0  0  0  0  0  0  0  0  0  0
   61.4470   31.0650   47.3290 O   0  0  0  0  0  0  0  0  0  0  0  0
   59.9410   32.3040   46.1460 N   0  0  0  0  0  0  0  0  0  0  0  0
   60.8400   33.4780   46.1750 C   0  0  0  0  0  0  0  0  0  0  0  0
   61.3130   33.7430   47.5820 C   0  0  0  0  0  0  0  0  0  0  0  0
   62.6810   33.7250   47.8920 C   0  0  0  0  0  0  0  0  0  0  0  0
   63.1020   33.9350   49.2060 C   0  0  0  0  0  0  0  0  0  0  0  0
   62.1510   34.1570   50.2030 C   0  0  0  0  0  0  0  0  0  0  0  0
   60.8280   34.1680   49.8910 N   0  0  0  0  0  0  0  0  0  0  0  0
   60.3920   33.9660   48.6180 C   0  0  0  0  0  0  0  0  0  0  0  0
   58.7390   32.3700   45.4860 C   0  0  0  0  0  0  0  0  0  0  0  0
   58.3780   33.4610   44.9580 O   0  0  0  0  0  0  0  0  0  0  0  0
   55.2800   28.7660   45.6290 H   0  0  0  0  0  0  0  0  0  0  0  0
   56.7779   32.0429   43.7989 H   0  0  0  0  0  0  0  0  0  0  0  0
   55.8706   31.7445   45.3308 H   0  0  0  0  0  0  0  0  0  0  0  0
   57.1210   28.5090   45.1620 H   0  0  0  0  0  0  0  0  0  0  0  0
   59.2532   27.8948   47.0122 H   0  0  0  0  0  0  0  0  0  0  0  0
   60.9682   28.4459   46.9215 H   0  0  0  0  0  0  0  0  0  0  0  0
   58.6714   30.5026   48.8840 H   0  0  0  0  0  0  0  0  0  0  0  0
   58.7100   30.6390   51.3761 H   0  0  0  0  0  0  0  0  0  0  0  0
   60.0542   29.0044   52.6983 H   0  0  0  0  0  0  0  0  0  0  0  0
   61.3735   27.2362   51.5300 H   0  0  0  0  0  0  0  0  0  0  0  0
   61.3447   27.0943   49.0388 H   0  0  0  0  0  0  0  0  0  0  0  0
   61.7101   33.2843   45.5305 H   0  0  0  0  0  0  0  0  0  0  0  0
   60.2893   34.3583   45.8119 H   0  0  0  0  0  0  0  0  0  0  0  0
   63.4221   33.5453   47.0992 H   0  0  0  0  0  0  0  0  0  0  0  0
   64.1737   33.9256   49.4536 H   0  0  0  0  0  0  0  0  0  0  0  0
   62.4722   34.3232   51.2419 H   0  0  0  0  0  0  0  0  0  0  0  0
   59.3139   33.9775   48.3997 H   0  0  0  0  0  0  0  0  0  0  0  0
  1  2  1  0
  2  3  2  0
  2  4  1  0
  4  5  1  0
  5  6  1  0
  6  7  1  0
  6  8  2  0
  8  9  1  0
  9 10  1  0
 10 11  2  0
 11 12  1  0
 12 13  2  0
 13 14  1  0
 14 15  2  0
  8 16  1  0
 16 17  2  0
 16 18  1  0
 18 19  1  0
 19 20  1  0
 20 21  2  0
 21 22  1  0
 22 23  2  0
 23 24  1  0
 24 25  2  0
 18 26  1  0
 26 27  2  0
 26  5  1  0
 15 10  1  0
 25 20  1  0
  1 28  1  0
  4 29  1  0
  4 30  1  0
  7 31  1  0
  9 32  1  0
  9 33  1  0
 11 34  1  0
 12 35  1  0
 13 36  1  0
 14 37  1  0
 15 38  1  0
 19 39  1  0
 19 40  1  0
 21 41  1  0
 22 42  1  0
 23 43  1  0
 25 44  1  0
M  CHG  1   1  -1
M  END
>  <UniqueID>  (5) 
5

>  <SMILES>  (5) 
[NH-]C(=O)Cn1c(O)c(Cc2ccccc2)c(=O)n(Cc2cccnc2)c1=O

>  <Energy>  (5) 
55.02986734564291

>  <Genealogy>  (5) 
[NH-]C(=O)Cn1c(O)c(Cc2ccccc2)c(=O)n(Cc2cccnc2)c1=O (protonated)
[NH-]C(=O)Cn1c(O)c(Cc2ccccc2)c(=O)n(Cc2cccnc2)c1=O (3D coordinates assigned)
[NH-]C(=O)Cn1c(O)c(Cc2ccccc2)c(=O)n(Cc2cccnc2)c1=O (optimized conformer: 55.02986734564291 kcal/mol)

>  <smiles>  (5) 
NC(=O)Cn1c(O)c(Cc2ccccc2)c(=O)n(Cc2cccnc2)c1=O

>  <score_type>  (5) 
oracle

>  <origin>  (5) 
adg

>  <m_score__min__energy>  (5) 
-10.17

>  <m_primary>  (5) 
energy

$$$$
5:0
     RDKit          3D

 59 62  0  0  0  0  0  0  0  0999 V2000
   55.1650   29.4660   44.9020 O   0  0  0  0  0  0  0  0  0  0  0  0
   56.4210   29.5970   44.8730 C   0  0  0  0  0  0  0  0  0  0  0  0
   56.9880   30.8680   44.5240 N   0  0  0  0  0  0  0  0  0  0  0  0
   57.5790   31.7920   45.4530 C   0  0  0  0  0  0  0  0  0  0  0  0
   58.1590   31.3570   46.6570 C   0  0  0  0  0  0  0  0  0  0  0  0
   58.8300   32.2630   47.4830 C   0  0  0  0  0  0  0  0  0  0  0  0
   58.9300   33.6160   47.1220 C   0  0  0  0  0  0  0  0  0  0  0  0
   59.7330   34.5670   47.9750 C   0  0  0  0  0  0  0  0  0  0  0  0
   61.1730   34.2250   47.9880 N   0  0  0  0  0  0  0  0  0  0  0  0
   61.4190   33.1270   48.9610 C   0  0  0  0  0  0  0  0  0  0  0  0
   62.7450   32.3670   48.7140 C   0  0  0  0  0  0  0  0  0  0  0  0
   63.7580   33.2240   47.9500 C   0  0  0  0  0  0  0  0  0  0  0  0
   63.1780   33.6970   46.6010 C   0  0  0  0  0  0  0  0  0  0  0  0
   61.6420   33.8500   46.6350 C   0  0  0  0  0  0  0  0  0  0  0  0
   58.3290   34.0510   45.9290 C   0  0  0  0  0  0  0  0  0  0  0  0
   57.6670   33.1410   45.0950 C   0  0  0  0  0  0  0  0  0  0  0  0
   57.3040   28.4580   45.2190 C   0  0  0  0  0  0  0  0  0  0  0  0
   58.7030   28.6350   45.2570 C   0  0  0  0  0  0  0  0  0  0  0  0
   59.5390   27.6020   45.6980 C   0  0  0  0  0  0  0  0  0  0  0  0
   58.9890   26.3780   46.1010 C   0  0  0  0  0  0  0  0  0  0  0  0
   57.5980   26.1810   46.0560 C   0  0  0  0  0  0  0  0  0  0  0  0
   56.8920   24.6830   46.6660 S   0  0  0  0  0  0  0  0  0  0  0  0
   55.3990   24.8400   46.7430 O   0  0  0  0  0  0  0  0  0  0  0  0
   57.4080   24.4100   48.0510 O   0  0  0  0  0  0  0  0  0  0  0  0
   57.3180   23.3700   45.5800 N   0  0  0  0  0  0  0  0  0  0  0  0
   56.1370   22.5560   45.2600 C   0  0  0  0  0  0  0  0  0  0  0  0
   55.5690   23.0270   43.9250 C   0  0  0  0  0  0  0  0  0  0  0  0
   56.6000   23.9820   43.3530 C   0  0  0  0  0  0  0  0  0  0  0  0
   57.7920   23.8880   44.2870 C   0  0  0  0  0  0  0  0  0  0  0  0
   56.7590   27.2200   45.6110 C   0  0  0  0  0  0  0  0  0  0  0  0
   58.0846   30.2995   46.9504 H   0  0  0  0  0  0  0  0  0  0  0  0
   59.2829   31.9135   48.4225 H   0  0  0  0  0  0  0  0  0  0  0  0
   59.6143   35.5859   47.5778 H   0  0  0  0  0  0  0  0  0  0  0  0
   59.3588   34.4940   49.0068 H   0  0  0  0  0  0  0  0  0  0  0  0
   61.7110   35.0650   48.3090 H   0  0  0  0  0  0  0  0  0  0  0  0
   61.4484   33.5585   49.9724 H   0  0  0  0  0  0  0  0  0  0  0  0
   60.6026   32.3997   48.8406 H   0  0  0  0  0  0  0  0  0  0  0  0
   63.1787   32.0832   49.6842 H   0  0  0  0  0  0  0  0  0  0  0  0
   62.5214   31.4783   48.1056 H   0  0  0  0  0  0  0  0  0  0  0  0
   64.0163   34.1033   48.5584 H   0  0  0  0  0  0  0  0  0  0  0  0
   64.6526   32.6153   47.7521 H   0  0  0  0  0  0  0  0  0  0  0  0
   63.6233   34.6705   46.3482 H   0  0  0  0  0  0  0  0  0  0  0  0
   63.4196   32.9321   45.8484 H   0  0  0  0  0  0  0  0  0  0  0  0
   61.3431   34.6322   45.9217 H   0  0  0  0  0  0  0  0  0  0  0  0
   61.1890   32.8851   46.3634 H   0  0  0  0  0  0  0  0  0  0  0  0
   58.3786   35.1133   45.6480 H   0  0  0  0  0  0  0  0  0  0  0  0
   57.2145   33.4888   44.1547 H   0  0  0  0  0  0  0  0  0  0  0  0
   59.1407   29.5923   44.9376 H   0  0  0  0  0  0  0  0  0  0  0  0
   60.6284   27.7515   45.7281 H   0  0  0  0  0  0  0  0  0  0  0  0
   59.6469   25.5698   46.4532 H   0  0  0  0  0  0  0  0  0  0  0  0
   56.4254   21.4970   45.1871 H   0  0  0  0  0  0  0  0  0  0  0  0
   55.3797   22.6653   46.0503 H   0  0  0  0  0  0  0  0  0  0  0  0
   55.4211   22.1724   43.2484 H   0  0  0  0  0  0  0  0  0  0  0  0
   54.5904   23.5137   44.0496 H   0  0  0  0  0  0  0  0  0  0  0  0
   56.8834   23.6785   42.3344 H   0  0  0  0  0  0  0  0  0  0  0  0
   56.2136   25.0095   43.2823 H   0  0  0  0  0  0  0  0  0  0  0  0
   58.5440   23.2053   43.8646 H   0  0  0  0  0  0  0  0  0  0  0  0
   58.2531   24.8780   44.4183 H   0  0  0  0  0  0  0  0  0  0  0  0
   55.6709   27.0640   45.5692 H   0  0  0  0  0  0  0  0  0  0  0  0
  1  2  2  0
  2  3  1  0
  3  4  1  0
  4  5  2  0
  5  6  1  0
  6  7  2  0
  7  8  1  0
  8  9  1  0
  9 10  1  0
 10 11  1  0
 11 12  1  0
 12 13  1  0
 13 14  1  0
  7 15  1  0
 15 16  2  0
  2 17  1  0
 17 18  2  0
 18 19  1  0
 19 20  2  0
 20 21  1  0
 21 22  1  0
 22 23  2  0
 22 24  2  0
 22 25  1  0
 25 26  1  0
 26 27  1  0
 27 28  1  0
 28 29  1  0
 21 30  2  0
 16  4  1  0
 30 17  1  0
 14  9  1  0
 29 25  1  0
  5 31  1  0
  6 32  1  0
  8 33  1  0
  8 34  1  0
  9 35  1  0
 10 36  1  0
 10 37  1  0
 11 38  1  0
 11 39  1  0
 12 40  1  0
 12 41  1  0
 13 42  1  0
 13 43  1  0
 14 44  1  0
 14 45  1  0
 15 46  1  0
 16 47  1  0
 18 48  1  0
 19 49  1  0
 20 50  1  0
 26 51  1  0
 26 52  1  0
 27 53  1  0
 27 54  1  0
 28 55  1  0
 28 56  1  0
 29 57  1  0
 29 58  1  0
 30 59  1  0
M  CHG  2   3  -1   9   1
M  END
>  <UniqueID>  (6) 
6

>  <SMILES>  (6) 
O=C([N-]c1ccc(C[NH+]2CCCCC2)cc1)c1cccc(S(=O)(=O)N2CCCC2)c1

>  <Energy>  (6) 
76.03418641106383

>  <Genealogy>  (6) 
O=C([N-]c1ccc(C[NH+]2CCCCC2)cc1)c1cccc(S(=O)(=O)N2CCCC2)c1 (protonated)
O=C([N-]c1ccc(C[NH+]2CCCCC2)cc1)c1cccc(S(=O)(=O)N2CCCC2)c1 (3D coordinates assigned)
O=C([N-]c1ccc(C[NH+]2CCCCC2)cc1)c1cccc(S(=O)(=O)N2CCCC2)c1 (nonaromatic ring conformer: 76.03418641106383 kcal/mol)

>  <smiles>  (6) 
O=C(Nc1ccc(CN2CCCCC2)cc1)c1cccc(S(=O)(=O)N2CCCC2)c1

>  <score_type>  (6) 
oracle

>  <origin>  (6) 
adg

>  <m_score__min__energy>  (6) 
-10.529999999999999

>  <m_primary>  (6) 
energy

$$$$
6:0
     RDKit          3D

 64 67  0  0  0  0  0  0  0  0999 V2000
   57.7370   32.6340   43.2600 C   0  0  0  0  0  0  0  0  0  0  0  0
   58.3780   32.9080   44.5930 C   0  0  0  0  0  0  0  0  0  0  0  0
   58.6300   34.2310   44.9890 C   0  0  0  0  0  0  0  0  0  0  0  0
   59.2240   34.4970   46.2240 C   0  0  0  0  0  0  0  0  0  0  0  0
   59.5780   33.4490   47.0770 C   0  0  0  0  0  0  0  0  0  0  0  0
   60.3720   33.8040   48.6100 S   0  0  0  0  0  0  0  0  0  0  0  0
   59.6700   34.9730   49.2430 O   0  0  0  0  0  0  0  0  0  0  0  0
   60.2500   32.6220   49.5300 O   0  0  0  0  0  0  0  0  0  0  0  0
   62.0510   34.2110   48.3230 N   0  0  0  0  0  0  0  0  0  0  0  0
   62.6000   33.5390   47.1300 C   0  0  0  0  0  0  0  0  0  0  0  0
   63.0540   32.1010   47.4260 C   0  0  0  0  0  0  0  0  0  0  0  0
   63.9640   32.0730   48.5050 O   0  0  0  0  0  0  0  0  0  0  0  0
   63.3230   32.5360   49.6730 C   0  0  0  0  0  0  0  0  0  0  0  0
   62.8910   34.0020   49.5160 C   0  0  0  0  0  0  0  0  0  0  0  0
   59.3320   32.1250   46.6890 C   0  0  0  0  0  0  0  0  0  0  0  0
   58.7090   31.8450   45.4590 C   0  0  0  0  0  0  0  0  0  0  0  0
   58.4570   30.4960   45.0360 N   0  0  0  0  0  0  0  0  0  0  0  0
   57.3670   29.6520   45.4300 C   0  0  0  0  0  0  0  0  0  0  0  0
   56.2400   29.7600   44.8800 O   0  0  0  0  0  0  0  0  0  0  0  0
   57.5450   28.6710   46.4570 N   0  0  0  0  0  0  0  0  0  0  0  0
   58.5190   28.7250   47.5090 C   0  0  0  0  0  0  0  0  0  0  0  0
   58.5310   29.7650   48.4570 C   0  0  0  0  0  0  0  0  0  0  0  0
   59.5030   29.7930   49.4600 C   0  0  0  0  0  0  0  0  0  0  0  0
   60.4980   28.8020   49.5150 C   0  0  0  0  0  0  0  0  0  0  0  0
   61.5130   28.8300   50.5890 C   0  0  0  0  0  0  0  0  0  0  0  0
   62.3900   29.7360   50.5840 O   0  0  0  0  0  0  0  0  0  0  0  0
   61.5290   27.8360   51.6310 N   0  0  0  0  0  0  0  0  0  0  0  0
   61.9500   28.1900   52.9890 C   0  0  0  0  0  0  0  0  0  0  0  0
   63.1760   27.3540   53.3720 C   0  0  0  0  0  0  0  0  0  0  0  0
   63.0080   25.8970   53.1170 N   0  0  0  0  0  0  0  0  0  0  0  0
   64.1570   25.3400   52.3830 C   0  0  0  0  0  0  0  0  0  0  0  0
   61.7240   25.5160   52.4830 C   0  0  0  0  0  0  0  0  0  0  0  0
   61.3690   26.4160   51.2890 C   0  0  0  0  0  0  0  0  0  0  0  0
   60.4920   27.7740   48.5600 C   0  0  0  0  0  0  0  0  0  0  0  0
   59.5170   27.7450   47.5580 C   0  0  0  0  0  0  0  0  0  0  0  0
   56.7357   32.2060   43.4157 H   0  0  0  0  0  0  0  0  0  0  0  0
   57.6503   33.5737   42.6948 H   0  0  0  0  0  0  0  0  0  0  0  0
   58.3563   31.9220   42.6948 H   0  0  0  0  0  0  0  0  0  0  0  0
   58.3579   35.0627   44.3225 H   0  0  0  0  0  0  0  0  0  0  0  0
   59.4143   35.5372   46.5270 H   0  0  0  0  0  0  0  0  0  0  0  0
   61.8236   33.5113   46.3512 H   0  0  0  0  0  0  0  0  0  0  0  0
   63.4814   34.1082   46.7996 H   0  0  0  0  0  0  0  0  0  0  0  0
   62.1748   31.4907   47.6802 H   0  0  0  0  0  0  0  0  0  0  0  0
   63.5548   31.6992   46.5328 H   0  0  0  0  0  0  0  0  0  0  0  0
   62.4342   31.9172   49.8656 H   0  0  0  0  0  0  0  0  0  0  0  0
   64.0293   32.4655   50.5133 H   0  0  0  0  0  0  0  0  0  0  0  0
   62.3202   34.3004   50.4077 H   0  0  0  0  0  0  0  0  0  0  0  0
   63.7997   34.6109   49.3996 H   0  0  0  0  0  0  0  0  0  0  0  0
   59.6283   31.2982   47.3513 H   0  0  0  0  0  0  0  0  0  0  0  0
   57.7717   30.5594   48.4080 H   0  0  0  0  0  0  0  0  0  0  0  0
   59.4895   30.5960   50.2117 H   0  0  0  0  0  0  0  0  0  0  0  0
   62.2073   29.2588   53.0273 H   0  0  0  0  0  0  0  0  0  0  0  0
   61.1303   27.9874   53.6940 H   0  0  0  0  0  0  0  0  0  0  0  0
   64.0370   27.7120   52.7884 H   0  0  0  0  0  0  0  0  0  0  0  0
   63.3241   27.4766   54.4551 H   0  0  0  0  0  0  0  0  0  0  0  0
   64.9081   24.9759   53.0994 H   0  0  0  0  0  0  0  0  0  0  0  0
   63.8187   24.5059   51.7507 H   0  0  0  0  0  0  0  0  0  0  0  0
   64.6023   26.1222   51.7507 H   0  0  0  0  0  0  0  0  0  0  0  0
   61.7986   24.4763   52.1315 H   0  0  0  0  0  0  0  0  0  0  0  0
   60.9312   25.6314   53.2367 H   0  0  0  0  0  0  0  0  0  0  0  0
   62.0323   26.1726   50.4459 H   0  0  0  0  0  0  0  0  0  0  0  0
   60.3179   26.2382   51.0178 H   0  0  0  0  0  0  0  0  0  0  0  0
   61.2588   26.9863   48.5998 H   0  0  0  0  0  0  0  0  0  0  0  0
   59.5346   26.9457   46.8024 H   0  0  0  0  0  0  0  0  0  0  0  0
  1  2  1  0
  2  3  2  0
  3  4  1  0
  4  5  2  0
  5  6  1  0
  6  7  2  0
  6  8  2  0
  6  9  1  0
  9 10  1  0
 10 11  1  0
 11 12  1  0
 12 13  1  0
 13 14  1  0
  5 15  1  0
 15 16  2  0
 16 17  1  0
 17 18  1  0
 18 19  2  0
 18 20  1  0
 20 21  1  0
 21 22  2  0
 22 23  1  0
 23 24  2  0
 24 25  1  0
 25 26  2  0
 25 27  1  0
 27 28  1  0
 28 29  1  0
 29 30  1  0
 30 31  1  0
 30 32  1  0
 32 33  1  0
 24 34  1  0
 34 35  2  0
 16  2  1  0
 35 21  1  0
 14  9  1  0
 33 27  1  0
  1 36  1  0
  1 37  1  0
  1 38  1  0
  3 39  1  0
  4 40  1  0
 10 41  1  0
 10 42  1  0
 11 43  1  0
 11 44  1  0
 13 45  1  0
 13 46  1  0
 14 47  1  0
 14 48  1  0
 15 49  1  0
 22 50  1  0
 23 51  1  0
 28 52  1  0
 28 53  1  0
 29 54  1  0
 29 55  1  0
 31 56  1  0
 31 57  1  0
 31 58  1  0
 32 59  1  0
 32 60  1  0
 33 61  1  0
 33 62  1  0
 34 63  1  0
 35 64  1  0
M  CHG  2  17  -1  20  -1
M  END
>  <UniqueID>  (7) 
7

>  <SMILES>  (7) 
Cc1ccc(S(=O)(=O)N2CCOCC2)cc1[N-]C(=O)[N-]c1ccc(C(=O)N2CCN(C)CC2)cc1

>  <Energy>  (7) 
89.97586991725845

>  <Genealogy>  (7) 
Cc1ccc(S(=O)(=O)N2CCOCC2)cc1[N-]C(=O)[N-]c1ccc(C(=O)N2CCN(C)CC2)cc1 (protonated)
Cc1ccc(S(=O)(=O)N2CCOCC2)cc1[N-]C(=O)[N-]c1ccc(C(=O)N2CCN(C)CC2)cc1 (3D coordinates assigned)
Cc1ccc(S(=O)(=O)N2CCOCC2)cc1[N-]C(=O)[N-]c1ccc(C(=O)N2CCN(C)CC2)cc1 (nonaromatic ring conformer: 89.97586991725845 kcal/mol)

>  <smiles>  (7) 
Cc1ccc(S(=O)(=O)N2CCOCC2)cc1NC(=O)Nc1ccc(C(=O)N2CCN(C)CC2)cc1

>  <score_type>  (7) 
oracle

>  <origin>  (7) 
adg

>  <m_score__min__energy>  (7) 
-12.83

>  <m_primary>  (7) 
energy

$$$$
7:0
     RDKit          3D

 37 39  0  0  0  0  0  0  0  0999 V2000
   58.7920   26.3340   47.0490 C   0  0  0  0  0  0  0  0  0  0  0  0
   58.1050   26.2880   45.6900 C   0  0  0  0  0  0  0  0  0  0  0  0
   57.3160   27.5430   45.4380 C   0  0  0  0  0  0  0  0  0  0  0  0
   55.9490   27.6840   45.5740 C   0  0  0  0  0  0  0  0  0  0  0  0
   55.0850   26.6810   45.9970 O   0  0  0  0  0  0  0  0  0  0  0  0
   55.5320   28.9200   45.2450 N   0  0  0  0  0  0  0  0  0  0  0  0
   56.6520   29.5760   44.8840 C   0  0  0  0  0  0  0  0  0  0  0  0
   56.6410   30.9060   44.4690 O   0  0  0  0  0  0  0  0  0  0  0  0
   57.7760   28.7680   44.9820 C   0  0  0  0  0  0  0  0  0  0  0  0
   59.1840   29.1380   44.5970 C   0  0  0  0  0  0  0  0  0  0  0  0
   60.0560   29.3340   45.8400 C   0  0  0  0  0  0  0  0  0  0  0  0
   59.8520   30.7010   46.4110 C   0  0  0  0  0  0  0  0  0  0  0  0
   58.7660   31.4420   46.0370 N   0  0  0  0  0  0  0  0  0  0  0  0
   58.5750   32.7030   46.5150 C   0  0  0  0  0  0  0  0  0  0  0  0
   57.5660   33.3700   46.1630 O   0  0  0  0  0  0  0  0  0  0  0  0
   59.5180   33.2360   47.3930 C   0  0  0  0  0  0  0  0  0  0  0  0
   60.6000   32.4850   47.7450 C   0  0  0  0  0  0  0  0  0  0  0  0
   60.7790   31.2310   47.2620 N   0  0  0  0  0  0  0  0  0  0  0  0
   61.5100   33.1930   48.6700 C   0  0  0  0  0  0  0  0  0  0  0  0
   60.8250   34.5600   48.8780 C   0  0  0  0  0  0  0  0  0  0  0  0
   59.5330   34.5720   48.0330 C   0  0  0  0  0  0  0  0  0  0  0  0
   58.0343   26.2833   47.8448 H   0  0  0  0  0  0  0  0  0  0  0  0
   59.4789   25.4798   47.1417 H   0  0  0  0  0  0  0  0  0  0  0  0
   59.3589   27.2721   47.1417 H   0  0  0  0  0  0  0  0  0  0  0  0
   58.8683   26.1802   44.9053 H   0  0  0  0  0  0  0  0  0  0  0  0
   57.4133   25.4328   45.6776 H   0  0  0  0  0  0  0  0  0  0  0  0
   57.1570   31.6230   44.9640 H   0  0  0  0  0  0  0  0  0  0  0  0
   59.6118   28.3341   43.9799 H   0  0  0  0  0  0  0  0  0  0  0  0
   59.1579   30.0822   44.0333 H   0  0  0  0  0  0  0  0  0  0  0  0
   59.7845   28.5817   46.5952 H   0  0  0  0  0  0  0  0  0  0  0  0
   61.1125   29.2207   45.5556 H   0  0  0  0  0  0  0  0  0  0  0  0
   61.6015   32.6506   49.6226 H   0  0  0  0  0  0  0  0  0  0  0  0
   62.5334   33.2833   48.2769 H   0  0  0  0  0  0  0  0  0  0  0  0
   60.5784   34.6974   49.9412 H   0  0  0  0  0  0  0  0  0  0  0  0
   61.4942   35.3767   48.5696 H   0  0  0  0  0  0  0  0  0  0  0  0
   58.6482   34.7107   48.6716 H   0  0  0  0  0  0  0  0  0  0  0  0
   59.5095   35.3942   47.3027 H   0  0  0  0  0  0  0  0  0  0  0  0
  1  2  1  0
  2  3  1  0
  3  4  2  0
  4  5  1  0
  4  6  1  0
  6  7  1  0
  7  8  1  0
  7  9  2  0
  9 10  1  0
 10 11  1  0
 11 12  1  0
 12 13  2  0
 13 14  1  0
 14 15  2  0
 14 16  1  0
 16 17  2  0
 17 18  1  0
 17 19  1  0
 19 20  1  0
 20 21  1  0
  9  3  1  0
 18 12  1  0
 21 16  1  0
  1 22  1  0
  1 23  1  0
  1 24  1  0
  2 25  1  0
  2 26  1  0
  8 27  1  0
 10 28  1  0
 10 29  1  0
 11 30  1  0
 11 31  1  0
 19 32  1  0
 19 33  1  0
 20 34  1  0
 20 35  1  0
 21 36  1  0
 21 37  1  0
M  CHG  3   5  -1   6  -1  18  -1
M  END
>  <UniqueID>  (8) 
8

>  <SMILES>  (8) 
CCc1c([O-])[n-]c(O)c1CCc1nc(=O)c2c([n-]1)CCC2

>  <Energy>  (8) 
66.66247089585544

>  <Genealogy>  (8) 
CCc1c([O-])[n-]c(O)c1CCc1nc(=O)c2c([n-]1)CCC2 (protonated)
CCc1c([O-])[n-]c(O)c1CCc1nc(=O)c2c([n-]1)CCC2 (3D coordinates assigned)
CCc1c([O-])[n-]c(O)c1CCc1nc(=O)c2c([n-]1)CCC2 (nonaromatic ring conformer: 66.66247089585544 kcal/mol)

>  <smiles>  (8) 
CCc1c(O)[nH]c(O)c1CCc1nc(=O)c2c([nH]1)CCC2

>  <score_type>  (8) 
oracle

>  <origin>  (8) 
adg

>  <m_score__min__energy>  (8) 
-13.51

>  <m_primary>  (8) 
energy

$$$$
8:0
     RDKit          3D

 65 68  0  0  0  0  0  0  0  0999 V2000
   54.6572   31.0693   44.3893 H   0  0  0  0  0  0  0  0  0  0  0  0
   55.4710   30.3360   44.2890 C   0  0  0  0  0  0  0  0  0  0  0  0
   55.6170   29.3500   45.2140 N   0  0  0  0  0  0  0  0  0  0  0  0
   56.5990   28.4110   45.1440 C   0  0  0  0  0  0  0  0  0  0  0  0
   56.6350   27.5070   46.0860 N   0  0  0  0  0  0  0  0  0  0  0  0
   55.9310   26.2590   46.1480 C   0  0  0  0  0  0  0  0  0  0  0  0
   54.6800   26.2330   45.9950 O   0  0  0  0  0  0  0  0  0  0  0  0
   56.6300   25.0320   46.3770 N   0  0  0  0  0  0  0  0  0  0  0  0
   56.9070   24.0330   45.3890 C   0  0  0  0  0  0  0  0  0  0  0  0
   56.0580   23.9290   44.2810 C   0  0  0  0  0  0  0  0  0  0  0  0
   55.2063   24.6175   44.1782 H   0  0  0  0  0  0  0  0  0  0  0  0
   56.2860   22.9560   43.3050 C   0  0  0  0  0  0  0  0  0  0  0  0
   55.6260   22.8935   42.4272 H   0  0  0  0  0  0  0  0  0  0  0  0
   57.3510   22.0620   43.4420 C   0  0  0  0  0  0  0  0  0  0  0  0
   57.5290   21.2955   42.6734 H   0  0  0  0  0  0  0  0  0  0  0  0
   58.1890   22.1430   44.5560 C   0  0  0  0  0  0  0  0  0  0  0  0
   59.0251   21.4368   44.6666 H   0  0  0  0  0  0  0  0  0  0  0  0
   57.9670   23.1210   45.5320 C   0  0  0  0  0  0  0  0  0  0  0  0
   58.6234   23.1762   46.4130 H   0  0  0  0  0  0  0  0  0  0  0  0
   57.5470   28.4850   44.0870 C   0  0  0  0  0  0  0  0  0  0  0  0
   58.6340   27.5980   44.0380 O   0  0  0  0  0  0  0  0  0  0  0  0
   59.7140   27.5710   44.9680 C   0  0  0  0  0  0  0  0  0  0  0  0
   60.6532   27.3768   44.4294 H   0  0  0  0  0  0  0  0  0  0  0  0
   59.7712   28.5420   45.4818 H   0  0  0  0  0  0  0  0  0  0  0  0
   59.4880   26.4700   46.0030 C   0  0  0  0  0  0  0  0  0  0  0  0
   58.5738   25.9190   45.7373 H   0  0  0  0  0  0  0  0  0  0  0  0
   60.3729   25.8166   45.9930 H   0  0  0  0  0  0  0  0  0  0  0  0
   59.3340   27.0190   47.4210 C   0  0  0  0  0  0  0  0  0  0  0  0
   58.3915   27.5817   47.4921 H   0  0  0  0  0  0  0  0  0  0  0  0
   59.3254   26.1792   48.1314 H   0  0  0  0  0  0  0  0  0  0  0  0
   60.4240   27.8840   47.7370 O   0  0  0  0  0  0  0  0  0  0  0  0
   60.3010   29.2680   47.9320 C   0  0  0  0  0  0  0  0  0  0  0  0
   59.7350   29.8130   49.1010 C   0  0  0  0  0  0  0  0  0  0  0  0
   59.3744   29.1459   49.8978 H   0  0  0  0  0  0  0  0  0  0  0  0
   59.6300   31.1990   49.2520 C   0  0  0  0  0  0  0  0  0  0  0  0
   59.1824   31.6179   50.1653 H   0  0  0  0  0  0  0  0  0  0  0  0
   60.0920   32.0560   48.2460 C   0  0  0  0  0  0  0  0  0  0  0  0
   59.9970   33.7990   48.4830 S   0  0  0  0  0  0  0  0  0  0  0  0
   61.3690   34.3850   48.2900 O   0  0  0  0  0  0  0  0  0  0  0  0
   59.5350   34.1080   49.8810 O   0  0  0  0  0  0  0  0  0  0  0  0
   58.8840   34.4840   47.3220 N   0  0  0  0  0  0  0  0  0  0  0  0
   58.4220   35.2940   47.7970 H   0  0  0  0  0  0  0  0  0  0  0  0
   57.8290   33.4950   47.0000 C   0  0  0  0  0  0  0  0  0  0  0  0
   58.2911   32.5038   46.8818 H   0  0  0  0  0  0  0  0  0  0  0  0
   57.0975   33.4879   47.8215 H   0  0  0  0  0  0  0  0  0  0  0  0
   57.0970   33.8630   45.7030 C   0  0  0  0  0  0  0  0  0  0  0  0
   56.2884   33.1380   45.5281 H   0  0  0  0  0  0  0  0  0  0  0  0
   56.6877   34.8787   45.8074 H   0  0  0  0  0  0  0  0  0  0  0  0
   58.0590   33.8430   44.5030 C   0  0  0  0  0  0  0  0  0  0  0  0
   57.9884   32.8614   44.0116 H   0  0  0  0  0  0  0  0  0  0  0  0
   57.7636   34.6585   43.8264 H   0  0  0  0  0  0  0  0  0  0  0  0
   59.5230   34.0850   44.9120 C   0  0  0  0  0  0  0  0  0  0  0  0
   59.9906   33.1204   45.1588 H   0  0  0  0  0  0  0  0  0  0  0  0
   60.0446   34.5652   44.0710 H   0  0  0  0  0  0  0  0  0  0  0  0
   59.6130   35.0130   46.1340 C   0  0  0  0  0  0  0  0  0  0  0  0
   60.6726   35.1396   46.4007 H   0  0  0  0  0  0  0  0  0  0  0  0
   59.1423   35.9679   45.8574 H   0  0  0  0  0  0  0  0  0  0  0  0
   60.6610   31.5170   47.0830 C   0  0  0  0  0  0  0  0  0  0  0  0
   61.0280   32.1861   46.2908 H   0  0  0  0  0  0  0  0  0  0  0  0
   60.7630   30.1310   46.9280 C   0  0  0  0  0  0  0  0  0  0  0  0
   61.3210   29.6230   45.8000 F   0  0  0  0  0  0  0  0  0  0  0  0
   57.3920   29.4960   43.1170 C   0  0  0  0  0  0  0  0  0  0  0  0
   58.0980   29.5584   42.2757 H   0  0  0  0  0  0  0  0  0  0  0  0
   56.3520   30.4160   43.2160 C   0  0  0  0  0  0  0  0  0  0  0  0
   56.2283   31.1986   42.4530 H   0  0  0  0  0  0  0  0  0  0  0  0
  1  2  1  0
  2  3  1  0
  3  4  1  0
  4  5  2  0
  5  6  1  0
  6  7  2  0
  6  8  1  0
  8  9  1  0
  9 10  2  0
 10 11  1  0
 10 12  1  0
 12 13  1  0
 12 14  2  0
 14 15  1  0
 14 16  1  0
 16 17  1  0
 16 18  2  0
 18 19  1  0
  4 20  1  0
 20 21  1  0
 21 22  1  0
 22 23  1  0
 22 24  1  0
 22 25  1  0
 25 26  1  0
 25 27  1  0
 25 28  1  0
 28 29  1  0
 28 30  1  0
 28 31  1  0
 31 32  1  0
 32 33  2  0
 33 34  1  0
 33 35  1  0
 35 36  1  0
 35 37  2  0
 37 38  1  0
 38 39  2  0
 38 40  2  0
 38 41  1  0
 41 42  1  0
 41 43  1  0
 43 44  1  0
 43 45  1  0
 43 46  1  0
 46 47  1  0
 46 48  1  0
 46 49  1  0
 49 50  1  0
 49 51  1  0
 49 52  1  0
 52 53  1  0
 52 54  1  0
 52 55  1  0
 55 56  1  0
 55 57  1  0
 37 58  1  0
 58 59  1  0
 58 60  2  0
 60 61  1  0
 20 62  2  0
 62 63  1  0
 62 64  1  0
 64 65  1  0
 64  2  2  0
 18  9  1  0
 60 32  1  0
 55 41  1  0
M  CHG  3   3  -1   8  -1  41   1
M  END
>  <UniqueID>  (9) 
9

>  <SMILES>  (9) 
O=C(/N=c1/[n-]cccc1OCCCOc1ccc(S(=O)(=O)[NH+]2CCCCC2)cc1F)[N-]c1ccccc1

>  <Energy>  (9) 
82.22407523873326

>  <Genealogy>  (9) 
O=C(N=c1[n-]cccc1OCCCOc1ccc(S(=O)(=O)[NH+]2CCCCC2)cc1F)[N-]c1ccccc1 (protonated)
O=C(/N=c1/[n-]cccc1OCCCOc1ccc(S(=O)(=O)[NH+]2CCCCC2)cc1F)[N-]c1ccccc1 (cis-trans isomerization)
O=C(/N=c1/[n-]cccc1OCCCOc1ccc(S(=O)(=O)[NH+]2CCCCC2)cc1F)[N-]c1ccccc1 (3D coordinates assigned)
O=C(/N=c1/[n-]cccc1OCCCOc1ccc(S(=O)(=O)[NH+]2CCCCC2)cc1F)[N-]c1ccccc1 (nonaromatic ring conformer: 82.22407523873326 kcal/mol)

>  <smiles>  (9) 
O=C(N=c1[nH]cccc1OCCCOc1ccc(S(=O)(=O)N2CCCCC2)cc1F)Nc1ccccc1

>  <score_type>  (9) 
oracle

>  <origin>  (9) 
adg

>  <m_score__min__energy>  (9) 
-10.74

>  <m_primary>  (9) 
energy

$$$$
9:0
     RDKit          3D

 49 51  0  0  0  0  0  0  0  0999 V2000
   57.5730   31.3610   53.4670 N   0  0  0  0  0  0  0  0  0  0  0  0
   57.7680   30.8170   52.1580 C   0  0  0  0  0  0  0  0  0  0  0  0
   57.1910   29.7380   51.8570 O   0  0  0  0  0  0  0  0  0  0  0  0
   58.6170   31.5020   51.1520 C   0  0  0  0  0  0  0  0  0  0  0  0
   60.0150   31.5530   51.2940 C   0  0  0  0  0  0  0  0  0  0  0  0
   60.8010   32.1950   50.3340 C   0  0  0  0  0  0  0  0  0  0  0  0
   60.2050   32.7910   49.2210 C   0  0  0  0  0  0  0  0  0  0  0  0
   58.8130   32.7490   49.0590 C   0  0  0  0  0  0  0  0  0  0  0  0
   58.1790   33.3870   47.8510 C   0  0  0  0  0  0  0  0  0  0  0  0
   58.5160   32.6140   46.6390 N   0  0  0  0  0  0  0  0  0  0  0  0
   58.1410   31.1870   46.7190 C   0  0  0  0  0  0  0  0  0  0  0  0
   58.5010   30.3730   45.4490 C   0  0  0  0  0  0  0  0  0  0  0  0
   57.4380   30.3510   44.4150 N   0  0  0  0  0  0  0  0  0  0  0  0
   57.2370   28.9920   43.8660 C   0  0  0  0  0  0  0  0  0  0  0  0
   57.8000   27.9480   44.8000 C   0  0  0  0  0  0  0  0  0  0  0  0
   59.1800   27.6790   44.8080 C   0  0  0  0  0  0  0  0  0  0  0  0
   59.7020   26.6970   45.6540 C   0  0  0  0  0  0  0  0  0  0  0  0
   58.8530   25.9730   46.4950 C   0  0  0  0  0  0  0  0  0  0  0  0
   57.4790   26.2280   46.4900 C   0  0  0  0  0  0  0  0  0  0  0  0
   56.9490   27.2090   45.6450 C   0  0  0  0  0  0  0  0  0  0  0  0
   55.5780   27.4440   45.6480 O   0  0  0  0  0  0  0  0  0  0  0  0
   57.5830   31.3550   43.3310 C   0  0  0  0  0  0  0  0  0  0  0  0
   58.4870   32.5470   43.6940 C   0  0  0  0  0  0  0  0  0  0  0  0
   57.9160   33.3680   45.1800 S   0  0  0  0  0  0  0  0  0  0  0  0
   58.3830   34.7970   45.1540 O   0  0  0  0  0  0  0  0  0  0  0  0
   56.4140   33.3630   45.1750 O   0  0  0  0  0  0  0  0  0  0  0  0
   58.0250   32.0940   50.0210 C   0  0  0  0  0  0  0  0  0  0  0  0
   57.8940   32.3230   53.7170 H   0  0  0  0  0  0  0  0  0  0  0  0
   57.0190   30.8290   54.1740 H   0  0  0  0  0  0  0  0  0  0  0  0
   60.4929   31.0842   52.1668 H   0  0  0  0  0  0  0  0  0  0  0  0
   61.8937   32.2311   50.4555 H   0  0  0  0  0  0  0  0  0  0  0  0
   60.8295   33.2951   48.4688 H   0  0  0  0  0  0  0  0  0  0  0  0
   57.0867   33.4058   47.9796 H   0  0  0  0  0  0  0  0  0  0  0  0
   58.5585   34.4138   47.7427 H   0  0  0  0  0  0  0  0  0  0  0  0
   58.6627   30.7389   47.5775 H   0  0  0  0  0  0  0  0  0  0  0  0
   57.0467   31.1488   46.8245 H   0  0  0  0  0  0  0  0  0  0  0  0
   59.4056   30.8124   45.0034 H   0  0  0  0  0  0  0  0  0  0  0  0
   58.6458   29.3319   45.7733 H   0  0  0  0  0  0  0  0  0  0  0  0
   56.1600   28.8128   43.7319 H   0  0  0  0  0  0  0  0  0  0  0  0
   57.7600   28.9206   42.9009 H   0  0  0  0  0  0  0  0  0  0  0  0
   59.8518   28.2442   44.1452 H   0  0  0  0  0  0  0  0  0  0  0  0
   60.7830   26.4936   45.6579 H   0  0  0  0  0  0  0  0  0  0  0  0
   59.2664   25.2017   47.1615 H   0  0  0  0  0  0  0  0  0  0  0  0
   56.8125   25.6559   47.1522 H   0  0  0  0  0  0  0  0  0  0  0  0
   58.0104   30.8531   42.4504 H   0  0  0  0  0  0  0  0  0  0  0  0
   56.5796   31.7643   43.1420 H   0  0  0  0  0  0  0  0  0  0  0  0
   59.5120   32.1827   43.8572 H   0  0  0  0  0  0  0  0  0  0  0  0
   58.4582   33.2696   42.8652 H   0  0  0  0  0  0  0  0  0  0  0  0
   56.9342   32.0436   49.8884 H   0  0  0  0  0  0  0  0  0  0  0  0
  1  2  1  0
  2  3  2  0
  2  4  1  0
  4  5  2  0
  5  6  1  0
  6  7  2  0
  7  8  1  0
  8  9  1  0
  9 10  1  0
 10 11  1  0
 11 12  1  0
 12 13  1  0
 13 14  1  0
 14 15  1  0
 15 16  2  0
 16 17  1  0
 17 18  2  0
 18 19  1  0
 19 20  2  0
 20 21  1  0
 13 22  1  0
 22 23  1  0
 23 24  1  0
 24 25  2  0
 24 26  2  0
  8 27  2  0
 27  4  1  0
 24 10  1  0
 20 15  1  0
  1 28  1  0
  1 29  1  0
  5 30  1  0
  6 31  1  0
  7 32  1  0
  9 33  1  0
  9 34  1  0
 11 35  1  0
 11 36  1  0
 12 37  1  0
 12 38  1  0
 14 39  1  0
 14 40  1  0
 16 41  1  0
 17 42  1  0
 18 43  1  0
 19 44  1  0
 22 45  1  0
 22 46  1  0
 23 47  1  0
 23 48  1  0
 27 49  1  0
M  CHG  1  21  -1
M  END
>  <UniqueID>  (10) 
10

>  <SMILES>  (10) 
NC(=O)c1cccc(CN2CCN(Cc3ccccc3[O-])CCS2(=O)=O)c1

>  <Energy>  (10) 
63.663871641613724

>  <Genealogy>  (10) 
NC(=O)c1cccc(CN2CCN(Cc3ccccc3[O-])CCS2(=O)=O)c1 (protonated)
NC(=O)c1cccc(CN2CCN(Cc3ccccc3[O-])CCS2(=O)=O)c1 (3D coordinates assigned)
NC(=O)c1cccc(CN2CCN(Cc3ccccc3[O-])CCS2(=O)=O)c1 (nonaromatic ring conformer: 63.663871641613724 kcal/mol)

>  <smiles>  (10) 
NC(=O)c1cccc(CN2CCN(Cc3ccccc3O)CCS2(=O)=O)c1

>  <score_type>  (10) 
oracle

>  <origin>  (10) 
adg

>  <m_score__min__energy>  (10) 
-11.550000000000001

>  <m_primary>  (10) 
energy

$$$$
10:0
     RDKit          3D

 55 59  0  0  0  0  0  0  0  0999 V2000
   53.8980   30.6390   53.9770 O   0  0  0  0  0  0  0  0  0  0  0  0
   53.7310   29.8950   52.9720 C   0  0  0  0  0  0  0  0  0  0  0  0
   52.3400   29.5460   52.5430 C   0  0  0  0  0  0  0  0  0  0  0  0
   51.7470   30.6780   51.7650 C   0  0  0  0  0  0  0  0  0  0  0  0
   51.4730   31.9370   52.2500 C   0  0  0  0  0  0  0  0  0  0  0  0
   51.0270   32.7050   51.2410 N   0  0  0  0  0  0  0  0  0  0  0  0
   51.0540   31.8800   50.1760 C   0  0  0  0  0  0  0  0  0  0  0  0
   50.6070   32.3520   48.6780 S   0  0  0  0  0  0  0  0  0  0  0  0
   51.4950   30.6340   50.4460 N   0  0  0  0  0  0  0  0  0  0  0  0
   54.8540   29.4490   52.1940 N   0  0  0  0  0  0  0  0  0  0  0  0
   56.2250   29.6850   52.5540 C   0  0  0  0  0  0  0  0  0  0  0  0
   57.0060   28.6820   53.1570 C   0  0  0  0  0  0  0  0  0  0  0  0
   58.3380   28.9350   53.4960 C   0  0  0  0  0  0  0  0  0  0  0  0
   58.9070   30.1810   53.2220 C   0  0  0  0  0  0  0  0  0  0  0  0
   58.1500   31.1820   52.5910 C   0  0  0  0  0  0  0  0  0  0  0  0
   58.7430   32.5420   52.3430 C   0  0  0  0  0  0  0  0  0  0  0  0
   60.1510   32.4190   51.2520 S   0  0  0  0  0  0  0  0  0  0  0  0
   61.4120   32.2750   52.0610 O   0  0  0  0  0  0  0  0  0  0  0  0
   60.2500   33.6740   50.4320 O   0  0  0  0  0  0  0  0  0  0  0  0
   59.9680   31.0270   50.1890 C   0  0  0  0  0  0  0  0  0  0  0  0
   58.8290   30.8970   49.3830 C   0  0  0  0  0  0  0  0  0  0  0  0
   58.6680   29.7730   48.5650 C   0  0  0  0  0  0  0  0  0  0  0  0
   59.6440   28.7700   48.5410 C   0  0  0  0  0  0  0  0  0  0  0  0
   59.4320   27.6170   47.7150 N   0  0  0  0  0  0  0  0  0  0  0  0
   58.3450   27.4170   46.8010 C   0  0  0  0  0  0  0  0  0  0  0  0
   57.5960   26.4180   46.9600 O   0  0  0  0  0  0  0  0  0  0  0  0
   58.0410   28.3770   45.7220 C   0  0  0  0  0  0  0  0  0  0  0  0
   58.7280   29.5800   45.4810 C   0  0  0  0  0  0  0  0  0  0  0  0
   58.0560   30.1160   44.4130 C   0  0  0  0  0  0  0  0  0  0  0  0
   58.0880   31.4780   43.4410 S   0  0  0  0  0  0  0  0  0  0  0  0
   56.7320   30.9610   42.5300 C   0  0  0  0  0  0  0  0  0  0  0  0
   56.2680   29.7250   43.0050 C   0  0  0  0  0  0  0  0  0  0  0  0
   57.0570   29.3000   44.0660 C   0  0  0  0  0  0  0  0  0  0  0  0
   57.0050   28.2160   44.8510 N   0  0  0  0  0  0  0  0  0  0  0  0
   60.7710   28.8850   49.3750 C   0  0  0  0  0  0  0  0  0  0  0  0
   60.9370   30.0150   50.1830 C   0  0  0  0  0  0  0  0  0  0  0  0
   56.8100   30.9260   52.2600 C   0  0  0  0  0  0  0  0  0  0  0  0
   52.3682   28.6453   51.9121 H   0  0  0  0  0  0  0  0  0  0  0  0
   51.7233   29.3572   53.4340 H   0  0  0  0  0  0  0  0  0  0  0  0
   51.5986   32.2616   53.2935 H   0  0  0  0  0  0  0  0  0  0  0  0
   54.6590   29.0460   51.2480 H   0  0  0  0  0  0  0  0  0  0  0  0
   56.5665   27.6948   53.3624 H   0  0  0  0  0  0  0  0  0  0  0  0
   58.9396   28.1513   53.9796 H   0  0  0  0  0  0  0  0  0  0  0  0
   59.9523   30.3791   53.5015 H   0  0  0  0  0  0  0  0  0  0  0  0
   57.9830   33.1900   51.8820 H   0  0  0  0  0  0  0  0  0  0  0  0
   59.0718   32.9677   53.3025 H   0  0  0  0  0  0  0  0  0  0  0  0
   58.0583   31.6818   49.3934 H   0  0  0  0  0  0  0  0  0  0  0  0
   57.7696   29.6772   47.9375 H   0  0  0  0  0  0  0  0  0  0  0  0
   59.5947   29.9914   46.0191 H   0  0  0  0  0  0  0  0  0  0  0  0
   56.2884   31.5187   41.6920 H   0  0  0  0  0  0  0  0  0  0  0  0
   55.4072   29.1744   42.5976 H   0  0  0  0  0  0  0  0  0  0  0  0
   56.3170   27.4320   44.8060 H   0  0  0  0  0  0  0  0  0  0  0  0
   61.5244   28.0837   49.3919 H   0  0  0  0  0  0  0  0  0  0  0  0
   61.8317   30.1093   50.8160 H   0  0  0  0  0  0  0  0  0  0  0  0
   56.2127   31.7060   51.7652 H   0  0  0  0  0  0  0  0  0  0  0  0
  1  2  2  0
  2  3  1  0
  3  4  1  0
  4  5  2  0
  5  6  1  0
  6  7  1  0
  7  8  2  0
  7  9  1  0
  2 10  1  0
 10 11  1  0
 11 12  2  0
 12 13  1  0
 13 14  2  0
 14 15  1  0
 15 16  1  0
 16 17  1  0
 17 18  2  0
 17 19  2  0
 17 20  1  0
 20 21  2  0
 21 22  1  0
 22 23  2  0
 23 24  1  0
 24 25  1  0
 25 26  2  0
 25 27  1  0
 27 28  2  0
 28 29  1  0
 29 30  1  0
 30 31  1  0
 31 32  2  0
 32 33  1  0
 33 34  1  0
 23 35  1  0
 35 36  2  0
 15 37  2  0
  9  4  1  0
 37 11  1  0
 36 20  1  0
 34 27  1  0
 33 29  2  0
  3 38  1  0
  3 39  1  0
  5 40  1  0
 10 41  1  0
 12 42  1  0
 13 43  1  0
 14 44  1  0
 16 45  1  0
 16 46  1  0
 21 47  1  0
 22 48  1  0
 28 49  1  0
 31 50  1  0
 32 51  1  0
 34 52  1  0
 35 53  1  0
 36 54  1  0
 37 55  1  0
M  CHG  3   6  -1   9  -1  24  -1
M  END
>  <UniqueID>  (11) 
11

>  <SMILES>  (11) 
O=C(Cc1c[n-]c(=S)[n-]1)Nc1cccc(CS(=O)(=O)c2ccc([N-]C(=O)c3cc4sccc4[nH]3)cc2)c1

>  <Energy>  (11) 
162.97119742778992

>  <Genealogy>  (11) 
O=C(Cc1c[n-]c(=S)[n-]1)Nc1cccc(CS(=O)(=O)c2ccc([N-]C(=O)c3cc4sccc4[nH]3)cc2)c1 (protonated)
O=C(Cc1c[n-]c(=S)[n-]1)Nc1cccc(CS(=O)(=O)c2ccc([N-]C(=O)c3cc4sccc4[nH]3)cc2)c1 (3D coordinates assigned)
O=C(Cc1c[n-]c(=S)[n-]1)Nc1cccc(CS(=O)(=O)c2ccc([N-]C(=O)c3cc4sccc4[nH]3)cc2)c1 (optimized conformer: 162.97119742778992 kcal/mol)

>  <smiles>  (11) 
O=C(Cc1c[nH]c(=S)[nH]1)Nc1cccc(CS(=O)(=O)c2ccc(NC(=O)c3cc4sccc4[nH]3)cc2)c1

>  <score_type>  (11) 
oracle

>  <origin>  (11) 
adg

>  <m_score__min__energy>  (11) 
-16.129999999999999

>  <m_primary>  (11) 
energy

$$$$
11:0
     RDKit          3D

 51 54  0  0  0  0  0  0  0  0999 V2000
   60.0591   26.4647   46.0164 H   0  0  0  0  0  0  0  0  0  0  0  0
   58.9600   26.5090   46.0200 C   0  0  0  0  0  0  0  0  0  0  0  0
   58.3230   27.6410   45.6140 N   0  0  0  0  0  0  0  0  0  0  0  0
   56.9620   27.7440   45.6100 C   0  0  0  0  0  0  0  0  0  0  0  0
   56.3740   28.8320   45.2040 N   0  0  0  0  0  0  0  0  0  0  0  0
   56.8940   29.7660   44.2450 C   0  0  0  0  0  0  0  0  0  0  0  0
   56.7250   29.5270   43.0190 O   0  0  0  0  0  0  0  0  0  0  0  0
   57.5660   31.0250   44.6510 C   0  0  0  0  0  0  0  0  0  0  0  0
   58.4590   31.0460   45.7350 C   0  0  0  0  0  0  0  0  0  0  0  0
   58.6725   30.1174   46.2847 H   0  0  0  0  0  0  0  0  0  0  0  0
   59.0780   32.2380   46.1200 C   0  0  0  0  0  0  0  0  0  0  0  0
   59.7877   32.2386   46.9605 H   0  0  0  0  0  0  0  0  0  0  0  0
   58.8000   33.4350   45.4410 C   0  0  0  0  0  0  0  0  0  0  0  0
   59.4700   34.7280   45.8570 C   0  0  0  0  0  0  0  0  0  0  0  0
   60.0454   35.1103   45.0010 H   0  0  0  0  0  0  0  0  0  0  0  0
   58.6697   35.4146   46.1702 H   0  0  0  0  0  0  0  0  0  0  0  0
   60.3880   34.5870   47.0090 N   0  0  0  0  0  0  0  0  0  0  0  0
   61.5440   33.7140   46.7390 C   0  0  0  0  0  0  0  0  0  0  0  0
   61.2028   32.6707   46.6676 H   0  0  0  0  0  0  0  0  0  0  0  0
   62.0127   34.0211   45.7924 H   0  0  0  0  0  0  0  0  0  0  0  0
   62.5790   33.8350   47.8760 C   0  0  0  0  0  0  0  0  0  0  0  0
   62.8731   32.8255   48.1991 H   0  0  0  0  0  0  0  0  0  0  0  0
   63.4450   34.3946   47.4928 H   0  0  0  0  0  0  0  0  0  0  0  0
   62.0330   34.5700   49.0380 N   0  0  0  0  0  0  0  0  0  0  0  0
   62.9770   34.5080   50.1710 C   0  0  0  0  0  0  0  0  0  0  0  0
   63.7282   35.3040   50.0607 H   0  0  0  0  0  0  0  0  0  0  0  0
   62.4180   34.6428   51.1087 H   0  0  0  0  0  0  0  0  0  0  0  0
   63.6680   33.1780   50.2040 C   0  0  0  0  0  0  0  0  0  0  0  0
   64.9690   32.9200   49.8230 C   0  0  0  0  0  0  0  0  0  0  0  0
   65.6743   33.6605   49.4179 H   0  0  0  0  0  0  0  0  0  0  0  0
   65.2300   31.6470   50.0220 O   0  0  0  0  0  0  0  0  0  0  0  0
   64.1620   31.0630   50.5180 C   0  0  0  0  0  0  0  0  0  0  0  0
   64.0896   29.9981   50.7841 H   0  0  0  0  0  0  0  0  0  0  0  0
   63.1450   31.9860   50.6550 C   0  0  0  0  0  0  0  0  0  0  0  0
   62.1311   31.8075   51.0424 H   0  0  0  0  0  0  0  0  0  0  0  0
   60.7110   34.0220   49.4130 C   0  0  0  0  0  0  0  0  0  0  0  0
   60.8168   32.9529   49.6493 H   0  0  0  0  0  0  0  0  0  0  0  0
   60.3358   34.5705   50.2896 H   0  0  0  0  0  0  0  0  0  0  0  0
   59.7050   34.1880   48.2550 C   0  0  0  0  0  0  0  0  0  0  0  0
   59.1867   33.2319   48.0899 H   0  0  0  0  0  0  0  0  0  0  0  0
   58.9872   34.9759   48.5269 H   0  0  0  0  0  0  0  0  0  0  0  0
   57.9040   33.4160   44.3610 C   0  0  0  0  0  0  0  0  0  0  0  0
   57.6878   34.3457   43.8143 H   0  0  0  0  0  0  0  0  0  0  0  0
   57.2840   32.2230   43.9750 C   0  0  0  0  0  0  0  0  0  0  0  0
   56.5714   32.2233   43.1370 H   0  0  0  0  0  0  0  0  0  0  0  0
   56.1890   26.6470   46.0190 C   0  0  0  0  0  0  0  0  0  0  0  0
   54.7990   26.7160   46.0130 O   0  0  0  0  0  0  0  0  0  0  0  0
   56.8240   25.4750   46.4370 C   0  0  0  0  0  0  0  0  0  0  0  0
   56.2269   24.6103   46.7622 H   0  0  0  0  0  0  0  0  0  0  0  0
   58.2180   25.4040   46.4410 C   0  0  0  0  0  0  0  0  0  0  0  0
   58.7267   24.4867   46.7725 H   0  0  0  0  0  0  0  0  0  0  0  0
  1  2  1  0
  2  3  1  0
  3  4  1  0
  4  5  2  0
  5  6  1  0
  6  7  2  0
  6  8  1  0
  8  9  2  0
  9 10  1  0
  9 11  1  0
 11 12  1  0
 11 13  2  0
 13 14  1  0
 14 15  1  0
 14 16  1  0
 14 17  1  0
 17 18  1  0
 18 19  1  0
 18 20  1  0
 18 21  1  0
 21 22  1  0
 21 23  1  0
 21 24  1  0
 24 25  1  0
 25 26  1  0
 25 27  1  0
 25 28  1  0
 28 29  2  0
 29 30  1  0
 29 31  1  0
 31 32  1  0
 32 33  1  0
 32 34  2  0
 34 35  1  0
 24 36  1  0
 36 37  1  0
 36 38  1  0
 36 39  1  0
 39 40  1  0
 39 41  1  0
 13 42  1  0
 42 43  1  0
 42 44  2  0
 44 45  1  0
  4 46  1  0
 46 47  1  0
 46 48  2  0
 48 49  1  0
 48 50  1  0
 50 51  1  0
 50  2  2  0
 44  8  1  0
 39 17  1  0
 34 28  1  0
M  CHG  2   3  -1  47  -1
M  END
>  <UniqueID>  (12) 
12

>  <SMILES>  (12) 
O=C(/N=c1\[n-]cccc1[O-])c1ccc(CN2CCN(Cc3ccoc3)CC2)cc1

>  <Energy>  (12) 
99.97870658638564

>  <Genealogy>  (12) 
O=C(N=c1[n-]cccc1[O-])c1ccc(CN2CCN(Cc3ccoc3)CC2)cc1 (protonated)
O=C(/N=c1\[n-]cccc1[O-])c1ccc(CN2CCN(Cc3ccoc3)CC2)cc1 (cis-trans isomerization)
O=C(/N=c1\[n-]cccc1[O-])c1ccc(CN2CCN(Cc3ccoc3)CC2)cc1 (3D coordinates assigned)
O=C(/N=c1\[n-]cccc1[O-])c1ccc(CN2CCN(Cc3ccoc3)CC2)cc1 (nonaromatic ring conformer: 99.97870658638564 kcal/mol)

>  <smiles>  (12) 
O=C(N=c1[nH]cccc1O)c1ccc(CN2CCN(Cc3ccoc3)CC2)cc1

>  <score_type>  (12) 
oracle

>  <origin>  (12) 
adg

>  <m_score__min__energy>  (12) 
-14.050000000000001

>  <m_primary>  (12) 
energy

$$$$
12:0
     RDKit          3D

 48 52  0  0  0  0  0  0  0  0999 V2000
   56.2870   23.4210   43.0590 Cl  0  0  0  0  0  0  0  0  0  0  0  0
   57.0610   24.6170   44.0810 C   0  0  0  0  0  0  0  0  0  0  0  0
   57.7190   25.7090   43.5060 C   0  0  0  0  0  0  0  0  0  0  0  0
   58.3360   26.6630   44.3210 C   0  0  0  0  0  0  0  0  0  0  0  0
   58.3030   26.5360   45.7210 C   0  0  0  0  0  0  0  0  0  0  0  0
   58.9600   27.5510   46.5760 C   0  0  0  0  0  0  0  0  0  0  0  0
   58.5530   27.8530   47.8300 N   0  0  0  0  0  0  0  0  0  0  0  0
   59.2900   28.7950   48.4170 N   0  0  0  0  0  0  0  0  0  0  0  0
   60.3010   29.2700   47.6500 C   0  0  0  0  0  0  0  0  0  0  0  0
   61.2670   30.3160   48.0680 C   0  0  0  0  0  0  0  0  0  0  0  0
   61.6540   30.4260   49.4160 C   0  0  0  0  0  0  0  0  0  0  0  0
   62.5620   31.4090   49.8190 C   0  0  0  0  0  0  0  0  0  0  0  0
   63.1050   32.2990   48.8800 C   0  0  0  0  0  0  0  0  0  0  0  0
   64.0550   33.3810   49.3170 C   0  0  0  0  0  0  0  0  0  0  0  0
   63.2190   34.5810   50.4140 S   0  0  0  0  0  0  0  0  0  0  0  0
   61.5780   34.2230   49.7960 C   0  0  0  0  0  0  0  0  0  0  0  0
   60.5760   33.7660   50.5760 N   0  0  0  0  0  0  0  0  0  0  0  0
   59.5430   33.6530   49.7200 C   0  0  0  0  0  0  0  0  0  0  0  0
   59.9590   34.0420   48.4600 C   0  0  0  0  0  0  0  0  0  0  0  0
   59.1650   34.0870   47.2120 C   0  0  0  0  0  0  0  0  0  0  0  0
   59.6560   34.8000   46.1030 C   0  0  0  0  0  0  0  0  0  0  0  0
   58.9200   34.8540   44.9140 C   0  0  0  0  0  0  0  0  0  0  0  0
   57.6900   34.2000   44.8210 C   0  0  0  0  0  0  0  0  0  0  0  0
   57.1930   33.4900   45.9160 C   0  0  0  0  0  0  0  0  0  0  0  0
   57.9230   33.4310   47.1070 C   0  0  0  0  0  0  0  0  0  0  0  0
   61.2210   34.3850   48.5440 O   0  0  0  0  0  0  0  0  0  0  0  0
   62.7270   32.1920   47.5350 C   0  0  0  0  0  0  0  0  0  0  0  0
   61.8200   31.2090   47.1310 C   0  0  0  0  0  0  0  0  0  0  0  0
   60.3010   28.4850   46.1550 S   0  0  0  0  0  0  0  0  0  0  0  0
   57.6380   25.4330   46.2890 C   0  0  0  0  0  0  0  0  0  0  0  0
   57.0220   24.4800   45.4710 C   0  0  0  0  0  0  0  0  0  0  0  0
   57.7511   25.8174   42.4118 H   0  0  0  0  0  0  0  0  0  0  0  0
   58.8515   27.5201   43.8631 H   0  0  0  0  0  0  0  0  0  0  0  0
   59.0930   29.1040   49.3930 H   0  0  0  0  0  0  0  0  0  0  0  0
   61.2377   29.7313   50.1604 H   0  0  0  0  0  0  0  0  0  0  0  0
   62.8523   31.4853   50.8772 H   0  0  0  0  0  0  0  0  0  0  0  0
   64.8966   32.9241   49.8583 H   0  0  0  0  0  0  0  0  0  0  0  0
   64.4153   33.9133   48.4243 H   0  0  0  0  0  0  0  0  0  0  0  0
   58.5318   33.3072   49.9807 H   0  0  0  0  0  0  0  0  0  0  0  0
   60.6240   35.3180   46.1709 H   0  0  0  0  0  0  0  0  0  0  0  0
   59.3113   35.4128   44.0511 H   0  0  0  0  0  0  0  0  0  0  0  0
   57.1127   34.2440   43.8857 H   0  0  0  0  0  0  0  0  0  0  0  0
   56.2237   32.9753   45.8413 H   0  0  0  0  0  0  0  0  0  0  0  0
   57.5257   32.8699   47.9657 H   0  0  0  0  0  0  0  0  0  0  0  0
   63.1470   32.8864   46.7924 H   0  0  0  0  0  0  0  0  0  0  0  0
   61.5355   31.1323   46.0712 H   0  0  0  0  0  0  0  0  0  0  0  0
   57.6025   25.3198   47.3826 H   0  0  0  0  0  0  0  0  0  0  0  0
   56.5055   23.6205   45.9232 H   0  0  0  0  0  0  0  0  0  0  0  0
  1  2  1  0
  2  3  2  0
  3  4  1  0
  4  5  2  0
  5  6  1  0
  6  7  2  0
  7  8  1  0
  8  9  2  0
  9 10  1  0
 10 11  2  0
 11 12  1  0
 12 13  2  0
 13 14  1  0
 14 15  1  0
 15 16  1  0
 16 17  2  0
 17 18  1  0
 18 19  2  0
 19 20  1  0
 20 21  2  0
 21 22  1  0
 22 23  2  0
 23 24  1  0
 24 25  2  0
 19 26  1  0
 13 27  1  0
 27 28  2  0
  9 29  1  0
  5 30  1  0
 30 31  2  0
 31  2  1  0
 29  6  1  0
 28 10  1  0
 26 16  1  0
 25 20  1  0
  3 32  1  0
  4 33  1  0
  8 34  1  0
 11 35  1  0
 12 36  1  0
 14 37  1  0
 14 38  1  0
 18 39  1  0
 21 40  1  0
 22 41  1  0
 23 42  1  0
 24 43  1  0
 25 44  1  0
 27 45  1  0
 28 46  1  0
 30 47  1  0
 31 48  1  0
M  CHG  1   8   1
M  END
>  <UniqueID>  (13) 
13

>  <SMILES>  (13) 
Clc1ccc(-c2n[nH+]c(-c3ccc(CSc4ncc(-c5ccccc5)o4)cc3)s2)cc1

>  <Energy>  (13) 
117.26233381342936

>  <Genealogy>  (13) 
Clc1ccc(-c2n[nH+]c(-c3ccc(CSc4ncc(-c5ccccc5)o4)cc3)s2)cc1 (protonated)
Clc1ccc(-c2n[nH+]c(-c3ccc(CSc4ncc(-c5ccccc5)o4)cc3)s2)cc1 (3D coordinates assigned)
Clc1ccc(-c2n[nH+]c(-c3ccc(CSc4ncc(-c5ccccc5)o4)cc3)s2)cc1 (optimized conformer: 117.26233381342936 kcal/mol)

>  <smiles>  (13) 
Clc1ccc(-c2nnc(-c3ccc(CSc4ncc(-c5ccccc5)o4)cc3)s2)cc1

>  <score_type>  (13) 
oracle

>  <origin>  (13) 
adg

>  <m_score__min__energy>  (13) 
-8.3000000000000007

>  <m_primary>  (13) 
energy

$$$$
13:0
     RDKit          3D

 56 58  0  0  0  0  0  0  0  0999 V2000
   55.5630   29.7450   45.8820 H   0  0  0  0  0  0  0  0  0  0  0  0
   55.6160   28.9740   45.2280 O   0  0  0  0  0  0  0  0  0  0  0  0
   56.1160   27.7320   45.6100 C   0  0  0  0  0  0  0  0  0  0  0  0
   55.3370   26.7130   46.0080 N   0  0  0  0  0  0  0  0  0  0  0  0
   56.2350   25.7480   46.3000 C   0  0  0  0  0  0  0  0  0  0  0  0
   55.8970   24.6120   46.7210 O   0  0  0  0  0  0  0  0  0  0  0  0
   57.5260   26.1000   46.1150 N   0  0  0  0  0  0  0  0  0  0  0  0
   57.4420   27.3610   45.6490 C   0  0  0  0  0  0  0  0  0  0  0  0
   58.5990   28.2400   45.4140 C   0  0  0  0  0  0  0  0  0  0  0  0
   59.4064   27.8491   44.7774 H   0  0  0  0  0  0  0  0  0  0  0  0
   58.7540   29.4830   45.9120 C   0  0  0  0  0  0  0  0  0  0  0  0
   58.4550   30.6230   45.1830 C   0  0  0  0  0  0  0  0  0  0  0  0
   58.1247   30.6627   44.1345 H   0  0  0  0  0  0  0  0  0  0  0  0
   58.6510   31.6980   46.0240 C   0  0  0  0  0  0  0  0  0  0  0  0
   58.3850   33.1270   45.6570 C   0  0  0  0  0  0  0  0  0  0  0  0
   58.2735   33.7261   46.5728 H   0  0  0  0  0  0  0  0  0  0  0  0
   59.2261   33.5161   45.0645 H   0  0  0  0  0  0  0  0  0  0  0  0
   57.4602   33.1873   45.0645 H   0  0  0  0  0  0  0  0  0  0  0  0
   59.0700   31.2770   47.2360 N   0  0  0  0  0  0  0  0  0  0  0  0
   59.4120   32.1290   48.3420 C   0  0  0  0  0  0  0  0  0  0  0  0
   58.6240   32.1160   49.5010 C   0  0  0  0  0  0  0  0  0  0  0  0
   57.7393   31.4645   49.5546 H   0  0  0  0  0  0  0  0  0  0  0  0
   58.9570   32.9260   50.5870 C   0  0  0  0  0  0  0  0  0  0  0  0
   58.3347   32.9121   51.4939 H   0  0  0  0  0  0  0  0  0  0  0  0
   60.0790   33.7540   50.5240 C   0  0  0  0  0  0  0  0  0  0  0  0
   60.3392   34.3925   51.3811 H   0  0  0  0  0  0  0  0  0  0  0  0
   60.8720   33.7730   49.3740 C   0  0  0  0  0  0  0  0  0  0  0  0
   61.7544   34.4283   49.3292 H   0  0  0  0  0  0  0  0  0  0  0  0
   60.5480   32.9570   48.2700 C   0  0  0  0  0  0  0  0  0  0  0  0
   61.3100   32.9470   47.0880 O   0  0  0  0  0  0  0  0  0  0  0  0
   62.1800   33.9910   46.6520 C   0  0  0  0  0  0  0  0  0  0  0  0
   62.0439   34.1469   45.5716 H   0  0  0  0  0  0  0  0  0  0  0  0
   61.9340   34.9100   47.2042 H   0  0  0  0  0  0  0  0  0  0  0  0
   63.6410   33.6280   46.9270 C   0  0  0  0  0  0  0  0  0  0  0  0
   64.2487   33.8764   46.0444 H   0  0  0  0  0  0  0  0  0  0  0  0
   63.9927   34.1978   47.7997 H   0  0  0  0  0  0  0  0  0  0  0  0
   63.7610   32.2450   47.2020 O   0  0  0  0  0  0  0  0  0  0  0  0
   63.7510   31.9900   48.5940 C   0  0  0  0  0  0  0  0  0  0  0  0
   62.7174   32.0669   48.9624 H   0  0  0  0  0  0  0  0  0  0  0  0
   64.1562   30.9807   48.7591 H   0  0  0  0  0  0  0  0  0  0  0  0
   64.6340   32.9940   49.3690 C   0  0  0  0  0  0  0  0  0  0  0  0
   64.9346   33.7902   48.6721 H   0  0  0  0  0  0  0  0  0  0  0  0
   64.0211   33.3511   50.2097 H   0  0  0  0  0  0  0  0  0  0  0  0
   65.8640   32.4250   49.9720 N   0  0  0  0  0  0  0  0  0  0  0  0
   66.7730   33.4420   50.5240 C   0  0  0  0  0  0  0  0  0  0  0  0
   66.7402   33.4054   51.6229 H   0  0  0  0  0  0  0  0  0  0  0  0
   67.7988   33.2419   50.1809 H   0  0  0  0  0  0  0  0  0  0  0  0
   66.4595   34.4390   50.1809 H   0  0  0  0  0  0  0  0  0  0  0  0
   65.5980   31.3550   50.9460 C   0  0  0  0  0  0  0  0  0  0  0  0
   65.6974   31.7547   51.9660 H   0  0  0  0  0  0  0  0  0  0  0  0
   64.5773   30.9718   50.8001 H   0  0  0  0  0  0  0  0  0  0  0  0
   66.3205   30.5385   50.8001 H   0  0  0  0  0  0  0  0  0  0  0  0
   59.1780   29.9240   47.1750 C   0  0  0  0  0  0  0  0  0  0  0  0
   59.7240   29.1870   48.1550 C   0  0  0  0  0  0  0  0  0  0  0  0
   60.0137   29.6618   49.1040 H   0  0  0  0  0  0  0  0  0  0  0  0
   59.8817   28.1082   48.0091 H   0  0  0  0  0  0  0  0  0  0  0  0
  1  2  1  0
  2  3  1  0
  3  4  1  0
  4  5  1  0
  5  6  2  0
  5  7  1  0
  7  8  1  0
  8  9  1  0
  9 10  1  0
  9 11  2  0
 11 12  1  0
 12 13  1  0
 12 14  2  0
 14 15  1  0
 15 16  1  0
 15 17  1  0
 15 18  1  0
 14 19  1  0
 19 20  1  0
 20 21  2  0
 21 22  1  0
 21 23  1  0
 23 24  1  0
 23 25  2  0
 25 26  1  0
 25 27  1  0
 27 28  1  0
 27 29  2  0
 29 30  1  0
 30 31  1  0
 31 32  1  0
 31 33  1  0
 31 34  1  0
 34 35  1  0
 34 36  1  0
 34 37  1  0
 37 38  1  0
 38 39  1  0
 38 40  1  0
 38 41  1  0
 41 42  1  0
 41 43  1  0
 41 44  1  0
 44 45  1  0
 45 46  1  0
 45 47  1  0
 45 48  1  0
 44 49  1  0
 49 50  1  0
 49 51  1  0
 49 52  1  0
 19 53  1  0
 53 54  2  0
 54 55  1  0
 54 56  1  0
  8  3  2  0
 53 11  1  0
 29 20  1  0
M  CHG  2   4  -1   7  -1
M  END
>  <UniqueID>  (14) 
14

>  <SMILES>  (14) 
C=c1/c(=C\c2[n-]c(=O)[n-]c2O)cc(C)n1-c1ccccc1OCCOCCN(C)C

>  <Energy>  (14) 
135.67246496996236

>  <Genealogy>  (14) 
C=c1c(=Cc2[n-]c(=O)[n-]c2O)cc(C)n1-c1ccccc1OCCOCCN(C)C (protonated)
C=c1/c(=C\c2[n-]c(=O)[n-]c2O)cc(C)n1-c1ccccc1OCCOCCN(C)C (cis-trans isomerization)
C=c1/c(=C\c2[n-]c(=O)[n-]c2O)cc(C)n1-c1ccccc1OCCOCCN(C)C (3D coordinates assigned)
C=c1/c(=C\c2[n-]c(=O)[n-]c2O)cc(C)n1-c1ccccc1OCCOCCN(C)C (optimized conformer: 135.67246496996236 kcal/mol)

>  <smiles>  (14) 
C=c1c(=Cc2[nH]c(=O)[nH]c2O)cc(C)n1-c1ccccc1OCCOCCN(C)C

>  <score_type>  (14) 
oracle

>  <origin>  (14) 
adg

>  <m_score__min__energy>  (14) 
-12.449999999999999

>  <m_primary>  (14) 
energy

$$$$
14:0
     RDKit          3D

 46 50  0  0  0  0  0  0  0  0999 V2000
   53.7740   32.5036   52.4511 H   0  0  0  0  0  0  0  0  0  0  0  0
   53.5530   31.5160   52.0200 C   0  0  0  0  0  0  0  0  0  0  0  0
   52.5130   31.4330   50.9810 C   0  0  0  0  0  0  0  0  0  0  0  0
   52.4760   30.4590   50.0530 N   0  0  0  0  0  0  0  0  0  0  0  0
   51.3400   30.7190   49.3700 C   0  0  0  0  0  0  0  0  0  0  0  0
   50.9600   30.0190   48.3970 O   0  0  0  0  0  0  0  0  0  0  0  0
   50.6390   31.7810   49.8210 N   0  0  0  0  0  0  0  0  0  0  0  0
   51.3870   32.2160   50.8470 C   0  0  0  0  0  0  0  0  0  0  0  0
   51.0180   33.2700   51.6730 O   0  0  0  0  0  0  0  0  0  0  0  0
   54.2470   30.4630   52.4730 C   0  0  0  0  0  0  0  0  0  0  0  0
   53.8410   29.4260   53.3190 C   0  0  0  0  0  0  0  0  0  0  0  0
   52.8260   29.3017   53.7245 H   0  0  0  0  0  0  0  0  0  0  0  0
   54.8860   28.5960   53.5650 N   0  0  0  0  0  0  0  0  0  0  0  0
   55.9230   29.0830   52.9040 N   0  0  0  0  0  0  0  0  0  0  0  0
   57.1860   28.5950   52.8570 C   0  0  0  0  0  0  0  0  0  0  0  0
   57.4870   27.5030   53.5090 N   0  0  0  0  0  0  0  0  0  0  0  0
   57.5330   27.1790   54.9460 C   0  0  0  0  0  0  0  0  0  0  0  0
   57.2511   26.1281   54.7841 H   0  0  0  0  0  0  0  0  0  0  0  0
   58.5820   27.8920   55.7850 C   0  0  0  0  0  0  0  0  0  0  0  0
   59.0906   27.3577   56.6010 H   0  0  0  0  0  0  0  0  0  0  0  0
   59.5091   28.4434   55.5692 H   0  0  0  0  0  0  0  0  0  0  0  0
   57.1040   28.2670   55.9190 C   0  0  0  0  0  0  0  0  0  0  0  0
   56.5493   28.0024   56.8313 H   0  0  0  0  0  0  0  0  0  0  0  0
   56.5265   29.1999   55.8396 H   0  0  0  0  0  0  0  0  0  0  0  0
   58.1030   29.2840   52.1180 N   0  0  0  0  0  0  0  0  0  0  0  0
   57.7580   30.4290   51.4530 C   0  0  0  0  0  0  0  0  0  0  0  0
   58.6590   31.0450   50.7460 N   0  0  0  0  0  0  0  0  0  0  0  0
   58.5940   31.3460   49.3410 C   0  0  0  0  0  0  0  0  0  0  0  0
   58.3010   32.6580   48.9490 C   0  0  0  0  0  0  0  0  0  0  0  0
   58.1398   33.4333   49.7125 H   0  0  0  0  0  0  0  0  0  0  0  0
   58.2120   32.9890   47.5940 C   0  0  0  0  0  0  0  0  0  0  0  0
   57.9928   34.0246   47.2947 H   0  0  0  0  0  0  0  0  0  0  0  0
   58.4010   32.0070   46.6200 C   0  0  0  0  0  0  0  0  0  0  0  0
   58.3421   32.2762   45.5551 H   0  0  0  0  0  0  0  0  0  0  0  0
   58.6650   30.6820   46.9880 C   0  0  0  0  0  0  0  0  0  0  0  0
   58.8400   29.7300   45.9720 O   0  0  0  0  0  0  0  0  0  0  0  0
   57.8900   28.7200   45.6440 C   0  0  0  0  0  0  0  0  0  0  0  0
   57.6731   28.1149   46.5367 H   0  0  0  0  0  0  0  0  0  0  0  0
   58.2980   28.0705   44.8555 H   0  0  0  0  0  0  0  0  0  0  0  0
   56.6350   29.3660   45.1620 C   0  0  0  0  0  0  0  0  0  0  0  0
   55.5580   28.7150   45.1370 O   0  0  0  0  0  0  0  0  0  0  0  0
   56.6400   30.7040   44.7890 O   0  0  0  0  0  0  0  0  0  0  0  0
   58.7430   30.3510   48.3550 C   0  0  0  0  0  0  0  0  0  0  0  0
   58.9216   29.3078   48.6548 H   0  0  0  0  0  0  0  0  0  0  0  0
   56.4720   30.8860   51.5120 N   0  0  0  0  0  0  0  0  0  0  0  0
   55.5780   30.1930   52.2520 C   0  0  0  0  0  0  0  0  0  0  0  0
  1  2  1  0
  2  3  1  0
  3  4  1  0
  4  5  1  0
  5  6  2  0
  5  7  1  0
  7  8  1  0
  8  9  1  0
  2 10  2  3
 10 11  1  0
 11 12  1  0
 11 13  2  0
 13 14  1  0
 14 15  1  0
 15 16  2  3
 16 17  1  0
 17 18  1  0
 17 19  1  0
 19 20  1  0
 19 21  1  0
 19 22  1  0
 22 23  1  0
 22 24  1  0
 15 25  1  0
 25 26  1  0
 26 27  2  0
 27 28  1  0
 28 29  2  0
 29 30  1  0
 29 31  1  0
 31 32  1  0
 31 33  2  0
 33 34  1  0
 33 35  1  0
 35 36  1  0
 36 37  1  0
 37 38  1  0
 37 39  1  0
 37 40  1  0
 40 41  2  0
 40 42  1  0
 35 43  2  0
 43 44  1  0
 26 45  1  0
 45 46  2  0
  8  3  2  0
 46 10  1  0
 46 14  1  0
 22 17  1  0
 43 28  1  0
M  CHG  5   4  -1   7  -1   9  -1  25  -1  42  -1
M  END
>  <UniqueID>  (15) 
15

>  <SMILES>  (15) 
O=C([O-])COc1cccc(/N=c2\nc3c(=Cc4[n-]c(=O)[n-]c4[O-])cnn3c(=NC3CC3)[n-]2)c1

>  <Energy>  (15) 
403.6215145718669

>  <Genealogy>  (15) 
O=C([O-])COc1cccc(N=c2nc3c(=Cc4[n-]c(=O)[n-]c4[O-])cnn3c(=NC3CC3)[n-]2)c1 (protonated)
O=C([O-])COc1cccc(/N=c2\nc3c(=Cc4[n-]c(=O)[n-]c4[O-])cnn3c(=NC3CC3)[n-]2)c1 (cis-trans isomerization)
O=C([O-])COc1cccc(/N=c2\nc3c(=Cc4[n-]c(=O)[n-]c4[O-])cnn3c(=NC3CC3)[n-]2)c1 (3D coordinates assigned)
O=C([O-])COc1cccc(/N=c2\nc3c(=Cc4[n-]c(=O)[n-]c4[O-])cnn3c(=NC3CC3)[n-]2)c1 (nonaromatic ring conformer: 403.6215145718669 kcal/mol)

>  <smiles>  (15) 
O=C(O)COc1cccc(N=c2nc3c(=Cc4[nH]c(=O)[nH]c4O)cnn3c(=NC3CC3)[nH]2)c1

>  <score_type>  (15) 
oracle

>  <origin>  (15) 
adg

>  <m_score__min__energy>  (15) 
-20.129999999999999

>  <m_primary>  (15) 
energy

$$$$
15:0
     RDKit          3D

 61 63  0  0  0  0  0  0  0  0999 V2000
   58.4599   31.8071   49.5986 H   0  0  0  0  0  0  0  0  0  0  0  0
   58.7200   32.5600   48.8400 C   0  0  0  0  0  0  0  0  0  0  0  0
   58.1210   32.5120   47.5780 C   0  0  0  0  0  0  0  0  0  0  0  0
   57.3855   31.7262   47.3510 H   0  0  0  0  0  0  0  0  0  0  0  0
   58.4530   33.4610   46.5990 C   0  0  0  0  0  0  0  0  0  0  0  0
   57.8140   33.4150   45.2590 C   0  0  0  0  0  0  0  0  0  0  0  0
   58.0020   32.3600   44.4250 C   0  0  0  0  0  0  0  0  0  0  0  0
   58.0850   32.5490   42.9920 C   0  0  0  0  0  0  0  0  0  0  0  0
   58.1520   32.7010   41.8460 N   0  0  0  0  0  0  0  0  0  0  0  0
   58.0630   30.9670   44.9160 C   0  0  0  0  0  0  0  0  0  0  0  0
   59.2470   30.4550   45.4620 C   0  0  0  0  0  0  0  0  0  0  0  0
   60.1365   31.0978   45.5371 H   0  0  0  0  0  0  0  0  0  0  0  0
   59.3060   29.1330   45.9120 C   0  0  0  0  0  0  0  0  0  0  0  0
   60.2412   28.7488   46.3454 H   0  0  0  0  0  0  0  0  0  0  0  0
   58.1820   28.2840   45.8180 C   0  0  0  0  0  0  0  0  0  0  0  0
   58.2410   26.9070   46.2850 N   0  0  0  0  0  0  0  0  0  0  0  0
   59.4800   26.3620   46.8560 C   0  0  0  0  0  0  0  0  0  0  0  0
   59.4203   26.3883   47.9541 H   0  0  0  0  0  0  0  0  0  0  0  0
   59.6121   25.3227   46.5207 H   0  0  0  0  0  0  0  0  0  0  0  0
   60.3354   26.9669   46.5207 H   0  0  0  0  0  0  0  0  0  0  0  0
   57.0610   26.0370   46.2050 C   0  0  0  0  0  0  0  0  0  0  0  0
   56.7208   25.7862   47.2206 H   0  0  0  0  0  0  0  0  0  0  0  0
   56.2561   26.5594   45.6672 H   0  0  0  0  0  0  0  0  0  0  0  0
   57.3220   25.1136   45.6672 H   0  0  0  0  0  0  0  0  0  0  0  0
   57.0000   28.8080   45.2520 C   0  0  0  0  0  0  0  0  0  0  0  0
   56.1110   28.1665   45.1615 H   0  0  0  0  0  0  0  0  0  0  0  0
   56.9440   30.1310   44.8050 C   0  0  0  0  0  0  0  0  0  0  0  0
   56.0145   30.5189   44.3627 H   0  0  0  0  0  0  0  0  0  0  0  0
   56.9490   34.5860   44.8590 C   0  0  0  0  0  0  0  0  0  0  0  0
   56.5757   35.0914   45.7619 H   0  0  0  0  0  0  0  0  0  0  0  0
   57.5430   35.2935   44.2618 H   0  0  0  0  0  0  0  0  0  0  0  0
   56.0981   34.2262   44.2618 H   0  0  0  0  0  0  0  0  0  0  0  0
   59.3820   34.4660   46.9040 C   0  0  0  0  0  0  0  0  0  0  0  0
   59.6415   35.2200   46.1463 H   0  0  0  0  0  0  0  0  0  0  0  0
   59.9790   34.5140   48.1650 C   0  0  0  0  0  0  0  0  0  0  0  0
   60.7112   35.3033   48.3906 H   0  0  0  0  0  0  0  0  0  0  0  0
   59.6560   33.5690   49.1450 C   0  0  0  0  0  0  0  0  0  0  0  0
   60.2900   33.6670   50.3950 O   0  0  0  0  0  0  0  0  0  0  0  0
   61.5960   34.1980   50.6230 C   0  0  0  0  0  0  0  0  0  0  0  0
   61.5374   35.2953   50.6739 H   0  0  0  0  0  0  0  0  0  0  0  0
   61.9844   33.7959   51.5704 H   0  0  0  0  0  0  0  0  0  0  0  0
   62.5470   33.7930   49.4810 C   0  0  0  0  0  0  0  0  0  0  0  0
   62.0130   33.9038   48.5257 H   0  0  0  0  0  0  0  0  0  0  0  0
   63.4276   34.4494   49.5412 H   0  0  0  0  0  0  0  0  0  0  0  0
   63.0330   32.3910   49.5910 N   0  0  0  0  0  0  0  0  0  0  0  0
   63.5620   32.3270   50.4940 H   0  0  0  0  0  0  0  0  0  0  0  0
   63.9820   32.0100   48.5160 C   0  0  0  0  0  0  0  0  0  0  0  0
   64.8122   32.7316   48.5075 H   0  0  0  0  0  0  0  0  0  0  0  0
   64.3324   30.9892   48.7286 H   0  0  0  0  0  0  0  0  0  0  0  0
   63.3260   31.9960   47.1200 C   0  0  0  0  0  0  0  0  0  0  0  0
   63.3234   33.0215   46.7222 H   0  0  0  0  0  0  0  0  0  0  0  0
   63.9111   31.3146   46.4849 H   0  0  0  0  0  0  0  0  0  0  0  0
   61.8790   31.4760   47.1490 C   0  0  0  0  0  0  0  0  0  0  0  0
   61.1913   32.3345   47.1385 H   0  0  0  0  0  0  0  0  0  0  0  0
   61.7261   30.8378   46.2662 H   0  0  0  0  0  0  0  0  0  0  0  0
   61.6050   30.6370   48.3970 C   0  0  0  0  0  0  0  0  0  0  0  0
   60.5490   30.3290   48.3948 H   0  0  0  0  0  0  0  0  0  0  0  0
   62.2708   29.7616   48.3749 H   0  0  0  0  0  0  0  0  0  0  0  0
   61.8930   31.4290   49.6920 C   0  0  0  0  0  0  0  0  0  0  0  0
   60.9880   31.9956   49.9564 H   0  0  0  0  0  0  0  0  0  0  0  0
   62.1757   30.6885   50.4547 H   0  0  0  0  0  0  0  0  0  0  0  0
  1  2  1  0
  2  3  2  0
  3  4  1  0
  3  5  1  0
  5  6  1  0
  6  7  2  0
  7  8  1  0
  8  9  3  0
  7 10  1  0
 10 11  2  0
 11 12  1  0
 11 13  1  0
 13 14  1  0
 13 15  2  0
 15 16  1  0
 16 17  1  0
 17 18  1  0
 17 19  1  0
 17 20  1  0
 16 21  1  0
 21 22  1  0
 21 23  1  0
 21 24  1  0
 15 25  1  0
 25 26  1  0
 25 27  2  0
 27 28  1  0
  6 29  1  0
 29 30  1  0
 29 31  1  0
 29 32  1  0
  5 33  2  0
 33 34  1  0
 33 35  1  0
 35 36  1  0
 35 37  2  0
 37 38  1  0
 38 39  1  0
 39 40  1  0
 39 41  1  0
 39 42  1  0
 42 43  1  0
 42 44  1  0
 42 45  1  0
 45 46  1  0
 45 47  1  0
 47 48  1  0
 47 49  1  0
 47 50  1  0
 50 51  1  0
 50 52  1  0
 50 53  1  0
 53 54  1  0
 53 55  1  0
 53 56  1  0
 56 57  1  0
 56 58  1  0
 56 59  1  0
 59 60  1  0
 59 61  1  0
 37  2  1  0
 59 45  1  0
 27 10  1  0
M  CHG  1  45   1
M  END
>  <UniqueID>  (16) 
16

>  <SMILES>  (16) 
C/C(=C(/C#N)c1ccc(N(C)C)cc1)c1ccc(OCC[NH+]2CCCCC2)cc1

>  <Energy>  (16) 
85.88101478853247

>  <Genealogy>  (16) 
CC(=C(C#N)c1ccc(N(C)C)cc1)c1ccc(OCC[NH+]2CCCCC2)cc1 (protonated)
C/C(=C(/C#N)c1ccc(N(C)C)cc1)c1ccc(OCC[NH+]2CCCCC2)cc1 (cis-trans isomerization)
C/C(=C(/C#N)c1ccc(N(C)C)cc1)c1ccc(OCC[NH+]2CCCCC2)cc1 (3D coordinates assigned)
C/C(=C(/C#N)c1ccc(N(C)C)cc1)c1ccc(OCC[NH+]2CCCCC2)cc1 (nonaromatic ring conformer: 85.88101478853247 kcal/mol)

>  <smiles>  (16) 
CC(=C(C#N)c1ccc(N(C)C)cc1)c1ccc(OCCN2CCCCC2)cc1

>  <score_type>  (16) 
oracle

>  <origin>  (16) 
adg

>  <m_score__min__energy>  (16) 
-6.7999999999999998

>  <m_primary>  (16) 
energy

$$$$
16:0
     RDKit          3D

 41 43  0  0  0  0  0  0  0  0999 V2000
   58.4850   31.1850   49.7900 C   0  0  0  0  0  0  0  0  0  0  0  0
   58.3630   32.4880   49.2280 O   0  0  0  0  0  0  0  0  0  0  0  0
   59.2940   33.0770   48.3550 C   0  0  0  0  0  0  0  0  0  0  0  0
   60.5660   33.4810   48.8120 C   0  0  0  0  0  0  0  0  0  0  0  0
   61.4830   34.0660   47.9390 C   0  0  0  0  0  0  0  0  0  0  0  0
   61.1490   34.2560   46.6010 C   0  0  0  0  0  0  0  0  0  0  0  0
   59.8960   33.8630   46.1290 C   0  0  0  0  0  0  0  0  0  0  0  0
   58.9520   33.2710   46.9910 C   0  0  0  0  0  0  0  0  0  0  0  0
   57.6260   32.8650   46.4490 C   0  0  0  0  0  0  0  0  0  0  0  0
   56.6030   33.5740   46.6550 O   0  0  0  0  0  0  0  0  0  0  0  0
   57.5000   31.6550   45.6900 N   0  0  0  0  0  0  0  0  0  0  0  0
   58.5180   31.1690   44.7660 C   0  0  0  0  0  0  0  0  0  0  0  0
   57.9670   30.0230   43.9140 C   0  0  0  0  0  0  0  0  0  0  0  0
   58.0320   28.7150   44.6750 C   0  0  0  0  0  0  0  0  0  0  0  0
   56.8490   28.0620   45.0810 C   0  0  0  0  0  0  0  0  0  0  0  0
   55.6360   28.7200   44.8520 O   0  0  0  0  0  0  0  0  0  0  0  0
   56.9270   26.7980   45.7300 C   0  0  0  0  0  0  0  0  0  0  0  0
   55.7990   25.9970   46.0530 C   0  0  0  0  0  0  0  0  0  0  0  0
   54.5100   26.3390   45.6620 O   0  0  0  0  0  0  0  0  0  0  0  0
   55.9650   24.7920   46.7470 C   0  0  0  0  0  0  0  0  0  0  0  0
   57.2370   24.3380   47.0870 C   0  0  0  0  0  0  0  0  0  0  0  0
   57.3870   23.1390   47.7740 O   0  0  0  0  0  0  0  0  0  0  0  0
   58.3600   25.0770   46.7210 C   0  0  0  0  0  0  0  0  0  0  0  0
   58.2170   26.2880   46.0350 C   0  0  0  0  0  0  0  0  0  0  0  0
   59.3300   26.9550   45.6440 N   0  0  0  0  0  0  0  0  0  0  0  0
   59.2750   28.1240   44.9640 C   0  0  0  0  0  0  0  0  0  0  0  0
   60.3490   28.6740   44.6020 O   0  0  0  0  0  0  0  0  0  0  0  0
   58.4783   31.2570   50.8876 H   0  0  0  0  0  0  0  0  0  0  0  0
   57.6413   30.5621   49.4582 H   0  0  0  0  0  0  0  0  0  0  0  0
   59.4297   30.7296   49.4582 H   0  0  0  0  0  0  0  0  0  0  0  0
   60.8374   33.3331   49.8677 H   0  0  0  0  0  0  0  0  0  0  0  0
   62.4713   34.3776   48.3081 H   0  0  0  0  0  0  0  0  0  0  0  0
   61.8743   34.7169   45.9144 H   0  0  0  0  0  0  0  0  0  0  0  0
   59.6420   34.0175   45.0699 H   0  0  0  0  0  0  0  0  0  0  0  0
   58.8307   31.9921   44.1066 H   0  0  0  0  0  0  0  0  0  0  0  0
   59.3768   30.7996   45.3457 H   0  0  0  0  0  0  0  0  0  0  0  0
   56.9203   30.2376   43.6525 H   0  0  0  0  0  0  0  0  0  0  0  0
   58.5760   29.9339   43.0023 H   0  0  0  0  0  0  0  0  0  0  0  0
   54.7680   28.2480   44.6400 H   0  0  0  0  0  0  0  0  0  0  0  0
   55.0821   24.1983   47.0263 H   0  0  0  0  0  0  0  0  0  0  0  0
   59.3646   24.7063   46.9728 H   0  0  0  0  0  0  0  0  0  0  0  0
  1  2  1  0
  2  3  1  0
  3  4  2  0
  4  5  1  0
  5  6  2  0
  6  7  1  0
  7  8  2  0
  8  9  1  0
  9 10  2  0
  9 11  1  0
 11 12  1  0
 12 13  1  0
 13 14  1  0
 14 15  2  0
 15 16  1  0
 15 17  1  0
 17 18  2  0
 18 19  1  0
 18 20  1  0
 20 21  2  0
 21 22  1  0
 21 23  1  0
 23 24  2  0
 24 25  1  0
 25 26  1  0
 26 27  2  0
  8  3  1  0
 26 14  1  0
 24 17  1  0
  1 28  1  0
  1 29  1  0
  1 30  1  0
  4 31  1  0
  5 32  1  0
  6 33  1  0
  7 34  1  0
 12 35  1  0
 12 36  1  0
 13 37  1  0
 13 38  1  0
 16 39  1  0
 20 40  1  0
 23 41  1  0
M  CHG  4  11  -1  19  -1  22  -1  25  -1
M  END
>  <UniqueID>  (17) 
17

>  <SMILES>  (17) 
COc1ccccc1C(=O)[N-]CCc1c(O)c2c([O-])cc([O-])cc2[n-]c1=O

>  <Energy>  (17) 
55.07676566136741

>  <Genealogy>  (17) 
COc1ccccc1C(=O)[N-]CCc1c(O)c2c([O-])cc([O-])cc2[n-]c1=O (protonated)
COc1ccccc1C(=O)[N-]CCc1c(O)c2c([O-])cc([O-])cc2[n-]c1=O (3D coordinates assigned)
COc1ccccc1C(=O)[N-]CCc1c(O)c2c([O-])cc([O-])cc2[n-]c1=O (optimized conformer: 55.07676566136741 kcal/mol)

>  <smiles>  (17) 
COc1ccccc1C(=O)NCCc1c(O)c2c(O)cc(O)cc2[nH]c1=O

>  <score_type>  (17) 
oracle

>  <origin>  (17) 
adg

>  <m_score__min__energy>  (17) 
-15.859999999999999

>  <m_primary>  (17) 
energy

$$$$
17:0
     RDKit          3D

 45 47  0  0  0  0  0  0  0  0999 V2000
   58.5195   35.2389   47.2395 H   0  0  0  0  0  0  0  0  0  0  0  0
   58.3600   34.5080   46.4330 C   0  0  0  0  0  0  0  0  0  0  0  0
   59.0910   34.6070   45.2470 C   0  0  0  0  0  0  0  0  0  0  0  0
   59.8250   35.4164   45.1202 H   0  0  0  0  0  0  0  0  0  0  0  0
   58.8910   33.6780   44.2200 C   0  0  0  0  0  0  0  0  0  0  0  0
   59.4662   33.7603   43.2860 H   0  0  0  0  0  0  0  0  0  0  0  0
   57.9570   32.6400   44.3790 C   0  0  0  0  0  0  0  0  0  0  0  0
   57.6920   31.6800   43.2530 C   0  0  0  0  0  0  0  0  0  0  0  0
   58.6495   31.3619   42.8148 H   0  0  0  0  0  0  0  0  0  0  0  0
   57.0771   32.1829   42.4920 H   0  0  0  0  0  0  0  0  0  0  0  0
   56.8140   30.2460   43.8530 S   0  0  0  0  0  0  0  0  0  0  0  0
   55.5180   30.6720   44.4800 O   0  0  0  0  0  0  0  0  0  0  0  0
   56.5160   29.3180   42.7070 O   0  0  0  0  0  0  0  0  0  0  0  0
   57.7880   29.4040   45.0440 C   0  0  0  0  0  0  0  0  0  0  0  0
   59.3430   29.8480   45.5100 S   0  0  0  0  0  0  0  0  0  0  0  0
   59.4310   28.6340   46.6830 C   0  0  0  0  0  0  0  0  0  0  0  0
   60.4370   28.3880   47.4720 N   0  0  0  0  0  0  0  0  0  0  0  0
   60.3950   27.8390   48.7990 C   0  0  0  0  0  0  0  0  0  0  0  0
   60.0940   26.6320   49.0040 O   0  0  0  0  0  0  0  0  0  0  0  0
   60.6780   28.7320   49.9660 C   0  0  0  0  0  0  0  0  0  0  0  0
   61.7598   28.7405   50.1649 H   0  0  0  0  0  0  0  0  0  0  0  0
   60.1407   28.3555   50.8489 H   0  0  0  0  0  0  0  0  0  0  0  0
   60.2140   30.1350   49.6630 C   0  0  0  0  0  0  0  0  0  0  0  0
   61.0250   30.9780   48.8840 C   0  0  0  0  0  0  0  0  0  0  0  0
   62.0005   30.6179   48.5252 H   0  0  0  0  0  0  0  0  0  0  0  0
   60.6020   32.2690   48.5620 C   0  0  0  0  0  0  0  0  0  0  0  0
   61.6250   33.3140   47.5950 Cl  0  0  0  0  0  0  0  0  0  0  0  0
   59.3590   32.7270   49.0060 C   0  0  0  0  0  0  0  0  0  0  0  0
   59.0277   33.7455   48.7551 H   0  0  0  0  0  0  0  0  0  0  0  0
   58.5360   31.8940   49.7680 C   0  0  0  0  0  0  0  0  0  0  0  0
   57.5574   32.2600   50.1120 H   0  0  0  0  0  0  0  0  0  0  0  0
   58.9500   30.5890   50.0990 C   0  0  0  0  0  0  0  0  0  0  0  0
   58.1380   29.7220   50.8500 O   0  0  0  0  0  0  0  0  0  0  0  0
   57.5780   30.0390   52.1190 C   0  0  0  0  0  0  0  0  0  0  0  0
   58.2386   29.6650   52.9151 H   0  0  0  0  0  0  0  0  0  0  0  0
   57.4737   31.1301   52.2115 H   0  0  0  0  0  0  0  0  0  0  0  0
   56.5888   29.5669   52.2115 H   0  0  0  0  0  0  0  0  0  0  0  0
   58.2940   27.9050   46.7220 N   0  0  0  0  0  0  0  0  0  0  0  0
   58.1310   27.1090   47.3790 H   0  0  0  0  0  0  0  0  0  0  0  0
   57.3710   28.3300   45.8190 C   0  0  0  0  0  0  0  0  0  0  0  0
   56.3804   27.8639   45.7117 H   0  0  0  0  0  0  0  0  0  0  0  0
   57.2200   32.5520   45.5720 C   0  0  0  0  0  0  0  0  0  0  0  0
   56.4786   31.7496   45.7006 H   0  0  0  0  0  0  0  0  0  0  0  0
   57.4260   33.4810   46.5960 C   0  0  0  0  0  0  0  0  0  0  0  0
   56.8523   33.4037   47.5313 H   0  0  0  0  0  0  0  0  0  0  0  0
  1  2  1  0
  2  3  2  0
  3  4  1  0
  3  5  1  0
  5  6  1  0
  5  7  2  0
  7  8  1  0
  8  9  1  0
  8 10  1  0
  8 11  1  0
 11 12  2  0
 11 13  2  0
 11 14  1  0
 14 15  1  0
 15 16  1  0
 16 17  2  0
 17 18  1  0
 18 19  2  0
 18 20  1  0
 20 21  1  0
 20 22  1  0
 20 23  1  0
 23 24  2  0
 24 25  1  0
 24 26  1  0
 26 27  1  0
 26 28  2  0
 28 29  1  0
 28 30  1  0
 30 31  1  0
 30 32  2  0
 32 33  1  0
 33 34  1  0
 34 35  1  0
 34 36  1  0
 34 37  1  0
 16 38  1  0
 38 39  1  0
 38 40  1  0
 40 41  1  0
  7 42  1  0
 42 43  1  0
 42 44  2  0
 44 45  1  0
 44  2  1  0
 40 14  2  0
 32 23  1  0
M  END
>  <UniqueID>  (18) 
18

>  <SMILES>  (18) 
COc1ccc(Cl)cc1CC(=O)/N=c1/[nH]cc(S(=O)(=O)Cc2ccccc2)s1

>  <Energy>  (18) 
73.64779653436834

>  <Genealogy>  (18) 
COc1ccc(Cl)cc1CC(=O)/N=c1/[nH]cc(S(=O)(=O)Cc2ccccc2)s1 (cis-trans isomerization)
COc1ccc(Cl)cc1CC(=O)/N=c1/[nH]cc(S(=O)(=O)Cc2ccccc2)s1 (3D coordinates assigned)
COc1ccc(Cl)cc1CC(=O)/N=c1/[nH]cc(S(=O)(=O)Cc2ccccc2)s1 (optimized conformer: 73.64779653436834 kcal/mol)

>  <smiles>  (18) 
COc1ccc(Cl)cc1CC(=O)N=c1[nH]cc(S(=O)(=O)Cc2ccccc2)s1

>  <score_type>  (18) 
oracle

>  <origin>  (18) 
adg

>  <m_score__min__energy>  (18) 
-8.8000000000000007

>  <m_primary>  (18) 
energy

$$$$
18:0
     RDKit          3D

 56 59  0  0  0  0  0  0  0  0999 V2000
   56.1485   30.4882   43.0999 H   0  0  0  0  0  0  0  0  0  0  0  0
   56.4240   29.4450   43.3140 C   0  0  0  0  0  0  0  0  0  0  0  0
   55.8537   28.6212   42.8599 H   0  0  0  0  0  0  0  0  0  0  0  0
   57.4570   29.1770   44.1300 C   0  0  0  0  0  0  0  0  0  0  0  0
   57.9320   27.9070   44.5010 C   0  0  0  0  0  0  0  0  0  0  0  0
   57.4130   26.6780   44.3130 C   0  0  0  0  0  0  0  0  0  0  0  0
   57.2514   26.3544   43.2742 H   0  0  0  0  0  0  0  0  0  0  0  0
   57.0440   25.7320   45.3760 C   0  0  0  0  0  0  0  0  0  0  0  0
   58.0610   24.5340   45.9790 S   0  0  0  0  0  0  0  0  0  0  0  0
   56.9740   24.1000   47.1840 C   0  0  0  0  0  0  0  0  0  0  0  0
   57.1690   23.1790   48.0180 O   0  0  0  0  0  0  0  0  0  0  0  0
   55.8570   24.8590   47.1750 N   0  0  0  0  0  0  0  0  0  0  0  0
   55.9040   25.7800   46.1780 C   0  0  0  0  0  0  0  0  0  0  0  0
   54.8880   26.7110   46.0000 O   0  0  0  0  0  0  0  0  0  0  0  0
   59.1290   28.1200   45.1620 C   0  0  0  0  0  0  0  0  0  0  0  0
   59.8024   27.3476   45.5619 H   0  0  0  0  0  0  0  0  0  0  0  0
   59.3170   29.4850   45.2240 C   0  0  0  0  0  0  0  0  0  0  0  0
   60.4810   30.1510   45.8920 C   0  0  0  0  0  0  0  0  0  0  0  0
   60.3645   30.0844   46.9838 H   0  0  0  0  0  0  0  0  0  0  0  0
   61.4126   29.6493   45.5913 H   0  0  0  0  0  0  0  0  0  0  0  0
   60.5205   31.2084   45.5913 H   0  0  0  0  0  0  0  0  0  0  0  0
   58.2930   30.1320   44.6190 N   0  0  0  0  0  0  0  0  0  0  0  0
   58.1930   31.5880   44.4400 C   0  0  0  0  0  0  0  0  0  0  0  0
   59.2045   32.0171   44.3877 H   0  0  0  0  0  0  0  0  0  0  0  0
   57.6456   31.7965   43.5089 H   0  0  0  0  0  0  0  0  0  0  0  0
   57.4370   32.2190   45.6130 C   0  0  0  0  0  0  0  0  0  0  0  0
   56.9748   33.1603   45.2809 H   0  0  0  0  0  0  0  0  0  0  0  0
   56.6637   31.5160   45.9561 H   0  0  0  0  0  0  0  0  0  0  0  0
   58.3740   32.5040   46.7540 C   0  0  0  0  0  0  0  0  0  0  0  0
   58.6340   31.5190   47.7200 C   0  0  0  0  0  0  0  0  0  0  0  0
   58.1310   30.5429   47.6557 H   0  0  0  0  0  0  0  0  0  0  0  0
   59.5290   31.7730   48.7630 C   0  0  0  0  0  0  0  0  0  0  0  0
   59.7200   30.9997   49.5216 H   0  0  0  0  0  0  0  0  0  0  0  0
   60.1840   33.0090   48.8460 C   0  0  0  0  0  0  0  0  0  0  0  0
   61.2940   33.3510   50.1710 S   0  0  0  0  0  0  0  0  0  0  0  0
   60.5900   34.1540   51.2300 O   0  0  0  0  0  0  0  0  0  0  0  0
   61.7220   32.0440   50.7780 O   0  0  0  0  0  0  0  0  0  0  0  0
   62.7080   34.2050   49.5870 N   0  0  0  0  0  0  0  0  0  0  0  0
   63.9490   33.7330   50.2290 C   0  0  0  0  0  0  0  0  0  0  0  0
   64.7582   34.4394   49.9922 H   0  0  0  0  0  0  0  0  0  0  0  0
   63.7619   33.6762   51.3115 H   0  0  0  0  0  0  0  0  0  0  0  0
   64.3680   32.3250   49.7540 C   0  0  0  0  0  0  0  0  0  0  0  0
   65.4664   32.2781   49.7190 H   0  0  0  0  0  0  0  0  0  0  0  0
   63.9514   31.5973   50.4660 H   0  0  0  0  0  0  0  0  0  0  0  0
   63.8400   31.9930   48.4200 N   0  0  0  0  0  0  0  0  0  0  0  0
   64.4760   31.2870   47.9810 H   0  0  0  0  0  0  0  0  0  0  0  0
   63.7990   33.1740   47.5570 C   0  0  0  0  0  0  0  0  0  0  0  0
   64.7977   33.6337   47.5217 H   0  0  0  0  0  0  0  0  0  0  0  0
   63.4908   32.8705   46.5456 H   0  0  0  0  0  0  0  0  0  0  0  0
   62.7870   34.1960   48.1070 C   0  0  0  0  0  0  0  0  0  0  0  0
   63.0842   35.1991   47.7672 H   0  0  0  0  0  0  0  0  0  0  0  0
   61.7949   33.9074   47.7296 H   0  0  0  0  0  0  0  0  0  0  0  0
   59.9340   33.9900   47.8770 C   0  0  0  0  0  0  0  0  0  0  0  0
   60.4438   34.9628   47.9385 H   0  0  0  0  0  0  0  0  0  0  0  0
   59.0400   33.7380   46.8330 C   0  0  0  0  0  0  0  0  0  0  0  0
   58.8572   34.5091   46.0701 H   0  0  0  0  0  0  0  0  0  0  0  0
  1  2  1  0
  2  3  1  0
  2  4  2  0
  4  5  1  0
  5  6  2  0
  6  7  1  0
  6  8  1  0
  8  9  1  0
  9 10  1  0
 10 11  2  0
 10 12  1  0
 12 13  1  0
 13 14  1  0
  5 15  1  0
 15 16  1  0
 15 17  2  0
 17 18  1  0
 18 19  1  0
 18 20  1  0
 18 21  1  0
 17 22  1  0
 22 23  1  0
 23 24  1  0
 23 25  1  0
 23 26  1  0
 26 27  1  0
 26 28  1  0
 26 29  1  0
 29 30  2  0
 30 31  1  0
 30 32  1  0
 32 33  1  0
 32 34  2  0
 34 35  1  0
 35 36  2  0
 35 37  2  0
 35 38  1  0
 38 39  1  0
 39 40  1  0
 39 41  1  0
 39 42  1  0
 42 43  1  0
 42 44  1  0
 42 45  1  0
 45 46  1  0
 45 47  1  0
 47 48  1  0
 47 49  1  0
 47 50  1  0
 50 51  1  0
 50 52  1  0
 34 53  1  0
 53 54  1  0
 53 55  2  0
 55 56  1  0
 22  4  1  0
 55 29  1  0
 13  8  2  0
 50 38  1  0
M  CHG  2  12  -1  14  -1
M  END
>  <UniqueID>  (19) 
19

>  <SMILES>  (19) 
C=c1/c(=C\c2sc(=O)[n-]c2[O-])cc(C)n1CCc1ccc(S(=O)(=O)N2CCNCC2)cc1

>  <Energy>  (19) 
134.6514826891872

>  <Genealogy>  (19) 
C=c1c(=Cc2sc(=O)[n-]c2[O-])cc(C)n1CCc1ccc(S(=O)(=O)N2CCNCC2)cc1 (protonated)
C=c1/c(=C\c2sc(=O)[n-]c2[O-])cc(C)n1CCc1ccc(S(=O)(=O)N2CCNCC2)cc1 (cis-trans isomerization)
C=c1/c(=C\c2sc(=O)[n-]c2[O-])cc(C)n1CCc1ccc(S(=O)(=O)N2CCNCC2)cc1 (3D coordinates assigned)
C=c1/c(=C\c2sc(=O)[n-]c2[O-])cc(C)n1CCc1ccc(S(=O)(=O)N2CCNCC2)cc1 (nonaromatic ring conformer: 134.6514826891872 kcal/mol)

>  <smiles>  (19) 
C=c1c(=Cc2sc(=O)[nH]c2O)cc(C)n1CCc1ccc(S(=O)(=O)N2CCNCC2)cc1

>  <score_type>  (19) 
oracle

>  <origin>  (19) 
adg

>  <m_score__min__energy>  (19) 
-16.960000000000001

>  <m_primary>  (19) 
energy

$$$$
19:0
     RDKit          3D

 50 52  0  0  0  0  0  0  0  0999 V2000
   58.0410   31.6850   42.5970 C   0  0  0  0  0  0  0  0  0  0  0  0
   57.8240   32.9830   43.3660 C   0  0  0  0  0  0  0  0  0  0  0  0
   58.7540   33.0900   44.4430 O   0  0  0  0  0  0  0  0  0  0  0  0
   58.5270   33.8630   45.5890 C   0  0  0  0  0  0  0  0  0  0  0  0
   57.4280   34.4650   45.7370 O   0  0  0  0  0  0  0  0  0  0  0  0
   59.5430   33.9440   46.6050 N   0  0  0  0  0  0  0  0  0  0  0  0
   60.8490   33.3190   46.3780 C   0  0  0  0  0  0  0  0  0  0  0  0
   61.6420   33.1780   47.6870 C   0  0  0  0  0  0  0  0  0  0  0  0
   60.7860   32.8500   48.8460 N   0  0  0  0  0  0  0  0  0  0  0  0
   60.3880   31.1450   48.9430 S   0  0  0  0  0  0  0  0  0  0  0  0
   61.5480   30.4140   49.5610 O   0  0  0  0  0  0  0  0  0  0  0  0
   59.1990   30.9590   49.8440 O   0  0  0  0  0  0  0  0  0  0  0  0
   60.0210   30.4320   47.3690 C   0  0  0  0  0  0  0  0  0  0  0  0
   61.0510   29.9370   46.5590 C   0  0  0  0  0  0  0  0  0  0  0  0
   60.7560   29.3520   45.3250 C   0  0  0  0  0  0  0  0  0  0  0  0
   59.4330   29.2630   44.8880 C   0  0  0  0  0  0  0  0  0  0  0  0
   58.3860   29.7630   45.6820 C   0  0  0  0  0  0  0  0  0  0  0  0
   56.9780   29.6620   45.2200 C   0  0  0  0  0  0  0  0  0  0  0  0
   56.3640   30.6940   44.8390 O   0  0  0  0  0  0  0  0  0  0  0  0
   56.2690   28.4160   45.2710 N   0  0  0  0  0  0  0  0  0  0  0  0
   56.6550   27.3010   45.8300 C   0  0  0  0  0  0  0  0  0  0  0  0
   57.9740   27.1710   46.1420 N   0  0  0  0  0  0  0  0  0  0  0  0
   58.4870   26.0390   46.6910 C   0  0  0  0  0  0  0  0  0  0  0  0
   57.6550   24.9520   46.9570 C   0  0  0  0  0  0  0  0  0  0  0  0
   56.2940   25.0550   46.6780 C   0  0  0  0  0  0  0  0  0  0  0  0
   55.7740   26.2320   46.1330 C   0  0  0  0  0  0  0  0  0  0  0  0
   54.4010   26.3250   45.9470 O   0  0  0  0  0  0  0  0  0  0  0  0
   58.6940   30.3590   46.9190 C   0  0  0  0  0  0  0  0  0  0  0  0
   59.6120   33.7330   49.0470 C   0  0  0  0  0  0  0  0  0  0  0  0
   59.3210   34.6610   47.8610 C   0  0  0  0  0  0  0  0  0  0  0  0
   58.1795   30.8567   43.3074 H   0  0  0  0  0  0  0  0  0  0  0  0
   57.1642   31.4827   41.9643 H   0  0  0  0  0  0  0  0  0  0  0  0
   58.9359   31.7789   41.9643 H   0  0  0  0  0  0  0  0  0  0  0  0
   57.9614   33.8348   42.6837 H   0  0  0  0  0  0  0  0  0  0  0  0
   56.8036   32.9855   43.7769 H   0  0  0  0  0  0  0  0  0  0  0  0
   60.6964   32.3201   45.9434 H   0  0  0  0  0  0  0  0  0  0  0  0
   61.4240   33.9604   45.6939 H   0  0  0  0  0  0  0  0  0  0  0  0
   62.3857   32.3771   47.5622 H   0  0  0  0  0  0  0  0  0  0  0  0
   62.1163   34.1492   47.8916 H   0  0  0  0  0  0  0  0  0  0  0  0
   62.0957   30.0091   46.8956 H   0  0  0  0  0  0  0  0  0  0  0  0
   61.5687   28.9603   44.6957 H   0  0  0  0  0  0  0  0  0  0  0  0
   59.2084   28.7988   43.9164 H   0  0  0  0  0  0  0  0  0  0  0  0
   59.5600   25.9799   46.9260 H   0  0  0  0  0  0  0  0  0  0  0  0
   58.0680   24.0251   47.3817 H   0  0  0  0  0  0  0  0  0  0  0  0
   55.6261   24.2065   46.8875 H   0  0  0  0  0  0  0  0  0  0  0  0
   57.8855   30.7722   47.5400 H   0  0  0  0  0  0  0  0  0  0  0  0
   58.7281   33.1005   49.2167 H   0  0  0  0  0  0  0  0  0  0  0  0
   59.8418   34.3781   49.9078 H   0  0  0  0  0  0  0  0  0  0  0  0
   58.2751   34.9982   47.9091 H   0  0  0  0  0  0  0  0  0  0  0  0
   59.9931   35.5306   47.9066 H   0  0  0  0  0  0  0  0  0  0  0  0
  1  2  1  0
  2  3  1  0
  3  4  1  0
  4  5  2  0
  4  6  1  0
  6  7  1  0
  7  8  1  0
  8  9  1  0
  9 10  1  0
 10 11  2  0
 10 12  2  0
 10 13  1  0
 13 14  2  0
 14 15  1  0
 15 16  2  0
 16 17  1  0
 17 18  1  0
 18 19  2  0
 18 20  1  0
 20 21  2  3
 21 22  1  0
 22 23  1  0
 23 24  2  0
 24 25  1  0
 25 26  2  0
 26 27  1  0
 17 28  2  0
  9 29  1  0
 29 30  1  0
 30  6  1  0
 28 13  1  0
 26 21  1  0
  1 31  1  0
  1 32  1  0
  1 33  1  0
  2 34  1  0
  2 35  1  0
  7 36  1  0
  7 37  1  0
  8 38  1  0
  8 39  1  0
 14 40  1  0
 15 41  1  0
 16 42  1  0
 23 43  1  0
 24 44  1  0
 25 45  1  0
 28 46  1  0
 29 47  1  0
 29 48  1  0
 30 49  1  0
 30 50  1  0
M  CHG  2  22  -1  27  -1
M  END
>  <UniqueID>  (20) 
20

>  <SMILES>  (20) 
CCOC(=O)N1CCN(S(=O)(=O)c2cccc(C(=O)N=c3[n-]cccc3[O-])c2)CC1

>  <Energy>  (20) 
64.68243614078041

>  <Genealogy>  (20) 
CCOC(=O)N1CCN(S(=O)(=O)c2cccc(C(=O)N=c3[n-]cccc3[O-])c2)CC1 (protonated)
CCOC(=O)N1CCN(S(=O)(=O)c2cccc(C(=O)N=c3[n-]cccc3[O-])c2)CC1 (3D coordinates assigned)
CCOC(=O)N1CCN(S(=O)(=O)c2cccc(C(=O)N=c3[n-]cccc3[O-])c2)CC1 (nonaromatic ring conformer: 64.68243614078041 kcal/mol)

>  <smiles>  (20) 
CCOC(=O)N1CCN(S(=O)(=O)c2cccc(C(=O)N=c3[nH]cccc3O)c2)CC1

>  <score_type>  (20) 
oracle

>  <origin>  (20) 
adg

>  <m_score__min__energy>  (20) 
-14.82

>  <m_primary>  (20) 
energy

$$$$
20:0
     RDKit          3D

 59 62  0  0  0  0  0  0  0  0999 V2000
   61.0390   29.9740   48.2720 O   0  0  0  0  0  0  0  0  0  0  0  0
   60.3600   30.2900   47.2560 C   0  0  0  0  0  0  0  0  0  0  0  0
   58.9330   30.7350   47.3900 C   0  0  0  0  0  0  0  0  0  0  0  0
   58.5300   31.6910   46.2900 C   0  0  0  0  0  0  0  0  0  0  0  0
   57.9260   31.1530   45.1400 C   0  0  0  0  0  0  0  0  0  0  0  0
   57.5570   31.9740   44.0750 C   0  0  0  0  0  0  0  0  0  0  0  0
   57.7910   33.3460   44.1400 C   0  0  0  0  0  0  0  0  0  0  0  0
   58.3960   33.9010   45.2680 C   0  0  0  0  0  0  0  0  0  0  0  0
   58.7810   33.0900   46.3520 C   0  0  0  0  0  0  0  0  0  0  0  0
   59.5340   33.8620   47.7620 S   0  0  0  0  0  0  0  0  0  0  0  0
   59.2590   35.3390   47.7120 O   0  0  0  0  0  0  0  0  0  0  0  0
   58.9440   33.3100   49.0290 O   0  0  0  0  0  0  0  0  0  0  0  0
   61.2740   33.5780   47.7960 C   0  0  0  0  0  0  0  0  0  0  0  0
   61.9110   33.1520   48.9720 C   0  0  0  0  0  0  0  0  0  0  0  0
   63.2890   32.9170   48.9770 C   0  0  0  0  0  0  0  0  0  0  0  0
   64.0390   33.1240   47.8150 C   0  0  0  0  0  0  0  0  0  0  0  0
   63.4140   33.5650   46.6470 C   0  0  0  0  0  0  0  0  0  0  0  0
   62.0350   33.7920   46.6370 C   0  0  0  0  0  0  0  0  0  0  0  0
   60.9290   30.1870   45.9900 O   0  0  0  0  0  0  0  0  0  0  0  0
   61.0320   28.9370   45.3170 C   0  0  0  0  0  0  0  0  0  0  0  0
   59.7740   28.1350   45.5170 C   0  0  0  0  0  0  0  0  0  0  0  0
   58.7310   28.1960   44.5810 C   0  0  0  0  0  0  0  0  0  0  0  0
   57.5880   27.4060   44.7470 C   0  0  0  0  0  0  0  0  0  0  0  0
   57.4860   26.5200   45.8340 C   0  0  0  0  0  0  0  0  0  0  0  0
   56.2750   25.6840   46.0110 C   0  0  0  0  0  0  0  0  0  0  0  0
   55.1380   26.2260   46.0000 O   0  0  0  0  0  0  0  0  0  0  0  0
   56.3750   24.2690   46.2380 N   0  0  0  0  0  0  0  0  0  0  0  0
   55.5910   23.6680   47.3190 C   0  0  0  0  0  0  0  0  0  0  0  0
   55.9670   22.1970   47.4940 C   0  0  0  0  0  0  0  0  0  0  0  0
   57.3600   22.0490   47.3200 O   0  0  0  0  0  0  0  0  0  0  0  0
   57.6910   22.1710   45.9490 C   0  0  0  0  0  0  0  0  0  0  0  0
   57.0640   23.4100   45.2660 C   0  0  0  0  0  0  0  0  0  0  0  0
   58.5320   26.4690   46.7700 C   0  0  0  0  0  0  0  0  0  0  0  0
   59.6680   27.2640   46.6100 C   0  0  0  0  0  0  0  0  0  0  0  0
   58.2802   29.8506   47.3482 H   0  0  0  0  0  0  0  0  0  0  0  0
   58.8309   31.2612   48.3506 H   0  0  0  0  0  0  0  0  0  0  0  0
   57.7421   30.0702   45.0796 H   0  0  0  0  0  0  0  0  0  0  0  0
   57.0813   31.5386   43.1838 H   0  0  0  0  0  0  0  0  0  0  0  0
   57.4981   33.9930   43.3000 H   0  0  0  0  0  0  0  0  0  0  0  0
   58.5743   34.9856   45.3107 H   0  0  0  0  0  0  0  0  0  0  0  0
   61.3251   33.0029   49.8909 H   0  0  0  0  0  0  0  0  0  0  0  0
   63.7838   32.5690   49.8957 H   0  0  0  0  0  0  0  0  0  0  0  0
   65.1233   32.9390   47.8212 H   0  0  0  0  0  0  0  0  0  0  0  0
   64.0063   33.7336   45.7356 H   0  0  0  0  0  0  0  0  0  0  0  0
   61.5441   34.1400   45.7162 H   0  0  0  0  0  0  0  0  0  0  0  0
   61.1831   29.1143   44.2419 H   0  0  0  0  0  0  0  0  0  0  0  0
   61.8846   28.3767   45.7281 H   0  0  0  0  0  0  0  0  0  0  0  0
   58.8119   28.8673   43.7134 H   0  0  0  0  0  0  0  0  0  0  0  0
   56.7637   27.4786   44.0222 H   0  0  0  0  0  0  0  0  0  0  0  0
   55.7921   24.2077   48.2562 H   0  0  0  0  0  0  0  0  0  0  0  0
   54.5226   23.7361   47.0661 H   0  0  0  0  0  0  0  0  0  0  0  0
   55.6850   21.8630   48.5034 H   0  0  0  0  0  0  0  0  0  0  0  0
   55.4351   21.5888   46.7475 H   0  0  0  0  0  0  0  0  0  0  0  0
   58.7851   22.2422   45.8608 H   0  0  0  0  0  0  0  0  0  0  0  0
   57.2860   21.2838   45.4402 H   0  0  0  0  0  0  0  0  0  0  0  0
   57.8606   23.9904   44.7775 H   0  0  0  0  0  0  0  0  0  0  0  0
   56.3256   23.0613   44.5290 H   0  0  0  0  0  0  0  0  0  0  0  0
   58.4552   25.7964   47.6370 H   0  0  0  0  0  0  0  0  0  0  0  0
   60.4841   27.2067   47.3453 H   0  0  0  0  0  0  0  0  0  0  0  0
  1  2  2  0
  2  3  1  0
  3  4  1  0
  4  5  2  0
  5  6  1  0
  6  7  2  0
  7  8  1  0
  8  9  2  0
  9 10  1  0
 10 11  2  0
 10 12  2  0
 10 13  1  0
 13 14  2  0
 14 15  1  0
 15 16  2  0
 16 17  1  0
 17 18  2  0
  2 19  1  0
 19 20  1  0
 20 21  1  0
 21 22  2  0
 22 23  1  0
 23 24  2  0
 24 25  1  0
 25 26  2  0
 25 27  1  0
 27 28  1  0
 28 29  1  0
 29 30  1  0
 30 31  1  0
 31 32  1  0
 24 33  1  0
 33 34  2  0
  9  4  1  0
 18 13  1  0
 34 21  1  0
 32 27  1  0
  3 35  1  0
  3 36  1  0
  5 37  1  0
  6 38  1  0
  7 39  1  0
  8 40  1  0
 14 41  1  0
 15 42  1  0
 16 43  1  0
 17 44  1  0
 18 45  1  0
 20 46  1  0
 20 47  1  0
 22 48  1  0
 23 49  1  0
 28 50  1  0
 28 51  1  0
 29 52  1  0
 29 53  1  0
 31 54  1  0
 31 55  1  0
 32 56  1  0
 32 57  1  0
 33 58  1  0
 34 59  1  0
M  END
>  <UniqueID>  (21) 
21

>  <SMILES>  (21) 
O=C(Cc1ccccc1S(=O)(=O)c1ccccc1)OCc1ccc(C(=O)N2CCOCC2)cc1

>  <Energy>  (21) 
76.77969811585393

>  <Genealogy>  (21) 
O=C(Cc1ccccc1S(=O)(=O)c1ccccc1)OCc1ccc(C(=O)N2CCOCC2)cc1 (3D coordinates assigned)
O=C(Cc1ccccc1S(=O)(=O)c1ccccc1)OCc1ccc(C(=O)N2CCOCC2)cc1 (nonaromatic ring conformer: 76.77969811585393 kcal/mol)

>  <smiles>  (21) 
O=C(Cc1ccccc1S(=O)(=O)c1ccccc1)OCc1ccc(C(=O)N2CCOCC2)cc1

>  <score_type>  (21) 
oracle

>  <origin>  (21) 
adg

>  <m_score__min__energy>  (21) 
-10.619999999999999

>  <m_primary>  (21) 
energy

$$$$
21:0
     RDKit          3D

 64 67  0  0  0  0  0  0  0  0999 V2000
   56.1950   29.9050   44.9410 O   0  0  0  0  0  0  0  0  0  0  0  0
   57.1440   30.1820   44.1570 C   0  0  0  0  0  0  0  0  0  0  0  0
   56.9990   31.3040   43.1710 C   0  0  0  0  0  0  0  0  0  0  0  0
   57.9430   32.3810   43.4560 N   0  0  0  0  0  0  0  0  0  0  0  0
   57.8130   33.2800   44.5650 C   0  0  0  0  0  0  0  0  0  0  0  0
   57.0600   34.2890   44.4690 O   0  0  0  0  0  0  0  0  0  0  0  0
   58.5560   33.0230   45.8210 C   0  0  0  0  0  0  0  0  0  0  0  0
   58.9400   31.7150   46.1710 C   0  0  0  0  0  0  0  0  0  0  0  0
   59.6490   31.4740   47.3510 C   0  0  0  0  0  0  0  0  0  0  0  0
   59.9840   32.5340   48.2020 C   0  0  0  0  0  0  0  0  0  0  0  0
   60.8940   32.2150   49.6770 S   0  0  0  0  0  0  0  0  0  0  0  0
   60.8090   33.4080   50.5900 O   0  0  0  0  0  0  0  0  0  0  0  0
   60.2750   31.0320   50.3720 O   0  0  0  0  0  0  0  0  0  0  0  0
   62.5640   31.8680   49.2700 N   0  0  0  0  0  0  0  0  0  0  0  0
   62.7390   31.5980   47.8260 C   0  0  0  0  0  0  0  0  0  0  0  0
   63.2770   32.8140   47.0510 C   0  0  0  0  0  0  0  0  0  0  0  0
   62.7980   34.0090   47.6240 O   0  0  0  0  0  0  0  0  0  0  0  0
   63.3880   34.2110   48.8970 C   0  0  0  0  0  0  0  0  0  0  0  0
   63.4700   32.9240   49.7560 C   0  0  0  0  0  0  0  0  0  0  0  0
   59.6100   33.8410   47.8580 C   0  0  0  0  0  0  0  0  0  0  0  0
   58.9010   34.0830   46.6790 C   0  0  0  0  0  0  0  0  0  0  0  0
   58.3970   29.4900   44.2640 N   0  0  0  0  0  0  0  0  0  0  0  0
   58.5740   28.3240   45.0810 C   0  0  0  0  0  0  0  0  0  0  0  0
   57.5010   27.4400   45.2570 C   0  0  0  0  0  0  0  0  0  0  0  0
   57.6400   26.2990   46.0620 C   0  0  0  0  0  0  0  0  0  0  0  0
   56.3010   25.1610   46.2290 S   0  0  0  0  0  0  0  0  0  0  0  0
   55.0110   25.8720   45.9260 O   0  0  0  0  0  0  0  0  0  0  0  0
   56.2400   24.6810   47.6560 O   0  0  0  0  0  0  0  0  0  0  0  0
   56.4600   23.7890   45.1580 N   0  0  0  0  0  0  0  0  0  0  0  0
   55.7660   22.6160   45.7080 C   0  0  0  0  0  0  0  0  0  0  0  0
   55.9450   21.4110   44.7580 C   0  0  0  0  0  0  0  0  0  0  0  0
   56.5900   21.7720   43.5480 O   0  0  0  0  0  0  0  0  0  0  0  0
   55.8990   22.8440   42.9340 C   0  0  0  0  0  0  0  0  0  0  0  0
   55.9340   24.1090   43.8190 C   0  0  0  0  0  0  0  0  0  0  0  0
   58.8590   26.0570   46.7100 C   0  0  0  0  0  0  0  0  0  0  0  0
   59.9260   26.9440   46.5540 C   0  0  0  0  0  0  0  0  0  0  0  0
   59.7880   28.0790   45.7500 C   0  0  0  0  0  0  0  0  0  0  0  0
   60.8510   28.9700   45.6430 O   0  0  0  0  0  0  0  0  0  0  0  0
   57.1888   30.9188   42.1583 H   0  0  0  0  0  0  0  0  0  0  0  0
   55.9779   31.7058   43.2473 H   0  0  0  0  0  0  0  0  0  0  0  0
   58.6798   30.8751   45.5100 H   0  0  0  0  0  0  0  0  0  0  0  0
   59.9450   30.4473   47.6122 H   0  0  0  0  0  0  0  0  0  0  0  0
   63.4475   30.7649   47.7079 H   0  0  0  0  0  0  0  0  0  0  0  0
   61.7490   31.3546   47.4130 H   0  0  0  0  0  0  0  0  0  0  0  0
   64.3764   32.8096   47.0864 H   0  0  0  0  0  0  0  0  0  0  0  0
   62.9338   32.7543   46.0076 H   0  0  0  0  0  0  0  0  0  0  0  0
   64.4078   34.5962   48.7501 H   0  0  0  0  0  0  0  0  0  0  0  0
   62.7461   34.9201   49.4403 H   0  0  0  0  0  0  0  0  0  0  0  0
   64.5023   32.5450   49.7276 H   0  0  0  0  0  0  0  0  0  0  0  0
   63.1651   33.1835   50.7806 H   0  0  0  0  0  0  0  0  0  0  0  0
   59.8760   34.6789   48.5192 H   0  0  0  0  0  0  0  0  0  0  0  0
   58.6099   35.1115   46.4192 H   0  0  0  0  0  0  0  0  0  0  0  0
   59.2450   29.9350   43.8480 H   0  0  0  0  0  0  0  0  0  0  0  0
   56.5410   27.6423   44.7596 H   0  0  0  0  0  0  0  0  0  0  0  0
   56.1883   22.3703   46.6935 H   0  0  0  0  0  0  0  0  0  0  0  0
   54.6944   22.8423   45.8108 H   0  0  0  0  0  0  0  0  0  0  0  0
   56.5498   20.6459   45.2668 H   0  0  0  0  0  0  0  0  0  0  0  0
   54.9447   21.0294   44.5057 H   0  0  0  0  0  0  0  0  0  0  0  0
   56.3722   23.0692   41.9669 H   0  0  0  0  0  0  0  0  0  0  0  0
   54.8495   22.5467   42.7916 H   0  0  0  0  0  0  0  0  0  0  0  0
   56.5809   24.8631   43.3469 H   0  0  0  0  0  0  0  0  0  0  0  0
   54.9105   24.4983   43.9230 H   0  0  0  0  0  0  0  0  0  0  0  0
   58.9755   25.1653   47.3435 H   0  0  0  0  0  0  0  0  0  0  0  0
   60.8797   26.7486   47.0662 H   0  0  0  0  0  0  0  0  0  0  0  0
  1  2  2  0
  2  3  1  0
  3  4  1  0
  4  5  1  0
  5  6  2  0
  5  7  1  0
  7  8  2  0
  8  9  1  0
  9 10  2  0
 10 11  1  0
 11 12  2  0
 11 13  2  0
 11 14  1  0
 14 15  1  0
 15 16  1  0
 16 17  1  0
 17 18  1  0
 18 19  1  0
 10 20  1  0
 20 21  2  0
  2 22  1  0
 22 23  1  0
 23 24  2  0
 24 25  1  0
 25 26  1  0
 26 27  2  0
 26 28  2  0
 26 29  1  0
 29 30  1  0
 30 31  1  0
 31 32  1  0
 32 33  1  0
 33 34  1  0
 25 35  2  0
 35 36  1  0
 36 37  2  0
 37 38  1  0
 21  7  1  0
 37 23  1  0
 19 14  1  0
 34 29  1  0
  3 39  1  0
  3 40  1  0
  8 41  1  0
  9 42  1  0
 15 43  1  0
 15 44  1  0
 16 45  1  0
 16 46  1  0
 18 47  1  0
 18 48  1  0
 19 49  1  0
 19 50  1  0
 20 51  1  0
 21 52  1  0
 22 53  1  0
 24 54  1  0
 30 55  1  0
 30 56  1  0
 31 57  1  0
 31 58  1  0
 33 59  1  0
 33 60  1  0
 34 61  1  0
 34 62  1  0
 35 63  1  0
 36 64  1  0
M  CHG  2   4  -1  38  -1
M  END
>  <UniqueID>  (22) 
22

>  <SMILES>  (22) 
O=C(C[N-]C(=O)c1ccc(S(=O)(=O)N2CCOCC2)cc1)Nc1cc(S(=O)(=O)N2CCOCC2)ccc1[O-]

>  <Energy>  (22) 
87.70189888765056

>  <Genealogy>  (22) 
O=C(C[N-]C(=O)c1ccc(S(=O)(=O)N2CCOCC2)cc1)Nc1cc(S(=O)(=O)N2CCOCC2)ccc1[O-] (protonated)
O=C(C[N-]C(=O)c1ccc(S(=O)(=O)N2CCOCC2)cc1)Nc1cc(S(=O)(=O)N2CCOCC2)ccc1[O-] (3D coordinates assigned)
O=C(C[N-]C(=O)c1ccc(S(=O)(=O)N2CCOCC2)cc1)Nc1cc(S(=O)(=O)N2CCOCC2)ccc1[O-] (nonaromatic ring conformer: 87.70189888765056 kcal/mol)

>  <smiles>  (22) 
O=C(CNC(=O)c1ccc(S(=O)(=O)N2CCOCC2)cc1)Nc1cc(S(=O)(=O)N2CCOCC2)ccc1O

>  <score_type>  (22) 
oracle

>  <origin>  (22) 
adg

>  <m_score__min__energy>  (22) 
-13.609999999999999

>  <m_primary>  (22) 
energy

$$$$
22:0
     RDKit          3D

 46 48  0  0  0  0  0  0  0  0999 V2000
   54.3780   26.7460   46.6560 H   0  0  0  0  0  0  0  0  0  0  0  0
   55.1500   26.4150   46.0330 N   0  0  0  0  0  0  0  0  0  0  0  0
   56.2900   27.0250   45.9560 C   0  0  0  0  0  0  0  0  0  0  0  0
   56.3740   28.2010   45.2820 N   0  0  0  0  0  0  0  0  0  0  0  0
   57.5420   28.8860   45.1650 C   0  0  0  0  0  0  0  0  0  0  0  0
   57.5654   29.8359   44.6109 H   0  0  0  0  0  0  0  0  0  0  0  0
   58.7230   28.3870   45.7490 C   0  0  0  0  0  0  0  0  0  0  0  0
   60.0260   29.1050   45.6510 C   0  0  0  0  0  0  0  0  0  0  0  0
   60.9300   28.6130   44.9170 O   0  0  0  0  0  0  0  0  0  0  0  0
   60.2830   30.3390   46.3770 N   0  0  2  0  0  0  0  0  0  0  0  0
   60.8920   30.9500   45.7850 H   0  0  0  0  0  0  0  0  0  0  0  0
   61.0500   30.1010   47.6230 C   0  0  0  0  0  0  0  0  0  0  0  0
   60.3447   29.8858   48.4392 H   0  0  0  0  0  0  0  0  0  0  0  0
   61.7269   29.2514   47.4498 H   0  0  0  0  0  0  0  0  0  0  0  0
   61.8910   31.3010   48.0060 C   0  0  0  0  0  0  0  0  0  0  0  0
   62.9070   31.7640   47.1520 C   0  0  0  0  0  0  0  0  0  0  0  0
   63.1101   31.2388   46.2070 H   0  0  0  0  0  0  0  0  0  0  0  0
   63.6600   32.8890   47.4990 C   0  0  0  0  0  0  0  0  0  0  0  0
   64.4540   33.2469   46.8271 H   0  0  0  0  0  0  0  0  0  0  0  0
   63.4060   33.5600   48.6980 C   0  0  0  0  0  0  0  0  0  0  0  0
   63.9996   34.4457   48.9686 H   0  0  0  0  0  0  0  0  0  0  0  0
   62.3990   33.1070   49.5530 C   0  0  0  0  0  0  0  0  0  0  0  0
   62.2010   33.6355   50.4972 H   0  0  0  0  0  0  0  0  0  0  0  0
   61.6420   31.9820   49.2100 C   0  0  0  0  0  0  0  0  0  0  0  0
   60.8487   31.6288   49.8852 H   0  0  0  0  0  0  0  0  0  0  0  0
   59.0350   31.1080   46.6280 C   0  0  0  0  0  0  0  0  0  0  0  0
   58.2132   30.6121   46.0906 H   0  0  0  0  0  0  0  0  0  0  0  0
   58.8932   31.1219   47.7187 H   0  0  0  0  0  0  0  0  0  0  0  0
   59.0830   32.5680   46.1810 C   0  0  0  0  0  0  0  0  0  0  0  0
   59.6520   33.5130   47.0580 C   0  0  0  0  0  0  0  0  0  0  0  0
   60.0260   33.1851   48.0391 H   0  0  0  0  0  0  0  0  0  0  0  0
   59.7480   34.8570   46.7010 C   0  0  0  0  0  0  0  0  0  0  0  0
   60.2106   35.5772   47.3919 H   0  0  0  0  0  0  0  0  0  0  0  0
   59.2590   35.2890   45.4710 C   0  0  0  0  0  0  0  0  0  0  0  0
   59.3531   36.3464   45.1829 H   0  0  0  0  0  0  0  0  0  0  0  0
   58.6500   34.3820   44.6040 C   0  0  0  0  0  0  0  0  0  0  0  0
   58.2563   34.7335   43.6389 H   0  0  0  0  0  0  0  0  0  0  0  0
   58.5330   33.0220   44.9490 C   0  0  0  0  0  0  0  0  0  0  0  0
   57.7910   32.1080   44.0070 C   0  0  0  0  0  0  0  0  0  0  0  0
   57.2022   31.3827   44.5877 H   0  0  0  0  0  0  0  0  0  0  0  0
   57.1175   32.7033   43.3730 H   0  0  0  0  0  0  0  0  0  0  0  0
   58.5120   31.5712   43.3730 H   0  0  0  0  0  0  0  0  0  0  0  0
   58.6460   27.1750   46.4570 C   0  0  0  0  0  0  0  0  0  0  0  0
   59.5477   26.7627   46.9333 H   0  0  0  0  0  0  0  0  0  0  0  0
   57.4340   26.4910   46.5600 C   0  0  0  0  0  0  0  0  0  0  0  0
   57.3783   25.5406   47.1110 H   0  0  0  0  0  0  0  0  0  0  0  0
  1  2  1  0
  2  3  2  0
  3  4  1  0
  4  5  1  0
  5  6  1  0
  5  7  2  0
  7  8  1  0
  8  9  2  0
  8 10  1  0
 10 11  1  6
 10 12  1  0
 12 13  1  0
 12 14  1  0
 12 15  1  0
 15 16  2  0
 16 17  1  0
 16 18  1  0
 18 19  1  0
 18 20  2  0
 20 21  1  0
 20 22  1  0
 22 23  1  0
 22 24  2  0
 24 25  1  0
 10 26  1  0
 26 27  1  0
 26 28  1  0
 26 29  1  0
 29 30  2  0
 30 31  1  0
 30 32  1  0
 32 33  1  0
 32 34  2  0
 34 35  1  0
 34 36  1  0
 36 37  1  0
 36 38  2  0
 38 39  1  0
 39 40  1  0
 39 41  1  0
 39 42  1  0
  7 43  1  0
 43 44  1  0
 43 45  2  0
 45 46  1  0
 45  3  1  0
 24 15  1  0
 38 29  1  0
M  CHG  2   4  -1  10   1
M  END
>  <UniqueID>  (23) 
23

>  <SMILES>  (23) 
[H]/N=c1\ccc(C(=O)[N@H+](Cc2ccccc2)Cc2ccccc2C)c[n-]1

>  <Energy>  (23) 
60.23465418443409

>  <Genealogy>  (23) 
Cc1ccccc1C[NH+](Cc1ccccc1)C(=O)c1ccc(=N)[n-]c1 (protonated)
Cc1ccccc1C[N@@H+](Cc1ccccc1)C(=O)c1ccc(=N)[n-]c1 (chirality)
[H]/N=c1\ccc(C(=O)[N@H+](Cc2ccccc2)Cc2ccccc2C)c[n-]1 (cis-trans isomerization)
[H]/N=c1\ccc(C(=O)[N@H+](Cc2ccccc2)Cc2ccccc2C)c[n-]1 (3D coordinates assigned)
[H]/N=c1\ccc(C(=O)[N@H+](Cc2ccccc2)Cc2ccccc2C)c[n-]1 (optimized conformer: 60.23465418443409 kcal/mol)

>  <smiles>  (23) 
Cc1ccccc1CN(Cc1ccccc1)C(=O)c1ccc(=N)[nH]c1

>  <score_type>  (23) 
oracle

>  <origin>  (23) 
adg

>  <m_score__min__energy>  (23) 
-9.4900000000000002

>  <m_primary>  (23) 
energy

$$$$
23:0
     RDKit          3D

 46 48  0  0  0  0  0  0  0  0999 V2000
   57.7880   31.3150   45.9970 O   0  0  0  0  0  0  0  0  0  0  0  0
   57.1480   31.6460   44.9620 C   0  0  0  0  0  0  0  0  0  0  0  0
   57.4510   32.9710   44.3160 C   0  0  0  0  0  0  0  0  0  0  0  0
   57.0380   34.1250   45.2320 C   0  0  0  0  0  0  0  0  0  0  0  0
   57.8770   34.1390   46.4360 N   0  0  0  0  0  0  0  0  0  0  0  0
   59.4850   34.7100   46.0840 S   0  0  0  0  0  0  0  0  0  0  0  0
   59.6880   34.8200   44.5980 O   0  0  0  0  0  0  0  0  0  0  0  0
   59.6550   36.0790   46.6820 O   0  0  0  0  0  0  0  0  0  0  0  0
   60.6870   33.6250   46.7990 C   0  0  0  0  0  0  0  0  0  0  0  0
   62.0460   33.8030   46.4840 C   0  0  0  0  0  0  0  0  0  0  0  0
   63.0320   32.9770   47.0480 C   0  0  0  0  0  0  0  0  0  0  0  0
   62.6830   31.9620   47.9470 C   0  0  0  0  0  0  0  0  0  0  0  0
   61.3390   31.7720   48.2730 C   0  0  0  0  0  0  0  0  0  0  0  0
   60.9260   30.8120   49.1400 N   0  0  0  0  0  0  0  0  0  0  0  0
   59.2960   31.0880   49.1240 S   0  0  0  0  0  0  0  0  0  0  0  0
   59.0540   32.3530   48.0870 N   0  0  0  0  0  0  0  0  0  0  0  0
   60.3330   32.6040   47.7010 C   0  0  0  0  0  0  0  0  0  0  0  0
   56.1130   30.7760   44.4830 N   0  0  0  0  0  0  0  0  0  0  0  0
   56.1490   29.3170   44.5010 C   0  0  0  0  0  0  0  0  0  0  0  0
   57.3840   28.7780   43.7620 C   0  0  0  0  0  0  0  0  0  0  0  0
   58.4580   28.3910   44.7030 N   0  0  0  0  0  0  0  0  0  0  0  0
   57.9580   28.2960   46.0960 C   0  0  0  0  0  0  0  0  0  0  0  0
   59.1110   28.3430   47.1160 C   0  0  0  0  0  0  0  0  0  0  0  0
   60.3190   27.9410   46.5080 O   0  0  0  0  0  0  0  0  0  0  0  0
   60.7240   28.9140   45.5590 C   0  0  0  0  0  0  0  0  0  0  0  0
   59.5750   29.3520   44.6250 C   0  0  0  0  0  0  0  0  0  0  0  0
   58.5307   33.0370   44.1161 H   0  0  0  0  0  0  0  0  0  0  0  0
   56.8842   33.0446   43.3761 H   0  0  0  0  0  0  0  0  0  0  0  0
   57.1577   35.0770   44.6942 H   0  0  0  0  0  0  0  0  0  0  0  0
   55.9869   33.9913   45.5275 H   0  0  0  0  0  0  0  0  0  0  0  0
   57.9830   33.1530   46.7720 H   0  0  0  0  0  0  0  0  0  0  0  0
   62.3409   34.6004   45.7860 H   0  0  0  0  0  0  0  0  0  0  0  0
   64.0882   33.1289   46.7809 H   0  0  0  0  0  0  0  0  0  0  0  0
   63.4591   31.3215   48.3914 H   0  0  0  0  0  0  0  0  0  0  0  0
   56.1780   28.9725   45.5452 H   0  0  0  0  0  0  0  0  0  0  0  0
   55.2492   28.9419   43.9914 H   0  0  0  0  0  0  0  0  0  0  0  0
   57.0907   27.8962   43.1733 H   0  0  0  0  0  0  0  0  0  0  0  0
   57.7696   29.5760   43.1104 H   0  0  0  0  0  0  0  0  0  0  0  0
   57.2761   29.1374   46.2888 H   0  0  0  0  0  0  0  0  0  0  0  0
   57.4366   27.3341   46.2098 H   0  0  0  0  0  0  0  0  0  0  0  0
   59.2193   29.3702   47.4942 H   0  0  0  0  0  0  0  0  0  0  0  0
   58.8828   27.6581   47.9460 H   0  0  0  0  0  0  0  0  0  0  0  0
   61.0952   29.7980   46.0982 H   0  0  0  0  0  0  0  0  0  0  0  0
   61.5062   28.4606   44.9324 H   0  0  0  0  0  0  0  0  0  0  0  0
   59.2193   30.3475   44.9292 H   0  0  0  0  0  0  0  0  0  0  0  0
   59.9473   29.3852   43.5905 H   0  0  0  0  0  0  0  0  0  0  0  0
  1  2  2  0
  2  3  1  0
  3  4  1  0
  4  5  1  0
  5  6  1  0
  6  7  2  0
  6  8  2  0
  6  9  1  0
  9 10  2  0
 10 11  1  0
 11 12  2  0
 12 13  1  0
 13 14  2  0
 14 15  1  0
 15 16  1  0
 16 17  2  0
  2 18  1  0
 18 19  1  0
 19 20  1  0
 20 21  1  0
 21 22  1  0
 22 23  1  0
 23 24  1  0
 24 25  1  0
 25 26  1  0
 17  9  1  0
 26 21  1  0
 17 13  1  0
  3 27  1  0
  3 28  1  0
  4 29  1  0
  4 30  1  0
  5 31  1  0
 10 32  1  0
 11 33  1  0
 12 34  1  0
 19 35  1  0
 19 36  1  0
 20 37  1  0
 20 38  1  0
 22 39  1  0
 22 40  1  0
 23 41  1  0
 23 42  1  0
 25 43  1  0
 25 44  1  0
 26 45  1  0
 26 46  1  0
M  CHG  1  18  -1
M  END
>  <UniqueID>  (24) 
24

>  <SMILES>  (24) 
O=C(CCNS(=O)(=O)c1cccc2nsnc12)[N-]CCN1CCOCC1

>  <Energy>  (24) 
89.71680900518459

>  <Genealogy>  (24) 
O=C(CCNS(=O)(=O)c1cccc2nsnc12)[N-]CCN1CCOCC1 (protonated)
O=C(CCNS(=O)(=O)c1cccc2nsnc12)[N-]CCN1CCOCC1 (3D coordinates assigned)
O=C(CCNS(=O)(=O)c1cccc2nsnc12)[N-]CCN1CCOCC1 (nonaromatic ring conformer: 89.71680900518459 kcal/mol)

>  <smiles>  (24) 
O=C(CCNS(=O)(=O)c1cccc2nsnc12)NCCN1CCOCC1

>  <score_type>  (24) 
oracle

>  <origin>  (24) 
adg

>  <m_score__min__energy>  (24) 
-11.41

>  <m_primary>  (24) 
energy

$$$$
24:0
     RDKit          3D

 52 55  0  0  0  0  0  0  0  0999 V2000
   59.0860   26.7410   47.4110 O   0  0  0  0  0  0  0  0  0  0  0  0
   58.5230   27.5850   46.6610 C   0  0  0  0  0  0  0  0  0  0  0  0
   57.2210   27.2430   46.0090 C   0  0  0  0  0  0  0  0  0  0  0  0
   57.0530   28.0800   44.8280 N   0  0  0  0  0  0  0  0  0  0  0  0
   56.3750   29.3420   44.7790 C   0  0  0  0  0  0  0  0  0  0  0  0
   55.1200   29.3510   44.8690 O   0  0  0  0  0  0  0  0  0  0  0  0
   57.0710   30.6260   44.5710 C   0  0  0  0  0  0  0  0  0  0  0  0
   57.4470   31.1960   43.3650 C   0  0  0  0  0  0  0  0  0  0  0  0
   58.0930   32.3710   43.6890 C   0  0  0  0  0  0  0  0  0  0  0  0
   58.0760   32.4390   45.0670 C   0  0  0  0  0  0  0  0  0  0  0  0
   58.8270   33.8410   46.1170 Br  0  0  0  0  0  0  0  0  0  0  0  0
   57.4690   31.3880   45.5660 O   0  0  0  0  0  0  0  0  0  0  0  0
   59.0900   28.8920   46.4890 N   0  0  0  0  0  0  0  0  0  0  0  0
   60.2410   29.3490   47.2640 C   0  0  0  0  0  0  0  0  0  0  0  0
   59.7820   30.1890   48.4240 C   0  0  0  0  0  0  0  0  0  0  0  0
   60.3110   31.4710   48.6350 C   0  0  0  0  0  0  0  0  0  0  0  0
   59.8760   32.2290   49.7330 C   0  0  0  0  0  0  0  0  0  0  0  0
   60.4030   33.5840   49.9820 C   0  0  0  0  0  0  0  0  0  0  0  0
   59.7480   34.5800   49.5710 O   0  0  0  0  0  0  0  0  0  0  0  0
   61.6560   33.7900   50.6590 N   0  0  0  0  0  0  0  0  0  0  0  0
   61.7420   33.5040   52.1060 C   0  0  0  0  0  0  0  0  0  0  0  0
   63.1190   33.8430   52.6930 C   0  0  0  0  0  0  0  0  0  0  0  0
   64.2150   33.3350   51.7980 C   0  0  0  0  0  0  0  0  0  0  0  0
   65.3810   32.7590   52.3250 C   0  0  0  0  0  0  0  0  0  0  0  0
   66.3990   32.3240   51.4670 C   0  0  0  0  0  0  0  0  0  0  0  0
   66.2600   32.4760   50.0840 C   0  0  0  0  0  0  0  0  0  0  0  0
   65.1090   33.0680   49.5540 C   0  0  0  0  0  0  0  0  0  0  0  0
   64.0790   33.4920   50.4090 C   0  0  0  0  0  0  0  0  0  0  0  0
   62.8430   34.1630   49.8670 C   0  0  0  0  0  0  0  0  0  0  0  0
   58.9770   31.6930   50.6040 N   0  0  0  0  0  0  0  0  0  0  0  0
   58.4530   30.4520   50.4280 C   0  0  0  0  0  0  0  0  0  0  0  0
   57.6190   30.0000   51.2570 O   0  0  0  0  0  0  0  0  0  0  0  0
   58.8380   29.6810   49.3290 C   0  0  0  0  0  0  0  0  0  0  0  0
   57.2224   26.1833   45.7139 H   0  0  0  0  0  0  0  0  0  0  0  0
   56.3935   27.4184   46.7122 H   0  0  0  0  0  0  0  0  0  0  0  0
   57.2673   30.7942   42.3569 H   0  0  0  0  0  0  0  0  0  0  0  0
   58.5308   33.1020   42.9933 H   0  0  0  0  0  0  0  0  0  0  0  0
   58.6400   29.5610   45.8240 H   0  0  0  0  0  0  0  0  0  0  0  0
   60.7942   28.4769   47.6427 H   0  0  0  0  0  0  0  0  0  0  0  0
   60.8935   29.9539   46.6172 H   0  0  0  0  0  0  0  0  0  0  0  0
   61.0626   31.8798   47.9436 H   0  0  0  0  0  0  0  0  0  0  0  0
   60.9795   34.0999   52.6290 H   0  0  0  0  0  0  0  0  0  0  0  0
   61.5775   32.4250   52.2431 H   0  0  0  0  0  0  0  0  0  0  0  0
   63.2106   34.9346   52.7930 H   0  0  0  0  0  0  0  0  0  0  0  0
   63.2132   33.3616   53.6776 H   0  0  0  0  0  0  0  0  0  0  0  0
   65.4957   32.6490   53.4135 H   0  0  0  0  0  0  0  0  0  0  0  0
   67.3078   31.8628   51.8811 H   0  0  0  0  0  0  0  0  0  0  0  0
   67.0580   32.1291   49.4111 H   0  0  0  0  0  0  0  0  0  0  0  0
   65.0106   33.2015   48.4666 H   0  0  0  0  0  0  0  0  0  0  0  0
   62.9767   35.2540   49.9092 H   0  0  0  0  0  0  0  0  0  0  0  0
   62.6909   33.8365   48.8277 H   0  0  0  0  0  0  0  0  0  0  0  0
   58.4040   28.6822   49.1740 H   0  0  0  0  0  0  0  0  0  0  0  0
  1  2  2  0
  2  3  1  0
  3  4  1  0
  4  5  1  0
  5  6  2  0
  5  7  1  0
  7  8  2  0
  8  9  1  0
  9 10  2  0
 10 11  1  0
 10 12  1  0
  2 13  1  0
 13 14  1  0
 14 15  1  0
 15 16  1  0
 16 17  2  0
 17 18  1  0
 18 19  2  0
 18 20  1  0
 20 21  1  0
 21 22  1  0
 22 23  1  0
 23 24  2  0
 24 25  1  0
 25 26  2  0
 26 27  1  0
 27 28  2  0
 28 29  1  0
 17 30  1  0
 30 31  1  0
 31 32  2  0
 31 33  1  0
 12  7  1  0
 33 15  2  0
 29 20  1  0
 28 23  1  0
  3 34  1  0
  3 35  1  0
  8 36  1  0
  9 37  1  0
 13 38  1  0
 14 39  1  0
 14 40  1  0
 16 41  1  0
 21 42  1  0
 21 43  1  0
 22 44  1  0
 22 45  1  0
 24 46  1  0
 25 47  1  0
 26 48  1  0
 27 49  1  0
 29 50  1  0
 29 51  1  0
 33 52  1  0
M  CHG  2   4  -1  30  -1
M  END
>  <UniqueID>  (25) 
25

>  <SMILES>  (25) 
O=C(C[N-]C(=O)c1ccc(Br)o1)NCc1cc(C(=O)N2CCc3ccccc3C2)[n-]c(=O)c1

>  <Energy>  (25) 
88.3439323622783

>  <Genealogy>  (25) 
O=C(C[N-]C(=O)c1ccc(Br)o1)NCc1cc(C(=O)N2CCc3ccccc3C2)[n-]c(=O)c1 (protonated)
O=C(C[N-]C(=O)c1ccc(Br)o1)NCc1cc(C(=O)N2CCc3ccccc3C2)[n-]c(=O)c1 (3D coordinates assigned)
O=C(C[N-]C(=O)c1ccc(Br)o1)NCc1cc(C(=O)N2CCc3ccccc3C2)[n-]c(=O)c1 (nonaromatic ring conformer: 88.3439323622783 kcal/mol)

>  <smiles>  (25) 
O=C(CNC(=O)c1ccc(Br)o1)NCc1cc(C(=O)N2CCc3ccccc3C2)[nH]c(=O)c1

>  <score_type>  (25) 
oracle

>  <origin>  (25) 
adg

>  <m_score__min__energy>  (25) 
-13.609999999999999

>  <m_primary>  (25) 
energy

$$$$
25:0
     RDKit          3D

 32 34  0  0  0  0  0  0  0  0999 V2000
   54.6181   28.9637   55.4998 H   0  0  0  0  0  0  0  0  0  0  0  0
   54.0450   29.4940   54.7250 C   0  0  0  0  0  0  0  0  0  0  0  0
   52.9673   29.6680   54.8603 H   0  0  0  0  0  0  0  0  0  0  0  0
   54.6610   29.9290   53.6140 C   0  0  0  0  0  0  0  0  0  0  0  0
   54.0700   30.6160   52.5440 C   0  0  0  0  0  0  0  0  0  0  0  0
   52.7720   30.9690   52.4290 C   0  0  0  0  0  0  0  0  0  0  0  0
   52.2131   31.1354   53.3617 H   0  0  0  0  0  0  0  0  0  0  0  0
   52.0340   31.1520   51.1580 C   0  0  0  0  0  0  0  0  0  0  0  0
   51.9850   30.2760   50.1390 N   0  0  0  0  0  0  0  0  0  0  0  0
   51.1680   30.8730   49.2460 C   0  0  0  0  0  0  0  0  0  0  0  0
   50.8760   30.3520   48.1380 O   0  0  0  0  0  0  0  0  0  0  0  0
   50.6870   32.0730   49.6340 N   0  0  0  0  0  0  0  0  0  0  0  0
   51.2410   32.2320   50.8470 C   0  0  0  0  0  0  0  0  0  0  0  0
   51.0250   33.3420   51.6530 O   0  0  0  0  0  0  0  0  0  0  0  0
   55.0970   30.8790   51.6430 C   0  0  0  0  0  0  0  0  0  0  0  0
   55.0091   31.4135   50.6856 H   0  0  0  0  0  0  0  0  0  0  0  0
   56.2490   30.3390   52.1830 C   0  0  0  0  0  0  0  0  0  0  0  0
   57.6030   30.4150   51.5470 C   0  0  0  0  0  0  0  0  0  0  0  0
   58.3741   30.4583   52.3303 H   0  0  0  0  0  0  0  0  0  0  0  0
   57.7650   29.5245   50.9218 H   0  0  0  0  0  0  0  0  0  0  0  0
   57.6643   31.3180   50.9218 H   0  0  0  0  0  0  0  0  0  0  0  0
   55.9870   29.7740   53.3810 N   0  0  0  0  0  0  0  0  0  0  0  0
   56.9470   29.1160   54.2260 C   0  0  0  0  0  0  0  0  0  0  0  0
   57.1820   27.7420   54.0830 C   0  0  0  0  0  0  0  0  0  0  0  0
   56.6263   27.1637   53.3301 H   0  0  0  0  0  0  0  0  0  0  0  0
   58.1220   27.1080   54.8970 C   0  0  0  0  0  0  0  0  0  0  0  0
   58.3123   26.0299   54.7898 H   0  0  0  0  0  0  0  0  0  0  0  0
   58.8180   27.8550   55.8480 C   0  0  0  0  0  0  0  0  0  0  0  0
   59.5629   27.3657   56.4928 H   0  0  0  0  0  0  0  0  0  0  0  0
   58.5770   29.1870   55.9790 N   0  0  0  0  0  0  0  0  0  0  0  0
   57.6670   29.8300   55.1990 C   0  0  0  0  0  0  0  0  0  0  0  0
   57.4670   31.0620   55.3640 O   0  0  0  0  0  0  0  0  0  0  0  0
  1  2  1  0
  2  3  1  0
  2  4  2  0
  4  5  1  0
  5  6  2  0
  6  7  1  0
  6  8  1  0
  8  9  1  0
  9 10  1  0
 10 11  2  0
 10 12  1  0
 12 13  1  0
 13 14  1  0
  5 15  1  0
 15 16  1  0
 15 17  2  0
 17 18  1  0
 18 19  1  0
 18 20  1  0
 18 21  1  0
 17 22  1  0
 22 23  1  0
 23 24  2  0
 24 25  1  0
 24 26  1  0
 26 27  1  0
 26 28  2  0
 28 29  1  0
 28 30  1  0
 30 31  1  0
 31 32  2  0
 22  4  1  0
 31 23  1  0
 13  8  2  0
M  CHG  4   9  -1  12  -1  14  -1  30  -1
M  END
>  <UniqueID>  (26) 
26

>  <SMILES>  (26) 
C=c1/c(=C/c2[n-]c(=O)[n-]c2[O-])cc(C)n1-c1ccc[n-]c1=O

>  <Energy>  (26) 
104.51611242655449

>  <Genealogy>  (26) 
C=c1c(=Cc2[n-]c(=O)[n-]c2[O-])cc(C)n1-c1ccc[n-]c1=O (protonated)
C=c1/c(=C/c2[n-]c(=O)[n-]c2[O-])cc(C)n1-c1ccc[n-]c1=O (cis-trans isomerization)
C=c1/c(=C/c2[n-]c(=O)[n-]c2[O-])cc(C)n1-c1ccc[n-]c1=O (3D coordinates assigned)
C=c1/c(=C/c2[n-]c(=O)[n-]c2[O-])cc(C)n1-c1ccc[n-]c1=O (optimized conformer: 104.51611242655449 kcal/mol)

>  <smiles>  (26) 
C=c1c(=Cc2[nH]c(=O)[nH]c2O)cc(C)n1-c1ccc[nH]c1=O

>  <score_type>  (26) 
oracle

>  <origin>  (26) 
adg

>  <m_score__min__energy>  (26) 
-16.379999999999999

>  <m_primary>  (26) 
energy

$$$$
26:0
     RDKit          3D

 54 57  0  0  0  0  0  0  0  0999 V2000
   55.0720   30.3890   51.2640 O   0  0  0  0  0  0  0  0  0  0  0  0
   54.7340   30.5200   52.4700 C   0  0  0  0  0  0  0  0  0  0  0  0
   53.3430   30.1310   52.8850 C   0  0  0  0  0  0  0  0  0  0  0  0
   52.3370   31.0870   52.3220 C   0  0  0  0  0  0  0  0  0  0  0  0
   51.6460   31.9770   53.0560 N   0  0  0  0  0  0  0  0  0  0  0  0
   50.8870   32.6130   52.1380 C   0  0  0  0  0  0  0  0  0  0  0  0
   50.0860   33.5370   52.4430 O   0  0  0  0  0  0  0  0  0  0  0  0
   51.0530   32.1850   50.8680 N   0  0  0  0  0  0  0  0  0  0  0  0
   51.9750   31.2180   51.0020 C   0  0  0  0  0  0  0  0  0  0  0  0
   52.4760   30.4680   49.9440 O   0  0  0  0  0  0  0  0  0  0  0  0
   55.6780   31.0740   53.3940 N   0  0  0  0  0  0  0  0  0  0  0  0
   56.8930   31.7810   53.0130 C   0  0  0  0  0  0  0  0  0  0  0  0
   57.7030   30.9160   52.0920 C   0  0  0  0  0  0  0  0  0  0  0  0
   58.4070   29.8140   52.5980 C   0  0  0  0  0  0  0  0  0  0  0  0
   59.1880   29.0240   51.7490 C   0  0  0  0  0  0  0  0  0  0  0  0
   59.2860   29.3280   50.3790 C   0  0  0  0  0  0  0  0  0  0  0  0
   60.1070   28.4860   49.4790 C   0  0  0  0  0  0  0  0  0  0  0  0
   60.7660   27.5190   49.9510 O   0  0  0  0  0  0  0  0  0  0  0  0
   60.1920   28.7990   48.0810 N   0  0  0  0  0  0  0  0  0  0  0  0
   59.3470   28.2950   47.0350 C   0  0  0  0  0  0  0  0  0  0  0  0
   59.7670   27.1640   46.3240 C   0  0  0  0  0  0  0  0  0  0  0  0
   58.9880   26.6530   45.2850 C   0  0  0  0  0  0  0  0  0  0  0  0
   57.7880   27.2760   44.9370 C   0  0  0  0  0  0  0  0  0  0  0  0
   57.3600   28.4220   45.6180 C   0  0  0  0  0  0  0  0  0  0  0  0
   56.1540   29.0190   45.2210 O   0  0  0  0  0  0  0  0  0  0  0  0
   55.9670   29.7240   43.9980 C   0  0  0  0  0  0  0  0  0  0  0  0
   56.8110   30.9600   44.0070 C   0  0  0  0  0  0  0  0  0  0  0  0
   57.3770   31.4470   42.8200 C   0  0  0  0  0  0  0  0  0  0  0  0
   58.1340   32.6200   42.8530 C   0  0  0  0  0  0  0  0  0  0  0  0
   58.3120   33.2980   44.0610 C   0  0  0  0  0  0  0  0  0  0  0  0
   57.7220   32.7920   45.2210 C   0  0  0  0  0  0  0  0  0  0  0  0
   56.9880   31.6470   45.1700 N   0  0  0  0  0  0  0  0  0  0  0  0
   58.1500   28.9360   46.6650 C   0  0  0  0  0  0  0  0  0  0  0  0
   58.5900   30.4440   49.8800 C   0  0  0  0  0  0  0  0  0  0  0  0
   57.8110   31.2340   50.7300 C   0  0  0  0  0  0  0  0  0  0  0  0
   53.1255   29.1182   52.5150 H   0  0  0  0  0  0  0  0  0  0  0  0
   53.2806   30.1572   53.9829 H   0  0  0  0  0  0  0  0  0  0  0  0
   53.4710   30.4420   49.7560 H   0  0  0  0  0  0  0  0  0  0  0  0
   56.6277   32.7168   52.4993 H   0  0  0  0  0  0  0  0  0  0  0  0
   57.4816   32.0129   53.9129 H   0  0  0  0  0  0  0  0  0  0  0  0
   58.3445   29.5697   53.6687 H   0  0  0  0  0  0  0  0  0  0  0  0
   59.7303   28.1576   52.1557 H   0  0  0  0  0  0  0  0  0  0  0  0
   60.7170   26.6753   46.5862 H   0  0  0  0  0  0  0  0  0  0  0  0
   59.3201   25.7576   44.7391 H   0  0  0  0  0  0  0  0  0  0  0  0
   57.1746   26.8637   44.1223 H   0  0  0  0  0  0  0  0  0  0  0  0
   56.2632   29.0826   43.1549 H   0  0  0  0  0  0  0  0  0  0  0  0
   54.9080   30.0011   43.8900 H   0  0  0  0  0  0  0  0  0  0  0  0
   57.2261   30.9101   41.8719 H   0  0  0  0  0  0  0  0  0  0  0  0
   58.5889   33.0089   41.9301 H   0  0  0  0  0  0  0  0  0  0  0  0
   58.9103   34.2203   44.0982 H   0  0  0  0  0  0  0  0  0  0  0  0
   57.8506   33.3196   46.1776 H   0  0  0  0  0  0  0  0  0  0  0  0
   57.8293   29.8440   47.1967 H   0  0  0  0  0  0  0  0  0  0  0  0
   58.6594   30.6971   48.8118 H   0  0  0  0  0  0  0  0  0  0  0  0
   57.2798   32.1097   50.3289 H   0  0  0  0  0  0  0  0  0  0  0  0
  1  2  2  0
  2  3  1  0
  3  4  1  0
  4  5  1  0
  5  6  1  0
  6  7  2  0
  6  8  1  0
  8  9  1  0
  9 10  1  0
  2 11  1  0
 11 12  1  0
 12 13  1  0
 13 14  2  0
 14 15  1  0
 15 16  2  0
 16 17  1  0
 17 18  2  0
 17 19  1  0
 19 20  1  0
 20 21  2  0
 21 22  1  0
 22 23  2  0
 23 24  1  0
 24 25  1  0
 25 26  1  0
 26 27  1  0
 27 28  2  0
 28 29  1  0
 29 30  2  0
 30 31  1  0
 31 32  2  0
 24 33  2  0
 16 34  1  0
 34 35  2  0
  9  4  2  0
 35 13  1  0
 33 20  1  0
 32 27  1  0
  3 36  1  0
  3 37  1  0
 10 38  1  0
 12 39  1  0
 12 40  1  0
 14 41  1  0
 15 42  1  0
 21 43  1  0
 22 44  1  0
 23 45  1  0
 26 46  1  0
 26 47  1  0
 28 48  1  0
 29 49  1  0
 30 50  1  0
 31 51  1  0
 33 52  1  0
 34 53  1  0
 35 54  1  0
M  CHG  4   5  -1   8  -1  11  -1  19  -1
M  END
>  <UniqueID>  (27) 
27

>  <SMILES>  (27) 
O=C(Cc1[n-]c(=O)[n-]c1O)[N-]Cc1ccc(C(=O)[N-]c2cccc(OCc3ccccn3)c2)cc1

>  <Energy>  (27) 
86.47846756601159

>  <Genealogy>  (27) 
O=C(Cc1[n-]c(=O)[n-]c1O)[N-]Cc1ccc(C(=O)[N-]c2cccc(OCc3ccccn3)c2)cc1 (protonated)
O=C(Cc1[n-]c(=O)[n-]c1O)[N-]Cc1ccc(C(=O)[N-]c2cccc(OCc3ccccn3)c2)cc1 (3D coordinates assigned)
O=C(Cc1[n-]c(=O)[n-]c1O)[N-]Cc1ccc(C(=O)[N-]c2cccc(OCc3ccccn3)c2)cc1 (optimized conformer: 86.47846756601159 kcal/mol)

>  <smiles>  (27) 
O=C(Cc1[nH]c(=O)[nH]c1O)NCc1ccc(C(=O)Nc2cccc(OCc3ccccn3)c2)cc1

>  <score_type>  (27) 
oracle

>  <origin>  (27) 
adg

>  <m_score__min__energy>  (27) 
-17.170000000000002

>  <m_primary>  (27) 
energy

$$$$
27:0
     RDKit          3D

 68 71  0  0  0  0  0  0  0  0999 V2000
   55.7420   22.2990   42.4720 N   0  0  0  0  0  0  0  0  0  0  0  0
   56.6160   21.4590   43.7030 S   0  0  0  0  0  0  0  0  0  0  0  0
   58.0900   21.5460   43.4250 O   0  0  0  0  0  0  0  0  0  0  0  0
   56.2040   20.0120   43.6940 O   0  0  0  0  0  0  0  0  0  0  0  0
   56.2740   22.1940   45.2670 C   0  0  0  0  0  0  0  0  0  0  0  0
   55.5790   21.4880   46.2590 C   0  0  0  0  0  0  0  0  0  0  0  0
   55.3200   22.0910   47.4950 C   0  0  0  0  0  0  0  0  0  0  0  0
   55.7410   23.4020   47.7390 C   0  0  0  0  0  0  0  0  0  0  0  0
   56.4060   24.1270   46.7430 C   0  0  0  0  0  0  0  0  0  0  0  0
   56.8170   25.4740   47.0090 N   0  0  0  0  0  0  0  0  0  0  0  0
   56.7230   26.5660   46.0860 C   0  0  0  0  0  0  0  0  0  0  0  0
   55.5980   27.0850   45.8660 O   0  0  0  0  0  0  0  0  0  0  0  0
   57.9240   27.0610   45.3220 C   0  0  0  0  0  0  0  0  0  0  0  0
   58.7860   27.9420   46.1870 C   0  0  0  0  0  0  0  0  0  0  0  0
   58.8590   27.7330   47.5740 C   0  0  0  0  0  0  0  0  0  0  0  0
   59.6950   28.5270   48.3660 C   0  0  0  0  0  0  0  0  0  0  0  0
   60.4480   29.5640   47.7850 C   0  0  0  0  0  0  0  0  0  0  0  0
   61.3400   30.3860   48.5500 N   0  0  0  0  0  0  0  0  0  0  0  0
   61.1520   31.7580   48.9220 C   0  0  0  0  0  0  0  0  0  0  0  0
   62.1400   32.5450   48.9480 O   0  0  0  0  0  0  0  0  0  0  0  0
   59.8010   32.2150   49.4400 C   0  0  0  0  0  0  0  0  0  0  0  0
   58.6360   31.7990   48.4930 C   0  0  0  0  0  0  0  0  0  0  0  0
   57.9900   32.9680   47.7310 C   0  0  0  0  0  0  0  0  0  0  0  0
   58.9950   33.9790   47.3650 N   0  0  0  0  0  0  0  0  0  0  0  0
   59.1180   34.4920   46.0190 C   0  0  0  0  0  0  0  0  0  0  0  0
   60.1710   35.1070   45.6890 O   0  0  0  0  0  0  0  0  0  0  0  0
   58.0440   34.2590   44.9800 C   0  0  0  0  0  0  0  0  0  0  0  0
   58.5150   33.4250   43.7750 C   0  0  0  0  0  0  0  0  0  0  0  0
   57.7720   32.1150   43.6710 C   0  0  0  0  0  0  0  0  0  0  0  0
   57.4490   31.3930   44.8310 C   0  0  0  0  0  0  0  0  0  0  0  0
   56.7330   30.1950   44.7380 C   0  0  0  0  0  0  0  0  0  0  0  0
   56.3350   29.7120   43.4900 C   0  0  0  0  0  0  0  0  0  0  0  0
   56.6530   30.4240   42.3310 C   0  0  0  0  0  0  0  0  0  0  0  0
   57.3700   31.6210   42.4180 C   0  0  0  0  0  0  0  0  0  0  0  0
   59.8610   34.5370   48.4160 C   0  0  0  0  0  0  0  0  0  0  0  0
   59.7660   33.7340   49.7220 C   0  0  0  0  0  0  0  0  0  0  0  0
   60.3880   29.7570   46.4010 C   0  0  0  0  0  0  0  0  0  0  0  0
   59.5680   28.9510   45.6050 C   0  0  0  0  0  0  0  0  0  0  0  0
   56.6930   23.5080   45.5150 C   0  0  0  0  0  0  0  0  0  0  0  0
   56.4450   22.7400   41.8370 H   0  0  0  0  0  0  0  0  0  0  0  0
   55.2374   20.4604   46.0658 H   0  0  0  0  0  0  0  0  0  0  0  0
   54.7840   21.5324   48.2764 H   0  0  0  0  0  0  0  0  0  0  0  0
   55.5488   23.8656   48.7178 H   0  0  0  0  0  0  0  0  0  0  0  0
   58.5164   26.1980   44.9838 H   0  0  0  0  0  0  0  0  0  0  0  0
   57.5744   27.6487   44.4604 H   0  0  0  0  0  0  0  0  0  0  0  0
   58.2553   26.9404   48.0401 H   0  0  0  0  0  0  0  0  0  0  0  0
   59.7641   28.3399   49.4478 H   0  0  0  0  0  0  0  0  0  0  0  0
   59.6511   31.6965   50.3985 H   0  0  0  0  0  0  0  0  0  0  0  0
   59.0301   31.0836   47.7561 H   0  0  0  0  0  0  0  0  0  0  0  0
   57.8508   31.3675   49.1312 H   0  0  0  0  0  0  0  0  0  0  0  0
   57.5172   32.5830   46.8155 H   0  0  0  0  0  0  0  0  0  0  0  0
   57.2401   33.4395   48.3832 H   0  0  0  0  0  0  0  0  0  0  0  0
   57.2059   33.7323   45.4598 H   0  0  0  0  0  0  0  0  0  0  0  0
   57.7542   35.2467   44.5921 H   0  0  0  0  0  0  0  0  0  0  0  0
   58.3463   34.0034   42.8547 H   0  0  0  0  0  0  0  0  0  0  0  0
   59.5830   33.2007   43.9127 H   0  0  0  0  0  0  0  0  0  0  0  0
   57.7600   31.7707   45.8162 H   0  0  0  0  0  0  0  0  0  0  0  0
   56.4831   29.6325   45.6497 H   0  0  0  0  0  0  0  0  0  0  0  0
   55.7708   28.7704   43.4193 H   0  0  0  0  0  0  0  0  0  0  0  0
   56.3388   30.0423   41.3484 H   0  0  0  0  0  0  0  0  0  0  0  0
   57.6203   32.1779   41.5030 H   0  0  0  0  0  0  0  0  0  0  0  0
   60.9030   34.5214   48.0638 H   0  0  0  0  0  0  0  0  0  0  0  0
   59.5278   35.5648   48.6225 H   0  0  0  0  0  0  0  0  0  0  0  0
   60.6141   33.9994   50.3703 H   0  0  0  0  0  0  0  0  0  0  0  0
   58.8136   33.9777   50.2155 H   0  0  0  0  0  0  0  0  0  0  0  0
   60.9912   30.5498   45.9345 H   0  0  0  0  0  0  0  0  0  0  0  0
   59.5360   29.1089   44.5169 H   0  0  0  0  0  0  0  0  0  0  0  0
   57.2504   24.0585   44.7429 H   0  0  0  0  0  0  0  0  0  0  0  0
  1  2  1  0
  2  3  2  0
  2  4  2  0
  2  5  1  0
  5  6  2  0
  6  7  1  0
  7  8  2  0
  8  9  1  0
  9 10  1  0
 10 11  1  0
 11 12  2  0
 11 13  1  0
 13 14  1  0
 14 15  2  0
 15 16  1  0
 16 17  2  0
 17 18  1  0
 18 19  1  0
 19 20  2  0
 19 21  1  0
 21 22  1  0
 22 23  1  0
 23 24  1  0
 24 25  1  0
 25 26  2  0
 25 27  1  0
 27 28  1  0
 28 29  1  0
 29 30  2  0
 30 31  1  0
 31 32  2  0
 32 33  1  0
 33 34  2  0
 24 35  1  0
 35 36  1  0
 17 37  1  0
 37 38  2  0
  9 39  2  0
 39  5  1  0
 38 14  1  0
 36 21  1  0
 34 29  1  0
  1 40  1  0
  6 41  1  0
  7 42  1  0
  8 43  1  0
 13 44  1  0
 13 45  1  0
 15 46  1  0
 16 47  1  0
 21 48  1  0
 22 49  1  0
 22 50  1  0
 23 51  1  0
 23 52  1  0
 27 53  1  0
 27 54  1  0
 28 55  1  0
 28 56  1  0
 30 57  1  0
 31 58  1  0
 32 59  1  0
 33 60  1  0
 34 61  1  0
 35 62  1  0
 35 63  1  0
 36 64  1  0
 36 65  1  0
 37 66  1  0
 38 67  1  0
 39 68  1  0
M  CHG  3   1  -1  10  -1  18  -1
M  END
>  <UniqueID>  (28) 
28

>  <SMILES>  (28) 
[NH-]S(=O)(=O)c1cccc([N-]C(=O)Cc2ccc([N-]C(=O)C3CCN(C(=O)CCc4ccccc4)CC3)cc2)c1

>  <Energy>  (28) 
83.46367614811457

>  <Genealogy>  (28) 
[NH-]S(=O)(=O)c1cccc([N-]C(=O)Cc2ccc([N-]C(=O)C3CCN(C(=O)CCc4ccccc4)CC3)cc2)c1 (protonated)
[NH-]S(=O)(=O)c1cccc([N-]C(=O)Cc2ccc([N-]C(=O)C3CCN(C(=O)CCc4ccccc4)CC3)cc2)c1 (3D coordinates assigned)
[NH-]S(=O)(=O)c1cccc([N-]C(=O)Cc2ccc([N-]C(=O)C3CCN(C(=O)CCc4ccccc4)CC3)cc2)c1 (nonaromatic ring conformer: 83.46367614811457 kcal/mol)

>  <smiles>  (28) 
NS(=O)(=O)c1cccc(NC(=O)Cc2ccc(NC(=O)C3CCN(C(=O)CCc4ccccc4)CC3)cc2)c1

>  <score_type>  (28) 
oracle

>  <origin>  (28) 
adg

>  <m_score__min__energy>  (28) 
-16.170000000000002

>  <m_primary>  (28) 
energy

$$$$
28:0
     RDKit          3D

 38 40  0  0  0  0  0  0  0  0999 V2000
   63.3450   34.5820   50.4970 C   0  0  0  0  0  0  0  0  0  0  0  0
   62.5350   33.8150   49.4930 C   0  0  0  0  0  0  0  0  0  0  0  0
   61.1390   33.7470   49.6130 C   0  0  0  0  0  0  0  0  0  0  0  0
   60.3860   33.0100   48.6950 C   0  0  0  0  0  0  0  0  0  0  0  0
   61.0130   32.3260   47.6400 C   0  0  0  0  0  0  0  0  0  0  0  0
   60.1950   31.5470   46.6800 C   0  0  0  0  0  0  0  0  0  0  0  0
   60.4680   30.3290   46.4950 O   0  0  0  0  0  0  0  0  0  0  0  0
   59.1070   32.1560   45.9580 N   0  0  0  0  0  0  0  0  0  0  0  0
   58.2120   31.4260   45.1000 C   0  0  0  0  0  0  0  0  0  0  0  0
   58.0530   31.8340   43.7670 C   0  0  0  0  0  0  0  0  0  0  0  0
   57.1650   31.1630   42.9240 C   0  0  0  0  0  0  0  0  0  0  0  0
   56.4240   30.0820   43.4060 C   0  0  0  0  0  0  0  0  0  0  0  0
   56.5620   29.6620   44.7330 C   0  0  0  0  0  0  0  0  0  0  0  0
   55.7830   28.5850   45.1820 O   0  0  0  0  0  0  0  0  0  0  0  0
   56.2850   27.3560   45.6300 C   0  0  0  0  0  0  0  0  0  0  0  0
   57.6640   27.1850   45.7550 C   0  0  0  0  0  0  0  0  0  0  0  0
   58.1480   25.9630   46.2200 C   0  0  0  0  0  0  0  0  0  0  0  0
   57.2790   24.9710   46.5480 N   0  0  0  0  0  0  0  0  0  0  0  0
   55.9380   25.1540   46.4310 C   0  0  0  0  0  0  0  0  0  0  0  0
   55.1470   24.2250   46.7410 O   0  0  0  0  0  0  0  0  0  0  0  0
   55.4500   26.3380   45.9800 N   0  0  0  0  0  0  0  0  0  0  0  0
   57.4400   30.3570   45.5870 C   0  0  0  0  0  0  0  0  0  0  0  0
   62.4160   32.3730   47.5400 C   0  0  0  0  0  0  0  0  0  0  0  0
   63.1700   33.1100   48.4590 C   0  0  0  0  0  0  0  0  0  0  0  0
   64.5230   33.1260   48.3460 F   0  0  0  0  0  0  0  0  0  0  0  0
   63.0391   34.2924   51.5131 H   0  0  0  0  0  0  0  0  0  0  0  0
   64.4123   34.3557   50.3569 H   0  0  0  0  0  0  0  0  0  0  0  0
   63.1772   35.6601   50.3569 H   0  0  0  0  0  0  0  0  0  0  0  0
   60.6342   34.2768   50.4343 H   0  0  0  0  0  0  0  0  0  0  0  0
   59.2919   32.9650   48.7994 H   0  0  0  0  0  0  0  0  0  0  0  0
   58.9740   33.1890   46.0100 H   0  0  0  0  0  0  0  0  0  0  0  0
   58.6314   32.6876   43.3838 H   0  0  0  0  0  0  0  0  0  0  0  0
   57.0490   31.4863   41.8790 H   0  0  0  0  0  0  0  0  0  0  0  0
   55.7265   29.5568   42.7370 H   0  0  0  0  0  0  0  0  0  0  0  0
   58.3560   27.9986   45.4918 H   0  0  0  0  0  0  0  0  0  0  0  0
   59.2314   25.8021   46.3212 H   0  0  0  0  0  0  0  0  0  0  0  0
   57.5223   30.0611   46.6432 H   0  0  0  0  0  0  0  0  0  0  0  0
   62.9239   31.8255   46.7323 H   0  0  0  0  0  0  0  0  0  0  0  0
  1  2  1  0
  2  3  2  0
  3  4  1  0
  4  5  2  0
  5  6  1  0
  6  7  2  0
  6  8  1  0
  8  9  1  0
  9 10  2  0
 10 11  1  0
 11 12  2  0
 12 13  1  0
 13 14  1  0
 14 15  1  0
 15 16  1  0
 16 17  2  0
 17 18  1  0
 18 19  1  0
 19 20  2  0
 19 21  1  0
 13 22  2  0
  5 23  1  0
 23 24  2  0
 24 25  1  0
 24  2  1  0
 22  9  1  0
 21 15  2  0
  1 26  1  0
  1 27  1  0
  1 28  1  0
  3 29  1  0
  4 30  1  0
  8 31  1  0
 10 32  1  0
 11 33  1  0
 12 34  1  0
 16 35  1  0
 17 36  1  0
 22 37  1  0
 23 38  1  0
M  CHG  1  18  -1
M  END
>  <UniqueID>  (29) 
29

>  <SMILES>  (29) 
Cc1ccc(C(=O)Nc2cccc(Oc3cc[n-]c(=O)n3)c2)cc1F

>  <Energy>  (29) 
52.963444675609594

>  <Genealogy>  (29) 
Cc1ccc(C(=O)Nc2cccc(Oc3cc[n-]c(=O)n3)c2)cc1F (protonated)
Cc1ccc(C(=O)Nc2cccc(Oc3cc[n-]c(=O)n3)c2)cc1F (3D coordinates assigned)
Cc1ccc(C(=O)Nc2cccc(Oc3cc[n-]c(=O)n3)c2)cc1F (optimized conformer: 52.963444675609594 kcal/mol)

>  <smiles>  (29) 
Cc1ccc(C(=O)Nc2cccc(Oc3cc[nH]c(=O)n3)c2)cc1F

>  <score_type>  (29) 
oracle

>  <origin>  (29) 
adg

>  <m_score__min__energy>  (29) 
-9.8699999999999992

>  <m_primary>  (29) 
energy

$$$$
29:0
     RDKit          3D

 67 72  0  0  0  0  0  0  0  0999 V2000
   59.3470   27.8830   43.9290 C   0  0  0  0  0  0  0  0  0  0  0  0
   58.0410   28.3350   44.5790 C   0  0  0  0  0  0  0  0  0  0  0  0
   58.3090   29.1450   45.7720 N   0  0  0  0  0  0  0  0  0  0  0  0
   57.9620   30.4550   45.8770 C   0  0  0  0  0  0  0  0  0  0  0  0
   57.3750   31.0900   44.9580 O   0  0  0  0  0  0  0  0  0  0  0  0
   58.3030   31.0140   47.0600 N   0  0  0  0  0  0  0  0  0  0  0  0
   58.1310   32.4260   47.4300 C   0  0  0  0  0  0  0  0  0  0  0  0
   59.4630   33.0550   47.7480 C   0  0  0  0  0  0  0  0  0  0  0  0
   59.6540   33.7660   48.9450 C   0  0  0  0  0  0  0  0  0  0  0  0
   60.9010   34.3230   49.2440 C   0  0  0  0  0  0  0  0  0  0  0  0
   61.9670   34.1770   48.3510 C   0  0  0  0  0  0  0  0  0  0  0  0
   61.7860   33.4760   47.1560 C   0  0  0  0  0  0  0  0  0  0  0  0
   60.5400   32.9150   46.8550 C   0  0  0  0  0  0  0  0  0  0  0  0
   58.8960   30.0040   47.7380 C   0  0  0  0  0  0  0  0  0  0  0  0
   59.4520   29.9990   49.0130 C   0  0  0  0  0  0  0  0  0  0  0  0
   59.4220   31.0360   49.7290 O   0  0  0  0  0  0  0  0  0  0  0  0
   60.0290   28.8440   49.4740 N   0  0  0  0  0  0  0  0  0  0  0  0
   60.6240   28.8050   50.8280 C   0  0  0  0  0  0  0  0  0  0  0  0
   61.9630   29.4990   50.8330 C   0  0  0  0  0  0  0  0  0  0  0  0
   62.1650   30.6560   50.0610 C   0  0  0  0  0  0  0  0  0  0  0  0
   63.3930   31.3230   50.0960 C   0  0  0  0  0  0  0  0  0  0  0  0
   64.4290   30.8420   50.9020 C   0  0  0  0  0  0  0  0  0  0  0  0
   64.2380   29.6930   51.6740 C   0  0  0  0  0  0  0  0  0  0  0  0
   63.0100   29.0230   51.6430 C   0  0  0  0  0  0  0  0  0  0  0  0
   60.0150   27.6980   48.7000 C   0  0  0  0  0  0  0  0  0  0  0  0
   60.5660   26.6500   49.1420 O   0  0  0  0  0  0  0  0  0  0  0  0
   59.4120   27.6800   47.4540 N   0  0  0  0  0  0  0  0  0  0  0  0
   59.3690   26.4000   46.7160 C   0  0  0  0  0  0  0  0  0  0  0  0
   57.9550   25.9080   46.5350 C   0  0  0  0  0  0  0  0  0  0  0  0
   57.1590   25.9780   47.4650 O   0  0  0  0  0  0  0  0  0  0  0  0
   57.4910   25.4090   45.1910 C   0  0  1  0  0  0  0  0  0  0  0  0
   58.3290   24.3320   44.7470 O   0  0  0  0  0  0  0  0  0  0  0  0
   57.5760   23.1770   44.5770 C   0  0  0  0  0  0  0  0  0  0  0  0
   58.0440   22.0770   44.1850 O   0  0  0  0  0  0  0  0  0  0  0  0
   56.1990   23.4440   44.9080 C   0  0  0  0  0  0  0  0  0  0  0  0
   55.0790   22.6190   44.8760 C   0  0  0  0  0  0  0  0  0  0  0  0
   53.8390   23.1750   45.2360 C   0  0  0  0  0  0  0  0  0  0  0  0
   53.7490   24.5320   45.6110 C   0  0  0  0  0  0  0  0  0  0  0  0
   54.8990   25.3420   45.6280 C   0  0  0  0  0  0  0  0  0  0  0  0
   54.8120   26.6820   45.9810 O   0  0  0  0  0  0  0  0  0  0  0  0
   56.1270   24.7680   45.2790 C   0  0  0  0  0  0  0  0  0  0  0  0
   58.8900   28.8630   46.9770 C   0  0  0  0  0  0  0  0  0  0  0  0
   60.0777   27.6301   44.7114 H   0  0  0  0  0  0  0  0  0  0  0  0
   59.1582   26.9979   43.3037 H   0  0  0  0  0  0  0  0  0  0  0  0
   59.7457   28.6954   43.3037 H   0  0  0  0  0  0  0  0  0  0  0  0
   57.4669   28.9343   43.8571 H   0  0  0  0  0  0  0  0  0  0  0  0
   57.4678   27.4448   44.8773 H   0  0  0  0  0  0  0  0  0  0  0  0
   57.6668   32.9659   46.5915 H   0  0  0  0  0  0  0  0  0  0  0  0
   57.4886   32.4843   48.3210 H   0  0  0  0  0  0  0  0  0  0  0  0
   58.8182   33.8849   49.6502 H   0  0  0  0  0  0  0  0  0  0  0  0
   61.0438   34.8771   50.1835 H   0  0  0  0  0  0  0  0  0  0  0  0
   62.9480   34.6140   48.5893 H   0  0  0  0  0  0  0  0  0  0  0  0
   62.6235   33.3651   46.4515 H   0  0  0  0  0  0  0  0  0  0  0  0
   60.4023   32.3614   45.9145 H   0  0  0  0  0  0  0  0  0  0  0  0
   59.9504   29.3116   51.5348 H   0  0  0  0  0  0  0  0  0  0  0  0
   60.7644   27.7556   51.1264 H   0  0  0  0  0  0  0  0  0  0  0  0
   61.3525   31.0387   49.4259 H   0  0  0  0  0  0  0  0  0  0  0  0
   63.5443   32.2275   49.4886 H   0  0  0  0  0  0  0  0  0  0  0  0
   65.3947   31.3681   50.9285 H   0  0  0  0  0  0  0  0  0  0  0  0
   65.0542   29.3147   52.3070 H   0  0  0  0  0  0  0  0  0  0  0  0
   62.8627   28.1205   52.2544 H   0  0  0  0  0  0  0  0  0  0  0  0
   59.8259   26.5439   45.7258 H   0  0  0  0  0  0  0  0  0  0  0  0
   59.9215   25.6489   47.2996 H   0  0  0  0  0  0  0  0  0  0  0  0
   57.5031   26.2850   44.5258 H   0  0  0  0  0  0  0  0  0  0  0  0
   55.1614   21.5634   44.5779 H   0  0  0  0  0  0  0  0  0  0  0  0
   52.9346   22.5489   45.2252 H   0  0  0  0  0  0  0  0  0  0  0  0
   52.7748   24.9588   45.8915 H   0  0  0  0  0  0  0  0  0  0  0  0
  1  2  1  0
  2  3  1  0
  3  4  1  0
  4  5  2  0
  4  6  1  0
  6  7  1  0
  7  8  1  0
  8  9  2  0
  9 10  1  0
 10 11  2  0
 11 12  1  0
 12 13  2  0
  6 14  1  0
 14 15  1  0
 15 16  2  0
 15 17  1  0
 17 18  1  0
 18 19  1  0
 19 20  2  0
 20 21  1  0
 21 22  2  0
 22 23  1  0
 23 24  2  0
 17 25  1  0
 25 26  2  0
 25 27  1  0
 27 28  1  0
 28 29  1  0
 29 30  2  0
 29 31  1  0
 31 32  1  0
 32 33  1  0
 33 34  2  0
 33 35  1  0
 35 36  2  0
 36 37  1  0
 37 38  2  0
 38 39  1  0
 39 40  1  0
 39 41  2  0
 27 42  1  0
 42  3  1  0
 13  8  1  0
 42 14  2  0
 24 19  1  0
 41 31  1  0
 41 35  1  0
  1 43  1  0
  1 44  1  0
  1 45  1  0
  2 46  1  0
  2 47  1  0
  7 48  1  0
  7 49  1  0
  9 50  1  0
 10 51  1  0
 11 52  1  0
 12 53  1  0
 13 54  1  0
 18 55  1  0
 18 56  1  0
 20 57  1  0
 21 58  1  0
 22 59  1  0
 23 60  1  0
 24 61  1  0
 28 62  1  0
 28 63  1  0
 31 64  1  6
 36 65  1  0
 37 66  1  0
 38 67  1  0
M  CHG  1  40  -1
M  END
>  <UniqueID>  (30) 
30

>  <SMILES>  (30) 
CCn1c(=O)n(Cc2ccccc2)c2c(=O)n(Cc3ccccc3)c(=O)n(CC(=O)[C@H]3OC(=O)c4cccc([O-])c43)c21

>  <Energy>  (30) 
152.4940728503316

>  <Genealogy>  (30) 
CCn1c(=O)n(Cc2ccccc2)c2c(=O)n(Cc3ccccc3)c(=O)n(CC(=O)C3OC(=O)c4cccc([O-])c43)c21 (protonated)
CCn1c(=O)n(Cc2ccccc2)c2c(=O)n(Cc3ccccc3)c(=O)n(CC(=O)[C@H]3OC(=O)c4cccc([O-])c43)c21 (chirality)
CCn1c(=O)n(Cc2ccccc2)c2c(=O)n(Cc3ccccc3)c(=O)n(CC(=O)[C@H]3OC(=O)c4cccc([O-])c43)c21 (3D coordinates assigned)
CCn1c(=O)n(Cc2ccccc2)c2c(=O)n(Cc3ccccc3)c(=O)n(CC(=O)[C@H]3OC(=O)c4cccc([O-])c43)c21 (nonaromatic ring conformer: 152.4940728503316 kcal/mol)

>  <smiles>  (30) 
CCn1c(=O)n(Cc2ccccc2)c2c(=O)n(Cc3ccccc3)c(=O)n(CC(=O)C3OC(=O)c4cccc(O)c43)c21

>  <score_type>  (30) 
oracle

>  <origin>  (30) 
adg

>  <m_score__min__energy>  (30) 
-12.76

>  <m_primary>  (30) 
energy

$$$$
30:0
     RDKit          3D

 37 38  0  0  0  0  0  0  0  0999 V2000
   56.7600   27.2420   45.6420 C   0  0  0  0  0  0  0  0  0  0  0  0
   56.0220   28.3980   45.2570 O   0  0  0  0  0  0  0  0  0  0  0  0
   56.4990   29.4140   44.4130 C   0  0  0  0  0  0  0  0  0  0  0  0
   56.1450   29.4470   43.0490 C   0  0  0  0  0  0  0  0  0  0  0  0
   56.6330   30.4460   42.2100 C   0  0  0  0  0  0  0  0  0  0  0  0
   57.4720   31.4400   42.7110 C   0  0  0  0  0  0  0  0  0  0  0  0
   58.1340   32.6250   41.5900 Cl  0  0  0  0  0  0  0  0  0  0  0  0
   57.8160   31.4460   44.0750 C   0  0  0  0  0  0  0  0  0  0  0  0
   58.6680   32.4700   44.6090 N   0  0  0  0  0  0  0  0  0  0  0  0
   58.1820   33.7880   44.9000 C   0  0  0  0  0  0  0  0  0  0  0  0
   57.0180   34.1290   44.5560 O   0  0  0  0  0  0  0  0  0  0  0  0
   59.0250   34.7500   45.6790 C   0  0  0  0  0  0  0  0  0  0  0  0
   60.3150   34.1940   45.9130 O   0  0  0  0  0  0  0  0  0  0  0  0
   60.5570   33.1720   46.8410 C   0  0  0  0  0  0  0  0  0  0  0  0
   59.6390   32.3700   47.1670 O   0  0  0  0  0  0  0  0  0  0  0  0
   61.8930   33.0350   47.4300 C   0  0  0  0  0  0  0  0  0  0  0  0
   63.0060   33.8140   47.1340 C   0  0  0  0  0  0  0  0  0  0  0  0
   64.1430   33.4480   47.8640 C   0  0  0  0  0  0  0  0  0  0  0  0
   63.9300   32.3840   48.7340 C   0  0  0  0  0  0  0  0  0  0  0  0
   62.3270   31.8990   48.5910 S   0  0  0  0  0  0  0  0  0  0  0  0
   57.3490   30.4280   44.9300 C   0  0  0  0  0  0  0  0  0  0  0  0
   57.7560   30.4890   46.2780 O   0  0  0  0  0  0  0  0  0  0  0  0
   58.7100   29.6490   46.9200 C   0  0  0  0  0  0  0  0  0  0  0  0
   56.7991   27.1807   46.7396 H   0  0  0  0  0  0  0  0  0  0  0  0
   56.2683   26.3430   45.2418 H   0  0  0  0  0  0  0  0  0  0  0  0
   57.7824   27.3096   45.2418 H   0  0  0  0  0  0  0  0  0  0  0  0
   55.4755   28.6747   42.6424 H   0  0  0  0  0  0  0  0  0  0  0  0
   56.3547   30.4506   41.1458 H   0  0  0  0  0  0  0  0  0  0  0  0
   59.5970   32.1810   44.9960 H   0  0  0  0  0  0  0  0  0  0  0  0
   59.1300   35.6852   45.1094 H   0  0  0  0  0  0  0  0  0  0  0  0
   58.5400   34.9520   46.6454 H   0  0  0  0  0  0  0  0  0  0  0  0
   62.9943   34.6341   46.4010 H   0  0  0  0  0  0  0  0  0  0  0  0
   65.1139   33.9544   47.7594 H   0  0  0  0  0  0  0  0  0  0  0  0
   64.6816   31.9367   49.4011 H   0  0  0  0  0  0  0  0  0  0  0  0
   58.6047   29.7417   48.0110 H   0  0  0  0  0  0  0  0  0  0  0  0
   58.5376   28.6041   46.6224 H   0  0  0  0  0  0  0  0  0  0  0  0
   59.7246   29.9523   46.6224 H   0  0  0  0  0  0  0  0  0  0  0  0
  1  2  1  0
  2  3  1  0
  3  4  2  0
  4  5  1  0
  5  6  2  0
  6  7  1  0
  6  8  1  0
  8  9  1  0
  9 10  1  0
 10 11  2  0
 10 12  1  0
 12 13  1  0
 13 14  1  0
 14 15  2  0
 14 16  1  0
 16 17  2  0
 17 18  1  0
 18 19  2  0
 19 20  1  0
  8 21  2  0
 21 22  1  0
 22 23  1  0
 21  3  1  0
 20 16  1  0
  1 24  1  0
  1 25  1  0
  1 26  1  0
  4 27  1  0
  5 28  1  0
  9 29  1  0
 12 30  1  0
 12 31  1  0
 17 32  1  0
 18 33  1  0
 19 34  1  0
 23 35  1  0
 23 36  1  0
 23 37  1  0
M  END
>  <UniqueID>  (31) 
31

>  <SMILES>  (31) 
COc1ccc(Cl)c(NC(=O)COC(=O)c2cccs2)c1OC

>  <Energy>  (31) 
67.43467907333925

>  <Genealogy>  (31) 
COc1ccc(Cl)c(NC(=O)COC(=O)c2cccs2)c1OC (3D coordinates assigned)
COc1ccc(Cl)c(NC(=O)COC(=O)c2cccs2)c1OC (optimized conformer: 67.43467907333925 kcal/mol)

>  <smiles>  (31) 
COc1ccc(Cl)c(NC(=O)COC(=O)c2cccs2)c1OC

>  <score_type>  (31) 
oracle

>  <origin>  (31) 
adg

>  <m_score__min__energy>  (31) 
-7.9500000000000002

>  <m_primary>  (31) 
energy

$$$$
31:0
     RDKit          3D

 39 41  0  0  0  0  0  0  0  0999 V2000
   55.5690   29.7370   45.9380 H   0  0  0  0  0  0  0  0  0  0  0  0
   55.6850   28.9830   45.2720 O   0  0  0  0  0  0  0  0  0  0  0  0
   56.2660   27.7590   45.6070 C   0  0  0  0  0  0  0  0  0  0  0  0
   55.4480   26.7120   45.8930 N   0  0  0  0  0  0  0  0  0  0  0  0
   55.9480   25.4850   46.1860 C   0  0  0  0  0  0  0  0  0  0  0  0
   55.1660   24.5350   46.4490 O   0  0  0  0  0  0  0  0  0  0  0  0
   57.2890   25.2800   46.1880 N   0  0  0  0  0  0  0  0  0  0  0  0
   58.1530   26.2900   45.9160 C   0  0  0  0  0  0  0  0  0  0  0  0
   59.3940   26.0630   45.9290 O   0  0  0  0  0  0  0  0  0  0  0  0
   57.6650   27.5770   45.6350 C   0  0  0  0  0  0  0  0  0  0  0  0
   58.6090   28.6790   45.3480 C   0  0  0  0  0  0  0  0  0  0  0  0
   58.9667   28.8085   44.3159 H   0  0  0  0  0  0  0  0  0  0  0  0
   59.0510   29.5320   46.2940 C   0  0  0  0  0  0  0  0  0  0  0  0
   59.7800   29.1850   47.4190 C   0  0  0  0  0  0  0  0  0  0  0  0
   60.0939   28.1721   47.7116 H   0  0  0  0  0  0  0  0  0  0  0  0
   60.0360   30.3550   48.1010 C   0  0  0  0  0  0  0  0  0  0  0  0
   60.8400   30.4290   49.3640 C   0  0  0  0  0  0  0  0  0  0  0  0
   60.1665   30.3670   50.2315 H   0  0  0  0  0  0  0  0  0  0  0  0
   61.5540   29.5928   49.3936 H   0  0  0  0  0  0  0  0  0  0  0  0
   61.3894   31.3815   49.3936 H   0  0  0  0  0  0  0  0  0  0  0  0
   59.5170   31.4210   47.4400 N   0  0  0  0  0  0  0  0  0  0  0  0
   59.6230   32.8240   47.8800 C   0  0  0  0  0  0  0  0  0  0  0  0
   59.0716   33.4641   47.1756 H   0  0  0  0  0  0  0  0  0  0  0  0
   59.1977   32.9063   48.8911 H   0  0  0  0  0  0  0  0  0  0  0  0
   61.0650   33.2710   47.9280 C   0  0  0  0  0  0  0  0  0  0  0  0
   61.8630   33.1880   46.7720 C   0  0  0  0  0  0  0  0  0  0  0  0
   61.4347   32.7906   45.8400 H   0  0  0  0  0  0  0  0  0  0  0  0
   63.1960   33.6070   46.8000 C   0  0  0  0  0  0  0  0  0  0  0  0
   63.8106   33.5433   45.8899 H   0  0  0  0  0  0  0  0  0  0  0  0
   63.7490   34.1060   47.9800 C   0  0  0  0  0  0  0  0  0  0  0  0
   64.7971   34.4394   47.9983 H   0  0  0  0  0  0  0  0  0  0  0  0
   62.9720   34.1820   49.1370 C   0  0  0  0  0  0  0  0  0  0  0  0
   63.4116   34.5714   50.0672 H   0  0  0  0  0  0  0  0  0  0  0  0
   61.6360   33.7650   49.1190 C   0  0  0  0  0  0  0  0  0  0  0  0
   60.8880   33.8430   50.2880 O   0  0  0  0  0  0  0  0  0  0  0  0
   58.9010   30.9220   46.3310 C   0  0  0  0  0  0  0  0  0  0  0  0
   58.2410   31.6610   45.4200 C   0  0  0  0  0  0  0  0  0  0  0  0
   58.1788   32.7529   45.5382 H   0  0  0  0  0  0  0  0  0  0  0  0
   57.7639   31.1731   44.5573 H   0  0  0  0  0  0  0  0  0  0  0  0
  1  2  1  0
  2  3  1  0
  3  4  1  0
  4  5  1  0
  5  6  2  0
  5  7  1  0
  7  8  1  0
  8  9  2  0
  8 10  1  0
 10 11  1  0
 11 12  1  0
 11 13  2  0
 13 14  1  0
 14 15  1  0
 14 16  2  0
 16 17  1  0
 17 18  1  0
 17 19  1  0
 17 20  1  0
 16 21  1  0
 21 22  1  0
 22 23  1  0
 22 24  1  0
 22 25  1  0
 25 26  2  0
 26 27  1  0
 26 28  1  0
 28 29  1  0
 28 30  2  0
 30 31  1  0
 30 32  1  0
 32 33  1  0
 32 34  2  0
 34 35  1  0
 21 36  1  0
 36 37  2  0
 37 38  1  0
 37 39  1  0
 10  3  2  0
 36 13  1  0
 34 25  1  0
M  CHG  3   4  -1   7  -1  35  -1
M  END
>  <UniqueID>  (32) 
32

>  <SMILES>  (32) 
C=c1/c(=C/c2c(O)[n-]c(=O)[n-]c2=O)cc(C)n1Cc1ccccc1[O-]

>  <Energy>  (32) 
82.19660481458975

>  <Genealogy>  (32) 
C=c1c(=Cc2c(O)[n-]c(=O)[n-]c2=O)cc(C)n1Cc1ccccc1[O-] (protonated)
C=c1/c(=C/c2c(O)[n-]c(=O)[n-]c2=O)cc(C)n1Cc1ccccc1[O-] (cis-trans isomerization)
C=c1/c(=C/c2c(O)[n-]c(=O)[n-]c2=O)cc(C)n1Cc1ccccc1[O-] (3D coordinates assigned)
C=c1/c(=C/c2c(O)[n-]c(=O)[n-]c2=O)cc(C)n1Cc1ccccc1[O-] (optimized conformer: 82.19660481458975 kcal/mol)

>  <smiles>  (32) 
C=c1c(=Cc2c(O)[nH]c(=O)[nH]c2=O)cc(C)n1Cc1ccccc1O

>  <score_type>  (32) 
oracle

>  <origin>  (32) 
adg

>  <m_score__min__energy>  (32) 
-13.85

>  <m_primary>  (32) 
energy

$$$$
32:0
     RDKit          3D

 45 47  0  0  0  0  0  0  0  0999 V2000
   59.2540   29.0250   48.6330 C   0  0  0  0  0  0  0  0  0  0  0  0
   59.1130   30.4700   49.6640 S   0  0  0  0  0  0  0  0  0  0  0  0
   60.1720   30.4650   50.7270 O   0  0  0  0  0  0  0  0  0  0  0  0
   57.7660   30.4540   50.3260 O   0  0  0  0  0  0  0  0  0  0  0  0
   59.2480   31.9120   48.7050 N   0  0  0  0  0  0  0  0  0  0  0  0
   58.6060   32.1380   47.4390 C   0  0  0  0  0  0  0  0  0  0  0  0
   58.1310   33.4240   47.1490 C   0  0  0  0  0  0  0  0  0  0  0  0
   57.4960   33.6880   45.9340 C   0  0  0  0  0  0  0  0  0  0  0  0
   57.3260   32.6690   44.9960 C   0  0  0  0  0  0  0  0  0  0  0  0
   57.7820   31.3680   45.2700 C   0  0  0  0  0  0  0  0  0  0  0  0
   57.5940   30.2610   44.2610 C   0  0  0  0  0  0  0  0  0  0  0  0
   57.5700   28.9070   44.9380 C   0  0  0  0  0  0  0  0  0  0  0  0
   56.3330   28.2920   45.2220 C   0  0  0  0  0  0  0  0  0  0  0  0
   55.1440   28.9680   44.9640 O   0  0  0  0  0  0  0  0  0  0  0  0
   56.3130   27.0080   45.7950 C   0  0  0  0  0  0  0  0  0  0  0  0
   55.0910   26.3150   46.0840 N   0  0  0  0  0  0  0  0  0  0  0  0
   54.7380   25.0040   45.6200 C   0  0  0  0  0  0  0  0  0  0  0  0
   53.5260   24.6710   45.5420 O   0  0  0  0  0  0  0  0  0  0  0  0
   55.7850   24.0820   45.1210 C   0  0  0  0  0  0  0  0  0  0  0  0
   55.9290   23.8330   43.7420 C   0  0  0  0  0  0  0  0  0  0  0  0
   56.8790   22.9170   43.2790 C   0  0  0  0  0  0  0  0  0  0  0  0
   57.7000   22.2420   44.1880 C   0  0  0  0  0  0  0  0  0  0  0  0
   57.5810   22.4960   45.5570 C   0  0  0  0  0  0  0  0  0  0  0  0
   56.6340   23.4110   46.0250 C   0  0  0  0  0  0  0  0  0  0  0  0
   57.5190   26.4000   46.1410 C   0  0  0  0  0  0  0  0  0  0  0  0
   58.7280   27.0360   45.8550 C   0  0  0  0  0  0  0  0  0  0  0  0
   59.8140   26.4700   46.1570 O   0  0  0  0  0  0  0  0  0  0  0  0
   58.7380   28.2590   45.2490 N   0  0  0  0  0  0  0  0  0  0  0  0
   59.9520   28.8430   44.9600 O   0  0  0  0  0  0  0  0  0  0  0  0
   58.4380   31.1150   46.4870 C   0  0  0  0  0  0  0  0  0  0  0  0
   59.3414   28.1298   49.2663 H   0  0  0  0  0  0  0  0  0  0  0  0
   58.3600   28.9390   47.9979 H   0  0  0  0  0  0  0  0  0  0  0  0
   60.1478   29.1135   47.9979 H   0  0  0  0  0  0  0  0  0  0  0  0
   58.2594   34.2319   47.8844 H   0  0  0  0  0  0  0  0  0  0  0  0
   57.1288   34.7017   45.7156 H   0  0  0  0  0  0  0  0  0  0  0  0
   56.8325   32.8850   44.0370 H   0  0  0  0  0  0  0  0  0  0  0  0
   56.6423   30.4151   43.7313 H   0  0  0  0  0  0  0  0  0  0  0  0
   58.4369   30.2843   43.5546 H   0  0  0  0  0  0  0  0  0  0  0  0
   55.2883   24.3640   43.0226 H   0  0  0  0  0  0  0  0  0  0  0  0
   56.9804   22.7275   42.2002 H   0  0  0  0  0  0  0  0  0  0  0  0
   58.4387   21.5119   43.8257 H   0  0  0  0  0  0  0  0  0  0  0  0
   58.2359   21.9732   46.2697 H   0  0  0  0  0  0  0  0  0  0  0  0
   56.5505   23.6087   47.1039 H   0  0  0  0  0  0  0  0  0  0  0  0
   57.5177   25.4193   46.6393 H   0  0  0  0  0  0  0  0  0  0  0  0
   58.8242   30.1068   46.6977 H   0  0  0  0  0  0  0  0  0  0  0  0
  1  2  1  0
  2  3  2  0
  2  4  2  0
  2  5  1  0
  5  6  1  0
  6  7  2  0
  7  8  1  0
  8  9  2  0
  9 10  1  0
 10 11  1  0
 11 12  1  0
 12 13  2  0
 13 14  1  0
 13 15  1  0
 15 16  1  0
 16 17  1  0
 17 18  2  0
 17 19  1  0
 19 20  2  0
 20 21  1  0
 21 22  2  0
 22 23  1  0
 23 24  2  0
 15 25  2  0
 25 26  1  0
 26 27  2  0
 26 28  1  0
 28 29  1  0
 10 30  2  0
 30  6  1  0
 28 12  1  0
 24 19  1  0
  1 31  1  0
  1 32  1  0
  1 33  1  0
  7 34  1  0
  8 35  1  0
  9 36  1  0
 11 37  1  0
 11 38  1  0
 20 39  1  0
 21 40  1  0
 22 41  1  0
 23 42  1  0
 24 43  1  0
 25 44  1  0
 30 45  1  0
M  CHG  4   5  -1  14  -1  16  -1  29  -1
M  END
>  <UniqueID>  (33) 
33

>  <SMILES>  (33) 
CS(=O)(=O)[N-]c1cccc(Cc2c([O-])c([N-]C(=O)c3ccccc3)cc(=O)n2[O-])c1

>  <Energy>  (33) 
55.608387704361064

>  <Genealogy>  (33) 
CS(=O)(=O)[N-]c1cccc(Cc2c([O-])c([N-]C(=O)c3ccccc3)cc(=O)n2[O-])c1 (protonated)
CS(=O)(=O)[N-]c1cccc(Cc2c([O-])c([N-]C(=O)c3ccccc3)cc(=O)n2[O-])c1 (3D coordinates assigned)
CS(=O)(=O)[N-]c1cccc(Cc2c([O-])c([N-]C(=O)c3ccccc3)cc(=O)n2[O-])c1 (optimized conformer: 55.608387704361064 kcal/mol)

>  <smiles>  (33) 
CS(=O)(=O)Nc1cccc(Cc2c(O)c(NC(=O)c3ccccc3)cc(=O)n2O)c1

>  <score_type>  (33) 
oracle

>  <origin>  (33) 
adg

>  <m_score__min__energy>  (33) 
-16.370000000000001

>  <m_primary>  (33) 
energy

$$$$
33:0
     RDKit          3D

 62 65  0  0  0  0  0  0  0  0999 V2000
   59.8990   29.6330   46.8420 C   0  0  0  0  0  0  0  0  0  0  0  0
   59.4320   30.6390   46.0890 C   0  0  0  0  0  0  0  0  0  0  0  0
   58.4820   30.5620   45.0590 C   0  0  0  0  0  0  0  0  0  0  0  0
   57.9650   29.4960   44.4160 C   0  0  0  0  0  0  0  0  0  0  0  0
   57.4150   28.2900   45.0680 C   0  0  0  0  0  0  0  0  0  0  0  0
   56.0310   28.1570   45.2520 C   0  0  0  0  0  0  0  0  0  0  0  0
   55.1640   29.1730   44.8660 O   0  0  0  0  0  0  0  0  0  0  0  0
   55.5270   27.0310   45.8200 N   0  0  0  0  0  0  0  0  0  0  0  0
   56.3400   26.0140   46.2040 C   0  0  0  0  0  0  0  0  0  0  0  0
   55.8510   24.9840   46.7340 O   0  0  0  0  0  0  0  0  0  0  0  0
   57.6810   26.1060   46.0090 N   0  0  0  0  0  0  0  0  0  0  0  0
   58.2350   27.2080   45.4440 C   0  0  0  0  0  0  0  0  0  0  0  0
   59.4800   27.2470   45.2550 O   0  0  0  0  0  0  0  0  0  0  0  0
   58.1410   31.8680   44.7470 C   0  0  0  0  0  0  0  0  0  0  0  0
   58.9330   32.6850   45.5280 C   0  0  0  0  0  0  0  0  0  0  0  0
   58.8950   34.1820   45.5130 C   0  0  0  0  0  0  0  0  0  0  0  0
   59.7230   31.9420   46.3310 N   0  0  0  0  0  0  0  0  0  0  0  0
   60.7030   32.4570   47.2500 C   0  0  0  0  0  0  0  0  0  0  0  0
   61.9730   32.8080   46.7770 C   0  0  0  0  0  0  0  0  0  0  0  0
   62.9360   33.3220   47.6480 C   0  0  0  0  0  0  0  0  0  0  0  0
   62.6470   33.4760   49.0130 C   0  0  0  0  0  0  0  0  0  0  0  0
   63.6200   34.0080   49.9260 N   0  0  0  0  0  0  0  0  0  0  0  0
   64.8440   33.3380   50.2640 C   0  0  0  0  0  0  0  0  0  0  0  0
   65.7320   33.9040   51.3230 C   0  0  0  0  0  0  0  0  0  0  0  0
   65.2170   32.3190   49.6250 O   0  0  0  0  0  0  0  0  0  0  0  0
   61.3960   33.0710   49.4980 C   0  0  0  0  0  0  0  0  0  0  0  0
   60.4030   32.6040   48.6230 C   0  0  0  0  0  0  0  0  0  0  0  0
   59.0670   32.2420   49.1590 C   0  0  0  0  0  0  0  0  0  0  0  0
   57.8530   32.7220   48.4120 C   0  0  0  0  0  0  0  0  0  0  0  0
   58.8890   31.5460   50.3030 C   0  0  0  0  0  0  0  0  0  0  0  0
   57.6830   31.5530   51.1610 C   0  0  0  0  0  0  0  0  0  0  0  0
   57.3060   32.6490   51.6540 O   0  0  0  0  0  0  0  0  0  0  0  0
   56.9910   30.3420   51.4930 N   0  0  0  0  0  0  0  0  0  0  0  0
   55.7040   30.2010   52.1080 C   0  0  0  0  0  0  0  0  0  0  0  0
   54.5600   30.8630   51.6260 C   0  0  0  0  0  0  0  0  0  0  0  0
   53.3210   30.6620   52.2410 C   0  0  0  0  0  0  0  0  0  0  0  0
   53.2090   29.7870   53.3250 C   0  0  0  0  0  0  0  0  0  0  0  0
   54.3370   29.1080   53.7920 C   0  0  0  0  0  0  0  0  0  0  0  0
   55.5770   29.3080   53.1800 C   0  0  0  0  0  0  0  0  0  0  0  0
   60.6486   29.8319   47.6221 H   0  0  0  0  0  0  0  0  0  0  0  0
   59.5326   28.6086   46.6798 H   0  0  0  0  0  0  0  0  0  0  0  0
   57.9516   29.5267   43.3165 H   0  0  0  0  0  0  0  0  0  0  0  0
   57.3844   32.1916   44.0171 H   0  0  0  0  0  0  0  0  0  0  0  0
   58.8854   34.5589   46.5464 H   0  0  0  0  0  0  0  0  0  0  0  0
   59.7837   34.5661   44.9908 H   0  0  0  0  0  0  0  0  0  0  0  0
   57.9880   34.5205   44.9908 H   0  0  0  0  0  0  0  0  0  0  0  0
   62.2141   32.6780   45.7116 H   0  0  0  0  0  0  0  0  0  0  0  0
   63.9259   33.6076   47.2625 H   0  0  0  0  0  0  0  0  0  0  0  0
   63.4860   34.9830   50.2770 H   0  0  0  0  0  0  0  0  0  0  0  0
   65.3299   33.6477   52.3143 H   0  0  0  0  0  0  0  0  0  0  0  0
   66.7428   33.4832   51.2174 H   0  0  0  0  0  0  0  0  0  0  0  0
   65.7774   34.9980   51.2174 H   0  0  0  0  0  0  0  0  0  0  0  0
   61.1899   33.1197   50.5774 H   0  0  0  0  0  0  0  0  0  0  0  0
   57.0781   33.0284   49.1300 H   0  0  0  0  0  0  0  0  0  0  0  0
   58.1268   33.5796   47.7798 H   0  0  0  0  0  0  0  0  0  0  0  0
   57.4663   31.9091   47.7798 H   0  0  0  0  0  0  0  0  0  0  0  0
   59.7247   30.9098   50.6299 H   0  0  0  0  0  0  0  0  0  0  0  0
   54.6408   31.5404   50.7631 H   0  0  0  0  0  0  0  0  0  0  0  0
   52.4320   31.1938   51.8709 H   0  0  0  0  0  0  0  0  0  0  0  0
   52.2337   29.6331   53.8099 H   0  0  0  0  0  0  0  0  0  0  0  0
   54.2489   28.4155   54.6421 H   0  0  0  0  0  0  0  0  0  0  0  0
   56.4596   28.7605   53.5424 H   0  0  0  0  0  0  0  0  0  0  0  0
  1  2  2  0
  2  3  1  0
  3  4  2  3
  4  5  1  0
  5  6  2  0
  6  7  1  0
  6  8  1  0
  8  9  1  0
  9 10  2  0
  9 11  1  0
 11 12  1  0
 12 13  2  0
  3 14  1  0
 14 15  2  0
 15 16  1  0
 15 17  1  0
 17 18  1  0
 18 19  2  0
 19 20  1  0
 20 21  2  0
 21 22  1  0
 22 23  1  0
 23 24  1  0
 23 25  2  0
 21 26  1  0
 26 27  2  0
 27 28  1  0
 28 29  1  0
 28 30  2  3
 30 31  1  0
 31 32  2  0
 31 33  1  0
 33 34  1  0
 34 35  2  0
 35 36  1  0
 36 37  2  0
 37 38  1  0
 38 39  2  0
 17  2  1  0
 27 18  1  0
 39 34  1  0
 12  5  1  0
  1 40  1  0
  1 41  1  0
  4 42  1  0
 14 43  1  0
 16 44  1  0
 16 45  1  0
 16 46  1  0
 19 47  1  0
 20 48  1  0
 22 49  1  0
 24 50  1  0
 24 51  1  0
 24 52  1  0
 26 53  1  0
 29 54  1  0
 29 55  1  0
 29 56  1  0
 30 57  1  0
 35 58  1  0
 36 59  1  0
 37 60  1  0
 38 61  1  0
 39 62  1  0
M  CHG  4   7  -1   8  -1  11  -1  33  -1
M  END
>  <UniqueID>  (34) 
34

>  <SMILES>  (34) 
C=c1c(=Cc2c([O-])[n-]c(=O)[n-]c2=O)cc(C)n1-c1ccc(NC(C)=O)cc1C(C)=CC(=O)[N-]c1ccccc1

>  <Energy>  (34) 
123.82076274857135

>  <Genealogy>  (34) 
C=c1c(=Cc2c([O-])[n-]c(=O)[n-]c2=O)cc(C)n1-c1ccc(NC(C)=O)cc1C(C)=CC(=O)[N-]c1ccccc1 (protonated)
C=c1c(=Cc2c([O-])[n-]c(=O)[n-]c2=O)cc(C)n1-c1ccc(NC(C)=O)cc1C(C)=CC(=O)[N-]c1ccccc1 (3D coordinates assigned)
C=c1c(=Cc2c([O-])[n-]c(=O)[n-]c2=O)cc(C)n1-c1ccc(NC(C)=O)cc1C(C)=CC(=O)[N-]c1ccccc1 (optimized conformer: 123.82076274857135 kcal/mol)

>  <smiles>  (34) 
C=c1c(=Cc2c(O)[nH]c(=O)[nH]c2=O)cc(C)n1-c1ccc(NC(C)=O)cc1C(C)=CC(=O)Nc1ccccc1

>  <score_type>  (34) 
oracle

>  <origin>  (34) 
adg

>  <m_score__min__energy>  (34) 
-18.449999999999999

>  <m_primary>  (34) 
energy

$$$$
34:0
     RDKit          3D

 69 73  0  0  0  0  0  0  0  0999 V2000
   57.2376   29.2153   44.7443 H   0  0  0  0  0  0  0  0  0  0  0  0
   57.1570   28.1210   44.6670 C   0  0  0  0  0  0  0  0  0  0  0  0
   56.5001   27.6701   43.9086 H   0  0  0  0  0  0  0  0  0  0  0  0
   57.8610   27.3350   45.4990 C   0  0  0  0  0  0  0  0  0  0  0  0
   57.8600   25.9360   45.5190 C   0  0  0  0  0  0  0  0  0  0  0  0
   57.1470   25.1090   44.7300 C   0  0  0  0  0  0  0  0  0  0  0  0
   57.6180   24.7441   43.8053 H   0  0  0  0  0  0  0  0  0  0  0  0
   55.7740   24.6630   45.0300 C   0  0  0  0  0  0  0  0  0  0  0  0
   55.3560   23.3960   44.8660 N   0  0  0  0  0  0  0  0  0  0  0  0
   54.0890   23.4190   45.3330 C   0  0  0  0  0  0  0  0  0  0  0  0
   53.3490   22.4020   45.3350 O   0  0  0  0  0  0  0  0  0  0  0  0
   53.6820   24.6150   45.8080 N   0  0  0  0  0  0  0  0  0  0  0  0
   54.7630   25.3900   45.6220 C   0  0  0  0  0  0  0  0  0  0  0  0
   54.8370   26.7160   46.0280 O   0  0  0  0  0  0  0  0  0  0  0  0
   58.6980   25.5610   46.5610 C   0  0  0  0  0  0  0  0  0  0  0  0
   58.9283   24.5344   46.8819 H   0  0  0  0  0  0  0  0  0  0  0  0
   59.1860   26.7280   47.1160 C   0  0  0  0  0  0  0  0  0  0  0  0
   60.1140   26.7880   48.2900 C   0  0  0  0  0  0  0  0  0  0  0  0
   59.5299   26.7502   49.2214 H   0  0  0  0  0  0  0  0  0  0  0  0
   60.8048   25.9326   48.2555 H   0  0  0  0  0  0  0  0  0  0  0  0
   60.6889   27.7252   48.2555 H   0  0  0  0  0  0  0  0  0  0  0  0
   58.6750   27.8030   46.4770 N   0  0  0  0  0  0  0  0  0  0  0  0
   58.9670   29.1780   46.7850 C   0  0  0  0  0  0  0  0  0  0  0  0
   59.4090   30.0450   45.7810 C   0  0  0  0  0  0  0  0  0  0  0  0
   59.5508   29.6699   44.7567 H   0  0  0  0  0  0  0  0  0  0  0  0
   59.6710   31.3840   46.0730 C   0  0  0  0  0  0  0  0  0  0  0  0
   60.0254   32.0565   45.2779 H   0  0  0  0  0  0  0  0  0  0  0  0
   59.4860   31.8800   47.3730 C   0  0  0  0  0  0  0  0  0  0  0  0
   59.7290   33.3170   47.6130 C   0  0  0  0  0  0  0  0  0  0  0  0
   58.7430   34.1070   47.6230 O   0  0  0  0  0  0  0  0  0  0  0  0
   61.0490   33.7900   47.9740 N   0  0  2  0  0  0  0  0  0  0  0  0
   61.2140   34.7170   47.5160 H   0  0  0  0  0  0  0  0  0  0  0  0
   62.0610   32.8380   47.4820 C   0  0  0  0  0  0  0  0  0  0  0  0
   61.9438   31.8820   48.0134 H   0  0  0  0  0  0  0  0  0  0  0  0
   61.9143   32.6987   46.4007 H   0  0  0  0  0  0  0  0  0  0  0  0
   63.4820   33.3730   47.7180 C   0  0  0  0  0  0  0  0  0  0  0  0
   64.1977   32.5729   47.4781 H   0  0  0  0  0  0  0  0  0  0  0  0
   63.6029   34.2550   47.0718 H   0  0  0  0  0  0  0  0  0  0  0  0
   63.7430   33.8420   49.1750 C   0  0  2  0  0  0  0  0  0  0  0  0
   64.5281   34.6019   49.0478 H   0  0  0  0  0  0  0  0  0  0  0  0
   64.3420   32.8180   50.0810 N   0  0  0  0  0  0  0  0  0  0  0  0
   63.6120   31.5330   50.1670 C   0  0  0  0  0  0  0  0  0  0  0  0
   62.5623   31.7365   50.4255 H   0  0  0  0  0  0  0  0  0  0  0  0
   63.6890   31.0304   49.1916 H   0  0  0  0  0  0  0  0  0  0  0  0
   64.2180   30.5990   51.2370 C   0  0  0  0  0  0  0  0  0  0  0  0
   63.4512   30.3890   51.9972 H   0  0  0  0  0  0  0  0  0  0  0  0
   64.5476   29.6798   50.7306 H   0  0  0  0  0  0  0  0  0  0  0  0
   65.4380   31.2130   51.9270 C   0  0  0  0  0  0  0  0  0  0  0  0
   65.1106   32.0496   52.5618 H   0  0  0  0  0  0  0  0  0  0  0  0
   65.9258   30.4385   52.5371 H   0  0  0  0  0  0  0  0  0  0  0  0
   66.4430   31.7300   50.8930 C   0  0  0  0  0  0  0  0  0  0  0  0
   67.1909   32.3509   51.4079 H   0  0  0  0  0  0  0  0  0  0  0  0
   66.9054   30.8562   50.4106 H   0  0  0  0  0  0  0  0  0  0  0  0
   65.7730   32.5760   49.7880 C   0  0  0  0  0  0  0  0  0  0  0  0
   66.2913   33.5435   49.7151 H   0  0  0  0  0  0  0  0  0  0  0  0
   65.8418   32.0219   48.8403 H   0  0  0  0  0  0  0  0  0  0  0  0
   62.5260   34.5440   49.8270 C   0  0  0  0  0  0  0  0  0  0  0  0
   62.6314   34.4691   50.9194 H   0  0  0  0  0  0  0  0  0  0  0  0
   62.5330   35.5820   49.4629 H   0  0  0  0  0  0  0  0  0  0  0  0
   61.1630   33.9550   49.4360 C   0  0  0  0  0  0  0  0  0  0  0  0
   61.0457   32.9730   49.9175 H   0  0  0  0  0  0  0  0  0  0  0  0
   60.3769   34.6486   49.7692 H   0  0  0  0  0  0  0  0  0  0  0  0
   59.0690   31.0020   48.4020 C   0  0  0  0  0  0  0  0  0  0  0  0
   58.9070   31.4680   49.8250 C   0  0  0  0  0  0  0  0  0  0  0  0
   59.1893   30.6559   50.5112 H   0  0  0  0  0  0  0  0  0  0  0  0
   59.5550   32.3391   50.0016 H   0  0  0  0  0  0  0  0  0  0  0  0
   57.8583   31.7493   50.0016 H   0  0  0  0  0  0  0  0  0  0  0  0
   58.7960   29.6590   48.0910 C   0  0  0  0  0  0  0  0  0  0  0  0
   58.4446   28.9781   48.8802 H   0  0  0  0  0  0  0  0  0  0  0  0
  1  2  1  0
  2  3  1  0
  2  4  2  0
  4  5  1  0
  5  6  2  0
  6  7  1  0
  6  8  1  0
  8  9  1  0
  9 10  1  0
 10 11  2  0
 10 12  1  0
 12 13  1  0
 13 14  1  0
  5 15  1  0
 15 16  1  0
 15 17  2  0
 17 18  1  0
 18 19  1  0
 18 20  1  0
 18 21  1  0
 17 22  1  0
 22 23  1  0
 23 24  2  0
 24 25  1  0
 24 26  1  0
 26 27  1  0
 26 28  2  0
 28 29  1  0
 29 30  2  0
 29 31  1  0
 31 32  1  1
 31 33  1  0
 33 34  1  0
 33 35  1  0
 33 36  1  0
 36 37  1  0
 36 38  1  0
 36 39  1  0
 39 40  1  1
 39 41  1  0
 41 42  1  0
 42 43  1  0
 42 44  1  0
 42 45  1  0
 45 46  1  0
 45 47  1  0
 45 48  1  0
 48 49  1  0
 48 50  1  0
 48 51  1  0
 51 52  1  0
 51 53  1  0
 51 54  1  0
 54 55  1  0
 54 56  1  0
 39 57  1  0
 57 58  1  0
 57 59  1  0
 57 60  1  0
 60 61  1  0
 60 62  1  0
 28 63  1  0
 63 64  1  0
 64 65  1  0
 64 66  1  0
 64 67  1  0
 63 68  2  0
 68 69  1  0
 22  4  1  0
 68 23  1  0
 13  8  2  0
 60 31  1  0
 54 41  1  0
M  CHG  4   9  -1  12  -1  14  -1  31   1
M  END
>  <UniqueID>  (35) 
35

>  <SMILES>  (35) 
C=c1/c(=C/c2[n-]c(=O)[n-]c2[O-])cc(C)n1-c1ccc(C(=O)[NH+]2CCC(N3CCCCC3)CC2)c(C)c1

>  <Energy>  (35) 
166.08666805622164

>  <Genealogy>  (35) 
C=c1c(=Cc2[n-]c(=O)[n-]c2[O-])cc(C)n1-c1ccc(C(=O)[NH+]2CCC(N3CCCCC3)CC2)c(C)c1 (protonated)
C=c1/c(=C/c2[n-]c(=O)[n-]c2[O-])cc(C)n1-c1ccc(C(=O)[NH+]2CCC(N3CCCCC3)CC2)c(C)c1 (cis-trans isomerization)
C=c1/c(=C/c2[n-]c(=O)[n-]c2[O-])cc(C)n1-c1ccc(C(=O)[NH+]2CCC(N3CCCCC3)CC2)c(C)c1 (3D coordinates assigned)
C=c1/c(=C/c2[n-]c(=O)[n-]c2[O-])cc(C)n1-c1ccc(C(=O)[NH+]2CCC(N3CCCCC3)CC2)c(C)c1 (nonaromatic ring conformer: 166.08666805622164 kcal/mol)

>  <smiles>  (35) 
C=c1c(=Cc2[nH]c(=O)[nH]c2O)cc(C)n1-c1ccc(C(=O)N2CCC(N3CCCCC3)CC2)c(C)c1

>  <score_type>  (35) 
oracle

>  <origin>  (35) 
adg

>  <m_score__min__energy>  (35) 
-17.489999999999998

>  <m_primary>  (35) 
energy

$$$$
35:0
     RDKit          3D

 29 31  0  0  0  0  0  0  0  0999 V2000
   68.5250   30.8120   53.0000 C   0  0  0  0  0  0  0  0  0  0  0  0
   68.0430   31.8030   51.9950 C   0  0  0  0  0  0  0  0  0  0  0  0
   66.8140   31.7730   51.4340 N   0  0  0  0  0  0  0  0  0  0  0  0
   66.5990   32.8310   50.6070 C   0  0  0  0  0  0  0  0  0  0  0  0
   65.3610   33.0080   49.8960 C   0  0  0  0  0  0  0  0  0  0  0  0
   64.3230   33.1570   49.3010 C   0  0  0  0  0  0  0  0  0  0  0  0
   63.0850   33.3340   48.5900 C   0  0  0  0  0  0  0  0  0  0  0  0
   63.0560   33.3200   47.1930 C   0  0  0  0  0  0  0  0  0  0  0  0
   61.8770   33.4880   46.5410 N   0  0  0  0  0  0  0  0  0  0  0  0
   60.7150   33.6720   47.2250 C   0  0  0  0  0  0  0  0  0  0  0  0
   59.4490   33.8530   46.5000 C   0  0  0  0  0  0  0  0  0  0  0  0
   59.2690   34.5930   45.3360 C   0  0  0  0  0  0  0  0  0  0  0  0
   57.9470   34.5830   44.8740 C   0  0  0  0  0  0  0  0  0  0  0  0
   57.0830   33.8400   45.6680 C   0  0  0  0  0  0  0  0  0  0  0  0
   57.9650   33.1940   46.9460 S   0  0  0  0  0  0  0  0  0  0  0  0
   60.7290   33.6890   48.5860 N   0  0  0  0  0  0  0  0  0  0  0  0
   61.8860   33.5230   49.2770 C   0  0  0  0  0  0  0  0  0  0  0  0
   67.6560   33.7300   50.5110 C   0  0  0  0  0  0  0  0  0  0  0  0
   68.8940   33.1680   51.5050 S   0  0  0  0  0  0  0  0  0  0  0  0
   68.3378   31.1968   54.0134 H   0  0  0  0  0  0  0  0  0  0  0  0
   67.9887   29.8613   52.8639 H   0  0  0  0  0  0  0  0  0  0  0  0
   69.6040   30.6470   52.8639 H   0  0  0  0  0  0  0  0  0  0  0  0
   66.1090   31.0250   51.6200 H   0  0  0  0  0  0  0  0  0  0  0  0
   63.9855   33.1733   46.6233 H   0  0  0  0  0  0  0  0  0  0  0  0
   60.0832   35.1319   44.8293 H   0  0  0  0  0  0  0  0  0  0  0  0
   57.6231   35.1141   43.9668 H   0  0  0  0  0  0  0  0  0  0  0  0
   56.0066   33.6984   45.4913 H   0  0  0  0  0  0  0  0  0  0  0  0
   61.8777   33.5376   50.3769 H   0  0  0  0  0  0  0  0  0  0  0  0
   67.6791   34.6425   49.8972 H   0  0  0  0  0  0  0  0  0  0  0  0
  1  2  1  0
  2  3  2  0
  3  4  1  0
  4  5  1  0
  5  6  3  0
  6  7  1  0
  7  8  2  0
  8  9  1  0
  9 10  2  0
 10 11  1  0
 11 12  2  0
 12 13  1  0
 13 14  2  0
 14 15  1  0
 10 16  1  0
 16 17  2  0
  4 18  2  0
 18 19  1  0
 19  2  1  0
 17  7  1  0
 15 11  1  0
  1 20  1  0
  1 21  1  0
  1 22  1  0
  3 23  1  0
  8 24  1  0
 12 25  1  0
 13 26  1  0
 14 27  1  0
 17 28  1  0
 18 29  1  0
M  CHG  1   3   1
M  END
>  <UniqueID>  (36) 
36

>  <SMILES>  (36) 
Cc1[nH+]c(C#Cc2cnc(-c3cccs3)nc2)cs1

>  <Energy>  (36) 
81.64298979945534

>  <Genealogy>  (36) 
Cc1[nH+]c(C#Cc2cnc(-c3cccs3)nc2)cs1 (protonated)
Cc1[nH+]c(C#Cc2cnc(-c3cccs3)nc2)cs1 (3D coordinates assigned)
Cc1[nH+]c(C#Cc2cnc(-c3cccs3)nc2)cs1 (optimized conformer: 81.64298979945534 kcal/mol)

>  <smiles>  (36) 
Cc1nc(C#Cc2cnc(-c3cccs3)nc2)cs1

>  <score_type>  (36) 
oracle

>  <origin>  (36) 
adg

>  <m_score__min__energy>  (36) 
-4.6799999999999997

>  <m_primary>  (36) 
energy

$$$$
36:0
     RDKit          3D

 58 61  0  0  0  0  0  0  0  0999 V2000
   55.9330   35.2090   45.4330 H   0  0  0  0  0  0  0  0  0  0  0  0
   56.6650   34.7820   44.8750 O   0  0  0  0  0  0  0  0  0  0  0  0
   57.8310   34.2860   45.4550 C   0  0  0  0  0  0  0  0  0  0  0  0
   59.0290   35.0110   45.3810 C   0  0  0  0  0  0  0  0  0  0  0  0
   59.0586   35.9711   44.8450 H   0  0  0  0  0  0  0  0  0  0  0  0
   60.1850   34.5140   45.9880 C   0  0  0  0  0  0  0  0  0  0  0  0
   61.1233   35.0853   45.9317 H   0  0  0  0  0  0  0  0  0  0  0  0
   60.1520   33.2920   46.6670 C   0  0  0  0  0  0  0  0  0  0  0  0
   61.0611   32.9141   47.1575 H   0  0  0  0  0  0  0  0  0  0  0  0
   58.9650   32.5450   46.7260 C   0  0  0  0  0  0  0  0  0  0  0  0
   58.9460   31.2800   47.4980 C   0  0  0  0  0  0  0  0  0  0  0  0
   59.2910   31.3093   48.5421 H   0  0  0  0  0  0  0  0  0  0  0  0
   58.5330   30.0950   47.0030 C   0  0  0  0  0  0  0  0  0  0  0  0
   57.4590   30.0470   46.1750 N   0  0  0  0  0  0  0  0  0  0  0  0
   57.0150   28.8890   45.6300 C   0  0  0  0  0  0  0  0  0  0  0  0
   56.0050   28.9190   44.8730 O   0  0  0  0  0  0  0  0  0  0  0  0
   57.6520   27.7060   45.8980 N   0  0  0  0  0  0  0  0  0  0  0  0
   57.1320   26.5020   45.3000 C   0  0  0  0  0  0  0  0  0  0  0  0
   55.9430   25.9340   45.7790 C   0  0  0  0  0  0  0  0  0  0  0  0
   55.4066   26.4089   46.6137 H   0  0  0  0  0  0  0  0  0  0  0  0
   55.4360   24.7660   45.2000 C   0  0  0  0  0  0  0  0  0  0  0  0
   54.4955   24.3340   45.5727 H   0  0  0  0  0  0  0  0  0  0  0  0
   56.1220   24.1420   44.1450 C   0  0  0  0  0  0  0  0  0  0  0  0
   55.5780   22.9260   43.5080 C   0  0  0  0  0  0  0  0  0  0  0  0
   54.7880   23.0450   42.5350 O   0  0  0  0  0  0  0  0  0  0  0  0
   55.9150   21.6080   43.9630 N   0  0  0  0  0  0  0  0  0  0  0  0
   57.1280   21.2470   44.6950 C   0  0  0  0  0  0  0  0  0  0  0  0
   57.7210   20.5512   44.0833 H   0  0  0  0  0  0  0  0  0  0  0  0
   57.6942   22.1674   44.9005 H   0  0  0  0  0  0  0  0  0  0  0  0
   56.7960   20.5740   46.0380 C   0  0  0  0  0  0  0  0  0  0  0  0
   55.7384   20.2717   46.0338 H   0  0  0  0  0  0  0  0  0  0  0  0
   57.4541   19.7006   46.1568 H   0  0  0  0  0  0  0  0  0  0  0  0
   57.0300   21.4890   47.1800 N   0  0  0  0  0  0  0  0  0  0  0  0
   55.8690   21.5220   48.1070 C   0  0  0  0  0  0  0  0  0  0  0  0
   55.2374   20.6418   47.9164 H   0  0  0  0  0  0  0  0  0  0  0  0
   56.2564   21.5187   49.1365 H   0  0  0  0  0  0  0  0  0  0  0  0
   55.0190   22.7930   47.9230 C   0  0  0  0  0  0  0  0  0  0  0  0
   54.6361   22.8110   46.8919 H   0  0  0  0  0  0  0  0  0  0  0  0
   54.2079   22.7535   48.6650 H   0  0  0  0  0  0  0  0  0  0  0  0
   55.7460   23.9930   48.1560 O   0  0  0  0  0  0  0  0  0  0  0  0
   57.1220   23.9050   47.8060 C   0  0  0  0  0  0  0  0  0  0  0  0
   57.4462   24.8857   47.4276 H   0  0  0  0  0  0  0  0  0  0  0  0
   57.6630   23.6019   48.7146 H   0  0  0  0  0  0  0  0  0  0  0  0
   57.4280   22.8450   46.7300 C   0  0  0  0  0  0  0  0  0  0  0  0
   56.8742   23.0951   45.8131 H   0  0  0  0  0  0  0  0  0  0  0  0
   58.5119   22.8440   46.5423 H   0  0  0  0  0  0  0  0  0  0  0  0
   57.3000   24.7280   43.6500 C   0  0  0  0  0  0  0  0  0  0  0  0
   57.8283   24.2637   42.8042 H   0  0  0  0  0  0  0  0  0  0  0  0
   57.8040   25.8980   44.2270 C   0  0  0  0  0  0  0  0  0  0  0  0
   58.7303   26.3460   43.8382 H   0  0  0  0  0  0  0  0  0  0  0  0
   58.7550   27.6870   46.7310 C   0  0  0  0  0  0  0  0  0  0  0  0
   59.4040   26.5340   47.0060 C   0  0  0  0  0  0  0  0  0  0  0  0
   59.0544   25.5879   46.5670 H   0  0  0  0  0  0  0  0  0  0  0  0
   60.2819   26.5416   47.6688 H   0  0  0  0  0  0  0  0  0  0  0  0
   59.2130   28.8990   47.3010 C   0  0  0  0  0  0  0  0  0  0  0  0
   60.2150   28.9100   48.0750 O   0  0  0  0  0  0  0  0  0  0  0  0
   57.8010   33.0590   46.1280 C   0  0  0  0  0  0  0  0  0  0  0  0
   56.8599   32.4928   46.1894 H   0  0  0  0  0  0  0  0  0  0  0  0
  1  2  1  0
  2  3  1  0
  3  4  2  0
  4  5  1  0
  4  6  1  0
  6  7  1  0
  6  8  2  0
  8  9  1  0
  8 10  1  0
 10 11  1  0
 11 12  1  0
 11 13  2  0
 13 14  1  0
 14 15  1  0
 15 16  2  0
 15 17  1  0
 17 18  1  0
 18 19  2  0
 19 20  1  0
 19 21  1  0
 21 22  1  0
 21 23  2  0
 23 24  1  0
 24 25  2  0
 24 26  1  0
 26 27  1  0
 27 28  1  0
 27 29  1  0
 27 30  1  0
 30 31  1  0
 30 32  1  0
 30 33  1  0
 33 34  1  0
 34 35  1  0
 34 36  1  0
 34 37  1  0
 37 38  1  0
 37 39  1  0
 37 40  1  0
 40 41  1  0
 41 42  1  0
 41 43  1  0
 41 44  1  0
 44 45  1  0
 44 46  1  0
 23 47  1  0
 47 48  1  0
 47 49  2  0
 49 50  1  0
 17 51  1  0
 51 52  2  0
 52 53  1  0
 52 54  1  0
 51 55  1  0
 55 56  2  0
 10 57  2  0
 57 58  1  0
 57  3  1  0
 55 13  1  0
 49 18  1  0
 44 33  1  0
M  CHG  2  14  -1  26  -1
M  END
>  <UniqueID>  (37) 
37

>  <SMILES>  (37) 
C=c1c(=O)/c(=C/c2cccc(O)c2)[n-]c(=O)n1-c1ccc(C(=O)[N-]CCN2CCOCC2)cc1

>  <Energy>  (37) 
103.28773552821492

>  <Genealogy>  (37) 
C=c1c(=O)c(=Cc2cccc(O)c2)[n-]c(=O)n1-c1ccc(C(=O)[N-]CCN2CCOCC2)cc1 (protonated)
C=c1c(=O)/c(=C/c2cccc(O)c2)[n-]c(=O)n1-c1ccc(C(=O)[N-]CCN2CCOCC2)cc1 (cis-trans isomerization)
C=c1c(=O)/c(=C/c2cccc(O)c2)[n-]c(=O)n1-c1ccc(C(=O)[N-]CCN2CCOCC2)cc1 (3D coordinates assigned)
C=c1c(=O)/c(=C/c2cccc(O)c2)[n-]c(=O)n1-c1ccc(C(=O)[N-]CCN2CCOCC2)cc1 (nonaromatic ring conformer: 103.28773552821492 kcal/mol)

>  <smiles>  (37) 
C=c1c(=O)c(=Cc2cccc(O)c2)[nH]c(=O)n1-c1ccc(C(=O)NCCN2CCOCC2)cc1

>  <score_type>  (37) 
oracle

>  <origin>  (37) 
adg

>  <m_score__min__energy>  (37) 
-12.1

>  <m_primary>  (37) 
energy

$$$$
37:0
     RDKit          3D

 34 35  0  0  0  0  0  0  0  0999 V2000
   57.0240   30.8590   46.7080 H   0  0  0  0  0  0  0  0  0  0  0  0
   58.0140   31.0400   46.8300 O   0  0  0  0  0  0  0  0  0  0  0  0
   58.5530   32.3140   46.6550 C   0  0  0  0  0  0  0  0  0  0  0  0
   59.6010   32.7450   47.4810 C   0  0  0  0  0  0  0  0  0  0  0  0
   59.9864   32.0799   48.2678 H   0  0  0  0  0  0  0  0  0  0  0  0
   60.1580   34.0140   47.3100 C   0  0  0  0  0  0  0  0  0  0  0  0
   60.9827   34.3443   47.9586 H   0  0  0  0  0  0  0  0  0  0  0  0
   59.6690   34.8630   46.3170 C   0  0  0  0  0  0  0  0  0  0  0  0
   60.1062   35.8638   46.1859 H   0  0  0  0  0  0  0  0  0  0  0  0
   58.6250   34.4440   45.4890 C   0  0  0  0  0  0  0  0  0  0  0  0
   58.2439   35.1187   44.7082 H   0  0  0  0  0  0  0  0  0  0  0  0
   58.0570   33.1670   45.6450 C   0  0  0  0  0  0  0  0  0  0  0  0
   56.9810   32.7130   44.6880 C   0  0  0  0  0  0  0  0  0  0  0  0
   56.4567   33.5939   44.2891 H   0  0  0  0  0  0  0  0  0  0  0  0
   56.2765   32.0636   45.2284 H   0  0  0  0  0  0  0  0  0  0  0  0
   57.5820   31.9340   43.5450 C   0  0  0  0  0  0  0  0  0  0  0  0
   58.4970   32.4240   42.9010 O   0  0  0  0  0  0  0  0  0  0  0  0
   57.1150   30.5380   43.2220 C   0  0  0  0  0  0  0  0  0  0  0  0
   56.7856   30.5018   42.1731 H   0  0  0  0  0  0  0  0  0  0  0  0
   57.9498   29.8408   43.3862 H   0  0  0  0  0  0  0  0  0  0  0  0
   55.9770   30.1390   44.1070 C   0  0  0  0  0  0  0  0  0  0  0  0
   54.9428   30.3709   43.8127 H   0  0  0  0  0  0  0  0  0  0  0  0
   56.2120   29.5180   45.2240 N   0  0  0  0  0  0  0  0  0  0  0  0
   57.0870   28.3920   45.4120 C   0  0  0  0  0  0  0  0  0  0  0  0
   58.4830   28.4700   45.2220 C   0  0  0  0  0  0  0  0  0  0  0  0
   58.9449   29.4289   44.9444 H   0  0  0  0  0  0  0  0  0  0  0  0
   59.2820   27.3340   45.3850 C   0  0  0  0  0  0  0  0  0  0  0  0
   60.3691   27.4006   45.2310 H   0  0  0  0  0  0  0  0  0  0  0  0
   58.7020   26.1150   45.7430 C   0  0  0  0  0  0  0  0  0  0  0  0
   59.3318   25.2215   45.8658 H   0  0  0  0  0  0  0  0  0  0  0  0
   57.3240   26.0300   45.9450 C   0  0  0  0  0  0  0  0  0  0  0  0
   56.8701   25.0702   46.2325 H   0  0  0  0  0  0  0  0  0  0  0  0
   56.5180   27.1620   45.7830 C   0  0  0  0  0  0  0  0  0  0  0  0
   55.1450   27.0580   45.9810 O   0  0  0  0  0  0  0  0  0  0  0  0
  1  2  1  0
  2  3  1  0
  3  4  2  0
  4  5  1  0
  4  6  1  0
  6  7  1  0
  6  8  2  0
  8  9  1  0
  8 10  1  0
 10 11  1  0
 10 12  2  0
 12 13  1  0
 13 14  1  0
 13 15  1  0
 13 16  1  0
 16 17  2  0
 16 18  1  0
 18 19  1  0
 18 20  1  0
 18 21  1  0
 21 22  1  0
 21 23  2  0
 23 24  1  0
 24 25  2  0
 25 26  1  0
 25 27  1  0
 27 28  1  0
 27 29  2  0
 29 30  1  0
 29 31  1  0
 31 32  1  0
 31 33  2  0
 33 34  1  0
 12  3  1  0
 33 24  1  0
M  CHG  1  34  -1
M  END
>  <UniqueID>  (38) 
38

>  <SMILES>  (38) 
O=C(C/C=N/c1ccccc1[O-])Cc1ccccc1O

>  <Energy>  (38) 
30.21579356725549

>  <Genealogy>  (38) 
O=C(CC=Nc1ccccc1[O-])Cc1ccccc1O (protonated)
O=C(C/C=N/c1ccccc1[O-])Cc1ccccc1O (cis-trans isomerization)
O=C(C/C=N/c1ccccc1[O-])Cc1ccccc1O (3D coordinates assigned)
O=C(C/C=N/c1ccccc1[O-])Cc1ccccc1O (optimized conformer: 30.21579356725549 kcal/mol)

>  <smiles>  (38) 
O=C(CC=Nc1ccccc1O)Cc1ccccc1O

>  <score_type>  (38) 
oracle

>  <origin>  (38) 
adg

>  <m_score__min__energy>  (38) 
-10.77

>  <m_primary>  (38) 
energy

$$$$
38:0
     RDKit          3D

 48 50  0  0  0  0  0  0  0  0999 V2000
   59.9890   36.1130   46.0300 C   0  0  0  0  0  0  0  0  0  0  0  0
   59.4230   34.7210   46.1330 C   0  0  0  0  0  0  0  0  0  0  0  0
   58.7580   34.1810   45.0200 C   0  0  0  0  0  0  0  0  0  0  0  0
   58.2130   32.8970   45.0730 C   0  0  0  0  0  0  0  0  0  0  0  0
   58.3060   32.1350   46.2470 C   0  0  0  0  0  0  0  0  0  0  0  0
   57.7750   30.8400   46.3410 O   0  0  0  0  0  0  0  0  0  0  0  0
   58.4140   29.6630   45.9220 C   0  0  0  0  0  0  0  0  0  0  0  0
   59.5230   29.1480   46.6170 C   0  0  0  0  0  0  0  0  0  0  0  0
   60.1550   27.9840   46.1740 C   0  0  0  0  0  0  0  0  0  0  0  0
   59.6960   27.3310   45.0280 C   0  0  0  0  0  0  0  0  0  0  0  0
   58.6070   27.8450   44.3190 C   0  0  0  0  0  0  0  0  0  0  0  0
   57.9630   29.0140   44.7570 C   0  0  0  0  0  0  0  0  0  0  0  0
   56.5860   29.6530   43.8580 S   0  0  0  0  0  0  0  0  0  0  0  0
   55.1340   29.3840   44.7580 N   0  0  0  0  0  0  0  0  0  0  0  0
   56.4650   28.9660   42.5280 O   0  0  0  0  0  0  0  0  0  0  0  0
   56.7780   31.1260   43.6290 O   0  0  0  0  0  0  0  0  0  0  0  0
   58.9980   32.6530   47.3450 C   0  0  0  0  0  0  0  0  0  0  0  0
   59.5890   33.9260   47.2920 C   0  0  0  0  0  0  0  0  0  0  0  0
   60.3250   34.4110   48.4840 C   0  0  0  0  0  0  0  0  0  0  0  0
   59.6600   34.9680   49.4000 O   0  0  0  0  0  0  0  0  0  0  0  0
   61.7710   34.3170   48.6150 N   0  0  0  0  0  0  0  0  0  0  0  0
   62.3930   33.8160   47.3550 C   0  0  0  0  0  0  0  0  0  0  0  0
   62.9560   32.3940   47.4860 C   0  0  0  0  0  0  0  0  0  0  0  0
   64.0180   32.3280   48.5960 C   0  0  0  0  0  0  0  0  0  0  0  0
   63.6900   33.2470   49.7900 C   0  0  0  0  0  0  0  0  0  0  0  0
   62.1940   33.5820   49.8370 C   0  0  0  0  0  0  0  0  0  0  0  0
   60.1535   36.5176   47.0396 H   0  0  0  0  0  0  0  0  0  0  0  0
   60.9454   36.0807   45.4876 H   0  0  0  0  0  0  0  0  0  0  0  0
   59.2814   36.7573   45.4876 H   0  0  0  0  0  0  0  0  0  0  0  0
   58.6659   34.7749   44.0987 H   0  0  0  0  0  0  0  0  0  0  0  0
   57.7078   32.4804   44.1892 H   0  0  0  0  0  0  0  0  0  0  0  0
   59.8945   29.6647   47.5142 H   0  0  0  0  0  0  0  0  0  0  0  0
   61.0154   27.5810   46.7284 H   0  0  0  0  0  0  0  0  0  0  0  0
   60.1919   26.4116   44.6833 H   0  0  0  0  0  0  0  0  0  0  0  0
   58.2522   27.3315   43.4132 H   0  0  0  0  0  0  0  0  0  0  0  0
   54.4610   28.8950   44.1240 H   0  0  0  0  0  0  0  0  0  0  0  0
   59.0811   32.0549   48.2644 H   0  0  0  0  0  0  0  0  0  0  0  0
   62.1120   35.3020   48.7460 H   0  0  0  0  0  0  0  0  0  0  0  0
   61.6300   33.8189   46.5626 H   0  0  0  0  0  0  0  0  0  0  0  0
   63.2356   34.4820   47.1175 H   0  0  0  0  0  0  0  0  0  0  0  0
   62.1360   31.7024   47.7296 H   0  0  0  0  0  0  0  0  0  0  0  0
   63.4247   32.1108   46.5320 H   0  0  0  0  0  0  0  0  0  0  0  0
   64.0846   31.2914   48.9579 H   0  0  0  0  0  0  0  0  0  0  0  0
   64.9702   32.6709   48.1651 H   0  0  0  0  0  0  0  0  0  0  0  0
   63.9733   32.7380   50.7231 H   0  0  0  0  0  0  0  0  0  0  0  0
   64.2535   34.1844   49.6733 H   0  0  0  0  0  0  0  0  0  0  0  0
   61.6187   32.6473   49.9112 H   0  0  0  0  0  0  0  0  0  0  0  0
   62.0067   34.2219   50.7119 H   0  0  0  0  0  0  0  0  0  0  0  0
  1  2  1  0
  2  3  2  0
  3  4  1  0
  4  5  2  0
  5  6  1  0
  6  7  1  0
  7  8  2  0
  8  9  1  0
  9 10  2  0
 10 11  1  0
 11 12  2  0
 12 13  1  0
 13 14  1  0
 13 15  2  0
 13 16  2  0
  5 17  1  0
 17 18  2  0
 18 19  1  0
 19 20  2  0
 19 21  1  0
 21 22  1  0
 22 23  1  0
 23 24  1  0
 24 25  1  0
 25 26  1  0
 18  2  1  0
 26 21  1  0
 12  7  1  0
  1 27  1  0
  1 28  1  0
  1 29  1  0
  3 30  1  0
  4 31  1  0
  8 32  1  0
  9 33  1  0
 10 34  1  0
 11 35  1  0
 14 36  1  0
 17 37  1  0
 21 38  1  0
 22 39  1  0
 22 40  1  0
 23 41  1  0
 23 42  1  0
 24 43  1  0
 24 44  1  0
 25 45  1  0
 25 46  1  0
 26 47  1  0
 26 48  1  0
M  CHG  2  14  -1  21   1
M  END
>  <UniqueID>  (39) 
39

>  <SMILES>  (39) 
Cc1ccc(Oc2ccccc2S([NH-])(=O)=O)cc1C(=O)[NH+]1CCCCC1

>  <Energy>  (39) 
74.52907129847524

>  <Genealogy>  (39) 
Cc1ccc(Oc2ccccc2S([NH-])(=O)=O)cc1C(=O)[NH+]1CCCCC1 (protonated)
Cc1ccc(Oc2ccccc2S([NH-])(=O)=O)cc1C(=O)[NH+]1CCCCC1 (3D coordinates assigned)
Cc1ccc(Oc2ccccc2S([NH-])(=O)=O)cc1C(=O)[NH+]1CCCCC1 (nonaromatic ring conformer: 74.52907129847524 kcal/mol)

>  <smiles>  (39) 
Cc1ccc(Oc2ccccc2S(N)(=O)=O)cc1C(=O)N1CCCCC1

>  <score_type>  (39) 
oracle

>  <origin>  (39) 
adg

>  <m_score__min__energy>  (39) 
-10.460000000000001

>  <m_primary>  (39) 
energy

$$$$
39:0
     RDKit          3D

 60 63  0  0  0  0  0  0  0  0999 V2000
   61.0370   31.1920   52.8140 C   0  0  0  0  0  0  0  0  0  0  0  0
   60.1650   32.1480   53.5620 C   0  0  0  0  0  0  0  0  0  0  0  0
   60.4300   33.4600   53.6900 N   0  0  0  0  0  0  0  0  0  0  0  0
   59.3910   33.9300   54.4110 C   0  0  0  0  0  0  0  0  0  0  0  0
   58.4880   32.9840   54.7490 N   0  0  0  0  0  0  0  0  0  0  0  0
   58.9870   31.8560   54.2140 C   0  0  0  0  0  0  0  0  0  0  0  0
   58.3300   30.5130   54.3470 C   0  0  0  0  0  0  0  0  0  0  0  0
   57.5030   30.1910   53.1650 N   0  0  0  0  0  0  0  0  0  0  0  0
   58.2130   29.3220   52.1980 C   0  0  0  0  0  0  0  0  0  0  0  0
   58.4160   30.0490   50.8980 C   0  0  0  0  0  0  0  0  0  0  0  0
   58.9040   29.3760   49.7660 C   0  0  0  0  0  0  0  0  0  0  0  0
   59.1640   30.0800   48.5860 C   0  0  0  0  0  0  0  0  0  0  0  0
   58.9200   31.4640   48.5080 C   0  0  0  0  0  0  0  0  0  0  0  0
   59.2790   32.2250   47.2400 C   0  0  0  0  0  0  0  0  0  0  0  0
   58.0810   33.0500   46.6980 C   0  0  0  0  0  0  0  0  0  0  0  0
   58.5540   34.2670   45.8990 C   0  0  0  0  0  0  0  0  0  0  0  0
   59.3560   35.2350   46.7870 C   0  0  0  0  0  0  0  0  0  0  0  0
   60.2990   34.5290   47.7890 C   0  0  0  0  0  0  0  0  0  0  0  0
   60.5750   33.0610   47.4300 C   0  0  0  0  0  0  0  0  0  0  0  0
   58.4120   32.1270   49.6430 C   0  0  0  0  0  0  0  0  0  0  0  0
   58.1510   31.4220   50.8200 C   0  0  0  0  0  0  0  0  0  0  0  0
   56.0290   29.4080   53.6890 S   0  0  0  0  0  0  0  0  0  0  0  0
   55.9460   29.4540   55.1890 O   0  0  0  0  0  0  0  0  0  0  0  0
   56.0430   27.9640   53.2720 O   0  0  0  0  0  0  0  0  0  0  0  0
   54.6130   30.2040   52.9980 C   0  0  0  0  0  0  0  0  0  0  0  0
   54.5970   30.5620   51.6460 C   0  0  0  0  0  0  0  0  0  0  0  0
   53.4820   31.2080   51.1010 C   0  0  0  0  0  0  0  0  0  0  0  0
   52.3660   31.5040   51.9050 C   0  0  0  0  0  0  0  0  0  0  0  0
   51.1800   32.1780   51.3310 C   0  0  0  0  0  0  0  0  0  0  0  0
   51.0150   32.2340   50.0810 O   0  0  0  0  0  0  0  0  0  0  0  0
   50.2250   32.7530   52.1640 O   0  0  0  0  0  0  0  0  0  0  0  0
   52.3910   31.1440   53.2620 C   0  0  0  0  0  0  0  0  0  0  0  0
   53.5060   30.4960   53.8040 C   0  0  0  0  0  0  0  0  0  0  0  0
   61.6007   30.5740   53.5284 H   0  0  0  0  0  0  0  0  0  0  0  0
   60.4125   30.5439   52.1816 H   0  0  0  0  0  0  0  0  0  0  0  0
   61.7396   31.7545   52.1816 H   0  0  0  0  0  0  0  0  0  0  0  0
   59.2886   34.9871   54.6974 H   0  0  0  0  0  0  0  0  0  0  0  0
   59.1089   29.7442   54.4575 H   0  0  0  0  0  0  0  0  0  0  0  0
   57.6734   30.5377   55.2292 H   0  0  0  0  0  0  0  0  0  0  0  0
   59.1918   29.0402   52.6134 H   0  0  0  0  0  0  0  0  0  0  0  0
   57.6092   28.4210   52.0147 H   0  0  0  0  0  0  0  0  0  0  0  0
   59.0823   28.2914   49.8077 H   0  0  0  0  0  0  0  0  0  0  0  0
   59.5630   29.5470   47.7104 H   0  0  0  0  0  0  0  0  0  0  0  0
   59.5038   31.4879   46.4551 H   0  0  0  0  0  0  0  0  0  0  0  0
   57.4715   32.4083   46.0447 H   0  0  0  0  0  0  0  0  0  0  0  0
   57.4920   33.4076   47.5554 H   0  0  0  0  0  0  0  0  0  0  0  0
   59.1926   33.9268   45.0705 H   0  0  0  0  0  0  0  0  0  0  0  0
   57.6705   34.7969   45.5136 H   0  0  0  0  0  0  0  0  0  0  0  0
   59.9633   35.8806   46.1355 H   0  0  0  0  0  0  0  0  0  0  0  0
   58.6255   35.8034   47.3814 H   0  0  0  0  0  0  0  0  0  0  0  0
   61.2566   35.0700   47.8084 H   0  0  0  0  0  0  0  0  0  0  0  0
   59.7994   34.5372   48.7690 H   0  0  0  0  0  0  0  0  0  0  0  0
   61.1505   33.0322   46.4930 H   0  0  0  0  0  0  0  0  0  0  0  0
   61.1309   32.6174   48.2692 H   0  0  0  0  0  0  0  0  0  0  0  0
   58.2194   33.2092   49.6016 H   0  0  0  0  0  0  0  0  0  0  0  0
   57.7346   31.9485   51.6914 H   0  0  0  0  0  0  0  0  0  0  0  0
   55.4644   30.3348   51.0088 H   0  0  0  0  0  0  0  0  0  0  0  0
   53.4779   31.4863   50.0368 H   0  0  0  0  0  0  0  0  0  0  0  0
   51.5274   31.3732   53.9036 H   0  0  0  0  0  0  0  0  0  0  0  0
   53.5131   30.2148   54.8674 H   0  0  0  0  0  0  0  0  0  0  0  0
  1  2  1  0
  2  3  1  0
  3  4  2  0
  4  5  1  0
  5  6  1  0
  6  7  1  0
  7  8  1  0
  8  9  1  0
  9 10  1  0
 10 11  2  0
 11 12  1  0
 12 13  2  0
 13 14  1  0
 14 15  1  0
 15 16  1  0
 16 17  1  0
 17 18  1  0
 18 19  1  0
 13 20  1  0
 20 21  2  0
  8 22  1  0
 22 23  2  0
 22 24  2  0
 22 25  1  0
 25 26  2  0
 26 27  1  0
 27 28  2  0
 28 29  1  0
 29 30  2  0
 29 31  1  0
 28 32  1  0
 32 33  2  0
  6  2  2  0
 21 10  1  0
 33 25  1  0
 19 14  1  0
  1 34  1  0
  1 35  1  0
  1 36  1  0
  4 37  1  0
  7 38  1  0
  7 39  1  0
  9 40  1  0
  9 41  1  0
 11 42  1  0
 12 43  1  0
 14 44  1  0
 15 45  1  0
 15 46  1  0
 16 47  1  0
 16 48  1  0
 17 49  1  0
 17 50  1  0
 18 51  1  0
 18 52  1  0
 19 53  1  0
 19 54  1  0
 20 55  1  0
 21 56  1  0
 26 57  1  0
 27 58  1  0
 32 59  1  0
 33 60  1  0
M  CHG  2   5  -1  31  -1
M  END
>  <UniqueID>  (40) 
40

>  <SMILES>  (40) 
Cc1nc[n-]c1CN(Cc1ccc(C2CCCCC2)cc1)S(=O)(=O)c1ccc(C(=O)[O-])cc1

>  <Energy>  (40) 
90.23845096850037

>  <Genealogy>  (40) 
Cc1nc[n-]c1CN(Cc1ccc(C2CCCCC2)cc1)S(=O)(=O)c1ccc(C(=O)[O-])cc1 (protonated)
Cc1nc[n-]c1CN(Cc1ccc(C2CCCCC2)cc1)S(=O)(=O)c1ccc(C(=O)[O-])cc1 (3D coordinates assigned)
Cc1nc[n-]c1CN(Cc1ccc(C2CCCCC2)cc1)S(=O)(=O)c1ccc(C(=O)[O-])cc1 (nonaromatic ring conformer: 90.23845096850037 kcal/mol)

>  <smiles>  (40) 
Cc1nc[nH]c1CN(Cc1ccc(C2CCCCC2)cc1)S(=O)(=O)c1ccc(C(=O)O)cc1

>  <score_type>  (40) 
oracle

>  <origin>  (40) 
adg

>  <m_score__min__energy>  (40) 
-12.66

>  <m_primary>  (40) 
energy

$$$$
40:0
     RDKit          3D

 35 37  0  0  0  0  0  0  0  0999 V2000
   59.4316   29.4867   48.2937 H   0  0  0  0  0  0  0  0  0  0  0  0
   59.1510   28.4400   48.1050 C   0  0  0  0  0  0  0  0  0  0  0  0
   59.3073   27.6796   48.8844 H   0  0  0  0  0  0  0  0  0  0  0  0
   58.6140   28.0880   46.9150 C   0  0  0  0  0  0  0  0  0  0  0  0
   58.2570   26.7360   46.6850 C   0  0  0  0  0  0  0  0  0  0  0  0
   58.4680   25.8660   47.5740 O   0  0  0  0  0  0  0  0  0  0  0  0
   57.6930   26.3790   45.4370 C   0  0  0  0  0  0  0  0  0  0  0  0
   57.2980   25.1310   45.1060 C   0  0  0  0  0  0  0  0  0  0  0  0
   58.0825   24.4219   44.8029 H   0  0  0  0  0  0  0  0  0  0  0  0
   55.9060   24.6310   45.1140 C   0  0  0  0  0  0  0  0  0  0  0  0
   54.8690   25.4320   45.6110 C   0  0  0  0  0  0  0  0  0  0  0  0
   55.1240   26.7230   46.0590 O   0  0  0  0  0  0  0  0  0  0  0  0
   53.5990   24.9500   45.6500 N   0  0  0  0  0  0  0  0  0  0  0  0
   53.3140   23.6920   45.2270 C   0  0  0  0  0  0  0  0  0  0  0  0
   51.7790   23.1420   45.2850 S   0  0  0  0  0  0  0  0  0  0  0  0
   54.3050   22.8870   44.7670 N   0  0  0  0  0  0  0  0  0  0  0  0
   55.5900   23.3220   44.7070 C   0  0  0  0  0  0  0  0  0  0  0  0
   56.4900   22.5430   44.2920 O   0  0  0  0  0  0  0  0  0  0  0  0
   57.5540   27.3420   44.4930 N   0  0  0  0  0  0  0  0  0  0  0  0
   57.9040   28.6310   44.7080 C   0  0  0  0  0  0  0  0  0  0  0  0
   57.7360   29.4700   43.7800 O   0  0  0  0  0  0  0  0  0  0  0  0
   58.4220   29.0180   45.9140 N   0  0  0  0  0  0  0  0  0  0  0  0
   58.7530   30.4110   46.0980 C   0  0  0  0  0  0  0  0  0  0  0  0
   57.7800   31.3980   45.8990 C   0  0  0  0  0  0  0  0  0  0  0  0
   56.7601   31.1110   45.6033 H   0  0  0  0  0  0  0  0  0  0  0  0
   58.1010   32.7470   46.0750 C   0  0  0  0  0  0  0  0  0  0  0  0
   57.3311   33.5168   45.9179 H   0  0  0  0  0  0  0  0  0  0  0  0
   59.4030   33.1270   46.4520 C   0  0  0  0  0  0  0  0  0  0  0  0
   59.7480   34.5530   46.6410 C   0  0  0  0  0  0  0  0  0  0  0  0
   60.1740   34.9670   47.7520 O   0  0  0  0  0  0  0  0  0  0  0  0
   59.6060   35.4570   45.5950 O   0  0  0  0  0  0  0  0  0  0  0  0
   60.3750   32.1300   46.6460 C   0  0  0  0  0  0  0  0  0  0  0  0
   61.3968   32.4129   46.9391 H   0  0  0  0  0  0  0  0  0  0  0  0
   60.0520   30.7820   46.4690 C   0  0  0  0  0  0  0  0  0  0  0  0
   60.8202   30.0096   46.6215 H   0  0  0  0  0  0  0  0  0  0  0  0
  1  2  1  0
  2  3  1  0
  2  4  2  0
  4  5  1  0
  5  6  2  0
  5  7  1  0
  7  8  2  0
  8  9  1  0
  8 10  1  0
 10 11  2  0
 11 12  1  0
 11 13  1  0
 13 14  1  0
 14 15  2  0
 14 16  1  0
 16 17  1  0
 17 18  2  0
  7 19  1  0
 19 20  1  0
 20 21  2  0
 20 22  1  0
 22 23  1  0
 23 24  2  0
 24 25  1  0
 24 26  1  0
 26 27  1  0
 26 28  2  0
 28 29  1  0
 29 30  2  0
 29 31  1  0
 28 32  1  0
 32 33  1  0
 32 34  2  0
 34 35  1  0
 22  4  1  0
 34 23  1  0
 17 10  1  0
M  CHG  5  12  -1  13  -1  16  -1  19  -1  31  -1
M  END
>  <UniqueID>  (41) 
41

>  <SMILES>  (41) 
C=c1c(=O)/c(=C\c2c([O-])[n-]c(=S)[n-]c2=O)[n-]c(=O)n1-c1ccc(C(=O)[O-])cc1

>  <Energy>  (41) 
69.83027859520578

>  <Genealogy>  (41) 
C=c1c(=O)c(=Cc2c([O-])[n-]c(=S)[n-]c2=O)[n-]c(=O)n1-c1ccc(C(=O)[O-])cc1 (protonated)
C=c1c(=O)/c(=C\c2c([O-])[n-]c(=S)[n-]c2=O)[n-]c(=O)n1-c1ccc(C(=O)[O-])cc1 (cis-trans isomerization)
C=c1c(=O)/c(=C\c2c([O-])[n-]c(=S)[n-]c2=O)[n-]c(=O)n1-c1ccc(C(=O)[O-])cc1 (3D coordinates assigned)
C=c1c(=O)/c(=C\c2c([O-])[n-]c(=S)[n-]c2=O)[n-]c(=O)n1-c1ccc(C(=O)[O-])cc1 (optimized conformer: 69.83027859520578 kcal/mol)

>  <smiles>  (41) 
C=c1c(=O)c(=Cc2c(O)[nH]c(=S)[nH]c2=O)[nH]c(=O)n1-c1ccc(C(=O)O)cc1

>  <score_type>  (41) 
oracle

>  <origin>  (41) 
adg

>  <m_score__min__energy>  (41) 
-16.640000000000001

>  <m_primary>  (41) 
energy

$$$$
41:0
     RDKit          3D

 40 41  0  0  0  0  0  0  0  0999 V2000
   60.0670   27.0010   46.4690 C   0  0  0  0  0  0  0  0  0  0  0  0
   60.1840   27.9220   45.2590 C   0  0  0  0  0  0  0  0  0  0  0  0
   58.8670   28.1330   44.6430 N   0  0  0  0  0  0  0  0  0  0  0  0
   58.5740   27.4670   43.3600 C   0  0  0  0  0  0  0  0  0  0  0  0
   57.7830   26.2110   43.5600 C   0  0  0  0  0  0  0  0  0  0  0  0
   57.0330   25.9370   44.6410 N   0  0  0  0  0  0  0  0  0  0  0  0
   56.5120   24.7350   44.3380 C   0  0  0  0  0  0  0  0  0  0  0  0
   55.5220   24.0120   45.1940 C   0  0  0  0  0  0  0  0  0  0  0  0
   54.4450   24.9520   45.6280 C   0  0  0  0  0  0  0  0  0  0  0  0
   54.7720   26.2910   45.9870 N   0  0  0  0  0  0  0  0  0  0  0  0
   53.2430   24.5770   45.6300 O   0  0  0  0  0  0  0  0  0  0  0  0
   56.9210   24.3020   43.1290 N   0  0  0  0  0  0  0  0  0  0  0  0
   57.7080   25.2370   42.6840 O   0  0  0  0  0  0  0  0  0  0  0  0
   57.8820   28.9430   45.3310 C   0  0  0  0  0  0  0  0  0  0  0  0
   56.7540   28.4520   45.6120 O   0  0  0  0  0  0  0  0  0  0  0  0
   58.1420   30.3540   45.6890 C   0  0  0  0  0  0  0  0  0  0  0  0
   59.2330   30.6910   46.5020 C   0  0  0  0  0  0  0  0  0  0  0  0
   59.4970   32.0280   46.8000 C   0  0  0  0  0  0  0  0  0  0  0  0
   58.6590   33.0210   46.2890 C   0  0  0  0  0  0  0  0  0  0  0  0
   58.9870   34.7470   46.6330 S   0  0  0  0  0  0  0  0  0  0  0  0
   59.9610   34.3820   48.1260 C   0  0  0  0  0  0  0  0  0  0  0  0
   57.5880   32.6800   45.5260 N   0  0  0  0  0  0  0  0  0  0  0  0
   57.3070   31.3860   45.2180 C   0  0  0  0  0  0  0  0  0  0  0  0
   56.3090   31.1270   44.4960 O   0  0  0  0  0  0  0  0  0  0  0  0
   60.1426   27.5958   47.3912 H   0  0  0  0  0  0  0  0  0  0  0  0
   59.0960   26.4846   46.4443 H   0  0  0  0  0  0  0  0  0  0  0  0
   60.8780   26.2583   46.4443 H   0  0  0  0  0  0  0  0  0  0  0  0
   60.5927   28.8914   45.5802 H   0  0  0  0  0  0  0  0  0  0  0  0
   60.8515   27.4549   44.5199 H   0  0  0  0  0  0  0  0  0  0  0  0
   57.9974   28.1548   42.7240 H   0  0  0  0  0  0  0  0  0  0  0  0
   59.5293   27.2004   42.8842 H   0  0  0  0  0  0  0  0  0  0  0  0
   56.8680   26.5230   45.4890 H   0  0  0  0  0  0  0  0  0  0  0  0
   55.0764   23.1868   44.6192 H   0  0  0  0  0  0  0  0  0  0  0  0
   56.0338   23.6120   46.0817 H   0  0  0  0  0  0  0  0  0  0  0  0
   55.1740   26.9500   45.2860 H   0  0  0  0  0  0  0  0  0  0  0  0
   59.8820   29.8999   46.9057 H   0  0  0  0  0  0  0  0  0  0  0  0
   60.3567   32.2972   47.4312 H   0  0  0  0  0  0  0  0  0  0  0  0
   59.3604   34.6071   49.0197 H   0  0  0  0  0  0  0  0  0  0  0  0
   60.2405   33.3181   48.1304 H   0  0  0  0  0  0  0  0  0  0  0  0
   60.8709   35.0002   48.1304 H   0  0  0  0  0  0  0  0  0  0  0  0
  1  2  1  0
  2  3  1  0
  3  4  1  0
  4  5  1  0
  5  6  2  0
  6  7  1  0
  7  8  1  0
  8  9  1  0
  9 10  1  0
  9 11  2  0
  7 12  2  0
 12 13  1  0
  3 14  1  0
 14 15  2  0
 14 16  1  0
 16 17  2  0
 17 18  1  0
 18 19  2  0
 19 20  1  0
 20 21  1  0
 19 22  1  0
 22 23  1  0
 23 24  2  0
 13  5  1  0
 23 16  1  0
  1 25  1  0
  1 26  1  0
  1 27  1  0
  2 28  1  0
  2 29  1  0
  4 30  1  0
  4 31  1  0
  6 32  1  0
  8 33  1  0
  8 34  1  0
 10 35  1  0
 17 36  1  0
 18 37  1  0
 21 38  1  0
 21 39  1  0
 21 40  1  0
M  CHG  3   6   1  10  -1  22  -1
M  END
>  <UniqueID>  (42) 
42

>  <SMILES>  (42) 
CCN(Cc1[nH+]c(CC([NH-])=O)no1)C(=O)c1ccc(SC)[n-]c1=O

>  <Energy>  (42) 
67.46048117792537

>  <Genealogy>  (42) 
CCN(Cc1[nH+]c(CC([NH-])=O)no1)C(=O)c1ccc(SC)[n-]c1=O (protonated)
CCN(Cc1[nH+]c(CC([NH-])=O)no1)C(=O)c1ccc(SC)[n-]c1=O (3D coordinates assigned)
CCN(Cc1[nH+]c(CC([NH-])=O)no1)C(=O)c1ccc(SC)[n-]c1=O (optimized conformer: 67.46048117792537 kcal/mol)

>  <smiles>  (42) 
CCN(Cc1nc(CC(N)=O)no1)C(=O)c1ccc(SC)[nH]c1=O

>  <score_type>  (42) 
oracle

>  <origin>  (42) 
adg

>  <m_score__min__energy>  (42) 
-9.8900000000000006

>  <m_primary>  (42) 
energy

$$$$
42:0
     RDKit          3D

 70 73  0  0  0  0  0  0  0  0999 V2000
   61.1570   31.4730   53.4680 C   0  0  0  0  0  0  0  0  0  0  0  0
   60.1930   30.4650   53.1770 O   0  0  0  0  0  0  0  0  0  0  0  0
   60.0250   29.8650   51.9190 C   0  0  0  0  0  0  0  0  0  0  0  0
   60.7960   28.7600   51.5140 C   0  0  0  0  0  0  0  0  0  0  0  0
   60.6250   28.2000   50.2470 C   0  0  0  0  0  0  0  0  0  0  0  0
   59.6790   28.7310   49.3580 C   0  0  0  0  0  0  0  0  0  0  0  0
   59.5120   28.1570   48.0000 C   0  0  0  0  0  0  0  0  0  0  0  0
   60.5990   27.5690   47.3300 C   0  0  0  0  0  0  0  0  0  0  0  0
   60.4460   27.0870   46.0270 C   0  0  0  0  0  0  0  0  0  0  0  0
   59.2120   27.1840   45.3770 C   0  0  0  0  0  0  0  0  0  0  0  0
   58.1070   27.7450   46.0450 C   0  0  0  0  0  0  0  0  0  0  0  0
   56.8260   27.9320   45.4260 N   0  0  0  0  0  0  0  0  0  0  0  0
   56.2950   29.0810   44.7530 C   0  0  0  0  0  0  0  0  0  0  0  0
   55.0880   29.4130   44.8810 O   0  0  0  0  0  0  0  0  0  0  0  0
   57.1530   29.8870   43.9400 N   0  0  0  0  0  0  0  0  0  0  0  0
   57.1800   31.3480   43.9850 C   0  0  0  0  0  0  0  0  0  0  0  0
   58.0210   31.8410   45.1350 C   0  0  0  0  0  0  0  0  0  0  0  0
   57.8380   33.1390   45.6390 C   0  0  0  0  0  0  0  0  0  0  0  0
   58.6340   33.6060   46.6910 C   0  0  0  0  0  0  0  0  0  0  0  0
   59.6170   32.7810   47.2530 C   0  0  0  0  0  0  0  0  0  0  0  0
   60.6230   33.3890   48.5660 S   0  0  0  0  0  0  0  0  0  0  0  0
   59.6750   34.4020   49.5990 N   0  0  0  0  0  0  0  0  0  0  0  0
   61.1630   32.2270   49.3540 O   0  0  0  0  0  0  0  0  0  0  0  0
   61.7780   34.1860   48.0210 O   0  0  0  0  0  0  0  0  0  0  0  0
   59.8140   31.4900   46.7410 C   0  0  0  0  0  0  0  0  0  0  0  0
   59.0170   31.0200   45.6940 C   0  0  0  0  0  0  0  0  0  0  0  0
   58.2670   28.2230   47.3500 C   0  0  0  0  0  0  0  0  0  0  0  0
   58.9020   29.8290   49.7630 C   0  0  0  0  0  0  0  0  0  0  0  0
   59.0650   30.3920   51.0350 C   0  0  0  0  0  0  0  0  0  0  0  0
   58.1250   31.8210   51.4850 S   0  0  0  0  0  0  0  0  0  0  0  0
   59.0390   32.9200   51.9540 O   0  0  0  0  0  0  0  0  0  0  0  0
   57.3670   32.3180   50.2870 O   0  0  0  0  0  0  0  0  0  0  0  0
   57.0060   31.4120   52.7460 N   0  0  0  0  0  0  0  0  0  0  0  0
   56.0530   30.4140   52.2570 C   0  0  0  0  0  0  0  0  0  0  0  0
   54.8270   30.3490   53.1760 C   0  0  0  0  0  0  0  0  0  0  0  0
   53.6030   29.9740   52.4300 N   0  0  0  0  0  0  0  0  0  0  0  0
   53.5080   30.6970   51.1390 C   0  0  0  0  0  0  0  0  0  0  0  0
   52.5950   31.9340   51.2430 C   0  0  0  0  0  0  0  0  0  0  0  0
   51.2640   31.6460   51.6590 O   0  0  0  0  0  0  0  0  0  0  0  0
   51.1470   30.4320   52.3900 C   0  0  0  0  0  0  0  0  0  0  0  0
   52.3800   30.1300   53.2570 C   0  0  0  0  0  0  0  0  0  0  0  0
   61.2587   31.5793   54.5581 H   0  0  0  0  0  0  0  0  0  0  0  0
   62.1274   31.1882   53.0353 H   0  0  0  0  0  0  0  0  0  0  0  0
   60.8292   32.4297   53.0353 H   0  0  0  0  0  0  0  0  0  0  0  0
   61.5405   28.3334   52.2023 H   0  0  0  0  0  0  0  0  0  0  0  0
   61.2359   27.3369   49.9438 H   0  0  0  0  0  0  0  0  0  0  0  0
   61.5738   27.4879   47.8332 H   0  0  0  0  0  0  0  0  0  0  0  0
   61.3017   26.6285   45.5098 H   0  0  0  0  0  0  0  0  0  0  0  0
   59.1045   26.8220   44.3438 H   0  0  0  0  0  0  0  0  0  0  0  0
   57.6014   31.7286   43.0429 H   0  0  0  0  0  0  0  0  0  0  0  0
   56.1513   31.7120   44.1238 H   0  0  0  0  0  0  0  0  0  0  0  0
   57.0658   33.7913   45.2051 H   0  0  0  0  0  0  0  0  0  0  0  0
   58.4873   34.6251   47.0783 H   0  0  0  0  0  0  0  0  0  0  0  0
   58.9040   33.8080   49.9840 H   0  0  0  0  0  0  0  0  0  0  0  0
   60.5983   30.8457   47.1650 H   0  0  0  0  0  0  0  0  0  0  0  0
   59.1693   30.0025   45.3048 H   0  0  0  0  0  0  0  0  0  0  0  0
   57.4044   28.6577   47.8763 H   0  0  0  0  0  0  0  0  0  0  0  0
   58.1568   30.2516   49.0730 H   0  0  0  0  0  0  0  0  0  0  0  0
   55.7306   30.6879   51.2416 H   0  0  0  0  0  0  0  0  0  0  0  0
   56.5426   29.4291   52.2457 H   0  0  0  0  0  0  0  0  0  0  0  0
   55.0093   29.6007   53.9613 H   0  0  0  0  0  0  0  0  0  0  0  0
   54.6712   31.3470   53.6115 H   0  0  0  0  0  0  0  0  0  0  0  0
   54.5148   31.0217   50.8376 H   0  0  0  0  0  0  0  0  0  0  0  0
   53.0744   30.0130   50.3946 H   0  0  0  0  0  0  0  0  0  0  0  0
   53.0398   32.6305   51.9689 H   0  0  0  0  0  0  0  0  0  0  0  0
   52.5239   32.3593   50.2310 H   0  0  0  0  0  0  0  0  0  0  0  0
   50.2664   30.5013   53.0455 H   0  0  0  0  0  0  0  0  0  0  0  0
   51.0521   29.6160   51.6585 H   0  0  0  0  0  0  0  0  0  0  0  0
   52.5306   30.9585   53.9648 H   0  0  0  0  0  0  0  0  0  0  0  0
   52.2025   29.1851   53.7914 H   0  0  0  0  0  0  0  0  0  0  0  0
  1  2  1  0
  2  3  1  0
  3  4  2  0
  4  5  1  0
  5  6  2  0
  6  7  1  0
  7  8  2  0
  8  9  1  0
  9 10  2  0
 10 11  1  0
 11 12  1  0
 12 13  1  0
 13 14  2  0
 13 15  1  0
 15 16  1  0
 16 17  1  0
 17 18  2  0
 18 19  1  0
 19 20  2  0
 20 21  1  0
 21 22  1  0
 21 23  2  0
 21 24  2  0
 20 25  1  0
 25 26  2  0
 11 27  2  0
  6 28  1  0
 28 29  2  0
 29 30  1  0
 30 31  2  0
 30 32  2  0
 30 33  1  0
 33 34  1  0
 34 35  1  0
 35 36  1  0
 36 37  1  0
 37 38  1  0
 38 39  1  0
 39 40  1  0
 40 41  1  0
 29  3  1  0
 41 36  1  0
 27  7  1  0
 26 17  1  0
  1 42  1  0
  1 43  1  0
  1 44  1  0
  4 45  1  0
  5 46  1  0
  8 47  1  0
  9 48  1  0
 10 49  1  0
 16 50  1  0
 16 51  1  0
 18 52  1  0
 19 53  1  0
 22 54  1  0
 25 55  1  0
 26 56  1  0
 27 57  1  0
 28 58  1  0
 34 59  1  0
 34 60  1  0
 35 61  1  0
 35 62  1  0
 37 63  1  0
 37 64  1  0
 38 65  1  0
 38 66  1  0
 40 67  1  0
 40 68  1  0
 41 69  1  0
 41 70  1  0
M  CHG  4  12  -1  15  -1  22  -1  33  -1
M  END
>  <UniqueID>  (43) 
43

>  <SMILES>  (43) 
COc1ccc(-c2cccc([N-]C(=O)[N-]Cc3ccc(S([NH-])(=O)=O)cc3)c2)cc1S(=O)(=O)[N-]CCN1CCOCC1

>  <Energy>  (43) 
88.83098034566397

>  <Genealogy>  (43) 
COc1ccc(-c2cccc([N-]C(=O)[N-]Cc3ccc(S([NH-])(=O)=O)cc3)c2)cc1S(=O)(=O)[N-]CCN1CCOCC1 (protonated)
COc1ccc(-c2cccc([N-]C(=O)[N-]Cc3ccc(S([NH-])(=O)=O)cc3)c2)cc1S(=O)(=O)[N-]CCN1CCOCC1 (3D coordinates assigned)
COc1ccc(-c2cccc([N-]C(=O)[N-]Cc3ccc(S([NH-])(=O)=O)cc3)c2)cc1S(=O)(=O)[N-]CCN1CCOCC1 (nonaromatic ring conformer: 88.83098034566397 kcal/mol)

>  <smiles>  (43) 
COc1ccc(-c2cccc(NC(=O)NCc3ccc(S(N)(=O)=O)cc3)c2)cc1S(=O)(=O)NCCN1CCOCC1

>  <score_type>  (43) 
oracle

>  <origin>  (43) 
adg

>  <m_score__min__energy>  (43) 
-16.190000000000001

>  <m_primary>  (43) 
energy

$$$$
43:0
     RDKit          3D

 34 35  0  0  0  0  0  0  0  0999 V2000
   61.1490   34.0600   48.5700 N   0  0  0  0  0  0  0  0  0  0  0  0
   61.3430   33.1960   47.0860 S   0  0  0  0  0  0  0  0  0  0  0  0
   62.4290   33.8390   46.2720 O   0  0  0  0  0  0  0  0  0  0  0  0
   61.7380   31.7740   47.3790 O   0  0  0  0  0  0  0  0  0  0  0  0
   59.8280   33.2200   46.1890 C   0  0  0  0  0  0  0  0  0  0  0  0
   59.3930   34.3990   45.5700 C   0  0  0  0  0  0  0  0  0  0  0  0
   58.1790   34.4220   44.8790 C   0  0  0  0  0  0  0  0  0  0  0  0
   57.3950   33.2670   44.7990 C   0  0  0  0  0  0  0  0  0  0  0  0
   57.8320   32.0740   45.3990 C   0  0  0  0  0  0  0  0  0  0  0  0
   57.0360   30.8810   45.3670 N   0  0  0  0  0  0  0  0  0  0  0  0
   56.9130   29.9690   44.2670 C   0  0  0  0  0  0  0  0  0  0  0  0
   56.3680   30.3710   43.2040 O   0  0  0  0  0  0  0  0  0  0  0  0
   57.3670   28.5390   44.3620 C   0  0  0  0  0  0  0  0  0  0  0  0
   57.9480   28.2830   45.6390 O   0  0  0  0  0  0  0  0  0  0  0  0
   57.6430   27.1520   46.4090 C   0  0  0  0  0  0  0  0  0  0  0  0
   57.8570   27.1630   47.6530 O   0  0  0  0  0  0  0  0  0  0  0  0
   57.0710   25.9500   45.7520 C   0  0  0  0  0  0  0  0  0  0  0  0
   57.9310   24.9650   45.2350 C   0  0  0  0  0  0  0  0  0  0  0  0
   57.4120   23.8290   44.6150 C   0  0  0  0  0  0  0  0  0  0  0  0
   56.0280   23.6790   44.5110 C   0  0  0  0  0  0  0  0  0  0  0  0
   55.5430   22.6600   43.9530 O   0  0  0  0  0  0  0  0  0  0  0  0
   55.2030   24.6340   45.0120 N   0  0  0  0  0  0  0  0  0  0  0  0
   55.6780   25.7520   45.6230 C   0  0  0  0  0  0  0  0  0  0  0  0
   54.7700   26.6850   46.1100 O   0  0  0  0  0  0  0  0  0  0  0  0
   59.0370   32.0650   46.1140 C   0  0  0  0  0  0  0  0  0  0  0  0
   62.0470   34.5660   48.7460 H   0  0  0  0  0  0  0  0  0  0  0  0
   60.0087   35.3087   45.6281 H   0  0  0  0  0  0  0  0  0  0  0  0
   57.8393   35.3505   44.3969 H   0  0  0  0  0  0  0  0  0  0  0  0
   56.4337   33.2924   44.2650 H   0  0  0  0  0  0  0  0  0  0  0  0
   56.5024   27.8744   44.2179 H   0  0  0  0  0  0  0  0  0  0  0  0
   58.1221   28.3531   43.5840 H   0  0  0  0  0  0  0  0  0  0  0  0
   59.0204   25.0914   45.3202 H   0  0  0  0  0  0  0  0  0  0  0  0
   58.0862   23.0589   44.2120 H   0  0  0  0  0  0  0  0  0  0  0  0
   59.3647   31.1450   46.6201 H   0  0  0  0  0  0  0  0  0  0  0  0
  1  2  1  0
  2  3  2  0
  2  4  2  0
  2  5  1  0
  5  6  2  0
  6  7  1  0
  7  8  2  0
  8  9  1  0
  9 10  1  0
 10 11  1  0
 11 12  2  0
 11 13  1  0
 13 14  1  0
 14 15  1  0
 15 16  2  0
 15 17  1  0
 17 18  1  0
 18 19  2  0
 19 20  1  0
 20 21  2  0
 20 22  1  0
 22 23  1  0
 23 24  1  0
  9 25  2  0
 25  5  1  0
 23 17  2  0
  1 26  1  0
  6 27  1  0
  7 28  1  0
  8 29  1  0
 13 30  1  0
 13 31  1  0
 18 32  1  0
 19 33  1  0
 25 34  1  0
M  CHG  4   1  -1  10  -1  22  -1  24  -1
M  END
>  <UniqueID>  (44) 
44

>  <SMILES>  (44) 
[NH-]S(=O)(=O)c1cccc([N-]C(=O)COC(=O)c2ccc(=O)[n-]c2[O-])c1

>  <Energy>  (44) 
40.10946104885969

>  <Genealogy>  (44) 
[NH-]S(=O)(=O)c1cccc([N-]C(=O)COC(=O)c2ccc(=O)[n-]c2[O-])c1 (protonated)
[NH-]S(=O)(=O)c1cccc([N-]C(=O)COC(=O)c2ccc(=O)[n-]c2[O-])c1 (3D coordinates assigned)
[NH-]S(=O)(=O)c1cccc([N-]C(=O)COC(=O)c2ccc(=O)[n-]c2[O-])c1 (optimized conformer: 40.10946104885969 kcal/mol)

>  <smiles>  (44) 
NS(=O)(=O)c1cccc(NC(=O)COC(=O)c2ccc(=O)[nH]c2O)c1

>  <score_type>  (44) 
oracle

>  <origin>  (44) 
adg

>  <m_score__min__energy>  (44) 
-15.949999999999999

>  <m_primary>  (44) 
energy

$$$$
44:0
     RDKit          3D

 47 49  0  0  0  0  0  0  0  0999 V2000
   56.7110   32.8260   45.5450 O   0  0  0  0  0  0  0  0  0  0  0  0
   57.6390   33.2770   44.8200 C   0  0  0  0  0  0  0  0  0  0  0  0
   57.7650   32.8130   43.4020 C   0  0  0  0  0  0  0  0  0  0  0  0
   57.6330   31.2920   43.2910 C   0  0  0  0  0  0  0  0  0  0  0  0
   56.3800   30.8390   43.8930 N   0  0  0  0  0  0  0  0  0  0  0  0
   56.2580   29.7300   44.7920 C   0  0  0  0  0  0  0  0  0  0  0  0
   55.1560   29.1260   44.8710 O   0  0  0  0  0  0  0  0  0  0  0  0
   57.3690   29.2920   45.5880 N   0  0  0  0  0  0  0  0  0  0  0  0
   57.8550   27.9200   45.4530 C   0  0  0  0  0  0  0  0  0  0  0  0
   58.2550   27.3880   46.8280 C   0  0  0  0  0  0  0  0  0  0  0  0
   59.1250   28.3660   47.5780 C   0  0  0  0  0  0  0  0  0  0  0  0
   59.9060   27.9040   48.6500 C   0  0  0  0  0  0  0  0  0  0  0  0
   60.6980   28.7940   49.3880 C   0  0  0  0  0  0  0  0  0  0  0  0
   61.4840   28.3370   50.4440 O   0  0  0  0  0  0  0  0  0  0  0  0
   60.7000   30.1520   49.0640 C   0  0  0  0  0  0  0  0  0  0  0  0
   59.9080   30.6280   48.0170 C   0  0  0  0  0  0  0  0  0  0  0  0
   59.1030   29.7490   47.2780 C   0  0  0  0  0  0  0  0  0  0  0  0
   58.2960   30.2940   46.1250 C   0  0  0  0  0  0  0  0  0  0  0  0
   58.5550   34.2500   45.3330 N   0  0  0  0  0  0  0  0  0  0  0  0
   58.6710   34.5790   46.7490 C   0  0  0  0  0  0  0  0  0  0  0  0
   60.0220   34.1750   47.2690 C   0  0  0  0  0  0  0  0  0  0  0  0
   60.2730   34.1790   48.6530 C   0  0  0  0  0  0  0  0  0  0  0  0
   61.5310   33.8160   49.1420 C   0  0  0  0  0  0  0  0  0  0  0  0
   62.5500   33.4520   48.2550 C   0  0  0  0  0  0  0  0  0  0  0  0
   64.1280   32.9920   48.8690 Cl  0  0  0  0  0  0  0  0  0  0  0  0
   62.3100   33.4560   46.8750 C   0  0  0  0  0  0  0  0  0  0  0  0
   61.0530   33.8200   46.3830 C   0  0  0  0  0  0  0  0  0  0  0  0
   56.9736   33.2845   42.8008 H   0  0  0  0  0  0  0  0  0  0  0  0
   58.7617   33.0988   43.0346 H   0  0  0  0  0  0  0  0  0  0  0  0
   57.6488   31.0043   42.2294 H   0  0  0  0  0  0  0  0  0  0  0  0
   58.4728   30.8232   43.8248 H   0  0  0  0  0  0  0  0  0  0  0  0
   57.0591   27.2881   45.0319 H   0  0  0  0  0  0  0  0  0  0  0  0
   58.7274   27.9025   44.7833 H   0  0  0  0  0  0  0  0  0  0  0  0
   57.3441   27.1994   47.4151 H   0  0  0  0  0  0  0  0  0  0  0  0
   58.8308   26.4623   46.6812 H   0  0  0  0  0  0  0  0  0  0  0  0
   59.8960   26.8358   48.9123 H   0  0  0  0  0  0  0  0  0  0  0  0
   61.3300   28.6550   51.3940 H   0  0  0  0  0  0  0  0  0  0  0  0
   61.3284   30.8503   49.6362 H   0  0  0  0  0  0  0  0  0  0  0  0
   59.9156   31.6999   47.7702 H   0  0  0  0  0  0  0  0  0  0  0  0
   57.7185   31.1628   46.4737 H   0  0  0  0  0  0  0  0  0  0  0  0
   58.9935   30.5791   45.3236 H   0  0  0  0  0  0  0  0  0  0  0  0
   58.5404   35.6631   46.8816 H   0  0  0  0  0  0  0  0  0  0  0  0
   57.8951   34.0350   47.3076 H   0  0  0  0  0  0  0  0  0  0  0  0
   59.4759   34.4690   49.3534 H   0  0  0  0  0  0  0  0  0  0  0  0
   61.7202   33.8165   50.2256 H   0  0  0  0  0  0  0  0  0  0  0  0
   63.1117   33.1723   46.1773 H   0  0  0  0  0  0  0  0  0  0  0  0
   60.8705   33.8285   45.2983 H   0  0  0  0  0  0  0  0  0  0  0  0
  1  2  2  0
  2  3  1  0
  3  4  1  0
  4  5  1  0
  5  6  1  0
  6  7  2  0
  6  8  1  0
  8  9  1  0
  9 10  1  0
 10 11  1  0
 11 12  2  0
 12 13  1  0
 13 14  1  0
 13 15  2  0
 15 16  1  0
 16 17  2  0
 17 18  1  0
  2 19  1  0
 19 20  1  0
 20 21  1  0
 21 22  2  0
 22 23  1  0
 23 24  2  0
 24 25  1  0
 24 26  1  0
 26 27  2  0
 18  8  1  0
 27 21  1  0
 17 11  1  0
  3 28  1  0
  3 29  1  0
  4 30  1  0
  4 31  1  0
  9 32  1  0
  9 33  1  0
 10 34  1  0
 10 35  1  0
 12 36  1  0
 14 37  1  0
 15 38  1  0
 16 39  1  0
 18 40  1  0
 18 41  1  0
 20 42  1  0
 20 43  1  0
 22 44  1  0
 23 45  1  0
 26 46  1  0
 27 47  1  0
M  CHG  2   5  -1  19  -1
M  END
>  <UniqueID>  (45) 
45

>  <SMILES>  (45) 
O=C(CC[N-]C(=O)N1CCc2cc(O)ccc2C1)[N-]Cc1ccc(Cl)cc1

>  <Energy>  (45) 
45.98584764761934

>  <Genealogy>  (45) 
O=C(CC[N-]C(=O)N1CCc2cc(O)ccc2C1)[N-]Cc1ccc(Cl)cc1 (protonated)
O=C(CC[N-]C(=O)N1CCc2cc(O)ccc2C1)[N-]Cc1ccc(Cl)cc1 (3D coordinates assigned)
O=C(CC[N-]C(=O)N1CCc2cc(O)ccc2C1)[N-]Cc1ccc(Cl)cc1 (nonaromatic ring conformer: 45.98584764761934 kcal/mol)

>  <smiles>  (45) 
O=C(CCNC(=O)N1CCc2cc(O)ccc2C1)NCc1ccc(Cl)cc1

>  <score_type>  (45) 
oracle

>  <origin>  (45) 
adg

>  <m_score__min__energy>  (45) 
-11.19

>  <m_primary>  (45) 
energy

$$$$
45:0
     RDKit          3D

 41 43  0  0  0  0  0  0  0  0999 V2000
   56.4320   29.2090   42.7390 O   0  0  0  0  0  0  0  0  0  0  0  0
   56.1270   29.6890   43.8640 C   0  0  0  0  0  0  0  0  0  0  0  0
   56.2330   31.1650   44.0990 C   0  0  0  0  0  0  0  0  0  0  0  0
   57.6760   31.6520   43.9320 C   0  0  0  0  0  0  0  0  0  0  0  0
   57.9990   32.7600   44.8870 C   0  0  0  0  0  0  0  0  0  0  0  0
   57.0820   33.5760   45.4410 N   0  0  0  0  0  0  0  0  0  0  0  0
   57.7530   34.4200   46.2080 N   0  0  0  0  0  0  0  0  0  0  0  0
   59.0520   34.0860   46.0900 C   0  0  0  0  0  0  0  0  0  0  0  0
   60.1720   34.7950   46.7790 C   0  0  0  0  0  0  0  0  0  0  0  0
   61.2590   33.8180   47.1490 C   0  0  0  0  0  0  0  0  0  0  0  0
   62.4660   33.8400   46.4260 C   0  0  0  0  0  0  0  0  0  0  0  0
   63.5040   32.9640   46.7500 C   0  0  0  0  0  0  0  0  0  0  0  0
   63.3550   32.0620   47.8040 C   0  0  0  0  0  0  0  0  0  0  0  0
   62.1700   32.0400   48.5420 C   0  0  0  0  0  0  0  0  0  0  0  0
   61.1220   32.9150   48.2280 C   0  0  0  0  0  0  0  0  0  0  0  0
   59.5400   32.8380   49.3130 Br  0  0  0  0  0  0  0  0  0  0  0  0
   59.2120   33.0690   45.2780 O   0  0  0  0  0  0  0  0  0  0  0  0
   55.7280   28.8290   44.9370 N   0  0  0  0  0  0  0  0  0  0  0  0
   56.6420   27.9230   45.6190 C   0  0  0  0  0  0  0  0  0  0  0  0
   57.9850   28.5740   45.7670 C   0  0  0  0  0  0  0  0  0  0  0  0
   59.0860   28.1170   45.0290 C   0  0  0  0  0  0  0  0  0  0  0  0
   60.3340   28.7130   45.2190 C   0  0  0  0  0  0  0  0  0  0  0  0
   60.4780   29.7410   46.1520 C   0  0  0  0  0  0  0  0  0  0  0  0
   59.3630   30.1630   46.8800 C   0  0  0  0  0  0  0  0  0  0  0  0
   58.1540   29.5740   46.6760 N   0  0  0  0  0  0  0  0  0  0  0  0
   55.5915   31.6901   43.3760 H   0  0  0  0  0  0  0  0  0  0  0  0
   55.9116   31.3769   45.1294 H   0  0  0  0  0  0  0  0  0  0  0  0
   58.3602   30.8107   44.1169 H   0  0  0  0  0  0  0  0  0  0  0  0
   57.7927   32.0361   42.9079 H   0  0  0  0  0  0  0  0  0  0  0  0
   60.5856   35.5607   46.1062 H   0  0  0  0  0  0  0  0  0  0  0  0
   59.7876   35.2672   47.6951 H   0  0  0  0  0  0  0  0  0  0  0  0
   62.5929   34.5534   45.5984 H   0  0  0  0  0  0  0  0  0  0  0  0
   64.4405   32.9851   46.1734 H   0  0  0  0  0  0  0  0  0  0  0  0
   64.1712   31.3681   48.0536 H   0  0  0  0  0  0  0  0  0  0  0  0
   62.0585   31.3309   49.3755 H   0  0  0  0  0  0  0  0  0  0  0  0
   56.2416   27.6811   46.6146 H   0  0  0  0  0  0  0  0  0  0  0  0
   56.7480   27.0010   45.0286 H   0  0  0  0  0  0  0  0  0  0  0  0
   58.9675   27.2960   44.3066 H   0  0  0  0  0  0  0  0  0  0  0  0
   61.2019   28.3732   44.6348 H   0  0  0  0  0  0  0  0  0  0  0  0
   61.4583   30.2135   46.3122 H   0  0  0  0  0  0  0  0  0  0  0  0
   59.4627   30.9720   47.6186 H   0  0  0  0  0  0  0  0  0  0  0  0
  1  2  2  0
  2  3  1  0
  3  4  1  0
  4  5  1  0
  5  6  2  0
  6  7  1  0
  7  8  2  0
  8  9  1  0
  9 10  1  0
 10 11  2  0
 11 12  1  0
 12 13  2  0
 13 14  1  0
 14 15  2  0
 15 16  1  0
  8 17  1  0
  2 18  1  0
 18 19  1  0
 19 20  1  0
 20 21  2  0
 21 22  1  0
 22 23  2  0
 23 24  1  0
 24 25  2  0
 17  5  1  0
 25 20  1  0
 15 10  1  0
  3 26  1  0
  3 27  1  0
  4 28  1  0
  4 29  1  0
  9 30  1  0
  9 31  1  0
 11 32  1  0
 12 33  1  0
 13 34  1  0
 14 35  1  0
 19 36  1  0
 19 37  1  0
 21 38  1  0
 22 39  1  0
 23 40  1  0
 24 41  1  0
M  CHG  1  18  -1
M  END
>  <UniqueID>  (46) 
46

>  <SMILES>  (46) 
O=C(CCc1nnc(Cc2ccccc2Br)o1)[N-]Cc1ccccn1

>  <Energy>  (46) 
65.80117516939141

>  <Genealogy>  (46) 
O=C(CCc1nnc(Cc2ccccc2Br)o1)[N-]Cc1ccccn1 (protonated)
O=C(CCc1nnc(Cc2ccccc2Br)o1)[N-]Cc1ccccn1 (3D coordinates assigned)
O=C(CCc1nnc(Cc2ccccc2Br)o1)[N-]Cc1ccccn1 (optimized conformer: 65.80117516939141 kcal/mol)

>  <smiles>  (46) 
O=C(CCc1nnc(Cc2ccccc2Br)o1)NCc1ccccn1

>  <score_type>  (46) 
oracle

>  <origin>  (46) 
adg

>  <m_score__min__energy>  (46) 
-11.19

>  <m_primary>  (46) 
energy

$$$$
46:0
     RDKit          3D

 45 48  0  0  0  0  0  0  0  0999 V2000
   60.1390   27.3650   46.8600 C   0  0  0  0  0  0  0  0  0  0  0  0
   59.2390   28.1850   46.2950 C   0  0  0  0  0  0  0  0  0  0  0  0
   58.2550   27.8390   45.3540 C   0  0  0  0  0  0  0  0  0  0  0  0
   57.7990   26.6370   44.9520 C   0  0  0  0  0  0  0  0  0  0  0  0
   57.2620   25.5870   45.8320 C   0  0  0  0  0  0  0  0  0  0  0  0
   58.0060   24.6570   46.4610 N   0  0  0  0  0  0  0  0  0  0  0  0
   57.1110   24.0210   47.2460 C   0  0  0  0  0  0  0  0  0  0  0  0
   57.4280   23.0580   47.9910 O   0  0  0  0  0  0  0  0  0  0  0  0
   55.8520   24.5050   47.1780 N   0  0  0  0  0  0  0  0  0  0  0  0
   55.9700   25.5050   46.2890 C   0  0  0  0  0  0  0  0  0  0  0  0
   54.9200   26.3330   45.9050 O   0  0  0  0  0  0  0  0  0  0  0  0
   57.7560   29.0340   44.8610 C   0  0  0  0  0  0  0  0  0  0  0  0
   58.3790   30.0480   45.5570 C   0  0  0  0  0  0  0  0  0  0  0  0
   58.1130   31.5080   45.3520 C   0  0  0  0  0  0  0  0  0  0  0  0
   59.2780   29.5360   46.4280 N   0  0  0  0  0  0  0  0  0  0  0  0
   60.1380   30.2980   47.2940 C   0  0  0  0  0  0  0  0  0  0  0  0
   61.0700   31.1980   46.7590 C   0  0  0  0  0  0  0  0  0  0  0  0
   61.9010   31.9390   47.6030 C   0  0  0  0  0  0  0  0  0  0  0  0
   61.8220   31.7810   48.9920 C   0  0  0  0  0  0  0  0  0  0  0  0
   62.6640   32.5530   49.8070 O   0  0  0  0  0  0  0  0  0  0  0  0
   63.9670   32.2050   50.1890 C   0  0  0  0  0  0  0  0  0  0  0  0
   64.2400   31.0430   50.9370 C   0  0  0  0  0  0  0  0  0  0  0  0
   65.5570   30.7230   51.2820 C   0  0  0  0  0  0  0  0  0  0  0  0
   66.6080   31.5490   50.8770 C   0  0  0  0  0  0  0  0  0  0  0  0
   66.3460   32.6930   50.1190 C   0  0  0  0  0  0  0  0  0  0  0  0
   65.0300   33.0160   49.7710 C   0  0  0  0  0  0  0  0  0  0  0  0
   60.8730   30.8930   49.5310 C   0  0  0  0  0  0  0  0  0  0  0  0
   60.0430   30.1530   48.6860 C   0  0  0  0  0  0  0  0  0  0  0  0
   60.8623   27.7604   47.5884 H   0  0  0  0  0  0  0  0  0  0  0  0
   60.1533   26.2976   46.5947 H   0  0  0  0  0  0  0  0  0  0  0  0
   57.8308   26.4219   43.8737 H   0  0  0  0  0  0  0  0  0  0  0  0
   54.0220   26.2760   46.3710 H   0  0  0  0  0  0  0  0  0  0  0  0
   57.0054   29.1513   44.0655 H   0  0  0  0  0  0  0  0  0  0  0  0
   58.0225   32.0049   46.3292 H   0  0  0  0  0  0  0  0  0  0  0  0
   58.9442   31.9565   44.7882 H   0  0  0  0  0  0  0  0  0  0  0  0
   57.1770   31.6345   44.7882 H   0  0  0  0  0  0  0  0  0  0  0  0
   61.1475   31.3215   45.6687 H   0  0  0  0  0  0  0  0  0  0  0  0
   62.6216   32.6507   47.1738 H   0  0  0  0  0  0  0  0  0  0  0  0
   63.4155   30.3858   51.2505 H   0  0  0  0  0  0  0  0  0  0  0  0
   65.7655   29.8192   51.8733 H   0  0  0  0  0  0  0  0  0  0  0  0
   67.6424   31.2987   51.1550 H   0  0  0  0  0  0  0  0  0  0  0  0
   67.1748   33.3400   49.7957 H   0  0  0  0  0  0  0  0  0  0  0  0
   64.8288   33.9121   49.1656 H   0  0  0  0  0  0  0  0  0  0  0  0
   60.7845   30.7812   50.6217 H   0  0  0  0  0  0  0  0  0  0  0  0
   59.3108   29.4527   49.1143 H   0  0  0  0  0  0  0  0  0  0  0  0
  1  2  2  0
  2  3  1  0
  3  4  2  3
  4  5  1  0
  5  6  1  0
  6  7  1  0
  7  8  2  0
  7  9  1  0
  9 10  1  0
 10 11  1  0
  3 12  1  0
 12 13  2  0
 13 14  1  0
 13 15  1  0
 15 16  1  0
 16 17  2  0
 17 18  1  0
 18 19  2  0
 19 20  1  0
 20 21  1  0
 21 22  2  0
 22 23  1  0
 23 24  2  0
 24 25  1  0
 25 26  2  0
 19 27  1  0
 27 28  2  0
 15  2  1  0
 28 16  1  0
 10  5  2  0
 26 21  1  0
  1 29  1  0
  1 30  1  0
  4 31  1  0
 11 32  1  0
 12 33  1  0
 14 34  1  0
 14 35  1  0
 14 36  1  0
 17 37  1  0
 18 38  1  0
 22 39  1  0
 23 40  1  0
 24 41  1  0
 25 42  1  0
 26 43  1  0
 27 44  1  0
 28 45  1  0
M  CHG  2   6  -1   9  -1
M  END
>  <UniqueID>  (47) 
47

>  <SMILES>  (47) 
C=c1c(=Cc2[n-]c(=O)[n-]c2O)cc(C)n1-c1ccc(Oc2ccccc2)cc1

>  <Energy>  (47) 
129.62110880511702

>  <Genealogy>  (47) 
C=c1c(=Cc2[n-]c(=O)[n-]c2O)cc(C)n1-c1ccc(Oc2ccccc2)cc1 (protonated)
C=c1c(=Cc2[n-]c(=O)[n-]c2O)cc(C)n1-c1ccc(Oc2ccccc2)cc1 (3D coordinates assigned)
C=c1c(=Cc2[n-]c(=O)[n-]c2O)cc(C)n1-c1ccc(Oc2ccccc2)cc1 (optimized conformer: 129.62110880511702 kcal/mol)

>  <smiles>  (47) 
C=c1c(=Cc2[nH]c(=O)[nH]c2O)cc(C)n1-c1ccc(Oc2ccccc2)cc1

>  <score_type>  (47) 
oracle

>  <origin>  (47) 
adg

>  <m_score__min__energy>  (47) 
-12.77

>  <m_primary>  (47) 
energy

$$$$
47:0
     RDKit          3D

 47 49  0  0  0  0  0  0  0  0999 V2000
   56.2780   19.6310   44.8700 C   0  0  0  0  0  0  0  0  0  0  0  0
   56.1110   20.7330   43.9840 O   0  0  0  0  0  0  0  0  0  0  0  0
   56.2040   22.0790   44.3690 C   0  0  0  0  0  0  0  0  0  0  0  0
   55.1650   22.7440   45.0470 C   0  0  0  0  0  0  0  0  0  0  0  0
   55.3040   24.0870   45.4080 C   0  0  0  0  0  0  0  0  0  0  0  0
   56.4840   24.7920   45.1070 C   0  0  0  0  0  0  0  0  0  0  0  0
   56.6190   26.2190   45.4870 C   0  0  0  0  0  0  0  0  0  0  0  0
   55.8590   26.7000   46.3730 O   0  0  0  0  0  0  0  0  0  0  0  0
   57.6360   27.0460   44.8970 N   0  0  0  0  0  0  0  0  0  0  0  0
   57.5800   28.4830   44.8640 C   0  0  0  0  0  0  0  0  0  0  0  0
   58.7190   29.2720   45.0930 C   0  0  0  0  0  0  0  0  0  0  0  0
   58.6200   30.6650   45.0800 C   0  0  0  0  0  0  0  0  0  0  0  0
   57.3780   31.2680   44.8520 C   0  0  0  0  0  0  0  0  0  0  0  0
   57.2940   32.5660   44.8440 N   0  0  0  0  0  0  0  0  0  0  0  0
   57.5110   33.4540   45.9530 C   0  0  0  0  0  0  0  0  0  0  0  0
   56.8560   33.3360   47.0250 O   0  0  0  0  0  0  0  0  0  0  0  0
   58.5670   34.5080   45.8490 C   0  0  0  0  0  0  0  0  0  0  0  0
   59.6650   34.2350   46.8390 C   0  0  0  0  0  0  0  0  0  0  0  0
   59.4190   34.3480   48.2160 C   0  0  0  0  0  0  0  0  0  0  0  0
   60.4470   34.1280   49.1340 C   0  0  0  0  0  0  0  0  0  0  0  0
   61.7310   33.8050   48.6880 C   0  0  0  0  0  0  0  0  0  0  0  0
   62.0030   33.7030   47.3110 C   0  0  0  0  0  0  0  0  0  0  0  0
   63.3280   33.3860   46.8460 N   0  0  0  0  0  0  0  0  0  0  0  0
   64.1010   32.7010   47.5450 O   0  0  0  0  0  0  0  0  0  0  0  0
   63.7660   33.8420   45.6240 O   0  0  0  0  0  0  0  0  0  0  0  0
   60.9610   33.9250   46.3930 C   0  0  0  0  0  0  0  0  0  0  0  0
   56.2820   30.4830   44.6510 N   0  0  0  0  0  0  0  0  0  0  0  0
   56.3520   29.1260   44.6580 C   0  0  0  0  0  0  0  0  0  0  0  0
   57.5140   24.1240   44.4210 C   0  0  0  0  0  0  0  0  0  0  0  0
   57.3730   22.7820   44.0600 C   0  0  0  0  0  0  0  0  0  0  0  0
   56.2243   19.9853   45.9100 H   0  0  0  0  0  0  0  0  0  0  0  0
   55.4813   18.8936   44.6922 H   0  0  0  0  0  0  0  0  0  0  0  0
   57.2574   19.1628   44.6922 H   0  0  0  0  0  0  0  0  0  0  0  0
   54.2391   22.2040   45.2939 H   0  0  0  0  0  0  0  0  0  0  0  0
   54.4830   24.5978   45.9325 H   0  0  0  0  0  0  0  0  0  0  0  0
   58.5130   26.5850   44.5670 H   0  0  0  0  0  0  0  0  0  0  0  0
   59.6904   28.7922   45.2829 H   0  0  0  0  0  0  0  0  0  0  0  0
   59.5132   31.2846   45.2480 H   0  0  0  0  0  0  0  0  0  0  0  0
   58.9850   34.5057   44.8315 H   0  0  0  0  0  0  0  0  0  0  0  0
   58.1204   35.4894   46.0666 H   0  0  0  0  0  0  0  0  0  0  0  0
   58.4123   34.6109   48.5731 H   0  0  0  0  0  0  0  0  0  0  0  0
   60.2456   34.2092   50.2123 H   0  0  0  0  0  0  0  0  0  0  0  0
   62.5348   33.6292   49.4181 H   0  0  0  0  0  0  0  0  0  0  0  0
   61.1627   33.8552   45.3139 H   0  0  0  0  0  0  0  0  0  0  0  0
   55.4410   28.5297   44.5013 H   0  0  0  0  0  0  0  0  0  0  0  0
   58.4386   24.6629   44.1665 H   0  0  0  0  0  0  0  0  0  0  0  0
   58.1897   22.2729   43.5273 H   0  0  0  0  0  0  0  0  0  0  0  0
  1  2  1  0
  2  3  1  0
  3  4  2  0
  4  5  1  0
  5  6  2  0
  6  7  1  0
  7  8  2  0
  7  9  1  0
  9 10  1  0
 10 11  1  0
 11 12  2  0
 12 13  1  0
 13 14  2  3
 14 15  1  0
 15 16  2  0
 15 17  1  0
 17 18  1  0
 18 19  2  0
 19 20  1  0
 20 21  2  0
 21 22  1  0
 22 23  1  0
 23 24  2  0
 23 25  1  0
 22 26  2  0
 13 27  1  0
 27 28  1  0
  6 29  1  0
 29 30  2  0
 30  3  1  0
 28 10  2  0
 26 18  1  0
  1 31  1  0
  1 32  1  0
  1 33  1  0
  4 34  1  0
  5 35  1  0
  9 36  1  0
 11 37  1  0
 12 38  1  0
 17 39  1  0
 17 40  1  0
 19 41  1  0
 20 42  1  0
 21 43  1  0
 26 44  1  0
 28 45  1  0
 29 46  1  0
 30 47  1  0
M  CHG  3  23   1  25  -1  27  -1
M  END
>  <UniqueID>  (48) 
48

>  <SMILES>  (48) 
COc1ccc(C(=O)Nc2ccc(=NC(=O)Cc3cccc([N+](=O)[O-])c3)[n-]c2)cc1

>  <Energy>  (48) 
57.02762839428766

>  <Genealogy>  (48) 
COc1ccc(C(=O)Nc2ccc(=NC(=O)Cc3cccc([N+](=O)[O-])c3)[n-]c2)cc1 (protonated)
COc1ccc(C(=O)Nc2ccc(=NC(=O)Cc3cccc([N+](=O)[O-])c3)[n-]c2)cc1 (3D coordinates assigned)
COc1ccc(C(=O)Nc2ccc(=NC(=O)Cc3cccc([N+](=O)[O-])c3)[n-]c2)cc1 (optimized conformer: 57.02762839428766 kcal/mol)

>  <smiles>  (48) 
COc1ccc(C(=O)Nc2ccc(=NC(=O)Cc3cccc([N+](=O)[O-])c3)[nH]c2)cc1

>  <score_type>  (48) 
oracle

>  <origin>  (48) 
adg

>  <m_score__min__energy>  (48) 
-10.77

>  <m_primary>  (48) 
energy

$$$$
48:0
     RDKit          3D

 53 56  0  0  0  0  0  0  0  0999 V2000
   55.4540   29.3470   44.7130 O   0  0  0  0  0  0  0  0  0  0  0  0
   56.4900   30.0460   44.8600 C   0  0  0  0  0  0  0  0  0  0  0  0
   57.6760   29.4320   45.3710 N   0  0  0  0  0  0  0  0  0  0  0  0
   58.8650   29.1820   44.5610 C   0  0  0  0  0  0  0  0  0  0  0  0
   60.1290   29.1200   45.4450 C   0  0  2  0  0  0  0  0  0  0  0  0
   60.4760   27.6690   45.8430 C   0  0  0  0  0  0  0  0  0  0  0  0
   59.2360   26.8150   45.9270 C   0  0  0  0  0  0  0  0  0  0  0  0
   58.6540   26.5390   47.1750 C   0  0  0  0  0  0  0  0  0  0  0  0
   57.4690   25.8040   47.2520 C   0  0  0  0  0  0  0  0  0  0  0  0
   56.8570   25.3380   46.0850 C   0  0  0  0  0  0  0  0  0  0  0  0
   57.4280   25.6090   44.8400 C   0  0  0  0  0  0  0  0  0  0  0  0
   58.6120   26.3470   44.7590 C   0  0  0  0  0  0  0  0  0  0  0  0
   59.9850   29.9830   46.6390 N   0  0  0  0  0  0  0  0  0  0  0  0
   59.3590   29.4070   47.8100 C   0  0  0  0  0  0  0  0  0  0  0  0
   59.2440   29.9690   49.0280 C   0  0  0  0  0  0  0  0  0  0  0  0
   59.8560   31.2080   49.5570 C   0  0  0  0  0  0  0  0  0  0  0  0
   60.7920   31.9480   48.9550 C   0  0  0  0  0  0  0  0  0  0  0  0
   61.2470   33.2510   49.4270 C   0  0  0  0  0  0  0  0  0  0  0  0
   60.9380   33.7790   50.5290 O   0  0  0  0  0  0  0  0  0  0  0  0
   62.0790   33.8770   48.4720 N   0  0  0  0  0  0  0  0  0  0  0  0
   62.1770   32.9600   47.3920 C   0  0  0  0  0  0  0  0  0  0  0  0
   62.8680   33.1940   46.3650 O   0  0  0  0  0  0  0  0  0  0  0  0
   61.4350   31.6750   47.6320 C   0  0  2  0  0  0  0  0  0  0  0  0
   60.3700   31.3990   46.5790 C   0  0  0  0  0  0  0  0  0  0  0  0
   56.5030   31.4310   44.4870 N   0  0  0  0  0  0  0  0  0  0  0  0
   57.4280   32.4450   44.9050 C   0  0  0  0  0  0  0  0  0  0  0  0
   58.2930   33.0980   44.0050 C   0  0  0  0  0  0  0  0  0  0  0  0
   59.1520   34.1040   44.4590 C   0  0  0  0  0  0  0  0  0  0  0  0
   59.1430   34.4810   45.8040 C   0  0  0  0  0  0  0  0  0  0  0  0
   58.2730   33.8550   46.6990 C   0  0  0  0  0  0  0  0  0  0  0  0
   57.4190   32.8430   46.2500 C   0  0  0  0  0  0  0  0  0  0  0  0
   58.7468   28.2240   44.0335 H   0  0  0  0  0  0  0  0  0  0  0  0
   58.9795   30.0051   43.8403 H   0  0  0  0  0  0  0  0  0  0  0  0
   60.9688   29.5045   44.8477 H   0  0  0  0  0  0  0  0  0  0  0  0
   61.1547   27.2429   45.0895 H   0  0  0  0  0  0  0  0  0  0  0  0
   60.9558   27.6846   46.8327 H   0  0  0  0  0  0  0  0  0  0  0  0
   59.1335   26.9032   48.0956 H   0  0  0  0  0  0  0  0  0  0  0  0
   57.0168   25.5916   48.2320 H   0  0  0  0  0  0  0  0  0  0  0  0
   55.9248   24.7573   46.1475 H   0  0  0  0  0  0  0  0  0  0  0  0
   56.9456   25.2414   43.9223 H   0  0  0  0  0  0  0  0  0  0  0  0
   59.0571   26.5623   43.7764 H   0  0  0  0  0  0  0  0  0  0  0  0
   58.9307   28.4007   47.6920 H   0  0  0  0  0  0  0  0  0  0  0  0
   58.5992   29.4264   49.7350 H   0  0  0  0  0  0  0  0  0  0  0  0
   59.5067   31.5535   50.5412 H   0  0  0  0  0  0  0  0  0  0  0  0
   62.5390   34.8120   48.5520 H   0  0  0  0  0  0  0  0  0  0  0  0
   62.0903   30.7922   47.5978 H   0  0  0  0  0  0  0  0  0  0  0  0
   59.4889   32.0281   46.7736 H   0  0  0  0  0  0  0  0  0  0  0  0
   60.7695   31.6307   45.5806 H   0  0  0  0  0  0  0  0  0  0  0  0
   58.2928   32.8158   42.9418 H   0  0  0  0  0  0  0  0  0  0  0  0
   59.8366   34.5997   43.7550 H   0  0  0  0  0  0  0  0  0  0  0  0
   59.8214   35.2712   46.1582 H   0  0  0  0  0  0  0  0  0  0  0  0
   58.2595   34.1578   47.7564 H   0  0  0  0  0  0  0  0  0  0  0  0
   56.7336   32.3544   46.9582 H   0  0  0  0  0  0  0  0  0  0  0  0
  1  2  2  0
  2  3  1  0
  3  4  1  0
  4  5  1  0
  5  6  1  0
  6  7  1  0
  7  8  2  0
  8  9  1  0
  9 10  2  0
 10 11  1  0
 11 12  2  0
  5 13  1  0
 13 14  1  0
 14 15  2  0
 15 16  1  0
 16 17  2  0
 17 18  1  0
 18 19  2  0
 18 20  1  0
 20 21  1  0
 21 22  2  0
 21 23  1  0
 23 24  1  0
  2 25  1  0
 25 26  1  0
 26 27  2  0
 27 28  1  0
 28 29  2  0
 29 30  1  0
 30 31  2  0
 12  7  1  0
 24 13  1  0
 31 26  1  0
 23 17  1  0
  4 32  1  0
  4 33  1  0
  5 34  1  6
  6 35  1  0
  6 36  1  0
  8 37  1  0
  9 38  1  0
 10 39  1  0
 11 40  1  0
 12 41  1  0
 14 42  1  0
 15 43  1  0
 16 44  1  0
 20 45  1  0
 23 46  1  1
 24 47  1  0
 24 48  1  0
 27 49  1  0
 28 50  1  0
 29 51  1  0
 30 52  1  0
 31 53  1  0
M  CHG  2   3  -1  25  -1
M  END
>  <UniqueID>  (49) 
49

>  <SMILES>  (49) 
O=C([N-]C[C@H](Cc1ccccc1)N1C=CC=C2C(=O)NC(=O)[C@@H]2C1)[N-]c1ccccc1

>  <Energy>  (49) 
78.13757436745205

>  <Genealogy>  (49) 
O=C([N-]CC(Cc1ccccc1)N1C=CC=C2C(=O)NC(=O)C2C1)[N-]c1ccccc1 (protonated)
O=C([N-]C[C@H](Cc1ccccc1)N1C=CC=C2C(=O)NC(=O)[C@@H]2C1)[N-]c1ccccc1 (chirality)
O=C([N-]C[C@H](Cc1ccccc1)N1C=CC=C2C(=O)NC(=O)[C@@H]2C1)[N-]c1ccccc1 (3D coordinates assigned)
O=C([N-]C[C@H](Cc1ccccc1)N1C=CC=C2C(=O)NC(=O)[C@@H]2C1)[N-]c1ccccc1 (nonaromatic ring conformer: 78.13757436745205 kcal/mol)

>  <smiles>  (49) 
O=C(NCC(Cc1ccccc1)N1C=CC=C2C(=O)NC(=O)C2C1)Nc1ccccc1

>  <score_type>  (49) 
oracle

>  <origin>  (49) 
adg

>  <m_score__min__energy>  (49) 
-10.24

>  <m_primary>  (49) 
energy

$$$$
49:0
     RDKit          3D

 59 62  0  0  0  0  0  0  0  0999 V2000
   64.1210   33.1490   48.0920 C   0  0  0  0  0  0  0  0  0  0  0  0
   62.6630   33.4740   48.1640 C   0  0  0  0  0  0  0  0  0  0  0  0
   61.8610   33.5270   47.0870 N   0  0  0  0  0  0  0  0  0  0  0  0
   60.6330   33.7770   47.6010 C   0  0  0  0  0  0  0  0  0  0  0  0
   59.4140   33.8790   46.7700 C   0  0  0  0  0  0  0  0  0  0  0  0
   58.1900   33.3690   47.2450 C   0  0  0  0  0  0  0  0  0  0  0  0
   57.0200   33.5070   46.4900 C   0  0  0  0  0  0  0  0  0  0  0  0
   57.0660   34.1400   45.2440 C   0  0  0  0  0  0  0  0  0  0  0  0
   58.2800   34.6320   44.7490 C   0  0  0  0  0  0  0  0  0  0  0  0
   59.4520   34.5070   45.5080 C   0  0  0  0  0  0  0  0  0  0  0  0
   60.6210   33.8660   48.9510 N   0  0  0  0  0  0  0  0  0  0  0  0
   61.9090   33.6760   49.3020 C   0  0  0  0  0  0  0  0  0  0  0  0
   62.3680   33.5530   50.7290 C   0  0  0  0  0  0  0  0  0  0  0  0
   61.3270   32.8400   51.6060 C   0  0  0  0  0  0  0  0  0  0  0  0
   61.9290   31.6540   52.3800 C   0  0  0  0  0  0  0  0  0  0  0  0
   62.0790   30.4530   51.4830 C   0  0  0  0  0  0  0  0  0  0  0  0
   63.0070   30.4450   50.6310 O   0  0  0  0  0  0  0  0  0  0  0  0
   61.2000   29.3200   51.5520 N   0  0  0  0  0  0  0  0  0  0  0  0
   61.1440   28.2050   50.6080 C   0  0  0  0  0  0  0  0  0  0  0  0
   60.4290   28.6080   49.3410 C   0  0  0  0  0  0  0  0  0  0  0  0
   60.6480   27.9050   48.1430 C   0  0  0  0  0  0  0  0  0  0  0  0
   59.9640   28.2650   46.9750 C   0  0  0  0  0  0  0  0  0  0  0  0
   59.0620   29.3420   46.9810 C   0  0  0  0  0  0  0  0  0  0  0  0
   58.2840   29.6820   45.7610 C   0  0  0  0  0  0  0  0  0  0  0  0
   58.6020   30.8760   45.0870 C   0  0  0  0  0  0  0  0  0  0  0  0
   57.9650   31.2160   43.8940 C   0  0  0  0  0  0  0  0  0  0  0  0
   57.0080   30.3640   43.3460 C   0  0  0  0  0  0  0  0  0  0  0  0
   56.6720   29.1750   43.9990 C   0  0  0  0  0  0  0  0  0  0  0  0
   57.2860   28.8230   45.2170 C   0  0  0  0  0  0  0  0  0  0  0  0
   56.8300   27.5870   45.8980 C   0  0  0  0  0  0  0  0  0  0  0  0
   55.5220   27.0720   45.6490 N   0  0  0  0  0  0  0  0  0  0  0  0
   57.5820   26.9930   46.7160 O   0  0  0  0  0  0  0  0  0  0  0  0
   58.8600   30.0510   48.1770 C   0  0  0  0  0  0  0  0  0  0  0  0
   59.5510   29.7020   49.3410 C   0  0  0  0  0  0  0  0  0  0  0  0
   64.5272   33.0585   49.1102 H   0  0  0  0  0  0  0  0  0  0  0  0
   64.2587   32.1981   47.5564 H   0  0  0  0  0  0  0  0  0  0  0  0
   64.6495   33.9514   47.5564 H   0  0  0  0  0  0  0  0  0  0  0  0
   58.1535   32.8576   48.2182 H   0  0  0  0  0  0  0  0  0  0  0  0
   56.0660   33.1183   46.8759 H   0  0  0  0  0  0  0  0  0  0  0  0
   56.1462   34.2518   44.6512 H   0  0  0  0  0  0  0  0  0  0  0  0
   58.3141   35.1176   43.7626 H   0  0  0  0  0  0  0  0  0  0  0  0
   60.4029   34.8995   45.1184 H   0  0  0  0  0  0  0  0  0  0  0  0
   63.3061   32.9790   50.7527 H   0  0  0  0  0  0  0  0  0  0  0  0
   62.5137   34.5673   51.1290 H   0  0  0  0  0  0  0  0  0  0  0  0
   60.9181   33.5624   52.3278 H   0  0  0  0  0  0  0  0  0  0  0  0
   60.5423   32.4459   50.9435 H   0  0  0  0  0  0  0  0  0  0  0  0
   62.9177   31.9406   52.7679 H   0  0  0  0  0  0  0  0  0  0  0  0
   61.2542   31.3939   53.2089 H   0  0  0  0  0  0  0  0  0  0  0  0
   62.1687   27.8917   50.3593 H   0  0  0  0  0  0  0  0  0  0  0  0
   60.5918   27.3762   51.0750 H   0  0  0  0  0  0  0  0  0  0  0  0
   61.3607   27.0674   48.1231 H   0  0  0  0  0  0  0  0  0  0  0  0
   60.1343   27.7004   46.0464 H   0  0  0  0  0  0  0  0  0  0  0  0
   59.3632   31.5500   45.5069 H   0  0  0  0  0  0  0  0  0  0  0  0
   58.2182   32.1577   43.3850 H   0  0  0  0  0  0  0  0  0  0  0  0
   56.5163   30.6278   42.3980 H   0  0  0  0  0  0  0  0  0  0  0  0
   55.9191   28.5060   43.5566 H   0  0  0  0  0  0  0  0  0  0  0  0
   54.7820   27.1080   46.3830 H   0  0  0  0  0  0  0  0  0  0  0  0
   58.1497   30.8907   48.1977 H   0  0  0  0  0  0  0  0  0  0  0  0
   59.4056   30.2877   50.2607 H   0  0  0  0  0  0  0  0  0  0  0  0
  1  2  1  0
  2  3  1  0
  3  4  1  0
  4  5  1  0
  5  6  2  0
  6  7  1  0
  7  8  2  0
  8  9  1  0
  9 10  2  0
  4 11  2  0
 11 12  1  0
 12 13  1  0
 13 14  1  0
 14 15  1  0
 15 16  1  0
 16 17  2  0
 16 18  1  0
 18 19  1  0
 19 20  1  0
 20 21  2  0
 21 22  1  0
 22 23  2  0
 23 24  1  0
 24 25  2  0
 25 26  1  0
 26 27  2  0
 27 28  1  0
 28 29  2  0
 29 30  1  0
 30 31  1  0
 30 32  2  0
 23 33  1  0
 33 34  2  0
 12  2  2  0
 34 20  1  0
 10  5  1  0
 29 24  1  0
  1 35  1  0
  1 36  1  0
  1 37  1  0
  6 38  1  0
  7 39  1  0
  8 40  1  0
  9 41  1  0
 10 42  1  0
 13 43  1  0
 13 44  1  0
 14 45  1  0
 14 46  1  0
 15 47  1  0
 15 48  1  0
 19 49  1  0
 19 50  1  0
 21 51  1  0
 22 52  1  0
 25 53  1  0
 26 54  1  0
 27 55  1  0
 28 56  1  0
 31 57  1  0
 33 58  1  0
 34 59  1  0
M  CHG  3   3  -1  18  -1  31  -1
M  END
>  <UniqueID>  (50) 
50

>  <SMILES>  (50) 
Cc1[n-]c(-c2ccccc2)nc1CCCC(=O)[N-]Cc1ccc(-c2ccccc2C([NH-])=O)cc1

>  <Energy>  (50) 
89.21762807460466

>  <Genealogy>  (50) 
Cc1[n-]c(-c2ccccc2)nc1CCCC(=O)[N-]Cc1ccc(-c2ccccc2C([NH-])=O)cc1 (protonated)
Cc1[n-]c(-c2ccccc2)nc1CCCC(=O)[N-]Cc1ccc(-c2ccccc2C([NH-])=O)cc1 (3D coordinates assigned)
Cc1[n-]c(-c2ccccc2)nc1CCCC(=O)[N-]Cc1ccc(-c2ccccc2C([NH-])=O)cc1 (optimized conformer: 89.21762807460466 kcal/mol)

>  <smiles>  (50) 
Cc1[nH]c(-c2ccccc2)nc1CCCC(=O)NCc1ccc(-c2ccccc2C(N)=O)cc1

>  <score_type>  (50) 
oracle

>  <origin>  (50) 
adg

>  <m_score__min__energy>  (50) 
-14.140000000000001

>  <m_primary>  (50) 
energy

$$$$
50:0
     RDKit          3D

 55 58  0  0  0  0  0  0  0  0999 V2000
   61.7830   26.3820   51.0110 C   0  0  0  0  0  0  0  0  0  0  0  0
   61.0660   27.6470   50.6230 C   0  0  0  0  0  0  0  0  0  0  0  0
   61.2080   28.7850   51.4310 C   0  0  0  0  0  0  0  0  0  0  0  0
   60.5900   29.9850   51.0800 C   0  0  0  0  0  0  0  0  0  0  0  0
   59.7920   30.0620   49.9310 C   0  0  0  0  0  0  0  0  0  0  0  0
   59.2500   31.3590   49.4910 C   0  0  0  0  0  0  0  0  0  0  0  0
   58.3520   31.9310   50.1610 O   0  0  0  0  0  0  0  0  0  0  0  0
   59.6530   31.9090   48.2290 N   0  0  0  0  0  0  0  0  0  0  0  0
   58.6500   32.1410   47.1830 C   0  0  0  0  0  0  0  0  0  0  0  0
   58.8450   33.5370   46.5850 C   0  0  0  0  0  0  0  0  0  0  0  0
   60.2530   33.6900   46.0010 C   0  0  0  0  0  0  0  0  0  0  0  0
   61.3300   33.1910   46.9370 C   0  0  0  0  0  0  0  0  0  0  0  0
   62.6630   33.5570   46.6980 C   0  0  0  0  0  0  0  0  0  0  0  0
   63.6910   33.0440   47.4960 C   0  0  0  0  0  0  0  0  0  0  0  0
   63.3960   32.1640   48.5390 C   0  0  0  0  0  0  0  0  0  0  0  0
   62.0730   31.7970   48.7930 C   0  0  0  0  0  0  0  0  0  0  0  0
   61.0250   32.2980   47.9930 C   0  0  0  0  0  0  0  0  0  0  0  0
   59.6100   28.9180   49.1410 C   0  0  0  0  0  0  0  0  0  0  0  0
   60.2960   27.7320   49.4400 C   0  0  0  0  0  0  0  0  0  0  0  0
   60.2930   26.6740   48.4700 N   0  0  0  0  0  0  0  0  0  0  0  0
   60.4670   26.8920   47.0600 C   0  0  0  0  0  0  0  0  0  0  0  0
   61.4340   26.3420   46.4720 O   0  0  0  0  0  0  0  0  0  0  0  0
   59.5400   27.7540   46.2880 C   0  0  0  0  0  0  0  0  0  0  0  0
   58.1640   27.4660   46.2400 C   0  0  0  0  0  0  0  0  0  0  0  0
   57.2790   28.3400   45.6060 C   0  0  0  0  0  0  0  0  0  0  0  0
   57.7550   29.4950   44.9790 C   0  0  0  0  0  0  0  0  0  0  0  0
   56.6040   30.6240   44.2680 S   0  0  0  0  0  0  0  0  0  0  0  0
   56.9980   30.8470   42.5440 C   0  0  0  0  0  0  0  0  0  0  0  0
   55.2040   30.0870   44.3840 O   0  0  0  0  0  0  0  0  0  0  0  0
   56.6840   31.9450   44.9800 O   0  0  0  0  0  0  0  0  0  0  0  0
   59.1340   29.7550   44.9650 C   0  0  0  0  0  0  0  0  0  0  0  0
   60.0220   28.8890   45.6140 C   0  0  0  0  0  0  0  0  0  0  0  0
   61.8258   26.3064   52.1076 H   0  0  0  0  0  0  0  0  0  0  0  0
   61.2423   25.5146   50.6045 H   0  0  0  0  0  0  0  0  0  0  0  0
   62.8050   26.4004   50.6045 H   0  0  0  0  0  0  0  0  0  0  0  0
   61.8117   28.7304   52.3489 H   0  0  0  0  0  0  0  0  0  0  0  0
   60.7300   30.8764   51.7091 H   0  0  0  0  0  0  0  0  0  0  0  0
   58.7640   31.3848   46.3923 H   0  0  0  0  0  0  0  0  0  0  0  0
   57.6431   32.0681   47.6198 H   0  0  0  0  0  0  0  0  0  0  0  0
   58.1049   33.6932   45.7863 H   0  0  0  0  0  0  0  0  0  0  0  0
   58.7126   34.2826   47.3828 H   0  0  0  0  0  0  0  0  0  0  0  0
   60.3091   33.1180   45.0631 H   0  0  0  0  0  0  0  0  0  0  0  0
   60.4288   34.7630   45.8341 H   0  0  0  0  0  0  0  0  0  0  0  0
   62.9011   34.2512   45.8786 H   0  0  0  0  0  0  0  0  0  0  0  0
   64.7339   33.3345   47.3014 H   0  0  0  0  0  0  0  0  0  0  0  0
   64.2073   31.7591   49.1618 H   0  0  0  0  0  0  0  0  0  0  0  0
   61.8463   31.1120   49.6233 H   0  0  0  0  0  0  0  0  0  0  0  0
   58.9247   28.9510   48.2812 H   0  0  0  0  0  0  0  0  0  0  0  0
   57.7824   26.5453   46.7055 H   0  0  0  0  0  0  0  0  0  0  0  0
   56.2015   28.1185   45.5999 H   0  0  0  0  0  0  0  0  0  0  0  0
   57.9520   31.3870   42.4528 H   0  0  0  0  0  0  0  0  0  0  0  0
   57.0850   29.8642   42.0576 H   0  0  0  0  0  0  0  0  0  0  0  0
   56.2002   31.4275   42.0576 H   0  0  0  0  0  0  0  0  0  0  0  0
   59.5187   30.6429   44.4419 H   0  0  0  0  0  0  0  0  0  0  0  0
   61.1018   29.0979   45.5963 H   0  0  0  0  0  0  0  0  0  0  0  0
  1  2  1  0
  2  3  2  0
  3  4  1  0
  4  5  2  0
  5  6  1  0
  6  7  2  0
  6  8  1  0
  8  9  1  0
  9 10  1  0
 10 11  1  0
 11 12  1  0
 12 13  2  0
 13 14  1  0
 14 15  2  0
 15 16  1  0
 16 17  2  0
  5 18  1  0
 18 19  2  0
 19 20  1  0
 20 21  1  0
 21 22  2  0
 21 23  1  0
 23 24  2  0
 24 25  1  0
 25 26  2  0
 26 27  1  0
 27 28  1  0
 27 29  2  0
 27 30  2  0
 26 31  1  0
 31 32  2  0
 19  2  1  0
 32 23  1  0
 17  8  1  0
 17 12  1  0
  1 33  1  0
  1 34  1  0
  1 35  1  0
  3 36  1  0
  4 37  1  0
  9 38  1  0
  9 39  1  0
 10 40  1  0
 10 41  1  0
 11 42  1  0
 11 43  1  0
 13 44  1  0
 14 45  1  0
 15 46  1  0
 16 47  1  0
 18 48  1  0
 24 49  1  0
 25 50  1  0
 28 51  1  0
 28 52  1  0
 28 53  1  0
 31 54  1  0
 32 55  1  0
M  CHG  1  20  -1
M  END
>  <UniqueID>  (51) 
51

>  <SMILES>  (51) 
Cc1ccc(C(=O)N2CCCc3ccccc32)cc1[N-]C(=O)c1ccc(S(C)(=O)=O)cc1

>  <Energy>  (51) 
75.53250411988866

>  <Genealogy>  (51) 
Cc1ccc(C(=O)N2CCCc3ccccc32)cc1[N-]C(=O)c1ccc(S(C)(=O)=O)cc1 (protonated)
Cc1ccc(C(=O)N2CCCc3ccccc32)cc1[N-]C(=O)c1ccc(S(C)(=O)=O)cc1 (3D coordinates assigned)
Cc1ccc(C(=O)N2CCCc3ccccc32)cc1[N-]C(=O)c1ccc(S(C)(=O)=O)cc1 (nonaromatic ring conformer: 75.53250411988866 kcal/mol)

>  <smiles>  (51) 
Cc1ccc(C(=O)N2CCCc3ccccc32)cc1NC(=O)c1ccc(S(C)(=O)=O)cc1

>  <score_type>  (51) 
oracle

>  <origin>  (51) 
adg

>  <m_score__min__energy>  (51) 
-12.279999999999999

>  <m_primary>  (51) 
energy

$$$$
51:0
     RDKit          3D

 68 71  0  0  0  0  0  0  0  0999 V2000
   58.3580   25.7480   45.3780 O   0  0  0  0  0  0  0  0  0  0  0  0
   58.0590   26.9140   45.5820 C   0  0  0  0  0  0  0  0  0  0  0  0
   57.4670   27.7150   44.4480 C   0  0  0  0  0  0  0  0  0  0  0  0
   56.3660   28.5160   44.8760 O   0  0  0  0  0  0  0  0  0  0  0  0
   56.3040   29.9020   44.6970 C   0  0  0  0  0  0  0  0  0  0  0  0
   55.2120   30.4620   44.3990 O   0  0  0  0  0  0  0  0  0  0  0  0
   57.5030   30.6770   44.8100 N   0  0  0  0  0  0  0  0  0  0  0  0
   57.6300   32.0030   44.2120 C   0  0  0  0  0  0  0  0  0  0  0  0
   58.2490   32.9550   45.2010 C   0  0  0  0  0  0  0  0  0  0  0  0
   59.0580   34.0110   44.7500 C   0  0  0  0  0  0  0  0  0  0  0  0
   59.5800   34.9360   45.6600 C   0  0  0  0  0  0  0  0  0  0  0  0
   59.2890   34.8200   47.0220 C   0  0  0  0  0  0  0  0  0  0  0  0
   58.4780   33.7760   47.4770 C   0  0  0  0  0  0  0  0  0  0  0  0
   57.9610   32.8450   46.5710 C   0  0  0  0  0  0  0  0  0  0  0  0
   58.2510   27.5010   46.9620 C   0  0  0  0  0  0  0  0  0  0  0  0
   58.1660   28.9260   46.9420 O   0  0  0  0  0  0  0  0  0  0  0  0
   59.1340   29.7990   47.4670 C   0  0  0  0  0  0  0  0  0  0  0  0
   59.0650   30.3110   48.7770 C   0  0  0  0  0  0  0  0  0  0  0  0
   60.0440   31.1940   49.2420 C   0  0  0  0  0  0  0  0  0  0  0  0
   61.1140   31.5710   48.4140 C   0  0  0  0  0  0  0  0  0  0  0  0
   62.1210   32.4810   48.8960 N   0  0  0  0  0  0  0  0  0  0  0  0
   61.9350   33.1660   50.1860 C   0  0  0  0  0  0  0  0  0  0  0  0
   63.0880   34.1320   50.4910 C   0  0  0  0  0  0  0  0  0  0  0  0
   64.3870   33.4900   50.2340 N   0  0  0  0  0  0  0  0  0  0  0  0
   65.5290   33.8570   51.0410 C   0  0  0  0  0  0  0  0  0  0  0  0
   65.5100   34.9370   51.6940 O   0  0  0  0  0  0  0  0  0  0  0  0
   66.7580   32.9890   51.1350 C   0  0  0  0  0  0  0  0  0  0  0  0
   66.3740   31.5690   51.4550 C   0  0  0  0  0  0  0  0  0  0  0  0
   67.1750   30.5030   51.0070 C   0  0  0  0  0  0  0  0  0  0  0  0
   66.8090   29.1830   51.2850 C   0  0  0  0  0  0  0  0  0  0  0  0
   65.6410   28.9170   52.0060 C   0  0  0  0  0  0  0  0  0  0  0  0
   64.8330   29.9710   52.4440 C   0  0  0  0  0  0  0  0  0  0  0  0
   65.1920   31.2930   52.1650 C   0  0  0  0  0  0  0  0  0  0  0  0
   64.5630   32.6410   49.0430 C   0  0  0  0  0  0  0  0  0  0  0  0
   63.3440   32.7140   48.1190 C   0  0  0  0  0  0  0  0  0  0  0  0
   61.1860   31.0520   47.1110 C   0  0  0  0  0  0  0  0  0  0  0  0
   60.2050   30.1720   46.6470 C   0  0  0  0  0  0  0  0  0  0  0  0
   58.2452   28.3732   44.0342 H   0  0  0  0  0  0  0  0  0  0  0  0
   57.0983   27.0086   43.6897 H   0  0  0  0  0  0  0  0  0  0  0  0
   58.3520   30.2270   45.2240 H   0  0  0  0  0  0  0  0  0  0  0  0
   58.2679   31.9402   43.3181 H   0  0  0  0  0  0  0  0  0  0  0  0
   56.6318   32.3707   43.9319 H   0  0  0  0  0  0  0  0  0  0  0  0
   59.2817   34.1108   43.6776 H   0  0  0  0  0  0  0  0  0  0  0  0
   60.2205   35.7560   45.3032 H   0  0  0  0  0  0  0  0  0  0  0  0
   59.6980   35.5500   47.7360 H   0  0  0  0  0  0  0  0  0  0  0  0
   58.2465   33.6870   48.5487 H   0  0  0  0  0  0  0  0  0  0  0  0
   57.3260   32.0229   46.9329 H   0  0  0  0  0  0  0  0  0  0  0  0
   57.4713   27.1060   47.6299 H   0  0  0  0  0  0  0  0  0  0  0  0
   59.2527   27.2205   47.3196 H   0  0  0  0  0  0  0  0  0  0  0  0
   58.2368   30.0147   49.4376 H   0  0  0  0  0  0  0  0  0  0  0  0
   59.9758   31.5963   50.2635 H   0  0  0  0  0  0  0  0  0  0  0  0
   60.9936   33.7341   50.1548 H   0  0  0  0  0  0  0  0  0  0  0  0
   61.9106   32.4026   50.9776 H   0  0  0  0  0  0  0  0  0  0  0  0
   62.9923   35.0218   49.8514 H   0  0  0  0  0  0  0  0  0  0  0  0
   63.0386   34.4174   51.5522 H   0  0  0  0  0  0  0  0  0  0  0  0
   67.2925   33.0122   50.1739 H   0  0  0  0  0  0  0  0  0  0  0  0
   67.4057   33.3730   51.9369 H   0  0  0  0  0  0  0  0  0  0  0  0
   68.0924   30.7089   50.4360 H   0  0  0  0  0  0  0  0  0  0  0  0
   67.4405   28.3526   50.9362 H   0  0  0  0  0  0  0  0  0  0  0  0
   65.3574   27.8778   52.2289 H   0  0  0  0  0  0  0  0  0  0  0  0
   63.9133   29.7595   53.0091 H   0  0  0  0  0  0  0  0  0  0  0  0
   64.5484   32.1191   52.5016 H   0  0  0  0  0  0  0  0  0  0  0  0
   65.4517   32.9797   48.4903 H   0  0  0  0  0  0  0  0  0  0  0  0
   64.6833   31.5993   49.3754 H   0  0  0  0  0  0  0  0  0  0  0  0
   63.2973   33.7093   47.6530 H   0  0  0  0  0  0  0  0  0  0  0  0
   63.4319   31.9446   47.3378 H   0  0  0  0  0  0  0  0  0  0  0  0
   62.0188   31.3397   46.4525 H   0  0  0  0  0  0  0  0  0  0  0  0
   60.2752   29.7680   45.6263 H   0  0  0  0  0  0  0  0  0  0  0  0
  1  2  2  0
  2  3  1  0
  3  4  1  0
  4  5  1  0
  5  6  2  0
  5  7  1  0
  7  8  1  0
  8  9  1  0
  9 10  2  0
 10 11  1  0
 11 12  2  0
 12 13  1  0
 13 14  2  0
  2 15  1  0
 15 16  1  0
 16 17  1  0
 17 18  2  0
 18 19  1  0
 19 20  2  0
 20 21  1  0
 21 22  1  0
 22 23  1  0
 23 24  1  0
 24 25  1  0
 25 26  2  0
 25 27  1  0
 27 28  1  0
 28 29  2  0
 29 30  1  0
 30 31  2  0
 31 32  1  0
 32 33  2  0
 24 34  1  0
 34 35  1  0
 20 36  1  0
 36 37  2  0
 14  9  1  0
 37 17  1  0
 35 21  1  0
 33 28  1  0
  3 38  1  0
  3 39  1  0
  7 40  1  0
  8 41  1  0
  8 42  1  0
 10 43  1  0
 11 44  1  0
 12 45  1  0
 13 46  1  0
 14 47  1  0
 15 48  1  0
 15 49  1  0
 18 50  1  0
 19 51  1  0
 22 52  1  0
 22 53  1  0
 23 54  1  0
 23 55  1  0
 27 56  1  0
 27 57  1  0
 29 58  1  0
 30 59  1  0
 31 60  1  0
 32 61  1  0
 33 62  1  0
 34 63  1  0
 34 64  1  0
 35 65  1  0
 35 66  1  0
 36 67  1  0
 37 68  1  0
M  END
>  <UniqueID>  (52) 
52

>  <SMILES>  (52) 
O=C(COC(=O)NCc1ccccc1)COc1ccc(N2CCN(C(=O)Cc3ccccc3)CC2)cc1

>  <Energy>  (52) 
70.96299138782616

>  <Genealogy>  (52) 
O=C(COC(=O)NCc1ccccc1)COc1ccc(N2CCN(C(=O)Cc3ccccc3)CC2)cc1 (3D coordinates assigned)
O=C(COC(=O)NCc1ccccc1)COc1ccc(N2CCN(C(=O)Cc3ccccc3)CC2)cc1 (nonaromatic ring conformer: 70.96299138782616 kcal/mol)

>  <smiles>  (52) 
O=C(COC(=O)NCc1ccccc1)COc1ccc(N2CCN(C(=O)Cc3ccccc3)CC2)cc1

>  <score_type>  (52) 
oracle

>  <origin>  (52) 
adg

>  <m_score__min__energy>  (52) 
-9.5299999999999994

>  <m_primary>  (52) 
energy

$$$$
52:0
     RDKit          3D

 66 68  0  0  0  0  0  0  0  0999 V2000
   54.7240   30.7300   52.0020 C   0  0  0  0  0  0  0  0  0  0  0  0
   56.0710   30.1360   52.3970 C   0  0  0  0  0  0  0  0  0  0  0  0
   57.0100   30.2730   51.3290 O   0  0  0  0  0  0  0  0  0  0  0  0
   57.9210   31.3310   51.1700 C   0  0  0  0  0  0  0  0  0  0  0  0
   57.8500   32.4060   52.0700 C   0  0  0  0  0  0  0  0  0  0  0  0
   58.7410   33.4800   51.9690 C   0  0  0  0  0  0  0  0  0  0  0  0
   59.7240   33.4860   50.9770 C   0  0  0  0  0  0  0  0  0  0  0  0
   59.8100   32.4210   50.0670 C   0  0  0  0  0  0  0  0  0  0  0  0
   60.8710   32.4110   49.0400 C   0  0  0  0  0  0  0  0  0  0  0  0
   61.6840   31.2690   48.9480 C   0  0  0  0  0  0  0  0  0  0  0  0
   62.7210   31.2140   48.0200 C   0  0  0  0  0  0  0  0  0  0  0  0
   62.9650   32.2990   47.1770 C   0  0  0  0  0  0  0  0  0  0  0  0
   62.1670   33.4420   47.2530 C   0  0  0  0  0  0  0  0  0  0  0  0
   61.0980   33.5110   48.1670 C   0  0  0  0  0  0  0  0  0  0  0  0
   60.2300   34.7590   48.1860 C   0  0  0  0  0  0  0  0  0  0  0  0
   58.8550   34.5450   47.5220 C   0  0  0  0  0  0  0  0  0  0  0  0
   58.8750   34.7220   46.0200 C   0  0  0  0  0  0  0  0  0  0  0  0
   59.6760   35.5610   45.5110 O   0  0  0  0  0  0  0  0  0  0  0  0
   58.0330   33.9300   45.1490 N   0  0  0  0  0  0  0  0  0  0  0  0
   56.6500   34.3620   44.9140 C   0  0  0  0  0  0  0  0  0  0  0  0
   58.5030   32.6780   44.5400 C   0  0  0  0  0  0  0  0  0  0  0  0
   59.1320   31.7700   45.5990 C   0  0  0  0  0  0  0  0  0  0  0  0
   58.4520   30.4280   45.6130 C   0  0  0  0  0  0  0  0  0  0  0  0
   59.1830   29.2760   45.9290 C   0  0  0  0  0  0  0  0  0  0  0  0
   58.5730   28.0210   45.9030 C   0  0  0  0  0  0  0  0  0  0  0  0
   57.2160   27.8910   45.5460 C   0  0  0  0  0  0  0  0  0  0  0  0
   56.5710   26.6020   45.5020 N   0  0  0  0  0  0  0  0  0  0  0  0
   56.9660   25.2730   46.5460 S   0  0  0  0  0  0  0  0  0  0  0  0
   57.8790   24.0330   45.6480 C   0  0  0  0  0  0  0  0  0  0  0  0
   55.6890   24.6560   47.0480 O   0  0  0  0  0  0  0  0  0  0  0  0
   57.7600   25.7620   47.7240 O   0  0  0  0  0  0  0  0  0  0  0  0
   56.4830   29.0530   45.2290 C   0  0  0  0  0  0  0  0  0  0  0  0
   55.1390   28.9690   44.8740 O   0  0  0  0  0  0  0  0  0  0  0  0
   57.1000   30.3080   45.2560 C   0  0  0  0  0  0  0  0  0  0  0  0
   58.9110   31.3420   50.1660 C   0  0  0  0  0  0  0  0  0  0  0  0
   54.1541   30.9813   52.9086 H   0  0  0  0  0  0  0  0  0  0  0  0
   54.8853   31.6405   51.4061 H   0  0  0  0  0  0  0  0  0  0  0  0
   54.1605   29.9969   51.4061 H   0  0  0  0  0  0  0  0  0  0  0  0
   56.4526   30.6622   53.2844 H   0  0  0  0  0  0  0  0  0  0  0  0
   55.9374   29.0669   52.6188 H   0  0  0  0  0  0  0  0  0  0  0  0
   57.0867   32.4039   52.8621 H   0  0  0  0  0  0  0  0  0  0  0  0
   58.6670   34.3220   52.6729 H   0  0  0  0  0  0  0  0  0  0  0  0
   60.4312   34.3258   50.9089 H   0  0  0  0  0  0  0  0  0  0  0  0
   61.5003   30.4125   49.6134 H   0  0  0  0  0  0  0  0  0  0  0  0
   63.3490   30.3135   47.9514 H   0  0  0  0  0  0  0  0  0  0  0  0
   63.7892   32.2535   46.4499 H   0  0  0  0  0  0  0  0  0  0  0  0
   62.3753   34.2968   46.5927 H   0  0  0  0  0  0  0  0  0  0  0  0
   60.0714   35.0601   49.2320 H   0  0  0  0  0  0  0  0  0  0  0  0
   60.7563   35.5354   47.6113 H   0  0  0  0  0  0  0  0  0  0  0  0
   58.5149   33.5235   47.7475 H   0  0  0  0  0  0  0  0  0  0  0  0
   58.1773   35.3102   47.9285 H   0  0  0  0  0  0  0  0  0  0  0  0
   56.1460   34.5194   45.8790 H   0  0  0  0  0  0  0  0  0  0  0  0
   56.6516   35.3025   44.3434 H   0  0  0  0  0  0  0  0  0  0  0  0
   56.1160   33.5879   44.3434 H   0  0  0  0  0  0  0  0  0  0  0  0
   57.6510   32.1583   44.0774 H   0  0  0  0  0  0  0  0  0  0  0  0
   59.2611   32.9152   43.7790 H   0  0  0  0  0  0  0  0  0  0  0  0
   60.1992   31.6328   45.3706 H   0  0  0  0  0  0  0  0  0  0  0  0
   59.0131   32.2396   46.5866 H   0  0  0  0  0  0  0  0  0  0  0  0
   60.2458   29.3609   46.1997 H   0  0  0  0  0  0  0  0  0  0  0  0
   59.1565   27.1256   46.1634 H   0  0  0  0  0  0  0  0  0  0  0  0
   55.8860   26.4020   44.7420 H   0  0  0  0  0  0  0  0  0  0  0  0
   58.3766   23.3572   46.3592 H   0  0  0  0  0  0  0  0  0  0  0  0
   57.1887   23.4558   45.0153 H   0  0  0  0  0  0  0  0  0  0  0  0
   58.6352   24.5208   45.0153 H   0  0  0  0  0  0  0  0  0  0  0  0
   56.5218   31.2068   44.9957 H   0  0  0  0  0  0  0  0  0  0  0  0
   58.9812   30.5039   49.4570 H   0  0  0  0  0  0  0  0  0  0  0  0
  1  2  1  0
  2  3  1  0
  3  4  1  0
  4  5  2  0
  5  6  1  0
  6  7  2  0
  7  8  1  0
  8  9  1  0
  9 10  2  0
 10 11  1  0
 11 12  2  0
 12 13  1  0
 13 14  2  0
 14 15  1  0
 15 16  1  0
 16 17  1  0
 17 18  2  0
 17 19  1  0
 19 20  1  0
 19 21  1  0
 21 22  1  0
 22 23  1  0
 23 24  2  0
 24 25  1  0
 25 26  2  0
 26 27  1  0
 27 28  1  0
 28 29  1  0
 28 30  2  0
 28 31  2  0
 26 32  1  0
 32 33  1  0
 32 34  2  0
  8 35  2  0
 35  4  1  0
 14  9  1  0
 34 23  1  0
  1 36  1  0
  1 37  1  0
  1 38  1  0
  2 39  1  0
  2 40  1  0
  5 41  1  0
  6 42  1  0
  7 43  1  0
 10 44  1  0
 11 45  1  0
 12 46  1  0
 13 47  1  0
 15 48  1  0
 15 49  1  0
 16 50  1  0
 16 51  1  0
 20 52  1  0
 20 53  1  0
 20 54  1  0
 21 55  1  0
 21 56  1  0
 22 57  1  0
 22 58  1  0
 24 59  1  0
 25 60  1  0
 27 61  1  0
 29 62  1  0
 29 63  1  0
 29 64  1  0
 34 65  1  0
 35 66  1  0
M  CHG  1  33  -1
M  END
>  <UniqueID>  (53) 
53

>  <SMILES>  (53) 
CCOc1cccc(-c2ccccc2CCC(=O)N(C)CCc2ccc(NS(C)(=O)=O)c([O-])c2)c1

>  <Energy>  (53) 
67.88009400706522

>  <Genealogy>  (53) 
CCOc1cccc(-c2ccccc2CCC(=O)N(C)CCc2ccc(NS(C)(=O)=O)c([O-])c2)c1 (protonated)
CCOc1cccc(-c2ccccc2CCC(=O)N(C)CCc2ccc(NS(C)(=O)=O)c([O-])c2)c1 (3D coordinates assigned)
CCOc1cccc(-c2ccccc2CCC(=O)N(C)CCc2ccc(NS(C)(=O)=O)c([O-])c2)c1 (optimized conformer: 67.88009400706522 kcal/mol)

>  <smiles>  (53) 
CCOc1cccc(-c2ccccc2CCC(=O)N(C)CCc2ccc(NS(C)(=O)=O)c(O)c2)c1

>  <score_type>  (53) 
oracle

>  <origin>  (53) 
adg

>  <m_score__min__energy>  (53) 
-14.1

>  <m_primary>  (53) 
energy

$$$$
53:0
     RDKit          3D

 44 46  0  0  0  0  0  0  0  0999 V2000
   65.7660   33.0320   51.9750 C   0  0  0  0  0  0  0  0  0  0  0  0
   64.7060   33.1300   50.9190 C   0  0  0  0  0  0  0  0  0  0  0  0
   63.3380   33.1600   51.2880 C   0  0  0  0  0  0  0  0  0  0  0  0
   62.3310   33.2080   50.3080 C   0  0  0  0  0  0  0  0  0  0  0  0
   62.7210   33.2330   48.9670 C   0  0  0  0  0  0  0  0  0  0  0  0
   61.9880   33.2390   47.7910 C   0  0  0  0  0  0  0  0  0  0  0  0
   60.5240   33.2790   47.6150 C   0  0  0  0  0  0  0  0  0  0  0  0
   59.8490   32.2560   47.9040 O   0  0  0  0  0  0  0  0  0  0  0  0
   59.8340   34.4600   47.0700 C   0  0  0  0  0  0  0  0  0  0  0  0
   59.3590   35.3350   47.8450 O   0  0  0  0  0  0  0  0  0  0  0  0
   59.7410   34.6300   45.6530 N   0  0  0  0  0  0  0  0  0  0  0  0
   58.4720   34.6240   44.9390 C   0  0  0  0  0  0  0  0  0  0  0  0
   57.7870   33.3130   45.1600 C   0  0  0  0  0  0  0  0  0  0  0  0
   56.5280   33.2670   45.1570 O   0  0  0  0  0  0  0  0  0  0  0  0
   58.5640   32.1440   45.4630 N   0  0  0  0  0  0  0  0  0  0  0  0
   58.0270   30.8110   45.5230 C   0  0  0  0  0  0  0  0  0  0  0  0
   58.4730   29.9350   46.5210 C   0  0  0  0  0  0  0  0  0  0  0  0
   57.9820   28.6280   46.5900 C   0  0  0  0  0  0  0  0  0  0  0  0
   57.0450   28.1650   45.6490 C   0  0  0  0  0  0  0  0  0  0  0  0
   56.5260   26.7790   45.7230 C   0  0  0  0  0  0  0  0  0  0  0  0
   55.1480   26.5340   45.9960 N   0  0  0  0  0  0  0  0  0  0  0  0
   57.3010   25.8000   45.5450 O   0  0  0  0  0  0  0  0  0  0  0  0
   56.6170   29.0380   44.6340 C   0  0  0  0  0  0  0  0  0  0  0  0
   57.1070   30.3470   44.5660 C   0  0  0  0  0  0  0  0  0  0  0  0
   62.9240   33.1470   46.7650 C   0  0  0  0  0  0  0  0  0  0  0  0
   64.1780   33.1120   47.2700 N   0  0  0  0  0  0  0  0  0  0  0  0
   64.0430   33.1630   48.6060 C   0  0  0  0  0  0  0  0  0  0  0  0
   65.0640   33.1100   49.5540 C   0  0  0  0  0  0  0  0  0  0  0  0
   65.2979   33.0753   52.9695 H   0  0  0  0  0  0  0  0  0  0  0  0
   66.3062   32.0801   51.8651 H   0  0  0  0  0  0  0  0  0  0  0  0
   66.4715   33.8687   51.8651 H   0  0  0  0  0  0  0  0  0  0  0  0
   63.0611   33.1456   52.3525 H   0  0  0  0  0  0  0  0  0  0  0  0
   61.2676   33.2253   50.5890 H   0  0  0  0  0  0  0  0  0  0  0  0
   57.8355   35.4390   45.3140 H   0  0  0  0  0  0  0  0  0  0  0  0
   58.6534   34.7685   43.8637 H   0  0  0  0  0  0  0  0  0  0  0  0
   59.5630   32.2840   45.7400 H   0  0  0  0  0  0  0  0  0  0  0  0
   59.2156   30.2784   47.2563 H   0  0  0  0  0  0  0  0  0  0  0  0
   58.3316   27.9557   47.3874 H   0  0  0  0  0  0  0  0  0  0  0  0
   54.6370   27.0880   46.7190 H   0  0  0  0  0  0  0  0  0  0  0  0
   55.8899   28.6889   43.8860 H   0  0  0  0  0  0  0  0  0  0  0  0
   56.7710   31.0161   43.7602 H   0  0  0  0  0  0  0  0  0  0  0  0
   62.6782   33.1082   45.6935 H   0  0  0  0  0  0  0  0  0  0  0  0
   65.0670   33.0410   46.7280 H   0  0  0  0  0  0  0  0  0  0  0  0
   66.1187   33.0542   49.2467 H   0  0  0  0  0  0  0  0  0  0  0  0
  1  2  1  0
  2  3  2  0
  3  4  1  0
  4  5  2  0
  5  6  1  0
  6  7  1  0
  7  8  2  0
  7  9  1  0
  9 10  2  0
  9 11  1  0
 11 12  1  0
 12 13  1  0
 13 14  2  0
 13 15  1  0
 15 16  1  0
 16 17  2  0
 17 18  1  0
 18 19  2  0
 19 20  1  0
 20 21  1  0
 20 22  2  0
 19 23  1  0
 23 24  2  0
  6 25  2  0
 25 26  1  0
 26 27  1  0
 27 28  2  0
 28  2  1  0
 27  5  1  0
 24 16  1  0
  1 29  1  0
  1 30  1  0
  1 31  1  0
  3 32  1  0
  4 33  1  0
 12 34  1  0
 12 35  1  0
 15 36  1  0
 17 37  1  0
 18 38  1  0
 21 39  1  0
 23 40  1  0
 24 41  1  0
 25 42  1  0
 26 43  1  0
 28 44  1  0
M  CHG  2  11  -1  21  -1
M  END
>  <UniqueID>  (54) 
54

>  <SMILES>  (54) 
Cc1ccc2c(C(=O)C(=O)[N-]CC(=O)Nc3ccc(C([NH-])=O)cc3)c[nH]c2c1

>  <Energy>  (54) 
81.91169314672959

>  <Genealogy>  (54) 
Cc1ccc2c(C(=O)C(=O)[N-]CC(=O)Nc3ccc(C([NH-])=O)cc3)c[nH]c2c1 (protonated)
Cc1ccc2c(C(=O)C(=O)[N-]CC(=O)Nc3ccc(C([NH-])=O)cc3)c[nH]c2c1 (3D coordinates assigned)
Cc1ccc2c(C(=O)C(=O)[N-]CC(=O)Nc3ccc(C([NH-])=O)cc3)c[nH]c2c1 (optimized conformer: 81.91169314672959 kcal/mol)

>  <smiles>  (54) 
Cc1ccc2c(C(=O)C(=O)NCC(=O)Nc3ccc(C(N)=O)cc3)c[nH]c2c1

>  <score_type>  (54) 
oracle

>  <origin>  (54) 
adg

>  <m_score__min__energy>  (54) 
-12.17

>  <m_primary>  (54) 
energy

$$$$
54:0
     RDKit          3D

 44 45  0  0  0  0  0  0  0  0999 V2000
   57.8030   32.5750   47.2430 H   0  0  0  0  0  0  0  0  0  0  0  0
   57.7000   33.5270   46.9760 O   0  0  0  0  0  0  0  0  0  0  0  0
   58.9440   33.9750   46.4960 C   0  0  0  0  0  0  0  0  0  0  0  0
   60.0480   32.9750   46.8210 C   0  0  0  0  0  0  0  0  0  0  0  0
   61.0868   33.3355   46.7889 H   0  0  0  0  0  0  0  0  0  0  0  0
   59.8530   31.7250   47.1340 N   0  0  0  0  0  0  0  0  0  0  0  0
   59.7230   30.6250   46.2240 C   0  0  0  0  0  0  0  0  0  0  0  0
   60.7940   29.7530   46.0160 C   0  0  0  0  0  0  0  0  0  0  0  0
   61.7278   29.8832   46.5826 H   0  0  0  0  0  0  0  0  0  0  0  0
   60.6790   28.7200   45.0920 C   0  0  0  0  0  0  0  0  0  0  0  0
   61.5150   28.0232   44.9321 H   0  0  0  0  0  0  0  0  0  0  0  0
   59.4950   28.5750   44.3700 C   0  0  0  0  0  0  0  0  0  0  0  0
   59.3999   27.7566   43.6412 H   0  0  0  0  0  0  0  0  0  0  0  0
   58.4490   29.4390   44.5570 N   0  0  0  0  0  0  0  0  0  0  0  0
   57.1940   29.2230   43.8160 C   0  0  0  0  0  0  0  0  0  0  0  0
   57.3188   28.3710   43.1316 H   0  0  0  0  0  0  0  0  0  0  0  0
   56.9542   30.1326   43.2458 H   0  0  0  0  0  0  0  0  0  0  0  0
   56.0660   28.9320   44.7710 C   0  0  0  0  0  0  0  0  0  0  0  0
   55.1360   29.7710   44.8990 O   0  0  0  0  0  0  0  0  0  0  0  0
   56.0710   27.7700   45.6090 N   0  0  0  0  0  0  0  0  0  0  0  0
   57.2450   27.1630   46.1630 C   0  0  0  0  0  0  0  0  0  0  0  0
   57.9300   27.7850   47.2190 C   0  0  0  0  0  0  0  0  0  0  0  0
   57.5645   28.7419   47.6199 H   0  0  0  0  0  0  0  0  0  0  0  0
   59.0730   27.1950   47.7630 C   0  0  0  0  0  0  0  0  0  0  0  0
   59.6018   27.6855   48.5935 H   0  0  0  0  0  0  0  0  0  0  0  0
   59.5450   25.9850   47.2550 C   0  0  0  0  0  0  0  0  0  0  0  0
   60.4402   25.5179   47.6914 H   0  0  0  0  0  0  0  0  0  0  0  0
   58.8820   25.3650   46.1920 C   0  0  0  0  0  0  0  0  0  0  0  0
   59.2545   24.4074   45.7992 H   0  0  0  0  0  0  0  0  0  0  0  0
   57.7420   25.9580   45.6220 C   0  0  0  0  0  0  0  0  0  0  0  0
   57.0050   25.2410   44.5250 C   0  0  0  0  0  0  0  0  0  0  0  0
   56.2829   24.5385   44.9667 H   0  0  0  0  0  0  0  0  0  0  0  0
   56.4702   25.9737   43.9029 H   0  0  0  0  0  0  0  0  0  0  0  0
   57.7227   24.6862   43.9029 H   0  0  0  0  0  0  0  0  0  0  0  0
   58.5600   30.4750   45.4520 C   0  0  0  0  0  0  0  0  0  0  0  0
   57.6110   31.2950   45.6020 O   0  0  0  0  0  0  0  0  0  0  0  0
   59.2730   35.3320   47.1510 C   0  0  0  0  0  0  0  0  0  0  0  0
   59.2474   35.2266   48.2456 H   0  0  0  0  0  0  0  0  0  0  0  0
   60.2760   35.6570   46.8373 H   0  0  0  0  0  0  0  0  0  0  0  0
   58.5302   36.0803   46.8373 H   0  0  0  0  0  0  0  0  0  0  0  0
   58.8440   34.1820   44.9770 C   0  0  0  0  0  0  0  0  0  0  0  0
   58.3741   35.1547   44.7697 H   0  0  0  0  0  0  0  0  0  0  0  0
   59.8519   34.1604   44.5369 H   0  0  0  0  0  0  0  0  0  0  0  0
   58.2344   33.3791   44.5369 H   0  0  0  0  0  0  0  0  0  0  0  0
  1  2  1  0
  2  3  1  0
  3  4  1  0
  4  5  1  0
  4  6  2  0
  6  7  1  0
  7  8  2  0
  8  9  1  0
  8 10  1  0
 10 11  1  0
 10 12  2  0
 12 13  1  0
 12 14  1  0
 14 15  1  0
 15 16  1  0
 15 17  1  0
 15 18  1  0
 18 19  2  0
 18 20  1  0
 20 21  1  0
 21 22  2  0
 22 23  1  0
 22 24  1  0
 24 25  1  0
 24 26  2  0
 26 27  1  0
 26 28  1  0
 28 29  1  0
 28 30  2  0
 30 31  1  0
 31 32  1  0
 31 33  1  0
 31 34  1  0
 14 35  1  0
 35 36  2  0
  3 37  1  0
 37 38  1  0
 37 39  1  0
 37 40  1  0
  3 41  1  0
 41 42  1  0
 41 43  1  0
 41 44  1  0
 35  7  1  0
 30 21  1  0
M  CHG  1  20  -1
M  END
>  <UniqueID>  (55) 
55

>  <SMILES>  (55) 
Cc1ccccc1[N-]C(=O)Cn1cccc(/N=C\C(C)(C)O)c1=O

>  <Energy>  (55) 
55.09640420862179

>  <Genealogy>  (55) 
Cc1ccccc1[N-]C(=O)Cn1cccc(N=CC(C)(C)O)c1=O (protonated)
Cc1ccccc1[N-]C(=O)Cn1cccc(/N=C\C(C)(C)O)c1=O (cis-trans isomerization)
Cc1ccccc1[N-]C(=O)Cn1cccc(/N=C\C(C)(C)O)c1=O (3D coordinates assigned)
Cc1ccccc1[N-]C(=O)Cn1cccc(/N=C\C(C)(C)O)c1=O (optimized conformer: 55.09640420862179 kcal/mol)

>  <smiles>  (55) 
Cc1ccccc1NC(=O)Cn1cccc(N=CC(C)(C)O)c1=O

>  <score_type>  (55) 
oracle

>  <origin>  (55) 
adg

>  <m_score__min__energy>  (55) 
-9.5500000000000007

>  <m_primary>  (55) 
energy

$$$$
55:0
     RDKit          3D

 47 50  0  0  0  0  0  0  0  0999 V2000
   61.1620   29.8910   47.9290 O   0  0  0  0  0  0  0  0  0  0  0  0
   60.7070   28.8420   48.4610 C   0  0  0  0  0  0  0  0  0  0  0  0
   60.5960   28.7580   49.9490 C   0  0  0  0  0  0  0  0  0  0  0  0
   60.0850   30.0200   50.4800 N   0  0  0  0  0  0  0  0  0  0  0  0
   60.8020   31.1330   50.7530 C   0  0  0  0  0  0  0  0  0  0  0  0
   62.1630   31.2680   50.5040 O   0  0  0  0  0  0  0  0  0  0  0  0
   59.9950   32.0930   51.3320 C   0  0  0  0  0  0  0  0  0  0  0  0
   58.7420   31.5420   51.4340 C   0  0  0  0  0  0  0  0  0  0  0  0
   58.8280   30.2670   50.9130 C   0  0  0  0  0  0  0  0  0  0  0  0
   57.7860   29.3500   50.8560 O   0  0  0  0  0  0  0  0  0  0  0  0
   57.5740   32.2310   52.0670 C   0  0  0  0  0  0  0  0  0  0  0  0
   57.9050   33.6620   52.4410 C   0  0  0  0  0  0  0  0  0  0  0  0
   59.1410   34.2030   52.3430 C   0  0  0  0  0  0  0  0  0  0  0  0
   60.3580   33.4490   51.8450 C   0  0  0  0  0  0  0  0  0  0  0  0
   60.3080   27.7260   47.6580 N   0  0  0  0  0  0  0  0  0  0  0  0
   58.9840   27.4670   47.1680 C   0  0  0  0  0  0  0  0  0  0  0  0
   58.3410   26.2410   47.3950 C   0  0  0  0  0  0  0  0  0  0  0  0
   57.0670   26.0120   46.8750 C   0  0  0  0  0  0  0  0  0  0  0  0
   56.4240   26.9920   46.1110 C   0  0  0  0  0  0  0  0  0  0  0  0
   55.1530   26.7230   45.6170 O   0  0  0  0  0  0  0  0  0  0  0  0
   57.0650   28.2250   45.8550 C   0  0  0  0  0  0  0  0  0  0  0  0
   56.4220   29.2850   45.0350 C   0  0  0  0  0  0  0  0  0  0  0  0
   55.1730   29.2860   44.8610 O   0  0  0  0  0  0  0  0  0  0  0  0
   57.2180   30.3410   44.4770 N   0  0  0  0  0  0  0  0  0  0  0  0
   57.7140   31.4970   45.1700 C   0  0  0  0  0  0  0  0  0  0  0  0
   56.9360   32.6590   45.3280 C   0  0  0  0  0  0  0  0  0  0  0  0
   57.4580   33.7710   45.9960 C   0  0  0  0  0  0  0  0  0  0  0  0
   58.7630   33.7390   46.4950 C   0  0  0  0  0  0  0  0  0  0  0  0
   59.5520   32.5990   46.3170 C   0  0  0  0  0  0  0  0  0  0  0  0
   59.0330   31.4850   45.6490 C   0  0  0  0  0  0  0  0  0  0  0  0
   59.8090   30.3840   45.4820 F   0  0  0  0  0  0  0  0  0  0  0  0
   58.3520   28.4410   46.3860 C   0  0  0  0  0  0  0  0  0  0  0  0
   59.9078   27.9433   50.2183 H   0  0  0  0  0  0  0  0  0  0  0  0
   61.5901   28.5604   50.3765 H   0  0  0  0  0  0  0  0  0  0  0  0
   56.7334   32.2329   51.3575 H   0  0  0  0  0  0  0  0  0  0  0  0
   57.3112   31.6874   52.9865 H   0  0  0  0  0  0  0  0  0  0  0  0
   57.0904   34.2996   52.8150 H   0  0  0  0  0  0  0  0  0  0  0  0
   59.2707   35.2534   52.6428 H   0  0  0  0  0  0  0  0  0  0  0  0
   60.8262   34.0242   51.0326 H   0  0  0  0  0  0  0  0  0  0  0  0
   61.0525   33.3224   52.6886 H   0  0  0  0  0  0  0  0  0  0  0  0
   58.8423   25.4589   47.9841 H   0  0  0  0  0  0  0  0  0  0  0  0
   56.5637   25.0530   47.0672 H   0  0  0  0  0  0  0  0  0  0  0  0
   55.9133   32.6926   44.9244 H   0  0  0  0  0  0  0  0  0  0  0  0
   56.8409   34.6718   46.1289 H   0  0  0  0  0  0  0  0  0  0  0  0
   59.1694   34.6112   47.0280 H   0  0  0  0  0  0  0  0  0  0  0  0
   60.5820   32.5779   46.7026 H   0  0  0  0  0  0  0  0  0  0  0  0
   58.8687   29.3906   46.1828 H   0  0  0  0  0  0  0  0  0  0  0  0
  1  2  2  0
  2  3  1  0
  3  4  1  0
  4  5  1  0
  5  6  1  0
  5  7  2  0
  7  8  1  0
  8  9  2  0
  9 10  1  0
  8 11  1  0
 11 12  1  0
 12 13  2  0
 13 14  1  0
  2 15  1  0
 15 16  1  0
 16 17  2  0
 17 18  1  0
 18 19  2  0
 19 20  1  0
 19 21  1  0
 21 22  1  0
 22 23  2  0
 22 24  1  0
 24 25  1  0
 25 26  2  0
 26 27  1  0
 27 28  2  0
 28 29  1  0
 29 30  2  0
 30 31  1  0
 21 32  2  0
  9  4  1  0
 32 16  1  0
 14  7  1  0
 30 25  1  0
  3 33  1  0
  3 34  1  0
 11 35  1  0
 11 36  1  0
 12 37  1  0
 13 38  1  0
 14 39  1  0
 14 40  1  0
 17 41  1  0
 18 42  1  0
 26 43  1  0
 27 44  1  0
 28 45  1  0
 29 46  1  0
 32 47  1  0
M  CHG  5   6  -1  10  -1  15  -1  20  -1  24  -1
M  END
>  <UniqueID>  (56) 
56

>  <SMILES>  (56) 
O=C(Cn1c([O-])c2c(c1[O-])CC=CC2)[N-]c1ccc([O-])c(C(=O)[N-]c2ccccc2F)c1

>  <Energy>  (56) 
91.80764402214254

>  <Genealogy>  (56) 
O=C(Cn1c([O-])c2c(c1[O-])CC=CC2)[N-]c1ccc([O-])c(C(=O)[N-]c2ccccc2F)c1 (protonated)
O=C(Cn1c([O-])c2c(c1[O-])CC=CC2)[N-]c1ccc([O-])c(C(=O)[N-]c2ccccc2F)c1 (3D coordinates assigned)
O=C(Cn1c([O-])c2c(c1[O-])CC=CC2)[N-]c1ccc([O-])c(C(=O)[N-]c2ccccc2F)c1 (nonaromatic ring conformer: 91.80764402214254 kcal/mol)

>  <smiles>  (56) 
O=C(Cn1c(O)c2c(c1O)CC=CC2)Nc1ccc(O)c(C(=O)Nc2ccccc2F)c1

>  <score_type>  (56) 
oracle

>  <origin>  (56) 
adg

>  <m_score__min__energy>  (56) 
-16.289999999999999

>  <m_primary>  (56) 
energy

$$$$
56:0
     RDKit          3D

 41 44  0  0  0  0  0  0  0  0999 V2000
   55.0040   29.3430   43.7270 N   0  0  0  0  0  0  0  0  0  0  0  0
   56.0030   29.4200   44.5440 C   0  0  0  0  0  0  0  0  0  0  0  0
   56.3880   28.3220   45.2420 N   0  0  0  0  0  0  0  0  0  0  0  0
   57.4370   28.3710   46.1050 C   0  0  0  0  0  0  0  0  0  0  0  0
   58.1460   29.5710   46.2880 C   0  0  0  0  0  0  0  0  0  0  0  0
   59.2910   29.6760   47.2290 C   0  0  0  0  0  0  0  0  0  0  0  0
   60.2220   30.7250   47.1480 C   0  0  0  0  0  0  0  0  0  0  0  0
   61.2810   30.7680   48.0690 C   0  0  0  0  0  0  0  0  0  0  0  0
   62.2660   31.8210   48.0340 N   0  0  0  0  0  0  0  0  0  0  0  0
   63.5340   31.7900   48.7440 C   0  0  0  0  0  0  0  0  0  0  0  0
   64.1430   33.1730   48.5580 C   0  0  0  0  0  0  0  0  0  0  0  0
   63.3980   33.8040   47.3770 C   0  0  1  0  0  0  0  0  0  0  0  0
   64.1270   33.6150   46.1910 O   0  0  0  0  0  0  0  0  0  0  0  0
   62.0730   33.0520   47.2870 C   0  0  0  0  0  0  0  0  0  0  0  0
   61.3700   29.8000   49.0200 N   0  0  0  0  0  0  0  0  0  0  0  0
   60.4600   28.7960   49.0950 C   0  0  0  0  0  0  0  0  0  0  0  0
   60.5800   27.8000   50.1060 N   0  0  0  0  0  0  0  0  0  0  0  0
   60.7660   26.3390   50.1780 C   0  0  0  0  0  0  0  0  0  0  0  0
   60.7670   26.2580   51.6690 C   0  0  0  0  0  0  0  0  0  0  0  0
   62.0070   25.9130   52.1810 F   0  0  0  0  0  0  0  0  0  0  0  0
   60.5770   27.7370   51.5770 C   0  0  0  0  0  0  0  0  0  0  0  0
   59.4350   28.7430   48.2080 N   0  0  0  0  0  0  0  0  0  0  0  0
   57.7150   30.6930   45.5640 C   0  0  0  0  0  0  0  0  0  0  0  0
   56.6640   30.5950   44.7100 N   0  0  0  0  0  0  0  0  0  0  0  0
   55.1470   29.2350   42.6970 H   0  0  0  0  0  0  0  0  0  0  0  0
   57.7319   27.4693   46.6617 H   0  0  0  0  0  0  0  0  0  0  0  0
   60.1228   31.5010   46.3747 H   0  0  0  0  0  0  0  0  0  0  0  0
   63.3708   31.5830   49.8120 H   0  0  0  0  0  0  0  0  0  0  0  0
   64.1956   30.9996   48.3600 H   0  0  0  0  0  0  0  0  0  0  0  0
   64.0032   33.7780   49.4660 H   0  0  0  0  0  0  0  0  0  0  0  0
   65.2252   33.1159   48.3691 H   0  0  0  0  0  0  0  0  0  0  0  0
   63.2554   34.8860   47.5149 H   0  0  0  0  0  0  0  0  0  0  0  0
   64.8780   33.0050   46.4140 H   0  0  0  0  0  0  0  0  0  0  0  0
   61.2631   33.6479   47.7330 H   0  0  0  0  0  0  0  0  0  0  0  0
   61.7905   32.8523   46.2428 H   0  0  0  0  0  0  0  0  0  0  0  0
   59.9346   25.7813   49.7222 H   0  0  0  0  0  0  0  0  0  0  0  0
   61.6338   25.9160   49.6508 H   0  0  0  0  0  0  0  0  0  0  0  0
   60.1192   25.5867   52.2519 H   0  0  0  0  0  0  0  0  0  0  0  0
   59.6250   28.0714   52.0149 H   0  0  0  0  0  0  0  0  0  0  0  0
   61.3024   28.3706   52.1084 H   0  0  0  0  0  0  0  0  0  0  0  0
   58.2310   31.6564   45.6889 H   0  0  0  0  0  0  0  0  0  0  0  0
  1  2  2  3
  2  3  1  0
  3  4  2  0
  4  5  1  0
  5  6  1  0
  6  7  2  0
  7  8  1  0
  8  9  1  0
  9 10  1  0
 10 11  1  0
 11 12  1  0
 12 13  1  0
 12 14  1  0
  8 15  2  0
 15 16  1  0
 16 17  1  0
 17 18  1  0
 18 19  1  0
 19 20  1  0
 19 21  1  0
 16 22  2  0
  5 23  2  0
 23 24  1  0
 24  2  1  0
 22  6  1  0
 14  9  1  0
 21 17  1  0
  1 25  1  0
  4 26  1  0
  7 27  1  0
 10 28  1  0
 10 29  1  0
 11 30  1  0
 11 31  1  0
 12 32  1  1
 13 33  1  0
 14 34  1  0
 14 35  1  0
 18 36  1  0
 18 37  1  0
 19 38  1  0
 21 39  1  0
 21 40  1  0
 23 41  1  0
M  CHG  1  24  -1
M  END
>  <UniqueID>  (57) 
57

>  <SMILES>  (57) 
N=c1ncc(-c2cc(N3CC[C@@H](O)C3)nc(N3CC(F)C3)n2)c[n-]1

>  <Energy>  (57) 
92.53573397117424

>  <Genealogy>  (57) 
N=c1ncc(-c2cc(N3CCC(O)C3)nc(N3CC(F)C3)n2)c[n-]1 (protonated)
N=c1ncc(-c2cc(N3CC[C@@H](O)C3)nc(N3CC(F)C3)n2)c[n-]1 (chirality)
N=c1ncc(-c2cc(N3CC[C@@H](O)C3)nc(N3CC(F)C3)n2)c[n-]1 (3D coordinates assigned)
N=c1ncc(-c2cc(N3CC[C@@H](O)C3)nc(N3CC(F)C3)n2)c[n-]1 (nonaromatic ring conformer: 92.53573397117424 kcal/mol)

>  <smiles>  (57) 
N=c1ncc(-c2cc(N3CCC(O)C3)nc(N3CC(F)C3)n2)c[nH]1

>  <score_type>  (57) 
oracle

>  <origin>  (57) 
adg

>  <m_score__min__energy>  (57) 
-8.1699999999999999

>  <m_primary>  (57) 
energy

$$$$
57:0
     RDKit          3D

 42 44  0  0  0  0  0  0  0  0999 V2000
   61.4470   33.8820   46.7420 C   0  0  0  0  0  0  0  0  0  0  0  0
   60.1970   33.9700   47.6250 C   0  0  0  0  0  0  0  0  0  0  0  0
   59.0200   34.5650   46.8470 C   0  0  0  0  0  0  0  0  0  0  0  0
   59.8330   32.6080   48.1710 C   0  0  0  0  0  0  0  0  0  0  0  0
   58.7790   32.4520   48.7700 O   0  0  0  0  0  0  0  0  0  0  0  0
   60.7430   31.4320   47.9600 C   0  0  0  0  0  0  0  0  0  0  0  0
   59.8630   29.8950   48.3910 S   0  0  0  0  0  0  0  0  0  0  0  0
   58.9270   29.8650   46.8600 C   0  0  0  0  0  0  0  0  0  0  0  0
   58.3300   30.9650   46.3420 N   0  0  0  0  0  0  0  0  0  0  0  0
   57.7710   30.5310   45.2010 C   0  0  0  0  0  0  0  0  0  0  0  0
   57.0440   31.2650   44.2660 C   0  0  0  0  0  0  0  0  0  0  0  0
   56.5630   30.5830   43.1330 C   0  0  0  0  0  0  0  0  0  0  0  0
   56.8210   29.2030   42.9630 C   0  0  0  0  0  0  0  0  0  0  0  0
   57.5620   28.4910   43.9260 C   0  0  0  0  0  0  0  0  0  0  0  0
   58.0230   29.1960   45.0410 C   0  0  0  0  0  0  0  0  0  0  0  0
   58.7470   28.7570   46.0920 N   0  0  0  0  0  0  0  0  0  0  0  0
   59.2480   27.4030   46.3490 C   0  0  0  0  0  0  0  0  0  0  0  0
   58.1090   26.4460   46.5480 C   0  0  0  0  0  0  0  0  0  0  0  0
   58.3220   25.1840   47.1200 C   0  0  0  0  0  0  0  0  0  0  0  0
   57.2250   24.3390   47.2950 C   0  0  0  0  0  0  0  0  0  0  0  0
   57.3790   23.2020   47.8130 O   0  0  0  0  0  0  0  0  0  0  0  0
   55.9880   24.7440   46.9060 N   0  0  0  0  0  0  0  0  0  0  0  0
   55.7990   25.9670   46.3450 C   0  0  0  0  0  0  0  0  0  0  0  0
   54.6470   26.3220   45.9860 O   0  0  0  0  0  0  0  0  0  0  0  0
   56.8530   26.8050   46.1700 N   0  0  0  0  0  0  0  0  0  0  0  0
   62.3419   33.8190   47.3786 H   0  0  0  0  0  0  0  0  0  0  0  0
   61.3850   32.9860   46.1069 H   0  0  0  0  0  0  0  0  0  0  0  0
   61.5111   34.7779   46.1069 H   0  0  0  0  0  0  0  0  0  0  0  0
   60.4239   34.6362   48.4704 H   0  0  0  0  0  0  0  0  0  0  0  0
   58.2679   34.9452   47.5540 H   0  0  0  0  0  0  0  0  0  0  0  0
   59.3785   35.3902   46.2141 H   0  0  0  0  0  0  0  0  0  0  0  0
   58.5681   33.7871   46.2141 H   0  0  0  0  0  0  0  0  0  0  0  0
   61.0530   31.3932   46.9053 H   0  0  0  0  0  0  0  0  0  0  0  0
   61.6311   31.5370   48.6005 H   0  0  0  0  0  0  0  0  0  0  0  0
   58.3230   31.9350   46.7320 H   0  0  0  0  0  0  0  0  0  0  0  0
   56.8530   32.3389   44.4084 H   0  0  0  0  0  0  0  0  0  0  0  0
   55.9820   31.1273   42.3739 H   0  0  0  0  0  0  0  0  0  0  0  0
   56.4402   28.6820   42.0722 H   0  0  0  0  0  0  0  0  0  0  0  0
   57.7705   27.4178   43.8047 H   0  0  0  0  0  0  0  0  0  0  0  0
   59.8520   27.0724   45.4912 H   0  0  0  0  0  0  0  0  0  0  0  0
   59.8605   27.4195   47.2626 H   0  0  0  0  0  0  0  0  0  0  0  0
   59.3305   24.8670   47.4239 H   0  0  0  0  0  0  0  0  0  0  0  0
  1  2  1  0
  2  3  1  0
  2  4  1  0
  4  5  2  0
  4  6  1  0
  6  7  1  0
  7  8  1  0
  8  9  2  0
  9 10  1  0
 10 11  2  0
 11 12  1  0
 12 13  2  0
 13 14  1  0
 14 15  2  0
 15 16  1  0
 16 17  1  0
 17 18  1  0
 18 19  2  0
 19 20  1  0
 20 21  2  0
 20 22  1  0
 22 23  1  0
 23 24  2  0
 23 25  1  0
 16  8  1  0
 25 18  1  0
 15 10  1  0
  1 26  1  0
  1 27  1  0
  1 28  1  0
  2 29  1  0
  3 30  1  0
  3 31  1  0
  3 32  1  0
  6 33  1  0
  6 34  1  0
  9 35  1  0
 11 36  1  0
 12 37  1  0
 13 38  1  0
 14 39  1  0
 17 40  1  0
 17 41  1  0
 19 42  1  0
M  CHG  3   9   1  22  -1  25  -1
M  END
>  <UniqueID>  (58) 
58

>  <SMILES>  (58) 
CC(C)C(=O)CSc1[nH+]c2ccccc2n1Cc1cc(=O)[n-]c(=O)[n-]1

>  <Energy>  (58) 
70.14427651839756

>  <Genealogy>  (58) 
CC(C)C(=O)CSc1[nH+]c2ccccc2n1Cc1cc(=O)[n-]c(=O)[n-]1 (protonated)
CC(C)C(=O)CSc1[nH+]c2ccccc2n1Cc1cc(=O)[n-]c(=O)[n-]1 (3D coordinates assigned)
CC(C)C(=O)CSc1[nH+]c2ccccc2n1Cc1cc(=O)[n-]c(=O)[n-]1 (optimized conformer: 70.14427651839756 kcal/mol)

>  <smiles>  (58) 
CC(C)C(=O)CSc1nc2ccccc2n1Cc1cc(=O)[nH]c(=O)[nH]1

>  <score_type>  (58) 
oracle

>  <origin>  (58) 
adg

>  <m_score__min__energy>  (58) 
-10.130000000000001

>  <m_primary>  (58) 
energy

$$$$
58:0
     RDKit          3D

 12 11  0  0  0  0  0  0  0  0999 V2000
   57.7580   31.9510   42.2330 C   0  0  0  0  0  0  0  0  0  0  0  0
   57.5240   31.6020   43.4980 C   0  0  0  0  0  0  0  0  0  0  0  0
   57.1480   30.2260   43.9080 C   0  0  0  0  0  0  0  0  0  0  0  0
   58.1100   29.3930   44.3140 C   0  0  0  0  0  0  0  0  0  0  0  0
   55.7560   29.7290   43.8370 C   0  0  0  0  0  0  0  0  0  0  0  0
   55.1460   29.3360   44.8650 O   0  0  0  0  0  0  0  0  0  0  0  0
   58.0334   32.9880   41.9905 H   0  0  0  0  0  0  0  0  0  0  0  0
   57.6757   31.2020   41.4316 H   0  0  0  0  0  0  0  0  0  0  0  0
   57.6141   32.3728   44.2775 H   0  0  0  0  0  0  0  0  0  0  0  0
   57.8560   28.3682   44.6228 H   0  0  0  0  0  0  0  0  0  0  0  0
   59.1562   29.7318   44.3396 H   0  0  0  0  0  0  0  0  0  0  0  0
   55.2432   29.7025   42.8642 H   0  0  0  0  0  0  0  0  0  0  0  0
  1  2  2  0
  2  3  1  0
  3  4  2  0
  3  5  1  0
  5  6  2  0
  1  7  1  0
  1  8  1  0
  2  9  1  0
  4 10  1  0
  4 11  1  0
  5 12  1  0
M  END
>  <UniqueID>  (59) 
59

>  <SMILES>  (59) 
C=CC(=C)C=O

>  <Energy>  (59) 
8.546488827286497

>  <Genealogy>  (59) 
C=CC(=C)C=O (3D coordinates assigned)
C=CC(=C)C=O (optimized conformer: 8.546488827286497 kcal/mol)

>  <smiles>  (59) 
C=CC(=C)C=O

>  <score_type>  (59) 
oracle

>  <origin>  (59) 
adg

>  <m_score__min__energy>  (59) 
-3.5800000000000001

>  <m_primary>  (59) 
energy

$$$$
59:0
     RDKit          3D

 33 35  0  0  0  0  0  0  0  0999 V2000
   54.7750   29.6610   43.4990 O   0  0  0  0  0  0  0  0  0  0  0  0
   55.9190   29.8480   43.9910 C   0  0  0  0  0  0  0  0  0  0  0  0
   56.9570   30.5930   43.2010 C   0  0  0  0  0  0  0  0  0  0  0  0
   58.1320   30.8700   44.0330 N   0  0  0  0  0  0  0  0  0  0  0  0
   58.0210   32.4450   44.7680 S   0  0  0  0  0  0  0  0  0  0  0  0
   58.2830   33.5080   43.7370 O   0  0  0  0  0  0  0  0  0  0  0  0
   56.6500   32.6600   45.3480 O   0  0  0  0  0  0  0  0  0  0  0  0
   59.2220   32.5600   46.0560 C   0  0  0  0  0  0  0  0  0  0  0  0
   59.9150   33.7630   46.2770 C   0  0  0  0  0  0  0  0  0  0  0  0
   60.8790   33.8630   47.2930 C   0  0  0  0  0  0  0  0  0  0  0  0
   61.1720   32.7630   48.1080 C   0  0  0  0  0  0  0  0  0  0  0  0
   60.4970   31.5610   47.8990 C   0  0  0  0  0  0  0  0  0  0  0  0
   60.7310   30.4500   48.6420 N   0  0  0  0  0  0  0  0  0  0  0  0
   59.6720   29.3970   47.9340 S   0  0  0  0  0  0  0  0  0  0  0  0
   58.9160   30.2430   46.7310 N   0  0  0  0  0  0  0  0  0  0  0  0
   59.5190   31.4540   46.8680 C   0  0  0  0  0  0  0  0  0  0  0  0
   56.2510   29.2460   45.2480 N   0  0  0  0  0  0  0  0  0  0  0  0
   56.7040   28.0370   45.4290 C   0  0  0  0  0  0  0  0  0  0  0  0
   58.0420   27.6810   45.1620 C   0  0  0  0  0  0  0  0  0  0  0  0
   58.4600   26.3670   45.3860 C   0  0  0  0  0  0  0  0  0  0  0  0
   57.5570   25.4230   45.8750 C   0  0  0  0  0  0  0  0  0  0  0  0
   56.2440   25.8100   46.1430 C   0  0  0  0  0  0  0  0  0  0  0  0
   55.8530   27.0940   45.9190 N   0  0  0  0  0  0  0  0  0  0  0  0
   57.2605   29.9841   42.3366 H   0  0  0  0  0  0  0  0  0  0  0  0
   56.5287   31.5471   42.8600 H   0  0  0  0  0  0  0  0  0  0  0  0
   58.1370   30.1760   44.8160 H   0  0  0  0  0  0  0  0  0  0  0  0
   59.6992   34.6375   45.6456 H   0  0  0  0  0  0  0  0  0  0  0  0
   61.4088   34.8142   47.4500 H   0  0  0  0  0  0  0  0  0  0  0  0
   61.9263   32.8461   48.9043 H   0  0  0  0  0  0  0  0  0  0  0  0
   58.7503   28.4313   44.7807 H   0  0  0  0  0  0  0  0  0  0  0  0
   59.5003   26.0770   45.1770 H   0  0  0  0  0  0  0  0  0  0  0  0
   57.8768   24.3847   46.0474 H   0  0  0  0  0  0  0  0  0  0  0  0
   55.5241   25.0768   46.5357 H   0  0  0  0  0  0  0  0  0  0  0  0
  1  2  2  0
  2  3  1  0
  3  4  1  0
  4  5  1  0
  5  6  2  0
  5  7  2  0
  5  8  1  0
  8  9  2  0
  9 10  1  0
 10 11  2  0
 11 12  1  0
 12 13  2  0
 13 14  1  0
 14 15  1  0
 15 16  2  0
  2 17  1  0
 17 18  2  3
 18 19  1  0
 19 20  2  0
 20 21  1  0
 21 22  2  0
 22 23  1  0
 16  8  1  0
 23 18  1  0
 16 12  1  0
  3 24  1  0
  3 25  1  0
  4 26  1  0
  9 27  1  0
 10 28  1  0
 11 29  1  0
 19 30  1  0
 20 31  1  0
 21 32  1  0
 22 33  1  0
M  CHG  1  23  -1
M  END
>  <UniqueID>  (60) 
60

>  <SMILES>  (60) 
O=C(CNS(=O)(=O)c1cccc2nsnc12)N=c1cccc[n-]1

>  <Energy>  (60) 
83.45380020755661

>  <Genealogy>  (60) 
O=C(CNS(=O)(=O)c1cccc2nsnc12)N=c1cccc[n-]1 (protonated)
O=C(CNS(=O)(=O)c1cccc2nsnc12)N=c1cccc[n-]1 (3D coordinates assigned)
O=C(CNS(=O)(=O)c1cccc2nsnc12)N=c1cccc[n-]1 (optimized conformer: 83.45380020755661 kcal/mol)

>  <smiles>  (60) 
O=C(CNS(=O)(=O)c1cccc2nsnc12)N=c1cccc[nH]1

>  <score_type>  (60) 
oracle

>  <origin>  (60) 
adg

>  <m_score__min__energy>  (60) 
-10.58

>  <m_primary>  (60) 
energy

$$$$
60:0
     RDKit          3D

 91 95  0  0  0  0  0  0  0  0999 V2000
   57.4040   23.2470   46.2330 H   0  0  0  0  0  0  0  0  0  0  0  0
   57.5060   23.6170   47.1500 O   0  0  0  0  0  0  0  0  0  0  0  0
   57.7310   24.9910   46.9990 C   0  0  0  0  0  0  0  0  0  0  0  0
   58.6056   25.2806   47.6000 H   0  0  0  0  0  0  0  0  0  0  0  0
   56.8351   25.5323   47.3371 H   0  0  0  0  0  0  0  0  0  0  0  0
   57.9870   25.3400   45.5570 C   0  0  0  0  0  0  0  0  0  0  0  0
   58.1580   24.4050   44.7260 O   0  0  0  0  0  0  0  0  0  0  0  0
   58.0900   26.7180   45.1260 N   0  0  0  0  0  0  0  0  0  0  0  0
   58.1650   27.0400   43.6920 C   0  0  0  0  0  0  0  0  0  0  0  0
   57.7276   26.2140   43.1121 H   0  0  0  0  0  0  0  0  0  0  0  0
   59.2198   27.1816   43.4137 H   0  0  0  0  0  0  0  0  0  0  0  0
   57.3950   28.3310   43.3910 C   0  0  0  0  0  0  0  0  0  0  0  0
   56.3165   28.1264   43.4608 H   0  0  0  0  0  0  0  0  0  0  0  0
   57.6704   28.6645   42.3796 H   0  0  0  0  0  0  0  0  0  0  0  0
   57.7370   29.4050   44.3340 N   0  0  0  0  0  0  0  0  0  0  0  0
   57.1530   30.7130   44.1460 C   0  0  0  0  0  0  0  0  0  0  0  0
   56.0960   30.8290   43.4700 O   0  0  0  0  0  0  0  0  0  0  0  0
   57.7500   31.9270   44.7420 C   0  0  0  0  0  0  0  0  0  0  0  0
   58.0800   33.0170   43.9210 C   0  0  0  0  0  0  0  0  0  0  0  0
   57.9185   32.9543   42.8347 H   0  0  0  0  0  0  0  0  0  0  0  0
   58.6120   34.1790   44.4790 C   0  0  0  0  0  0  0  0  0  0  0  0
   58.8700   35.0301   43.8316 H   0  0  0  0  0  0  0  0  0  0  0  0
   58.8180   34.2650   45.8570 C   0  0  0  0  0  0  0  0  0  0  0  0
   59.2264   35.1906   46.2889 H   0  0  0  0  0  0  0  0  0  0  0  0
   58.5100   33.1840   46.6980 C   0  0  0  0  0  0  0  0  0  0  0  0
   58.7710   33.3170   48.1110 N   0  0  0  0  0  0  0  0  0  0  0  0
   58.3380   32.5970   48.7270 H   0  0  0  0  0  0  0  0  0  0  0  0
   59.7250   34.2120   48.7130 C   0  0  0  0  0  0  0  0  0  0  0  0
   60.4900   34.9070   47.9990 O   0  0  0  0  0  0  0  0  0  0  0  0
   59.9190   34.2430   50.1320 N   0  0  0  0  0  0  0  0  0  0  0  0
   59.2110   33.4650   51.1070 C   0  0  0  0  0  0  0  0  0  0  0  0
   58.7910   34.0890   52.2840 C   0  0  0  0  0  0  0  0  0  0  0  0
   58.9697   35.1651   52.4257 H   0  0  0  0  0  0  0  0  0  0  0  0
   58.1470   33.3570   53.2800 C   0  0  0  0  0  0  0  0  0  0  0  0
   57.8234   33.8570   54.2048 H   0  0  0  0  0  0  0  0  0  0  0  0
   57.9100   31.9860   53.1080 C   0  0  0  0  0  0  0  0  0  0  0  0
   57.2170   31.2250   54.2020 C   0  0  0  0  0  0  0  0  0  0  0  0
   57.5564   31.5977   55.1797 H   0  0  0  0  0  0  0  0  0  0  0  0
   56.1295   31.3647   54.1137 H   0  0  0  0  0  0  0  0  0  0  0  0
   57.4576   30.1553   54.1137 H   0  0  0  0  0  0  0  0  0  0  0  0
   58.2590   31.3580   51.8930 C   0  0  0  0  0  0  0  0  0  0  0  0
   57.9710   29.9920   51.7320 O   0  0  0  0  0  0  0  0  0  0  0  0
   58.6360   28.9210   52.3950 C   0  0  0  0  0  0  0  0  0  0  0  0
   58.2900   28.8604   53.4374 H   0  0  0  0  0  0  0  0  0  0  0  0
   58.4128   27.9717   51.8860 H   0  0  0  0  0  0  0  0  0  0  0  0
   60.1180   29.1770   52.3690 C   0  0  0  0  0  0  0  0  0  0  0  0
   60.6440   30.0960   53.2970 C   0  0  0  0  0  0  0  0  0  0  0  0
   59.9806   30.5481   54.0490 H   0  0  0  0  0  0  0  0  0  0  0  0
   61.9970   30.4410   53.2750 C   0  0  0  0  0  0  0  0  0  0  0  0
   62.3950   31.1558   54.0103 H   0  0  0  0  0  0  0  0  0  0  0  0
   62.8420   29.8790   52.3210 C   0  0  0  0  0  0  0  0  0  0  0  0
   63.9046   30.1621   52.2933 H   0  0  0  0  0  0  0  0  0  0  0  0
   62.3420   28.9570   51.4000 C   0  0  0  0  0  0  0  0  0  0  0  0
   63.0111   28.5323   50.6372 H   0  0  0  0  0  0  0  0  0  0  0  0
   60.9940   28.5660   51.4370 C   0  0  0  0  0  0  0  0  0  0  0  0
   60.5510   27.6000   50.4710 N   0  0  0  0  0  0  0  0  0  0  0  0
   60.1040   27.8540   49.1340 C   0  0  0  0  0  0  0  0  0  0  0  0
   60.3340   26.9890   48.2540 O   0  0  0  0  0  0  0  0  0  0  0  0
   59.4050   29.0940   48.7390 C   0  0  0  0  0  0  0  0  0  0  0  0
   58.3306   29.0166   48.5161 H   0  0  0  0  0  0  0  0  0  0  0  0
   59.9680   30.3050   48.6290 C   0  0  0  0  0  0  0  0  0  0  0  0
   59.6547   31.0744   49.3501 H   0  0  0  0  0  0  0  0  0  0  0  0
   60.9920   30.6990   47.6020 C   0  0  0  0  0  0  0  0  0  0  0  0
   61.6818   29.8592   47.4319 H   0  0  0  0  0  0  0  0  0  0  0  0
   60.4848   30.9556   46.6602 H   0  0  0  0  0  0  0  0  0  0  0  0
   61.7520   31.8690   48.0840 N   0  0  0  0  0  0  0  0  0  0  0  0
   62.8170   32.2250   47.1220 C   0  0  0  0  0  0  0  0  0  0  0  0
   63.4019   31.3219   46.8932 H   0  0  0  0  0  0  0  0  0  0  0  0
   62.3322   32.6317   46.2223 H   0  0  0  0  0  0  0  0  0  0  0  0
   63.7730   33.3090   47.6710 C   0  0  0  0  0  0  0  0  0  0  0  0
   64.7417   32.8435   47.9054 H   0  0  0  0  0  0  0  0  0  0  0  0
   63.8836   34.0877   46.9020 H   0  0  0  0  0  0  0  0  0  0  0  0
   63.2200   33.9680   48.9390 C   0  0  0  0  0  0  0  0  0  0  0  0
   63.9661   34.6743   49.3321 H   0  0  0  0  0  0  0  0  0  0  0  0
   62.2887   34.4943   48.6829 H   0  0  0  0  0  0  0  0  0  0  0  0
   62.9080   32.9160   50.0150 C   0  0  0  0  0  0  0  0  0  0  0  0
   63.8376   32.6733   50.5507 H   0  0  0  0  0  0  0  0  0  0  0  0
   62.1513   33.3431   50.6895 H   0  0  0  0  0  0  0  0  0  0  0  0
   62.3250   31.6150   49.4210 C   0  0  0  0  0  0  0  0  0  0  0  0
   63.1255   30.8655   49.3354 H   0  0  0  0  0  0  0  0  0  0  0  0
   61.5295   31.2457   50.0850 H   0  0  0  0  0  0  0  0  0  0  0  0
   58.9050   32.1120   50.8900 C   0  0  0  0  0  0  0  0  0  0  0  0
   59.1700   31.6374   49.9337 H   0  0  0  0  0  0  0  0  0  0  0  0
   58.0020   32.0000   46.1220 C   0  0  0  0  0  0  0  0  0  0  0  0
   57.8015   31.1263   46.7595 H   0  0  0  0  0  0  0  0  0  0  0  0
   58.6190   29.1240   45.4770 C   0  0  0  0  0  0  0  0  0  0  0  0
   58.5188   29.9293   46.2196 H   0  0  0  0  0  0  0  0  0  0  0  0
   59.6586   29.0669   45.1220 H   0  0  0  0  0  0  0  0  0  0  0  0
   58.2390   27.7900   46.1240 C   0  0  0  0  0  0  0  0  0  0  0  0
   57.2856   27.9130   46.6587 H   0  0  0  0  0  0  0  0  0  0  0  0
   59.0466   27.5036   46.8137 H   0  0  0  0  0  0  0  0  0  0  0  0
  1  2  1  0
  2  3  1  0
  3  4  1  0
  3  5  1  0
  3  6  1  0
  6  7  2  0
  6  8  1  0
  8  9  1  0
  9 10  1  0
  9 11  1  0
  9 12  1  0
 12 13  1  0
 12 14  1  0
 12 15  1  0
 15 16  1  0
 16 17  2  0
 16 18  1  0
 18 19  2  0
 19 20  1  0
 19 21  1  0
 21 22  1  0
 21 23  2  0
 23 24  1  0
 23 25  1  0
 25 26  1  0
 26 27  1  0
 26 28  1  0
 28 29  2  0
 28 30  1  0
 30 31  1  0
 31 32  2  0
 32 33  1  0
 32 34  1  0
 34 35  1  0
 34 36  2  0
 36 37  1  0
 37 38  1  0
 37 39  1  0
 37 40  1  0
 36 41  1  0
 41 42  1  0
 42 43  1  0
 43 44  1  0
 43 45  1  0
 43 46  1  0
 46 47  2  0
 47 48  1  0
 47 49  1  0
 49 50  1  0
 49 51  2  0
 51 52  1  0
 51 53  1  0
 53 54  1  0
 53 55  2  0
 55 56  1  0
 56 57  1  0
 57 58  2  0
 57 59  1  0
 59 60  1  0
 59 61  2  0
 61 62  1  0
 61 63  1  0
 63 64  1  0
 63 65  1  0
 63 66  1  0
 66 67  1  0
 67 68  1  0
 67 69  1  0
 67 70  1  0
 70 71  1  0
 70 72  1  0
 70 73  1  0
 73 74  1  0
 73 75  1  0
 73 76  1  0
 76 77  1  0
 76 78  1  0
 76 79  1  0
 79 80  1  0
 79 81  1  0
 41 82  2  0
 82 83  1  0
 25 84  2  0
 84 85  1  0
 15 86  1  0
 86 87  1  0
 86 88  1  0
 86 89  1  0
 89 90  1  0
 89 91  1  0
 89  8  1  0
 84 18  1  0
 82 31  1  0
 55 46  1  0
 79 66  1  0
M  CHG  2  30  -1  56  -1
M  END
>  <UniqueID>  (61) 
61

>  <SMILES>  (61) 
Cc1ccc([N-]C(=O)Nc2cccc(C(=O)N3CCN(C(=O)CO)CC3)c2)cc1OCc1ccccc1[N-]C(=O)/C=C\CN1CCCCC1

>  <Energy>  (61) 
124.34940057478792

>  <Genealogy>  (61) 
Cc1ccc([N-]C(=O)Nc2cccc(C(=O)N3CCN(C(=O)CO)CC3)c2)cc1OCc1ccccc1[N-]C(=O)C=CCN1CCCCC1 (protonated)
Cc1ccc([N-]C(=O)Nc2cccc(C(=O)N3CCN(C(=O)CO)CC3)c2)cc1OCc1ccccc1[N-]C(=O)/C=C\CN1CCCCC1 (cis-trans isomerization)
Cc1ccc([N-]C(=O)Nc2cccc(C(=O)N3CCN(C(=O)CO)CC3)c2)cc1OCc1ccccc1[N-]C(=O)/C=C\CN1CCCCC1 (3D coordinates assigned)
Cc1ccc([N-]C(=O)Nc2cccc(C(=O)N3CCN(C(=O)CO)CC3)c2)cc1OCc1ccccc1[N-]C(=O)/C=C\CN1CCCCC1 (nonaromatic ring conformer: 124.34940057478792 kcal/mol)

>  <smiles>  (61) 
Cc1ccc(NC(=O)Nc2cccc(C(=O)N3CCN(C(=O)CO)CC3)c2)cc1OCc1ccccc1NC(=O)C=CCN1CCCCC1

>  <score_type>  (61) 
oracle

>  <origin>  (61) 
adg

>  <m_score__min__energy>  (61) 
-13.75

>  <m_primary>  (61) 
energy

$$$$
61:0
     RDKit          3D

 49 51  0  0  0  0  0  0  0  0999 V2000
   56.9370   20.2360   45.3520 C   0  0  0  0  0  0  0  0  0  0  0  0
   57.1170   21.5430   44.1490 S   0  0  0  0  0  0  0  0  0  0  0  0
   56.2730   21.2190   42.9460 O   0  0  0  0  0  0  0  0  0  0  0  0
   58.5580   21.6140   43.7210 O   0  0  0  0  0  0  0  0  0  0  0  0
   56.6360   23.0920   44.7990 N   0  0  0  0  0  0  0  0  0  0  0  0
   57.5920   23.5310   45.8340 C   0  0  0  0  0  0  0  0  0  0  0  0
   57.3830   25.0020   46.2020 C   0  0  0  0  0  0  0  0  0  0  0  0
   57.5030   25.8510   45.0090 N   0  0  0  0  0  0  0  0  0  0  0  0
   57.8170   27.2560   45.1440 C   0  0  0  0  0  0  0  0  0  0  0  0
   58.0320   27.8250   46.4120 C   0  0  0  0  0  0  0  0  0  0  0  0
   58.3370   29.1830   46.5400 C   0  0  0  0  0  0  0  0  0  0  0  0
   58.4180   30.0050   45.4030 C   0  0  0  0  0  0  0  0  0  0  0  0
   58.7590   31.3980   45.5060 N   0  0  0  0  0  0  0  0  0  0  0  0
   57.8000   32.4680   45.4780 C   0  0  0  0  0  0  0  0  0  0  0  0
   56.6100   32.2550   45.1160 O   0  0  0  0  0  0  0  0  0  0  0  0
   58.2320   33.8690   45.7880 C   0  0  0  0  0  0  0  0  0  0  0  0
   59.4350   33.8530   46.6900 C   0  0  0  0  0  0  0  0  0  0  0  0
   59.2760   33.8260   48.0870 C   0  0  0  0  0  0  0  0  0  0  0  0
   60.3960   33.7810   48.9220 C   0  0  0  0  0  0  0  0  0  0  0  0
   61.6800   33.7520   48.3720 C   0  0  0  0  0  0  0  0  0  0  0  0
   61.8470   33.7640   46.9820 C   0  0  0  0  0  0  0  0  0  0  0  0
   63.0940   33.7240   46.4490 F   0  0  0  0  0  0  0  0  0  0  0  0
   60.7280   33.8100   46.1430 C   0  0  0  0  0  0  0  0  0  0  0  0
   58.2210   29.4370   44.1380 C   0  0  0  0  0  0  0  0  0  0  0  0
   57.9160   28.0800   44.0090 C   0  0  0  0  0  0  0  0  0  0  0  0
   57.3920   25.2310   43.6810 C   0  0  0  0  0  0  0  0  0  0  0  0
   56.3770   24.0790   43.7200 C   0  0  0  0  0  0  0  0  0  0  0  0
   56.9954   20.6598   46.3654 H   0  0  0  0  0  0  0  0  0  0  0  0
   55.9626   19.7440   45.2159 H   0  0  0  0  0  0  0  0  0  0  0  0
   57.7421   19.4989   45.2159 H   0  0  0  0  0  0  0  0  0  0  0  0
   57.4529   22.9140   46.7340 H   0  0  0  0  0  0  0  0  0  0  0  0
   58.6104   23.4162   45.4345 H   0  0  0  0  0  0  0  0  0  0  0  0
   56.3805   25.1278   46.6369 H   0  0  0  0  0  0  0  0  0  0  0  0
   58.1515   25.3000   46.9305 H   0  0  0  0  0  0  0  0  0  0  0  0
   57.9595   27.1956   47.3112 H   0  0  0  0  0  0  0  0  0  0  0  0
   58.5148   29.6113   47.5375 H   0  0  0  0  0  0  0  0  0  0  0  0
   59.7710   31.6550   45.5250 H   0  0  0  0  0  0  0  0  0  0  0  0
   58.4868   34.3865   44.8514 H   0  0  0  0  0  0  0  0  0  0  0  0
   57.4096   34.3946   46.2952 H   0  0  0  0  0  0  0  0  0  0  0  0
   58.2667   33.8403   48.5241 H   0  0  0  0  0  0  0  0  0  0  0  0
   60.2663   33.7684   50.0142 H   0  0  0  0  0  0  0  0  0  0  0  0
   62.5600   33.7197   49.0313 H   0  0  0  0  0  0  0  0  0  0  0  0
   60.8615   33.8125   45.0511 H   0  0  0  0  0  0  0  0  0  0  0  0
   58.3072   30.0647   43.2388 H   0  0  0  0  0  0  0  0  0  0  0  0
   57.7516   27.6516   43.0093 H   0  0  0  0  0  0  0  0  0  0  0  0
   57.0581   25.9858   42.9538 H   0  0  0  0  0  0  0  0  0  0  0  0
   58.3747   24.8353   43.3849 H   0  0  0  0  0  0  0  0  0  0  0  0
   55.3741   24.5046   43.8720 H   0  0  0  0  0  0  0  0  0  0  0  0
   56.4640   23.5412   42.7644 H   0  0  0  0  0  0  0  0  0  0  0  0
  1  2  1  0
  2  3  2  0
  2  4  2  0
  2  5  1  0
  5  6  1  0
  6  7  1  0
  7  8  1  0
  8  9  1  0
  9 10  2  0
 10 11  1  0
 11 12  2  0
 12 13  1  0
 13 14  1  0
 14 15  2  0
 14 16  1  0
 16 17  1  0
 17 18  2  0
 18 19  1  0
 19 20  2  0
 20 21  1  0
 21 22  1  0
 21 23  2  0
 12 24  1  0
 24 25  2  0
  8 26  1  0
 26 27  1  0
 27  5  1  0
 25  9  1  0
 23 17  1  0
  1 28  1  0
  1 29  1  0
  1 30  1  0
  6 31  1  0
  6 32  1  0
  7 33  1  0
  7 34  1  0
 10 35  1  0
 11 36  1  0
 13 37  1  0
 16 38  1  0
 16 39  1  0
 18 40  1  0
 19 41  1  0
 20 42  1  0
 23 43  1  0
 24 44  1  0
 25 45  1  0
 26 46  1  0
 26 47  1  0
 27 48  1  0
 27 49  1  0
M  END
>  <UniqueID>  (62) 
62

>  <SMILES>  (62) 
CS(=O)(=O)N1CCN(c2ccc(NC(=O)Cc3cccc(F)c3)cc2)CC1

>  <Energy>  (62) 
55.330777816694905

>  <Genealogy>  (62) 
CS(=O)(=O)N1CCN(c2ccc(NC(=O)Cc3cccc(F)c3)cc2)CC1 (3D coordinates assigned)
CS(=O)(=O)N1CCN(c2ccc(NC(=O)Cc3cccc(F)c3)cc2)CC1 (nonaromatic ring conformer: 55.330777816694905 kcal/mol)

>  <smiles>  (62) 
CS(=O)(=O)N1CCN(c2ccc(NC(=O)Cc3cccc(F)c3)cc2)CC1

>  <score_type>  (62) 
oracle

>  <origin>  (62) 
adg

>  <m_score__min__energy>  (62) 
-8.3399999999999999

>  <m_primary>  (62) 
energy

$$$$
62:0
     RDKit          3D

 48 50  0  0  0  0  0  0  0  0999 V2000
   59.5980   28.3280   46.7130 C   0  0  0  0  0  0  0  0  0  0  0  0
   58.0790   28.2250   46.8230 C   0  0  0  0  0  0  0  0  0  0  0  0
   57.4080   29.1300   45.8210 C   0  0  0  0  0  0  0  0  0  0  0  0
   58.0480   30.3120   45.4140 C   0  0  0  0  0  0  0  0  0  0  0  0
   57.4610   31.1530   44.4520 C   0  0  0  0  0  0  0  0  0  0  0  0
   58.1500   32.4270   44.0300 C   0  0  0  0  0  0  0  0  0  0  0  0
   58.1420   33.4650   45.1220 C   0  0  0  0  0  0  0  0  0  0  0  0
   57.0400   33.8790   45.5690 O   0  0  0  0  0  0  0  0  0  0  0  0
   59.3490   34.0800   45.5900 N   0  0  0  0  0  0  0  0  0  0  0  0
   60.3080   33.4670   46.4570 C   0  0  0  0  0  0  0  0  0  0  0  0
   61.6680   33.8020   46.3800 C   0  0  0  0  0  0  0  0  0  0  0  0
   62.5940   33.1750   47.2150 C   0  0  0  0  0  0  0  0  0  0  0  0
   62.1730   32.2020   48.1250 C   0  0  0  0  0  0  0  0  0  0  0  0
   60.8160   31.8470   48.2040 C   0  0  0  0  0  0  0  0  0  0  0  0
   60.3790   30.7970   49.1460 C   0  0  0  0  0  0  0  0  0  0  0  0
   61.0470   29.7300   49.2230 O   0  0  0  0  0  0  0  0  0  0  0  0
   59.2160   30.9650   49.9770 N   0  0  0  0  0  0  0  0  0  0  0  0
   58.7790   32.2490   50.5050 C   0  0  0  0  0  0  0  0  0  0  0  0
   57.5700   31.9450   51.3790 C   0  0  0  0  0  0  0  0  0  0  0  0
   57.6200   30.4450   51.6590 C   0  0  0  0  0  0  0  0  0  0  0  0
   58.5200   29.8450   50.5870 C   0  0  0  0  0  0  0  0  0  0  0  0
   59.8940   32.4640   47.3420 C   0  0  0  0  0  0  0  0  0  0  0  0
   56.2080   30.8120   43.9200 C   0  0  0  0  0  0  0  0  0  0  0  0
   55.5730   29.6300   44.3090 C   0  0  0  0  0  0  0  0  0  0  0  0
   56.1700   28.7840   45.2480 C   0  0  0  0  0  0  0  0  0  0  0  0
   55.5260   27.6050   45.6060 O   0  0  0  0  0  0  0  0  0  0  0  0
   60.0374   28.3578   47.7210 H   0  0  0  0  0  0  0  0  0  0  0  0
   59.9864   27.4541   46.1694 H   0  0  0  0  0  0  0  0  0  0  0  0
   59.8648   29.2463   46.1694 H   0  0  0  0  0  0  0  0  0  0  0  0
   57.7731   27.1858   46.6322 H   0  0  0  0  0  0  0  0  0  0  0  0
   57.7767   28.5330   47.8348 H   0  0  0  0  0  0  0  0  0  0  0  0
   59.0196   30.5830   45.8528 H   0  0  0  0  0  0  0  0  0  0  0  0
   59.1931   32.1960   43.7681 H   0  0  0  0  0  0  0  0  0  0  0  0
   57.6034   32.8380   43.1684 H   0  0  0  0  0  0  0  0  0  0  0  0
   62.0057   34.5613   45.6592 H   0  0  0  0  0  0  0  0  0  0  0  0
   63.6581   33.4476   47.1565 H   0  0  0  0  0  0  0  0  0  0  0  0
   62.9067   31.7121   48.7820 H   0  0  0  0  0  0  0  0  0  0  0  0
   59.5787   32.7099   51.1034 H   0  0  0  0  0  0  0  0  0  0  0  0
   58.5304   32.9558   49.6996 H   0  0  0  0  0  0  0  0  0  0  0  0
   57.6265   32.5116   52.3201 H   0  0  0  0  0  0  0  0  0  0  0  0
   56.6313   32.2311   50.8821 H   0  0  0  0  0  0  0  0  0  0  0  0
   58.0392   30.2570   52.6585 H   0  0  0  0  0  0  0  0  0  0  0  0
   56.6151   29.9982   51.6362 H   0  0  0  0  0  0  0  0  0  0  0  0
   59.2405   29.1474   51.0391 H   0  0  0  0  0  0  0  0  0  0  0  0
   57.9397   29.2779   49.8443 H   0  0  0  0  0  0  0  0  0  0  0  0
   58.8380   32.1566   47.3625 H   0  0  0  0  0  0  0  0  0  0  0  0
   55.7230   31.4793   43.1924 H   0  0  0  0  0  0  0  0  0  0  0  0
   54.5983   29.3637   43.8742 H   0  0  0  0  0  0  0  0  0  0  0  0
  1  2  1  0
  2  3  1  0
  3  4  2  0
  4  5  1  0
  5  6  1  0
  6  7  1  0
  7  8  2  0
  7  9  1  0
  9 10  1  0
 10 11  2  0
 11 12  1  0
 12 13  2  0
 13 14  1  0
 14 15  1  0
 15 16  2  0
 15 17  1  0
 17 18  1  0
 18 19  1  0
 19 20  1  0
 20 21  1  0
 14 22  2  0
  5 23  2  0
 23 24  1  0
 24 25  2  0
 25 26  1  0
 25  3  1  0
 22 10  1  0
 21 17  1  0
  1 27  1  0
  1 28  1  0
  1 29  1  0
  2 30  1  0
  2 31  1  0
  4 32  1  0
  6 33  1  0
  6 34  1  0
 11 35  1  0
 12 36  1  0
 13 37  1  0
 18 38  1  0
 18 39  1  0
 19 40  1  0
 19 41  1  0
 20 42  1  0
 20 43  1  0
 21 44  1  0
 21 45  1  0
 22 46  1  0
 23 47  1  0
 24 48  1  0
M  CHG  2   9  -1  26  -1
M  END
>  <UniqueID>  (63) 
63

>  <SMILES>  (63) 
CCc1cc(CC(=O)[N-]c2cccc(C(=O)N3CCCC3)c2)ccc1[O-]

>  <Energy>  (63) 
55.23409199574613

>  <Genealogy>  (63) 
CCc1cc(CC(=O)[N-]c2cccc(C(=O)N3CCCC3)c2)ccc1[O-] (protonated)
CCc1cc(CC(=O)[N-]c2cccc(C(=O)N3CCCC3)c2)ccc1[O-] (3D coordinates assigned)
CCc1cc(CC(=O)[N-]c2cccc(C(=O)N3CCCC3)c2)ccc1[O-] (nonaromatic ring conformer: 55.23409199574613 kcal/mol)

>  <smiles>  (63) 
CCc1cc(CC(=O)Nc2cccc(C(=O)N3CCCC3)c2)ccc1O

>  <score_type>  (63) 
oracle

>  <origin>  (63) 
adg

>  <m_score__min__energy>  (63) 
-12.529999999999999

>  <m_primary>  (63) 
energy

$$$$
64:0
     RDKit          3D

 39 40  0  0  0  0  0  0  0  0999 V2000
   59.6630   34.5730   48.4970 C   0  0  0  0  0  0  0  0  0  0  0  0
   59.3950   34.6480   47.0260 C   0  0  0  0  0  0  0  0  0  0  0  0
   59.6370   35.7220   46.4150 O   0  0  0  0  0  0  0  0  0  0  0  0
   58.8560   33.4760   46.2990 C   0  0  0  0  0  0  0  0  0  0  0  0
   57.4160   33.4780   45.4180 S   0  0  0  0  0  0  0  0  0  0  0  0
   57.5420   31.8630   44.9930 C   0  0  0  0  0  0  0  0  0  0  0  0
   56.6280   31.2320   44.3160 N   0  0  0  0  0  0  0  0  0  0  0  0
   56.3040   29.8410   44.4300 C   0  0  0  0  0  0  0  0  0  0  0  0
   55.3650   29.4530   45.1760 O   0  0  0  0  0  0  0  0  0  0  0  0
   57.1160   28.8400   43.6720 C   0  0  0  0  0  0  0  0  0  0  0  0
   58.4110   28.7360   44.2590 O   0  0  0  0  0  0  0  0  0  0  0  0
   58.6190   28.2660   45.5610 C   0  0  0  0  0  0  0  0  0  0  0  0
   59.7500   28.3700   46.1100 O   0  0  0  0  0  0  0  0  0  0  0  0
   57.4680   27.7110   46.3330 C   0  0  0  0  0  0  0  0  0  0  0  0
   57.1690   26.3110   45.8630 C   0  0  0  0  0  0  0  0  0  0  0  0
   58.2250   25.4480   45.5190 C   0  0  0  0  0  0  0  0  0  0  0  0
   57.9600   24.1560   45.0570 C   0  0  0  0  0  0  0  0  0  0  0  0
   56.6410   23.7180   44.9190 C   0  0  0  0  0  0  0  0  0  0  0  0
   55.5840   24.5730   45.2380 C   0  0  0  0  0  0  0  0  0  0  0  0
   55.8410   25.8680   45.7020 C   0  0  0  0  0  0  0  0  0  0  0  0
   54.7730   26.7080   45.9990 O   0  0  0  0  0  0  0  0  0  0  0  0
   58.6550   31.2950   45.5170 N   0  0  0  0  0  0  0  0  0  0  0  0
   59.3950   32.1800   46.2420 C   0  0  0  0  0  0  0  0  0  0  0  0
   60.6500   31.7580   46.9450 C   0  0  0  0  0  0  0  0  0  0  0  0
   58.7473   34.8292   49.0501 H   0  0  0  0  0  0  0  0  0  0  0  0
   59.9773   33.5524   48.7609 H   0  0  0  0  0  0  0  0  0  0  0  0
   60.4613   35.2822   48.7609 H   0  0  0  0  0  0  0  0  0  0  0  0
   56.6172   27.8602   43.7083 H   0  0  0  0  0  0  0  0  0  0  0  0
   57.2129   29.1636   42.6252 H   0  0  0  0  0  0  0  0  0  0  0  0
   57.7212   27.6911   47.4033 H   0  0  0  0  0  0  0  0  0  0  0  0
   56.5833   28.3452   46.1744 H   0  0  0  0  0  0  0  0  0  0  0  0
   59.2655   25.7920   45.6142 H   0  0  0  0  0  0  0  0  0  0  0  0
   58.7917   23.4829   44.8016 H   0  0  0  0  0  0  0  0  0  0  0  0
   56.4347   22.6993   44.5589 H   0  0  0  0  0  0  0  0  0  0  0  0
   54.5459   24.2274   45.1242 H   0  0  0  0  0  0  0  0  0  0  0  0
   58.9070   30.2860   45.4310 H   0  0  0  0  0  0  0  0  0  0  0  0
   60.4960   31.8098   48.0329 H   0  0  0  0  0  0  0  0  0  0  0  0
   60.9012   30.7260   46.6590 H   0  0  0  0  0  0  0  0  0  0  0  0
   61.4737   32.4286   46.6590 H   0  0  0  0  0  0  0  0  0  0  0  0
  1  2  1  0
  2  3  2  0
  2  4  1  0
  4  5  1  0
  5  6  1  0
  6  7  2  3
  7  8  1  0
  8  9  2  0
  8 10  1  0
 10 11  1  0
 11 12  1  0
 12 13  2  0
 12 14  1  0
 14 15  1  0
 15 16  2  0
 16 17  1  0
 17 18  2  0
 18 19  1  0
 19 20  2  0
 20 21  1  0
  6 22  1  0
 22 23  1  0
 23 24  1  0
 23  4  2  0
 20 15  1  0
  1 25  1  0
  1 26  1  0
  1 27  1  0
 10 28  1  0
 10 29  1  0
 14 30  1  0
 14 31  1  0
 16 32  1  0
 17 33  1  0
 18 34  1  0
 19 35  1  0
 22 36  1  0
 24 37  1  0
 24 38  1  0
 24 39  1  0
M  CHG  1  21  -1
M  END
>  <UniqueID>  (64) 
64

>  <SMILES>  (64) 
CC(=O)c1sc(=NC(=O)COC(=O)Cc2ccccc2[O-])[nH]c1C

>  <Energy>  (64) 
63.5979560243446

>  <Genealogy>  (64) 
CC(=O)c1sc(=NC(=O)COC(=O)Cc2ccccc2[O-])[nH]c1C (protonated)
CC(=O)c1sc(=NC(=O)COC(=O)Cc2ccccc2[O-])[nH]c1C (3D coordinates assigned)
CC(=O)c1sc(=NC(=O)COC(=O)Cc2ccccc2[O-])[nH]c1C (optimized conformer: 63.5979560243446 kcal/mol)

>  <smiles>  (64) 
CC(=O)c1sc(=NC(=O)COC(=O)Cc2ccccc2O)[nH]c1C

>  <score_type>  (64) 
oracle

>  <origin>  (64) 
adg

>  <m_score__min__energy>  (64) 
-11.51

>  <m_primary>  (64) 
energy

$$$$
65:0
     RDKit          3D

 40 42  0  0  0  0  0  0  0  0999 V2000
   54.6880   28.9700   45.3030 H   0  0  0  0  0  0  0  0  0  0  0  0
   55.5990   28.6380   45.0100 O   0  0  0  0  0  0  0  0  0  0  0  0
   56.1950   27.5340   45.6120 C   0  0  0  0  0  0  0  0  0  0  0  0
   55.5020   26.4820   46.0790 N   0  0  0  0  0  0  0  0  0  0  0  0
   56.4700   25.6870   46.5830 C   0  0  0  0  0  0  0  0  0  0  0  0
   56.2220   24.5810   47.1290 O   0  0  0  0  0  0  0  0  0  0  0  0
   57.7230   26.1750   46.4650 N   0  0  0  0  0  0  0  0  0  0  0  0
   57.5430   27.3430   45.8190 C   0  0  0  0  0  0  0  0  0  0  0  0
   58.6090   28.3260   45.5680 C   0  0  0  0  0  0  0  0  0  0  0  0
   59.4708   27.9919   44.9716 H   0  0  0  0  0  0  0  0  0  0  0  0
   58.6200   29.6000   46.0060 C   0  0  0  0  0  0  0  0  0  0  0  0
   58.0460   30.6410   45.2950 C   0  0  0  0  0  0  0  0  0  0  0  0
   57.5770   30.5750   44.3022 H   0  0  0  0  0  0  0  0  0  0  0  0
   58.1740   31.7760   46.0680 C   0  0  0  0  0  0  0  0  0  0  0  0
   57.6550   33.1270   45.6800 C   0  0  0  0  0  0  0  0  0  0  0  0
   57.4317   33.7083   46.5868 H   0  0  0  0  0  0  0  0  0  0  0  0
   58.4146   33.6543   45.0842 H   0  0  0  0  0  0  0  0  0  0  0  0
   56.7377   33.0102   45.0842 H   0  0  0  0  0  0  0  0  0  0  0  0
   58.8130   31.4860   47.2230 N   0  0  0  0  0  0  0  0  0  0  0  0
   59.1750   32.4360   48.2400 C   0  0  0  0  0  0  0  0  0  0  0  0
   60.0380   33.5080   48.1200 C   0  0  0  0  0  0  0  0  0  0  0  0
   60.7760   33.9400   46.8970 C   0  0  0  0  0  0  0  0  0  0  0  0
   61.6908   34.4755   47.1908 H   0  0  0  0  0  0  0  0  0  0  0  0
   61.0443   33.0563   46.2994 H   0  0  0  0  0  0  0  0  0  0  0  0
   60.1369   34.6066   46.2994 H   0  0  0  0  0  0  0  0  0  0  0  0
   60.1650   34.1040   49.3230 N   0  0  0  0  0  0  0  0  0  0  0  0
   59.3900   33.4470   50.1760 N   0  0  0  0  0  0  0  0  0  0  0  0
   59.3070   33.7570   51.5990 C   0  0  0  0  0  0  0  0  0  0  0  0
   60.2094   33.3841   52.1055 H   0  0  0  0  0  0  0  0  0  0  0  0
   59.2292   34.8470   51.7253 H   0  0  0  0  0  0  0  0  0  0  0  0
   58.0770   33.0960   52.2100 C   0  0  0  0  0  0  0  0  0  0  0  0
   58.1473   33.1338   53.3071 H   0  0  0  0  0  0  0  0  0  0  0  0
   57.1728   33.6297   51.8819 H   0  0  0  0  0  0  0  0  0  0  0  0
   58.0232   32.0474   51.8819 H   0  0  0  0  0  0  0  0  0  0  0  0
   58.7790   32.4170   49.5570 C   0  0  0  0  0  0  0  0  0  0  0  0
   58.0906   31.6946   50.0199 H   0  0  0  0  0  0  0  0  0  0  0  0
   59.1330   30.1670   47.1850 C   0  0  0  0  0  0  0  0  0  0  0  0
   59.9170   29.5720   48.0980 C   0  0  0  0  0  0  0  0  0  0  0  0
   60.2523   30.1317   48.9836 H   0  0  0  0  0  0  0  0  0  0  0  0
   60.2241   28.5247   47.9605 H   0  0  0  0  0  0  0  0  0  0  0  0
  1  2  1  0
  2  3  1  0
  3  4  1  0
  4  5  1  0
  5  6  2  0
  5  7  1  0
  7  8  1  0
  8  9  1  0
  9 10  1  0
  9 11  2  0
 11 12  1  0
 12 13  1  0
 12 14  2  0
 14 15  1  0
 15 16  1  0
 15 17  1  0
 15 18  1  0
 14 19  1  0
 19 20  1  0
 20 21  1  0
 21 22  1  0
 22 23  1  0
 22 24  1  0
 22 25  1  0
 21 26  2  0
 26 27  1  0
 27 28  1  0
 28 29  1  0
 28 30  1  0
 28 31  1  0
 31 32  1  0
 31 33  1  0
 31 34  1  0
 27 35  1  0
 35 36  1  0
 19 37  1  0
 37 38  2  0
 38 39  1  0
 38 40  1  0
  8  3  2  0
 37 11  1  0
 35 20  2  0
M  CHG  2   4  -1   7  -1
M  END
>  <UniqueID>  (65) 
65

>  <SMILES>  (65) 
C=c1/c(=C\c2[n-]c(=O)[n-]c2O)cc(C)n1-c1cn(CC)nc1C

>  <Energy>  (65) 
141.9002780917514

>  <Genealogy>  (65) 
C=c1c(=Cc2[n-]c(=O)[n-]c2O)cc(C)n1-c1cn(CC)nc1C (protonated)
C=c1/c(=C\c2[n-]c(=O)[n-]c2O)cc(C)n1-c1cn(CC)nc1C (cis-trans isomerization)
C=c1/c(=C\c2[n-]c(=O)[n-]c2O)cc(C)n1-c1cn(CC)nc1C (3D coordinates assigned)
C=c1/c(=C\c2[n-]c(=O)[n-]c2O)cc(C)n1-c1cn(CC)nc1C (optimized conformer: 141.9002780917514 kcal/mol)

>  <smiles>  (65) 
C=c1c(=Cc2[nH]c(=O)[nH]c2O)cc(C)n1-c1cn(CC)nc1C

>  <score_type>  (65) 
oracle

>  <origin>  (65) 
adg

>  <m_score__min__energy>  (65) 
-12.48

>  <m_primary>  (65) 
energy

$$$$
66:0
     RDKit          3D

 46 49  0  0  0  0  0  0  0  0999 V2000
   60.3927   30.8081   44.7245 H   0  0  0  0  0  0  0  0  0  0  0  0
   59.6380   30.0640   45.0190 C   0  0  0  0  0  0  0  0  0  0  0  0
   59.0883   29.5035   44.2485 H   0  0  0  0  0  0  0  0  0  0  0  0
   59.3880   29.8400   46.3180 C   0  0  0  0  0  0  0  0  0  0  0  0
   58.4630   28.9310   46.8420 C   0  0  0  0  0  0  0  0  0  0  0  0
   57.6450   28.1090   46.1580 C   0  0  0  0  0  0  0  0  0  0  0  0
   57.0311   28.5375   45.3521 H   0  0  0  0  0  0  0  0  0  0  0  0
   57.5280   26.6590   46.4330 C   0  0  0  0  0  0  0  0  0  0  0  0
   56.2770   26.0300   46.3670 C   0  0  0  0  0  0  0  0  0  0  0  0
   55.1440   26.7530   46.0070 O   0  0  0  0  0  0  0  0  0  0  0  0
   56.1660   24.7040   46.6450 N   0  0  0  0  0  0  0  0  0  0  0  0
   55.2300   24.2420   46.5810 H   0  0  0  0  0  0  0  0  0  0  0  0
   57.2550   23.9720   47.0030 C   0  0  0  0  0  0  0  0  0  0  0  0
   57.1380   22.7430   47.2510 O   0  0  0  0  0  0  0  0  0  0  0  0
   58.4720   24.5650   47.1000 N   0  0  0  0  0  0  0  0  0  0  0  0
   58.6330   25.8870   46.8350 C   0  0  0  0  0  0  0  0  0  0  0  0
   59.7720   26.4080   46.9720 O   0  0  0  0  0  0  0  0  0  0  0  0
   58.5800   29.0070   48.2240 C   0  0  0  0  0  0  0  0  0  0  0  0
   58.0149   28.4220   48.9646 H   0  0  0  0  0  0  0  0  0  0  0  0
   59.5440   29.9600   48.4870 C   0  0  0  0  0  0  0  0  0  0  0  0
   60.0110   30.3460   49.8570 C   0  0  0  0  0  0  0  0  0  0  0  0
   59.3942   29.8362   50.6118 H   0  0  0  0  0  0  0  0  0  0  0  0
   61.0631   30.0503   49.9826 H   0  0  0  0  0  0  0  0  0  0  0  0
   59.9186   31.4349   49.9826 H   0  0  0  0  0  0  0  0  0  0  0  0
   60.0320   30.4680   47.3340 N   0  0  0  0  0  0  0  0  0  0  0  0
   61.0420   31.4890   47.2280 C   0  0  0  0  0  0  0  0  0  0  0  0
   62.3590   31.1900   47.6060 C   0  0  0  0  0  0  0  0  0  0  0  0
   62.5985   30.1949   48.0089 H   0  0  0  0  0  0  0  0  0  0  0  0
   63.3680   32.1450   47.4750 C   0  0  0  0  0  0  0  0  0  0  0  0
   64.3974   31.9020   47.7771 H   0  0  0  0  0  0  0  0  0  0  0  0
   63.0720   33.4080   46.9610 C   0  0  0  0  0  0  0  0  0  0  0  0
   63.8702   34.1569   46.8509 H   0  0  0  0  0  0  0  0  0  0  0  0
   61.7640   33.7230   46.5860 C   0  0  0  0  0  0  0  0  0  0  0  0
   61.5379   34.7201   46.1802 H   0  0  0  0  0  0  0  0  0  0  0  0
   60.7340   32.7760   46.7230 C   0  0  0  0  0  0  0  0  0  0  0  0
   59.3520   33.1480   46.3390 C   0  0  0  0  0  0  0  0  0  0  0  0
   58.3110   33.1130   47.2840 C   0  0  0  0  0  0  0  0  0  0  0  0
   58.5250   32.8243   48.3236 H   0  0  0  0  0  0  0  0  0  0  0  0
   57.0070   33.4430   46.9090 C   0  0  0  0  0  0  0  0  0  0  0  0
   56.1961   33.4045   47.6513 H   0  0  0  0  0  0  0  0  0  0  0  0
   56.7300   33.8220   45.5930 C   0  0  0  0  0  0  0  0  0  0  0  0
   55.7015   34.0785   45.2990 H   0  0  0  0  0  0  0  0  0  0  0  0
   57.7610   33.8750   44.6500 C   0  0  0  0  0  0  0  0  0  0  0  0
   57.5438   34.1776   43.6150 H   0  0  0  0  0  0  0  0  0  0  0  0
   59.0670   33.5440   45.0210 C   0  0  0  0  0  0  0  0  0  0  0  0
   59.8762   33.5937   44.2775 H   0  0  0  0  0  0  0  0  0  0  0  0
  1  2  1  0
  2  3  1  0
  2  4  2  0
  4  5  1  0
  5  6  2  0
  6  7  1  0
  6  8  1  0
  8  9  2  0
  9 10  1  0
  9 11  1  0
 11 12  1  0
 11 13  1  0
 13 14  2  0
 13 15  1  0
 15 16  1  0
 16 17  2  0
  5 18  1  0
 18 19  1  0
 18 20  2  0
 20 21  1  0
 21 22  1  0
 21 23  1  0
 21 24  1  0
 20 25  1  0
 25 26  1  0
 26 27  2  0
 27 28  1  0
 27 29  1  0
 29 30  1  0
 29 31  2  0
 31 32  1  0
 31 33  1  0
 33 34  1  0
 33 35  2  0
 35 36  1  0
 36 37  2  0
 37 38  1  0
 37 39  1  0
 39 40  1  0
 39 41  2  0
 41 42  1  0
 41 43  1  0
 43 44  1  0
 43 45  2  0
 45 46  1  0
 25  4  1  0
 35 26  1  0
 45 36  1  0
 16  8  1  0
M  CHG  2  10  -1  15  -1
M  END
>  <UniqueID>  (66) 
66

>  <SMILES>  (66) 
C=c1/c(=C/c2c([O-])[nH]c(=O)[n-]c2=O)cc(C)n1-c1ccccc1-c1ccccc1

>  <Energy>  (66) 
99.98786928857415

>  <Genealogy>  (66) 
C=c1c(=Cc2c([O-])[nH]c(=O)[n-]c2=O)cc(C)n1-c1ccccc1-c1ccccc1 (protonated)
C=c1/c(=C/c2c([O-])[nH]c(=O)[n-]c2=O)cc(C)n1-c1ccccc1-c1ccccc1 (cis-trans isomerization)
C=c1/c(=C/c2c([O-])[nH]c(=O)[n-]c2=O)cc(C)n1-c1ccccc1-c1ccccc1 (3D coordinates assigned)
C=c1/c(=C/c2c([O-])[nH]c(=O)[n-]c2=O)cc(C)n1-c1ccccc1-c1ccccc1 (optimized conformer: 99.98786928857415 kcal/mol)

>  <smiles>  (66) 
C=c1c(=Cc2c(O)[nH]c(=O)[nH]c2=O)cc(C)n1-c1ccccc1-c1ccccc1

>  <score_type>  (66) 
oracle

>  <origin>  (66) 
adg

>  <m_score__min__energy>  (66) 
-14.18

>  <m_primary>  (66) 
energy

$$$$
67:0
     RDKit          3D

 48 50  0  0  0  0  0  0  0  0999 V2000
   60.8460   29.0420   49.2800 O   0  0  0  0  0  0  0  0  0  0  0  0
   60.2590   29.7950   48.4540 C   0  0  0  0  0  0  0  0  0  0  0  0
   58.8570   30.2600   48.7520 C   0  0  0  0  0  0  0  0  0  0  0  0
   58.8510   31.3890   49.7490 C   0  0  0  0  0  0  0  0  0  0  0  0
   59.5550   32.5740   49.4790 C   0  0  0  0  0  0  0  0  0  0  0  0
   59.5760   33.6110   50.4170 C   0  0  0  0  0  0  0  0  0  0  0  0
   58.9040   33.4720   51.6350 C   0  0  0  0  0  0  0  0  0  0  0  0
   58.9340   34.5130   52.5600 O   0  0  0  0  0  0  0  0  0  0  0  0
   58.2090   32.2870   51.9150 C   0  0  0  0  0  0  0  0  0  0  0  0
   58.1870   31.2480   50.9790 C   0  0  0  0  0  0  0  0  0  0  0  0
   60.9290   30.1710   47.2320 N   0  0  0  0  0  0  0  0  0  0  0  0
   60.7140   29.3690   46.0080 C   0  0  0  0  0  0  0  0  0  0  0  0
   59.2480   29.2510   45.6900 C   0  0  0  0  0  0  0  0  0  0  0  0
   58.5520   30.3520   45.1640 C   0  0  0  0  0  0  0  0  0  0  0  0
   57.1840   30.2570   44.8910 C   0  0  0  0  0  0  0  0  0  0  0  0
   56.5020   29.0630   45.1380 C   0  0  0  0  0  0  0  0  0  0  0  0
   55.1410   28.9700   44.8690 O   0  0  0  0  0  0  0  0  0  0  0  0
   57.1890   27.9600   45.6540 C   0  0  0  0  0  0  0  0  0  0  0  0
   58.5570   28.0510   45.9280 C   0  0  0  0  0  0  0  0  0  0  0  0
   61.9380   31.2550   47.3030 C   0  0  0  0  0  0  0  0  0  0  0  0
   61.3600   32.6090   46.8220 C   0  0  0  0  0  0  0  0  0  0  0  0
   62.1400   33.8070   47.3910 C   0  0  0  0  0  0  0  0  0  0  0  0
   63.5490   33.4490   47.5990 N   0  0  0  0  0  0  0  0  0  0  0  0
   63.7030   32.4590   48.6830 C   0  0  0  0  0  0  0  0  0  0  0  0
   62.5800   31.3970   48.6960 C   0  0  0  0  0  0  0  0  0  0  0  0
   58.3886   30.6049   47.8184 H   0  0  0  0  0  0  0  0  0  0  0  0
   58.2972   29.4163   49.1820 H   0  0  0  0  0  0  0  0  0  0  0  0
   60.0921   32.6868   48.5257 H   0  0  0  0  0  0  0  0  0  0  0  0
   60.1232   34.5393   50.1957 H   0  0  0  0  0  0  0  0  0  0  0  0
   58.4350   35.3810   52.3960 H   0  0  0  0  0  0  0  0  0  0  0  0
   57.6799   32.1742   52.8728 H   0  0  0  0  0  0  0  0  0  0  0  0
   57.6477   30.3168   51.2068 H   0  0  0  0  0  0  0  0  0  0  0  0
   61.2268   29.8551   45.1649 H   0  0  0  0  0  0  0  0  0  0  0  0
   61.1182   28.3597   46.1754 H   0  0  0  0  0  0  0  0  0  0  0  0
   59.0857   31.2933   44.9660 H   0  0  0  0  0  0  0  0  0  0  0  0
   56.6441   31.1234   44.4813 H   0  0  0  0  0  0  0  0  0  0  0  0
   56.6523   27.0190   45.8447 H   0  0  0  0  0  0  0  0  0  0  0  0
   59.0942   27.1800   46.3314 H   0  0  0  0  0  0  0  0  0  0  0  0
   62.7422   30.9579   46.6138 H   0  0  0  0  0  0  0  0  0  0  0  0
   61.4073   32.6445   45.7236 H   0  0  0  0  0  0  0  0  0  0  0  0
   60.3222   32.6802   47.1797 H   0  0  0  0  0  0  0  0  0  0  0  0
   62.0803   34.6473   46.6836 H   0  0  0  0  0  0  0  0  0  0  0  0
   61.6986   34.0936   48.3569 H   0  0  0  0  0  0  0  0  0  0  0  0
   64.0690   34.3140   47.8730 H   0  0  0  0  0  0  0  0  0  0  0  0
   64.6681   31.9469   48.5553 H   0  0  0  0  0  0  0  0  0  0  0  0
   63.6503   33.0048   49.6366 H   0  0  0  0  0  0  0  0  0  0  0  0
   63.0049   30.4279   48.9967 H   0  0  0  0  0  0  0  0  0  0  0  0
   61.8047   31.7157   49.4083 H   0  0  0  0  0  0  0  0  0  0  0  0
  1  2  2  0
  2  3  1  0
  3  4  1  0
  4  5  2  0
  5  6  1  0
  6  7  2  0
  7  8  1  0
  7  9  1  0
  9 10  2  0
  2 11  1  0
 11 12  1  0
 12 13  1  0
 13 14  2  0
 14 15  1  0
 15 16  2  0
 16 17  1  0
 16 18  1  0
 18 19  2  0
 11 20  1  0
 20 21  1  0
 21 22  1  0
 22 23  1  0
 23 24  1  0
 24 25  1  0
 10  4  1  0
 19 13  1  0
 25 20  1  0
  3 26  1  0
  3 27  1  0
  5 28  1  0
  6 29  1  0
  8 30  1  0
  9 31  1  0
 10 32  1  0
 12 33  1  0
 12 34  1  0
 14 35  1  0
 15 36  1  0
 18 37  1  0
 19 38  1  0
 20 39  1  0
 21 40  1  0
 21 41  1  0
 22 42  1  0
 22 43  1  0
 23 44  1  0
 24 45  1  0
 24 46  1  0
 25 47  1  0
 25 48  1  0
M  CHG  1  17  -1
M  END
>  <UniqueID>  (67) 
67

>  <SMILES>  (67) 
O=C(Cc1ccc(O)cc1)N(Cc1ccc([O-])cc1)C1CCNCC1

>  <Energy>  (67) 
55.43414248818165

>  <Genealogy>  (67) 
O=C(Cc1ccc(O)cc1)N(Cc1ccc([O-])cc1)C1CCNCC1 (protonated)
O=C(Cc1ccc(O)cc1)N(Cc1ccc([O-])cc1)C1CCNCC1 (3D coordinates assigned)
O=C(Cc1ccc(O)cc1)N(Cc1ccc([O-])cc1)C1CCNCC1 (nonaromatic ring conformer: 55.43414248818165 kcal/mol)

>  <smiles>  (67) 
O=C(Cc1ccc(O)cc1)N(Cc1ccc(O)cc1)C1CCNCC1

>  <score_type>  (67) 
oracle

>  <origin>  (67) 
adg

>  <m_score__min__energy>  (67) 
-10.779999999999999

>  <m_primary>  (67) 
energy

$$$$
68:0
     RDKit          3D

 38 40  0  0  0  0  0  0  0  0999 V2000
   53.5800   29.5890   52.8120 O   0  0  0  0  0  0  0  0  0  0  0  0
   54.1670   30.1850   51.8690 C   0  0  0  0  0  0  0  0  0  0  0  0
   53.3890   31.0820   50.9600 C   0  0  0  0  0  0  0  0  0  0  0  0
   52.1890   31.6230   51.6730 C   0  0  0  0  0  0  0  0  0  0  0  0
   51.9820   31.5080   52.9960 N   0  0  0  0  0  0  0  0  0  0  0  0
   50.8100   32.1550   53.1840 C   0  0  0  0  0  0  0  0  0  0  0  0
   50.2660   32.2570   54.3160 O   0  0  0  0  0  0  0  0  0  0  0  0
   50.2650   32.6800   52.0650 N   0  0  0  0  0  0  0  0  0  0  0  0
   51.1530   32.3380   51.1180 C   0  0  0  0  0  0  0  0  0  0  0  0
   51.0220   32.6710   49.7760 O   0  0  0  0  0  0  0  0  0  0  0  0
   55.5800   30.0430   51.6760 N   0  0  0  0  0  0  0  0  0  0  0  0
   56.5860   31.0270   51.9670 C   0  0  0  0  0  0  0  0  0  0  0  0
   56.7570   31.5630   53.2570 C   0  0  0  0  0  0  0  0  0  0  0  0
   57.7490   32.5190   53.4970 C   0  0  0  0  0  0  0  0  0  0  0  0
   58.5830   32.9360   52.4580 C   0  0  0  0  0  0  0  0  0  0  0  0
   58.4440   32.3880   51.1760 C   0  0  0  0  0  0  0  0  0  0  0  0
   59.5010   32.9310   49.8780 S   0  0  0  0  0  0  0  0  0  0  0  0
   59.4790   34.4320   49.8300 O   0  0  0  0  0  0  0  0  0  0  0  0
   60.9160   32.4820   50.1100 O   0  0  0  0  0  0  0  0  0  0  0  0
   58.9390   32.3050   48.3620 N   0  0  0  0  0  0  0  0  0  0  0  0
   58.6710   33.0850   47.1870 C   0  0  0  0  0  0  0  0  0  0  0  0
   57.3760   33.1820   46.6410 C   0  0  0  0  0  0  0  0  0  0  0  0
   57.1500   33.9420   45.4900 C   0  0  0  0  0  0  0  0  0  0  0  0
   58.2080   34.6070   44.8700 C   0  0  0  0  0  0  0  0  0  0  0  0
   59.4960   34.5200   45.4020 C   0  0  0  0  0  0  0  0  0  0  0  0
   59.7310   33.7620   46.5570 C   0  0  0  0  0  0  0  0  0  0  0  0
   61.3680   33.6680   47.2020 Cl  0  0  0  0  0  0  0  0  0  0  0  0
   57.4500   31.4250   50.9380 C   0  0  0  0  0  0  0  0  0  0  0  0
   54.0285   31.9174   50.6389 H   0  0  0  0  0  0  0  0  0  0  0  0
   53.0572   30.5057   50.0838 H   0  0  0  0  0  0  0  0  0  0  0  0
   56.1078   31.2287   54.0797 H   0  0  0  0  0  0  0  0  0  0  0  0
   57.8722   32.9425   54.5047 H   0  0  0  0  0  0  0  0  0  0  0  0
   59.3530   33.6985   52.6467 H   0  0  0  0  0  0  0  0  0  0  0  0
   56.5383   32.6568   47.1231 H   0  0  0  0  0  0  0  0  0  0  0  0
   56.1352   34.0160   45.0719 H   0  0  0  0  0  0  0  0  0  0  0  0
   58.0275   35.2003   43.9615 H   0  0  0  0  0  0  0  0  0  0  0  0
   60.3283   35.0477   44.9133 H   0  0  0  0  0  0  0  0  0  0  0  0
   57.3489   30.9801   49.9371 H   0  0  0  0  0  0  0  0  0  0  0  0
  1  2  2  0
  2  3  1  0
  3  4  1  0
  4  5  1  0
  5  6  1  0
  6  7  2  0
  6  8  1  0
  8  9  1  0
  9 10  1  0
  2 11  1  0
 11 12  1  0
 12 13  2  0
 13 14  1  0
 14 15  2  0
 15 16  1  0
 16 17  1  0
 17 18  2  0
 17 19  2  0
 17 20  1  0
 20 21  1  0
 21 22  2  0
 22 23  1  0
 23 24  2  0
 24 25  1  0
 25 26  2  0
 26 27  1  0
 16 28  2  0
  9  4  2  0
 28 12  1  0
 26 21  1  0
  3 29  1  0
  3 30  1  0
 13 31  1  0
 14 32  1  0
 15 33  1  0
 22 34  1  0
 23 35  1  0
 24 36  1  0
 25 37  1  0
 28 38  1  0
M  CHG  5   5  -1   8  -1  10  -1  11  -1  20  -1
M  END
>  <UniqueID>  (68) 
68

>  <SMILES>  (68) 
O=C(Cc1[n-]c(=O)[n-]c1[O-])[N-]c1cccc(S(=O)(=O)[N-]c2ccccc2Cl)c1

>  <Energy>  (68) 
75.02500610667082

>  <Genealogy>  (68) 
O=C(Cc1[n-]c(=O)[n-]c1[O-])[N-]c1cccc(S(=O)(=O)[N-]c2ccccc2Cl)c1 (protonated)
O=C(Cc1[n-]c(=O)[n-]c1[O-])[N-]c1cccc(S(=O)(=O)[N-]c2ccccc2Cl)c1 (3D coordinates assigned)
O=C(Cc1[n-]c(=O)[n-]c1[O-])[N-]c1cccc(S(=O)(=O)[N-]c2ccccc2Cl)c1 (optimized conformer: 75.02500610667082 kcal/mol)

>  <smiles>  (68) 
O=C(Cc1[nH]c(=O)[nH]c1O)Nc1cccc(S(=O)(=O)Nc2ccccc2Cl)c1

>  <score_type>  (68) 
oracle

>  <origin>  (68) 
adg

>  <m_score__min__energy>  (68) 
-19.710000000000001

>  <m_primary>  (68) 
energy

$$$$
69:0
     RDKit          3D

 52 55  0  0  0  0  0  0  0  0999 V2000
   59.4880   24.1845   46.3525 H   0  0  0  0  0  0  0  0  0  0  0  0
   58.4550   24.4370   46.0710 C   0  0  0  0  0  0  0  0  0  0  0  0
   57.8370   25.3880   46.7010 N   0  0  0  0  0  0  0  0  0  0  0  0
   57.6980   26.6750   46.1450 N   0  0  0  0  0  0  0  0  0  0  0  0
   56.4430   27.0990   45.8140 C   0  0  0  0  0  0  0  0  0  0  0  0
   55.4500   26.3430   45.9870 O   0  0  0  0  0  0  0  0  0  0  0  0
   56.2470   28.3410   45.3140 N   0  0  0  0  0  0  0  0  0  0  0  0
   57.2660   29.2150   45.1100 C   0  0  0  0  0  0  0  0  0  0  0  0
   56.9420   30.4360   44.6330 C   0  0  0  0  0  0  0  0  0  0  0  0
   56.0749   30.4923   43.9585 H   0  0  0  0  0  0  0  0  0  0  0  0
   57.6400   31.7030   44.9300 C   0  0  0  0  0  0  0  0  0  0  0  0
   58.0770   32.5130   43.8740 C   0  0  0  0  0  0  0  0  0  0  0  0
   57.9338   32.1832   42.8344 H   0  0  0  0  0  0  0  0  0  0  0  0
   58.6940   33.7380   44.1370 C   0  0  0  0  0  0  0  0  0  0  0  0
   59.0502   34.3629   43.3048 H   0  0  0  0  0  0  0  0  0  0  0  0
   58.8600   34.1720   45.4560 C   0  0  0  0  0  0  0  0  0  0  0  0
   59.3538   35.1342   45.6567 H   0  0  0  0  0  0  0  0  0  0  0  0
   58.4020   33.3900   46.5220 C   0  0  0  0  0  0  0  0  0  0  0  0
   58.5840   33.8710   47.8270 O   0  0  0  0  0  0  0  0  0  0  0  0
   59.3950   33.2410   48.8140 C   0  0  0  0  0  0  0  0  0  0  0  0
   59.5400   33.9255   49.6628 H   0  0  0  0  0  0  0  0  0  0  0  0
   58.9015   32.3236   49.1673 H   0  0  0  0  0  0  0  0  0  0  0  0
   60.7260   32.8980   48.2130 C   0  0  0  0  0  0  0  0  0  0  0  0
   61.0300   31.5680   47.8760 C   0  0  0  0  0  0  0  0  0  0  0  0
   60.2782   30.7791   48.0257 H   0  0  0  0  0  0  0  0  0  0  0  0
   62.2850   31.2440   47.3510 C   0  0  0  0  0  0  0  0  0  0  0  0
   62.5151   30.2030   47.0802 H   0  0  0  0  0  0  0  0  0  0  0  0
   63.2470   32.2410   47.1700 C   0  0  0  0  0  0  0  0  0  0  0  0
   64.2319   31.9849   46.7525 H   0  0  0  0  0  0  0  0  0  0  0  0
   62.9590   33.5640   47.5190 C   0  0  0  0  0  0  0  0  0  0  0  0
   63.7188   34.3472   47.3799 H   0  0  0  0  0  0  0  0  0  0  0  0
   61.7050   33.8920   48.0450 C   0  0  0  0  0  0  0  0  0  0  0  0
   61.4844   34.9318   48.3281 H   0  0  0  0  0  0  0  0  0  0  0  0
   57.7760   32.1570   46.2540 C   0  0  0  0  0  0  0  0  0  0  0  0
   57.3917   31.5463   47.0843 H   0  0  0  0  0  0  0  0  0  0  0  0
   58.5870   28.7800   45.3750 C   0  0  0  0  0  0  0  0  0  0  0  0
   59.5800   29.5120   45.1020 O   0  0  0  0  0  0  0  0  0  0  0  0
   58.7890   27.4820   45.9040 C   0  0  0  0  0  0  0  0  0  0  0  0
   60.0400   27.0390   46.1350 C   0  0  0  0  0  0  0  0  0  0  0  0
   60.1995   26.0311   46.5459 H   0  0  0  0  0  0  0  0  0  0  0  0
   60.9021   27.6851   45.9128 H   0  0  0  0  0  0  0  0  0  0  0  0
   57.7960   23.6880   44.9830 C   0  0  0  0  0  0  0  0  0  0  0  0
   58.1020   22.3300   44.7970 C   0  0  0  0  0  0  0  0  0  0  0  0
   58.8261   21.8363   45.4618 H   0  0  0  0  0  0  0  0  0  0  0  0
   57.4910   21.6020   43.7710 C   0  0  0  0  0  0  0  0  0  0  0  0
   57.7358   20.5387   43.6313 H   0  0  0  0  0  0  0  0  0  0  0  0
   56.5700   22.2230   42.9230 C   0  0  0  0  0  0  0  0  0  0  0  0
   56.0899   21.6485   42.1171 H   0  0  0  0  0  0  0  0  0  0  0  0
   56.2590   23.5740   43.0990 C   0  0  0  0  0  0  0  0  0  0  0  0
   55.5341   24.0623   42.4311 H   0  0  0  0  0  0  0  0  0  0  0  0
   56.8680   24.3060   44.1230 C   0  0  0  0  0  0  0  0  0  0  0  0
   56.6210   25.3695   44.2573 H   0  0  0  0  0  0  0  0  0  0  0  0
  1  2  1  0
  2  3  2  3
  3  4  1  0
  4  5  1  0
  5  6  2  0
  5  7  1  0
  7  8  1  0
  8  9  2  0
  9 10  1  0
  9 11  1  0
 11 12  2  0
 12 13  1  0
 12 14  1  0
 14 15  1  0
 14 16  2  0
 16 17  1  0
 16 18  1  0
 18 19  1  0
 19 20  1  0
 20 21  1  0
 20 22  1  0
 20 23  1  0
 23 24  2  0
 24 25  1  0
 24 26  1  0
 26 27  1  0
 26 28  2  0
 28 29  1  0
 28 30  1  0
 30 31  1  0
 30 32  2  0
 32 33  1  0
 18 34  2  0
 34 35  1  0
  8 36  1  0
 36 37  2  0
 36 38  1  0
 38 39  2  0
 39 40  1  0
 39 41  1  0
  2 42  1  0
 42 43  2  0
 43 44  1  0
 43 45  1  0
 45 46  1  0
 45 47  2  0
 47 48  1  0
 47 49  1  0
 49 50  1  0
 49 51  2  0
 51 52  1  0
 38  4  1  0
 51 42  1  0
 34 11  1  0
 32 23  1  0
M  CHG  1   7  -1
M  END
>  <UniqueID>  (69) 
69

>  <SMILES>  (69) 
C=c1c(=O)/c(=C\c2cccc(OCc3ccccc3)c2)[n-]c(=O)n1N=Cc1ccccc1

>  <Energy>  (69) 
82.02989961109947

>  <Genealogy>  (69) 
C=c1c(=O)c(=Cc2cccc(OCc3ccccc3)c2)[n-]c(=O)n1N=Cc1ccccc1 (protonated)
C=c1c(=O)/c(=C\c2cccc(OCc3ccccc3)c2)[n-]c(=O)n1N=Cc1ccccc1 (cis-trans isomerization)
C=c1c(=O)/c(=C\c2cccc(OCc3ccccc3)c2)[n-]c(=O)n1N=Cc1ccccc1 (3D coordinates assigned)
C=c1c(=O)/c(=C\c2cccc(OCc3ccccc3)c2)[n-]c(=O)n1N=Cc1ccccc1 (optimized conformer: 82.02989961109947 kcal/mol)

>  <smiles>  (69) 
C=c1c(=O)c(=Cc2cccc(OCc3ccccc3)c2)[nH]c(=O)n1N=Cc1ccccc1

>  <score_type>  (69) 
oracle

>  <origin>  (69) 
adg

>  <m_score__min__energy>  (69) 
-11.99

>  <m_primary>  (69) 
energy

$$$$
70:0
     RDKit          3D

 54 57  0  0  0  0  0  0  0  0999 V2000
   57.8610   27.9640   44.0030 C   0  0  0  0  0  0  0  0  0  0  0  0
   58.0710   27.6850   45.3000 C   0  0  0  0  0  0  0  0  0  0  0  0
   58.1160   26.4140   45.8940 C   0  0  0  0  0  0  0  0  0  0  0  0
   57.7430   25.2070   45.4260 C   0  0  0  0  0  0  0  0  0  0  0  0
   56.3930   24.6290   45.5390 C   0  0  0  0  0  0  0  0  0  0  0  0
   56.0910   23.3370   45.3140 N   0  0  0  0  0  0  0  0  0  0  0  0
   54.7440   23.3110   45.4080 C   0  0  0  0  0  0  0  0  0  0  0  0
   54.0760   22.2540   45.2740 O   0  0  0  0  0  0  0  0  0  0  0  0
   54.1700   24.5100   45.6510 N   0  0  0  0  0  0  0  0  0  0  0  0
   55.2280   25.3340   45.7160 C   0  0  0  0  0  0  0  0  0  0  0  0
   55.1340   26.7060   45.9320 O   0  0  0  0  0  0  0  0  0  0  0  0
   58.6320   26.6000   47.1660 C   0  0  0  0  0  0  0  0  0  0  0  0
   58.8030   27.9580   47.3340 C   0  0  0  0  0  0  0  0  0  0  0  0
   59.3180   28.6010   48.5870 C   0  0  0  0  0  0  0  0  0  0  0  0
   58.4640   28.6190   46.2040 N   0  0  0  0  0  0  0  0  0  0  0  0
   58.5410   30.0420   46.0060 C   0  0  0  0  0  0  0  0  0  0  0  0
   57.6420   30.6880   45.1450 C   0  0  0  0  0  0  0  0  0  0  0  0
   57.7180   32.0700   44.9570 C   0  0  0  0  0  0  0  0  0  0  0  0
   58.6900   32.8170   45.6280 C   0  0  0  0  0  0  0  0  0  0  0  0
   59.5950   32.1850   46.4970 C   0  0  0  0  0  0  0  0  0  0  0  0
   60.5990   32.9510   47.1840 N   0  0  0  0  0  0  0  0  0  0  0  0
   60.5100   33.1360   48.6380 C   0  0  0  0  0  0  0  0  0  0  0  0
   61.4920   34.2170   49.1210 C   0  0  0  0  0  0  0  0  0  0  0  0
   62.8760   34.0330   48.6210 N   0  0  0  0  0  0  0  0  0  0  0  0
   63.9200   33.3380   49.8400 S   0  0  0  0  0  0  0  0  0  0  0  0
   63.9100   34.2990   51.3430 C   0  0  0  0  0  0  0  0  0  0  0  0
   63.4650   31.9400   50.1550 O   0  0  0  0  0  0  0  0  0  0  0  0
   65.3250   33.2800   49.3120 O   0  0  0  0  0  0  0  0  0  0  0  0
   63.0020   33.2990   47.3420 C   0  0  0  0  0  0  0  0  0  0  0  0
   61.7640   33.4680   46.4630 C   0  0  0  0  0  0  0  0  0  0  0  0
   59.5160   30.7950   46.6780 C   0  0  0  0  0  0  0  0  0  0  0  0
   57.8490   29.0091   43.6602 H   0  0  0  0  0  0  0  0  0  0  0  0
   57.7010   27.1473   43.2836 H   0  0  0  0  0  0  0  0  0  0  0  0
   58.5096   24.6036   44.9178 H   0  0  0  0  0  0  0  0  0  0  0  0
   54.3140   27.1020   46.3740 H   0  0  0  0  0  0  0  0  0  0  0  0
   58.8614   25.8147   47.9013 H   0  0  0  0  0  0  0  0  0  0  0  0
   58.9022   28.0819   49.4631 H   0  0  0  0  0  0  0  0  0  0  0  0
   60.4158   28.5349   48.6085 H   0  0  0  0  0  0  0  0  0  0  0  0
   59.0138   29.6579   48.6085 H   0  0  0  0  0  0  0  0  0  0  0  0
   56.8743   30.1043   44.6159 H   0  0  0  0  0  0  0  0  0  0  0  0
   57.0113   32.5714   44.2794 H   0  0  0  0  0  0  0  0  0  0  0  0
   58.7467   33.9048   45.4750 H   0  0  0  0  0  0  0  0  0  0  0  0
   59.4854   33.4391   48.8993 H   0  0  0  0  0  0  0  0  0  0  0  0
   60.7693   32.1855   49.1272 H   0  0  0  0  0  0  0  0  0  0  0  0
   61.1264   35.1962   48.7781 H   0  0  0  0  0  0  0  0  0  0  0  0
   61.5347   34.1449   50.2178 H   0  0  0  0  0  0  0  0  0  0  0  0
   63.9170   33.6228   52.2106 H   0  0  0  0  0  0  0  0  0  0  0  0
   64.8015   34.9427   51.3726 H   0  0  0  0  0  0  0  0  0  0  0  0
   63.0053   34.9240   51.3726 H   0  0  0  0  0  0  0  0  0  0  0  0
   63.8788   33.6803   46.7982 H   0  0  0  0  0  0  0  0  0  0  0  0
   63.1124   32.2292   47.5727 H   0  0  0  0  0  0  0  0  0  0  0  0
   61.6149   34.5338   46.2355 H   0  0  0  0  0  0  0  0  0  0  0  0
   61.8961   32.9153   45.5212 H   0  0  0  0  0  0  0  0  0  0  0  0
   60.2245   30.2918   47.3524 H   0  0  0  0  0  0  0  0  0  0  0  0
  1  2  2  0
  2  3  1  0
  3  4  2  3
  4  5  1  0
  5  6  1  0
  6  7  1  0
  7  8  2  0
  7  9  1  0
  9 10  1  0
 10 11  1  0
  3 12  1  0
 12 13  2  0
 13 14  1  0
 13 15  1  0
 15 16  1  0
 16 17  2  0
 17 18  1  0
 18 19  2  0
 19 20  1  0
 20 21  1  0
 21 22  1  0
 22 23  1  0
 23 24  1  0
 24 25  1  0
 25 26  1  0
 25 27  2  0
 25 28  2  0
 24 29  1  0
 29 30  1  0
 20 31  2  0
 15  2  1  0
 31 16  1  0
 10  5  2  0
 30 21  1  0
  1 32  1  0
  1 33  1  0
  4 34  1  0
 11 35  1  0
 12 36  1  0
 14 37  1  0
 14 38  1  0
 14 39  1  0
 17 40  1  0
 18 41  1  0
 19 42  1  0
 22 43  1  0
 22 44  1  0
 23 45  1  0
 23 46  1  0
 26 47  1  0
 26 48  1  0
 26 49  1  0
 29 50  1  0
 29 51  1  0
 30 52  1  0
 30 53  1  0
 31 54  1  0
M  CHG  2   6  -1   9  -1
M  END
>  <UniqueID>  (70) 
70

>  <SMILES>  (70) 
C=c1c(=Cc2[n-]c(=O)[n-]c2O)cc(C)n1-c1cccc(N2CCN(S(C)(=O)=O)CC2)c1

>  <Energy>  (70) 
136.68590283353882

>  <Genealogy>  (70) 
C=c1c(=Cc2[n-]c(=O)[n-]c2O)cc(C)n1-c1cccc(N2CCN(S(C)(=O)=O)CC2)c1 (protonated)
C=c1c(=Cc2[n-]c(=O)[n-]c2O)cc(C)n1-c1cccc(N2CCN(S(C)(=O)=O)CC2)c1 (3D coordinates assigned)
C=c1c(=Cc2[n-]c(=O)[n-]c2O)cc(C)n1-c1cccc(N2CCN(S(C)(=O)=O)CC2)c1 (nonaromatic ring conformer: 136.68590283353882 kcal/mol)

>  <smiles>  (70) 
C=c1c(=Cc2[nH]c(=O)[nH]c2O)cc(C)n1-c1cccc(N2CCN(S(C)(=O)=O)CC2)c1

>  <score_type>  (70) 
oracle

>  <origin>  (70) 
adg

>  <m_score__min__energy>  (70) 
-14.94

>  <m_primary>  (70) 
energy

$$$$
71:0
     RDKit          3D

 53 56  0  0  0  0  0  0  0  0999 V2000
   61.5691   27.8269   50.6250 H   0  0  0  0  0  0  0  0  0  0  0  0
   61.0180   28.4860   49.9380 C   0  0  0  0  0  0  0  0  0  0  0  0
   59.9960   27.9880   49.1970 N   0  0  0  0  0  0  0  0  0  0  0  0
   59.2710   28.7590   48.3400 C   0  0  0  0  0  0  0  0  0  0  0  0
   58.3190   28.2400   47.6170 N   0  0  0  0  0  0  0  0  0  0  0  0
   58.2100   26.8840   47.1540 C   0  0  0  0  0  0  0  0  0  0  0  0
   58.1050   25.9260   47.9680 O   0  0  0  0  0  0  0  0  0  0  0  0
   58.2450   26.5710   45.6800 C   0  0  1  0  0  0  0  0  0  0  0  0
   58.9033   27.4209   45.4471 H   0  0  0  0  0  0  0  0  0  0  0  0
   58.2000   25.1000   45.2760 C   0  0  0  0  0  0  0  0  0  0  0  0
   58.7794   24.7505   44.4088 H   0  0  0  0  0  0  0  0  0  0  0  0
   58.3936   24.1472   45.7905 H   0  0  0  0  0  0  0  0  0  0  0  0
   56.9720   25.9810   45.0670 C   0  0  1  0  0  0  0  0  0  0  0  0
   56.3306   26.2732   44.2225 H   0  0  0  0  0  0  0  0  0  0  0  0
   55.8270   25.6710   45.9900 C   0  0  0  0  0  0  0  0  0  0  0  0
   54.7760   26.3610   45.9390 O   0  0  0  0  0  0  0  0  0  0  0  0
   55.8990   24.5930   46.8650 O   0  0  0  0  0  0  0  0  0  0  0  0
   59.5730   30.1330   48.2190 C   0  0  0  0  0  0  0  0  0  0  0  0
   58.8190   31.0230   47.3000 C   0  0  0  0  0  0  0  0  0  0  0  0
   58.7770   32.4090   47.5220 C   0  0  0  0  0  0  0  0  0  0  0  0
   59.3150   32.8427   48.3779 H   0  0  0  0  0  0  0  0  0  0  0  0
   58.0560   33.2390   46.6620 C   0  0  0  0  0  0  0  0  0  0  0  0
   58.0218   34.3229   46.8465 H   0  0  0  0  0  0  0  0  0  0  0  0
   57.3780   32.6970   45.5680 C   0  0  0  0  0  0  0  0  0  0  0  0
   56.8114   33.3575   44.8952 H   0  0  0  0  0  0  0  0  0  0  0  0
   57.4140   31.3190   45.3210 C   0  0  0  0  0  0  0  0  0  0  0  0
   56.7160   30.8300   44.2050 O   0  0  0  0  0  0  0  0  0  0  0  0
   56.4780   29.4530   43.9210 C   0  0  0  0  0  0  0  0  0  0  0  0
   55.6130   28.9160   44.8580 F   0  0  0  0  0  0  0  0  0  0  0  0
   57.6700   28.7510   43.9210 F   0  0  0  0  0  0  0  0  0  0  0  0
   55.8990   29.3460   42.6710 F   0  0  0  0  0  0  0  0  0  0  0  0
   58.1400   30.4830   46.1930 C   0  0  0  0  0  0  0  0  0  0  0  0
   58.1759   29.3996   46.0063 H   0  0  0  0  0  0  0  0  0  0  0  0
   60.6320   30.6580   48.9760 C   0  0  0  0  0  0  0  0  0  0  0  0
   60.8816   31.7263   48.8963 H   0  0  0  0  0  0  0  0  0  0  0  0
   61.3730   29.8350   49.8310 C   0  0  0  0  0  0  0  0  0  0  0  0
   62.4680   30.3980   50.6480 C   0  0  0  0  0  0  0  0  0  0  0  0
   62.6300   29.9770   51.8260 O   0  0  0  0  0  0  0  0  0  0  0  0
   63.3460   31.4140   50.1310 N   0  0  0  0  0  0  0  0  0  0  0  0
   64.7630   31.4610   50.4530 C   0  0  0  0  0  0  0  0  0  0  0  0
   65.3107   30.6961   49.8829 H   0  0  0  0  0  0  0  0  0  0  0  0
   64.9420   31.2610   51.5198 H   0  0  0  0  0  0  0  0  0  0  0  0
   65.2340   32.8550   50.0580 C   0  0  0  0  0  0  0  0  0  0  0  0
   66.1905   32.7969   49.5179 H   0  0  0  0  0  0  0  0  0  0  0  0
   65.3969   33.4913   50.9404 H   0  0  0  0  0  0  0  0  0  0  0  0
   64.1400   33.4260   49.1460 C   0  0  1  0  0  0  0  0  0  0  0  0
   64.0017   34.5038   49.3170 H   0  0  0  0  0  0  0  0  0  0  0  0
   64.4920   33.2730   47.7300 N   0  0  0  0  0  0  0  0  0  0  0  0
   64.3050   32.2880   47.4270 H   0  0  0  0  0  0  0  0  0  0  0  0
   65.5180   33.4450   47.6220 H   0  0  0  0  0  0  0  0  0  0  0  0
   62.8800   32.6240   49.4700 C   0  0  0  0  0  0  0  0  0  0  0  0
   62.3368   32.3726   48.5471 H   0  0  0  0  0  0  0  0  0  0  0  0
   62.1867   33.1941   50.1058 H   0  0  0  0  0  0  0  0  0  0  0  0
  1  2  1  0
  2  3  1  0
  3  4  1  0
  4  5  2  0
  5  6  1  0
  6  7  2  0
  6  8  1  0
  8  9  1  6
  8 10  1  0
 10 11  1  0
 10 12  1  0
 10 13  1  0
 13 14  1  6
 13 15  1  0
 15 16  2  0
 15 17  1  0
  4 18  1  0
 18 19  1  0
 19 20  2  0
 20 21  1  0
 20 22  1  0
 22 23  1  0
 22 24  2  0
 24 25  1  0
 24 26  1  0
 26 27  1  0
 27 28  1  0
 28 29  1  0
 28 30  1  0
 28 31  1  0
 26 32  2  0
 32 33  1  0
 18 34  2  0
 34 35  1  0
 34 36  1  0
 36 37  1  0
 37 38  2  0
 37 39  1  0
 39 40  1  0
 40 41  1  0
 40 42  1  0
 40 43  1  0
 43 44  1  0
 43 45  1  0
 43 46  1  0
 46 47  1  1
 46 48  1  0
 48 49  1  0
 48 50  1  0
 46 51  1  0
 51 52  1  0
 51 53  1  0
 36  2  2  0
 51 39  1  0
 13  8  1  0
 32 19  1  0
M  CHG  2   3  -1  17  -1
M  END
>  <UniqueID>  (71) 
71

>  <SMILES>  (71) 
N[C@@H]1CCN(C(=O)c2c[n-]/c(=N\C(=O)[C@H]3CC3C(=O)[O-])c(-c3cccc(OC(F)(F)F)c3)c2)C1

>  <Energy>  (71) 
337.450638627262

>  <Genealogy>  (71) 
NC1CCN(C(=O)c2c[n-]c(=NC(=O)C3CC3C(=O)[O-])c(-c3cccc(OC(F)(F)F)c3)c2)C1 (protonated)
N[C@@H]1CCN(C(=O)c2c[n-]c(=NC(=O)[C@H]3CC3C(=O)[O-])c(-c3cccc(OC(F)(F)F)c3)c2)C1 (chirality)
N[C@@H]1CCN(C(=O)c2c[n-]/c(=N\C(=O)[C@H]3CC3C(=O)[O-])c(-c3cccc(OC(F)(F)F)c3)c2)C1 (cis-trans isomerization)
N[C@@H]1CCN(C(=O)c2c[n-]/c(=N\C(=O)[C@H]3CC3C(=O)[O-])c(-c3cccc(OC(F)(F)F)c3)c2)C1 (3D coordinates assigned)
N[C@@H]1CCN(C(=O)c2c[n-]/c(=N\C(=O)[C@H]3CC3C(=O)[O-])c(-c3cccc(OC(F)(F)F)c3)c2)C1 (nonaromatic ring conformer: 337.450638627262 kcal/mol)

>  <smiles>  (71) 
NC1CCN(C(=O)c2c[nH]c(=NC(=O)C3CC3C(=O)O)c(-c3cccc(OC(F)(F)F)c3)c2)C1

>  <score_type>  (71) 
oracle

>  <origin>  (71) 
adg

>  <m_score__min__energy>  (71) 
-12.69

>  <m_primary>  (71) 
energy

$$$$
72:0
     RDKit          3D

 40 42  0  0  0  0  0  0  0  0999 V2000
   59.3330   29.6010   44.6220 C   0  0  0  0  0  0  0  0  0  0  0  0
   59.0670   29.3330   45.9090 C   0  0  0  0  0  0  0  0  0  0  0  0
   58.4130   28.1980   46.4030 C   0  0  0  0  0  0  0  0  0  0  0  0
   57.9920   27.1290   45.7000 C   0  0  0  0  0  0  0  0  0  0  0  0
   57.2730   25.9850   46.2900 C   0  0  0  0  0  0  0  0  0  0  0  0
   57.8710   24.8520   46.6900 N   0  0  0  0  0  0  0  0  0  0  0  0
   56.8620   24.0470   47.0750 C   0  0  0  0  0  0  0  0  0  0  0  0
   57.0430   22.8870   47.5280 O   0  0  0  0  0  0  0  0  0  0  0  0
   55.6350   24.5910   46.9200 N   0  0  0  0  0  0  0  0  0  0  0  0
   55.9090   25.8080   46.4130 C   0  0  0  0  0  0  0  0  0  0  0  0
   54.9290   26.7140   46.0260 O   0  0  0  0  0  0  0  0  0  0  0  0
   58.3300   28.3640   47.7800 C   0  0  0  0  0  0  0  0  0  0  0  0
   58.9260   29.5760   48.0680 C   0  0  0  0  0  0  0  0  0  0  0  0
   59.0640   30.1540   49.4440 C   0  0  0  0  0  0  0  0  0  0  0  0
   59.3690   30.1650   46.9360 N   0  0  0  0  0  0  0  0  0  0  0  0
   60.0520   31.4300   46.8620 C   0  0  0  0  0  0  0  0  0  0  0  0
   61.4300   31.4920   47.1180 C   0  0  0  0  0  0  0  0  0  0  0  0
   62.1050   32.7120   47.0460 C   0  0  0  0  0  0  0  0  0  0  0  0
   61.4110   33.8760   46.7080 C   0  0  0  0  0  0  0  0  0  0  0  0
   60.0390   33.8230   46.4450 C   0  0  0  0  0  0  0  0  0  0  0  0
   59.3460   32.6000   46.5300 C   0  0  0  0  0  0  0  0  0  0  0  0
   57.9750   32.5050   46.2460 O   0  0  0  0  0  0  0  0  0  0  0  0
   57.4280   32.2010   44.9930 C   0  0  0  0  0  0  0  0  0  0  0  0
   57.9630   32.8820   43.7810 C   0  0  0  0  0  0  0  0  0  0  0  0
   56.5650   31.2900   44.8650 O   0  0  0  0  0  0  0  0  0  0  0  0
   59.8557   30.5300   44.3503 H   0  0  0  0  0  0  0  0  0  0  0  0
   59.0285   28.8918   43.8382 H   0  0  0  0  0  0  0  0  0  0  0  0
   58.1972   27.1082   44.6195 H   0  0  0  0  0  0  0  0  0  0  0  0
   58.8940   24.6410   46.7010 H   0  0  0  0  0  0  0  0  0  0  0  0
   57.8778   27.6662   48.5002 H   0  0  0  0  0  0  0  0  0  0  0  0
   58.8767   29.3693   50.1918 H   0  0  0  0  0  0  0  0  0  0  0  0
   60.0819   30.5499   49.5750 H   0  0  0  0  0  0  0  0  0  0  0  0
   58.3347   30.9670   49.5750 H   0  0  0  0  0  0  0  0  0  0  0  0
   61.9809   30.5756   47.3765 H   0  0  0  0  0  0  0  0  0  0  0  0
   63.1839   32.7565   47.2556 H   0  0  0  0  0  0  0  0  0  0  0  0
   61.9448   34.8360   46.6486 H   0  0  0  0  0  0  0  0  0  0  0  0
   59.4983   34.7407   46.1704 H   0  0  0  0  0  0  0  0  0  0  0  0
   58.6160   33.7132   44.0856 H   0  0  0  0  0  0  0  0  0  0  0  0
   58.5403   32.1630   43.1812 H   0  0  0  0  0  0  0  0  0  0  0  0
   57.1278   33.2727   43.1812 H   0  0  0  0  0  0  0  0  0  0  0  0
  1  2  2  0
  2  3  1  0
  3  4  2  3
  4  5  1  0
  5  6  1  0
  6  7  1  0
  7  8  2  0
  7  9  1  0
  9 10  1  0
 10 11  1  0
  3 12  1  0
 12 13  2  0
 13 14  1  0
 13 15  1  0
 15 16  1  0
 16 17  2  0
 17 18  1  0
 18 19  2  0
 19 20  1  0
 20 21  2  0
 21 22  1  0
 22 23  1  0
 23 24  1  0
 23 25  2  0
 15  2  1  0
 21 16  1  0
 10  5  2  0
  1 26  1  0
  1 27  1  0
  4 28  1  0
  6 29  1  0
 12 30  1  0
 14 31  1  0
 14 32  1  0
 14 33  1  0
 17 34  1  0
 18 35  1  0
 19 36  1  0
 20 37  1  0
 24 38  1  0
 24 39  1  0
 24 40  1  0
M  CHG  2   9  -1  11  -1
M  END
>  <UniqueID>  (72) 
72

>  <SMILES>  (72) 
C=c1c(=Cc2[nH]c(=O)[n-]c2[O-])cc(C)n1-c1ccccc1OC(C)=O

>  <Energy>  (72) 
116.79999122860553

>  <Genealogy>  (72) 
C=c1c(=Cc2[nH]c(=O)[n-]c2[O-])cc(C)n1-c1ccccc1OC(C)=O (protonated)
C=c1c(=Cc2[nH]c(=O)[n-]c2[O-])cc(C)n1-c1ccccc1OC(C)=O (3D coordinates assigned)
C=c1c(=Cc2[nH]c(=O)[n-]c2[O-])cc(C)n1-c1ccccc1OC(C)=O (optimized conformer: 116.79999122860553 kcal/mol)

>  <smiles>  (72) 
C=c1c(=Cc2[nH]c(=O)[nH]c2O)cc(C)n1-c1ccccc1OC(C)=O

>  <score_type>  (72) 
oracle

>  <origin>  (72) 
adg

>  <m_score__min__energy>  (72) 
-13.93

>  <m_primary>  (72) 
energy

$$$$
73:0
     RDKit          3D

 43 46  0  0  0  0  0  0  0  0999 V2000
   55.1570   27.8290   45.2160 H   0  0  0  0  0  0  0  0  0  0  0  0
   55.5290   28.7660   45.1120 O   0  0  0  0  0  0  0  0  0  0  0  0
   56.7870   29.0880   45.6090 C   0  0  0  0  0  0  0  0  0  0  0  0
   57.3540   30.3100   45.4580 N   0  0  0  0  0  0  0  0  0  0  0  0
   58.5330   30.2040   46.1010 C   0  0  0  0  0  0  0  0  0  0  0  0
   59.4810   31.2130   46.2610 C   0  0  0  0  0  0  0  0  0  0  0  0
   59.3260   32.2074   45.8171 H   0  0  0  0  0  0  0  0  0  0  0  0
   60.6470   30.9270   47.0080 C   0  0  0  0  0  0  0  0  0  0  0  0
   61.6810   31.9690   47.2110 C   0  0  0  0  0  0  0  0  0  0  0  0
   62.7970   31.6800   48.0160 C   0  0  0  0  0  0  0  0  0  0  0  0
   62.8972   30.6838   48.4716 H   0  0  0  0  0  0  0  0  0  0  0  0
   63.7780   32.6450   48.2420 C   0  0  0  0  0  0  0  0  0  0  0  0
   64.6446   32.4097   48.8774 H   0  0  0  0  0  0  0  0  0  0  0  0
   63.6610   33.9080   47.6630 C   0  0  0  0  0  0  0  0  0  0  0  0
   64.4347   34.6685   47.8446 H   0  0  0  0  0  0  0  0  0  0  0  0
   62.5640   34.2100   46.8530 C   0  0  0  0  0  0  0  0  0  0  0  0
   62.4799   35.2078   46.3976 H   0  0  0  0  0  0  0  0  0  0  0  0
   61.5650   33.2470   46.6150 C   0  0  0  0  0  0  0  0  0  0  0  0
   60.4530   33.5210   45.7470 N   0  0  0  0  0  0  0  0  0  0  0  0
   59.2010   34.6890   46.0220 S   0  0  0  0  0  0  0  0  0  0  0  0
   59.6090   35.9880   45.3880 O   0  0  0  0  0  0  0  0  0  0  0  0
   59.0150   34.9080   47.4970 O   0  0  0  0  0  0  0  0  0  0  0  0
   57.6800   34.1430   45.2750 C   0  0  0  0  0  0  0  0  0  0  0  0
   56.9572   33.8835   46.0625 H   0  0  0  0  0  0  0  0  0  0  0  0
   57.2681   34.9494   44.6505 H   0  0  0  0  0  0  0  0  0  0  0  0
   57.8750   33.2587   44.6505 H   0  0  0  0  0  0  0  0  0  0  0  0
   60.8100   29.6420   47.5900 C   0  0  0  0  0  0  0  0  0  0  0  0
   61.7089   29.4239   48.1852 H   0  0  0  0  0  0  0  0  0  0  0  0
   59.8340   28.6460   47.4130 C   0  0  0  0  0  0  0  0  0  0  0  0
   59.9521   27.6503   47.8654 H   0  0  0  0  0  0  0  0  0  0  0  0
   58.7120   28.9580   46.6470 C   0  0  0  0  0  0  0  0  0  0  0  0
   57.6020   28.2130   46.3110 C   0  0  0  0  0  0  0  0  0  0  0  0
   57.2480   26.8580   46.7610 C   0  0  0  0  0  0  0  0  0  0  0  0
   57.7734   26.4698   47.6460 H   0  0  0  0  0  0  0  0  0  0  0  0
   56.3380   26.0520   46.1850 C   0  0  0  0  0  0  0  0  0  0  0  0
   55.0220   26.3330   46.2500 N   0  0  0  0  0  0  0  0  0  0  0  0
   54.4350   25.3010   45.6140 C   0  0  0  0  0  0  0  0  0  0  0  0
   53.1870   25.2060   45.4820 O   0  0  0  0  0  0  0  0  0  0  0  0
   55.2910   24.3840   45.1250 N   0  0  0  0  0  0  0  0  0  0  0  0
   56.5010   24.8600   45.4690 C   0  0  0  0  0  0  0  0  0  0  0  0
   57.6280   24.2760   45.0510 C   0  0  0  0  0  0  0  0  0  0  0  0
   58.6038   24.6876   45.3484 H   0  0  0  0  0  0  0  0  0  0  0  0
   57.5799   23.3837   44.4096 H   0  0  0  0  0  0  0  0  0  0  0  0
  1  2  1  0
  2  3  1  0
  3  4  1  0
  4  5  1  0
  5  6  2  0
  6  7  1  0
  6  8  1  0
  8  9  1  0
  9 10  2  0
 10 11  1  0
 10 12  1  0
 12 13  1  0
 12 14  2  0
 14 15  1  0
 14 16  1  0
 16 17  1  0
 16 18  2  0
 18 19  1  0
 19 20  1  0
 20 21  2  0
 20 22  2  0
 20 23  1  0
 23 24  1  0
 23 25  1  0
 23 26  1  0
  8 27  2  0
 27 28  1  0
 27 29  1  0
 29 30  1  0
 29 31  2  0
 31 32  1  0
 32 33  1  0
 33 34  1  0
 33 35  2  0
 35 36  1  0
 36 37  1  0
 37 38  2  0
 37 39  1  0
 39 40  1  0
 40 41  2  0
 41 42  1  0
 41 43  1  0
 32  3  2  0
 40 35  1  0
 31  5  1  0
 18  9  1  0
M  CHG  4   4  -1  19  -1  36  -1  39  -1
M  END
>  <UniqueID>  (73) 
73

>  <SMILES>  (73) 
C=c1[n-]c(=O)[n-]/c1=C/c1c(O)[n-]c2cc(-c3ccccc3[N-]S(C)(=O)=O)ccc12

>  <Energy>  (73) 
125.6051838722195

>  <Genealogy>  (73) 
C=c1[n-]c(=O)[n-]c1=Cc1c(O)[n-]c2cc(-c3ccccc3[N-]S(C)(=O)=O)ccc12 (protonated)
C=c1[n-]c(=O)[n-]/c1=C/c1c(O)[n-]c2cc(-c3ccccc3[N-]S(C)(=O)=O)ccc12 (cis-trans isomerization)
C=c1[n-]c(=O)[n-]/c1=C/c1c(O)[n-]c2cc(-c3ccccc3[N-]S(C)(=O)=O)ccc12 (3D coordinates assigned)
C=c1[n-]c(=O)[n-]/c1=C/c1c(O)[n-]c2cc(-c3ccccc3[N-]S(C)(=O)=O)ccc12 (optimized conformer: 125.6051838722195 kcal/mol)

>  <smiles>  (73) 
C=c1[nH]c(=O)[nH]c1=Cc1c(O)[nH]c2cc(-c3ccccc3NS(C)(=O)=O)ccc12

>  <score_type>  (73) 
oracle

>  <origin>  (73) 
adg

>  <m_score__min__energy>  (73) 
-16.350000000000001

>  <m_primary>  (73) 
energy

$$$$
74:0
     RDKit          3D

 53 56  0  0  0  0  0  0  0  0999 V2000
   56.7700   34.0330   45.9530 O   0  0  0  0  0  0  0  0  0  0  0  0
   57.7640   33.2610   45.8870 C   0  0  0  0  0  0  0  0  0  0  0  0
   57.6230   31.9380   45.2420 C   0  0  0  0  0  0  0  0  0  0  0  0
   57.0910   31.8290   43.9510 C   0  0  0  0  0  0  0  0  0  0  0  0
   57.0080   30.5830   43.3280 C   0  0  0  0  0  0  0  0  0  0  0  0
   57.4440   29.4250   43.9820 C   0  0  0  0  0  0  0  0  0  0  0  0
   57.3820   28.2170   43.2850 O   0  0  0  0  0  0  0  0  0  0  0  0
   57.9310   29.5140   45.3090 C   0  0  0  0  0  0  0  0  0  0  0  0
   58.4300   28.3110   46.0710 C   0  0  0  0  0  0  0  0  0  0  0  0
   57.3320   27.3070   46.2250 C   0  0  0  0  0  0  0  0  0  0  0  0
   57.4120   26.1240   46.9280 C   0  0  0  0  0  0  0  0  0  0  0  0
   56.2540   25.4540   46.7890 N   0  0  0  0  0  0  0  0  0  0  0  0
   55.5170   26.2600   45.9970 C   0  0  0  0  0  0  0  0  0  0  0  0
   54.3480   25.9690   45.6330 O   0  0  0  0  0  0  0  0  0  0  0  0
   56.1340   27.3980   45.6200 N   0  0  0  0  0  0  0  0  0  0  0  0
   58.0180   30.7760   45.9220 C   0  0  0  0  0  0  0  0  0  0  0  0
   59.0210   33.6750   46.4480 N   0  0  0  0  0  0  0  0  0  0  0  0
   60.2400   33.6060   45.6270 C   0  0  0  0  0  0  0  0  0  0  0  0
   61.4580   34.1490   46.3790 C   0  0  0  0  0  0  0  0  0  0  0  0
   61.4540   33.6430   47.7560 N   0  0  0  0  0  0  0  0  0  0  0  0
   62.6910   33.2600   48.3760 C   0  0  0  0  0  0  0  0  0  0  0  0
   63.7280   33.9460   48.1690 O   0  0  0  0  0  0  0  0  0  0  0  0
   62.7560   32.1160   49.2450 N   0  0  0  0  0  0  0  0  0  0  0  0
   62.0830   30.8620   48.8840 C   0  0  0  0  0  0  0  0  0  0  0  0
   61.5650   30.1350   50.1480 C   0  0  0  0  0  0  0  0  0  0  0  0
   62.0670   30.6680   51.3660 O   0  0  0  0  0  0  0  0  0  0  0  0
   63.4550   30.9050   51.2650 C   0  0  0  0  0  0  0  0  0  0  0  0
   63.6970   32.1220   50.3700 C   0  0  0  0  0  0  0  0  0  0  0  0
   60.2360   33.7430   48.5770 C   0  0  0  0  0  0  0  0  0  0  0  0
   59.0580   34.3030   47.7730 C   0  0  0  0  0  0  0  0  0  0  0  0
   56.7373   32.7287   43.4262 H   0  0  0  0  0  0  0  0  0  0  0  0
   56.5951   30.5102   42.3110 H   0  0  0  0  0  0  0  0  0  0  0  0
   56.7990   27.4400   43.5630 H   0  0  0  0  0  0  0  0  0  0  0  0
   59.2663   27.8539   45.5217 H   0  0  0  0  0  0  0  0  0  0  0  0
   58.7668   28.6312   47.0680 H   0  0  0  0  0  0  0  0  0  0  0  0
   58.2819   25.7831   47.5086 H   0  0  0  0  0  0  0  0  0  0  0  0
   58.4015   30.8537   46.9501 H   0  0  0  0  0  0  0  0  0  0  0  0
   60.4276   32.5570   45.3541 H   0  0  0  0  0  0  0  0  0  0  0  0
   60.0860   34.2240   44.7302 H   0  0  0  0  0  0  0  0  0  0  0  0
   62.3772   33.8212   45.8715 H   0  0  0  0  0  0  0  0  0  0  0  0
   61.4168   35.2481   46.3943 H   0  0  0  0  0  0  0  0  0  0  0  0
   61.2331   31.0859   48.2225 H   0  0  0  0  0  0  0  0  0  0  0  0
   62.8043   30.2087   48.3712 H   0  0  0  0  0  0  0  0  0  0  0  0
   60.4676   30.2083   50.1643 H   0  0  0  0  0  0  0  0  0  0  0  0
   61.9183   29.0952   50.0852 H   0  0  0  0  0  0  0  0  0  0  0  0
   63.8686   31.0971   52.2660 H   0  0  0  0  0  0  0  0  0  0  0  0
   63.9483   30.0236   50.8293 H   0  0  0  0  0  0  0  0  0  0  0  0
   63.5545   33.0404   50.9585 H   0  0  0  0  0  0  0  0  0  0  0  0
   64.7247   32.0829   49.9797 H   0  0  0  0  0  0  0  0  0  0  0  0
   59.9716   32.7414   48.9469 H   0  0  0  0  0  0  0  0  0  0  0  0
   60.4396   34.4293   49.4122 H   0  0  0  0  0  0  0  0  0  0  0  0
   58.1187   34.0908   48.3046 H   0  0  0  0  0  0  0  0  0  0  0  0
   59.1796   35.3902   47.6577 H   0  0  0  0  0  0  0  0  0  0  0  0
  1  2  2  0
  2  3  1  0
  3  4  2  0
  4  5  1  0
  5  6  2  0
  6  7  1  0
  6  8  1  0
  8  9  1  0
  9 10  1  0
 10 11  2  0
 11 12  1  0
 12 13  1  0
 13 14  2  0
 13 15  1  0
  8 16  2  0
  2 17  1  0
 17 18  1  0
 18 19  1  0
 19 20  1  0
 20 21  1  0
 21 22  2  0
 21 23  1  0
 23 24  1  0
 24 25  1  0
 25 26  1  0
 26 27  1  0
 27 28  1  0
 20 29  1  0
 29 30  1  0
 16  3  1  0
 30 17  1  0
 15 10  1  0
 28 23  1  0
  4 31  1  0
  5 32  1  0
  7 33  1  0
  9 34  1  0
  9 35  1  0
 11 36  1  0
 16 37  1  0
 18 38  1  0
 18 39  1  0
 19 40  1  0
 19 41  1  0
 24 42  1  0
 24 43  1  0
 25 44  1  0
 25 45  1  0
 27 46  1  0
 27 47  1  0
 28 48  1  0
 28 49  1  0
 29 50  1  0
 29 51  1  0
 30 52  1  0
 30 53  1  0
M  CHG  2  12  -1  15  -1
M  END
>  <UniqueID>  (74) 
74

>  <SMILES>  (74) 
O=C(c1ccc(O)c(Cc2c[n-]c(=O)[n-]2)c1)N1CCN(C(=O)N2CCOCC2)CC1

>  <Energy>  (74) 
96.42346126770558

>  <Genealogy>  (74) 
O=C(c1ccc(O)c(Cc2c[n-]c(=O)[n-]2)c1)N1CCN(C(=O)N2CCOCC2)CC1 (protonated)
O=C(c1ccc(O)c(Cc2c[n-]c(=O)[n-]2)c1)N1CCN(C(=O)N2CCOCC2)CC1 (3D coordinates assigned)
O=C(c1ccc(O)c(Cc2c[n-]c(=O)[n-]2)c1)N1CCN(C(=O)N2CCOCC2)CC1 (nonaromatic ring conformer: 96.42346126770558 kcal/mol)

>  <smiles>  (74) 
O=C(c1ccc(O)c(Cc2c[nH]c(=O)[nH]2)c1)N1CCN(C(=O)N2CCOCC2)CC1

>  <score_type>  (74) 
oracle

>  <origin>  (74) 
adg

>  <m_score__min__energy>  (74) 
-12.949999999999999

>  <m_primary>  (74) 
energy

$$$$
75:0
     RDKit          3D

 50 52  0  0  0  0  0  0  0  0999 V2000
   56.1240   28.5500   44.4340 H   0  0  0  0  0  0  0  0  0  0  0  0
   56.0670   29.4120   44.9230 O   0  0  0  0  0  0  0  0  0  0  0  0
   57.3690   29.9270   44.9620 C   0  0  0  0  0  0  0  0  0  0  0  0
   57.3265   31.0230   45.0449 H   0  0  0  0  0  0  0  0  0  0  0  0
   57.8997   29.6470   44.0401 H   0  0  0  0  0  0  0  0  0  0  0  0
   58.1080   29.3580   46.1610 C   0  0  0  0  0  0  0  0  0  0  0  0
   57.9970   27.9830   46.5100 C   0  0  0  0  0  0  0  0  0  0  0  0
   57.1750   27.0250   45.7400 C   0  0  0  0  0  0  0  0  0  0  0  0
   57.4530   26.8390   44.5250 O   0  0  0  0  0  0  0  0  0  0  0  0
   56.0880   26.2790   46.3150 N   0  0  0  0  0  0  0  0  0  0  0  0
   55.3670   25.3540   45.7550 C   0  0  0  0  0  0  0  0  0  0  0  0
   54.0220   25.3970   45.6250 N   0  0  0  0  0  0  0  0  0  0  0  0
   53.5480   24.2940   44.9850 C   0  0  0  0  0  0  0  0  0  0  0  0
   52.0950   24.1300   44.6650 C   0  0  0  0  0  0  0  0  0  0  0  0
   51.5579   25.0518   44.9331 H   0  0  0  0  0  0  0  0  0  0  0  0
   51.9855   23.9301   43.5889 H   0  0  0  0  0  0  0  0  0  0  0  0
   51.5210   22.9820   45.4350 C   0  0  0  0  0  0  0  0  0  0  0  0
   50.5420   23.1600   46.2050 O   0  0  0  0  0  0  0  0  0  0  0  0
   52.0370   21.7050   45.2640 O   0  0  0  0  0  0  0  0  0  0  0  0
   54.5170   23.3640   44.6140 C   0  0  0  0  0  0  0  0  0  0  0  0
   54.3340   22.4115   44.0952 H   0  0  0  0  0  0  0  0  0  0  0  0
   56.0160   23.9540   45.0990 S   0  0  0  0  0  0  0  0  0  0  0  0
   58.7150   27.4810   47.6050 C   0  0  0  0  0  0  0  0  0  0  0  0
   58.6539   26.4106   47.8509 H   0  0  0  0  0  0  0  0  0  0  0  0
   59.5040   28.3220   48.3840 C   0  0  0  0  0  0  0  0  0  0  0  0
   60.0588   27.9153   49.2424 H   0  0  0  0  0  0  0  0  0  0  0  0
   59.5920   29.6750   48.0790 C   0  0  0  0  0  0  0  0  0  0  0  0
   60.2034   30.3366   48.7103 H   0  0  0  0  0  0  0  0  0  0  0  0
   58.9090   30.2060   46.9740 C   0  0  0  0  0  0  0  0  0  0  0  0
   59.0190   31.6630   46.7290 C   0  0  0  0  0  0  0  0  0  0  0  0
   57.8700   32.4380   46.5530 C   0  0  0  0  0  0  0  0  0  0  0  0
   56.8768   31.9652   46.5543 H   0  0  0  0  0  0  0  0  0  0  0  0
   57.9920   33.8130   46.3760 C   0  0  0  0  0  0  0  0  0  0  0  0
   57.0900   34.4320   46.2606 H   0  0  0  0  0  0  0  0  0  0  0  0
   59.2200   34.3950   46.3450 N   0  0  0  0  0  0  0  0  0  0  0  0
   59.2720   35.4310   46.2120 H   0  0  0  0  0  0  0  0  0  0  0  0
   60.3720   33.6690   46.4440 C   0  0  0  0  0  0  0  0  0  0  0  0
   61.5090   34.3080   46.3740 N   0  0  0  0  0  0  0  0  0  0  0  0
   62.8040   33.8780   46.8160 C   0  0  0  0  0  0  0  0  0  0  0  0
   63.7630   33.8040   46.0000 O   0  0  0  0  0  0  0  0  0  0  0  0
   63.0460   33.6800   48.2830 C   0  0  0  0  0  0  0  0  0  0  0  0
   64.1049   33.8833   48.5008 H   0  0  0  0  0  0  0  0  0  0  0  0
   62.7847   32.6423   48.5379 H   0  0  0  0  0  0  0  0  0  0  0  0
   62.2420   34.5440   49.0650 O   0  0  0  0  0  0  0  0  0  0  0  0
   61.2600   33.8040   49.7570 C   0  0  0  0  0  0  0  0  0  0  0  0
   61.4110   33.9178   50.8406 H   0  0  0  0  0  0  0  0  0  0  0  0
   60.2612   34.1759   49.4849 H   0  0  0  0  0  0  0  0  0  0  0  0
   61.3422   32.7414   49.4849 H   0  0  0  0  0  0  0  0  0  0  0  0
   60.2830   32.2710   46.6560 C   0  0  0  0  0  0  0  0  0  0  0  0
   61.3820   31.5070   46.8820 F   0  0  0  0  0  0  0  0  0  0  0  0
  1  2  1  0
  2  3  1  0
  3  4  1  0
  3  5  1  0
  3  6  1  0
  6  7  2  0
  7  8  1  0
  8  9  2  0
  8 10  1  0
 10 11  2  3
 11 12  1  0
 12 13  1  0
 13 14  1  0
 14 15  1  0
 14 16  1  0
 14 17  1  0
 17 18  2  0
 17 19  1  0
 13 20  2  0
 20 21  1  0
 20 22  1  0
  7 23  1  0
 23 24  1  0
 23 25  2  0
 25 26  1  0
 25 27  1  0
 27 28  1  0
 27 29  2  0
 29 30  1  0
 30 31  1  0
 31 32  1  0
 31 33  2  0
 33 34  1  0
 33 35  1  0
 35 36  1  0
 35 37  1  0
 37 38  2  0
 38 39  1  0
 39 40  2  0
 39 41  1  0
 41 42  1  0
 41 43  1  0
 41 44  1  0
 44 45  1  0
 45 46  1  0
 45 47  1  0
 45 48  1  0
 37 49  1  0
 49 50  1  0
 29  6  1  0
 49 30  2  0
 22 11  1  0
M  CHG  2  12  -1  19  -1
M  END
>  <UniqueID>  (75) 
75

>  <SMILES>  (75) 
COCC(=O)/N=c1/[nH]ccc(-c2cccc(C(=O)N=c3[n-]c(CC(=O)[O-])cs3)c2CO)c1F

>  <Energy>  (75) 
108.1404562823081

>  <Genealogy>  (75) 
COCC(=O)N=c1[nH]ccc(-c2cccc(C(=O)N=c3[n-]c(CC(=O)[O-])cs3)c2CO)c1F (protonated)
COCC(=O)/N=c1/[nH]ccc(-c2cccc(C(=O)N=c3[n-]c(CC(=O)[O-])cs3)c2CO)c1F (cis-trans isomerization)
COCC(=O)/N=c1/[nH]ccc(-c2cccc(C(=O)N=c3[n-]c(CC(=O)[O-])cs3)c2CO)c1F (3D coordinates assigned)
COCC(=O)/N=c1/[nH]ccc(-c2cccc(C(=O)N=c3[n-]c(CC(=O)[O-])cs3)c2CO)c1F (optimized conformer: 108.1404562823081 kcal/mol)

>  <smiles>  (75) 
COCC(=O)N=c1[nH]ccc(-c2cccc(C(=O)N=c3[nH]c(CC(=O)O)cs3)c2CO)c1F

>  <score_type>  (75) 
oracle

>  <origin>  (75) 
adg

>  <m_score__min__energy>  (75) 
-12.130000000000001

>  <m_primary>  (75) 
energy

$$$$
76:0
     RDKit          3D

 52 55  0  0  0  0  0  0  0  0999 V2000
   63.2560   33.2150   47.2760 C   0  0  0  0  0  0  0  0  0  0  0  0
   62.0760   32.8730   48.1790 C   0  0  0  0  0  0  0  0  0  0  0  0
   60.8160   33.2550   47.5420 N   0  0  0  0  0  0  0  0  0  0  0  0
   60.2470   34.6030   47.5700 C   0  0  0  0  0  0  0  0  0  0  0  0
   58.9440   34.5330   46.7350 C   0  0  0  0  0  0  0  0  0  0  0  0
   58.9050   33.1170   46.2730 C   0  0  0  0  0  0  0  0  0  0  0  0
   57.9500   32.5030   45.4640 C   0  0  0  0  0  0  0  0  0  0  0  0
   58.1110   31.1420   45.1410 C   0  0  0  0  0  0  0  0  0  0  0  0
   56.9230   30.3360   44.1210 S   0  0  0  0  0  0  0  0  0  0  0  0
   55.5380   30.7790   44.5090 O   0  0  0  0  0  0  0  0  0  0  0  0
   57.1650   30.7330   42.6910 O   0  0  0  0  0  0  0  0  0  0  0  0
   57.0700   28.6050   44.2850 N   0  0  0  0  0  0  0  0  0  0  0  0
   58.3620   28.1440   43.7210 C   0  0  0  0  0  0  0  0  0  0  0  0
   58.8210   26.7820   44.2810 C   0  0  0  0  0  0  0  0  0  0  0  0
   57.6900   26.0350   44.8420 N   0  0  0  0  0  0  0  0  0  0  0  0
   57.4780   24.6490   44.5080 C   0  0  0  0  0  0  0  0  0  0  0  0
   56.6510   24.2920   43.4300 C   0  0  0  0  0  0  0  0  0  0  0  0
   56.4610   22.9460   43.1000 C   0  0  0  0  0  0  0  0  0  0  0  0
   57.1000   21.9460   43.8360 C   0  0  0  0  0  0  0  0  0  0  0  0
   56.9170   20.6430   43.5120 F   0  0  0  0  0  0  0  0  0  0  0  0
   57.9300   22.2900   44.9060 C   0  0  0  0  0  0  0  0  0  0  0  0
   58.1210   23.6350   45.2420 C   0  0  0  0  0  0  0  0  0  0  0  0
   56.8230   26.6950   45.8270 C   0  0  0  0  0  0  0  0  0  0  0  0
   56.9220   28.2230   45.7030 C   0  0  0  0  0  0  0  0  0  0  0  0
   59.2360   30.4370   45.6190 C   0  0  0  0  0  0  0  0  0  0  0  0
   60.1860   31.0790   46.4290 C   0  0  0  0  0  0  0  0  0  0  0  0
   59.9860   32.4260   46.7470 C   0  0  0  0  0  0  0  0  0  0  0  0
   64.1297   33.4682   47.8945 H   0  0  0  0  0  0  0  0  0  0  0  0
   63.4948   32.3491   46.6410 H   0  0  0  0  0  0  0  0  0  0  0  0
   62.9948   34.0744   46.6410 H   0  0  0  0  0  0  0  0  0  0  0  0
   62.0701   31.7902   48.3725 H   0  0  0  0  0  0  0  0  0  0  0  0
   62.1790   33.4265   49.1240 H   0  0  0  0  0  0  0  0  0  0  0  0
   60.0226   34.9019   48.6046 H   0  0  0  0  0  0  0  0  0  0  0  0
   60.9484   35.3453   47.1614 H   0  0  0  0  0  0  0  0  0  0  0  0
   58.0663   34.7691   47.3547 H   0  0  0  0  0  0  0  0  0  0  0  0
   58.9262   35.2557   45.9059 H   0  0  0  0  0  0  0  0  0  0  0  0
   57.0873   33.0708   45.0853 H   0  0  0  0  0  0  0  0  0  0  0  0
   56.2870   28.1770   43.7350 H   0  0  0  0  0  0  0  0  0  0  0  0
   58.2546   28.0546   42.6299 H   0  0  0  0  0  0  0  0  0  0  0  0
   59.1238   28.8857   44.0032 H   0  0  0  0  0  0  0  0  0  0  0  0
   59.2733   26.1935   43.4692 H   0  0  0  0  0  0  0  0  0  0  0  0
   59.5535   26.9617   45.0817 H   0  0  0  0  0  0  0  0  0  0  0  0
   56.1501   25.0753   42.8421 H   0  0  0  0  0  0  0  0  0  0  0  0
   55.8065   22.6746   42.2586 H   0  0  0  0  0  0  0  0  0  0  0  0
   58.4341   21.5024   45.4852 H   0  0  0  0  0  0  0  0  0  0  0  0
   58.7770   23.9009   46.0840 H   0  0  0  0  0  0  0  0  0  0  0  0
   55.7814   26.3859   45.6552 H   0  0  0  0  0  0  0  0  0  0  0  0
   57.1479   26.4011   46.8360 H   0  0  0  0  0  0  0  0  0  0  0  0
   56.0090   28.6816   46.1106 H   0  0  0  0  0  0  0  0  0  0  0  0
   57.7991   28.5752   46.2657 H   0  0  0  0  0  0  0  0  0  0  0  0
   59.3695   29.3775   45.3552 H   0  0  0  0  0  0  0  0  0  0  0  0
   61.0659   30.5359   46.8043 H   0  0  0  0  0  0  0  0  0  0  0  0
  1  2  1  0
  2  3  1  0
  3  4  1  0
  4  5  1  0
  5  6  1  0
  6  7  2  0
  7  8  1  0
  8  9  1  0
  9 10  2  0
  9 11  2  0
  9 12  1  0
 12 13  1  0
 13 14  1  0
 14 15  1  0
 15 16  1  0
 16 17  2  0
 17 18  1  0
 18 19  2  0
 19 20  1  0
 19 21  1  0
 21 22  2  0
 15 23  1  0
 23 24  1  0
  8 25  2  0
 25 26  1  0
 26 27  2  0
 27  3  1  0
 27  6  1  0
 24 12  1  0
 22 16  1  0
  1 28  1  0
  1 29  1  0
  1 30  1  0
  2 31  1  0
  2 32  1  0
  4 33  1  0
  4 34  1  0
  5 35  1  0
  5 36  1  0
  7 37  1  0
 12 38  1  0
 13 39  1  0
 13 40  1  0
 14 41  1  0
 14 42  1  0
 17 43  1  0
 18 44  1  0
 21 45  1  0
 22 46  1  0
 23 47  1  0
 23 48  1  0
 24 49  1  0
 24 50  1  0
 25 51  1  0
 26 52  1  0
M  CHG  1  12   1
M  END
>  <UniqueID>  (76) 
76

>  <SMILES>  (76) 
CCN1CCc2cc(S(=O)(=O)[NH+]3CCN(c4ccc(F)cc4)CC3)ccc21

>  <Energy>  (76) 
72.0852989559007

>  <Genealogy>  (76) 
CCN1CCc2cc(S(=O)(=O)[NH+]3CCN(c4ccc(F)cc4)CC3)ccc21 (protonated)
CCN1CCc2cc(S(=O)(=O)[NH+]3CCN(c4ccc(F)cc4)CC3)ccc21 (3D coordinates assigned)
CCN1CCc2cc(S(=O)(=O)[NH+]3CCN(c4ccc(F)cc4)CC3)ccc21 (nonaromatic ring conformer: 72.0852989559007 kcal/mol)

>  <smiles>  (76) 
CCN1CCc2cc(S(=O)(=O)N3CCN(c4ccc(F)cc4)CC3)ccc21

>  <score_type>  (76) 
oracle

>  <origin>  (76) 
adg

>  <m_score__min__energy>  (76) 
-7.0899999999999999

>  <m_primary>  (76) 
energy

$$$$
77:0
     RDKit          3D

 50 53  0  0  0  0  0  0  0  0999 V2000
   51.1310   33.7500   49.3210 H   0  0  0  0  0  0  0  0  0  0  0  0
   51.0000   32.7150   49.3350 N   0  0  0  0  0  0  0  0  0  0  0  0
   51.3600   31.9480   50.4840 C   0  0  0  0  0  0  0  0  0  0  0  0
   51.1580   32.4130   51.6390 O   0  0  0  0  0  0  0  0  0  0  0  0
   51.9440   30.5810   50.3180 C   0  0  0  0  0  0  0  0  0  0  0  0
   51.1689   29.8278   50.5225 H   0  0  0  0  0  0  0  0  0  0  0  0
   52.3125   30.4715   49.2874 H   0  0  0  0  0  0  0  0  0  0  0  0
   53.0850   30.3860   51.2670 C   0  0  0  0  0  0  0  0  0  0  0  0
   54.1570   31.2220   51.2750 N   0  0  0  0  0  0  0  0  0  0  0  0
   55.0470   30.8770   52.2320 C   0  0  0  0  0  0  0  0  0  0  0  0
   56.1670   31.4970   52.4570 N   0  0  0  0  0  0  0  0  0  0  0  0
   57.3750   31.4030   51.6860 C   0  0  0  0  0  0  0  0  0  0  0  0
   58.3920   30.0670   51.5350 S   0  0  0  0  0  0  0  0  0  0  0  0
   59.5150   30.8110   50.5300 C   0  0  0  0  0  0  0  0  0  0  0  0
   60.4250   30.3429   50.1264 H   0  0  0  0  0  0  0  0  0  0  0  0
   59.0990   32.1240   50.2930 C   0  0  0  0  0  0  0  0  0  0  0  0
   59.8560   33.0930   49.4710 C   0  0  0  0  0  0  0  0  0  0  0  0
   60.2030   34.1920   49.9760 O   0  0  0  0  0  0  0  0  0  0  0  0
   60.2520   32.8010   48.1250 N   0  0  0  0  0  0  0  0  0  0  0  0
   59.3850   32.7670   46.9810 C   0  0  0  0  0  0  0  0  0  0  0  0
   59.1530   33.9110   46.1990 C   0  0  0  0  0  0  0  0  0  0  0  0
   59.6208   34.8680   46.4736 H   0  0  0  0  0  0  0  0  0  0  0  0
   58.3290   33.8350   45.0730 C   0  0  0  0  0  0  0  0  0  0  0  0
   58.1465   34.7338   44.4656 H   0  0  0  0  0  0  0  0  0  0  0  0
   57.7360   32.6210   44.7160 C   0  0  0  0  0  0  0  0  0  0  0  0
   57.0914   32.5676   43.8262 H   0  0  0  0  0  0  0  0  0  0  0  0
   57.9590   31.4680   45.4880 C   0  0  0  0  0  0  0  0  0  0  0  0
   57.3350   30.1820   45.1000 C   0  0  0  0  0  0  0  0  0  0  0  0
   56.1040   30.1540   44.8310 O   0  0  0  0  0  0  0  0  0  0  0  0
   58.0980   28.9600   45.0360 N   0  0  0  0  0  0  0  0  0  0  0  0
   59.1810   28.6820   45.9850 C   0  0  0  0  0  0  0  0  0  0  0  0
   60.1504   28.8834   45.5057 H   0  0  0  0  0  0  0  0  0  0  0  0
   59.0708   29.3268   46.8693 H   0  0  0  0  0  0  0  0  0  0  0  0
   59.1160   27.2130   46.4100 C   0  0  0  0  0  0  0  0  0  0  0  0
   59.9919   26.9780   47.0325 H   0  0  0  0  0  0  0  0  0  0  0  0
   58.1889   27.0499   46.9792 H   0  0  0  0  0  0  0  0  0  0  0  0
   59.1100   26.3650   45.2770 O   0  0  0  0  0  0  0  0  0  0  0  0
   57.9220   26.5660   44.5320 C   0  0  0  0  0  0  0  0  0  0  0  0
   57.8921   25.8452   43.7016 H   0  0  0  0  0  0  0  0  0  0  0  0
   57.0607   26.4204   45.2006 H   0  0  0  0  0  0  0  0  0  0  0  0
   57.8630   27.9890   43.9630 C   0  0  0  0  0  0  0  0  0  0  0  0
   58.6355   28.1056   43.1887 H   0  0  0  0  0  0  0  0  0  0  0  0
   56.8701   28.1648   43.5234 H   0  0  0  0  0  0  0  0  0  0  0  0
   58.8070   31.5480   46.6060 C   0  0  0  0  0  0  0  0  0  0  0  0
   59.0191   30.6424   47.1933 H   0  0  0  0  0  0  0  0  0  0  0  0
   57.9040   32.4550   50.9540 C   0  0  0  0  0  0  0  0  0  0  0  0
   57.4355   33.4486   50.8965 H   0  0  0  0  0  0  0  0  0  0  0  0
   54.5390   29.5370   53.1070 S   0  0  0  0  0  0  0  0  0  0  0  0
   53.1120   29.3770   52.2290 C   0  0  0  0  0  0  0  0  0  0  0  0
   52.3376   28.6118   52.3863 H   0  0  0  0  0  0  0  0  0  0  0  0
  1  2  1  0
  2  3  1  0
  3  4  2  0
  3  5  1  0
  5  6  1  0
  5  7  1  0
  5  8  1  0
  8  9  1  0
  9 10  1  0
 10 11  2  0
 11 12  1  0
 12 13  1  0
 13 14  1  0
 14 15  1  0
 14 16  2  0
 16 17  1  0
 17 18  2  0
 17 19  1  0
 19 20  1  0
 20 21  2  0
 21 22  1  0
 21 23  1  0
 23 24  1  0
 23 25  2  0
 25 26  1  0
 25 27  1  0
 27 28  1  0
 28 29  2  0
 28 30  1  0
 30 31  1  0
 31 32  1  0
 31 33  1  0
 31 34  1  0
 34 35  1  0
 34 36  1  0
 34 37  1  0
 37 38  1  0
 38 39  1  0
 38 40  1  0
 38 41  1  0
 41 42  1  0
 41 43  1  0
 27 44  2  0
 44 45  1  0
 16 46  1  0
 46 47  1  0
 10 48  1  0
 48 49  1  0
 49 50  1  0
 49  8  2  0
 46 12  2  0
 44 20  1  0
 41 30  1  0
M  CHG  3   2  -1   9  -1  19  -1
M  END
>  <UniqueID>  (77) 
77

>  <SMILES>  (77) 
[NH-]C(=O)Cc1cs/c(=N/c2cc(C(=O)[N-]c3cccc(C(=O)N4CCOCC4)c3)cs2)[n-]1

>  <Energy>  (77) 
121.7123819630111

>  <Genealogy>  (77) 
[NH-]C(=O)Cc1csc(=Nc2cc(C(=O)[N-]c3cccc(C(=O)N4CCOCC4)c3)cs2)[n-]1 (protonated)
[NH-]C(=O)Cc1cs/c(=N/c2cc(C(=O)[N-]c3cccc(C(=O)N4CCOCC4)c3)cs2)[n-]1 (cis-trans isomerization)
[NH-]C(=O)Cc1cs/c(=N/c2cc(C(=O)[N-]c3cccc(C(=O)N4CCOCC4)c3)cs2)[n-]1 (3D coordinates assigned)
[NH-]C(=O)Cc1cs/c(=N/c2cc(C(=O)[N-]c3cccc(C(=O)N4CCOCC4)c3)cs2)[n-]1 (nonaromatic ring conformer: 121.7123819630111 kcal/mol)

>  <smiles>  (77) 
NC(=O)Cc1csc(=Nc2cc(C(=O)Nc3cccc(C(=O)N4CCOCC4)c3)cs2)[nH]1

>  <score_type>  (77) 
oracle

>  <origin>  (77) 
adg

>  <m_score__min__energy>  (77) 
-14.98

>  <m_primary>  (77) 
energy

$$$$
78:0
     RDKit          3D

 51 53  0  0  0  0  0  0  0  0999 V2000
   56.6740   21.8100   43.0100 C   0  0  0  0  0  0  0  0  0  0  0  0
   56.4070   22.4420   44.3130 N   0  0  0  0  0  0  0  0  0  0  0  0
   57.6660   22.5770   45.0630 C   0  0  0  0  0  0  0  0  0  0  0  0
   55.7790   23.7670   44.1360 C   0  0  0  0  0  0  0  0  0  0  0  0
   55.9650   24.6150   45.3680 C   0  0  0  0  0  0  0  0  0  0  0  0
   55.2850   24.3320   46.3920 O   0  0  0  0  0  0  0  0  0  0  0  0
   56.9290   25.7500   45.4170 C   0  0  0  0  0  0  0  0  0  0  0  0
   57.0440   26.5230   46.5860 C   0  0  0  0  0  0  0  0  0  0  0  0
   57.9440   27.5900   46.6530 C   0  0  0  0  0  0  0  0  0  0  0  0
   58.7580   27.9080   45.5530 C   0  0  0  0  0  0  0  0  0  0  0  0
   59.7110   29.0430   45.6100 C   0  0  0  0  0  0  0  0  0  0  0  0
   60.2690   29.4370   44.5490 O   0  0  0  0  0  0  0  0  0  0  0  0
   60.0420   29.6690   46.8620 N   0  0  0  0  0  0  0  0  0  0  0  0
   60.6260   30.9800   46.9600 C   0  0  0  0  0  0  0  0  0  0  0  0
   61.9450   31.1240   47.4080 C   0  0  0  0  0  0  0  0  0  0  0  0
   62.5030   32.3580   47.5060 N   0  0  0  0  0  0  0  0  0  0  0  0
   61.8160   33.4850   47.1840 C   0  0  0  0  0  0  0  0  0  0  0  0
   60.4890   33.4010   46.7370 C   0  0  0  0  0  0  0  0  0  0  0  0
   59.7340   34.6300   46.3860 C   0  0  0  0  0  0  0  0  0  0  0  0
   59.9540   35.6930   47.0250 O   0  0  0  0  0  0  0  0  0  0  0  0
   58.7190   34.6370   45.3720 N   0  0  0  0  0  0  0  0  0  0  0  0
   58.1580   33.4820   44.7300 C   0  0  0  0  0  0  0  0  0  0  0  0
   57.2110   32.7160   45.4210 C   0  0  0  0  0  0  0  0  0  0  0  0
   56.6580   31.5750   44.8290 C   0  0  0  0  0  0  0  0  0  0  0  0
   57.0360   31.2040   43.5350 C   0  0  0  0  0  0  0  0  0  0  0  0
   56.2910   29.6390   42.7330 Br  0  0  0  0  0  0  0  0  0  0  0  0
   57.9590   31.9820   42.8280 C   0  0  0  0  0  0  0  0  0  0  0  0
   58.5130   33.1210   43.4180 C   0  0  0  0  0  0  0  0  0  0  0  0
   59.8890   32.1340   46.6590 C   0  0  0  0  0  0  0  0  0  0  0  0
   58.6370   27.1450   44.3800 C   0  0  0  0  0  0  0  0  0  0  0  0
   57.7370   26.0780   44.3120 C   0  0  0  0  0  0  0  0  0  0  0  0
   57.0976   20.8073   43.1687 H   0  0  0  0  0  0  0  0  0  0  0  0
   55.7346   21.7258   42.4440 H   0  0  0  0  0  0  0  0  0  0  0  0
   57.3893   22.4248   42.4440 H   0  0  0  0  0  0  0  0  0  0  0  0
   57.4542   22.5543   46.1422 H   0  0  0  0  0  0  0  0  0  0  0  0
   58.3382   21.7458   44.8037 H   0  0  0  0  0  0  0  0  0  0  0  0
   58.1467   23.5318   44.8037 H   0  0  0  0  0  0  0  0  0  0  0  0
   56.2415   24.2736   43.2761 H   0  0  0  0  0  0  0  0  0  0  0  0
   54.7017   23.6269   43.9631 H   0  0  0  0  0  0  0  0  0  0  0  0
   56.4178   26.2849   47.4585 H   0  0  0  0  0  0  0  0  0  0  0  0
   58.0157   28.1859   47.5748 H   0  0  0  0  0  0  0  0  0  0  0  0
   59.9750   29.0970   47.7330 H   0  0  0  0  0  0  0  0  0  0  0  0
   62.5311   30.2342   47.6815 H   0  0  0  0  0  0  0  0  0  0  0  0
   62.3024   34.4675   47.2742 H   0  0  0  0  0  0  0  0  0  0  0  0
   56.9004   33.0126   46.4337 H   0  0  0  0  0  0  0  0  0  0  0  0
   55.9251   30.9693   45.3822 H   0  0  0  0  0  0  0  0  0  0  0  0
   58.2491   31.6966   41.8060 H   0  0  0  0  0  0  0  0  0  0  0  0
   59.2290   33.7372   42.8545 H   0  0  0  0  0  0  0  0  0  0  0  0
   58.8341   32.0463   46.3599 H   0  0  0  0  0  0  0  0  0  0  0  0
   59.2574   27.3899   43.5053 H   0  0  0  0  0  0  0  0  0  0  0  0
   57.6593   25.4889   43.3863 H   0  0  0  0  0  0  0  0  0  0  0  0
  1  2  1  0
  2  3  1  0
  2  4  1  0
  4  5  1  0
  5  6  2  0
  5  7  1  0
  7  8  2  0
  8  9  1  0
  9 10  2  0
 10 11  1  0
 11 12  2  0
 11 13  1  0
 13 14  1  0
 14 15  2  0
 15 16  1  0
 16 17  2  0
 17 18  1  0
 18 19  1  0
 19 20  2  0
 19 21  1  0
 21 22  1  0
 22 23  2  0
 23 24  1  0
 24 25  2  0
 25 26  1  0
 25 27  1  0
 27 28  2  0
 18 29  2  0
 10 30  1  0
 30 31  2  0
 31  7  1  0
 29 14  1  0
 28 22  1  0
  1 32  1  0
  1 33  1  0
  1 34  1  0
  3 35  1  0
  3 36  1  0
  3 37  1  0
  4 38  1  0
  4 39  1  0
  8 40  1  0
  9 41  1  0
 13 42  1  0
 15 43  1  0
 17 44  1  0
 23 45  1  0
 24 46  1  0
 27 47  1  0
 28 48  1  0
 29 49  1  0
 30 50  1  0
 31 51  1  0
M  CHG  1  21  -1
M  END
>  <UniqueID>  (78) 
78

>  <SMILES>  (78) 
CN(C)CC(=O)c1ccc(C(=O)Nc2cncc(C(=O)[N-]c3ccc(Br)cc3)c2)cc1

>  <Energy>  (78) 
65.96894605451021

>  <Genealogy>  (78) 
CN(C)CC(=O)c1ccc(C(=O)Nc2cncc(C(=O)[N-]c3ccc(Br)cc3)c2)cc1 (protonated)
CN(C)CC(=O)c1ccc(C(=O)Nc2cncc(C(=O)[N-]c3ccc(Br)cc3)c2)cc1 (3D coordinates assigned)
CN(C)CC(=O)c1ccc(C(=O)Nc2cncc(C(=O)[N-]c3ccc(Br)cc3)c2)cc1 (optimized conformer: 65.96894605451021 kcal/mol)

>  <smiles>  (78) 
CN(C)CC(=O)c1ccc(C(=O)Nc2cncc(C(=O)Nc3ccc(Br)cc3)c2)cc1

>  <score_type>  (78) 
oracle

>  <origin>  (78) 
adg

>  <m_score__min__energy>  (78) 
-10

>  <m_primary>  (78) 
energy

$$$$
79:0
     RDKit          3D

 74 78  0  0  0  0  0  0  0  0999 V2000
   55.5180   26.7790   45.9820 N   0  0  0  0  0  0  0  0  0  0  0  0
   56.7500   26.3840   46.5830 C   0  0  0  0  0  0  0  0  0  0  0  0
   56.8080   25.2700   47.1740 O   0  0  0  0  0  0  0  0  0  0  0  0
   57.9490   27.2610   46.5210 C   0  0  0  0  0  0  0  0  0  0  0  0
   58.5130   27.7640   47.7120 C   0  0  0  0  0  0  0  0  0  0  0  0
   59.6440   28.5980   47.6820 C   0  0  0  0  0  0  0  0  0  0  0  0
   60.2480   29.1170   48.9630 C   0  0  0  0  0  0  0  0  0  0  0  0
   59.2310   29.8570   49.7970 C   0  0  0  0  0  0  0  0  0  0  0  0
   58.8310   29.5290   51.0870 C   0  0  0  0  0  0  0  0  0  0  0  0
   59.2700   28.4390   51.8350 O   0  0  0  0  0  0  0  0  0  0  0  0
   57.9350   30.4430   51.5310 N   0  0  0  0  0  0  0  0  0  0  0  0
   57.3080   30.5810   52.8600 C   0  0  2  0  0  0  0  0  0  0  0  0
   58.2030   31.3740   53.8430 C   0  0  0  0  0  0  0  0  0  0  0  0
   59.4130   32.0150   53.2050 C   0  0  0  0  0  0  0  0  0  0  0  0
   59.3160   33.2740   52.5870 C   0  0  0  0  0  0  0  0  0  0  0  0
   60.4360   33.8490   51.9760 C   0  0  0  0  0  0  0  0  0  0  0  0
   61.6570   33.1680   51.9710 C   0  0  0  0  0  0  0  0  0  0  0  0
   61.7610   31.9110   52.5740 C   0  0  0  0  0  0  0  0  0  0  0  0
   60.6460   31.3380   53.1930 C   0  0  0  0  0  0  0  0  0  0  0  0
   56.8400   29.2570   53.4170 C   0  0  0  0  0  0  0  0  0  0  0  0
   57.6710   28.4050   53.8310 O   0  0  0  0  0  0  0  0  0  0  0  0
   55.4350   28.9890   53.5130 N   0  0  0  0  0  0  0  0  0  0  0  0
   54.4080   29.8460   52.9960 C   0  0  0  0  0  0  0  0  0  0  0  0
   54.5210   30.3380   51.6900 C   0  0  0  0  0  0  0  0  0  0  0  0
   53.5140   31.1520   51.1520 C   0  0  0  0  0  0  0  0  0  0  0  0
   52.3690   31.4660   51.9070 C   0  0  0  0  0  0  0  0  0  0  0  0
   51.3230   32.3420   51.3420 C   0  0  0  0  0  0  0  0  0  0  0  0
   50.7070   33.1620   52.0770 O   0  0  0  0  0  0  0  0  0  0  0  0
   51.0330   32.3030   49.9860 O   0  0  0  0  0  0  0  0  0  0  0  0
   52.2460   30.9470   53.2090 C   0  0  0  0  0  0  0  0  0  0  0  0
   53.2580   30.1470   53.7500 C   0  0  0  0  0  0  0  0  0  0  0  0
   57.8170   31.3160   50.5060 C   0  0  0  0  0  0  0  0  0  0  0  0
   57.0790   32.3380   50.5480 O   0  0  0  0  0  0  0  0  0  0  0  0
   58.5800   30.9920   49.4380 N   0  0  0  0  0  0  0  0  0  0  0  0
   58.6820   31.7600   48.1930 C   0  0  0  0  0  0  0  0  0  0  0  0
   59.3460   33.1170   48.4460 C   0  0  0  0  0  0  0  0  0  0  0  0
   60.8110   33.0590   48.0980 C   0  0  0  0  0  0  0  0  0  0  0  0
   61.3330   33.8770   47.0810 C   0  0  0  0  0  0  0  0  0  0  0  0
   62.6850   33.7900   46.7310 C   0  0  0  0  0  0  0  0  0  0  0  0
   63.5210   32.8800   47.3860 C   0  0  0  0  0  0  0  0  0  0  0  0
   63.0070   32.0540   48.3900 C   0  0  0  0  0  0  0  0  0  0  0  0
   61.6560   32.1390   48.7430 C   0  0  0  0  0  0  0  0  0  0  0  0
   60.2250   28.9150   46.4460 C   0  0  0  0  0  0  0  0  0  0  0  0
   59.6880   28.4120   45.2630 C   0  0  0  0  0  0  0  0  0  0  0  0
   58.5580   27.5940   45.2900 C   0  0  0  0  0  0  0  0  0  0  0  0
   58.0770   27.1230   44.1120 F   0  0  0  0  0  0  0  0  0  0  0  0
   54.7130   27.0940   46.5650 H   0  0  0  0  0  0  0  0  0  0  0  0
   58.0607   27.4995   48.6792 H   0  0  0  0  0  0  0  0  0  0  0  0
   60.6364   28.2677   49.5443 H   0  0  0  0  0  0  0  0  0  0  0  0
   61.0554   29.8176   48.7035 H   0  0  0  0  0  0  0  0  0  0  0  0
   58.7850   28.1220   52.6640 H   0  0  0  0  0  0  0  0  0  0  0  0
   56.3970   31.1824   52.7243 H   0  0  0  0  0  0  0  0  0  0  0  0
   57.5935   32.1677   54.2997 H   0  0  0  0  0  0  0  0  0  0  0  0
   58.5822   30.6488   54.5780 H   0  0  0  0  0  0  0  0  0  0  0  0
   58.3552   33.8096   52.5837 H   0  0  0  0  0  0  0  0  0  0  0  0
   60.3557   34.8372   51.4995 H   0  0  0  0  0  0  0  0  0  0  0  0
   62.5371   33.6219   51.4919 H   0  0  0  0  0  0  0  0  0  0  0  0
   62.7202   31.3727   52.5614 H   0  0  0  0  0  0  0  0  0  0  0  0
   60.7334   30.3523   53.6733 H   0  0  0  0  0  0  0  0  0  0  0  0
   55.4032   30.0850   51.0837 H   0  0  0  0  0  0  0  0  0  0  0  0
   53.6200   31.5483   50.1314 H   0  0  0  0  0  0  0  0  0  0  0  0
   51.3490   31.1716   53.8048 H   0  0  0  0  0  0  0  0  0  0  0  0
   53.1545   29.7507   54.7709 H   0  0  0  0  0  0  0  0  0  0  0  0
   59.2840   31.1932   47.4675 H   0  0  0  0  0  0  0  0  0  0  0  0
   57.6693   31.9302   47.7988 H   0  0  0  0  0  0  0  0  0  0  0  0
   58.8561   33.8814   47.8250 H   0  0  0  0  0  0  0  0  0  0  0  0
   59.2425   33.3714   49.5112 H   0  0  0  0  0  0  0  0  0  0  0  0
   60.6763   34.5881   46.5584 H   0  0  0  0  0  0  0  0  0  0  0  0
   63.0907   34.4379   45.9400 H   0  0  0  0  0  0  0  0  0  0  0  0
   64.5840   32.8141   47.1109 H   0  0  0  0  0  0  0  0  0  0  0  0
   63.6651   31.3370   48.9026 H   0  0  0  0  0  0  0  0  0  0  0  0
   61.2531   31.4831   49.5287 H   0  0  0  0  0  0  0  0  0  0  0  0
   61.1113   29.5656   46.4101 H   0  0  0  0  0  0  0  0  0  0  0  0
   60.1584   28.6616   44.3005 H   0  0  0  0  0  0  0  0  0  0  0  0
  1  2  1  0
  2  3  2  0
  2  4  1  0
  4  5  2  0
  5  6  1  0
  6  7  1  0
  7  8  1  0
  8  9  2  0
  9 10  1  0
  9 11  1  0
 11 12  1  0
 12 13  1  0
 13 14  1  0
 14 15  2  0
 15 16  1  0
 16 17  2  0
 17 18  1  0
 18 19  2  0
 12 20  1  0
 20 21  2  0
 20 22  1  0
 22 23  1  0
 23 24  2  0
 24 25  1  0
 25 26  2  0
 26 27  1  0
 27 28  2  0
 27 29  1  0
 26 30  1  0
 30 31  2  0
 11 32  1  0
 32 33  2  0
 32 34  1  0
 34 35  1  0
 35 36  1  0
 36 37  1  0
 37 38  2  0
 38 39  1  0
 39 40  2  0
 40 41  1  0
 41 42  2  0
  6 43  2  0
 43 44  1  0
 44 45  2  0
 45 46  1  0
 45  4  1  0
 34  8  1  0
 42 37  1  0
 19 14  1  0
 31 23  1  0
  1 47  1  0
  5 48  1  0
  7 49  1  0
  7 50  1  0
 10 51  1  0
 12 52  1  6
 13 53  1  0
 13 54  1  0
 15 55  1  0
 16 56  1  0
 17 57  1  0
 18 58  1  0
 19 59  1  0
 24 60  1  0
 25 61  1  0
 30 62  1  0
 31 63  1  0
 35 64  1  0
 35 65  1  0
 36 66  1  0
 36 67  1  0
 38 68  1  0
 39 69  1  0
 40 70  1  0
 41 71  1  0
 42 72  1  0
 43 73  1  0
 44 74  1  0
M  CHG  3   1  -1  22  -1  29  -1
M  END
>  <UniqueID>  (79) 
79

>  <SMILES>  (79) 
[NH-]C(=O)c1cc(Cc2c(O)n([C@H](Cc3ccccc3)C(=O)[N-]c3ccc(C(=O)[O-])cc3)c(=O)n2CCc2ccccc2)ccc1F

>  <Energy>  (79) 
113.63279650802127

>  <Genealogy>  (79) 
[NH-]C(=O)c1cc(Cc2c(O)n(C(Cc3ccccc3)C(=O)[N-]c3ccc(C(=O)[O-])cc3)c(=O)n2CCc2ccccc2)ccc1F (protonated)
[NH-]C(=O)c1cc(Cc2c(O)n([C@H](Cc3ccccc3)C(=O)[N-]c3ccc(C(=O)[O-])cc3)c(=O)n2CCc2ccccc2)ccc1F (chirality)
[NH-]C(=O)c1cc(Cc2c(O)n([C@H](Cc3ccccc3)C(=O)[N-]c3ccc(C(=O)[O-])cc3)c(=O)n2CCc2ccccc2)ccc1F (3D coordinates assigned)
[NH-]C(=O)c1cc(Cc2c(O)n([C@H](Cc3ccccc3)C(=O)[N-]c3ccc(C(=O)[O-])cc3)c(=O)n2CCc2ccccc2)ccc1F (optimized conformer: 113.63279650802127 kcal/mol)

>  <smiles>  (79) 
NC(=O)c1cc(Cc2c(O)n(C(Cc3ccccc3)C(=O)Nc3ccc(C(=O)O)cc3)c(=O)n2CCc2ccccc2)ccc1F

>  <score_type>  (79) 
oracle

>  <origin>  (79) 
adg

>  <m_score__min__energy>  (79) 
-17.780000000000001

>  <m_primary>  (79) 
energy

$$$$
80:0
     RDKit          3D

 45 48  0  0  0  0  0  0  0  0999 V2000
   58.7270   28.0900   47.0230 C   0  0  0  0  0  0  0  0  0  0  0  0
   58.4140   28.5240   45.7920 C   0  0  0  0  0  0  0  0  0  0  0  0
   57.8350   27.7770   44.7540 C   0  0  0  0  0  0  0  0  0  0  0  0
   57.6570   26.4490   44.6140 C   0  0  0  0  0  0  0  0  0  0  0  0
   57.2060   25.5290   45.6720 C   0  0  0  0  0  0  0  0  0  0  0  0
   57.8740   24.4320   46.0710 N   0  0  0  0  0  0  0  0  0  0  0  0
   57.0230   23.8470   46.9410 C   0  0  0  0  0  0  0  0  0  0  0  0
   57.3020   22.7830   47.5510 O   0  0  0  0  0  0  0  0  0  0  0  0
   55.8450   24.4880   47.0980 N   0  0  0  0  0  0  0  0  0  0  0  0
   55.9720   25.5430   46.2760 C   0  0  0  0  0  0  0  0  0  0  0  0
   54.9820   26.4980   46.0760 O   0  0  0  0  0  0  0  0  0  0  0  0
   57.4480   28.6910   43.7870 C   0  0  0  0  0  0  0  0  0  0  0  0
   57.8670   29.9320   44.2190 C   0  0  0  0  0  0  0  0  0  0  0  0
   57.6630   31.2100   43.4650 C   0  0  0  0  0  0  0  0  0  0  0  0
   58.4550   29.8330   45.4340 N   0  0  0  0  0  0  0  0  0  0  0  0
   58.9690   30.9310   46.2100 C   0  0  0  0  0  0  0  0  0  0  0  0
   58.1380   32.0130   46.5300 C   0  0  0  0  0  0  0  0  0  0  0  0
   58.6340   33.0800   47.2770 C   0  0  0  0  0  0  0  0  0  0  0  0
   59.9590   33.0730   47.7140 C   0  0  0  0  0  0  0  0  0  0  0  0
   60.8070   32.0000   47.4120 C   0  0  0  0  0  0  0  0  0  0  0  0
   62.1560   32.0600   47.9000 N   0  0  0  0  0  0  0  0  0  0  0  0
   63.1730   33.4640   48.0110 S   0  0  0  0  0  0  0  0  0  0  0  0
   62.4170   34.5880   48.6600 O   0  0  0  0  0  0  0  0  0  0  0  0
   63.6220   33.8740   46.6370 O   0  0  0  0  0  0  0  0  0  0  0  0
   64.6290   33.1190   48.9950 C   0  0  0  0  0  0  0  0  0  0  0  0
   64.4920   33.4340   50.4750 C   0  0  0  0  0  0  0  0  0  0  0  0
   64.4710   31.9900   49.9980 C   0  0  0  0  0  0  0  0  0  0  0  0
   60.3060   30.9230   46.6450 C   0  0  0  0  0  0  0  0  0  0  0  0
   61.0950   29.8820   46.2850 F   0  0  0  0  0  0  0  0  0  0  0  0
   59.1798   28.7795   47.7507 H   0  0  0  0  0  0  0  0  0  0  0  0
   58.5307   27.0448   47.3041 H   0  0  0  0  0  0  0  0  0  0  0  0
   57.8663   26.0148   43.6252 H   0  0  0  0  0  0  0  0  0  0  0  0
   54.0300   26.3250   46.3760 H   0  0  0  0  0  0  0  0  0  0  0  0
   56.9098   28.4693   42.8537 H   0  0  0  0  0  0  0  0  0  0  0  0
   57.5308   32.0384   44.1765 H   0  0  0  0  0  0  0  0  0  0  0  0
   58.5411   31.4067   42.8324 H   0  0  0  0  0  0  0  0  0  0  0  0
   56.7673   31.1235   42.8324 H   0  0  0  0  0  0  0  0  0  0  0  0
   57.0916   32.0202   46.1908 H   0  0  0  0  0  0  0  0  0  0  0  0
   57.9795   33.9293   47.5225 H   0  0  0  0  0  0  0  0  0  0  0  0
   60.3420   33.9198   48.3024 H   0  0  0  0  0  0  0  0  0  0  0  0
   65.3579   33.3676   48.2096 H   0  0  0  0  0  0  0  0  0  0  0  0
   65.3564   33.8147   51.0388 H   0  0  0  0  0  0  0  0  0  0  0  0
   63.8216   34.0643   51.0777 H   0  0  0  0  0  0  0  0  0  0  0  0
   65.3202   31.3260   50.2170 H   0  0  0  0  0  0  0  0  0  0  0  0
   63.7789   31.1428   50.1130 H   0  0  0  0  0  0  0  0  0  0  0  0
  1  2  2  0
  2  3  1  0
  3  4  2  3
  4  5  1  0
  5  6  1  0
  6  7  1  0
  7  8  2  0
  7  9  1  0
  9 10  1  0
 10 11  1  0
  3 12  1  0
 12 13  2  0
 13 14  1  0
 13 15  1  0
 15 16  1  0
 16 17  2  0
 17 18  1  0
 18 19  2  0
 19 20  1  0
 20 21  1  0
 21 22  1  0
 22 23  2  0
 22 24  2  0
 22 25  1  0
 25 26  1  0
 26 27  1  0
 20 28  2  0
 28 29  1  0
 15  2  1  0
 28 16  1  0
 10  5  2  0
 27 25  1  0
  1 30  1  0
  1 31  1  0
  4 32  1  0
 11 33  1  0
 12 34  1  0
 14 35  1  0
 14 36  1  0
 14 37  1  0
 17 38  1  0
 18 39  1  0
 19 40  1  0
 25 41  1  0
 26 42  1  0
 26 43  1  0
 27 44  1  0
 27 45  1  0
M  CHG  3   6  -1   9  -1  21  -1
M  END
>  <UniqueID>  (80) 
80

>  <SMILES>  (80) 
C=c1c(=Cc2[n-]c(=O)[n-]c2O)cc(C)n1-c1cccc([N-]S(=O)(=O)C2CC2)c1F

>  <Energy>  (80) 
388.4840582350524

>  <Genealogy>  (80) 
C=c1c(=Cc2[n-]c(=O)[n-]c2O)cc(C)n1-c1cccc([N-]S(=O)(=O)C2CC2)c1F (protonated)
C=c1c(=Cc2[n-]c(=O)[n-]c2O)cc(C)n1-c1cccc([N-]S(=O)(=O)C2CC2)c1F (3D coordinates assigned)
C=c1c(=Cc2[n-]c(=O)[n-]c2O)cc(C)n1-c1cccc([N-]S(=O)(=O)C2CC2)c1F (nonaromatic ring conformer: 388.4840582350524 kcal/mol)

>  <smiles>  (80) 
C=c1c(=Cc2[nH]c(=O)[nH]c2O)cc(C)n1-c1cccc(NS(=O)(=O)C2CC2)c1F

>  <score_type>  (80) 
oracle

>  <origin>  (80) 
adg

>  <m_score__min__energy>  (80) 
-14.09

>  <m_primary>  (80) 
energy

$$$$
81:0
     RDKit          3D

 55 58  0  0  0  0  0  0  0  0999 V2000
   61.1220   29.4900   45.8520 C   0  0  0  0  0  0  0  0  0  0  0  0
   60.3380   29.3000   46.9260 C   0  0  0  0  0  0  0  0  0  0  0  0
   59.0710   28.6900   46.9560 C   0  0  0  0  0  0  0  0  0  0  0  0
   58.3790   28.0320   46.0040 C   0  0  0  0  0  0  0  0  0  0  0  0
   57.4950   26.8730   46.2310 C   0  0  0  0  0  0  0  0  0  0  0  0
   56.1470   26.9010   45.8330 C   0  0  0  0  0  0  0  0  0  0  0  0
   55.6050   28.0430   45.2480 O   0  0  0  0  0  0  0  0  0  0  0  0
   55.3660   25.8030   46.0170 N   0  0  0  0  0  0  0  0  0  0  0  0
   55.8690   24.6690   46.5660 C   0  0  0  0  0  0  0  0  0  0  0  0
   54.9040   23.3690   46.7730 S   0  0  0  0  0  0  0  0  0  0  0  0
   57.1750   24.6110   46.9340 N   0  0  0  0  0  0  0  0  0  0  0  0
   57.9980   25.6810   46.7720 C   0  0  0  0  0  0  0  0  0  0  0  0
   59.2050   25.5920   47.1190 O   0  0  0  0  0  0  0  0  0  0  0  0
   58.5910   28.8600   48.2430 C   0  0  0  0  0  0  0  0  0  0  0  0
   59.5730   29.5150   48.9570 C   0  0  0  0  0  0  0  0  0  0  0  0
   59.4710   29.8700   50.4090 C   0  0  0  0  0  0  0  0  0  0  0  0
   60.6390   29.7770   48.1630 N   0  0  0  0  0  0  0  0  0  0  0  0
   61.8490   30.5130   48.5620 C   0  0  0  0  0  0  0  0  0  0  0  0
   62.0070   31.7870   47.7690 C   0  0  0  0  0  0  0  0  0  0  0  0
   63.2910   32.2560   47.4470 C   0  0  0  0  0  0  0  0  0  0  0  0
   63.4510   33.4590   46.7560 C   0  0  0  0  0  0  0  0  0  0  0  0
   62.3330   34.2180   46.3990 C   0  0  0  0  0  0  0  0  0  0  0  0
   61.0450   33.7840   46.7460 C   0  0  0  0  0  0  0  0  0  0  0  0
   59.8710   34.6060   46.3870 C   0  0  0  0  0  0  0  0  0  0  0  0
   59.7760   35.7710   46.8540 O   0  0  0  0  0  0  0  0  0  0  0  0
   58.8110   34.1070   45.5570 N   0  0  0  0  0  0  0  0  0  0  0  0
   57.9500   32.9610   45.8470 C   0  0  0  0  0  0  0  0  0  0  0  0
   57.5970   32.2170   44.5850 C   0  0  0  0  0  0  0  0  0  0  0  0
   56.9760   30.9580   44.6610 C   0  0  0  0  0  0  0  0  0  0  0  0
   56.6640   30.2530   43.4950 C   0  0  0  0  0  0  0  0  0  0  0  0
   56.9660   30.8010   42.2450 C   0  0  0  0  0  0  0  0  0  0  0  0
   57.5770   32.0560   42.1600 C   0  0  0  0  0  0  0  0  0  0  0  0
   57.8880   32.7650   43.3240 C   0  0  0  0  0  0  0  0  0  0  0  0
   60.8870   32.5600   47.4130 C   0  0  0  0  0  0  0  0  0  0  0  0
   62.0983   29.9841   45.9643 H   0  0  0  0  0  0  0  0  0  0  0  0
   60.7877   29.1515   44.8602 H   0  0  0  0  0  0  0  0  0  0  0  0
   58.4825   28.3902   44.9691 H   0  0  0  0  0  0  0  0  0  0  0  0
   55.8790   28.3300   44.3170 H   0  0  0  0  0  0  0  0  0  0  0  0
   57.6119   28.5345   48.6243 H   0  0  0  0  0  0  0  0  0  0  0  0
   59.7236   28.9909   51.0200 H   0  0  0  0  0  0  0  0  0  0  0  0
   60.1705   30.6879   50.6365 H   0  0  0  0  0  0  0  0  0  0  0  0
   58.4440   30.1919   50.6365 H   0  0  0  0  0  0  0  0  0  0  0  0
   61.7791   30.7634   49.6308 H   0  0  0  0  0  0  0  0  0  0  0  0
   62.7225   29.8737   48.3664 H   0  0  0  0  0  0  0  0  0  0  0  0
   64.1759   31.6723   47.7408 H   0  0  0  0  0  0  0  0  0  0  0  0
   64.4595   33.8101   46.4920 H   0  0  0  0  0  0  0  0  0  0  0  0
   62.4635   35.1588   45.8441 H   0  0  0  0  0  0  0  0  0  0  0  0
   58.4769   32.2793   46.5309 H   0  0  0  0  0  0  0  0  0  0  0  0
   57.0215   33.3284   46.3083 H   0  0  0  0  0  0  0  0  0  0  0  0
   56.7344   30.5255   45.6431 H   0  0  0  0  0  0  0  0  0  0  0  0
   56.1808   29.2670   43.5611 H   0  0  0  0  0  0  0  0  0  0  0  0
   56.7229   30.2447   41.3277 H   0  0  0  0  0  0  0  0  0  0  0  0
   57.8133   32.4861   41.1755 H   0  0  0  0  0  0  0  0  0  0  0  0
   58.3620   33.7551   43.2527 H   0  0  0  0  0  0  0  0  0  0  0  0
   59.8770   32.2011   47.6601 H   0  0  0  0  0  0  0  0  0  0  0  0
  1  2  2  0
  2  3  1  0
  3  4  2  3
  4  5  1  0
  5  6  2  0
  6  7  1  0
  6  8  1  0
  8  9  1  0
  9 10  2  0
  9 11  1  0
 11 12  1  0
 12 13  2  0
  3 14  1  0
 14 15  2  0
 15 16  1  0
 15 17  1  0
 17 18  1  0
 18 19  1  0
 19 20  2  0
 20 21  1  0
 21 22  2  0
 22 23  1  0
 23 24  1  0
 24 25  2  0
 24 26  1  0
 26 27  1  0
 27 28  1  0
 28 29  2  0
 29 30  1  0
 30 31  2  0
 31 32  1  0
 32 33  2  0
 23 34  2  0
 17  2  1  0
 34 19  1  0
 12  5  1  0
 33 28  1  0
  1 35  1  0
  1 36  1  0
  4 37  1  0
  7 38  1  0
 14 39  1  0
 16 40  1  0
 16 41  1  0
 16 42  1  0
 18 43  1  0
 18 44  1  0
 20 45  1  0
 21 46  1  0
 22 47  1  0
 27 48  1  0
 27 49  1  0
 29 50  1  0
 30 51  1  0
 31 52  1  0
 32 53  1  0
 33 54  1  0
 34 55  1  0
M  CHG  3   8  -1  11  -1  26  -1
M  END
>  <UniqueID>  (81) 
81

>  <SMILES>  (81) 
C=c1c(=Cc2c(O)[n-]c(=S)[n-]c2=O)cc(C)n1Cc1cccc(C(=O)[N-]Cc2ccccc2)c1

>  <Energy>  (81) 
101.64616411256732

>  <Genealogy>  (81) 
C=c1c(=Cc2c(O)[n-]c(=S)[n-]c2=O)cc(C)n1Cc1cccc(C(=O)[N-]Cc2ccccc2)c1 (protonated)
C=c1c(=Cc2c(O)[n-]c(=S)[n-]c2=O)cc(C)n1Cc1cccc(C(=O)[N-]Cc2ccccc2)c1 (3D coordinates assigned)
C=c1c(=Cc2c(O)[n-]c(=S)[n-]c2=O)cc(C)n1Cc1cccc(C(=O)[N-]Cc2ccccc2)c1 (optimized conformer: 101.64616411256732 kcal/mol)

>  <smiles>  (81) 
C=c1c(=Cc2c(O)[nH]c(=S)[nH]c2=O)cc(C)n1Cc1cccc(C(=O)NCc2ccccc2)c1

>  <score_type>  (81) 
oracle

>  <origin>  (81) 
adg

>  <m_score__min__energy>  (81) 
-15.52

>  <m_primary>  (81) 
energy

$$$$
82:0
     RDKit          3D

 75 79  0  0  0  0  0  0  0  0999 V2000
   59.9550   34.1990   50.1910 C   0  0  0  0  0  0  0  0  0  0  0  0
   60.3260   33.4190   49.3490 C   0  0  0  0  0  0  0  0  0  0  0  0
   60.7650   32.4610   48.3220 C   0  0  2  0  0  0  0  0  0  0  0  0
   61.7310   33.1190   47.3240 C   0  0  0  0  0  0  0  0  0  0  0  0
   59.5580   31.8330   47.6510 C   0  0  0  0  0  0  0  0  0  0  0  0
   59.5610   30.4940   47.7920 C   0  0  0  0  0  0  0  0  0  0  0  0
   58.9510   29.9060   46.7560 N   0  0  0  0  0  0  0  0  0  0  0  0
   58.5010   30.9510   46.0160 C   0  0  0  0  0  0  0  0  0  0  0  0
   57.8460   30.7500   44.7140 C   0  0  0  0  0  0  0  0  0  0  0  0
   58.1070   31.6420   43.6660 C   0  0  0  0  0  0  0  0  0  0  0  0
   57.4750   31.4880   42.4200 C   0  0  0  0  0  0  0  0  0  0  0  0
   57.7690   32.4210   41.3070 C   0  0  0  0  0  0  0  0  0  0  0  0
   56.8200   32.6270   40.2620 N   0  0  0  0  0  0  0  0  0  0  0  0
   58.8650   33.0420   41.2710 O   0  0  0  0  0  0  0  0  0  0  0  0
   56.5610   30.4350   42.2470 C   0  0  0  0  0  0  0  0  0  0  0  0
   56.2730   29.5640   43.3000 C   0  0  0  0  0  0  0  0  0  0  0  0
   56.9050   29.7180   44.5470 C   0  0  0  0  0  0  0  0  0  0  0  0
   56.6330   28.8680   45.6310 O   0  0  0  0  0  0  0  0  0  0  0  0
   57.0320   27.5040   45.7090 C   0  0  0  0  0  0  0  0  0  0  0  0
   58.8850   32.1620   46.5250 N   0  0  0  0  0  0  0  0  0  0  0  0
   58.6380   33.5240   46.0220 C   0  0  0  0  0  0  0  0  0  0  0  0
   59.7070   33.9480   45.0100 C   0  0  0  0  0  0  0  0  0  0  0  0
   58.5120   34.5370   47.1670 C   0  0  0  0  0  0  0  0  0  0  0  0
   60.7180   30.1060   48.5450 C   0  0  0  0  0  0  0  0  0  0  0  0
   61.0990   28.9300   48.7800 O   0  0  0  0  0  0  0  0  0  0  0  0
   61.4130   31.2850   48.9460 N   0  0  0  0  0  0  0  0  0  0  0  0
   62.6010   31.3030   49.7440 C   0  0  0  0  0  0  0  0  0  0  0  0
   62.6380   30.6130   50.9610 C   0  0  0  0  0  0  0  0  0  0  0  0
   63.7870   30.6530   51.7570 C   0  0  0  0  0  0  0  0  0  0  0  0
   64.9050   31.4020   51.3530 C   0  0  0  0  0  0  0  0  0  0  0  0
   66.1170   31.4730   52.2000 C   0  0  0  0  0  0  0  0  0  0  0  0
   66.1030   32.2140   53.2200 O   0  0  0  0  0  0  0  0  0  0  0  0
   67.2950   30.6930   51.9020 N   0  0  0  0  0  0  0  0  0  0  0  0
   68.6110   31.1210   52.3820 C   0  0  0  0  0  0  0  0  0  0  0  0
   69.1570   30.1130   53.4110 C   0  0  0  0  0  0  0  0  0  0  0  0
   68.7300   28.7090   53.1670 N   0  0  0  0  0  0  0  0  0  0  0  0
   67.6800   28.2830   54.1070 C   0  0  0  0  0  0  0  0  0  0  0  0
   68.3450   28.4550   51.7630 C   0  0  0  0  0  0  0  0  0  0  0  0
   67.1750   29.3500   51.3170 C   0  0  0  0  0  0  0  0  0  0  0  0
   64.8710   32.0690   50.1170 C   0  0  0  0  0  0  0  0  0  0  0  0
   63.7260   32.0180   49.3180 C   0  0  0  0  0  0  0  0  0  0  0  0
   59.6167   34.9103   50.9588 H   0  0  0  0  0  0  0  0  0  0  0  0
   62.5180   33.6551   47.8746 H   0  0  0  0  0  0  0  0  0  0  0  0
   62.1888   32.3441   46.6916 H   0  0  0  0  0  0  0  0  0  0  0  0
   61.1775   33.8287   46.6916 H   0  0  0  0  0  0  0  0  0  0  0  0
   58.9590   28.8950   46.4980 H   0  0  0  0  0  0  0  0  0  0  0  0
   58.8134   32.4711   43.8196 H   0  0  0  0  0  0  0  0  0  0  0  0
   56.3810   31.8190   39.7650 H   0  0  0  0  0  0  0  0  0  0  0  0
   56.0680   30.2954   41.2736 H   0  0  0  0  0  0  0  0  0  0  0  0
   55.5464   28.7514   43.1530 H   0  0  0  0  0  0  0  0  0  0  0  0
   57.1188   27.2072   46.7646 H   0  0  0  0  0  0  0  0  0  0  0  0
   56.2807   26.8732   45.2113 H   0  0  0  0  0  0  0  0  0  0  0  0
   58.0048   27.3775   45.2113 H   0  0  0  0  0  0  0  0  0  0  0  0
   57.6724   33.5087   45.4953 H   0  0  0  0  0  0  0  0  0  0  0  0
   60.5997   34.3021   45.5463 H   0  0  0  0  0  0  0  0  0  0  0  0
   59.9756   33.0883   44.3785 H   0  0  0  0  0  0  0  0  0  0  0  0
   59.3133   34.7581   44.3785 H   0  0  0  0  0  0  0  0  0  0  0  0
   58.5774   34.0109   48.1308 H   0  0  0  0  0  0  0  0  0  0  0  0
   59.3254   35.2741   47.0956 H   0  0  0  0  0  0  0  0  0  0  0  0
   57.5428   35.0524   47.0956 H   0  0  0  0  0  0  0  0  0  0  0  0
   61.7609   30.0377   51.2923 H   0  0  0  0  0  0  0  0  0  0  0  0
   63.8157   30.0951   52.7046 H   0  0  0  0  0  0  0  0  0  0  0  0
   69.3053   31.1833   51.5311 H   0  0  0  0  0  0  0  0  0  0  0  0
   68.5145   32.1062   52.8617 H   0  0  0  0  0  0  0  0  0  0  0  0
   70.2560   30.1504   53.3825 H   0  0  0  0  0  0  0  0  0  0  0  0
   68.7489   30.4045   54.3900 H   0  0  0  0  0  0  0  0  0  0  0  0
   68.0321   28.4258   55.1393 H   0  0  0  0  0  0  0  0  0  0  0  0
   66.7741   28.8847   53.9420 H   0  0  0  0  0  0  0  0  0  0  0  0
   67.4494   27.2202   53.9420 H   0  0  0  0  0  0  0  0  0  0  0  0
   69.2116   28.6537   51.1153 H   0  0  0  0  0  0  0  0  0  0  0  0
   68.0216   27.4067   51.6829 H   0  0  0  0  0  0  0  0  0  0  0  0
   67.1812   29.4322   50.2201 H   0  0  0  0  0  0  0  0  0  0  0  0
   66.2331   28.8977   51.6609 H   0  0  0  0  0  0  0  0  0  0  0  0
   65.7508   32.6346   49.7764 H   0  0  0  0  0  0  0  0  0  0  0  0
   63.7088   32.5417   48.3508 H   0  0  0  0  0  0  0  0  0  0  0  0
  1  2  3  0
  3  2  1  1
  3  4  1  0
  3  5  1  0
  5  6  2  0
  6  7  1  0
  7  8  2  0
  8  9  1  0
  9 10  2  0
 10 11  1  0
 11 12  1  0
 12 13  1  0
 12 14  2  0
 11 15  2  0
 15 16  1  0
 16 17  2  0
 17 18  1  0
 18 19  1  0
  8 20  1  0
 20 21  1  0
 21 22  1  0
 21 23  1  0
  6 24  1  0
 24 25  2  0
 24 26  1  0
 26 27  1  0
 27 28  2  0
 28 29  1  0
 29 30  2  0
 30 31  1  0
 31 32  2  0
 31 33  1  0
 33 34  1  0
 34 35  1  0
 35 36  1  0
 36 37  1  0
 36 38  1  0
 38 39  1  0
 30 40  1  0
 40 41  2  0
 26  3  1  0
 41 27  1  0
 20  5  1  0
 39 33  1  0
 17  9  1  0
  1 42  1  0
  4 43  1  0
  4 44  1  0
  4 45  1  0
  7 46  1  0
 10 47  1  0
 13 48  1  0
 15 49  1  0
 16 50  1  0
 19 51  1  0
 19 52  1  0
 19 53  1  0
 21 54  1  0
 22 55  1  0
 22 56  1  0
 22 57  1  0
 23 58  1  0
 23 59  1  0
 23 60  1  0
 28 61  1  0
 29 62  1  0
 34 63  1  0
 34 64  1  0
 35 65  1  0
 35 66  1  0
 37 67  1  0
 37 68  1  0
 37 69  1  0
 38 70  1  0
 38 71  1  0
 39 72  1  0
 39 73  1  0
 40 74  1  0
 41 75  1  0
M  CHG  2   7   1  13  -1
M  END
>  <UniqueID>  (82) 
82

>  <SMILES>  (82) 
C#C[C@]1(C)c2c([nH+]c(-c3cc(C([NH-])=O)ccc3OC)n2C(C)C)C(=O)N1c1ccc(C(=O)N2CCN(C)CC2)cc1

>  <Energy>  (82) 
170.63219542046173

>  <Genealogy>  (82) 
C#CC1(C)c2c([nH+]c(-c3cc(C([NH-])=O)ccc3OC)n2C(C)C)C(=O)N1c1ccc(C(=O)N2CCN(C)CC2)cc1 (protonated)
C#C[C@]1(C)c2c([nH+]c(-c3cc(C([NH-])=O)ccc3OC)n2C(C)C)C(=O)N1c1ccc(C(=O)N2CCN(C)CC2)cc1 (chirality)
C#C[C@]1(C)c2c([nH+]c(-c3cc(C([NH-])=O)ccc3OC)n2C(C)C)C(=O)N1c1ccc(C(=O)N2CCN(C)CC2)cc1 (3D coordinates assigned)
C#C[C@]1(C)c2c([nH+]c(-c3cc(C([NH-])=O)ccc3OC)n2C(C)C)C(=O)N1c1ccc(C(=O)N2CCN(C)CC2)cc1 (nonaromatic ring conformer: 170.63219542046173 kcal/mol)

>  <smiles>  (82) 
C#CC1(C)c2c(nc(-c3cc(C(N)=O)ccc3OC)n2C(C)C)C(=O)N1c1ccc(C(=O)N2CCN(C)CC2)cc1

>  <score_type>  (82) 
oracle

>  <origin>  (82) 
adg

>  <m_score__min__energy>  (82) 
-10.26

>  <m_primary>  (82) 
energy

$$$$
83:0
     RDKit          3D

 65 68  0  0  1  0  0  0  0  0999 V2000
   56.0770   27.5500   54.9020 C   0  0  0  0  0  0  0  0  0  0  0  0
   56.1470   27.7770   53.5220 O   0  0  0  0  0  0  0  0  0  0  0  0
   57.1160   28.7170   53.2660 N   0  0  0  0  0  0  0  0  0  0  0  0
   56.8660   29.8210   52.4040 C   0  0  0  0  0  0  0  0  0  0  0  0
   55.7490   30.0020   51.8300 O   0  0  0  0  0  0  0  0  0  0  0  0
   57.9010   30.8150   52.1330 C   0  0  0  0  0  0  0  0  0  0  0  0
   59.0590   30.7750   52.8840 C   0  0  0  0  0  0  0  0  0  0  0  0
   60.0960   31.6880   52.6980 C   0  0  0  0  0  0  0  0  0  0  0  0
   59.9530   32.6530   51.7380 C   0  0  0  0  0  0  0  0  0  0  0  0
   60.9750   33.6890   51.4370 C   0  0  0  0  0  0  0  0  0  0  0  0
   61.7380   33.3730   50.2110 C   0  0  0  0  0  0  0  0  0  0  0  0
   62.7900   32.7020   50.2710 O   0  0  0  0  0  0  0  0  0  0  0  0
   61.2900   33.8270   48.9440 N   0  0  0  0  0  0  0  0  0  0  0  0
   62.0470   33.5250   47.7420 C   0  0  0  0  0  0  0  0  0  0  0  0
   61.2410   32.7290   46.7470 C   0  0  0  0  0  0  0  0  0  0  0  0
   59.8990   33.2770   46.6780 N   0  0  0  0  0  0  0  0  0  0  0  0
   58.9880   32.5550   45.8160 C   0  0  0  0  0  0  0  0  0  0  0  0
   58.6590   31.3040   46.2280 N   0  0  0  0  0  0  0  0  0  0  0  0
   57.8060   30.5910   45.4730 C   0  0  0  0  0  0  0  0  0  0  0  0
   57.5200   29.3890   45.8960 N   0  0  0  0  0  0  0  0  0  0  0  0
   58.4700   28.6830   46.7230 C   0  0  0  0  0  0  0  0  0  0  0  0
   58.9140   27.4640   46.3850 N   0  0  0  0  0  0  0  0  0  0  0  0
   59.7930   26.7470   47.1110 C   0  0  0  0  0  0  0  0  0  0  0  0
   60.1910   25.5950   46.7630 O   0  0  0  0  0  0  0  0  0  0  0  0
   60.2440   27.3530   48.2820 C   0  0  0  0  0  0  0  0  0  0  0  0
   59.7820   28.6100   48.6220 C   0  0  0  0  0  0  0  0  0  0  0  0
   60.2670   29.2480   49.8760 C   0  0  0  0  0  0  0  0  0  0  0  0
   58.8930   29.2860   47.8490 N   0  0  0  0  0  0  0  0  0  0  0  0
   57.2800   31.1130   44.3130 C   0  0  0  0  0  0  0  0  0  0  0  0
   56.3540   30.3280   43.5160 C   0  0  0  0  0  0  0  0  0  0  0  0
   55.4560   29.4160   44.1340 N   0  0  0  0  0  0  0  0  0  0  0  0
   56.3190   30.4290   42.2560 O   0  0  0  0  0  0  0  0  0  0  0  0
   57.6390   32.3900   43.9270 C   0  0  0  0  0  0  0  0  0  0  0  0
   58.4950   33.0960   44.6920 N   0  0  0  0  0  0  0  0  0  0  0  0
   59.4790   34.4600   47.3980 C   0  0  0  0  0  0  0  0  0  0  0  0
   60.0730   34.6030   48.7610 C   0  0  0  0  0  0  0  0  0  0  0  0
   58.7880   32.7140   50.9630 C   0  0  0  0  0  0  0  0  0  0  0  0
   57.7820   31.7940   51.1750 C   0  0  0  0  0  0  0  0  0  0  0  0
   56.3598   28.4672   55.4393 H   0  0  0  0  0  0  0  0  0  0  0  0
   55.0498   27.2669   55.1754 H   0  0  0  0  0  0  0  0  0  0  0  0
   56.7663   26.7376   55.1754 H   0  0  0  0  0  0  0  0  0  0  0  0
   58.0250   28.5660   53.7370 H   0  0  0  0  0  0  0  0  0  0  0  0
   59.1668   29.9972   53.6543 H   0  0  0  0  0  0  0  0  0  0  0  0
   61.0089   31.6340   53.3093 H   0  0  0  0  0  0  0  0  0  0  0  0
   60.4705   34.6571   51.3019 H   0  0  0  0  0  0  0  0  0  0  0  0
   61.6825   33.7236   52.2786 H   0  0  0  0  0  0  0  0  0  0  0  0
   62.3572   34.4698   47.2718 H   0  0  0  0  0  0  0  0  0  0  0  0
   62.9173   32.9189   48.0340 H   0  0  0  0  0  0  0  0  0  0  0  0
   61.7151   32.7892   45.7562 H   0  0  0  0  0  0  0  0  0  0  0  0
   61.1962   31.6763   47.0630 H   0  0  0  0  0  0  0  0  0  0  0  0
   60.9636   26.8336   48.9319 H   0  0  0  0  0  0  0  0  0  0  0  0
   59.8576   28.7095   50.7434 H   0  0  0  0  0  0  0  0  0  0  0  0
   61.3659   29.2095   49.9057 H   0  0  0  0  0  0  0  0  0  0  0  0
   59.9359   30.2966   49.9057 H   0  0  0  0  0  0  0  0  0  0  0  0
   58.5580   30.2430   48.1350 H   0  0  0  0  0  0  0  0  0  0  0  0
   54.4840   29.7770   44.3010 H   0  0  0  0  0  0  0  0  0  0  0  0
   55.7740   28.4600   44.3930 H   0  0  0  0  0  0  0  0  0  0  0  0
   57.2300   32.8265   43.0039 H   0  0  0  0  0  0  0  0  0  0  0  0
   58.8000   34.0660   44.4450 H   0  0  0  0  0  0  0  0  0  0  0  0
   59.7645   35.3416   46.8053 H   0  0  0  0  0  0  0  0  0  0  0  0
   58.3921   34.3685   47.5401 H   0  0  0  0  0  0  0  0  0  0  0  0
   60.3073   35.6644   48.9299 H   0  0  0  0  0  0  0  0  0  0  0  0
   59.3329   34.2217   49.4800 H   0  0  0  0  0  0  0  0  0  0  0  0
   58.6759   33.4896   50.1911 H   0  0  0  0  0  0  0  0  0  0  0  0
   56.8674   31.8447   50.5660 H   0  0  0  0  0  0  0  0  0  0  0  0
  1  2  1  0
  2  3  1  0
  3  4  1  0
  4  5  2  0
  4  6  1  0
  6  7  2  0
  7  8  1  0
  8  9  2  0
  9 10  1  0
 10 11  1  0
 11 12  2  0
 11 13  1  0
 13 14  1  0
 14 15  1  0
 15 16  1  0
 16 17  1  0
 17 18  2  0
 18 19  1  0
 19 20  2  0
 20 21  1  0
 21 22  2  0
 22 23  1  0
 23 24  2  0
 23 25  1  0
 25 26  2  0
 26 27  1  0
 26 28  1  0
 19 29  1  0
 29 30  1  0
 30 31  1  0
 30 32  2  0
 29 33  2  0
 33 34  1  0
 16 35  1  0
 35 36  1  0
  9 37  1  0
 37 38  2  0
 38  6  1  0
 36 13  1  0
 34 17  1  0
 28 21  1  0
  1 39  1  0
  1 40  1  0
  1 41  1  0
  3 42  1  0
  7 43  1  0
  8 44  1  0
 10 45  1  0
 10 46  1  0
 14 47  1  0
 14 48  1  0
 15 49  1  0
 15 50  1  0
 25 51  1  0
 27 52  1  0
 27 53  1  0
 27 54  1  0
 28 55  1  0
 31 56  1  0
 31 57  1  0
 33 58  1  0
 34 59  1  0
 35 60  1  0
 35 61  1  0
 36 62  1  0
 36 63  1  0
 37 64  1  0
 38 65  1  0
M  END
>  <smiles>  (83) 
CONC(=O)c1ccc(CC(=O)N2CCN(c3nc(=Nc4nc(=O)cc(C)[nH]4)c(C(N)=O)c[nH]3)CC2)cc1

>  <score_type>  (83) 
oracle

>  <origin>  (83) 
adg

>  <m_score__min__energy>  (83) 
-9.8499999999999996

>  <m_primary>  (83) 
energy

$$$$
84:0
     RDKit          3D

 52 55  0  0  0  0  0  0  0  0999 V2000
   62.6820   31.5440   48.9550 C   0  0  0  0  0  0  0  0  0  0  0  0
   61.6920   32.2110   48.0370 C   0  0  0  0  0  0  0  0  0  0  0  0
   62.1000   33.3430   47.3110 C   0  0  0  0  0  0  0  0  0  0  0  0
   61.2160   33.9980   46.4530 C   0  0  0  0  0  0  0  0  0  0  0  0
   59.9070   33.5240   46.2920 C   0  0  0  0  0  0  0  0  0  0  0  0
   58.9590   34.1960   45.4520 N   0  0  0  0  0  0  0  0  0  0  0  0
   57.7760   33.6240   44.8790 C   0  0  0  0  0  0  0  0  0  0  0  0
   56.6650   34.1630   45.1270 O   0  0  0  0  0  0  0  0  0  0  0  0
   57.8370   32.3570   44.1140 C   0  0  0  0  0  0  0  0  0  0  0  0
   56.9800   31.3340   44.2420 C   0  0  0  0  0  0  0  0  0  0  0  0
   57.3150   30.0180   44.8170 C   0  0  0  0  0  0  0  0  0  0  0  0
   58.6210   29.7000   44.9950 N   0  0  0  0  0  0  0  0  0  0  0  0
   59.0020   28.4950   45.4930 C   0  0  0  0  0  0  0  0  0  0  0  0
   60.3640   28.2320   45.6690 C   0  0  0  0  0  0  0  0  0  0  0  0
   60.7640   27.0020   46.1860 C   0  0  0  0  0  0  0  0  0  0  0  0
   59.8080   26.0490   46.5200 C   0  0  0  0  0  0  0  0  0  0  0  0
   58.4540   26.3360   46.3330 C   0  0  0  0  0  0  0  0  0  0  0  0
   58.0570   27.5470   45.8240 N   0  0  0  0  0  0  0  0  0  0  0  0
   56.7260   27.8250   45.6290 C   0  0  0  0  0  0  0  0  0  0  0  0
   55.8380   26.9710   45.9060 O   0  0  0  0  0  0  0  0  0  0  0  0
   56.3320   29.0630   45.1090 C   0  0  0  0  0  0  0  0  0  0  0  0
   54.9860   29.3260   44.8710 O   0  0  0  0  0  0  0  0  0  0  0  0
   59.4880   32.4070   47.0220 C   0  0  0  0  0  0  0  0  0  0  0  0
   60.3730   31.7220   47.8690 C   0  0  0  0  0  0  0  0  0  0  0  0
   59.7840   30.2900   48.7360 S   0  0  0  0  0  0  0  0  0  0  0  0
   60.8330   29.2160   48.6590 O   0  0  0  0  0  0  0  0  0  0  0  0
   58.5120   29.7900   48.1080 O   0  0  0  0  0  0  0  0  0  0  0  0
   59.4780   30.6770   50.4140 N   0  0  0  0  0  0  0  0  0  0  0  0
   59.4740   32.1310   50.6440 C   0  0  0  0  0  0  0  0  0  0  0  0
   58.1560   32.5040   51.3050 C   0  0  0  0  0  0  0  0  0  0  0  0
   57.5870   31.1930   51.7910 C   0  0  0  0  0  0  0  0  0  0  0  0
   58.1670   30.1710   50.8360 C   0  0  0  0  0  0  0  0  0  0  0  0
   62.3987   31.7349   50.0006 H   0  0  0  0  0  0  0  0  0  0  0  0
   62.6834   30.4601   48.7675 H   0  0  0  0  0  0  0  0  0  0  0  0
   63.6871   31.9498   48.7675 H   0  0  0  0  0  0  0  0  0  0  0  0
   63.1286   33.7171   47.4205 H   0  0  0  0  0  0  0  0  0  0  0  0
   61.5477   34.8897   45.9009 H   0  0  0  0  0  0  0  0  0  0  0  0
   58.6508   32.2466   43.3822 H   0  0  0  0  0  0  0  0  0  0  0  0
   55.9487   31.4879   43.8915 H   0  0  0  0  0  0  0  0  0  0  0  0
   61.1140   28.9908   45.4012 H   0  0  0  0  0  0  0  0  0  0  0  0
   61.8328   26.7852   46.3296 H   0  0  0  0  0  0  0  0  0  0  0  0
   60.1162   25.0754   46.9288 H   0  0  0  0  0  0  0  0  0  0  0  0
   57.6971   25.5827   46.5968 H   0  0  0  0  0  0  0  0  0  0  0  0
   58.4482   32.0598   46.9308 H   0  0  0  0  0  0  0  0  0  0  0  0
   60.3115   32.4062   51.3019 H   0  0  0  0  0  0  0  0  0  0  0  0
   59.5856   32.6669   49.6899 H   0  0  0  0  0  0  0  0  0  0  0  0
   58.3253   33.1899   52.1482 H   0  0  0  0  0  0  0  0  0  0  0  0
   57.4755   33.0224   50.6135 H   0  0  0  0  0  0  0  0  0  0  0  0
   57.9034   30.9876   52.8243 H   0  0  0  0  0  0  0  0  0  0  0  0
   56.4871   31.1859   51.8050 H   0  0  0  0  0  0  0  0  0  0  0  0
   58.2812   29.2016   51.3431 H   0  0  0  0  0  0  0  0  0  0  0  0
   57.5054   30.0218   49.9699 H   0  0  0  0  0  0  0  0  0  0  0  0
  1  2  1  0
  2  3  2  0
  3  4  1  0
  4  5  2  0
  5  6  1  0
  6  7  1  0
  7  8  2  0
  7  9  1  0
  9 10  2  3
 10 11  1  0
 11 12  1  0
 12 13  2  0
 13 14  1  0
 14 15  2  0
 15 16  1  0
 16 17  2  0
 17 18  1  0
 18 19  1  0
 19 20  2  0
 19 21  1  0
 21 22  1  0
  5 23  1  0
 23 24  2  0
 24 25  1  0
 25 26  2  0
 25 27  2  0
 25 28  1  0
 28 29  1  0
 29 30  1  0
 30 31  1  0
 31 32  1  0
 24  2  1  0
 32 28  1  0
 21 11  2  0
 18 13  1  0
  1 33  1  0
  1 34  1  0
  1 35  1  0
  3 36  1  0
  4 37  1  0
  9 38  1  0
 10 39  1  0
 14 40  1  0
 15 41  1  0
 16 42  1  0
 17 43  1  0
 23 44  1  0
 29 45  1  0
 29 46  1  0
 30 47  1  0
 30 48  1  0
 31 49  1  0
 31 50  1  0
 32 51  1  0
 32 52  1  0
M  CHG  2   6  -1  22  -1
M  END
>  <UniqueID>  (84) 
83

>  <SMILES>  (84) 
Cc1ccc([N-]C(=O)C=Cc2nc3ccccn3c(=O)c2[O-])cc1S(=O)(=O)N1CCCC1

>  <Energy>  (84) 
76.60792218496476

>  <Genealogy>  (84) 
Cc1ccc([N-]C(=O)C=Cc2nc3ccccn3c(=O)c2[O-])cc1S(=O)(=O)N1CCCC1 (protonated)
Cc1ccc([N-]C(=O)C=Cc2nc3ccccn3c(=O)c2[O-])cc1S(=O)(=O)N1CCCC1 (3D coordinates assigned)
Cc1ccc([N-]C(=O)C=Cc2nc3ccccn3c(=O)c2[O-])cc1S(=O)(=O)N1CCCC1 (nonaromatic ring conformer: 76.60792218496476 kcal/mol)

>  <smiles>  (84) 
Cc1ccc(NC(=O)C=Cc2nc3ccccn3c(=O)c2O)cc1S(=O)(=O)N1CCCC1

>  <score_type>  (84) 
oracle

>  <origin>  (84) 
adg

>  <m_score__min__energy>  (84) 
-15.83

>  <m_primary>  (84) 
energy

$$$$
85:0
     RDKit          3D

 52 54  0  0  0  0  0  0  0  0999 V2000
   65.9700   32.7690   48.3420 H   0  0  0  0  0  0  0  0  0  0  0  0
   65.2140   32.8570   49.0120 O   0  0  0  0  0  0  0  0  0  0  0  0
   63.9500   33.2980   48.6280 C   0  0  0  0  0  0  0  0  0  0  0  0
   63.5670   33.2830   47.2800 C   0  0  0  0  0  0  0  0  0  0  0  0
   64.2687   32.9214   46.5139 H   0  0  0  0  0  0  0  0  0  0  0  0
   62.2940   33.7270   46.9070 C   0  0  0  0  0  0  0  0  0  0  0  0
   61.9984   33.7136   45.8476 H   0  0  0  0  0  0  0  0  0  0  0  0
   61.3910   34.1900   47.8790 C   0  0  0  0  0  0  0  0  0  0  0  0
   60.0140   34.6540   47.4810 C   0  0  0  0  0  0  0  0  0  0  0  0
   60.1059   35.5159   46.8037 H   0  0  0  0  0  0  0  0  0  0  0  0
   59.4618   34.9370   48.3893 H   0  0  0  0  0  0  0  0  0  0  0  0
   59.2560   33.5500   46.7780 C   0  0  0  0  0  0  0  0  0  0  0  0
   58.8750   32.3160   47.3220 C   0  0  0  0  0  0  0  0  0  0  0  0
   59.0930   31.8050   48.6990 C   0  0  0  0  0  0  0  0  0  0  0  0
   58.2980   32.1210   49.6230 O   0  0  0  0  0  0  0  0  0  0  0  0
   60.1630   30.9770   49.0030 O   0  0  0  0  0  0  0  0  0  0  0  0
   58.3240   31.5910   46.2700 C   0  0  0  0  0  0  0  0  0  0  0  0
   57.7750   30.2230   46.3210 C   0  0  0  0  0  0  0  0  0  0  0  0
   56.6874   30.1079   46.4387 H   0  0  0  0  0  0  0  0  0  0  0  0
   58.5180   29.1120   46.2330 C   0  0  0  0  0  0  0  0  0  0  0  0
   58.9774   28.7369   47.1594 H   0  0  0  0  0  0  0  0  0  0  0  0
   58.7710   28.3490   44.9930 C   0  0  0  0  0  0  0  0  0  0  0  0
   59.4800   28.8880   44.1020 O   0  0  0  0  0  0  0  0  0  0  0  0
   58.0950   27.0520   44.7340 C   0  0  0  0  0  0  0  0  0  0  0  0
   57.9513   26.7625   43.6826 H   0  0  0  0  0  0  0  0  0  0  0  0
   57.6440   26.2020   45.6700 C   0  0  0  0  0  0  0  0  0  0  0  0
   58.0760   26.2820   46.6785 H   0  0  0  0  0  0  0  0  0  0  0  0
   56.6140   25.1690   45.4510 C   0  0  0  0  0  0  0  0  0  0  0  0
   57.0080   23.9010   44.9970 C   0  0  0  0  0  0  0  0  0  0  0  0
   58.0736   23.6862   44.8284 H   0  0  0  0  0  0  0  0  0  0  0  0
   56.0510   22.9090   44.7580 C   0  0  0  0  0  0  0  0  0  0  0  0
   56.3665   21.9122   44.4162 H   0  0  0  0  0  0  0  0  0  0  0  0
   54.6950   23.1830   44.9530 C   0  0  0  0  0  0  0  0  0  0  0  0
   53.9446   22.3990   44.7734 H   0  0  0  0  0  0  0  0  0  0  0  0
   54.2910   24.4520   45.3760 C   0  0  0  0  0  0  0  0  0  0  0  0
   53.2222   24.6676   45.5216 H   0  0  0  0  0  0  0  0  0  0  0  0
   55.2440   25.4500   45.6150 C   0  0  0  0  0  0  0  0  0  0  0  0
   54.8220   26.7160   45.9980 O   0  0  0  0  0  0  0  0  0  0  0  0
   58.4250   32.3750   45.1360 C   0  0  0  0  0  0  0  0  0  0  0  0
   57.9670   31.9850   43.7580 C   0  0  0  0  0  0  0  0  0  0  0  0
   57.1317   31.2737   43.8369 H   0  0  0  0  0  0  0  0  0  0  0  0
   57.6349   32.8818   43.2145 H   0  0  0  0  0  0  0  0  0  0  0  0
   58.7994   31.5142   43.2145 H   0  0  0  0  0  0  0  0  0  0  0  0
   58.9610   33.5740   45.4520 N   0  0  0  0  0  0  0  0  0  0  0  0
   59.2870   34.6430   44.5020 C   0  0  0  0  0  0  0  0  0  0  0  0
   59.5644   35.5527   45.0547 H   0  0  0  0  0  0  0  0  0  0  0  0
   60.1296   34.3270   43.8694 H   0  0  0  0  0  0  0  0  0  0  0  0
   58.4114   34.8510   43.8694 H   0  0  0  0  0  0  0  0  0  0  0  0
   61.7830   34.2040   49.2280 C   0  0  0  0  0  0  0  0  0  0  0  0
   61.0843   34.5656   49.9968 H   0  0  0  0  0  0  0  0  0  0  0  0
   63.0560   33.7610   49.5990 C   0  0  0  0  0  0  0  0  0  0  0  0
   63.3554   33.7766   50.6574 H   0  0  0  0  0  0  0  0  0  0  0  0
  1  2  1  0
  2  3  1  0
  3  4  2  0
  4  5  1  0
  4  6  1  0
  6  7  1  0
  6  8  2  0
  8  9  1  0
  9 10  1  0
  9 11  1  0
  9 12  1  0
 12 13  2  0
 13 14  1  0
 14 15  2  0
 14 16  1  0
 13 17  1  0
 17 18  1  0
 18 19  1  0
 18 20  2  0
 20 21  1  0
 20 22  1  0
 22 23  2  0
 22 24  1  0
 24 25  1  0
 24 26  2  3
 26 27  1  0
 26 28  1  0
 28 29  2  0
 29 30  1  0
 29 31  1  0
 31 32  1  0
 31 33  2  0
 33 34  1  0
 33 35  1  0
 35 36  1  0
 35 37  2  0
 37 38  1  0
 17 39  2  0
 39 40  1  0
 40 41  1  0
 40 42  1  0
 40 43  1  0
 39 44  1  0
 44 45  1  0
 45 46  1  0
 45 47  1  0
 45 48  1  0
  8 49  1  0
 49 50  1  0
 49 51  2  0
 51 52  1  0
 51  3  1  0
 44 12  1  0
 37 28  1  0
M  CHG  2  16  -1  38  -1
M  END
>  <UniqueID>  (85) 
84

>  <SMILES>  (85) 
Cc1c(/C=C\C(=O)C=Cc2ccccc2[O-])c(C(=O)[O-])c(Cc2ccc(O)cc2)n1C

>  <Energy>  (85) 
99.52454749970374

>  <Genealogy>  (85) 
Cc1c(C=CC(=O)C=Cc2ccccc2[O-])c(C(=O)[O-])c(Cc2ccc(O)cc2)n1C (protonated)
Cc1c(/C=C\C(=O)C=Cc2ccccc2[O-])c(C(=O)[O-])c(Cc2ccc(O)cc2)n1C (cis-trans isomerization)
Cc1c(/C=C\C(=O)C=Cc2ccccc2[O-])c(C(=O)[O-])c(Cc2ccc(O)cc2)n1C (3D coordinates assigned)
Cc1c(/C=C\C(=O)C=Cc2ccccc2[O-])c(C(=O)[O-])c(Cc2ccc(O)cc2)n1C (optimized conformer: 99.52454749970374 kcal/mol)

>  <smiles>  (85) 
Cc1c(C=CC(=O)C=Cc2ccccc2O)c(C(=O)O)c(Cc2ccc(O)cc2)n1C

>  <score_type>  (85) 
oracle

>  <origin>  (85) 
adg

>  <m_score__min__energy>  (85) 
-14.130000000000001

>  <m_primary>  (85) 
energy

$$$$
86:0
     RDKit          3D

 52 56  0  0  0  0  0  0  0  0999 V2000
   59.3523   29.6850   47.7533 H   0  0  0  0  0  0  0  0  0  0  0  0
   58.8260   29.0930   46.9900 C   0  0  0  0  0  0  0  0  0  0  0  0
   58.7694   27.9986   47.0852 H   0  0  0  0  0  0  0  0  0  0  0  0
   58.2520   29.7070   45.9410 C   0  0  0  0  0  0  0  0  0  0  0  0
   57.5460   29.1060   44.8840 C   0  0  0  0  0  0  0  0  0  0  0  0
   57.1160   27.8400   44.7120 C   0  0  0  0  0  0  0  0  0  0  0  0
   56.6568   27.5925   43.7436 H   0  0  0  0  0  0  0  0  0  0  0  0
   57.2080   26.7580   45.7100 C   0  0  0  0  0  0  0  0  0  0  0  0
   56.0570   26.2120   46.3040 C   0  0  0  0  0  0  0  0  0  0  0  0
   54.7960   26.7040   45.9910 O   0  0  0  0  0  0  0  0  0  0  0  0
   56.1720   25.1890   47.1900 N   0  0  0  0  0  0  0  0  0  0  0  0
   57.3860   24.6670   47.5030 C   0  0  0  0  0  0  0  0  0  0  0  0
   57.4680   23.7220   48.3290 O   0  0  0  0  0  0  0  0  0  0  0  0
   58.5100   25.1590   46.9210 N   0  0  0  0  0  0  0  0  0  0  0  0
   58.4480   26.1810   46.0290 C   0  0  0  0  0  0  0  0  0  0  0  0
   59.5100   26.6090   45.5030 O   0  0  0  0  0  0  0  0  0  0  0  0
   57.3210   30.1060   43.9520 C   0  0  0  0  0  0  0  0  0  0  0  0
   56.8295   29.9912   42.9746 H   0  0  0  0  0  0  0  0  0  0  0  0
   57.8300   31.2720   44.4820 C   0  0  0  0  0  0  0  0  0  0  0  0
   57.7800   32.6070   43.8030 C   0  0  0  0  0  0  0  0  0  0  0  0
   57.7502   33.4032   44.5614 H   0  0  0  0  0  0  0  0  0  0  0  0
   58.6741   32.7325   43.1746 H   0  0  0  0  0  0  0  0  0  0  0  0
   56.8790   32.6652   43.1746 H   0  0  0  0  0  0  0  0  0  0  0  0
   58.3960   31.0330   45.6860 N   0  0  0  0  0  0  0  0  0  0  0  0
   59.0380   32.0140   46.5220 C   0  0  0  0  0  0  0  0  0  0  0  0
   58.3920   33.2220   46.8210 C   0  0  0  0  0  0  0  0  0  0  0  0
   57.3908   33.4245   46.4129 H   0  0  0  0  0  0  0  0  0  0  0  0
   59.0170   34.1690   47.6360 C   0  0  0  0  0  0  0  0  0  0  0  0
   58.5066   35.1154   47.8682 H   0  0  0  0  0  0  0  0  0  0  0  0
   60.2890   33.9170   48.1570 C   0  0  0  0  0  0  0  0  0  0  0  0
   60.7766   34.6672   48.7968 H   0  0  0  0  0  0  0  0  0  0  0  0
   60.9480   32.7110   47.8680 C   0  0  0  0  0  0  0  0  0  0  0  0
   62.2610   32.4560   48.4000 N   0  0  0  0  0  0  0  0  0  0  0  0
   62.4250   31.4060   49.4200 C   0  0  0  0  0  0  0  0  0  0  0  0
   62.3599   30.4196   48.9374 H   0  0  0  0  0  0  0  0  0  0  0  0
   61.6297   31.5143   50.1721 H   0  0  0  0  0  0  0  0  0  0  0  0
   63.7200   31.5320   50.0820 N   0  0  0  0  0  0  0  0  0  0  0  0
   64.1990   30.8140   51.1140 C   0  0  0  0  0  0  0  0  0  0  0  0
   63.6738   30.0002   51.6355 H   0  0  0  0  0  0  0  0  0  0  0  0
   65.4680   31.2800   51.4030 C   0  0  0  0  0  0  0  0  0  0  0  0
   66.1240   30.8984   52.1992 H   0  0  0  0  0  0  0  0  0  0  0  0
   65.7700   32.2790   50.5490 N   0  0  0  0  0  0  0  0  0  0  0  0
   66.6480   32.8440   50.5220 H   0  0  0  0  0  0  0  0  0  0  0  0
   64.6920   32.3980   49.7520 C   0  0  0  0  0  0  0  0  0  0  0  0
   64.5210   33.4270   48.6840 C   0  0  0  0  0  0  0  0  0  0  0  0
   65.4747   33.5667   48.1539 H   0  0  0  0  0  0  0  0  0  0  0  0
   64.2106   34.3789   49.1396 H   0  0  0  0  0  0  0  0  0  0  0  0
   63.4480   32.9630   47.6910 C   0  0  0  0  0  0  0  0  0  0  0  0
   63.8618   32.1611   47.0620 H   0  0  0  0  0  0  0  0  0  0  0  0
   63.1478   33.8207   47.0712 H   0  0  0  0  0  0  0  0  0  0  0  0
   60.3140   31.7620   47.0490 C   0  0  0  0  0  0  0  0  0  0  0  0
   60.8218   30.8137   46.8189 H   0  0  0  0  0  0  0  0  0  0  0  0
  1  2  1  0
  2  3  1  0
  2  4  2  0
  4  5  1  0
  5  6  2  0
  6  7  1  0
  6  8  1  0
  8  9  2  0
  9 10  1  0
  9 11  1  0
 11 12  1  0
 12 13  2  0
 12 14  1  0
 14 15  1  0
 15 16  2  0
  5 17  1  0
 17 18  1  0
 17 19  2  0
 19 20  1  0
 20 21  1  0
 20 22  1  0
 20 23  1  0
 19 24  1  0
 24 25  1  0
 25 26  2  0
 26 27  1  0
 26 28  1  0
 28 29  1  0
 28 30  2  0
 30 31  1  0
 30 32  1  0
 32 33  1  0
 33 34  1  0
 34 35  1  0
 34 36  1  0
 34 37  1  0
 37 38  1  0
 38 39  1  0
 38 40  2  0
 40 41  1  0
 40 42  1  0
 42 43  1  0
 42 44  2  0
 44 45  1  0
 45 46  1  0
 45 47  1  0
 45 48  1  0
 48 49  1  0
 48 50  1  0
 32 51  2  0
 51 52  1  0
 24  4  1  0
 51 25  1  0
 15  8  1  0
 48 33  1  0
 44 37  1  0
M  CHG  4  10  -1  11  -1  14  -1  42   1
M  END
>  <UniqueID>  (86) 
85

>  <SMILES>  (86) 
C=c1/c(=C\c2c([O-])[n-]c(=O)[n-]c2=O)cc(C)n1-c1cccc(N2CCc3[nH+]ccn3C2)c1

>  <Energy>  (86) 
141.95482977587355

>  <Genealogy>  (86) 
C=c1c(=Cc2c([O-])[n-]c(=O)[n-]c2=O)cc(C)n1-c1cccc(N2CCc3[nH+]ccn3C2)c1 (protonated)
C=c1/c(=C\c2c([O-])[n-]c(=O)[n-]c2=O)cc(C)n1-c1cccc(N2CCc3[nH+]ccn3C2)c1 (cis-trans isomerization)
C=c1/c(=C\c2c([O-])[n-]c(=O)[n-]c2=O)cc(C)n1-c1cccc(N2CCc3[nH+]ccn3C2)c1 (3D coordinates assigned)
C=c1/c(=C\c2c([O-])[n-]c(=O)[n-]c2=O)cc(C)n1-c1cccc(N2CCc3[nH+]ccn3C2)c1 (nonaromatic ring conformer: 141.95482977587355 kcal/mol)

>  <smiles>  (86) 
C=c1c(=Cc2c(O)[nH]c(=O)[nH]c2=O)cc(C)n1-c1cccc(N2CCc3nccn3C2)c1

>  <score_type>  (86) 
oracle

>  <origin>  (86) 
adg

>  <m_score__min__energy>  (86) 
-15.640000000000001

>  <m_primary>  (86) 
energy

$$$$
87:0
     RDKit          3D

 49 52  0  0  0  0  0  0  0  0999 V2000
   59.4810   24.4306   45.4394 H   0  0  0  0  0  0  0  0  0  0  0  0
   58.4920   24.8970   45.5590 C   0  0  0  0  0  0  0  0  0  0  0  0
   58.3960   26.2120   45.8890 N   0  0  0  0  0  0  0  0  0  0  0  0
   57.1950   26.8330   46.0540 C   0  0  0  0  0  0  0  0  0  0  0  0
   57.1200   28.1010   46.3510 N   0  0  0  0  0  0  0  0  0  0  0  0
   56.9880   29.2160   45.4540 C   0  0  0  0  0  0  0  0  0  0  0  0
   55.9010   29.3540   44.8300 O   0  0  0  0  0  0  0  0  0  0  0  0
   58.0990   30.2180   45.2400 C   0  0  0  0  0  0  0  0  0  0  0  0
   58.7493   29.8600   44.4283 H   0  0  0  0  0  0  0  0  0  0  0  0
   57.6413   31.1850   44.9842 H   0  0  0  0  0  0  0  0  0  0  0  0
   58.9310   30.4090   46.4830 C   0  0  0  0  0  0  0  0  0  0  0  0
   60.1040   29.6620   46.6670 C   0  0  0  0  0  0  0  0  0  0  0  0
   60.4348   28.9602   45.8872 H   0  0  0  0  0  0  0  0  0  0  0  0
   60.8530   29.8060   47.8360 C   0  0  0  0  0  0  0  0  0  0  0  0
   61.7739   29.2203   47.9732 H   0  0  0  0  0  0  0  0  0  0  0  0
   60.4360   30.6920   48.8320 C   0  0  0  0  0  0  0  0  0  0  0  0
   61.0311   30.7977   49.7511 H   0  0  0  0  0  0  0  0  0  0  0  0
   59.2630   31.4500   48.6710 C   0  0  0  0  0  0  0  0  0  0  0  0
   58.8290   32.3750   49.7520 C   0  0  0  0  0  0  0  0  0  0  0  0
   57.7270   32.1530   50.3320 O   0  0  0  0  0  0  0  0  0  0  0  0
   59.6110   33.5390   50.1280 N   0  0  2  0  0  0  0  0  0  0  0  0
   59.0030   34.1650   50.7050 H   0  0  0  0  0  0  0  0  0  0  0  0
   59.9530   34.3430   48.9200 C   0  0  0  0  0  0  0  0  0  0  0  0
   60.0312   35.4011   49.2103 H   0  0  0  0  0  0  0  0  0  0  0  0
   59.1573   34.1871   48.1767 H   0  0  0  0  0  0  0  0  0  0  0  0
   61.2550   33.9150   48.2960 C   0  0  0  0  0  0  0  0  0  0  0  0
   61.4230   33.8310   46.9070 C   0  0  0  0  0  0  0  0  0  0  0  0
   60.5761   34.0365   46.2358 H   0  0  0  0  0  0  0  0  0  0  0  0
   62.6710   33.4850   46.3760 C   0  0  0  0  0  0  0  0  0  0  0  0
   62.8015   33.4056   45.2867 H   0  0  0  0  0  0  0  0  0  0  0  0
   63.7530   33.2400   47.2290 C   0  0  0  0  0  0  0  0  0  0  0  0
   64.7332   32.9700   46.8091 H   0  0  0  0  0  0  0  0  0  0  0  0
   63.5900   33.3380   48.6150 C   0  0  0  0  0  0  0  0  0  0  0  0
   64.4429   33.1544   49.2850 H   0  0  0  0  0  0  0  0  0  0  0  0
   62.3360   33.6710   49.1480 C   0  0  0  0  0  0  0  0  0  0  0  0
   62.1020   33.7990   50.6210 C   0  0  0  0  0  0  0  0  0  0  0  0
   62.0571   34.8632   50.8957 H   0  0  0  0  0  0  0  0  0  0  0  0
   62.9246   33.3175   51.1701 H   0  0  0  0  0  0  0  0  0  0  0  0
   60.7710   33.1180   50.9800 C   0  0  0  0  0  0  0  0  0  0  0  0
   60.5336   33.3570   52.0271 H   0  0  0  0  0  0  0  0  0  0  0  0
   60.9127   32.0408   50.8079 H   0  0  0  0  0  0  0  0  0  0  0  0
   58.5070   31.2900   47.4930 C   0  0  0  0  0  0  0  0  0  0  0  0
   57.5755   31.8603   47.3623 H   0  0  0  0  0  0  0  0  0  0  0  0
   56.0120   26.1010   45.8630 C   0  0  0  0  0  0  0  0  0  0  0  0
   54.7690   26.7070   46.0110 O   0  0  0  0  0  0  0  0  0  0  0  0
   56.0890   24.7480   45.5240 C   0  0  0  0  0  0  0  0  0  0  0  0
   55.1688   24.1635   45.3771 H   0  0  0  0  0  0  0  0  0  0  0  0
   57.3360   24.1390   45.3720 C   0  0  0  0  0  0  0  0  0  0  0  0
   57.4062   23.0735   45.1078 H   0  0  0  0  0  0  0  0  0  0  0  0
  1  2  1  0
  2  3  1  0
  3  4  1  0
  4  5  2  0
  5  6  1  0
  6  7  2  0
  6  8  1  0
  8  9  1  0
  8 10  1  0
  8 11  1  0
 11 12  2  0
 12 13  1  0
 12 14  1  0
 14 15  1  0
 14 16  2  0
 16 17  1  0
 16 18  1  0
 18 19  1  0
 19 20  2  0
 19 21  1  0
 21 22  1  1
 21 23  1  0
 23 24  1  0
 23 25  1  0
 23 26  1  0
 26 27  2  0
 27 28  1  0
 27 29  1  0
 29 30  1  0
 29 31  2  0
 31 32  1  0
 31 33  1  0
 33 34  1  0
 33 35  2  0
 35 36  1  0
 36 37  1  0
 36 38  1  0
 36 39  1  0
 39 40  1  0
 39 41  1  0
 18 42  2  0
 42 43  1  0
  4 44  1  0
 44 45  1  0
 44 46  2  0
 46 47  1  0
 46 48  1  0
 48 49  1  0
 48  2  2  0
 42 11  1  0
 39 21  1  0
 35 26  1  0
M  CHG  3   3  -1  21   1  45  -1
M  END
>  <UniqueID>  (87) 
86

>  <SMILES>  (87) 
O=C(Cc1cccc(C(=O)[N@H+]2CCc3ccccc3C2)c1)/N=c1\[n-]cccc1[O-]

>  <Energy>  (87) 
74.79867126258532

>  <Genealogy>  (87) 
O=C(Cc1cccc(C(=O)[NH+]2CCc3ccccc3C2)c1)N=c1[n-]cccc1[O-] (protonated)
O=C(Cc1cccc(C(=O)[N@H+]2CCc3ccccc3C2)c1)N=c1[n-]cccc1[O-] (chirality)
O=C(Cc1cccc(C(=O)[N@H+]2CCc3ccccc3C2)c1)/N=c1\[n-]cccc1[O-] (cis-trans isomerization)
O=C(Cc1cccc(C(=O)[N@H+]2CCc3ccccc3C2)c1)/N=c1\[n-]cccc1[O-] (3D coordinates assigned)
O=C(Cc1cccc(C(=O)[N@H+]2CCc3ccccc3C2)c1)/N=c1\[n-]cccc1[O-] (nonaromatic ring conformer: 74.79867126258532 kcal/mol)

>  <smiles>  (87) 
O=C(Cc1cccc(C(=O)N2CCc3ccccc3C2)c1)N=c1[nH]cccc1O

>  <score_type>  (87) 
oracle

>  <origin>  (87) 
adg

>  <m_score__min__energy>  (87) 
-13.93

>  <m_primary>  (87) 
energy

$$$$
88:0
     RDKit          3D

 53 55  0  0  0  0  0  0  0  0999 V2000
   50.5770   33.8130   51.6280 H   0  0  0  0  0  0  0  0  0  0  0  0
   51.1660   33.2300   52.2080 O   0  0  0  0  0  0  0  0  0  0  0  0
   51.7520   32.0650   51.7160 C   0  0  0  0  0  0  0  0  0  0  0  0
   52.6620   31.3400   52.5010 C   0  0  0  0  0  0  0  0  0  0  0  0
   52.9206   31.6988   53.5081 H   0  0  0  0  0  0  0  0  0  0  0  0
   53.2460   30.1580   52.0100 C   0  0  0  0  0  0  0  0  0  0  0  0
   54.2240   29.4440   52.8690 C   0  0  0  0  0  0  0  0  0  0  0  0
   53.8820   29.1464   53.8712 H   0  0  0  0  0  0  0  0  0  0  0  0
   55.4860   29.1270   52.5390 C   0  0  0  0  0  0  0  0  0  0  0  0
   55.7024   28.0688   52.3305 H   0  0  0  0  0  0  0  0  0  0  0  0
   56.6050   30.0790   52.4330 C   0  0  0  0  0  0  0  0  0  0  0  0
   56.3480   31.2890   52.1960 O   0  0  0  0  0  0  0  0  0  0  0  0
   57.9690   29.6900   52.6410 N   0  0  0  0  0  0  0  0  0  0  0  0
   58.9540   29.4630   51.5860 C   0  0  0  0  0  0  0  0  0  0  0  0
   58.8081   28.4581   51.1629 H   0  0  0  0  0  0  0  0  0  0  0  0
   59.9638   29.5476   52.0139 H   0  0  0  0  0  0  0  0  0  0  0  0
   58.7920   30.5090   50.4750 C   0  0  0  0  0  0  0  0  0  0  0  0
   57.7187   30.6899   50.3156 H   0  0  0  0  0  0  0  0  0  0  0  0
   59.2760   30.1112   49.5708 H   0  0  0  0  0  0  0  0  0  0  0  0
   59.4700   31.8440   50.8150 C   0  0  0  0  0  0  0  0  0  0  0  0
   59.5070   31.9497   51.9093 H   0  0  0  0  0  0  0  0  0  0  0  0
   58.8777   32.6431   50.3452 H   0  0  0  0  0  0  0  0  0  0  0  0
   60.9040   31.9480   50.2630 C   0  0  0  0  0  0  0  0  0  0  0  0
   61.0997   31.0908   49.6020 H   0  0  0  0  0  0  0  0  0  0  0  0
   61.6092   31.9473   51.1072 H   0  0  0  0  0  0  0  0  0  0  0  0
   61.0770   33.1860   49.5070 N   0  0  0  0  0  0  0  0  0  0  0  0
   60.0070   33.9020   48.8770 C   0  0  0  0  0  0  0  0  0  0  0  0
   59.5780   34.9560   49.4130 O   0  0  0  0  0  0  0  0  0  0  0  0
   59.3890   33.4250   47.6290 C   0  0  0  0  0  0  0  0  0  0  0  0
   58.8230   32.1640   47.4720 C   0  0  0  0  0  0  0  0  0  0  0  0
   58.7340   31.3717   48.2298 H   0  0  0  0  0  0  0  0  0  0  0  0
   58.3980   32.1220   46.1620 C   0  0  0  0  0  0  0  0  0  0  0  0
   57.7830   31.0960   45.4490 C   0  0  0  0  0  0  0  0  0  0  0  0
   57.5518   30.1327   45.9271 H   0  0  0  0  0  0  0  0  0  0  0  0
   57.4660   31.3300   44.0960 C   0  0  0  0  0  0  0  0  0  0  0  0
   56.8350   30.2960   43.3190 C   0  0  0  0  0  0  0  0  0  0  0  0
   56.3260   29.4630   42.6930 N   0  0  0  0  0  0  0  0  0  0  0  0
   57.7690   32.5760   43.5010 C   0  0  0  0  0  0  0  0  0  0  0  0
   57.5180   32.7513   42.4445 H   0  0  0  0  0  0  0  0  0  0  0  0
   58.3890   33.5940   44.2490 C   0  0  0  0  0  0  0  0  0  0  0  0
   58.6264   34.5669   43.7939 H   0  0  0  0  0  0  0  0  0  0  0  0
   58.6940   33.3320   45.5870 C   0  0  0  0  0  0  0  0  0  0  0  0
   59.2880   34.1460   46.4790 N   0  0  0  0  0  0  0  0  0  0  0  0
   59.6870   35.5350   46.2500 C   0  0  0  0  0  0  0  0  0  0  0  0
   59.8318   36.0391   47.2169 H   0  0  0  0  0  0  0  0  0  0  0  0
   60.6278   35.5571   45.6805 H   0  0  0  0  0  0  0  0  0  0  0  0
   58.9013   36.0530   45.6805 H   0  0  0  0  0  0  0  0  0  0  0  0
   52.9370   29.7370   50.7030 C   0  0  0  0  0  0  0  0  0  0  0  0
   53.4162   28.8367   50.2908 H   0  0  0  0  0  0  0  0  0  0  0  0
   52.0250   30.4560   49.9260 C   0  0  0  0  0  0  0  0  0  0  0  0
   51.7739   30.1077   48.9133 H   0  0  0  0  0  0  0  0  0  0  0  0
   51.4310   31.6150   50.4300 C   0  0  0  0  0  0  0  0  0  0  0  0
   50.5280   32.3270   49.6460 O   0  0  0  0  0  0  0  0  0  0  0  0
  1  2  1  0
  2  3  1  0
  3  4  2  0
  4  5  1  0
  4  6  1  0
  6  7  1  0
  7  8  1  0
  7  9  2  0
  9 10  1  0
  9 11  1  0
 11 12  2  0
 11 13  1  0
 13 14  1  0
 14 15  1  0
 14 16  1  0
 14 17  1  0
 17 18  1  0
 17 19  1  0
 17 20  1  0
 20 21  1  0
 20 22  1  0
 20 23  1  0
 23 24  1  0
 23 25  1  0
 23 26  1  0
 26 27  1  0
 27 28  2  0
 27 29  1  0
 29 30  2  0
 30 31  1  0
 30 32  1  0
 32 33  2  0
 33 34  1  0
 33 35  1  0
 35 36  1  0
 36 37  3  0
 35 38  2  0
 38 39  1  0
 38 40  1  0
 40 41  1  0
 40 42  2  0
 42 43  1  0
 43 44  1  0
 44 45  1  0
 44 46  1  0
 44 47  1  0
  6 48  2  0
 48 49  1  0
 48 50  1  0
 50 51  1  0
 50 52  2  0
 52 53  1  0
 52  3  1  0
 43 29  1  0
 42 32  1  0
M  CHG  3  13  -1  26  -1  53  -1
M  END
>  <UniqueID>  (88) 
87

>  <SMILES>  (88) 
Cn1c(C(=O)[N-]CCCC[N-]C(=O)/C=C\c2ccc([O-])c(O)c2)cc2cc(C#N)ccc21

>  <Energy>  (88) 
100.03570012020981

>  <Genealogy>  (88) 
Cn1c(C(=O)[N-]CCCC[N-]C(=O)C=Cc2ccc([O-])c(O)c2)cc2cc(C#N)ccc21 (protonated)
Cn1c(C(=O)[N-]CCCC[N-]C(=O)/C=C\c2ccc([O-])c(O)c2)cc2cc(C#N)ccc21 (cis-trans isomerization)
Cn1c(C(=O)[N-]CCCC[N-]C(=O)/C=C\c2ccc([O-])c(O)c2)cc2cc(C#N)ccc21 (3D coordinates assigned)
Cn1c(C(=O)[N-]CCCC[N-]C(=O)/C=C\c2ccc([O-])c(O)c2)cc2cc(C#N)ccc21 (optimized conformer: 100.03570012020981 kcal/mol)

>  <smiles>  (88) 
Cn1c(C(=O)NCCCCNC(=O)C=Cc2ccc(O)c(O)c2)cc2cc(C#N)ccc21

>  <score_type>  (88) 
oracle

>  <origin>  (88) 
adg

>  <m_score__min__energy>  (88) 
-15.470000000000001

>  <m_primary>  (88) 
energy

$$$$
