0:0
     RDKit          3D

 46 49  0  0  0  0  0  0  0  0999 V2000
   57.0180   30.3370   44.0460 C   0  0  0  0  0  0  0  0  0  0  0  0
   57.1320   31.0430   45.2770 O   0  0  0  0  0  0  0  0  0  0  0  0
   57.8400   32.2430   45.4400 C   0  0  0  0  0  0  0  0  0  0  0  0
   57.3970   33.3760   44.7490 C   0  0  0  0  0  0  0  0  0  0  0  0
   58.0660   34.5930   44.8810 C   0  0  0  0  0  0  0  0  0  0  0  0
   59.1880   34.6910   45.7050 C   0  0  0  0  0  0  0  0  0  0  0  0
   59.6570   33.5680   46.4070 C   0  0  0  0  0  0  0  0  0  0  0  0
   60.8160   33.6720   47.2620 N   0  0  0  0  0  0  0  0  0  0  0  0
   62.1570   33.4560   46.6900 C   0  0  0  0  0  0  0  0  0  0  0  0
   63.2540   33.9260   47.6450 C   0  0  0  0  0  0  0  0  0  0  0  0
   63.0100   33.3680   48.9800 N   0  0  0  0  0  0  0  0  0  0  0  0
   64.0450   32.6460   49.6730 C   0  0  0  0  0  0  0  0  0  0  0  0
   65.3790   33.0760   49.6030 C   0  0  0  0  0  0  0  0  0  0  0  0
   66.3870   32.3690   50.2650 C   0  0  0  0  0  0  0  0  0  0  0  0
   66.0800   31.2170   51.0100 C   0  0  0  0  0  0  0  0  0  0  0  0
   67.1400   30.4600   51.7160 C   0  0  0  0  0  0  0  0  0  0  0  0
   67.9110   30.9880   52.6930 N   0  0  0  0  0  0  0  0  0  0  0  0
   68.8100   30.0940   53.1840 C   0  0  0  0  0  0  0  0  0  0  0  0
   68.7670   28.8340   52.6000 C   0  0  0  0  0  0  0  0  0  0  0  0
   67.5600   28.8510   51.4330 S   0  0  0  0  0  0  0  0  0  0  0  0
   64.7430   30.7870   51.0740 C   0  0  0  0  0  0  0  0  0  0  0  0
   63.7370   31.4940   50.4100 C   0  0  0  0  0  0  0  0  0  0  0  0
   61.6710   33.4680   49.5780 C   0  0  0  0  0  0  0  0  0  0  0  0
   60.6760   34.1680   48.6420 C   0  0  0  0  0  0  0  0  0  0  0  0
   58.9740   32.3450   46.2710 C   0  0  0  0  0  0  0  0  0  0  0  0
   56.8457   29.2699   44.2499 H   0  0  0  0  0  0  0  0  0  0  0  0
   56.1735   30.7410   43.4685 H   0  0  0  0  0  0  0  0  0  0  0  0
   57.9468   30.4546   43.4685 H   0  0  0  0  0  0  0  0  0  0  0  0
   56.5142   33.3066   44.0965 H   0  0  0  0  0  0  0  0  0  0  0  0
   57.7082   35.4778   44.3341 H   0  0  0  0  0  0  0  0  0  0  0  0
   59.7090   35.6545   45.8056 H   0  0  0  0  0  0  0  0  0  0  0  0
   62.2921   32.3827   46.4904 H   0  0  0  0  0  0  0  0  0  0  0  0
   62.2345   34.0391   45.7605 H   0  0  0  0  0  0  0  0  0  0  0  0
   64.2324   33.5833   47.2772 H   0  0  0  0  0  0  0  0  0  0  0  0
   63.2480   35.0246   47.6993 H   0  0  0  0  0  0  0  0  0  0  0  0
   65.6332   33.9756   49.0232 H   0  0  0  0  0  0  0  0  0  0  0  0
   67.4287   32.7168   50.2025 H   0  0  0  0  0  0  0  0  0  0  0  0
   69.5194   30.3495   53.9849 H   0  0  0  0  0  0  0  0  0  0  0  0
   69.4089   27.9783   52.8564 H   0  0  0  0  0  0  0  0  0  0  0  0
   64.4867   29.8866   51.6515 H   0  0  0  0  0  0  0  0  0  0  0  0
   62.6957   31.1440   50.4661 H   0  0  0  0  0  0  0  0  0  0  0  0
   61.3021   32.4547   49.7952 H   0  0  0  0  0  0  0  0  0  0  0  0
   61.7525   34.0664   50.4974 H   0  0  0  0  0  0  0  0  0  0  0  0
   59.6521   33.9723   48.9931 H   0  0  0  0  0  0  0  0  0  0  0  0
   60.8847   35.2480   48.6507 H   0  0  0  0  0  0  0  0  0  0  0  0
   59.3288   31.4596   46.8189 H   0  0  0  0  0  0  0  0  0  0  0  0
  1  2  1  0
  2  3  1  0
  3  4  2  0
  4  5  1  0
  5  6  2  0
  6  7  1  0
  7  8  1  0
  8  9  1  0
  9 10  1  0
 10 11  1  0
 11 12  1  0
 12 13  2  0
 13 14  1  0
 14 15  2  0
 15 16  1  0
 16 17  2  0
 17 18  1  0
 18 19  2  0
 19 20  1  0
 15 21  1  0
 21 22  2  0
 11 23  1  0
 23 24  1  0
  7 25  2  0
 25  3  1  0
 24  8  1  0
 22 12  1  0
 20 16  1  0
  1 26  1  0
  1 27  1  0
  1 28  1  0
  4 29  1  0
  5 30  1  0
  6 31  1  0
  9 32  1  0
  9 33  1  0
 10 34  1  0
 10 35  1  0
 13 36  1  0
 14 37  1  0
 18 38  1  0
 19 39  1  0
 21 40  1  0
 22 41  1  0
 23 42  1  0
 23 43  1  0
 24 44  1  0
 24 45  1  0
 25 46  1  0
M  END
>  <UniqueID>  (1) 
1

>  <SMILES>  (1) 
COc1cccc(N2CCN(c3ccc(-c4nccs4)cc3)CC2)c1

>  <Energy>  (1) 
87.63856868724113

>  <Genealogy>  (1) 
COc1cccc(N2CCN(c3ccc(-c4nccs4)cc3)CC2)c1 (3D coordinates assigned)
COc1cccc(N2CCN(c3ccc(-c4nccs4)cc3)CC2)c1 (nonaromatic ring conformer: 87.63856868724113 kcal/mol)

>  <smiles>  (1) 
COc1cccc(N2CCN(c3ccc(-c4nccs4)cc3)CC2)c1

>  <score_type>  (1) 
oracle

>  <origin>  (1) 
adg

>  <m_score__min__energy>  (1) 
-7.1600000000000001

>  <m_primary>  (1) 
energy

$$$$
1:0
     RDKit          3D

 37 38  0  0  0  0  0  0  0  0999 V2000
   59.0480   29.3240   46.6010 C   0  0  0  0  0  0  0  0  0  0  0  0
   58.6190   30.4670   46.0500 C   0  0  0  0  0  0  0  0  0  0  0  0
   59.1820   31.6070   46.5310 N   0  0  0  0  0  0  0  0  0  0  0  0
   58.7160   32.8380   46.2140 C   0  0  0  0  0  0  0  0  0  0  0  0
   59.3660   34.0130   46.7450 N   0  0  0  0  0  0  0  0  0  0  0  0
   59.5180   35.1850   45.9240 C   0  0  0  0  0  0  0  0  0  0  0  0
   58.8570   35.3240   44.8610 O   0  0  0  0  0  0  0  0  0  0  0  0
   59.9080   33.9840   48.1100 C   0  0  0  0  0  0  0  0  0  0  0  0
   61.3820   33.6840   48.0740 C   0  0  0  0  0  0  0  0  0  0  0  0
   62.1340   33.6800   49.2600 C   0  0  0  0  0  0  0  0  0  0  0  0
   63.5110   33.4420   49.2200 C   0  0  0  0  0  0  0  0  0  0  0  0
   64.1480   33.2140   47.9970 C   0  0  0  0  0  0  0  0  0  0  0  0
   63.4080   33.2270   46.8110 C   0  0  0  0  0  0  0  0  0  0  0  0
   62.0310   33.4650   46.8470 C   0  0  0  0  0  0  0  0  0  0  0  0
   57.6360   32.9390   45.4000 N   0  0  0  0  0  0  0  0  0  0  0  0
   57.0890   31.8500   44.8650 N   0  0  0  0  0  0  0  0  0  0  0  0
   57.5500   30.5860   45.1040 C   0  0  0  0  0  0  0  0  0  0  0  0
   56.9940   29.5780   44.3630 C   0  0  0  0  0  0  0  0  0  0  0  0
   57.7500   28.3780   43.8440 C   0  0  0  0  0  0  0  0  0  0  0  0
   55.5660   29.7190   43.8820 C   0  0  0  0  0  0  0  0  0  0  0  0
   58.6370   28.3617   46.2618 H   0  0  0  0  0  0  0  0  0  0  0  0
   59.8113   29.3476   47.3927 H   0  0  0  0  0  0  0  0  0  0  0  0
   60.2229   35.9722   46.2298 H   0  0  0  0  0  0  0  0  0  0  0  0
   59.7472   34.9624   48.5863 H   0  0  0  0  0  0  0  0  0  0  0  0
   59.3945   33.1993   48.6850 H   0  0  0  0  0  0  0  0  0  0  0  0
   61.6377   33.8648   50.2241 H   0  0  0  0  0  0  0  0  0  0  0  0
   64.0942   33.4342   50.1527 H   0  0  0  0  0  0  0  0  0  0  0  0
   65.2311   33.0244   47.9677 H   0  0  0  0  0  0  0  0  0  0  0  0
   63.9099   33.0497   45.8484 H   0  0  0  0  0  0  0  0  0  0  0  0
   61.4532   33.4809   45.9111 H   0  0  0  0  0  0  0  0  0  0  0  0
   57.2510   33.8700   45.1300 H   0  0  0  0  0  0  0  0  0  0  0  0
   58.1235   27.7851   44.6919 H   0  0  0  0  0  0  0  0  0  0  0  0
   57.0786   27.7587   43.2310 H   0  0  0  0  0  0  0  0  0  0  0  0
   58.5985   28.7162   43.2310 H   0  0  0  0  0  0  0  0  0  0  0  0
   54.8920   29.7855   44.7488 H   0  0  0  0  0  0  0  0  0  0  0  0
   55.4723   30.6308   43.2738 H   0  0  0  0  0  0  0  0  0  0  0  0
   55.2958   28.8432   43.2738 H   0  0  0  0  0  0  0  0  0  0  0  0
  1  2  2  0
  2  3  1  0
  3  4  2  0
  4  5  1  0
  5  6  1  0
  6  7  2  0
  5  8  1  0
  8  9  1  0
  9 10  2  0
 10 11  1  0
 11 12  2  0
 12 13  1  0
 13 14  2  0
  4 15  1  0
 15 16  2  0
 16 17  1  0
 17 18  2  3
 18 19  1  0
 18 20  1  0
 17  2  1  0
 14  9  1  0
  1 21  1  0
  1 22  1  0
  6 23  1  0
  8 24  1  0
  8 25  1  0
 10 26  1  0
 11 27  1  0
 12 28  1  0
 13 29  1  0
 14 30  1  0
 15 31  1  0
 19 32  1  0
 19 33  1  0
 19 34  1  0
 20 35  1  0
 20 36  1  0
 20 37  1  0
M  CHG  1  15   1
M  END
>  <UniqueID>  (2) 
2

>  <SMILES>  (2) 
C=c1nc(N(C=O)Cc2ccccc2)[nH+]nc1=C(C)C

>  <Energy>  (2) 
55.466365204985145

>  <Genealogy>  (2) 
C=c1nc(N(C=O)Cc2ccccc2)[nH+]nc1=C(C)C (protonated)
C=c1nc(N(C=O)Cc2ccccc2)[nH+]nc1=C(C)C (3D coordinates assigned)
C=c1nc(N(C=O)Cc2ccccc2)[nH+]nc1=C(C)C (optimized conformer: 55.466365204985145 kcal/mol)

>  <smiles>  (2) 
C=c1nc(N(C=O)Cc2ccccc2)nnc1=C(C)C

>  <score_type>  (2) 
oracle

>  <origin>  (2) 
adg

>  <m_score__min__energy>  (2) 
-5.54

>  <m_primary>  (2) 
energy

$$$$
2:0
     RDKit          3D

 32 34  0  0  0  0  0  0  0  0999 V2000
   58.2490   27.0870   43.1640 C   0  0  0  0  0  0  0  0  0  0  0  0
   57.7700   26.3720   44.3970 C   0  0  0  0  0  0  0  0  0  0  0  0
   57.2330   25.0990   44.3290 C   0  0  0  0  0  0  0  0  0  0  0  0
   56.7890   24.4250   45.4470 C   0  0  0  0  0  0  0  0  0  0  0  0
   56.8920   25.0640   46.6540 C   0  0  0  0  0  0  0  0  0  0  0  0
   57.4220   26.3330   46.7520 C   0  0  0  0  0  0  0  0  0  0  0  0
   57.8800   27.0300   45.6240 C   0  0  0  0  0  0  0  0  0  0  0  0
   58.4260   28.3660   45.7510 C   0  0  0  0  0  0  0  0  0  0  0  0
   59.6830   28.6120   46.2990 C   0  0  0  0  0  0  0  0  0  0  0  0
   59.8890   29.9420   46.2740 N   0  0  0  0  0  0  0  0  0  0  0  0
   61.0860   30.6070   46.7560 C   0  0  0  0  0  0  0  0  0  0  0  0
   58.8200   30.5660   45.7330 C   0  0  0  0  0  0  0  0  0  0  0  0
   58.5370   31.8630   45.4890 N   0  0  0  0  0  0  0  0  0  0  0  0
   57.3490   32.1470   44.9250 C   0  0  0  0  0  0  0  0  0  0  0  0
   56.4460   31.1970   44.6000 N   0  0  0  0  0  0  0  0  0  0  0  0
   56.6930   29.8790   44.8300 C   0  0  0  0  0  0  0  0  0  0  0  0
   55.8030   29.0520   44.5000 N   0  0  0  0  0  0  0  0  0  0  0  0
   57.9080   29.5810   45.4070 C   0  0  0  0  0  0  0  0  0  0  0  0
   58.8391   27.9679   43.4569 H   0  0  0  0  0  0  0  0  0  0  0  0
   58.8753   26.4082   42.5665 H   0  0  0  0  0  0  0  0  0  0  0  0
   57.3830   27.4080   42.5665 H   0  0  0  0  0  0  0  0  0  0  0  0
   57.1575   24.6069   43.3481 H   0  0  0  0  0  0  0  0  0  0  0  0
   56.3677   23.4116   45.3722 H   0  0  0  0  0  0  0  0  0  0  0  0
   56.5445   24.5539   47.5645 H   0  0  0  0  0  0  0  0  0  0  0  0
   57.4874   26.8114   47.7404 H   0  0  0  0  0  0  0  0  0  0  0  0
   60.3822   27.8548   46.6834 H   0  0  0  0  0  0  0  0  0  0  0  0
   61.0873   30.6077   47.8560 H   0  0  0  0  0  0  0  0  0  0  0  0
   61.9750   30.0735   46.3886 H   0  0  0  0  0  0  0  0  0  0  0  0
   61.1027   31.6437   46.3886 H   0  0  0  0  0  0  0  0  0  0  0  0
   59.2400   32.5940   45.7420 H   0  0  0  0  0  0  0  0  0  0  0  0
   57.1025   33.1992   44.7196 H   0  0  0  0  0  0  0  0  0  0  0  0
   55.9310   28.2270   43.9180 H   0  0  0  0  0  0  0  0  0  0  0  0
  1  2  1  0
  2  3  2  0
  3  4  1  0
  4  5  2  0
  5  6  1  0
  6  7  2  0
  7  8  1  0
  8  9  2  0
  9 10  1  0
 10 11  1  0
 10 12  1  0
 12 13  1  0
 13 14  1  0
 14 15  2  0
 15 16  1  0
 16 17  2  3
 16 18  1  0
  7  2  1  0
 18  8  1  0
 18 12  2  0
  1 19  1  0
  1 20  1  0
  1 21  1  0
  3 22  1  0
  4 23  1  0
  5 24  1  0
  6 25  1  0
  9 26  1  0
 11 27  1  0
 11 28  1  0
 11 29  1  0
 13 30  1  0
 14 31  1  0
 17 32  1  0
M  END
>  <smiles>  (3) 
Cc1ccccc1-c1cn(C)c2[nH]cnc(=N)c12

>  <score_type>  (3) 
oracle

>  <origin>  (3) 
adg

>  <m_score__min__energy>  (3) 
-6.1399999999999997

>  <m_primary>  (3) 
energy

$$$$
3:0
     RDKit          3D

 69 72  0  0  0  0  0  0  0  0999 V2000
   64.1280   33.3420   48.3670 C   0  0  0  0  0  0  0  0  0  0  0  0
   63.4980   31.9890   48.6690 C   0  0  0  0  0  0  0  0  0  0  0  0
   62.2810   31.7990   47.8670 N   0  0  0  0  0  0  0  0  0  0  0  0
   61.9870   32.7090   46.7470 C   0  0  0  0  0  0  0  0  0  0  0  0
   60.5150   33.0360   46.7070 C   0  0  0  0  0  0  0  0  0  0  0  0
   60.0270   34.2040   47.3140 C   0  0  0  0  0  0  0  0  0  0  0  0
   58.6730   34.5390   47.2050 C   0  0  0  0  0  0  0  0  0  0  0  0
   57.8010   33.7180   46.4850 C   0  0  0  0  0  0  0  0  0  0  0  0
   58.2770   32.5490   45.8810 C   0  0  0  0  0  0  0  0  0  0  0  0
   57.3850   31.7170   45.1160 C   0  0  0  0  0  0  0  0  0  0  0  0
   56.6680   31.0460   44.5030 N   0  0  0  0  0  0  0  0  0  0  0  0
   59.6290   32.2040   45.9990 C   0  0  0  0  0  0  0  0  0  0  0  0
   61.2860   30.8470   48.3010 C   0  0  0  0  0  0  0  0  0  0  0  0
   60.7540   30.9570   49.5480 N   0  0  0  0  0  0  0  0  0  0  0  0
   59.7220   30.1750   49.9540 C   0  0  0  0  0  0  0  0  0  0  0  0
   59.1610   30.3650   51.2610 N   0  0  0  0  0  0  0  0  0  0  0  0
   59.9340   29.9650   52.4330 C   0  0  0  0  0  0  0  0  0  0  0  0
   57.7330   31.3340   51.4800 S   0  0  0  0  0  0  0  0  0  0  0  0
   57.8990   32.2880   52.9720 C   0  0  0  0  0  0  0  0  0  0  0  0
   57.5470   32.2770   50.3250 O   0  0  0  0  0  0  0  0  0  0  0  0
   56.5300   30.4400   51.5760 O   0  0  0  0  0  0  0  0  0  0  0  0
   59.2040   29.2160   49.0820 C   0  0  0  0  0  0  0  0  0  0  0  0
   59.7530   29.1000   47.7990 C   0  0  0  0  0  0  0  0  0  0  0  0
   59.1990   28.1280   46.8280 C   0  0  0  0  0  0  0  0  0  0  0  0
   57.9550   28.3420   46.2200 C   0  0  0  0  0  0  0  0  0  0  0  0
   57.4490   27.4220   45.3600 N   0  0  0  0  0  0  0  0  0  0  0  0
   58.1240   26.2800   45.0750 C   0  0  0  0  0  0  0  0  0  0  0  0
   57.6000   25.4190   44.2540 N   0  0  0  0  0  0  0  0  0  0  0  0
   56.5350   24.4690   44.5900 C   0  0  0  0  0  0  0  0  0  0  0  0
   56.9530   23.6670   45.8340 C   0  0  0  0  0  0  0  0  0  0  0  0
   58.2140   22.8150   45.5850 C   0  0  0  0  0  0  0  0  0  0  0  0
   58.3380   22.3080   44.1330 C   0  0  0  0  0  0  0  0  0  0  0  0
   56.9710   22.1750   43.4570 C   0  0  0  0  0  0  0  0  0  0  0  0
   56.2330   23.5280   43.3920 C   0  0  0  0  0  0  0  0  0  0  0  0
   59.3340   26.0510   45.6540 N   0  0  0  0  0  0  0  0  0  0  0  0
   59.8820   26.9470   46.5140 C   0  0  0  0  0  0  0  0  0  0  0  0
   60.7870   29.9150   47.4380 N   0  0  0  0  0  0  0  0  0  0  0  0
   64.3665   33.8543   49.3108 H   0  0  0  0  0  0  0  0  0  0  0  0
   65.0505   33.1954   47.7860 H   0  0  0  0  0  0  0  0  0  0  0  0
   63.4221   33.9537   47.7860 H   0  0  0  0  0  0  0  0  0  0  0  0
   64.2179   31.1926   48.4292 H   0  0  0  0  0  0  0  0  0  0  0  0
   63.2317   31.9499   49.7356 H   0  0  0  0  0  0  0  0  0  0  0  0
   62.5613   33.6384   46.8749 H   0  0  0  0  0  0  0  0  0  0  0  0
   62.2687   32.2170   45.8044 H   0  0  0  0  0  0  0  0  0  0  0  0
   60.7105   34.8571   47.8764 H   0  0  0  0  0  0  0  0  0  0  0  0
   58.2936   35.4517   47.6877 H   0  0  0  0  0  0  0  0  0  0  0  0
   56.7394   33.9910   46.3930 H   0  0  0  0  0  0  0  0  0  0  0  0
   60.0000   31.2778   45.5358 H   0  0  0  0  0  0  0  0  0  0  0  0
   59.3887   30.2472   53.3457 H   0  0  0  0  0  0  0  0  0  0  0  0
   60.0851   28.8755   52.4182 H   0  0  0  0  0  0  0  0  0  0  0  0
   60.9107   30.4709   52.4182 H   0  0  0  0  0  0  0  0  0  0  0  0
   57.7841   31.6276   53.8442 H   0  0  0  0  0  0  0  0  0  0  0  0
   58.8926   32.7592   52.9973 H   0  0  0  0  0  0  0  0  0  0  0  0
   57.1229   33.0672   52.9973 H   0  0  0  0  0  0  0  0  0  0  0  0
   58.3778   28.5619   49.3976 H   0  0  0  0  0  0  0  0  0  0  0  0
   57.3870   29.2579   46.4402 H   0  0  0  0  0  0  0  0  0  0  0  0
   55.6095   25.0210   44.8108 H   0  0  0  0  0  0  0  0  0  0  0  0
   57.1573   24.3694   46.6555 H   0  0  0  0  0  0  0  0  0  0  0  0
   56.1292   22.9829   46.0857 H   0  0  0  0  0  0  0  0  0  0  0  0
   59.0985   23.4264   45.8169 H   0  0  0  0  0  0  0  0  0  0  0  0
   58.1381   21.9284   46.2317 H   0  0  0  0  0  0  0  0  0  0  0  0
   58.9510   23.0186   43.5592 H   0  0  0  0  0  0  0  0  0  0  0  0
   58.8047   21.3122   44.1579 H   0  0  0  0  0  0  0  0  0  0  0  0
   57.1144   21.7976   42.4338 H   0  0  0  0  0  0  0  0  0  0  0  0
   56.3605   21.4794   44.0516 H   0  0  0  0  0  0  0  0  0  0  0  0
   56.5310   24.0406   42.4655 H   0  0  0  0  0  0  0  0  0  0  0  0
   55.1562   23.3057   43.4248 H   0  0  0  0  0  0  0  0  0  0  0  0
   60.8647   26.7447   46.9651 H   0  0  0  0  0  0  0  0  0  0  0  0
   61.1860   29.8380   46.4770 H   0  0  0  0  0  0  0  0  0  0  0  0
  1  2  1  0
  2  3  1  0
  3  4  1  0
  4  5  1  0
  5  6  2  0
  6  7  1  0
  7  8  2  0
  8  9  1  0
  9 10  1  0
 10 11  3  0
  9 12  2  0
  3 13  1  0
 13 14  2  0
 14 15  1  0
 15 16  1  0
 16 17  1  0
 16 18  1  0
 18 19  1  0
 18 20  2  0
 18 21  2  0
 15 22  2  0
 22 23  1  0
 23 24  1  0
 24 25  1  0
 25 26  2  0
 26 27  1  0
 27 28  2  3
 28 29  1  0
 29 30  1  0
 30 31  1  0
 31 32  1  0
 32 33  1  0
 33 34  1  0
 27 35  1  0
 35 36  1  0
 23 37  2  0
 12  5  1  0
 37 13  1  0
 36 24  2  0
 34 29  1  0
  1 38  1  0
  1 39  1  0
  1 40  1  0
  2 41  1  0
  2 42  1  0
  4 43  1  0
  4 44  1  0
  6 45  1  0
  7 46  1  0
  8 47  1  0
 12 48  1  0
 17 49  1  0
 17 50  1  0
 17 51  1  0
 19 52  1  0
 19 53  1  0
 19 54  1  0
 22 55  1  0
 25 56  1  0
 29 57  1  0
 30 58  1  0
 30 59  1  0
 31 60  1  0
 31 61  1  0
 32 62  1  0
 32 63  1  0
 33 64  1  0
 33 65  1  0
 34 66  1  0
 34 67  1  0
 36 68  1  0
 37 69  1  0
M  CHG  2  35  -1  37   1
M  END
>  <UniqueID>  (4) 
3

>  <SMILES>  (4) 
CCN(Cc1cccc(C#N)c1)c1nc(N(C)S(C)(=O)=O)cc(-c2cnc(=NC3CCCCC3)[n-]c2)[nH+]1

>  <Energy>  (4) 
75.96423303425199

>  <Genealogy>  (4) 
CCN(Cc1cccc(C#N)c1)c1nc(N(C)S(C)(=O)=O)cc(-c2cnc(=NC3CCCCC3)[n-]c2)[nH+]1 (protonated)
CCN(Cc1cccc(C#N)c1)c1nc(N(C)S(C)(=O)=O)cc(-c2cnc(=NC3CCCCC3)[n-]c2)[nH+]1 (3D coordinates assigned)
CCN(Cc1cccc(C#N)c1)c1nc(N(C)S(C)(=O)=O)cc(-c2cnc(=NC3CCCCC3)[n-]c2)[nH+]1 (nonaromatic ring conformer: 75.96423303425199 kcal/mol)

>  <smiles>  (4) 
CCN(Cc1cccc(C#N)c1)c1nc(-c2cnc(=NC3CCCCC3)[nH]c2)cc(N(C)S(C)(=O)=O)n1

>  <score_type>  (4) 
oracle

>  <origin>  (4) 
adg

>  <m_score__min__energy>  (4) 
-9.8399999999999999

>  <m_primary>  (4) 
energy

$$$$
4:0
     RDKit          3D

 51 55  0  0  0  0  0  0  0  0999 V2000
   60.8830   30.8944   49.5570 H   0  0  0  0  0  0  0  0  0  0  0  0
   60.5850   29.8940   49.2100 C   0  0  0  0  0  0  0  0  0  0  0  0
   59.7370   29.7610   48.1510 N   0  0  0  0  0  0  0  0  0  0  0  0
   59.4010   28.5400   47.7370 N   0  0  0  0  0  0  0  0  0  0  0  0
   58.5640   28.1770   46.7540 C   0  0  0  0  0  0  0  0  0  0  0  0
   57.7730   29.1180   45.9320 C   0  0  0  0  0  0  0  0  0  0  0  0
   56.6320   28.6800   45.2430 C   0  0  0  0  0  0  0  0  0  0  0  0
   56.3190   27.6272   45.3031 H   0  0  0  0  0  0  0  0  0  0  0  0
   55.8970   29.5890   44.4810 C   0  0  0  0  0  0  0  0  0  0  0  0
   55.0055   29.2512   43.9322 H   0  0  0  0  0  0  0  0  0  0  0  0
   56.2810   30.8910   44.4160 N   0  0  0  0  0  0  0  0  0  0  0  0
   57.3790   31.3530   45.0800 C   0  0  0  0  0  0  0  0  0  0  0  0
   57.7260   32.6030   45.0090 N   0  0  0  0  0  0  0  0  0  0  0  0
   57.7760   33.5230   46.1460 C   0  0  0  0  0  0  0  0  0  0  0  0
   57.0241   33.2200   46.8895 H   0  0  0  0  0  0  0  0  0  0  0  0
   57.5676   34.5417   45.7871 H   0  0  0  0  0  0  0  0  0  0  0  0
   59.1420   33.5030   46.7860 C   0  0  0  0  0  0  0  0  0  0  0  0
   60.2660   33.9080   46.0460 C   0  0  0  0  0  0  0  0  0  0  0  0
   60.1464   34.2238   44.9991 H   0  0  0  0  0  0  0  0  0  0  0  0
   61.5330   33.9120   46.6310 C   0  0  0  0  0  0  0  0  0  0  0  0
   62.4078   34.2301   46.0450 H   0  0  0  0  0  0  0  0  0  0  0  0
   61.6910   33.5130   47.9580 C   0  0  0  0  0  0  0  0  0  0  0  0
   62.6912   33.5151   48.4158 H   0  0  0  0  0  0  0  0  0  0  0  0
   60.5840   33.1110   48.7070 C   0  0  0  0  0  0  0  0  0  0  0  0
   60.7160   32.7986   49.7534 H   0  0  0  0  0  0  0  0  0  0  0  0
   59.2970   33.1030   48.1300 C   0  0  0  0  0  0  0  0  0  0  0  0
   58.1620   32.7080   48.8560 O   0  0  0  0  0  0  0  0  0  0  0  0
   58.1990   32.0430   50.1150 C   0  0  0  0  0  0  0  0  0  0  0  0
   58.1576   32.7871   50.9241 H   0  0  0  0  0  0  0  0  0  0  0  0
   57.3372   31.3643   50.1966 H   0  0  0  0  0  0  0  0  0  0  0  0
   59.1307   31.4641   50.1966 H   0  0  0  0  0  0  0  0  0  0  0  0
   58.1430   30.4680   45.8520 C   0  0  0  0  0  0  0  0  0  0  0  0
   59.0294   30.8308   46.3931 H   0  0  0  0  0  0  0  0  0  0  0  0
   58.5140   26.7790   46.7750 C   0  0  0  0  0  0  0  0  0  0  0  0
   57.7720   25.8910   45.8540 C   0  0  0  0  0  0  0  0  0  0  0  0
   58.1060   25.8680   44.4890 C   0  0  0  0  0  0  0  0  0  0  0  0
   58.9234   26.5019   44.1148 H   0  0  0  0  0  0  0  0  0  0  0  0
   57.4040   25.0430   43.6040 C   0  0  0  0  0  0  0  0  0  0  0  0
   57.6779   25.0214   42.5389 H   0  0  0  0  0  0  0  0  0  0  0  0
   56.3550   24.2460   44.0710 C   0  0  0  0  0  0  0  0  0  0  0  0
   55.6760   23.4470   43.2120 F   0  0  0  0  0  0  0  0  0  0  0  0
   56.0030   24.2770   45.4230 C   0  0  0  0  0  0  0  0  0  0  0  0
   55.1754   23.6520   45.7896 H   0  0  0  0  0  0  0  0  0  0  0  0
   56.7010   25.1010   46.3100 C   0  0  0  0  0  0  0  0  0  0  0  0
   56.4114   25.1321   47.3707 H   0  0  0  0  0  0  0  0  0  0  0  0
   59.3070   26.3010   47.7700 N   0  0  0  0  0  0  0  0  0  0  0  0
   59.8250   27.4140   48.3250 C   0  0  0  0  0  0  0  0  0  0  0  0
   60.6880   27.4710   49.4120 C   0  0  0  0  0  0  0  0  0  0  0  0
   61.0510   26.5562   49.9033 H   0  0  0  0  0  0  0  0  0  0  0  0
   61.0780   28.7440   49.8580 C   0  0  0  0  0  0  0  0  0  0  0  0
   61.7661   28.8432   50.7104 H   0  0  0  0  0  0  0  0  0  0  0  0
  1  2  1  0
  2  3  2  0
  3  4  1  0
  4  5  1  0
  5  6  1  0
  6  7  1  0
  7  8  1  0
  7  9  2  0
  9 10  1  0
  9 11  1  0
 11 12  1  0
 12 13  2  0
 13 14  1  0
 14 15  1  0
 14 16  1  0
 14 17  1  0
 17 18  2  0
 18 19  1  0
 18 20  1  0
 20 21  1  0
 20 22  2  0
 22 23  1  0
 22 24  1  0
 24 25  1  0
 24 26  2  0
 26 27  1  0
 27 28  1  0
 28 29  1  0
 28 30  1  0
 28 31  1  0
 12 32  1  0
 32 33  1  0
  5 34  2  0
 34 35  1  0
 35 36  2  0
 36 37  1  0
 36 38  1  0
 38 39  1  0
 38 40  2  0
 40 41  1  0
 40 42  1  0
 42 43  1  0
 42 44  2  0
 44 45  1  0
 34 46  1  0
 46 47  2  0
 47 48  1  0
 48 49  1  0
 48 50  2  0
 50 51  1  0
 50  2  1  0
 47  4  1  0
 32  6  2  0
 44 35  1  0
 26 17  1  0
M  CHG  1  11  -1
M  END
>  <UniqueID>  (5) 
4

>  <SMILES>  (5) 
COc1ccccc1C/N=c1/cc(-c2c(-c3ccc(F)cc3)nc3cccnn23)cc[n-]1

>  <Energy>  (5) 
102.63027473441383

>  <Genealogy>  (5) 
COc1ccccc1CN=c1cc(-c2c(-c3ccc(F)cc3)nc3cccnn23)cc[n-]1 (protonated)
COc1ccccc1C/N=c1/cc(-c2c(-c3ccc(F)cc3)nc3cccnn23)cc[n-]1 (cis-trans isomerization)
COc1ccccc1C/N=c1/cc(-c2c(-c3ccc(F)cc3)nc3cccnn23)cc[n-]1 (3D coordinates assigned)
COc1ccccc1C/N=c1/cc(-c2c(-c3ccc(F)cc3)nc3cccnn23)cc[n-]1 (optimized conformer: 102.63027473441383 kcal/mol)

>  <smiles>  (5) 
COc1ccccc1CN=c1cc(-c2c(-c3ccc(F)cc3)nc3cccnn23)cc[nH]1

>  <score_type>  (5) 
oracle

>  <origin>  (5) 
adg

>  <m_score__min__energy>  (5) 
-10.32

>  <m_primary>  (5) 
energy

$$$$
5:0
     RDKit          3D

 42 45  0  0  0  0  0  0  0  0999 V2000
   55.9020   29.3350   42.2560 O   0  0  0  0  0  0  0  0  0  0  0  0
   56.5620   30.2900   42.7520 C   0  0  0  0  0  0  0  0  0  0  0  0
   57.0590   31.2750   41.8930 C   0  0  0  0  0  0  0  0  0  0  0  0
   57.7750   32.3480   42.4090 C   0  0  0  0  0  0  0  0  0  0  0  0
   57.9930   32.4380   43.7850 C   0  0  0  0  0  0  0  0  0  0  0  0
   58.6820   33.4880   44.3180 N   0  0  0  0  0  0  0  0  0  0  0  0
   58.8870   33.5800   45.6620 C   0  0  0  0  0  0  0  0  0  0  0  0
   59.5930   34.6590   46.2150 C   0  0  0  0  0  0  0  0  0  0  0  0
   59.7880   34.7330   47.5980 C   0  0  0  0  0  0  0  0  0  0  0  0
   59.2810   33.7330   48.4350 C   0  0  0  0  0  0  0  0  0  0  0  0
   58.5750   32.6550   47.8920 C   0  0  0  0  0  0  0  0  0  0  0  0
   58.3770   32.5750   46.5100 C   0  0  0  0  0  0  0  0  0  0  0  0
   57.6940   31.5320   45.9730 N   0  0  0  0  0  0  0  0  0  0  0  0
   57.4840   31.4280   44.6320 C   0  0  0  0  0  0  0  0  0  0  0  0
   56.7810   30.3670   44.1080 N   0  0  0  0  0  0  0  0  0  0  0  0
   56.2190   29.3380   45.0100 C   0  0  0  0  0  0  0  0  0  0  0  0
   57.2080   28.1860   45.2310 C   0  0  0  0  0  0  0  0  0  0  0  0
   58.4920   28.7060   45.7550 N   0  0  0  0  0  0  0  0  0  0  0  0
   59.6540   28.1110   45.0650 C   0  0  0  0  0  0  0  0  0  0  0  0
   60.8910   29.0140   45.2200 C   0  0  0  0  0  0  0  0  0  0  0  0
   60.8430   30.0730   46.7180 S   0  0  0  0  0  0  0  0  0  0  0  0
   59.9950   28.8440   47.7640 C   0  0  0  0  0  0  0  0  0  0  0  0
   58.5910   28.5240   47.2200 C   0  0  0  0  0  0  0  0  0  0  0  0
   56.8833   31.2004   40.8097 H   0  0  0  0  0  0  0  0  0  0  0  0
   58.1687   33.1238   41.7358 H   0  0  0  0  0  0  0  0  0  0  0  0
   59.0580   34.2330   43.6870 H   0  0  0  0  0  0  0  0  0  0  0  0
   59.9934   35.4472   45.5605 H   0  0  0  0  0  0  0  0  0  0  0  0
   60.3417   35.5801   48.0290 H   0  0  0  0  0  0  0  0  0  0  0  0
   59.4380   33.7949   49.5220 H   0  0  0  0  0  0  0  0  0  0  0  0
   58.1756   31.8704   48.5515 H   0  0  0  0  0  0  0  0  0  0  0  0
   55.9866   29.8011   45.9803 H   0  0  0  0  0  0  0  0  0  0  0  0
   55.3100   28.9291   44.5446 H   0  0  0  0  0  0  0  0  0  0  0  0
   56.7818   27.4752   45.9543 H   0  0  0  0  0  0  0  0  0  0  0  0
   57.3908   27.6814   44.2708 H   0  0  0  0  0  0  0  0  0  0  0  0
   59.8686   27.1244   45.5016 H   0  0  0  0  0  0  0  0  0  0  0  0
   59.4193   28.0083   43.9953 H   0  0  0  0  0  0  0  0  0  0  0  0
   61.7842   28.3742   45.2746 H   0  0  0  0  0  0  0  0  0  0  0  0
   60.9112   29.6863   44.3496 H   0  0  0  0  0  0  0  0  0  0  0  0
   60.5906   27.9195   47.7859 H   0  0  0  0  0  0  0  0  0  0  0  0
   59.8895   29.2615   48.7762 H   0  0  0  0  0  0  0  0  0  0  0  0
   58.3495   27.4785   47.4620 H   0  0  0  0  0  0  0  0  0  0  0  0
   57.8845   29.2236   47.6906 H   0  0  0  0  0  0  0  0  0  0  0  0
  1  2  2  0
  2  3  1  0
  3  4  2  0
  4  5  1  0
  5  6  2  0
  6  7  1  0
  7  8  2  0
  8  9  1  0
  9 10  2  0
 10 11  1  0
 11 12  2  0
 12 13  1  0
 13 14  2  0
 14 15  1  0
 15 16  1  0
 16 17  1  0
 17 18  1  0
 18 19  1  0
 19 20  1  0
 20 21  1  0
 21 22  1  0
 22 23  1  0
 15  2  1  0
 23 18  1  0
 14  5  1  0
 12  7  1  0
  3 24  1  0
  4 25  1  0
  6 26  1  0
  8 27  1  0
  9 28  1  0
 10 29  1  0
 11 30  1  0
 16 31  1  0
 16 32  1  0
 17 33  1  0
 17 34  1  0
 19 35  1  0
 19 36  1  0
 20 37  1  0
 20 38  1  0
 22 39  1  0
 22 40  1  0
 23 41  1  0
 23 42  1  0
M  CHG  1   6   1
M  END
>  <UniqueID>  (6) 
5

>  <SMILES>  (6) 
O=c1ccc2[nH+]c3ccccc3nc2n1CCN1CCSCC1

>  <Energy>  (6) 
58.46784896899964

>  <Genealogy>  (6) 
O=c1ccc2[nH+]c3ccccc3nc2n1CCN1CCSCC1 (protonated)
O=c1ccc2[nH+]c3ccccc3nc2n1CCN1CCSCC1 (3D coordinates assigned)
O=c1ccc2[nH+]c3ccccc3nc2n1CCN1CCSCC1 (nonaromatic ring conformer: 58.46784896899964 kcal/mol)

>  <smiles>  (6) 
O=c1ccc2nc3ccccc3nc2n1CCN1CCSCC1

>  <score_type>  (6) 
oracle

>  <origin>  (6) 
adg

>  <m_score__min__energy>  (6) 
-6.1699999999999999

>  <m_primary>  (6) 
energy

$$$$
6:0
     RDKit          3D

 34 36  0  0  0  0  0  0  0  0999 V2000
   67.6400   33.0920   50.8330 C   0  0  0  0  0  0  0  0  0  0  0  0
   66.3230   33.3480   51.4070 N   0  0  0  0  0  0  0  0  0  0  0  0
   65.1140   33.4120   50.6280 C   0  0  0  0  0  0  0  0  0  0  0  0
   65.0440   32.7200   49.4100 C   0  0  0  0  0  0  0  0  0  0  0  0
   63.8830   32.7630   48.6320 C   0  0  0  0  0  0  0  0  0  0  0  0
   62.7680   33.5000   49.0600 C   0  0  0  0  0  0  0  0  0  0  0  0
   61.5450   33.5430   48.2350 C   0  0  0  0  0  0  0  0  0  0  0  0
   60.9890   32.4690   47.6430 N   0  0  0  0  0  0  0  0  0  0  0  0
   59.9230   33.0200   47.0240 C   0  0  0  0  0  0  0  0  0  0  0  0
   58.9550   32.2520   46.2110 C   0  0  0  0  0  0  0  0  0  0  0  0
   59.0380   30.8510   46.1390 C   0  0  0  0  0  0  0  0  0  0  0  0
   58.1230   30.1250   45.3720 C   0  0  0  0  0  0  0  0  0  0  0  0
   57.1060   30.7840   44.6600 C   0  0  0  0  0  0  0  0  0  0  0  0
   56.1660   30.0330   43.8700 N   0  0  0  0  0  0  0  0  0  0  0  0
   56.2610   30.0020   42.6260 O   0  0  0  0  0  0  0  0  0  0  0  0
   55.1440   29.3370   44.4750 O   0  0  0  0  0  0  0  0  0  0  0  0
   57.0240   32.1860   44.7330 C   0  0  0  0  0  0  0  0  0  0  0  0
   57.9400   32.9120   45.5010 C   0  0  0  0  0  0  0  0  0  0  0  0
   59.8430   34.3500   47.2320 N   0  0  0  0  0  0  0  0  0  0  0  0
   60.8620   34.6340   47.9840 O   0  0  0  0  0  0  0  0  0  0  0  0
   62.8350   34.1940   50.2790 C   0  0  0  0  0  0  0  0  0  0  0  0
   63.9950   34.1510   51.0570 C   0  0  0  0  0  0  0  0  0  0  0  0
   68.3714   32.9498   51.6423 H   0  0  0  0  0  0  0  0  0  0  0  0
   67.5993   32.1850   50.2120 H   0  0  0  0  0  0  0  0  0  0  0  0
   67.9421   33.9482   50.2120 H   0  0  0  0  0  0  0  0  0  0  0  0
   66.2660   33.4890   52.4420 H   0  0  0  0  0  0  0  0  0  0  0  0
   65.9107   32.1379   49.0635 H   0  0  0  0  0  0  0  0  0  0  0  0
   63.8433   32.2158   47.6786 H   0  0  0  0  0  0  0  0  0  0  0  0
   59.8291   30.3219   46.6905 H   0  0  0  0  0  0  0  0  0  0  0  0
   58.1993   29.0287   45.3251 H   0  0  0  0  0  0  0  0  0  0  0  0
   56.2332   32.7158   44.1817 H   0  0  0  0  0  0  0  0  0  0  0  0
   57.8644   34.0084   45.5490 H   0  0  0  0  0  0  0  0  0  0  0  0
   61.9677   34.7759   50.6241 H   0  0  0  0  0  0  0  0  0  0  0  0
   64.0341   34.6980   52.0106 H   0  0  0  0  0  0  0  0  0  0  0  0
  1  2  1  0
  2  3  1  0
  3  4  2  0
  4  5  1  0
  5  6  2  0
  6  7  1  0
  7  8  2  0
  8  9  1  0
  9 10  1  0
 10 11  2  0
 11 12  1  0
 12 13  2  0
 13 14  1  0
 14 15  2  0
 14 16  1  0
 13 17  1  0
 17 18  2  0
  9 19  2  0
 19 20  1  0
  6 21  1  0
 21 22  2  0
 22  3  1  0
 20  7  1  0
 18 10  1  0
  1 23  1  0
  1 24  1  0
  1 25  1  0
  2 26  1  0
  4 27  1  0
  5 28  1  0
 11 29  1  0
 12 30  1  0
 17 31  1  0
 18 32  1  0
 21 33  1  0
 22 34  1  0
M  CHG  2  14   1  16  -1
M  END
>  <UniqueID>  (7) 
6

>  <SMILES>  (7) 
CNc1ccc(-c2nc(-c3ccc([N+](=O)[O-])cc3)no2)cc1

>  <Energy>  (7) 
70.10995605958495

>  <Genealogy>  (7) 
CNc1ccc(-c2nc(-c3ccc([N+](=O)[O-])cc3)no2)cc1 (3D coordinates assigned)
CNc1ccc(-c2nc(-c3ccc([N+](=O)[O-])cc3)no2)cc1 (optimized conformer: 70.10995605958495 kcal/mol)

>  <smiles>  (7) 
CNc1ccc(-c2nc(-c3ccc([N+](=O)[O-])cc3)no2)cc1

>  <score_type>  (7) 
oracle

>  <origin>  (7) 
adg

>  <m_score__min__energy>  (7) 
-7.21

>  <m_primary>  (7) 
energy

$$$$
7:0
     RDKit          3D

 36 37  0  0  0  0  0  0  0  0999 V2000
   58.3950   25.4070   46.4140 C   0  0  0  0  0  0  0  0  0  0  0  0
   57.3890   26.1200   46.9280 C   0  0  0  0  0  0  0  0  0  0  0  0
   56.0960   26.2930   46.1890 C   0  0  0  0  0  0  0  0  0  0  0  0
   56.0260   27.6340   45.6250 N   0  0  0  0  0  0  0  0  0  0  0  0
   57.0830   28.2060   44.8470 C   0  0  0  0  0  0  0  0  0  0  0  0
   57.7750   27.4660   44.0940 O   0  0  0  0  0  0  0  0  0  0  0  0
   57.3650   29.6580   44.9250 C   0  0  0  0  0  0  0  0  0  0  0  0
   57.1320   30.4920   43.8150 C   0  0  0  0  0  0  0  0  0  0  0  0
   57.3990   31.8630   43.8900 C   0  0  0  0  0  0  0  0  0  0  0  0
   57.9060   32.4210   45.0690 C   0  0  0  0  0  0  0  0  0  0  0  0
   58.2300   34.1480   45.1610 S   0  0  0  0  0  0  0  0  0  0  0  0
   56.9810   34.9120   44.8230 O   0  0  0  0  0  0  0  0  0  0  0  0
   59.3240   34.4930   44.1900 O   0  0  0  0  0  0  0  0  0  0  0  0
   58.7220   34.5520   46.7740 N   0  0  0  0  0  0  0  0  0  0  0  0
   59.9830   34.2090   47.3640 C   0  0  0  0  0  0  0  0  0  0  0  0
   61.0400   33.8420   46.5200 C   0  0  0  0  0  0  0  0  0  0  0  0
   62.2860   33.5000   47.0530 C   0  0  0  0  0  0  0  0  0  0  0  0
   62.4860   33.5220   48.4370 C   0  0  0  0  0  0  0  0  0  0  0  0
   64.1890   33.0550   49.1640 Br  0  0  0  0  0  0  0  0  0  0  0  0
   61.4370   33.8860   49.2870 C   0  0  0  0  0  0  0  0  0  0  0  0
   60.1890   34.2280   48.7560 C   0  0  0  0  0  0  0  0  0  0  0  0
   58.1340   31.5980   46.1800 C   0  0  0  0  0  0  0  0  0  0  0  0
   57.8680   30.2280   46.1090 C   0  0  0  0  0  0  0  0  0  0  0  0
   59.3336   25.2953   46.9766 H   0  0  0  0  0  0  0  0  0  0  0  0
   58.2847   24.9316   45.4282 H   0  0  0  0  0  0  0  0  0  0  0  0
   57.5119   26.5903   47.9147 H   0  0  0  0  0  0  0  0  0  0  0  0
   56.0369   25.5522   45.3780 H   0  0  0  0  0  0  0  0  0  0  0  0
   55.2572   26.1476   46.8856 H   0  0  0  0  0  0  0  0  0  0  0  0
   56.7373   30.0626   42.8824 H   0  0  0  0  0  0  0  0  0  0  0  0
   57.2095   32.5059   43.0178 H   0  0  0  0  0  0  0  0  0  0  0  0
   60.8880   33.8230   45.4307 H   0  0  0  0  0  0  0  0  0  0  0  0
   63.1101   33.2133   46.3832 H   0  0  0  0  0  0  0  0  0  0  0  0
   61.5936   33.9034   50.3757 H   0  0  0  0  0  0  0  0  0  0  0  0
   59.3662   34.5126   49.4283 H   0  0  0  0  0  0  0  0  0  0  0  0
   58.5241   32.0324   47.1123 H   0  0  0  0  0  0  0  0  0  0  0  0
   58.0533   29.5901   46.9858 H   0  0  0  0  0  0  0  0  0  0  0  0
  1  2  2  0
  2  3  1  0
  3  4  1  0
  4  5  1  0
  5  6  2  0
  5  7  1  0
  7  8  2  0
  8  9  1  0
  9 10  2  0
 10 11  1  0
 11 12  2  0
 11 13  2  0
 11 14  1  0
 14 15  1  0
 15 16  2  0
 16 17  1  0
 17 18  2  0
 18 19  1  0
 18 20  1  0
 20 21  2  0
 10 22  1  0
 22 23  2  0
 23  7  1  0
 21 15  1  0
  1 24  1  0
  1 25  1  0
  2 26  1  0
  3 27  1  0
  3 28  1  0
  8 29  1  0
  9 30  1  0
 16 31  1  0
 17 32  1  0
 20 33  1  0
 21 34  1  0
 22 35  1  0
 23 36  1  0
M  CHG  2   4  -1  14  -1
M  END
>  <UniqueID>  (8) 
7

>  <SMILES>  (8) 
C=CC[N-]C(=O)c1ccc(S(=O)(=O)[N-]c2ccc(Br)cc2)cc1

>  <Energy>  (8) 
35.77608412543344

>  <Genealogy>  (8) 
C=CC[N-]C(=O)c1ccc(S(=O)(=O)[N-]c2ccc(Br)cc2)cc1 (protonated)
C=CC[N-]C(=O)c1ccc(S(=O)(=O)[N-]c2ccc(Br)cc2)cc1 (3D coordinates assigned)
C=CC[N-]C(=O)c1ccc(S(=O)(=O)[N-]c2ccc(Br)cc2)cc1 (optimized conformer: 35.77608412543344 kcal/mol)

>  <smiles>  (8) 
C=CCNC(=O)c1ccc(S(=O)(=O)Nc2ccc(Br)cc2)cc1

>  <score_type>  (8) 
oracle

>  <origin>  (8) 
adg

>  <m_score__min__energy>  (8) 
-10.380000000000001

>  <m_primary>  (8) 
energy

$$$$
8:0
     RDKit          3D

 66 69  0  0  0  0  0  0  0  0999 V2000
   57.1120   21.1020   42.7770 C   0  0  0  0  0  0  0  0  0  0  0  0
   55.9270   21.8400   43.0590 O   0  0  0  0  0  0  0  0  0  0  0  0
   55.8450   22.8810   43.9950 C   0  0  0  0  0  0  0  0  0  0  0  0
   54.6240   23.4940   44.3360 C   0  0  0  0  0  0  0  0  0  0  0  0
   54.5990   24.5400   45.2630 C   0  0  0  0  0  0  0  0  0  0  0  0
   53.4220   25.1330   45.5810 F   0  0  0  0  0  0  0  0  0  0  0  0
   55.7830   24.9780   45.8610 C   0  0  0  0  0  0  0  0  0  0  0  0
   57.0040   24.3610   45.5540 C   0  0  0  0  0  0  0  0  0  0  0  0
   58.2110   24.8330   46.1770 N   0  0  0  0  0  0  0  0  0  0  0  0
   58.2670   25.9580   47.0620 C   0  0  0  0  0  0  0  0  0  0  0  0
   57.2840   26.7420   47.1600 O   0  0  0  0  0  0  0  0  0  0  0  0
   59.4900   26.2440   47.7510 N   0  0  0  0  0  0  0  0  0  0  0  0
   59.8940   27.5220   48.2640 C   0  0  0  0  0  0  0  0  0  0  0  0
   60.7460   27.6420   49.3730 C   0  0  0  0  0  0  0  0  0  0  0  0
   61.1250   28.9020   49.8350 C   0  0  0  0  0  0  0  0  0  0  0  0
   60.6650   30.0630   49.1980 C   0  0  0  0  0  0  0  0  0  0  0  0
   61.0980   31.3360   49.6920 N   0  0  0  0  0  0  0  0  0  0  0  0
   60.2360   32.0670   50.6290 C   0  0  0  0  0  0  0  0  0  0  0  0
   60.7220   33.5080   50.8200 C   0  0  0  0  0  0  0  0  0  0  0  0
   60.9820   34.1710   49.4600 C   0  0  0  0  0  0  0  0  0  0  0  0
   61.9290   33.3540   48.5490 C   0  0  0  0  0  0  0  0  0  0  0  0
   62.2880   31.9740   49.1160 C   0  0  0  0  0  0  0  0  0  0  0  0
   59.8120   29.9530   48.0760 C   0  0  0  0  0  0  0  0  0  0  0  0
   59.1590   31.3640   47.2310 S   0  0  0  0  0  0  0  0  0  0  0  0
   58.7480   32.4480   48.1860 O   0  0  0  0  0  0  0  0  0  0  0  0
   60.2080   31.9080   46.3040 O   0  0  0  0  0  0  0  0  0  0  0  0
   57.7720   30.8940   46.3080 N   0  0  0  0  0  0  0  0  0  0  0  0
   57.6600   31.2360   44.9260 C   0  0  0  0  0  0  0  0  0  0  0  0
   58.1360   32.4790   44.4870 C   0  0  0  0  0  0  0  0  0  0  0  0
   58.0540   32.8330   43.1400 C   0  0  0  0  0  0  0  0  0  0  0  0
   57.4990   31.9450   42.2100 C   0  0  0  0  0  0  0  0  0  0  0  0
   57.3820   32.3390   40.7670 C   0  0  0  0  0  0  0  0  0  0  0  0
   56.9850   30.7160   42.6490 C   0  0  0  0  0  0  0  0  0  0  0  0
   57.0490   30.3570   44.0070 C   0  0  0  0  0  0  0  0  0  0  0  0
   56.5110   29.0210   44.4400 C   0  0  0  0  0  0  0  0  0  0  0  0
   59.4590   28.6790   47.6070 C   0  0  0  0  0  0  0  0  0  0  0  0
   57.0270   23.3230   44.6030 C   0  0  0  0  0  0  0  0  0  0  0  0
   57.5914   20.8034   43.7210 H   0  0  0  0  0  0  0  0  0  0  0  0
   56.8551   20.2039   42.1961 H   0  0  0  0  0  0  0  0  0  0  0  0
   57.8047   21.7287   42.1961 H   0  0  0  0  0  0  0  0  0  0  0  0
   53.6881   23.1491   43.8721 H   0  0  0  0  0  0  0  0  0  0  0  0
   55.7572   25.8124   46.5774 H   0  0  0  0  0  0  0  0  0  0  0  0
   59.1190   24.4010   45.8890 H   0  0  0  0  0  0  0  0  0  0  0  0
   61.1162   26.7386   49.8797 H   0  0  0  0  0  0  0  0  0  0  0  0
   61.7906   28.9856   50.7067 H   0  0  0  0  0  0  0  0  0  0  0  0
   59.2096   32.0839   50.2338 H   0  0  0  0  0  0  0  0  0  0  0  0
   60.2682   31.5565   51.6028 H   0  0  0  0  0  0  0  0  0  0  0  0
   59.9543   34.0805   51.3612 H   0  0  0  0  0  0  0  0  0  0  0  0
   61.6597   33.4945   51.3949 H   0  0  0  0  0  0  0  0  0  0  0  0
   60.0193   34.2932   48.9419 H   0  0  0  0  0  0  0  0  0  0  0  0
   61.4733   35.1352   49.6574 H   0  0  0  0  0  0  0  0  0  0  0  0
   61.4381   33.2127   47.5748 H   0  0  0  0  0  0  0  0  0  0  0  0
   62.8670   33.9226   48.4664 H   0  0  0  0  0  0  0  0  0  0  0  0
   62.6841   31.3413   48.3080 H   0  0  0  0  0  0  0  0  0  0  0  0
   63.0458   32.0963   49.9038 H   0  0  0  0  0  0  0  0  0  0  0  0
   58.5776   33.1807   45.2099 H   0  0  0  0  0  0  0  0  0  0  0  0
   58.4266   33.8130   42.8072 H   0  0  0  0  0  0  0  0  0  0  0  0
   57.0695   33.3914   40.6985 H   0  0  0  0  0  0  0  0  0  0  0  0
   58.3564   32.2129   40.2723 H   0  0  0  0  0  0  0  0  0  0  0  0
   56.6344   31.7015   40.2723 H   0  0  0  0  0  0  0  0  0  0  0  0
   56.5276   30.0266   41.9241 H   0  0  0  0  0  0  0  0  0  0  0  0
   56.4914   28.9723   45.5387 H   0  0  0  0  0  0  0  0  0  0  0  0
   55.4909   28.8923   44.0490 H   0  0  0  0  0  0  0  0  0  0  0  0
   57.1572   28.2213   44.0490 H   0  0  0  0  0  0  0  0  0  0  0  0
   58.8305   28.5877   46.7089 H   0  0  0  0  0  0  0  0  0  0  0  0
   57.9848   22.8535   44.3342 H   0  0  0  0  0  0  0  0  0  0  0  0
  1  2  1  0
  2  3  1  0
  3  4  2  0
  4  5  1  0
  5  6  1  0
  5  7  2  0
  7  8  1  0
  8  9  1  0
  9 10  1  0
 10 11  2  0
 10 12  1  0
 12 13  1  0
 13 14  2  0
 14 15  1  0
 15 16  2  0
 16 17  1  0
 17 18  1  0
 18 19  1  0
 19 20  1  0
 20 21  1  0
 21 22  1  0
 16 23  1  0
 23 24  1  0
 24 25  2  0
 24 26  2  0
 24 27  1  0
 27 28  1  0
 28 29  2  0
 29 30  1  0
 30 31  2  0
 31 32  1  0
 31 33  1  0
 33 34  2  0
 34 35  1  0
 23 36  2  0
  8 37  2  0
 37  3  1  0
 36 13  1  0
 22 17  1  0
 34 28  1  0
  1 38  1  0
  1 39  1  0
  1 40  1  0
  4 41  1  0
  7 42  1  0
  9 43  1  0
 14 44  1  0
 15 45  1  0
 18 46  1  0
 18 47  1  0
 19 48  1  0
 19 49  1  0
 20 50  1  0
 20 51  1  0
 21 52  1  0
 21 53  1  0
 22 54  1  0
 22 55  1  0
 29 56  1  0
 30 57  1  0
 32 58  1  0
 32 59  1  0
 32 60  1  0
 33 61  1  0
 35 62  1  0
 35 63  1  0
 35 64  1  0
 36 65  1  0
 37 66  1  0
M  CHG  2  12  -1  27  -1
M  END
>  <UniqueID>  (9) 
8

>  <SMILES>  (9) 
COc1cc(F)cc(NC(=O)[N-]c2ccc(N3CCCCC3)c(S(=O)(=O)[N-]c3ccc(C)cc3C)c2)c1

>  <Energy>  (9) 
91.01067028693707

>  <Genealogy>  (9) 
COc1cc(F)cc(NC(=O)[N-]c2ccc(N3CCCCC3)c(S(=O)(=O)[N-]c3ccc(C)cc3C)c2)c1 (protonated)
COc1cc(F)cc(NC(=O)[N-]c2ccc(N3CCCCC3)c(S(=O)(=O)[N-]c3ccc(C)cc3C)c2)c1 (3D coordinates assigned)
COc1cc(F)cc(NC(=O)[N-]c2ccc(N3CCCCC3)c(S(=O)(=O)[N-]c3ccc(C)cc3C)c2)c1 (nonaromatic ring conformer: 91.01067028693707 kcal/mol)

>  <smiles>  (9) 
COc1cc(F)cc(NC(=O)Nc2ccc(N3CCCCC3)c(S(=O)(=O)Nc3ccc(C)cc3C)c2)c1

>  <score_type>  (9) 
oracle

>  <origin>  (9) 
adg

>  <m_score__min__energy>  (9) 
-12.57

>  <m_primary>  (9) 
energy

$$$$
9:0
     RDKit          3D

 49 51  0  0  0  0  0  0  0  0999 V2000
   61.1620   28.8700   44.7950 C   0  0  0  0  0  0  0  0  0  0  0  0
   59.7520   28.9300   44.9790 O   0  0  0  0  0  0  0  0  0  0  0  0
   58.9480   27.8420   45.3610 C   0  0  0  0  0  0  0  0  0  0  0  0
   59.5070   26.6700   45.9080 C   0  0  0  0  0  0  0  0  0  0  0  0
   58.6850   25.6210   46.3280 C   0  0  0  0  0  0  0  0  0  0  0  0
   57.3000   25.7300   46.2130 C   0  0  0  0  0  0  0  0  0  0  0  0
   56.7320   26.8810   45.6660 C   0  0  0  0  0  0  0  0  0  0  0  0
   57.5450   27.9370   45.2200 C   0  0  0  0  0  0  0  0  0  0  0  0
   56.9060   29.1350   44.6320 C   0  0  0  0  0  0  0  0  0  0  0  0
   55.7220   29.4230   44.9570 O   0  0  0  0  0  0  0  0  0  0  0  0
   57.6030   29.9450   43.6720 N   0  0  0  0  0  0  0  0  0  0  0  0
   57.0290   31.1620   43.1020 C   0  0  0  0  0  0  0  0  0  0  0  0
   57.9180   32.3770   43.3890 C   0  0  0  0  0  0  0  0  0  0  0  0
   57.5440   33.0050   44.6790 N   0  0  0  0  0  0  0  0  0  0  0  0
   57.8290   32.1440   45.8430 C   0  0  0  0  0  0  0  0  0  0  0  0
   59.3310   32.0290   46.1140 C   0  0  0  0  0  0  0  0  0  0  0  0
   59.9260   33.3640   46.2270 N   0  0  0  0  0  0  0  0  0  0  0  0
   61.0120   33.5820   47.1520 C   0  0  0  0  0  0  0  0  0  0  0  0
   62.3540   33.4290   46.7550 C   0  0  0  0  0  0  0  0  0  0  0  0
   63.3740   33.6490   47.6830 C   0  0  0  0  0  0  0  0  0  0  0  0
   63.0590   34.0120   48.9920 C   0  0  0  0  0  0  0  0  0  0  0  0
   61.7190   34.1490   49.3570 C   0  0  0  0  0  0  0  0  0  0  0  0
   60.7380   33.9320   48.4400 N   0  0  0  0  0  0  0  0  0  0  0  0
   59.6150   34.3470   45.1810 C   0  0  0  0  0  0  0  0  0  0  0  0
   58.1100   34.3590   44.8630 C   0  0  0  0  0  0  0  0  0  0  0  0
   61.6592   28.8488   45.7760 H   0  0  0  0  0  0  0  0  0  0  0  0
   61.4201   27.9601   44.2334 H   0  0  0  0  0  0  0  0  0  0  0  0
   61.4965   29.7547   44.2334 H   0  0  0  0  0  0  0  0  0  0  0  0
   60.5990   26.5801   46.0052 H   0  0  0  0  0  0  0  0  0  0  0  0
   59.1312   24.7083   46.7498 H   0  0  0  0  0  0  0  0  0  0  0  0
   56.6541   24.9075   46.5540 H   0  0  0  0  0  0  0  0  0  0  0  0
   55.6382   26.9626   45.5831 H   0  0  0  0  0  0  0  0  0  0  0  0
   58.5470   29.6480   43.3360 H   0  0  0  0  0  0  0  0  0  0  0  0
   56.9309   31.0375   42.0135 H   0  0  0  0  0  0  0  0  0  0  0  0
   56.0442   31.3328   43.5614 H   0  0  0  0  0  0  0  0  0  0  0  0
   58.9683   32.0534   43.4357 H   0  0  0  0  0  0  0  0  0  0  0  0
   57.7820   33.1138   42.5836 H   0  0  0  0  0  0  0  0  0  0  0  0
   57.3393   32.5719   46.7302 H   0  0  0  0  0  0  0  0  0  0  0  0
   57.4440   31.1370   45.6244 H   0  0  0  0  0  0  0  0  0  0  0  0
   59.4902   31.4790   47.0532 H   0  0  0  0  0  0  0  0  0  0  0  0
   59.8072   31.4919   45.2805 H   0  0  0  0  0  0  0  0  0  0  0  0
   62.5971   33.1385   45.7223 H   0  0  0  0  0  0  0  0  0  0  0  0
   64.4258   33.5360   47.3815 H   0  0  0  0  0  0  0  0  0  0  0  0
   63.8572   34.1883   49.7281 H   0  0  0  0  0  0  0  0  0  0  0  0
   61.4560   34.4326   50.3867 H   0  0  0  0  0  0  0  0  0  0  0  0
   59.9174   35.3468   45.5260 H   0  0  0  0  0  0  0  0  0  0  0  0
   60.1631   34.0713   44.2680 H   0  0  0  0  0  0  0  0  0  0  0  0
   57.5809   34.8496   45.6933 H   0  0  0  0  0  0  0  0  0  0  0  0
   57.9800   34.9000   43.9141 H   0  0  0  0  0  0  0  0  0  0  0  0
  1  2  1  0
  2  3  1  0
  3  4  2  0
  4  5  1  0
  5  6  2  0
  6  7  1  0
  7  8  2  0
  8  9  1  0
  9 10  2  0
  9 11  1  0
 11 12  1  0
 12 13  1  0
 13 14  1  0
 14 15  1  0
 15 16  1  0
 16 17  1  0
 17 18  1  0
 18 19  2  0
 19 20  1  0
 20 21  2  0
 21 22  1  0
 22 23  2  0
 17 24  1  0
 24 25  1  0
  8  3  1  0
 25 14  1  0
 23 18  1  0
  1 26  1  0
  1 27  1  0
  1 28  1  0
  4 29  1  0
  5 30  1  0
  6 31  1  0
  7 32  1  0
 11 33  1  0
 12 34  1  0
 12 35  1  0
 13 36  1  0
 13 37  1  0
 15 38  1  0
 15 39  1  0
 16 40  1  0
 16 41  1  0
 19 42  1  0
 20 43  1  0
 21 44  1  0
 22 45  1  0
 24 46  1  0
 24 47  1  0
 25 48  1  0
 25 49  1  0
M  END
>  <UniqueID>  (10) 
9

>  <SMILES>  (10) 
COc1ccccc1C(=O)NCCN1CCN(c2ccccn2)CC1

>  <Energy>  (10) 
58.132578676524844

>  <Genealogy>  (10) 
COc1ccccc1C(=O)NCCN1CCN(c2ccccn2)CC1 (3D coordinates assigned)
COc1ccccc1C(=O)NCCN1CCN(c2ccccn2)CC1 (nonaromatic ring conformer: 58.132578676524844 kcal/mol)

>  <smiles>  (10) 
COc1ccccc1C(=O)NCCN1CCN(c2ccccn2)CC1

>  <score_type>  (10) 
oracle

>  <origin>  (10) 
adg

>  <m_score__min__energy>  (10) 
-8.6999999999999993

>  <m_primary>  (10) 
energy

$$$$
10:0
     RDKit          3D

 39 40  0  0  0  0  0  0  0  0999 V2000
   58.2189   25.9343   46.1790 H   0  0  0  0  0  0  0  0  0  0  0  0
   57.4370   26.2300   45.4640 C   0  0  0  0  0  0  0  0  0  0  0  0
   56.0980   25.6280   45.6220 C   0  0  0  0  0  0  0  0  0  0  0  0
   55.1550   26.3640   46.0180 O   0  0  0  0  0  0  0  0  0  0  0  0
   55.8380   24.2470   45.3020 N   0  0  0  0  0  0  0  0  0  0  0  0
   56.4730   23.6020   44.1480 C   0  0  0  0  0  0  0  0  0  0  0  0
   57.2042   22.8592   44.4995 H   0  0  0  0  0  0  0  0  0  0  0  0
   55.7055   23.1014   43.5395 H   0  0  0  0  0  0  0  0  0  0  0  0
   56.9855   24.3616   43.5395 H   0  0  0  0  0  0  0  0  0  0  0  0
   54.7720   23.5390   46.0110 C   0  0  0  0  0  0  0  0  0  0  0  0
   54.9235   23.6396   47.0959 H   0  0  0  0  0  0  0  0  0  0  0  0
   53.7986   23.9707   45.7351 H   0  0  0  0  0  0  0  0  0  0  0  0
   54.7924   22.4744   45.7351 H   0  0  0  0  0  0  0  0  0  0  0  0
   57.7680   27.1180   44.5030 C   0  0  0  0  0  0  0  0  0  0  0  0
   58.0470   28.5310   44.8690 C   0  0  0  0  0  0  0  0  0  0  0  0
   57.2110   29.5590   44.4010 C   0  0  0  0  0  0  0  0  0  0  0  0
   56.3466   29.3125   43.7669 H   0  0  0  0  0  0  0  0  0  0  0  0
   57.4680   30.8920   44.7340 C   0  0  0  0  0  0  0  0  0  0  0  0
   56.8018   31.6849   44.3632 H   0  0  0  0  0  0  0  0  0  0  0  0
   58.5710   31.2280   45.5390 C   0  0  0  0  0  0  0  0  0  0  0  0
   58.8450   32.6440   45.8930 C   0  0  0  0  0  0  0  0  0  0  0  0
   58.8980   33.6340   44.8930 C   0  0  0  0  0  0  0  0  0  0  0  0
   58.7355   33.3572   43.8409 H   0  0  0  0  0  0  0  0  0  0  0  0
   59.1560   34.9670   45.2290 C   0  0  0  0  0  0  0  0  0  0  0  0
   59.1952   35.7340   44.4415 H   0  0  0  0  0  0  0  0  0  0  0  0
   59.3640   35.3260   46.5630 C   0  0  0  0  0  0  0  0  0  0  0  0
   59.5679   36.3747   46.8251 H   0  0  0  0  0  0  0  0  0  0  0  0
   59.3130   34.3530   47.5640 C   0  0  0  0  0  0  0  0  0  0  0  0
   59.4754   34.6370   48.6142 H   0  0  0  0  0  0  0  0  0  0  0  0
   59.0560   33.0190   47.2340 C   0  0  0  0  0  0  0  0  0  0  0  0
   59.0183   32.2574   48.0268 H   0  0  0  0  0  0  0  0  0  0  0  0
   59.4110   30.2000   46.0010 C   0  0  0  0  0  0  0  0  0  0  0  0
   60.2790   30.4471   46.6299 H   0  0  0  0  0  0  0  0  0  0  0  0
   59.1540   28.8670   45.6690 C   0  0  0  0  0  0  0  0  0  0  0  0
   59.8226   28.0745   46.0362 H   0  0  0  0  0  0  0  0  0  0  0  0
   57.8410   26.7250   43.0470 C   0  0  0  0  0  0  0  0  0  0  0  0
   58.0414   25.6463   42.9680 H   0  0  0  0  0  0  0  0  0  0  0  0
   56.8844   26.9572   42.5561 H   0  0  0  0  0  0  0  0  0  0  0  0
   58.6504   27.2852   42.5561 H   0  0  0  0  0  0  0  0  0  0  0  0
  1  2  1  0
  2  3  1  0
  3  4  2  0
  3  5  1  0
  5  6  1  0
  6  7  1  0
  6  8  1  0
  6  9  1  0
  5 10  1  0
 10 11  1  0
 10 12  1  0
 10 13  1  0
  2 14  2  0
 14 15  1  0
 15 16  2  0
 16 17  1  0
 16 18  1  0
 18 19  1  0
 18 20  2  0
 20 21  1  0
 21 22  2  0
 22 23  1  0
 22 24  1  0
 24 25  1  0
 24 26  2  0
 26 27  1  0
 26 28  1  0
 28 29  1  0
 28 30  2  0
 30 31  1  0
 20 32  1  0
 32 33  1  0
 32 34  2  0
 34 35  1  0
 14 36  1  0
 36 37  1  0
 36 38  1  0
 36 39  1  0
 34 15  1  0
 30 21  1  0
M  END
>  <UniqueID>  (11) 
10

>  <SMILES>  (11) 
C/C(=C\C(=O)N(C)C)c1ccc(-c2ccccc2)cc1

>  <Energy>  (11) 
53.347454832695014

>  <Genealogy>  (11) 
C/C(=C\C(=O)N(C)C)c1ccc(-c2ccccc2)cc1 (cis-trans isomerization)
C/C(=C\C(=O)N(C)C)c1ccc(-c2ccccc2)cc1 (3D coordinates assigned)
C/C(=C\C(=O)N(C)C)c1ccc(-c2ccccc2)cc1 (optimized conformer: 53.347454832695014 kcal/mol)

>  <smiles>  (11) 
CC(=CC(=O)N(C)C)c1ccc(-c2ccccc2)cc1

>  <score_type>  (11) 
oracle

>  <origin>  (11) 
adg

>  <m_score__min__energy>  (11) 
-7.8200000000000003

>  <m_primary>  (11) 
energy

$$$$
11:0
     RDKit          3D

 46 48  0  0  0  0  0  0  0  0999 V2000
   62.0860   32.0230   49.1350 H   0  0  0  0  0  0  0  0  0  0  0  0
   61.4020   32.3640   49.7670 O   0  0  0  0  0  0  0  0  0  0  0  0
   60.1550   32.3580   49.1110 C   0  0  1  0  0  0  0  0  0  0  0  0
   59.9766   33.3746   48.7305 H   0  0  0  0  0  0  0  0  0  0  0  0
   60.1490   31.4130   47.8810 C   0  0  1  0  0  0  0  0  0  0  0  0
   59.2798   31.6802   47.2621 H   0  0  0  0  0  0  0  0  0  0  0  0
   61.2980   31.5990   47.0910 O   0  0  0  0  0  0  0  0  0  0  0  0
   61.9700   32.0790   47.6380 H   0  0  0  0  0  0  0  0  0  0  0  0
   59.9600   29.9320   48.2930 C   0  0  2  0  0  0  0  0  0  0  0  0
   60.8451   29.6101   48.8614 H   0  0  0  0  0  0  0  0  0  0  0  0
   59.7830   29.1300   47.1210 O   0  0  0  0  0  0  0  0  0  0  0  0
   58.7310   29.2120   46.1920 C   0  0  0  0  0  0  0  0  0  0  0  0
   57.6680   28.3140   46.3370 C   0  0  0  0  0  0  0  0  0  0  0  0
   57.6879   27.5731   47.1498 H   0  0  0  0  0  0  0  0  0  0  0  0
   56.5820   28.3490   45.4600 C   0  0  0  0  0  0  0  0  0  0  0  0
   55.5270   27.4610   45.6260 O   0  0  0  0  0  0  0  0  0  0  0  0
   56.5550   29.2750   44.4150 C   0  0  0  0  0  0  0  0  0  0  0  0
   55.6907   29.3064   43.7352 H   0  0  0  0  0  0  0  0  0  0  0  0
   57.6230   30.1660   44.2260 C   0  0  0  0  0  0  0  0  0  0  0  0
   57.5450   31.1340   43.1040 C   0  0  0  0  0  0  0  0  0  0  0  0
   57.2844   30.7525   42.1057 H   0  0  0  0  0  0  0  0  0  0  0  0
   57.7750   32.4500   43.2400 C   0  0  0  0  0  0  0  0  0  0  0  0
   57.7398   33.0788   42.3381 H   0  0  0  0  0  0  0  0  0  0  0  0
   58.0740   33.1040   44.5380 C   0  0  0  0  0  0  0  0  0  0  0  0
   59.2410   33.8650   44.7560 C   0  0  0  0  0  0  0  0  0  0  0  0
   59.9669   33.9988   43.9404 H   0  0  0  0  0  0  0  0  0  0  0  0
   59.4810   34.4510   46.0040 C   0  0  0  0  0  0  0  0  0  0  0  0
   60.3911   35.0477   46.1642 H   0  0  0  0  0  0  0  0  0  0  0  0
   58.5680   34.2800   47.0460 C   0  0  0  0  0  0  0  0  0  0  0  0
   58.7553   34.7479   48.0238 H   0  0  0  0  0  0  0  0  0  0  0  0
   57.4170   33.5150   46.8470 C   0  0  0  0  0  0  0  0  0  0  0  0
   56.7015   33.3755   47.6708 H   0  0  0  0  0  0  0  0  0  0  0  0
   57.1720   32.9260   45.6030 C   0  0  0  0  0  0  0  0  0  0  0  0
   56.2668   32.3186   45.4557 H   0  0  0  0  0  0  0  0  0  0  0  0
   58.7070   30.1370   45.1280 C   0  0  0  0  0  0  0  0  0  0  0  0
   59.5413   30.8424   45.0002 H   0  0  0  0  0  0  0  0  0  0  0  0
   58.7850   29.7990   49.0750 O   0  0  0  0  0  0  0  0  0  0  0  0
   58.9260   30.4750   50.3140 C   0  0  2  0  0  0  0  0  0  0  0  0
   59.8576   30.1449   50.7968 H   0  0  0  0  0  0  0  0  0  0  0  0
   57.7590   30.1410   51.1980 C   0  0  0  0  0  0  0  0  0  0  0  0
   56.7580   30.9040   51.2540 O   0  0  0  0  0  0  0  0  0  0  0  0
   57.8030   29.0090   52.0030 O   0  0  0  0  0  0  0  0  0  0  0  0
   59.0180   32.0070   50.0990 C   0  0  2  0  0  0  0  0  0  0  0  0
   59.2492   32.4622   51.0733 H   0  0  0  0  0  0  0  0  0  0  0  0
   57.7940   32.5430   49.6550 O   0  0  0  0  0  0  0  0  0  0  0  0
   57.1000   32.3230   50.3280 H   0  0  0  0  0  0  0  0  0  0  0  0
  1  2  1  0
  2  3  1  0
  3  4  1  6
  3  5  1  0
  5  6  1  6
  5  7  1  0
  7  8  1  0
  5  9  1  0
  9 10  1  1
  9 11  1  0
 11 12  1  0
 12 13  2  0
 13 14  1  0
 13 15  1  0
 15 16  1  0
 15 17  2  0
 17 18  1  0
 17 19  1  0
 19 20  1  0
 20 21  1  0
 20 22  2  0
 22 23  1  0
 22 24  1  0
 24 25  2  0
 25 26  1  0
 25 27  1  0
 27 28  1  0
 27 29  2  0
 29 30  1  0
 29 31  1  0
 31 32  1  0
 31 33  2  0
 33 34  1  0
 19 35  2  0
 35 36  1  0
  9 37  1  0
 37 38  1  0
 38 39  1  1
 38 40  1  0
 40 41  2  0
 40 42  1  0
 38 43  1  0
 43 44  1  1
 43 45  1  0
 45 46  1  0
 43  3  1  0
 35 12  1  0
 33 24  1  0
M  CHG  2  16  -1  42  -1
M  END
>  <UniqueID>  (12) 
11

>  <SMILES>  (12) 
O=C([O-])[C@H]1O[C@@H](Oc2cc([O-])cc(/C=C/c3ccccc3)c2)C(O)C(O)C1O

>  <Energy>  (12) 
61.34637921664585

>  <Genealogy>  (12) 
O=C([O-])C1OC(Oc2cc([O-])cc(C=Cc3ccccc3)c2)C(O)C(O)C1O (protonated)
O=C([O-])[C@H]1O[C@@H](Oc2cc([O-])cc(C=Cc3ccccc3)c2)C(O)C(O)C1O (chirality)
O=C([O-])[C@H]1O[C@@H](Oc2cc([O-])cc(/C=C/c3ccccc3)c2)C(O)C(O)C1O (cis-trans isomerization)
O=C([O-])[C@H]1O[C@@H](Oc2cc([O-])cc(/C=C/c3ccccc3)c2)C(O)C(O)C1O (3D coordinates assigned)
O=C([O-])[C@H]1O[C@@H](Oc2cc([O-])cc(/C=C/c3ccccc3)c2)C(O)C(O)C1O (nonaromatic ring conformer: 61.34637921664585 kcal/mol)

>  <smiles>  (12) 
O=C(O)C1OC(Oc2cc(O)cc(C=Cc3ccccc3)c2)C(O)C(O)C1O

>  <score_type>  (12) 
oracle

>  <origin>  (12) 
adg

>  <m_score__min__energy>  (12) 
-12.23

>  <m_primary>  (12) 
energy

$$$$
12:0
     RDKit          3D

 30 32  0  0  1  0  0  0  0  0999 V2000
   61.0280   28.3670   44.9090 C   0  0  0  0  0  0  0  0  0  0  0  0
   59.7820   27.6590   45.2270 N   0  0  0  0  0  0  0  0  0  0  0  0
   59.7050   26.3860   45.6250 N   0  0  0  0  0  0  0  0  0  0  0  0
   58.4140   26.0360   45.8360 C   0  0  0  0  0  0  0  0  0  0  0  0
   57.6430   27.1480   45.5560 C   0  0  0  0  0  0  0  0  0  0  0  0
   56.2820   27.4250   45.5790 C   0  0  0  0  0  0  0  0  0  0  0  0
   55.5110   26.4580   45.9380 N   0  0  0  0  0  0  0  0  0  0  0  0
   55.8370   28.6490   45.2380 N   0  0  0  0  0  0  0  0  0  0  0  0
   56.7160   29.6180   44.8700 C   0  0  0  0  0  0  0  0  0  0  0  0
   56.3240   30.8020   44.5380 N   0  0  0  0  0  0  0  0  0  0  0  0
   57.2220   31.8910   44.7400 C   0  0  0  0  0  0  0  0  0  0  0  0
   57.8970   32.4100   43.6310 C   0  0  0  0  0  0  0  0  0  0  0  0
   58.7850   33.4730   43.7760 C   0  0  0  0  0  0  0  0  0  0  0  0
   58.9670   33.9840   45.0430 C   0  0  0  0  0  0  0  0  0  0  0  0
   58.2890   33.4580   46.1350 C   0  0  0  0  0  0  0  0  0  0  0  0
   58.5250   34.0210   47.3440 F   0  0  0  0  0  0  0  0  0  0  0  0
   57.4060   32.4060   46.0070 C   0  0  0  0  0  0  0  0  0  0  0  0
   58.0290   29.3400   44.8510 N   0  0  0  0  0  0  0  0  0  0  0  0
   58.5410   28.1400   45.1780 C   0  0  0  0  0  0  0  0  0  0  0  0
   61.5346   28.6548   45.8420 H   0  0  0  0  0  0  0  0  0  0  0  0
   61.6853   27.7075   44.3233 H   0  0  0  0  0  0  0  0  0  0  0  0
   60.7978   29.2692   44.3233 H   0  0  0  0  0  0  0  0  0  0  0  0
   58.0484   25.0529   46.1674 H   0  0  0  0  0  0  0  0  0  0  0  0
   55.1510   26.3540   46.8990 H   0  0  0  0  0  0  0  0  0  0  0  0
   54.8120   28.8430   45.2610 H   0  0  0  0  0  0  0  0  0  0  0  0
   57.7252   31.9750   42.6354 H   0  0  0  0  0  0  0  0  0  0  0  0
   59.3216   33.8896   42.9108 H   0  0  0  0  0  0  0  0  0  0  0  0
   59.6618   34.8236   45.1920 H   0  0  0  0  0  0  0  0  0  0  0  0
   56.8720   31.9956   46.8767 H   0  0  0  0  0  0  0  0  0  0  0  0
   58.7450   30.0740   44.5670 H   0  0  0  0  0  0  0  0  0  0  0  0
  1  2  1  0
  2  3  1  0
  3  4  2  0
  4  5  1  0
  5  6  1  0
  6  7  2  3
  6  8  1  0
  8  9  1  0
  9 10  2  0
 10 11  1  0
 11 12  2  0
 12 13  1  0
 13 14  2  0
 14 15  1  0
 15 16  1  0
 15 17  2  0
  9 18  1  0
 18 19  1  0
 19  2  1  0
 19  5  2  0
 17 11  1  0
  1 20  1  0
  1 21  1  0
  1 22  1  0
  4 23  1  0
  7 24  1  0
  8 25  1  0
 12 26  1  0
 13 27  1  0
 14 28  1  0
 17 29  1  0
 18 30  1  0
M  END
>  <smiles>  (13) 
Cn1ncc2c(=N)[nH]c(=Nc3cccc(F)c3)[nH]c21

>  <score_type>  (13) 
oracle

>  <origin>  (13) 
adg

>  <m_score__min__energy>  (13) 
-6.6600000000000001

>  <m_primary>  (13) 
energy

$$$$
13:0
     RDKit          3D

 41 44  0  0  0  0  0  0  0  0999 V2000
   55.4970   29.3620   44.8020 O   0  0  0  0  0  0  0  0  0  0  0  0
   56.4020   29.5440   43.9440 C   0  0  0  0  0  0  0  0  0  0  0  0
   56.2780   30.6500   43.0420 N   0  0  0  0  0  0  0  0  0  0  0  0
   57.3050   31.6560   42.7910 C   0  0  0  0  0  0  0  0  0  0  0  0
   57.9200   32.1250   44.0830 C   0  0  0  0  0  0  0  0  0  0  0  0
   57.6700   33.4370   44.5500 C   0  0  0  0  0  0  0  0  0  0  0  0
   58.2320   33.8870   45.7560 C   0  0  0  0  0  0  0  0  0  0  0  0
   59.0320   33.0030   46.4790 C   0  0  0  0  0  0  0  0  0  0  0  0
   59.2730   31.7160   46.0420 C   0  0  0  0  0  0  0  0  0  0  0  0
   58.7210   31.2500   44.8480 C   0  0  0  0  0  0  0  0  0  0  0  0
   60.1580   30.9650   46.9960 C   0  0  0  0  0  0  0  0  0  0  0  0
   60.3870   32.0170   48.0420 C   0  0  0  0  0  0  0  0  0  0  0  0
   61.1490   31.9110   49.2080 C   0  0  0  0  0  0  0  0  0  0  0  0
   61.2330   33.0250   50.0590 C   0  0  0  0  0  0  0  0  0  0  0  0
   60.5600   34.2220   49.7380 C   0  0  0  0  0  0  0  0  0  0  0  0
   59.7980   34.3130   48.5610 C   0  0  0  0  0  0  0  0  0  0  0  0
   59.7290   33.1930   47.7330 C   0  0  0  0  0  0  0  0  0  0  0  0
   57.5160   28.6370   43.8650 N   0  0  0  0  0  0  0  0  0  0  0  0
   57.7990   27.6260   44.8470 C   0  0  0  0  0  0  0  0  0  0  0  0
   57.7870   26.2580   44.5190 C   0  0  0  0  0  0  0  0  0  0  0  0
   58.0390   25.2940   45.5010 C   0  0  0  0  0  0  0  0  0  0  0  0
   58.2940   25.6850   46.8180 C   0  0  0  0  0  0  0  0  0  0  0  0
   58.2870   27.0410   47.1580 C   0  0  0  0  0  0  0  0  0  0  0  0
   58.0320   28.0060   46.1790 C   0  0  0  0  0  0  0  0  0  0  0  0
   58.0896   31.2198   42.1554 H   0  0  0  0  0  0  0  0  0  0  0  0
   56.8403   32.5170   42.2883 H   0  0  0  0  0  0  0  0  0  0  0  0
   57.0292   34.1112   43.9628 H   0  0  0  0  0  0  0  0  0  0  0  0
   58.0462   34.9083   46.1200 H   0  0  0  0  0  0  0  0  0  0  0  0
   58.9066   30.2200   44.5093 H   0  0  0  0  0  0  0  0  0  0  0  0
   59.6501   30.0824   47.4120 H   0  0  0  0  0  0  0  0  0  0  0  0
   61.0757   30.5580   46.5464 H   0  0  0  0  0  0  0  0  0  0  0  0
   61.6720   30.9751   49.4543 H   0  0  0  0  0  0  0  0  0  0  0  0
   61.8278   32.9635   50.9823 H   0  0  0  0  0  0  0  0  0  0  0  0
   60.6319   35.0883   50.4121 H   0  0  0  0  0  0  0  0  0  0  0  0
   59.2704   35.2422   48.2998 H   0  0  0  0  0  0  0  0  0  0  0  0
   58.1030   28.6380   43.0040 H   0  0  0  0  0  0  0  0  0  0  0  0
   57.5784   25.9448   43.4854 H   0  0  0  0  0  0  0  0  0  0  0  0
   58.0364   24.2264   45.2359 H   0  0  0  0  0  0  0  0  0  0  0  0
   58.5002   24.9260   47.5871 H   0  0  0  0  0  0  0  0  0  0  0  0
   58.4821   27.3487   48.1959 H   0  0  0  0  0  0  0  0  0  0  0  0
   58.0137   29.0709   46.4540 H   0  0  0  0  0  0  0  0  0  0  0  0
  1  2  2  0
  2  3  1  0
  3  4  1  0
  4  5  1  0
  5  6  2  0
  6  7  1  0
  7  8  2  0
  8  9  1  0
  9 10  2  0
  9 11  1  0
 11 12  1  0
 12 13  2  0
 13 14  1  0
 14 15  2  0
 15 16  1  0
 16 17  2  0
  2 18  1  0
 18 19  1  0
 19 20  2  0
 20 21  1  0
 21 22  2  0
 22 23  1  0
 23 24  2  0
 10  5  1  0
 17 12  1  0
 24 19  1  0
 17  8  1  0
  4 25  1  0
  4 26  1  0
  6 27  1  0
  7 28  1  0
 10 29  1  0
 11 30  1  0
 11 31  1  0
 13 32  1  0
 14 33  1  0
 15 34  1  0
 16 35  1  0
 18 36  1  0
 20 37  1  0
 21 38  1  0
 22 39  1  0
 23 40  1  0
 24 41  1  0
M  CHG  1   3  -1
M  END
>  <UniqueID>  (14) 
12

>  <SMILES>  (14) 
O=C([N-]Cc1ccc2c(c1)Cc1ccccc1-2)Nc1ccccc1

>  <Energy>  (14) 
69.05257259497695

>  <Genealogy>  (14) 
O=C([N-]Cc1ccc2c(c1)Cc1ccccc1-2)Nc1ccccc1 (protonated)
O=C([N-]Cc1ccc2c(c1)Cc1ccccc1-2)Nc1ccccc1 (3D coordinates assigned)
O=C([N-]Cc1ccc2c(c1)Cc1ccccc1-2)Nc1ccccc1 (nonaromatic ring conformer: 69.05257259497695 kcal/mol)

>  <smiles>  (14) 
O=C(NCc1ccc2c(c1)Cc1ccccc1-2)Nc1ccccc1

>  <score_type>  (14) 
oracle

>  <origin>  (14) 
adg

>  <m_score__min__energy>  (14) 
-9.9199999999999999

>  <m_primary>  (14) 
energy

$$$$
14:0
     RDKit          3D

 60 64  0  0  0  0  0  0  0  0999 V2000
   61.7185   28.1172   49.2571 H   0  0  0  0  0  0  0  0  0  0  0  0
   60.7090   28.3080   48.8640 C   0  0  0  0  0  0  0  0  0  0  0  0
   60.0140   27.2890   48.2000 C   0  0  0  0  0  0  0  0  0  0  0  0
   60.4705   26.2936   48.0955 H   0  0  0  0  0  0  0  0  0  0  0  0
   58.7400   27.5310   47.6680 C   0  0  0  0  0  0  0  0  0  0  0  0
   58.0430   26.4540   47.0300 N   0  0  0  0  0  0  0  0  0  0  0  0
   57.0370   26.6150   45.6280 S   0  0  0  0  0  0  0  0  0  0  0  0
   57.3680   25.5460   44.6230 O   0  0  0  0  0  0  0  0  0  0  0  0
   55.5970   26.4540   46.0370 O   0  0  0  0  0  0  0  0  0  0  0  0
   57.2590   28.2250   44.9400 C   0  0  0  0  0  0  0  0  0  0  0  0
   56.1450   29.0560   44.7470 C   0  0  0  0  0  0  0  0  0  0  0  0
   55.1385   28.6864   44.9925 H   0  0  0  0  0  0  0  0  0  0  0  0
   56.3060   30.3500   44.2450 C   0  0  0  0  0  0  0  0  0  0  0  0
   55.4275   30.9972   44.1054 H   0  0  0  0  0  0  0  0  0  0  0  0
   57.5860   30.8270   43.9180 C   0  0  0  0  0  0  0  0  0  0  0  0
   57.7600   32.2310   43.4150 C   0  0  0  0  0  0  0  0  0  0  0  0
   57.8452   32.9186   44.2693 H   0  0  0  0  0  0  0  0  0  0  0  0
   58.6725   32.2910   42.8036 H   0  0  0  0  0  0  0  0  0  0  0  0
   56.8898   32.5119   42.8036 H   0  0  0  0  0  0  0  0  0  0  0  0
   58.7040   30.0000   44.1240 C   0  0  0  0  0  0  0  0  0  0  0  0
   59.7118   30.3719   43.8873 H   0  0  0  0  0  0  0  0  0  0  0  0
   58.5390   28.7030   44.6300 C   0  0  0  0  0  0  0  0  0  0  0  0
   59.4171   28.0587   44.7841 H   0  0  0  0  0  0  0  0  0  0  0  0
   58.1810   28.8170   47.7770 C   0  0  0  0  0  0  0  0  0  0  0  0
   57.1905   29.0225   47.3448 H   0  0  0  0  0  0  0  0  0  0  0  0
   58.8790   29.8340   48.4320 C   0  0  0  0  0  0  0  0  0  0  0  0
   58.4528   30.8469   48.4804 H   0  0  0  0  0  0  0  0  0  0  0  0
   60.1220   29.5700   49.0290 C   0  0  0  0  0  0  0  0  0  0  0  0
   60.8660   30.6160   49.6730 N   0  0  0  0  0  0  0  0  0  0  0  0
   61.4340   31.6810   49.1610 C   0  0  0  0  0  0  0  0  0  0  0  0
   60.7860   32.5640   48.2430 C   0  0  0  0  0  0  0  0  0  0  0  0
   59.3790   32.6720   48.1300 C   0  0  0  0  0  0  0  0  0  0  0  0
   58.7340   32.0844   48.7998 H   0  0  0  0  0  0  0  0  0  0  0  0
   58.7990   33.5150   47.1790 C   0  0  0  0  0  0  0  0  0  0  0  0
   57.7046   33.5539   47.0754 H   0  0  0  0  0  0  0  0  0  0  0  0
   59.6020   34.3060   46.3620 C   0  0  0  0  0  0  0  0  0  0  0  0
   59.1449   34.9368   45.5854 H   0  0  0  0  0  0  0  0  0  0  0  0
   60.9860   34.2980   46.5290 C   0  0  0  0  0  0  0  0  0  0  0  0
   61.6149   34.9481   45.9029 H   0  0  0  0  0  0  0  0  0  0  0  0
   61.5850   33.4650   47.4920 C   0  0  0  0  0  0  0  0  0  0  0  0
   62.9240   33.5620   47.7310 N   0  0  0  0  0  0  0  0  0  0  0  0
   63.4940   34.2340   47.1660 H   0  0  0  0  0  0  0  0  0  0  0  0
   63.5270   32.8680   48.7370 C   0  0  0  0  0  0  0  0  0  0  0  0
   64.8870   33.0780   49.0150 C   0  0  0  0  0  0  0  0  0  0  0  0
   65.4577   33.8040   48.4172 H   0  0  0  0  0  0  0  0  0  0  0  0
   65.5290   32.3720   50.0480 C   0  0  0  0  0  0  0  0  0  0  0  0
   66.8860   32.5660   50.3550 O   0  0  0  0  0  0  0  0  0  0  0  0
   67.4310   33.7710   50.8830 C   0  0  0  0  0  0  0  0  0  0  0  0
   67.4129   33.7309   51.9821 H   0  0  0  0  0  0  0  0  0  0  0  0
   68.4689   33.8863   50.5374 H   0  0  0  0  0  0  0  0  0  0  0  0
   66.8322   34.6266   50.5374 H   0  0  0  0  0  0  0  0  0  0  0  0
   64.8050   31.4420   50.8040 C   0  0  0  0  0  0  0  0  0  0  0  0
   65.4710   30.7630   51.8370 O   0  0  0  0  0  0  0  0  0  0  0  0
   66.4640   29.7640   51.6380 C   0  0  0  0  0  0  0  0  0  0  0  0
   66.8222   29.4036   52.6136 H   0  0  0  0  0  0  0  0  0  0  0  0
   66.0318   28.9248   51.0733 H   0  0  0  0  0  0  0  0  0  0  0  0
   67.3058   30.1911   51.0733 H   0  0  0  0  0  0  0  0  0  0  0  0
   63.4470   31.2150   50.5160 C   0  0  0  0  0  0  0  0  0  0  0  0
   62.8873   30.4696   51.1000 H   0  0  0  0  0  0  0  0  0  0  0  0
   62.7910   31.9280   49.4900 C   0  0  0  0  0  0  0  0  0  0  0  0
  1  2  1  0
  2  3  2  0
  3  4  1  0
  3  5  1  0
  5  6  1  0
  6  7  1  0
  7  8  2  0
  7  9  2  0
  7 10  1  0
 10 11  2  0
 11 12  1  0
 11 13  1  0
 13 14  1  0
 13 15  2  0
 15 16  1  0
 16 17  1  0
 16 18  1  0
 16 19  1  0
 15 20  1  0
 20 21  1  0
 20 22  2  0
 22 23  1  0
  5 24  2  0
 24 25  1  0
 24 26  1  0
 26 27  1  0
 26 28  2  0
 28 29  1  0
 29 30  2  0
 30 31  1  0
 31 32  2  0
 32 33  1  0
 32 34  1  0
 34 35  1  0
 34 36  2  0
 36 37  1  0
 36 38  1  0
 38 39  1  0
 38 40  2  0
 40 41  1  0
 41 42  1  0
 41 43  1  0
 43 44  2  0
 44 45  1  0
 44 46  1  0
 46 47  1  0
 47 48  1  0
 48 49  1  0
 48 50  1  0
 48 51  1  0
 46 52  2  0
 52 53  1  0
 53 54  1  0
 54 55  1  0
 54 56  1  0
 54 57  1  0
 52 58  1  0
 58 59  1  0
 58 60  2  0
 28  2  1  0
 60 30  1  0
 22 10  1  0
 40 31  1  0
 60 43  1  0
M  CHG  1   6  -1
M  END
>  <UniqueID>  (15) 
13

>  <SMILES>  (15) 
COc1cc2[nH]c3ccccc3/c(=N\c3ccc([N-]S(=O)(=O)c4ccc(C)cc4)cc3)c2cc1OC

>  <Energy>  (15) 
97.02190772502689

>  <Genealogy>  (15) 
COc1cc2[nH]c3ccccc3c(=Nc3ccc([N-]S(=O)(=O)c4ccc(C)cc4)cc3)c2cc1OC (protonated)
COc1cc2[nH]c3ccccc3/c(=N\c3ccc([N-]S(=O)(=O)c4ccc(C)cc4)cc3)c2cc1OC (cis-trans isomerization)
COc1cc2[nH]c3ccccc3/c(=N\c3ccc([N-]S(=O)(=O)c4ccc(C)cc4)cc3)c2cc1OC (3D coordinates assigned)
COc1cc2[nH]c3ccccc3/c(=N\c3ccc([N-]S(=O)(=O)c4ccc(C)cc4)cc3)c2cc1OC (optimized conformer: 97.02190772502689 kcal/mol)

>  <smiles>  (15) 
COc1cc2[nH]c3ccccc3c(=Nc3ccc(NS(=O)(=O)c4ccc(C)cc4)cc3)c2cc1OC

>  <score_type>  (15) 
oracle

>  <origin>  (15) 
adg

>  <m_score__min__energy>  (15) 
-11

>  <m_primary>  (15) 
energy

$$$$
15:0
     RDKit          3D

 43 45  0  0  0  0  0  0  0  0999 V2000
   55.1620   29.3350   44.9190 O   0  0  0  0  0  0  0  0  0  0  0  0
   56.4580   29.8550   44.3520 S   0  0  0  0  0  0  0  0  0  0  0  0
   56.4370   29.7090   42.8560 O   0  0  0  0  0  0  0  0  0  0  0  0
   56.6220   31.5330   44.7600 N   0  0  0  0  0  0  0  0  0  0  0  0
   57.7190   32.0870   45.5000 C   0  0  0  0  0  0  0  0  0  0  0  0
   58.3570   33.2290   45.0020 C   0  0  0  0  0  0  0  0  0  0  0  0
   59.4820   33.7520   45.6470 C   0  0  0  0  0  0  0  0  0  0  0  0
   59.9750   33.1420   46.8080 C   0  0  0  0  0  0  0  0  0  0  0  0
   61.4510   33.7460   47.5680 S   0  0  0  0  0  0  0  0  0  0  0  0
   61.1140   34.9270   48.4390 O   0  0  0  0  0  0  0  0  0  0  0  0
   62.4020   34.2120   46.4980 O   0  0  0  0  0  0  0  0  0  0  0  0
   62.2260   32.5100   48.5350 N   0  0  0  0  0  0  0  0  0  0  0  0
   61.6050   32.4280   49.8690 C   0  0  0  0  0  0  0  0  0  0  0  0
   62.2950   31.3420   50.7280 C   0  0  0  0  0  0  0  0  0  0  0  0
   63.4780   30.8420   50.1270 O   0  0  0  0  0  0  0  0  0  0  0  0
   64.3200   31.9170   49.7610 C   0  0  0  0  0  0  0  0  0  0  0  0
   63.6770   32.7720   48.6470 C   0  0  0  0  0  0  0  0  0  0  0  0
   59.3110   32.0260   47.3370 C   0  0  0  0  0  0  0  0  0  0  0  0
   58.1890   31.5000   46.6890 C   0  0  0  0  0  0  0  0  0  0  0  0
   57.8280   28.9440   44.9880 C   0  0  0  0  0  0  0  0  0  0  0  0
   57.6180   27.9350   45.9420 C   0  0  0  0  0  0  0  0  0  0  0  0
   58.6960   27.1840   46.4220 C   0  0  0  0  0  0  0  0  0  0  0  0
   59.9900   27.4430   45.9580 C   0  0  0  0  0  0  0  0  0  0  0  0
   61.0340   26.7140   46.4240 F   0  0  0  0  0  0  0  0  0  0  0  0
   60.2060   28.4540   45.0130 C   0  0  0  0  0  0  0  0  0  0  0  0
   59.1280   29.2040   44.5300 C   0  0  0  0  0  0  0  0  0  0  0  0
   57.9704   33.7189   44.0962 H   0  0  0  0  0  0  0  0  0  0  0  0
   59.9812   34.6446   45.2419 H   0  0  0  0  0  0  0  0  0  0  0  0
   62.0820   31.5970   48.0420 H   0  0  0  0  0  0  0  0  0  0  0  0
   61.7009   33.4014   50.3723 H   0  0  0  0  0  0  0  0  0  0  0  0
   60.5441   32.1629   49.7494 H   0  0  0  0  0  0  0  0  0  0  0  0
   62.5527   31.7766   51.7051 H   0  0  0  0  0  0  0  0  0  0  0  0
   61.5924   30.5018   50.8305 H   0  0  0  0  0  0  0  0  0  0  0  0
   64.4979   32.5503   50.6426 H   0  0  0  0  0  0  0  0  0  0  0  0
   65.2676   31.5058   49.3830 H   0  0  0  0  0  0  0  0  0  0  0  0
   63.8316   33.8362   48.8784 H   0  0  0  0  0  0  0  0  0  0  0  0
   64.1513   32.5074   47.6904 H   0  0  0  0  0  0  0  0  0  0  0  0
   59.6743   31.5622   48.2659 H   0  0  0  0  0  0  0  0  0  0  0  0
   57.6725   30.6249   47.1101 H   0  0  0  0  0  0  0  0  0  0  0  0
   56.6021   27.7346   46.3131 H   0  0  0  0  0  0  0  0  0  0  0  0
   58.5263   26.3900   47.1641 H   0  0  0  0  0  0  0  0  0  0  0  0
   61.2241   28.6586   44.6502 H   0  0  0  0  0  0  0  0  0  0  0  0
   59.3004   29.9991   43.7896 H   0  0  0  0  0  0  0  0  0  0  0  0
  1  2  2  0
  2  3  2  0
  2  4  1  0
  4  5  1  0
  5  6  2  0
  6  7  1  0
  7  8  2  0
  8  9  1  0
  9 10  2  0
  9 11  2  0
  9 12  1  0
 12 13  1  0
 13 14  1  0
 14 15  1  0
 15 16  1  0
 16 17  1  0
  8 18  1  0
 18 19  2  0
  2 20  1  0
 20 21  2  0
 21 22  1  0
 22 23  2  0
 23 24  1  0
 23 25  1  0
 25 26  2  0
 19  5  1  0
 26 20  1  0
 17 12  1  0
  6 27  1  0
  7 28  1  0
 12 29  1  0
 13 30  1  0
 13 31  1  0
 14 32  1  0
 14 33  1  0
 16 34  1  0
 16 35  1  0
 17 36  1  0
 17 37  1  0
 18 38  1  0
 19 39  1  0
 21 40  1  0
 22 41  1  0
 25 42  1  0
 26 43  1  0
M  CHG  2   4  -1  12   1
M  END
>  <UniqueID>  (16) 
14

>  <SMILES>  (16) 
O=S(=O)([N-]c1ccc(S(=O)(=O)[NH+]2CCOCC2)cc1)c1ccc(F)cc1

>  <Energy>  (16) 
54.94005054162067

>  <Genealogy>  (16) 
O=S(=O)([N-]c1ccc(S(=O)(=O)[NH+]2CCOCC2)cc1)c1ccc(F)cc1 (protonated)
O=S(=O)([N-]c1ccc(S(=O)(=O)[NH+]2CCOCC2)cc1)c1ccc(F)cc1 (3D coordinates assigned)
O=S(=O)([N-]c1ccc(S(=O)(=O)[NH+]2CCOCC2)cc1)c1ccc(F)cc1 (nonaromatic ring conformer: 54.94005054162067 kcal/mol)

>  <smiles>  (16) 
O=S(=O)(Nc1ccc(S(=O)(=O)N2CCOCC2)cc1)c1ccc(F)cc1

>  <score_type>  (16) 
oracle

>  <origin>  (16) 
adg

>  <m_score__min__energy>  (16) 
-8.7400000000000002

>  <m_primary>  (16) 
energy

$$$$
16:0
     RDKit          3D

 55 60  0  0  0  0  0  0  0  0999 V2000
   60.0616   36.1360   45.7925 H   0  0  0  0  0  0  0  0  0  0  0  0
   59.9880   35.0600   46.0090 C   0  0  0  0  0  0  0  0  0  0  0  0
   60.9550   34.4500   46.7630 N   0  0  0  0  0  0  0  0  0  0  0  0
   60.9170   33.1170   47.0620 C   0  0  0  0  0  0  0  0  0  0  0  0
   61.7079   32.6530   47.6696 H   0  0  0  0  0  0  0  0  0  0  0  0
   59.8490   32.3580   46.5770 C   0  0  0  0  0  0  0  0  0  0  0  0
   58.8680   32.9650   45.8160 C   0  0  0  0  0  0  0  0  0  0  0  0
   58.9020   34.3200   45.5100 C   0  0  0  0  0  0  0  0  0  0  0  0
   58.1145   34.7924   44.9045 H   0  0  0  0  0  0  0  0  0  0  0  0
   57.9690   31.9780   45.4940 C   0  0  0  0  0  0  0  0  0  0  0  0
   56.7890   31.9630   44.7650 C   0  0  0  0  0  0  0  0  0  0  0  0
   56.3962   32.8787   44.2990 H   0  0  0  0  0  0  0  0  0  0  0  0
   56.1320   30.7720   44.6460 N   0  0  0  0  0  0  0  0  0  0  0  0
   56.6130   29.6220   45.2180 C   0  0  0  0  0  0  0  0  0  0  0  0
   55.9320   28.5210   45.0900 N   0  0  0  0  0  0  0  0  0  0  0  0
   56.2590   27.2350   45.6440 C   0  0  0  0  0  0  0  0  0  0  0  0
   55.2540   26.3560   45.8950 N   0  0  0  0  0  0  0  0  0  0  0  0
   55.4930   25.1370   46.3830 N   0  0  0  0  0  0  0  0  0  0  0  0
   56.7550   24.7060   46.6550 C   0  0  0  0  0  0  0  0  0  0  0  0
   56.9650   23.3760   47.1660 N   0  0  0  0  0  0  0  0  0  0  0  0
   57.4910   22.3010   46.3170 C   0  0  0  0  0  0  0  0  0  0  0  0
   57.3815   22.5888   45.2610 H   0  0  0  0  0  0  0  0  0  0  0  0
   58.5518   22.1442   46.5624 H   0  0  0  0  0  0  0  0  0  0  0  0
   56.7250   20.9840   46.5650 C   0  0  0  0  0  0  0  0  0  0  0  0
   55.9045   20.9182   45.8353 H   0  0  0  0  0  0  0  0  0  0  0  0
   57.4534   20.1667   46.4576 H   0  0  0  0  0  0  0  0  0  0  0  0
   56.1510   20.8700   47.9210 N   0  0  0  0  0  0  0  0  0  0  0  0
   55.1670   21.2310   47.9040 H   0  0  0  0  0  0  0  0  0  0  0  0
   56.9080   21.6350   48.9210 C   0  0  0  0  0  0  0  0  0  0  0  0
   56.4800   21.4519   49.9176 H   0  0  0  0  0  0  0  0  0  0  0  0
   57.9594   21.3125   48.8963 H   0  0  0  0  0  0  0  0  0  0  0  0
   56.8400   23.1380   48.6090 C   0  0  0  0  0  0  0  0  0  0  0  0
   55.8756   23.5357   48.9581 H   0  0  0  0  0  0  0  0  0  0  0  0
   57.6707   23.6432   49.1234 H   0  0  0  0  0  0  0  0  0  0  0  0
   57.8310   25.5560   46.3690 C   0  0  0  0  0  0  0  0  0  0  0  0
   58.8638   25.2224   46.5481 H   0  0  0  0  0  0  0  0  0  0  0  0
   57.5830   26.8270   45.8560 C   0  0  0  0  0  0  0  0  0  0  0  0
   58.4176   27.5035   45.6197 H   0  0  0  0  0  0  0  0  0  0  0  0
   57.7730   29.6540   45.9450 N   0  0  0  0  0  0  0  0  0  0  0  0
   58.4380   30.8280   46.0690 C   0  0  0  0  0  0  0  0  0  0  0  0
   59.5960   31.0280   46.7420 N   0  0  0  0  0  0  0  0  0  0  0  0
   60.3580   30.0030   47.4760 C   0  0  0  0  0  0  0  0  0  0  0  0
   61.3716   30.4219   47.5611 H   0  0  0  0  0  0  0  0  0  0  0  0
   60.3950   28.6680   46.7360 C   0  0  0  0  0  0  0  0  0  0  0  0
   59.5009   28.5506   46.1061 H   0  0  0  0  0  0  0  0  0  0  0  0
   61.2649   28.5913   46.0671 H   0  0  0  0  0  0  0  0  0  0  0  0
   60.4210   27.6120   47.8270 C   0  0  0  0  0  0  0  0  0  0  0  0
   59.9261   26.6923   47.4818 H   0  0  0  0  0  0  0  0  0  0  0  0
   61.4505   27.3412   48.1042 H   0  0  0  0  0  0  0  0  0  0  0  0
   59.6640   28.2120   49.0020 C   0  0  0  0  0  0  0  0  0  0  0  0
   58.6064   27.9118   48.9653 H   0  0  0  0  0  0  0  0  0  0  0  0
   60.0764   27.8621   49.9599 H   0  0  0  0  0  0  0  0  0  0  0  0
   59.7860   29.7280   48.8710 C   0  0  0  0  0  0  0  0  0  0  0  0
   58.7972   30.1986   48.9752 H   0  0  0  0  0  0  0  0  0  0  0  0
   60.4367   30.1426   49.6551 H   0  0  0  0  0  0  0  0  0  0  0  0
  1  2  1  0
  2  3  2  0
  3  4  1  0
  4  5  1  0
  4  6  2  0
  6  7  1  0
  7  8  2  0
  8  9  1  0
  7 10  1  0
 10 11  2  0
 11 12  1  0
 11 13  1  0
 13 14  1  0
 14 15  2  0
 15 16  1  0
 16 17  2  0
 17 18  1  0
 18 19  2  0
 19 20  1  0
 20 21  1  0
 21 22  1  0
 21 23  1  0
 21 24  1  0
 24 25  1  0
 24 26  1  0
 24 27  1  0
 27 28  1  0
 27 29  1  0
 29 30  1  0
 29 31  1  0
 29 32  1  0
 32 33  1  0
 32 34  1  0
 19 35  1  0
 35 36  1  0
 35 37  2  0
 37 38  1  0
 14 39  1  0
 39 40  2  0
 40 41  1  0
 41 42  1  0
 42 43  1  0
 42 44  1  0
 44 45  1  0
 44 46  1  0
 44 47  1  0
 47 48  1  0
 47 49  1  0
 47 50  1  0
 50 51  1  0
 50 52  1  0
 50 53  1  0
 53 54  1  0
 53 55  1  0
  8  2  1  0
 40 10  1  0
 53 42  1  0
 41  6  1  0
 37 16  1  0
 32 20  1  0
M  CHG  1  13  -1
M  END
>  <UniqueID>  (17) 
15

>  <SMILES>  (17) 
c1cc2c3c[n-]/c(=N/c4ccc(N5CCNCC5)nn4)nc3n(C3CCCC3)c2cn1

>  <Energy>  (17) 
123.4837124031103

>  <Genealogy>  (17) 
c1cc2c3c[n-]c(=Nc4ccc(N5CCNCC5)nn4)nc3n(C3CCCC3)c2cn1 (protonated)
c1cc2c3c[n-]/c(=N/c4ccc(N5CCNCC5)nn4)nc3n(C3CCCC3)c2cn1 (cis-trans isomerization)
c1cc2c3c[n-]/c(=N/c4ccc(N5CCNCC5)nn4)nc3n(C3CCCC3)c2cn1 (3D coordinates assigned)
c1cc2c3c[n-]/c(=N/c4ccc(N5CCNCC5)nn4)nc3n(C3CCCC3)c2cn1 (nonaromatic ring conformer: 123.4837124031103 kcal/mol)

>  <smiles>  (17) 
c1cc2c3c[nH]c(=Nc4ccc(N5CCNCC5)nn4)nc3n(C3CCCC3)c2cn1

>  <score_type>  (17) 
oracle

>  <origin>  (17) 
adg

>  <m_score__min__energy>  (17) 
-10.33

>  <m_primary>  (17) 
energy

$$$$
17:0
     RDKit          3D

 39 42  0  0  0  0  0  0  0  0999 V2000
   60.7960   30.9160   46.7360 O   0  0  0  0  0  0  0  0  0  0  0  0
   59.9850   31.8390   46.4530 C   0  0  0  0  0  0  0  0  0  0  0  0
   58.7260   31.5480   45.7770 C   0  0  0  0  0  0  0  0  0  0  0  0
   58.2370   30.3470   45.3140 C   0  0  0  0  0  0  0  0  0  0  0  0
   57.0000   30.6900   44.7830 C   0  0  0  0  0  0  0  0  0  0  0  0
   56.0460   29.7540   44.1100 C   0  0  0  0  0  0  0  0  0  0  0  0
   55.8470   28.5900   44.9110 O   0  0  0  0  0  0  0  0  0  0  0  0
   56.8930   27.7700   45.3530 C   0  0  0  0  0  0  0  0  0  0  0  0
   57.8110   27.2690   44.4250 C   0  0  0  0  0  0  0  0  0  0  0  0
   58.8560   26.4540   44.8660 C   0  0  0  0  0  0  0  0  0  0  0  0
   58.9730   26.1480   46.2240 C   0  0  0  0  0  0  0  0  0  0  0  0
   59.9820   25.3580   46.6640 F   0  0  0  0  0  0  0  0  0  0  0  0
   58.0360   26.6640   47.1230 C   0  0  0  0  0  0  0  0  0  0  0  0
   57.0260   27.4550   46.6730 N   0  0  0  0  0  0  0  0  0  0  0  0
   56.7760   32.0160   44.9230 N   0  0  0  0  0  0  0  0  0  0  0  0
   57.8450   32.5210   45.5170 N   0  0  0  0  0  0  0  0  0  0  0  0
   57.9950   33.9030   45.9670 C   0  0  0  0  0  0  0  0  0  0  0  0
   59.4900   34.2740   46.0880 C   0  0  0  0  0  0  0  0  0  0  0  0
   60.2700   33.2180   46.7680 N   0  0  0  0  0  0  0  0  0  0  0  0
   61.4050   33.5680   47.5840 C   0  0  0  0  0  0  0  0  0  0  0  0
   62.7070   33.4760   47.0680 C   0  0  0  0  0  0  0  0  0  0  0  0
   63.7960   33.8120   47.8760 C   0  0  0  0  0  0  0  0  0  0  0  0
   63.5960   34.2220   49.1560 N   0  0  0  0  0  0  0  0  0  0  0  0
   62.3460   34.3170   49.6850 C   0  0  0  0  0  0  0  0  0  0  0  0
   61.2300   33.9900   48.9120 C   0  0  0  0  0  0  0  0  0  0  0  0
   58.7113   29.3554   45.3547 H   0  0  0  0  0  0  0  0  0  0  0  0
   55.0817   30.2624   43.9627 H   0  0  0  0  0  0  0  0  0  0  0  0
   56.4652   29.4528   43.1386 H   0  0  0  0  0  0  0  0  0  0  0  0
   57.7111   27.5145   43.3574 H   0  0  0  0  0  0  0  0  0  0  0  0
   59.5850   26.0541   44.1459 H   0  0  0  0  0  0  0  0  0  0  0  0
   58.1156   26.4302   48.1949 H   0  0  0  0  0  0  0  0  0  0  0  0
   57.5131   34.5743   45.2410 H   0  0  0  0  0  0  0  0  0  0  0  0
   57.5214   34.0089   46.9542 H   0  0  0  0  0  0  0  0  0  0  0  0
   59.9011   34.4250   45.0790 H   0  0  0  0  0  0  0  0  0  0  0  0
   59.5644   35.1918   46.6897 H   0  0  0  0  0  0  0  0  0  0  0  0
   62.8691   33.1411   46.0328 H   0  0  0  0  0  0  0  0  0  0  0  0
   64.8181   33.7445   47.4750 H   0  0  0  0  0  0  0  0  0  0  0  0
   62.2142   34.6523   50.7243 H   0  0  0  0  0  0  0  0  0  0  0  0
   60.2196   34.0625   49.3408 H   0  0  0  0  0  0  0  0  0  0  0  0
  1  2  2  0
  2  3  1  0
  3  4  2  0
  4  5  1  0
  5  6  1  0
  6  7  1  0
  7  8  1  0
  8  9  2  0
  9 10  1  0
 10 11  2  0
 11 12  1  0
 11 13  1  0
 13 14  2  0
  5 15  2  0
 15 16  1  0
 16 17  1  0
 17 18  1  0
 18 19  1  0
 19 20  1  0
 20 21  2  0
 21 22  1  0
 22 23  2  0
 23 24  1  0
 24 25  2  0
 19  2  1  0
 25 20  1  0
 16  3  1  0
 14  8  1  0
  4 26  1  0
  6 27  1  0
  6 28  1  0
  9 29  1  0
 10 30  1  0
 13 31  1  0
 17 32  1  0
 17 33  1  0
 18 34  1  0
 18 35  1  0
 21 36  1  0
 22 37  1  0
 24 38  1  0
 25 39  1  0
M  END
>  <UniqueID>  (18) 
16

>  <SMILES>  (18) 
O=C1c2cc(COc3ccc(F)cn3)nn2CCN1c1ccncc1

>  <Energy>  (18) 
79.59879598816502

>  <Genealogy>  (18) 
O=C1c2cc(COc3ccc(F)cn3)nn2CCN1c1ccncc1 (3D coordinates assigned)
O=C1c2cc(COc3ccc(F)cn3)nn2CCN1c1ccncc1 (nonaromatic ring conformer: 79.59879598816502 kcal/mol)

>  <smiles>  (18) 
O=C1c2cc(COc3ccc(F)cn3)nn2CCN1c1ccncc1

>  <score_type>  (18) 
oracle

>  <origin>  (18) 
adg

>  <m_score__min__energy>  (18) 
-7.9199999999999999

>  <m_primary>  (18) 
energy

$$$$
18:0
     RDKit          3D

 20 21  0  0  0  0  0  0  0  0999 V2000
   51.9260   30.9450   54.7960 C   0  0  0  0  0  0  0  0  0  0  0  0
   51.5370   31.0050   53.3170 C   0  0  2  0  0  0  0  0  0  0  0  0
   52.9400   30.4320   52.3040 S   0  0  0  0  0  0  0  0  0  0  0  0
   52.0560   30.5740   50.7450 C   0  0  0  0  0  0  0  0  0  0  0  0
   52.1860   29.5650   49.7830 C   0  0  0  0  0  0  0  0  0  0  0  0
   51.5950   29.7170   48.5240 C   0  0  0  0  0  0  0  0  0  0  0  0
   50.8730   30.8760   48.2250 C   0  0  0  0  0  0  0  0  0  0  0  0
   50.7190   31.8750   49.1910 C   0  0  0  0  0  0  0  0  0  0  0  0
   51.2900   31.7210   50.4600 C   0  0  0  0  0  0  0  0  0  0  0  0
   51.0120   32.6860   51.4790 N   0  0  0  0  0  0  0  0  0  0  0  0
   51.1620   32.3990   52.8740 C   0  0  0  0  0  0  0  0  0  0  0  0
   50.9200   33.3050   53.7150 O   0  0  0  0  0  0  0  0  0  0  0  0
   51.0287   31.0834   55.4170 H   0  0  0  0  0  0  0  0  0  0  0  0
   52.3775   29.9666   55.0170 H   0  0  0  0  0  0  0  0  0  0  0  0
   52.6514   31.7419   55.0170 H   0  0  0  0  0  0  0  0  0  0  0  0
   50.6570   30.3586   53.1839 H   0  0  0  0  0  0  0  0  0  0  0  0
   52.7532   28.6521   50.0173 H   0  0  0  0  0  0  0  0  0  0  0  0
   51.6986   28.9239   47.7689 H   0  0  0  0  0  0  0  0  0  0  0  0
   50.4253   31.0023   47.2282 H   0  0  0  0  0  0  0  0  0  0  0  0
   50.1477   32.7844   48.9533 H   0  0  0  0  0  0  0  0  0  0  0  0
  1  2  1  0
  2  3  1  0
  3  4  1  0
  4  5  2  0
  5  6  1  0
  6  7  2  0
  7  8  1  0
  8  9  2  0
  9 10  1  0
 10 11  1  0
 11 12  2  0
 11  2  1  0
  9  4  1  0
  1 13  1  0
  1 14  1  0
  1 15  1  0
  2 16  1  1
  5 17  1  0
  6 18  1  0
  7 19  1  0
  8 20  1  0
M  CHG  1  10  -1
M  END
>  <UniqueID>  (19) 
17

>  <SMILES>  (19) 
C[C@@H]1Sc2ccccc2[N-]C1=O

>  <Energy>  (19) 
23.364271010775724

>  <Genealogy>  (19) 
CC1Sc2ccccc2[N-]C1=O (protonated)
C[C@@H]1Sc2ccccc2[N-]C1=O (chirality)
C[C@@H]1Sc2ccccc2[N-]C1=O (3D coordinates assigned)
C[C@@H]1Sc2ccccc2[N-]C1=O (nonaromatic ring conformer: 23.364271010775724 kcal/mol)

>  <smiles>  (19) 
CC1Sc2ccccc2NC1=O

>  <score_type>  (19) 
oracle

>  <origin>  (19) 
adg

>  <m_score__min__energy>  (19) 
-8.4299999999999997

>  <m_primary>  (19) 
energy

$$$$
19:0
     RDKit          3D

 35 37  0  0  0  0  0  0  0  0999 V2000
   56.9470   24.5740   45.0260 C   0  0  0  0  0  0  0  0  0  0  0  0
   56.6340   26.1000   45.8900 S   0  0  0  0  0  0  0  0  0  0  0  0
   57.4450   26.1640   47.1520 O   0  0  0  0  0  0  0  0  0  0  0  0
   55.1750   26.1520   46.2470 O   0  0  0  0  0  0  0  0  0  0  0  0
   57.0100   27.4540   44.8710 N   0  0  0  0  0  0  0  0  0  0  0  0
   57.6000   28.6790   45.3490 C   0  0  0  0  0  0  0  0  0  0  0  0
   58.1600   28.7570   46.6350 C   0  0  0  0  0  0  0  0  0  0  0  0
   58.7280   29.9440   47.0960 C   0  0  0  0  0  0  0  0  0  0  0  0
   58.7520   31.0910   46.2920 C   0  0  0  0  0  0  0  0  0  0  0  0
   59.4120   32.3060   46.8240 C   0  0  0  0  0  0  0  0  0  0  0  0
   60.7920   32.3060   47.0900 C   0  0  0  0  0  0  0  0  0  0  0  0
   61.4070   33.4470   47.6130 C   0  0  0  0  0  0  0  0  0  0  0  0
   60.6480   34.5900   47.8830 C   0  0  0  0  0  0  0  0  0  0  0  0
   59.2730   34.5920   47.6330 C   0  0  0  0  0  0  0  0  0  0  0  0
   58.6540   33.4530   47.1100 C   0  0  0  0  0  0  0  0  0  0  0  0
   58.1620   31.0460   45.0050 C   0  0  0  0  0  0  0  0  0  0  0  0
   58.0950   32.1780   44.1680 C   0  0  0  0  0  0  0  0  0  0  0  0
   57.5110   32.0860   42.9050 C   0  0  0  0  0  0  0  0  0  0  0  0
   56.9870   30.8690   42.4790 C   0  0  0  0  0  0  0  0  0  0  0  0
   57.0340   29.7850   43.2960 N   0  0  0  0  0  0  0  0  0  0  0  0
   57.5910   29.8330   44.5380 C   0  0  0  0  0  0  0  0  0  0  0  0
   57.1125   23.7671   45.7551 H   0  0  0  0  0  0  0  0  0  0  0  0
   56.0811   24.3258   44.3947 H   0  0  0  0  0  0  0  0  0  0  0  0
   57.8407   24.6867   44.3947 H   0  0  0  0  0  0  0  0  0  0  0  0
   56.8940   27.3050   43.8440 H   0  0  0  0  0  0  0  0  0  0  0  0
   58.1503   27.8706   47.2864 H   0  0  0  0  0  0  0  0  0  0  0  0
   59.1635   29.9803   48.1055 H   0  0  0  0  0  0  0  0  0  0  0  0
   61.3898   31.4055   46.8860 H   0  0  0  0  0  0  0  0  0  0  0  0
   62.4888   33.4458   47.8123 H   0  0  0  0  0  0  0  0  0  0  0  0
   61.1335   35.4881   48.2924 H   0  0  0  0  0  0  0  0  0  0  0  0
   58.6770   35.4912   47.8481 H   0  0  0  0  0  0  0  0  0  0  0  0
   57.5702   33.4552   46.9220 H   0  0  0  0  0  0  0  0  0  0  0  0
   58.5053   33.1386   44.5127 H   0  0  0  0  0  0  0  0  0  0  0  0
   57.4648   32.9687   42.2503 H   0  0  0  0  0  0  0  0  0  0  0  0
   56.5345   30.7850   41.4799 H   0  0  0  0  0  0  0  0  0  0  0  0
  1  2  1  0
  2  3  2  0
  2  4  2  0
  2  5  1  0
  5  6  1  0
  6  7  2  0
  7  8  1  0
  8  9  2  0
  9 10  1  0
 10 11  2  0
 11 12  1  0
 12 13  2  0
 13 14  1  0
 14 15  2  0
  9 16  1  0
 16 17  2  0
 17 18  1  0
 18 19  2  0
 19 20  1  0
 20 21  2  0
 21  6  1  0
 15 10  1  0
 21 16  1  0
  1 22  1  0
  1 23  1  0
  1 24  1  0
  5 25  1  0
  7 26  1  0
  8 27  1  0
 11 28  1  0
 12 29  1  0
 13 30  1  0
 14 31  1  0
 15 32  1  0
 17 33  1  0
 18 34  1  0
 19 35  1  0
M  END
>  <UniqueID>  (20) 
18

>  <SMILES>  (20) 
CS(=O)(=O)Nc1ccc(-c2ccccc2)c2cccnc12

>  <Energy>  (20) 
49.61824009414168

>  <Genealogy>  (20) 
CS(=O)(=O)Nc1ccc(-c2ccccc2)c2cccnc12 (3D coordinates assigned)
CS(=O)(=O)Nc1ccc(-c2ccccc2)c2cccnc12 (optimized conformer: 49.61824009414168 kcal/mol)

>  <smiles>  (20) 
CS(=O)(=O)Nc1ccc(-c2ccccc2)c2cccnc12

>  <score_type>  (20) 
oracle

>  <origin>  (20) 
adg

>  <m_score__min__energy>  (20) 
-8.0999999999999996

>  <m_primary>  (20) 
energy

$$$$
20:0
     RDKit          3D

 43 45  0  0  0  0  0  0  0  0999 V2000
   57.3640   28.7850   43.3050 C   0  0  0  0  0  0  0  0  0  0  0  0
   56.6940   29.2720   44.8790 S   0  0  0  0  0  0  0  0  0  0  0  0
   55.1960   29.3280   44.7850 O   0  0  0  0  0  0  0  0  0  0  0  0
   57.2250   30.6330   45.2380 O   0  0  0  0  0  0  0  0  0  0  0  0
   57.1830   28.1130   46.0780 N   0  0  0  0  0  0  0  0  0  0  0  0
   58.6020   27.7730   45.9420 C   0  0  0  0  0  0  0  0  0  0  0  0
   59.4400   28.4470   47.0340 C   0  0  0  0  0  0  0  0  0  0  0  0
   58.6760   29.5900   47.7200 C   0  0  0  0  0  0  0  0  0  0  0  0
   59.4660   30.1840   48.8890 C   0  0  0  0  0  0  0  0  0  0  0  0
   59.3400   31.6080   48.9240 O   0  0  0  0  0  0  0  0  0  0  0  0
   59.9410   32.4420   47.9680 C   0  0  0  0  0  0  0  0  0  0  0  0
   59.1750   33.0650   46.9570 C   0  0  0  0  0  0  0  0  0  0  0  0
   57.7680   33.0000   46.9340 C   0  0  0  0  0  0  0  0  0  0  0  0
   57.0490   33.6160   45.9060 C   0  0  0  0  0  0  0  0  0  0  0  0
   57.7180   34.3140   44.8990 C   0  0  0  0  0  0  0  0  0  0  0  0
   59.1100   34.4170   44.9260 C   0  0  0  0  0  0  0  0  0  0  0  0
   59.8400   33.8100   45.9530 C   0  0  0  0  0  0  0  0  0  0  0  0
   61.1900   33.9600   45.9950 N   0  0  0  0  0  0  0  0  0  0  0  0
   61.9430   33.4270   46.9900 C   0  0  0  0  0  0  0  0  0  0  0  0
   63.3260   33.6400   47.0020 C   0  0  0  0  0  0  0  0  0  0  0  0
   64.1060   33.1190   48.0380 C   0  0  0  0  0  0  0  0  0  0  0  0
   63.5080   32.3860   49.0660 C   0  0  0  0  0  0  0  0  0  0  0  0
   62.1290   32.1560   49.0550 C   0  0  0  0  0  0  0  0  0  0  0  0
   61.3320   32.6680   48.0150 C   0  0  0  0  0  0  0  0  0  0  0  0
   58.2445   28.1450   43.4635 H   0  0  0  0  0  0  0  0  0  0  0  0
   56.6029   28.2279   42.7390 H   0  0  0  0  0  0  0  0  0  0  0  0
   57.6590   29.6809   42.7390 H   0  0  0  0  0  0  0  0  0  0  0  0
   58.7189   26.6822   46.0218 H   0  0  0  0  0  0  0  0  0  0  0  0
   58.9536   28.1299   44.9627 H   0  0  0  0  0  0  0  0  0  0  0  0
   59.7092   27.6951   47.7904 H   0  0  0  0  0  0  0  0  0  0  0  0
   60.3371   28.8728   46.5608 H   0  0  0  0  0  0  0  0  0  0  0  0
   58.4835   30.3824   46.9818 H   0  0  0  0  0  0  0  0  0  0  0  0
   57.7353   29.1810   48.1172 H   0  0  0  0  0  0  0  0  0  0  0  0
   59.0822   29.7660   49.8313 H   0  0  0  0  0  0  0  0  0  0  0  0
   60.5283   29.9301   48.7580 H   0  0  0  0  0  0  0  0  0  0  0  0
   57.2323   32.4614   47.7296 H   0  0  0  0  0  0  0  0  0  0  0  0
   55.9511   33.5506   45.8903 H   0  0  0  0  0  0  0  0  0  0  0  0
   57.1479   34.7832   44.0836 H   0  0  0  0  0  0  0  0  0  0  0  0
   59.6340   34.9770   44.1375 H   0  0  0  0  0  0  0  0  0  0  0  0
   63.7998   34.2182   46.1950 H   0  0  0  0  0  0  0  0  0  0  0  0
   65.1932   33.2864   48.0440 H   0  0  0  0  0  0  0  0  0  0  0  0
   64.1238   31.9887   49.8863 H   0  0  0  0  0  0  0  0  0  0  0  0
   61.6650   31.5719   49.8634 H   0  0  0  0  0  0  0  0  0  0  0  0
  1  2  1  0
  2  3  2  0
  2  4  2  0
  2  5  1  0
  5  6  1  0
  6  7  1  0
  7  8  1  0
  8  9  1  0
  9 10  1  0
 10 11  1  0
 11 12  2  0
 12 13  1  0
 13 14  2  0
 14 15  1  0
 15 16  2  0
 16 17  1  0
 17 18  2  0
 18 19  1  0
 19 20  2  0
 20 21  1  0
 21 22  2  0
 22 23  1  0
 23 24  2  0
 24 11  1  0
 17 12  1  0
 24 19  1  0
  1 25  1  0
  1 26  1  0
  1 27  1  0
  6 28  1  0
  6 29  1  0
  7 30  1  0
  7 31  1  0
  8 32  1  0
  8 33  1  0
  9 34  1  0
  9 35  1  0
 13 36  1  0
 14 37  1  0
 15 38  1  0
 16 39  1  0
 20 40  1  0
 21 41  1  0
 22 42  1  0
 23 43  1  0
M  CHG  1   5  -1
M  END
>  <UniqueID>  (21) 
19

>  <SMILES>  (21) 
CS(=O)(=O)[N-]CCCCOc1c2ccccc2nc2ccccc12

>  <Energy>  (21) 
46.896685742998855

>  <Genealogy>  (21) 
CS(=O)(=O)[N-]CCCCOc1c2ccccc2nc2ccccc12 (protonated)
CS(=O)(=O)[N-]CCCCOc1c2ccccc2nc2ccccc12 (3D coordinates assigned)
CS(=O)(=O)[N-]CCCCOc1c2ccccc2nc2ccccc12 (optimized conformer: 46.896685742998855 kcal/mol)

>  <smiles>  (21) 
CS(=O)(=O)NCCCCOc1c2ccccc2nc2ccccc12

>  <score_type>  (21) 
oracle

>  <origin>  (21) 
adg

>  <m_score__min__energy>  (21) 
-10.27

>  <m_primary>  (21) 
energy

$$$$
21:0
     RDKit          3D

 35 37  0  0  0  0  0  0  0  0999 V2000
   62.0980   33.4990   46.8000 C   0  0  0  0  0  0  0  0  0  0  0  0
   60.7630   33.7790   47.4780 C   0  0  0  0  0  0  0  0  0  0  0  0
   59.6750   33.7330   46.5020 N   0  0  0  0  0  0  0  0  0  0  0  0
   59.2580   34.7640   45.7280 C   0  0  0  0  0  0  0  0  0  0  0  0
   58.2470   34.3510   44.8680 C   0  0  0  0  0  0  0  0  0  0  0  0
   58.0670   33.0100   45.1360 C   0  0  0  0  0  0  0  0  0  0  0  0
   57.1960   32.0880   44.5610 C   0  0  0  0  0  0  0  0  0  0  0  0
   57.2360   30.7510   45.0230 C   0  0  0  0  0  0  0  0  0  0  0  0
   56.3300   29.7310   44.4450 C   0  0  0  0  0  0  0  0  0  0  0  0
   55.9170   29.8580   43.2590 O   0  0  0  0  0  0  0  0  0  0  0  0
   55.8820   28.6310   45.2490 N   0  0  0  0  0  0  0  0  0  0  0  0
   56.6240   27.4450   45.5680 C   0  0  0  0  0  0  0  0  0  0  0  0
   56.0270   26.3370   46.1990 C   0  0  0  0  0  0  0  0  0  0  0  0
   56.7810   25.1910   46.4700 C   0  0  0  0  0  0  0  0  0  0  0  0
   58.1290   25.1350   46.1040 C   0  0  0  0  0  0  0  0  0  0  0  0
   58.8590   24.0220   46.3650 F   0  0  0  0  0  0  0  0  0  0  0  0
   58.7210   26.2220   45.4550 C   0  0  0  0  0  0  0  0  0  0  0  0
   57.9690   27.3690   45.1810 C   0  0  0  0  0  0  0  0  0  0  0  0
   58.1560   30.3950   46.0470 C   0  0  0  0  0  0  0  0  0  0  0  0
   59.0210   31.3540   46.6040 C   0  0  0  0  0  0  0  0  0  0  0  0
   58.9480   32.6630   46.1240 C   0  0  0  0  0  0  0  0  0  0  0  0
   62.8711   33.3368   47.5655 H   0  0  0  0  0  0  0  0  0  0  0  0
   62.0091   32.6000   46.1724 H   0  0  0  0  0  0  0  0  0  0  0  0
   62.3778   34.3580   46.1724 H   0  0  0  0  0  0  0  0  0  0  0  0
   60.5851   33.0208   48.2548 H   0  0  0  0  0  0  0  0  0  0  0  0
   60.7955   34.7820   47.9285 H   0  0  0  0  0  0  0  0  0  0  0  0
   59.6631   35.7857   45.7738 H   0  0  0  0  0  0  0  0  0  0  0  0
   57.7061   34.9629   44.1311 H   0  0  0  0  0  0  0  0  0  0  0  0
   56.4956   32.3909   43.7688 H   0  0  0  0  0  0  0  0  0  0  0  0
   54.9640   26.3730   46.4797 H   0  0  0  0  0  0  0  0  0  0  0  0
   56.3125   24.3318   46.9722 H   0  0  0  0  0  0  0  0  0  0  0  0
   59.7795   26.1754   45.1594 H   0  0  0  0  0  0  0  0  0  0  0  0
   58.4361   28.2168   44.6585 H   0  0  0  0  0  0  0  0  0  0  0  0
   58.1917   29.3566   46.4081 H   0  0  0  0  0  0  0  0  0  0  0  0
   59.7346   31.0805   47.3952 H   0  0  0  0  0  0  0  0  0  0  0  0
  1  2  1  0
  2  3  1  0
  3  4  1  0
  4  5  2  0
  5  6  1  0
  6  7  2  0
  7  8  1  0
  8  9  1  0
  9 10  2  0
  9 11  1  0
 11 12  1  0
 12 13  2  0
 13 14  1  0
 14 15  2  0
 15 16  1  0
 15 17  1  0
 17 18  2  0
  8 19  2  0
 19 20  1  0
 20 21  2  0
 21  3  1  0
 21  6  1  0
 18 12  1  0
  1 22  1  0
  1 23  1  0
  1 24  1  0
  2 25  1  0
  2 26  1  0
  4 27  1  0
  5 28  1  0
  7 29  1  0
 13 30  1  0
 14 31  1  0
 17 32  1  0
 18 33  1  0
 19 34  1  0
 20 35  1  0
M  CHG  1  11  -1
M  END
>  <UniqueID>  (22) 
20

>  <SMILES>  (22) 
CCn1ccc2cc(C(=O)[N-]c3ccc(F)cc3)ccc21

>  <Energy>  (22) 
71.59121018220503

>  <Genealogy>  (22) 
CCn1ccc2cc(C(=O)[N-]c3ccc(F)cc3)ccc21 (protonated)
CCn1ccc2cc(C(=O)[N-]c3ccc(F)cc3)ccc21 (3D coordinates assigned)
CCn1ccc2cc(C(=O)[N-]c3ccc(F)cc3)ccc21 (optimized conformer: 71.59121018220503 kcal/mol)

>  <smiles>  (22) 
CCn1ccc2cc(C(=O)Nc3ccc(F)cc3)ccc21

>  <score_type>  (22) 
oracle

>  <origin>  (22) 
adg

>  <m_score__min__energy>  (22) 
-8.8800000000000008

>  <m_primary>  (22) 
energy

$$$$
22:0
     RDKit          3D

 45 46  0  0  0  0  0  0  0  0999 V2000
   60.5350   29.8400   48.4070 C   0  0  0  0  0  0  0  0  0  0  0  0
   61.3740   30.7290   49.1370 O   0  0  0  0  0  0  0  0  0  0  0  0
   62.1650   31.7350   48.5570 C   0  0  0  0  0  0  0  0  0  0  0  0
   61.8750   32.2680   47.2850 C   0  0  0  0  0  0  0  0  0  0  0  0
   62.6880   33.2580   46.7290 C   0  0  0  0  0  0  0  0  0  0  0  0
   63.7950   33.7310   47.4320 C   0  0  0  0  0  0  0  0  0  0  0  0
   64.0940   33.2160   48.6940 C   0  0  0  0  0  0  0  0  0  0  0  0
   63.2850   32.2180   49.2670 C   0  0  0  0  0  0  0  0  0  0  0  0
   63.6580   31.6380   50.6100 C   0  0  0  0  0  0  0  0  0  0  0  0
   62.7130   32.1100   51.7330 C   0  0  0  0  0  0  0  0  0  0  0  0
   61.2900   32.0840   51.3290 N   0  0  0  0  0  0  0  0  0  0  0  0
   60.4200   32.7460   52.3200 C   0  0  0  0  0  0  0  0  0  0  0  0
   59.1870   33.3770   51.6640 C   0  0  0  0  0  0  0  0  0  0  0  0
   58.9080   32.6930   49.9870 S   0  0  0  0  0  0  0  0  0  0  0  0
   59.6430   34.0810   49.0480 C   0  0  0  0  0  0  0  0  0  0  0  0
   59.1660   34.0780   47.6210 C   0  0  0  0  0  0  0  0  0  0  0  0
   59.7350   34.9600   46.6860 C   0  0  0  0  0  0  0  0  0  0  0  0
   59.2650   34.9900   45.3690 C   0  0  0  0  0  0  0  0  0  0  0  0
   58.2310   34.1370   44.9750 C   0  0  0  0  0  0  0  0  0  0  0  0
   57.6690   33.2480   45.8940 C   0  0  0  0  0  0  0  0  0  0  0  0
   58.1340   33.2150   47.2130 C   0  0  0  0  0  0  0  0  0  0  0  0
   59.9540   29.2243   49.1094 H   0  0  0  0  0  0  0  0  0  0  0  0
   59.8482   30.4209   47.7738 H   0  0  0  0  0  0  0  0  0  0  0  0
   61.1546   29.1880   47.7738 H   0  0  0  0  0  0  0  0  0  0  0  0
   61.0015   31.9014   46.7258 H   0  0  0  0  0  0  0  0  0  0  0  0
   62.4544   33.6654   45.7343 H   0  0  0  0  0  0  0  0  0  0  0  0
   64.4334   34.5110   46.9915 H   0  0  0  0  0  0  0  0  0  0  0  0
   64.9684   33.5931   49.2446 H   0  0  0  0  0  0  0  0  0  0  0  0
   63.6122   30.5408   50.5467 H   0  0  0  0  0  0  0  0  0  0  0  0
   64.6728   31.9837   50.8562 H   0  0  0  0  0  0  0  0  0  0  0  0
   62.8439   31.4506   52.6037 H   0  0  0  0  0  0  0  0  0  0  0  0
   62.9725   33.1523   51.9700 H   0  0  0  0  0  0  0  0  0  0  0  0
   60.9900   31.0840   51.2450 H   0  0  0  0  0  0  0  0  0  0  0  0
   61.1700   32.5240   50.3880 H   0  0  0  0  0  0  0  0  0  0  0  0
   60.0885   32.0000   53.0573 H   0  0  0  0  0  0  0  0  0  0  0  0
   60.9990   33.5478   52.8015 H   0  0  0  0  0  0  0  0  0  0  0  0
   58.3040   33.1716   52.2871 H   0  0  0  0  0  0  0  0  0  0  0  0
   59.3547   34.4605   51.5756 H   0  0  0  0  0  0  0  0  0  0  0  0
   59.3528   35.0301   49.5224 H   0  0  0  0  0  0  0  0  0  0  0  0
   60.7371   33.9671   49.0524 H   0  0  0  0  0  0  0  0  0  0  0  0
   60.5530   35.6291   46.9912 H   0  0  0  0  0  0  0  0  0  0  0  0
   59.7100   35.6860   44.6426 H   0  0  0  0  0  0  0  0  0  0  0  0
   57.8592   34.1656   43.9401 H   0  0  0  0  0  0  0  0  0  0  0  0
   56.8594   32.5727   45.5801 H   0  0  0  0  0  0  0  0  0  0  0  0
   57.6907   32.5115   47.9332 H   0  0  0  0  0  0  0  0  0  0  0  0
  1  2  1  0
  2  3  1  0
  3  4  2  0
  4  5  1  0
  5  6  2  0
  6  7  1  0
  7  8  2  0
  8  9  1  0
  9 10  1  0
 10 11  1  0
 11 12  1  0
 12 13  1  0
 13 14  1  0
 14 15  1  0
 15 16  1  0
 16 17  2  0
 17 18  1  0
 18 19  2  0
 19 20  1  0
 20 21  2  0
  8  3  1  0
 21 16  1  0
  1 22  1  0
  1 23  1  0
  1 24  1  0
  4 25  1  0
  5 26  1  0
  6 27  1  0
  7 28  1  0
  9 29  1  0
  9 30  1  0
 10 31  1  0
 10 32  1  0
 11 33  1  0
 11 34  1  0
 12 35  1  0
 12 36  1  0
 13 37  1  0
 13 38  1  0
 15 39  1  0
 15 40  1  0
 17 41  1  0
 18 42  1  0
 19 43  1  0
 20 44  1  0
 21 45  1  0
M  CHG  1  11   1
M  END
>  <UniqueID>  (23) 
21

>  <SMILES>  (23) 
COc1ccccc1CC[NH2+]CCSCc1ccccc1

>  <Energy>  (23) 
36.92863933685801

>  <Genealogy>  (23) 
COc1ccccc1CC[NH2+]CCSCc1ccccc1 (protonated)
COc1ccccc1CC[NH2+]CCSCc1ccccc1 (3D coordinates assigned)
COc1ccccc1CC[NH2+]CCSCc1ccccc1 (optimized conformer: 36.92863933685801 kcal/mol)

>  <smiles>  (23) 
COc1ccccc1CCNCCSCc1ccccc1

>  <score_type>  (23) 
oracle

>  <origin>  (23) 
adg

>  <m_score__min__energy>  (23) 
-4.9199999999999999

>  <m_primary>  (23) 
energy

$$$$
23:0
     RDKit          3D

 41 43  0  0  0  0  0  0  0  0999 V2000
   60.3450   28.5770   47.4200 H   0  0  0  0  0  0  0  0  0  0  0  0
   60.2250   28.3930   46.4310 O   0  0  0  0  0  0  0  0  0  0  0  0
   59.0620   28.7560   45.7580 C   0  0  0  0  0  0  0  0  0  0  0  0
   57.8780   28.0490   45.9940 C   0  0  0  0  0  0  0  0  0  0  0  0
   57.8739   27.2055   46.7000 H   0  0  0  0  0  0  0  0  0  0  0  0
   56.7010   28.4120   45.3350 C   0  0  0  0  0  0  0  0  0  0  0  0
   55.5240   27.7150   45.5820 O   0  0  0  0  0  0  0  0  0  0  0  0
   56.7050   29.4770   44.4290 C   0  0  0  0  0  0  0  0  0  0  0  0
   55.7715   29.7731   43.9280 H   0  0  0  0  0  0  0  0  0  0  0  0
   57.8980   30.1720   44.1550 C   0  0  0  0  0  0  0  0  0  0  0  0
   57.9340   31.3000   43.1970 C   0  0  0  0  0  0  0  0  0  0  0  0
   58.1625   31.0669   42.1465 H   0  0  0  0  0  0  0  0  0  0  0  0
   57.7090   32.5870   43.5120 C   0  0  0  0  0  0  0  0  0  0  0  0
   57.2373   33.2242   42.7495 H   0  0  0  0  0  0  0  0  0  0  0  0
   58.0500   33.2080   44.8100 C   0  0  0  0  0  0  0  0  0  0  0  0
   57.3780   32.8470   45.9890 C   0  0  0  0  0  0  0  0  0  0  0  0
   56.5502   32.1238   45.9475 H   0  0  0  0  0  0  0  0  0  0  0  0
   57.7550   33.4010   47.2130 C   0  0  0  0  0  0  0  0  0  0  0  0
   57.2301   33.1049   48.1332 H   0  0  0  0  0  0  0  0  0  0  0  0
   58.8040   34.3370   47.2750 C   0  0  0  0  0  0  0  0  0  0  0  0
   59.2700   34.8670   48.4900 O   0  0  0  0  0  0  0  0  0  0  0  0
   60.1960   34.2180   49.3630 C   0  0  0  0  0  0  0  0  0  0  0  0
   60.8434   34.9750   49.8297 H   0  0  0  0  0  0  0  0  0  0  0  0
   59.6319   33.6707   50.1326 H   0  0  0  0  0  0  0  0  0  0  0  0
   61.0510   33.2380   48.6010 C   0  0  0  0  0  0  0  0  0  0  0  0
   60.6910   31.8820   48.5220 C   0  0  0  0  0  0  0  0  0  0  0  0
   59.7896   31.5234   49.0405 H   0  0  0  0  0  0  0  0  0  0  0  0
   61.4740   30.9870   47.7870 C   0  0  0  0  0  0  0  0  0  0  0  0
   61.1824   29.9283   47.7218 H   0  0  0  0  0  0  0  0  0  0  0  0
   62.6260   31.4340   47.1350 C   0  0  0  0  0  0  0  0  0  0  0  0
   63.2391   30.7284   46.5552 H   0  0  0  0  0  0  0  0  0  0  0  0
   62.9990   32.7790   47.2200 C   0  0  0  0  0  0  0  0  0  0  0  0
   64.1170   33.2120   46.5870 F   0  0  0  0  0  0  0  0  0  0  0  0
   62.2180   33.6780   47.9520 C   0  0  0  0  0  0  0  0  0  0  0  0
   62.5177   34.7342   48.0205 H   0  0  0  0  0  0  0  0  0  0  0  0
   59.4200   34.7500   46.0890 C   0  0  0  0  0  0  0  0  0  0  0  0
   60.2073   35.5175   46.1217 H   0  0  0  0  0  0  0  0  0  0  0  0
   59.0430   34.1950   44.8620 C   0  0  0  0  0  0  0  0  0  0  0  0
   59.5277   34.5345   43.9347 H   0  0  0  0  0  0  0  0  0  0  0  0
   59.0680   29.8220   44.8450 C   0  0  0  0  0  0  0  0  0  0  0  0
   59.9958   30.3863   44.6695 H   0  0  0  0  0  0  0  0  0  0  0  0
  1  2  1  0
  2  3  1  0
  3  4  2  0
  4  5  1  0
  4  6  1  0
  6  7  1  0
  6  8  2  0
  8  9  1  0
  8 10  1  0
 10 11  1  0
 11 12  1  0
 11 13  2  0
 13 14  1  0
 13 15  1  0
 15 16  2  0
 16 17  1  0
 16 18  1  0
 18 19  1  0
 18 20  2  0
 20 21  1  0
 21 22  1  0
 22 23  1  0
 22 24  1  0
 22 25  1  0
 25 26  2  0
 26 27  1  0
 26 28  1  0
 28 29  1  0
 28 30  2  0
 30 31  1  0
 30 32  1  0
 32 33  1  0
 32 34  2  0
 34 35  1  0
 20 36  1  0
 36 37  1  0
 36 38  2  0
 38 39  1  0
 10 40  2  0
 40 41  1  0
 40  3  1  0
 38 15  1  0
 34 25  1  0
M  CHG  1   7  -1
M  END
>  <UniqueID>  (24) 
22

>  <SMILES>  (24) 
[O-]c1cc(O)cc(/C=C\c2ccc(OCc3cccc(F)c3)cc2)c1

>  <Energy>  (24) 
51.81632382940556

>  <Genealogy>  (24) 
[O-]c1cc(O)cc(C=Cc2ccc(OCc3cccc(F)c3)cc2)c1 (protonated)
[O-]c1cc(O)cc(/C=C\c2ccc(OCc3cccc(F)c3)cc2)c1 (cis-trans isomerization)
[O-]c1cc(O)cc(/C=C\c2ccc(OCc3cccc(F)c3)cc2)c1 (3D coordinates assigned)
[O-]c1cc(O)cc(/C=C\c2ccc(OCc3cccc(F)c3)cc2)c1 (optimized conformer: 51.81632382940556 kcal/mol)

>  <smiles>  (24) 
Oc1cc(O)cc(C=Cc2ccc(OCc3cccc(F)c3)cc2)c1

>  <score_type>  (24) 
oracle

>  <origin>  (24) 
adg

>  <m_score__min__energy>  (24) 
-12.01

>  <m_primary>  (24) 
energy

$$$$
24:0
     RDKit          3D

 24 24  0  0  0  0  0  0  0  0999 V2000
   54.3686   22.2327   44.9524 H   0  0  0  0  0  0  0  0  0  0  0  0
   55.0360   23.0930   45.1090 C   0  0  0  0  0  0  0  0  0  0  0  0
   56.4190   22.9370   44.9810 C   0  0  0  0  0  0  0  0  0  0  0  0
   56.8399   21.9523   44.7297 H   0  0  0  0  0  0  0  0  0  0  0  0
   57.2680   24.0310   45.1720 C   0  0  0  0  0  0  0  0  0  0  0  0
   58.3562   23.9017   45.0769 H   0  0  0  0  0  0  0  0  0  0  0  0
   56.7390   25.2960   45.4850 C   0  0  0  0  0  0  0  0  0  0  0  0
   57.6540   26.4440   45.6830 C   0  0  0  0  0  0  0  0  0  0  0  0
   58.1360   27.1060   44.6740 N   0  0  0  0  0  0  0  0  0  0  0  0
   57.3470   27.9030   43.8730 O   0  0  0  0  0  0  0  0  0  0  0  0
   57.5540   29.3050   43.8270 C   0  0  0  0  0  0  0  0  0  0  0  0
   58.5315   29.5469   44.2697 H   0  0  0  0  0  0  0  0  0  0  0  0
   57.5328   29.6466   42.7816 H   0  0  0  0  0  0  0  0  0  0  0  0
   56.4750   29.9880   44.5980 C   0  0  0  0  0  0  0  0  0  0  0  0
   56.6720   31.1330   45.0830 O   0  0  0  0  0  0  0  0  0  0  0  0
   55.2710   29.3390   44.8330 O   0  0  0  0  0  0  0  0  0  0  0  0
   58.1370   26.7810   47.0600 C   0  0  0  0  0  0  0  0  0  0  0  0
   57.4732   26.3179   47.8050 H   0  0  0  0  0  0  0  0  0  0  0  0
   59.1602   26.3997   47.1932 H   0  0  0  0  0  0  0  0  0  0  0  0
   58.1323   27.8729   47.1932 H   0  0  0  0  0  0  0  0  0  0  0  0
   55.3440   25.4400   45.6320 C   0  0  0  0  0  0  0  0  0  0  0  0
   54.7900   26.6640   45.9950 O   0  0  0  0  0  0  0  0  0  0  0  0
   54.5010   24.3420   45.4360 C   0  0  0  0  0  0  0  0  0  0  0  0
   53.4124   24.4616   45.5396 H   0  0  0  0  0  0  0  0  0  0  0  0
  1  2  1  0
  2  3  2  0
  3  4  1  0
  3  5  1  0
  5  6  1  0
  5  7  2  0
  7  8  1  0
  8  9  2  0
  9 10  1  0
 10 11  1  0
 11 12  1  0
 11 13  1  0
 11 14  1  0
 14 15  2  0
 14 16  1  0
  8 17  1  0
 17 18  1  0
 17 19  1  0
 17 20  1  0
  7 21  1  0
 21 22  1  0
 21 23  2  0
 23 24  1  0
 23  2  1  0
M  CHG  2  16  -1  22  -1
M  END
>  <UniqueID>  (25) 
23

>  <SMILES>  (25) 
C/C(=N/OCC(=O)[O-])c1ccccc1[O-]

>  <Energy>  (25) 
22.558224714361305

>  <Genealogy>  (25) 
CC(=NOCC(=O)[O-])c1ccccc1[O-] (protonated)
C/C(=N/OCC(=O)[O-])c1ccccc1[O-] (cis-trans isomerization)
C/C(=N/OCC(=O)[O-])c1ccccc1[O-] (3D coordinates assigned)
C/C(=N/OCC(=O)[O-])c1ccccc1[O-] (optimized conformer: 22.558224714361305 kcal/mol)

>  <smiles>  (25) 
CC(=NOCC(=O)O)c1ccccc1O

>  <score_type>  (25) 
oracle

>  <origin>  (25) 
adg

>  <m_score__min__energy>  (25) 
-11.5

>  <m_primary>  (25) 
energy

$$$$
25:0
     RDKit          3D

 38 40  0  0  0  0  0  0  0  0999 V2000
   63.4280   33.8320   46.3420 C   0  0  0  0  0  0  0  0  0  0  0  0
   62.3680   33.2450   47.1790 N   0  0  0  0  0  0  0  0  0  0  0  0
   61.0470   33.4640   46.8600 C   0  0  0  0  0  0  0  0  0  0  0  0
   60.7260   34.1400   45.8440 O   0  0  0  0  0  0  0  0  0  0  0  0
   60.0700   32.9270   47.6910 C   0  0  0  0  0  0  0  0  0  0  0  0
   60.4270   32.2170   48.7890 C   0  0  0  0  0  0  0  0  0  0  0  0
   59.3280   31.8410   49.4700 N   0  0  0  0  0  0  0  0  0  0  0  0
   58.3000   32.3430   48.7450 C   0  0  0  0  0  0  0  0  0  0  0  0
   58.7220   33.0070   47.6390 N   0  0  0  0  0  0  0  0  0  0  0  0
   57.8720   33.7480   46.7070 C   0  0  0  0  0  0  0  0  0  0  0  0
   57.6580   32.9470   45.4630 C   0  0  0  0  0  0  0  0  0  0  0  0
   57.9550   33.4410   44.3430 O   0  0  0  0  0  0  0  0  0  0  0  0
   57.1950   31.5960   45.5610 N   0  0  0  0  0  0  0  0  0  0  0  0
   58.0200   30.4450   45.3500 C   0  0  0  0  0  0  0  0  0  0  0  0
   59.0660   30.1970   46.2490 C   0  0  0  0  0  0  0  0  0  0  0  0
   59.8970   29.0860   46.0780 C   0  0  0  0  0  0  0  0  0  0  0  0
   59.6770   28.2050   45.0170 C   0  0  0  0  0  0  0  0  0  0  0  0
   58.6170   28.4270   44.1330 C   0  0  0  0  0  0  0  0  0  0  0  0
   57.7800   29.5370   44.2960 C   0  0  0  0  0  0  0  0  0  0  0  0
   56.2700   29.7110   43.1260 Br  0  0  0  0  0  0  0  0  0  0  0  0
   61.7270   32.0000   49.1330 N   0  0  0  0  0  0  0  0  0  0  0  0
   62.0510   31.2580   50.3600 C   0  0  0  0  0  0  0  0  0  0  0  0
   62.7040   32.5440   48.3250 C   0  0  0  0  0  0  0  0  0  0  0  0
   63.9200   32.4060   48.6400 O   0  0  0  0  0  0  0  0  0  0  0  0
   64.2076   34.2637   46.9869 H   0  0  0  0  0  0  0  0  0  0  0  0
   63.8692   33.0497   45.7070 H   0  0  0  0  0  0  0  0  0  0  0  0
   62.9990   34.6211   45.7070 H   0  0  0  0  0  0  0  0  0  0  0  0
   59.2650   31.3120   50.3670 H   0  0  0  0  0  0  0  0  0  0  0  0
   57.2418   32.2257   49.0215 H   0  0  0  0  0  0  0  0  0  0  0  0
   56.9005   33.9501   47.1818 H   0  0  0  0  0  0  0  0  0  0  0  0
   58.3639   34.6965   46.4456 H   0  0  0  0  0  0  0  0  0  0  0  0
   59.2341   30.8806   47.0942 H   0  0  0  0  0  0  0  0  0  0  0  0
   60.7247   28.9056   46.7796 H   0  0  0  0  0  0  0  0  0  0  0  0
   60.3376   27.3367   44.8769 H   0  0  0  0  0  0  0  0  0  0  0  0
   58.4397   27.7254   43.3046 H   0  0  0  0  0  0  0  0  0  0  0  0
   61.7854   31.8662   51.2372 H   0  0  0  0  0  0  0  0  0  0  0  0
   61.4819   30.3169   50.3804 H   0  0  0  0  0  0  0  0  0  0  0  0
   63.1281   31.0357   50.3804 H   0  0  0  0  0  0  0  0  0  0  0  0
  1  2  1  0
  2  3  1  0
  3  4  2  0
  3  5  1  0
  5  6  2  0
  6  7  1  0
  7  8  2  0
  8  9  1  0
  9 10  1  0
 10 11  1  0
 11 12  2  0
 11 13  1  0
 13 14  1  0
 14 15  2  0
 15 16  1  0
 16 17  2  0
 17 18  1  0
 18 19  2  0
 19 20  1  0
  6 21  1  0
 21 22  1  0
 21 23  1  0
 23 24  2  0
 23  2  1  0
  9  5  1  0
 19 14  1  0
  1 25  1  0
  1 26  1  0
  1 27  1  0
  7 28  1  0
  8 29  1  0
 10 30  1  0
 10 31  1  0
 15 32  1  0
 16 33  1  0
 17 34  1  0
 18 35  1  0
 22 36  1  0
 22 37  1  0
 22 38  1  0
M  CHG  2   7   1  13  -1
M  END
>  <UniqueID>  (26) 
24

>  <SMILES>  (26) 
Cn1c(=O)c2c([nH+]cn2CC(=O)[N-]c2ccccc2Br)n(C)c1=O

>  <Energy>  (26) 
93.06455026476762

>  <Genealogy>  (26) 
Cn1c(=O)c2c([nH+]cn2CC(=O)[N-]c2ccccc2Br)n(C)c1=O (protonated)
Cn1c(=O)c2c([nH+]cn2CC(=O)[N-]c2ccccc2Br)n(C)c1=O (3D coordinates assigned)
Cn1c(=O)c2c([nH+]cn2CC(=O)[N-]c2ccccc2Br)n(C)c1=O (optimized conformer: 93.06455026476762 kcal/mol)

>  <smiles>  (26) 
Cn1c(=O)c2c(ncn2CC(=O)Nc2ccccc2Br)n(C)c1=O

>  <score_type>  (26) 
oracle

>  <origin>  (26) 
adg

>  <m_score__min__energy>  (26) 
-7.8600000000000003

>  <m_primary>  (26) 
energy

$$$$
26:0
     RDKit          3D

 69 73  0  0  1  0  0  0  0  0999 V2000
   64.0310   26.0090   52.4270 C   0  0  0  0  0  0  0  0  0  0  0  0
   62.7020   25.3900   52.6570 C   0  0  0  0  0  0  0  0  0  0  0  0
   62.3260   24.3580   52.0090 O   0  0  0  0  0  0  0  0  0  0  0  0
   61.7810   25.9270   53.6200 N   0  0  0  0  0  0  0  0  0  0  0  0
   60.4940   25.3630   53.8710 C   0  0  0  0  0  0  0  0  0  0  0  0
   59.6390   26.3920   54.6050 C   0  0  0  0  0  0  0  0  0  0  0  0
   59.8690   27.6740   53.9650 N   0  0  0  0  0  0  0  0  0  0  0  0
   58.8870   28.3740   53.2180 C   0  0  0  0  0  0  0  0  0  0  0  0
   57.6020   28.1650   53.5420 N   0  0  0  0  0  0  0  0  0  0  0  0
   56.6010   28.7740   52.8970 C   0  0  0  0  0  0  0  0  0  0  0  0
   55.3610   28.5760   53.1980 N   0  0  0  0  0  0  0  0  0  0  0  0
   54.3550   29.4530   52.7070 C   0  0  0  0  0  0  0  0  0  0  0  0
   53.0780   28.9520   52.5270 C   0  0  0  0  0  0  0  0  0  0  0  0
   52.0970   29.8030   52.0480 C   0  0  0  0  0  0  0  0  0  0  0  0
   52.4000   31.1190   51.7640 C   0  0  0  0  0  0  0  0  0  0  0  0
   51.3580   31.9870   51.2700 N   0  0  0  0  0  0  0  0  0  0  0  0
   51.3800   32.3210   50.0690 O   0  0  0  0  0  0  0  0  0  0  0  0
   50.3520   32.4510   52.0800 O   0  0  0  0  0  0  0  0  0  0  0  0
   53.6870   31.6010   51.9530 C   0  0  0  0  0  0  0  0  0  0  0  0
   54.6570   30.7560   52.4260 C   0  0  0  0  0  0  0  0  0  0  0  0
   56.9180   29.6320   51.8810 N   0  0  0  0  0  0  0  0  0  0  0  0
   58.2000   29.8550   51.5410 C   0  0  0  0  0  0  0  0  0  0  0  0
   58.4490   30.7580   50.4790 N   0  0  0  0  0  0  0  0  0  0  0  0
   58.9710   30.1780   49.2420 C   0  0  0  0  0  0  0  0  0  0  0  0
   59.1310   31.2850   48.2320 C   0  0  0  0  0  0  0  0  0  0  0  0
   59.9510   32.3700   48.8030 N   0  0  0  0  0  0  0  0  0  0  0  0
   61.1820   32.6690   48.2080 C   0  0  0  0  0  0  0  0  0  0  0  0
   61.1700   33.5020   47.0950 C   0  0  0  0  0  0  0  0  0  0  0  0
   62.3000   33.8430   46.3890 C   0  0  0  0  0  0  0  0  0  0  0  0
   63.5040   33.3560   46.7770 C   0  0  0  0  0  0  0  0  0  0  0  0
   63.5550   32.5310   47.8720 C   0  0  0  0  0  0  0  0  0  0  0  0
   62.4060   32.1830   48.5920 C   0  0  0  0  0  0  0  0  0  0  0  0
   62.5220   31.3100   49.7840 C   0  0  0  0  0  0  0  0  0  0  0  0
   59.3910   32.9940   49.9840 C   0  0  0  0  0  0  0  0  0  0  0  0
   58.2300   32.1840   50.5490 C   0  0  0  0  0  0  0  0  0  0  0  0
   59.1610   29.2130   52.2270 N   0  0  0  0  0  0  0  0  0  0  0  0
   61.2050   28.2350   54.1300 C   0  0  0  0  0  0  0  0  0  0  0  0
   62.2040   27.1170   54.3720 C   0  0  0  0  0  0  0  0  0  0  0  0
   64.5051   26.2298   53.3947 H   0  0  0  0  0  0  0  0  0  0  0  0
   64.6657   25.3138   51.8579 H   0  0  0  0  0  0  0  0  0  0  0  0
   63.9073   26.9422   51.8579 H   0  0  0  0  0  0  0  0  0  0  0  0
   60.0147   25.0973   52.9172 H   0  0  0  0  0  0  0  0  0  0  0  0
   60.5973   24.4569   54.4860 H   0  0  0  0  0  0  0  0  0  0  0  0
   58.5757   26.1196   54.5324 H   0  0  0  0  0  0  0  0  0  0  0  0
   59.9064   26.4336   55.6712 H   0  0  0  0  0  0  0  0  0  0  0  0
   52.8476   27.9017   52.7592 H   0  0  0  0  0  0  0  0  0  0  0  0
   51.0739   29.4296   51.8934 H   0  0  0  0  0  0  0  0  0  0  0  0
   53.9265   32.6503   51.7257 H   0  0  0  0  0  0  0  0  0  0  0  0
   55.6809   31.1274   52.5798 H   0  0  0  0  0  0  0  0  0  0  0  0
   59.9459   29.7063   49.4346 H   0  0  0  0  0  0  0  0  0  0  0  0
   58.2789   29.4131   48.8600 H   0  0  0  0  0  0  0  0  0  0  0  0
   59.6248   30.8894   47.3322 H   0  0  0  0  0  0  0  0  0  0  0  0
   58.1392   31.6808   47.9679 H   0  0  0  0  0  0  0  0  0  0  0  0
   60.2047   33.9104   46.7610 H   0  0  0  0  0  0  0  0  0  0  0  0
   62.2271   34.5068   45.5149 H   0  0  0  0  0  0  0  0  0  0  0  0
   64.4198   33.6165   46.2262 H   0  0  0  0  0  0  0  0  0  0  0  0
   64.5279   32.1310   48.1938 H   0  0  0  0  0  0  0  0  0  0  0  0
   62.4408   31.9209   50.6952 H   0  0  0  0  0  0  0  0  0  0  0  0
   61.7153   30.5623   49.7708 H   0  0  0  0  0  0  0  0  0  0  0  0
   63.4960   30.7989   49.7708 H   0  0  0  0  0  0  0  0  0  0  0  0
   60.1756   33.0760   50.7506 H   0  0  0  0  0  0  0  0  0  0  0  0
   59.0125   33.9875   49.7018 H   0  0  0  0  0  0  0  0  0  0  0  0
   58.0866   32.4652   51.6027 H   0  0  0  0  0  0  0  0  0  0  0  0
   57.3433   32.4107   49.9388 H   0  0  0  0  0  0  0  0  0  0  0  0
   60.1420   29.4050   51.9420 H   0  0  0  0  0  0  0  0  0  0  0  0
   61.4855   28.7851   53.2197 H   0  0  0  0  0  0  0  0  0  0  0  0
   61.2087   28.9192   54.9913 H   0  0  0  0  0  0  0  0  0  0  0  0
   63.2011   27.4332   54.0318 H   0  0  0  0  0  0  0  0  0  0  0  0
   62.2468   26.8825   55.4459 H   0  0  0  0  0  0  0  0  0  0  0  0
  1  2  1  0
  2  3  2  0
  2  4  1  0
  4  5  1  0
  5  6  1  0
  6  7  1  0
  7  8  1  0
  8  9  2  0
  9 10  1  0
 10 11  2  0
 11 12  1  0
 12 13  2  0
 13 14  1  0
 14 15  2  0
 15 16  1  0
 16 17  2  0
 16 18  1  0
 15 19  1  0
 19 20  2  0
 10 21  1  0
 21 22  2  0
 22 23  1  0
 23 24  1  0
 24 25  1  0
 25 26  1  0
 26 27  1  0
 27 28  2  0
 28 29  1  0
 29 30  2  0
 30 31  1  0
 31 32  2  0
 32 33  1  0
 26 34  1  0
 34 35  1  0
 22 36  1  0
  7 37  1  0
 37 38  1  0
 38  4  1  0
 36  8  1  0
 20 12  1  0
 35 23  1  0
 32 27  1  0
  1 39  1  0
  1 40  1  0
  1 41  1  0
  5 42  1  0
  5 43  1  0
  6 44  1  0
  6 45  1  0
 13 46  1  0
 14 47  1  0
 19 48  1  0
 20 49  1  0
 24 50  1  0
 24 51  1  0
 25 52  1  0
 25 53  1  0
 28 54  1  0
 29 55  1  0
 30 56  1  0
 31 57  1  0
 33 58  1  0
 33 59  1  0
 33 60  1  0
 34 61  1  0
 34 62  1  0
 35 63  1  0
 35 64  1  0
 36 65  1  0
 37 66  1  0
 37 67  1  0
 38 68  1  0
 38 69  1  0
M  CHG  2  16   1  18  -1
M  END
>  <smiles>  (27) 
CC(=O)N1CCN(c2nc(=Nc3ccc([N+](=O)[O-])cc3)nc(N3CCN(c4ccccc4C)CC3)[nH]2)CC1

>  <score_type>  (27) 
oracle

>  <origin>  (27) 
adg

>  <m_score__min__energy>  (27) 
-9.5700000000000003

>  <m_primary>  (27) 
energy

$$$$
27:0
     RDKit          3D

 27 28  0  0  0  0  0  0  0  0999 V2000
   59.6320   35.3630   45.9980 C   0  0  0  0  0  0  0  0  0  0  0  0
   58.9930   34.4420   46.4430 C   0  0  0  0  0  0  0  0  0  0  0  0
   58.2140   33.3240   46.9850 C   0  0  0  0  0  0  0  0  0  0  0  0
   58.8870   32.0590   46.6980 N   0  0  0  0  0  0  0  0  0  0  0  0
   60.0060   31.5880   47.3050 C   0  0  0  0  0  0  0  0  0  0  0  0
   60.3640   30.3620   46.8500 N   0  0  0  0  0  0  0  0  0  0  0  0
   59.4220   30.0630   45.9340 C   0  0  0  0  0  0  0  0  0  0  0  0
   58.5290   31.0780   45.8410 C   0  0  0  0  0  0  0  0  0  0  0  0
   57.4600   30.9880   44.9600 C   0  0  0  0  0  0  0  0  0  0  0  0
   56.6300   31.9340   44.8610 O   0  0  0  0  0  0  0  0  0  0  0  0
   57.3340   29.8480   44.2000 N   0  0  0  0  0  0  0  0  0  0  0  0
   56.2330   29.7330   43.2290 C   0  0  0  0  0  0  0  0  0  0  0  0
   58.2800   28.8390   44.2910 C   0  0  0  0  0  0  0  0  0  0  0  0
   58.1830   27.8240   43.5440 O   0  0  0  0  0  0  0  0  0  0  0  0
   59.3280   28.9330   45.1830 N   0  0  0  0  0  0  0  0  0  0  0  0
   60.3440   27.8780   45.3140 C   0  0  0  0  0  0  0  0  0  0  0  0
   60.2148   36.2030   45.5921 H   0  0  0  0  0  0  0  0  0  0  0  0
   58.1137   33.4442   48.0738 H   0  0  0  0  0  0  0  0  0  0  0  0
   57.2187   33.3174   46.5166 H   0  0  0  0  0  0  0  0  0  0  0  0
   60.5601   32.1391   48.0791 H   0  0  0  0  0  0  0  0  0  0  0  0
   61.1850   29.7920   47.1520 H   0  0  0  0  0  0  0  0  0  0  0  0
   55.2787   29.6333   43.7669 H   0  0  0  0  0  0  0  0  0  0  0  0
   56.2056   30.6332   42.5974 H   0  0  0  0  0  0  0  0  0  0  0  0
   56.3922   28.8466   42.5974 H   0  0  0  0  0  0  0  0  0  0  0  0
   60.5332   27.6815   46.3796 H   0  0  0  0  0  0  0  0  0  0  0  0
   59.9825   26.9587   44.8302 H   0  0  0  0  0  0  0  0  0  0  0  0
   61.2763   28.2047   44.8302 H   0  0  0  0  0  0  0  0  0  0  0  0
  1  2  3  0
  2  3  1  0
  3  4  1  0
  4  5  1  0
  5  6  2  0
  6  7  1  0
  7  8  2  0
  8  9  1  0
  9 10  2  0
  9 11  1  0
 11 12  1  0
 11 13  1  0
 13 14  2  0
 13 15  1  0
 15 16  1  0
  8  4  1  0
 15  7  1  0
  1 17  1  0
  3 18  1  0
  3 19  1  0
  5 20  1  0
  6 21  1  0
 12 22  1  0
 12 23  1  0
 12 24  1  0
 16 25  1  0
 16 26  1  0
 16 27  1  0
M  CHG  1   6   1
M  END
>  <UniqueID>  (28) 
25

>  <SMILES>  (28) 
C#CCn1c[nH+]c2c1c(=O)n(C)c(=O)n2C

>  <Energy>  (28) 
71.74416822826802

>  <Genealogy>  (28) 
C#CCn1c[nH+]c2c1c(=O)n(C)c(=O)n2C (protonated)
C#CCn1c[nH+]c2c1c(=O)n(C)c(=O)n2C (3D coordinates assigned)
C#CCn1c[nH+]c2c1c(=O)n(C)c(=O)n2C (optimized conformer: 71.74416822826802 kcal/mol)

>  <smiles>  (28) 
C#CCn1cnc2c1c(=O)n(C)c(=O)n2C

>  <score_type>  (28) 
oracle

>  <origin>  (28) 
adg

>  <m_score__min__energy>  (28) 
-3.5099999999999998

>  <m_primary>  (28) 
energy

$$$$
28:0
     RDKit          3D

 36 37  0  0  0  0  0  0  0  0999 V2000
   57.0690   28.3770   45.4590 C   0  0  0  0  0  0  0  0  0  0  0  0
   57.3710   28.6250   44.1760 C   0  0  0  0  0  0  0  0  0  0  0  0
   58.1140   27.5880   43.3780 C   0  0  0  0  0  0  0  0  0  0  0  0
   56.9660   29.9340   43.5520 C   0  0  0  0  0  0  0  0  0  0  0  0
   56.5500   30.8380   44.5730 O   0  0  0  0  0  0  0  0  0  0  0  0
   57.3860   31.7770   45.1920 C   0  0  0  0  0  0  0  0  0  0  0  0
   58.1860   31.4590   46.3070 C   0  0  0  0  0  0  0  0  0  0  0  0
   59.0040   32.4320   46.8880 C   0  0  0  0  0  0  0  0  0  0  0  0
   59.0450   33.7320   46.3610 C   0  0  0  0  0  0  0  0  0  0  0  0
   59.8960   34.7890   47.0100 C   0  0  0  0  0  0  0  0  0  0  0  0
   61.2330   34.2150   47.3960 C   0  0  0  0  0  0  0  0  0  0  0  0
   61.5480   33.9990   48.7480 C   0  0  0  0  0  0  0  0  0  0  0  0
   62.7760   33.4320   49.1030 C   0  0  0  0  0  0  0  0  0  0  0  0
   63.6930   33.0710   48.1130 C   0  0  0  0  0  0  0  0  0  0  0  0
   63.3820   33.2710   46.7650 C   0  0  0  0  0  0  0  0  0  0  0  0
   62.1550   33.8370   46.4050 C   0  0  0  0  0  0  0  0  0  0  0  0
   58.2390   34.0510   45.2560 C   0  0  0  0  0  0  0  0  0  0  0  0
   57.4220   33.0780   44.6770 C   0  0  0  0  0  0  0  0  0  0  0  0
   56.5261   29.1282   46.0514 H   0  0  0  0  0  0  0  0  0  0  0  0
   57.3642   27.4224   45.9189 H   0  0  0  0  0  0  0  0  0  0  0  0
   58.6154   26.8882   44.0628 H   0  0  0  0  0  0  0  0  0  0  0  0
   57.4048   27.0357   42.7439 H   0  0  0  0  0  0  0  0  0  0  0  0
   58.8650   28.0819   42.7439 H   0  0  0  0  0  0  0  0  0  0  0  0
   57.8219   30.3621   43.0095 H   0  0  0  0  0  0  0  0  0  0  0  0
   56.1354   29.7649   42.8510 H   0  0  0  0  0  0  0  0  0  0  0  0
   58.1668   30.4405   46.7222 H   0  0  0  0  0  0  0  0  0  0  0  0
   59.6193   32.1773   47.7635 H   0  0  0  0  0  0  0  0  0  0  0  0
   60.0469   35.6185   46.3034 H   0  0  0  0  0  0  0  0  0  0  0  0
   59.3874   35.1541   47.9144 H   0  0  0  0  0  0  0  0  0  0  0  0
   60.8261   34.2769   49.5301 H   0  0  0  0  0  0  0  0  0  0  0  0
   63.0202   33.2700   50.1633 H   0  0  0  0  0  0  0  0  0  0  0  0
   64.6603   32.6291   48.3943 H   0  0  0  0  0  0  0  0  0  0  0  0
   64.1035   32.9828   45.9863 H   0  0  0  0  0  0  0  0  0  0  0  0
   61.9107   33.9868   45.3430 H   0  0  0  0  0  0  0  0  0  0  0  0
   58.2514   35.0713   44.8451 H   0  0  0  0  0  0  0  0  0  0  0  0
   56.8003   33.3365   43.8072 H   0  0  0  0  0  0  0  0  0  0  0  0
  1  2  2  0
  2  3  1  0
  2  4  1  0
  4  5  1  0
  5  6  1  0
  6  7  2  0
  7  8  1  0
  8  9  2  0
  9 10  1  0
 10 11  1  0
 11 12  2  0
 12 13  1  0
 13 14  2  0
 14 15  1  0
 15 16  2  0
  9 17  1  0
 17 18  2  0
 18  6  1  0
 16 11  1  0
  1 19  1  0
  1 20  1  0
  3 21  1  0
  3 22  1  0
  3 23  1  0
  4 24  1  0
  4 25  1  0
  7 26  1  0
  8 27  1  0
 10 28  1  0
 10 29  1  0
 12 30  1  0
 13 31  1  0
 14 32  1  0
 15 33  1  0
 16 34  1  0
 17 35  1  0
 18 36  1  0
M  END
>  <UniqueID>  (29) 
26

>  <SMILES>  (29) 
C=C(C)COc1ccc(Cc2ccccc2)cc1

>  <Energy>  (29) 
29.832674592540766

>  <Genealogy>  (29) 
C=C(C)COc1ccc(Cc2ccccc2)cc1 (3D coordinates assigned)
C=C(C)COc1ccc(Cc2ccccc2)cc1 (optimized conformer: 29.832674592540766 kcal/mol)

>  <smiles>  (29) 
C=C(C)COc1ccc(Cc2ccccc2)cc1

>  <score_type>  (29) 
oracle

>  <origin>  (29) 
adg

>  <m_score__min__energy>  (29) 
-7.1299999999999999

>  <m_primary>  (29) 
energy

$$$$
29:0
     RDKit          3D

 39 41  0  0  0  0  0  0  0  0999 V2000
   54.1458   24.5851   45.8126 H   0  0  0  0  0  0  0  0  0  0  0  0
   55.1010   25.0980   45.6270 C   0  0  0  0  0  0  0  0  0  0  0  0
   55.3190   26.3890   45.9960 N   0  0  0  0  0  0  0  0  0  0  0  0
   56.5600   26.7970   45.6650 C   0  0  0  0  0  0  0  0  0  0  0  0
   56.9840   27.9980   45.9180 N   0  0  0  0  0  0  0  0  0  0  0  0
   56.7620   29.3570   44.8630 S   0  0  0  0  0  0  0  0  0  0  0  0
   55.2980   29.6960   44.7990 O   0  0  0  0  0  0  0  0  0  0  0  0
   57.2400   28.9960   43.4850 O   0  0  0  0  0  0  0  0  0  0  0  0
   57.6910   30.7340   45.4460 C   0  0  0  0  0  0  0  0  0  0  0  0
   58.7140   30.5530   46.3850 C   0  0  0  0  0  0  0  0  0  0  0  0
   58.9206   29.5492   46.7846 H   0  0  0  0  0  0  0  0  0  0  0  0
   59.4720   31.6430   46.8150 C   0  0  0  0  0  0  0  0  0  0  0  0
   60.2696   31.4941   47.5578 H   0  0  0  0  0  0  0  0  0  0  0  0
   59.2250   32.9250   46.3080 C   0  0  0  0  0  0  0  0  0  0  0  0
   60.0540   34.0120   46.7450 N   0  0  0  0  0  0  0  0  0  0  0  0
   59.6720   34.9800   46.6530 H   0  0  0  0  0  0  0  0  0  0  0  0
   61.3030   33.8300   47.4380 C   0  0  0  0  0  0  0  0  0  0  0  0
   62.4620   33.5490   46.7020 C   0  0  0  0  0  0  0  0  0  0  0  0
   62.4060   33.4631   45.6068 H   0  0  0  0  0  0  0  0  0  0  0  0
   63.6890   33.3770   47.3500 C   0  0  0  0  0  0  0  0  0  0  0  0
   64.5902   33.1504   46.7614 H   0  0  0  0  0  0  0  0  0  0  0  0
   63.7790   33.4910   48.7420 C   0  0  0  0  0  0  0  0  0  0  0  0
   65.0540   33.3060   49.3720 N   0  0  0  0  0  0  0  0  0  0  0  0
   65.3600   32.2580   49.9420 N   0  0  0  0  0  0  0  0  0  0  0  0
   65.6670   31.2120   50.5130 N   0  0  0  0  0  0  0  0  0  0  0  0
   62.6210   33.7870   49.4840 C   0  0  0  0  0  0  0  0  0  0  0  0
   62.6810   33.8827   50.5782 H   0  0  0  0  0  0  0  0  0  0  0  0
   61.3940   33.9600   48.8360 C   0  0  0  0  0  0  0  0  0  0  0  0
   60.4947   34.1991   49.4226 H   0  0  0  0  0  0  0  0  0  0  0  0
   58.1560   33.1260   45.4040 C   0  0  0  0  0  0  0  0  0  0  0  0
   57.8110   34.4930   44.8770 C   0  0  0  0  0  0  0  0  0  0  0  0
   57.6381   35.1781   45.7201 H   0  0  0  0  0  0  0  0  0  0  0  0
   58.6422   34.8698   44.2629 H   0  0  0  0  0  0  0  0  0  0  0  0
   56.9005   34.4302   44.2629 H   0  0  0  0  0  0  0  0  0  0  0  0
   57.4120   32.0180   44.9650 C   0  0  0  0  0  0  0  0  0  0  0  0
   56.6015   32.1615   44.2353 H   0  0  0  0  0  0  0  0  0  0  0  0
   57.4400   25.5760   44.9030 S   0  0  0  0  0  0  0  0  0  0  0  0
   56.1730   24.4730   44.9980 C   0  0  0  0  0  0  0  0  0  0  0  0
   56.1894   23.4375   44.6272 H   0  0  0  0  0  0  0  0  0  0  0  0
  1  2  1  0
  2  3  1  0
  3  4  1  0
  4  5  2  0
  5  6  1  0
  6  7  2  0
  6  8  2  0
  6  9  1  0
  9 10  2  0
 10 11  1  0
 10 12  1  0
 12 13  1  0
 12 14  2  0
 14 15  1  0
 15 16  1  0
 15 17  1  0
 17 18  2  0
 18 19  1  0
 18 20  1  0
 20 21  1  0
 20 22  2  0
 22 23  1  0
 23 24  2  0
 24 25  2  0
 22 26  1  0
 26 27  1  0
 26 28  2  0
 28 29  1  0
 14 30  1  0
 30 31  1  0
 31 32  1  0
 31 33  1  0
 31 34  1  0
 30 35  2  0
 35 36  1  0
  4 37  1  0
 37 38  1  0
 38 39  1  0
 38  2  2  0
 35  9  1  0
 28 17  1  0
M  CHG  3   3  -1  24   1  25  -1
M  END
>  <UniqueID>  (30) 
27

>  <SMILES>  (30) 
Cc1cc(S(=O)(=O)/N=c2/[n-]ccs2)ccc1Nc1ccc(N=[N+]=[N-])cc1

>  <Energy>  (30) 
81.7067373867594

>  <Genealogy>  (30) 
Cc1cc(S(=O)(=O)N=c2[n-]ccs2)ccc1Nc1ccc(N=[N+]=[N-])cc1 (protonated)
Cc1cc(S(=O)(=O)/N=c2/[n-]ccs2)ccc1Nc1ccc(N=[N+]=[N-])cc1 (cis-trans isomerization)
Cc1cc(S(=O)(=O)/N=c2/[n-]ccs2)ccc1Nc1ccc(N=[N+]=[N-])cc1 (3D coordinates assigned)
Cc1cc(S(=O)(=O)/N=c2/[n-]ccs2)ccc1Nc1ccc(N=[N+]=[N-])cc1 (optimized conformer: 81.7067373867594 kcal/mol)

>  <smiles>  (30) 
Cc1cc(S(=O)(=O)N=c2[nH]ccs2)ccc1Nc1ccc(N=[N+]=[N-])cc1

>  <score_type>  (30) 
oracle

>  <origin>  (30) 
adg

>  <m_score__min__energy>  (30) 
-11.029999999999999

>  <m_primary>  (30) 
energy

$$$$
30:0
     RDKit          3D

 36 37  0  0  1  0  0  0  0  0999 V2000
   57.7890   27.7100   44.2070 C   0  0  0  0  0  0  0  0  0  0  0  0
   57.8360   29.0460   44.9320 C   0  0  0  0  0  0  0  0  0  0  0  0
   59.0990   29.7750   44.4980 C   0  0  0  0  0  0  0  0  0  0  0  0
   58.0490   28.7470   46.4220 C   0  0  0  0  0  0  0  0  0  0  0  0
   56.6200   29.8370   44.7990 C   0  0  0  0  0  0  0  0  0  0  0  0
   55.4580   29.3300   44.9700 O   0  0  0  0  0  0  0  0  0  0  0  0
   56.6360   31.2200   44.4730 N   0  0  0  0  0  0  0  0  0  0  0  0
   57.1880   32.0590   45.2060 C   0  0  0  0  0  0  0  0  0  0  0  0
   57.9020   32.0300   46.2520 N   0  0  0  0  0  0  0  0  0  0  0  0
   58.4070   32.9980   46.9070 C   0  0  0  0  0  0  0  0  0  0  0  0
   59.2530   32.8800   48.1480 C   0  0  0  0  0  0  0  0  0  0  0  0
   60.6770   32.8030   47.8000 C   0  0  0  0  0  0  0  0  0  0  0  0
   61.3080   33.8600   47.1760 C   0  0  0  0  0  0  0  0  0  0  0  0
   60.5890   34.9710   46.8890 F   0  0  0  0  0  0  0  0  0  0  0  0
   62.6460   33.8210   46.8340 C   0  0  0  0  0  0  0  0  0  0  0  0
   63.3790   32.6990   47.1220 C   0  0  0  0  0  0  0  0  0  0  0  0
   62.7930   31.6190   47.7450 C   0  0  0  0  0  0  0  0  0  0  0  0
   61.4440   31.6850   48.0780 C   0  0  0  0  0  0  0  0  0  0  0  0
   60.9130   30.6070   48.6850 F   0  0  0  0  0  0  0  0  0  0  0  0
   58.1510   34.2850   46.4240 N   0  0  0  0  0  0  0  0  0  0  0  0
   57.1010   33.8840   44.9290 S   0  0  0  0  0  0  0  0  0  0  0  0
   57.7603   26.8938   44.9439 H   0  0  0  0  0  0  0  0  0  0  0  0
   56.8888   27.6665   43.5764 H   0  0  0  0  0  0  0  0  0  0  0  0
   58.6840   27.6034   43.5764 H   0  0  0  0  0  0  0  0  0  0  0  0
   59.6596   30.0986   45.3874 H   0  0  0  0  0  0  0  0  0  0  0  0
   59.7243   29.0989   43.8964 H   0  0  0  0  0  0  0  0  0  0  0  0
   58.8263   30.6546   43.8964 H   0  0  0  0  0  0  0  0  0  0  0  0
   57.5156   29.4957   47.0261 H   0  0  0  0  0  0  0  0  0  0  0  0
   57.6605   27.7444   46.6540 H   0  0  0  0  0  0  0  0  0  0  0  0
   59.1235   28.7866   46.6540 H   0  0  0  0  0  0  0  0  0  0  0  0
   59.0841   33.7606   48.7852 H   0  0  0  0  0  0  0  0  0  0  0  0
   58.9696   31.9617   48.6831 H   0  0  0  0  0  0  0  0  0  0  0  0
   63.1179   34.6808   46.3361 H   0  0  0  0  0  0  0  0  0  0  0  0
   64.4450   32.6606   46.8532 H   0  0  0  0  0  0  0  0  0  0  0  0
   63.3822   30.7191   47.9754 H   0  0  0  0  0  0  0  0  0  0  0  0
   58.3910   35.1360   46.7030 H   0  0  0  0  0  0  0  0  0  0  0  0
  1  2  1  0
  2  3  1  0
  2  4  1  0
  2  5  1  0
  5  6  2  0
  5  7  1  0
  7  8  2  0
  8  9  1  0
  9 10  2  0
 10 11  1  0
 11 12  1  0
 12 13  2  0
 13 14  1  0
 13 15  1  0
 15 16  2  0
 16 17  1  0
 17 18  2  0
 18 19  1  0
 10 20  1  0
 20 21  1  0
 21  8  1  0
 18 12  1  0
  1 22  1  0
  1 23  1  0
  1 24  1  0
  3 25  1  0
  3 26  1  0
  3 27  1  0
  4 28  1  0
  4 29  1  0
  4 30  1  0
 11 31  1  0
 11 32  1  0
 15 33  1  0
 16 34  1  0
 17 35  1  0
 20 36  1  0
M  END
>  <smiles>  (31) 
CC(C)(C)C(=O)N=c1nc(Cc2c(F)cccc2F)[nH]s1

>  <score_type>  (31) 
oracle

>  <origin>  (31) 
adg

>  <m_score__min__energy>  (31) 
-7.4500000000000002

>  <m_primary>  (31) 
energy

$$$$
31:0
     RDKit          3D

 44 45  0  0  0  0  0  0  0  0999 V2000
   56.6540   23.2100   43.3620 C   0  0  0  0  0  0  0  0  0  0  0  0
   57.7660   22.5340   44.0410 N   0  0  0  0  0  0  0  0  0  0  0  0
   57.3740   21.1690   44.4180 C   0  0  0  0  0  0  0  0  0  0  0  0
   58.2260   23.4330   45.4660 S   0  0  0  0  0  0  0  0  0  0  0  0
   59.7250   23.4460   45.5850 O   0  0  0  0  0  0  0  0  0  0  0  0
   57.6690   22.7540   46.6870 O   0  0  0  0  0  0  0  0  0  0  0  0
   57.6350   25.0950   45.4070 C   0  0  0  0  0  0  0  0  0  0  0  0
   58.3610   26.0790   44.7210 C   0  0  0  0  0  0  0  0  0  0  0  0
   57.8870   27.3920   44.6640 C   0  0  0  0  0  0  0  0  0  0  0  0
   56.6850   27.7410   45.3050 C   0  0  0  0  0  0  0  0  0  0  0  0
   56.1480   29.0710   45.2480 N   0  0  0  0  0  0  0  0  0  0  0  0
   56.0550   29.9110   44.0910 C   0  0  0  0  0  0  0  0  0  0  0  0
   55.4040   29.5400   43.0770 O   0  0  0  0  0  0  0  0  0  0  0  0
   56.8280   31.1940   44.0350 C   0  0  0  0  0  0  0  0  0  0  0  0
   57.3850   31.5200   45.3480 N   0  0  0  0  0  0  0  0  0  0  0  0
   58.2520   32.6450   45.6080 C   0  0  0  0  0  0  0  0  0  0  0  0
   58.0780   33.8550   44.9030 C   0  0  0  0  0  0  0  0  0  0  0  0
   58.9340   34.9350   45.1150 C   0  0  0  0  0  0  0  0  0  0  0  0
   59.9800   34.8290   46.0250 C   0  0  0  0  0  0  0  0  0  0  0  0
   60.1740   33.6450   46.7360 C   0  0  0  0  0  0  0  0  0  0  0  0
   59.3110   32.5450   46.5530 C   0  0  0  0  0  0  0  0  0  0  0  0
   59.5400   31.2750   47.3510 C   0  0  0  0  0  0  0  0  0  0  0  0
   60.7700   31.2840   47.9870 F   0  0  0  0  0  0  0  0  0  0  0  0
   58.5630   31.1440   48.3230 F   0  0  0  0  0  0  0  0  0  0  0  0
   59.4960   30.1830   46.5040 F   0  0  0  0  0  0  0  0  0  0  0  0
   55.9520   26.7500   45.9680 C   0  0  0  0  0  0  0  0  0  0  0  0
   56.4260   25.4370   46.0260 C   0  0  0  0  0  0  0  0  0  0  0  0
   55.9663   23.6281   44.1118 H   0  0  0  0  0  0  0  0  0  0  0  0
   57.0477   24.0217   42.7327 H   0  0  0  0  0  0  0  0  0  0  0  0
   56.1146   22.4868   42.7327 H   0  0  0  0  0  0  0  0  0  0  0  0
   57.3496   21.0841   45.5144 H   0  0  0  0  0  0  0  0  0  0  0  0
   56.3762   20.9484   44.0109 H   0  0  0  0  0  0  0  0  0  0  0  0
   58.1027   20.4526   44.0109 H   0  0  0  0  0  0  0  0  0  0  0  0
   59.3074   25.8162   44.2258 H   0  0  0  0  0  0  0  0  0  0  0  0
   58.4567   28.1563   44.1152 H   0  0  0  0  0  0  0  0  0  0  0  0
   57.6489   31.0896   43.3103 H   0  0  0  0  0  0  0  0  0  0  0  0
   56.1487   32.0030   43.7283 H   0  0  0  0  0  0  0  0  0  0  0  0
   57.1670   30.8490   46.1170 H   0  0  0  0  0  0  0  0  0  0  0  0
   57.2567   33.9473   44.1771 H   0  0  0  0  0  0  0  0  0  0  0  0
   58.7815   35.8730   44.5611 H   0  0  0  0  0  0  0  0  0  0  0  0
   60.6565   35.6816   46.1846 H   0  0  0  0  0  0  0  0  0  0  0  0
   61.0095   33.5684   47.4474 H   0  0  0  0  0  0  0  0  0  0  0  0
   54.9956   27.0068   46.4470 H   0  0  0  0  0  0  0  0  0  0  0  0
   55.8474   24.6688   46.5599 H   0  0  0  0  0  0  0  0  0  0  0  0
  1  2  1  0
  2  3  1  0
  2  4  1  0
  4  5  2  0
  4  6  2  0
  4  7  1  0
  7  8  2  0
  8  9  1  0
  9 10  2  0
 10 11  1  0
 11 12  1  0
 12 13  2  0
 12 14  1  0
 14 15  1  0
 15 16  1  0
 16 17  2  0
 17 18  1  0
 18 19  2  0
 19 20  1  0
 20 21  2  0
 21 22  1  0
 22 23  1  0
 22 24  1  0
 22 25  1  0
 10 26  1  0
 26 27  2  0
 27  7  1  0
 21 16  1  0
  1 28  1  0
  1 29  1  0
  1 30  1  0
  3 31  1  0
  3 32  1  0
  3 33  1  0
  8 34  1  0
  9 35  1  0
 14 36  1  0
 14 37  1  0
 15 38  1  0
 17 39  1  0
 18 40  1  0
 19 41  1  0
 20 42  1  0
 26 43  1  0
 27 44  1  0
M  CHG  1  11  -1
M  END
>  <UniqueID>  (32) 
28

>  <SMILES>  (32) 
CN(C)S(=O)(=O)c1ccc([N-]C(=O)CNc2ccccc2C(F)(F)F)cc1

>  <Energy>  (32) 
48.281254384066116

>  <Genealogy>  (32) 
CN(C)S(=O)(=O)c1ccc([N-]C(=O)CNc2ccccc2C(F)(F)F)cc1 (protonated)
CN(C)S(=O)(=O)c1ccc([N-]C(=O)CNc2ccccc2C(F)(F)F)cc1 (3D coordinates assigned)
CN(C)S(=O)(=O)c1ccc([N-]C(=O)CNc2ccccc2C(F)(F)F)cc1 (optimized conformer: 48.281254384066116 kcal/mol)

>  <smiles>  (32) 
CN(C)S(=O)(=O)c1ccc(NC(=O)CNc2ccccc2C(F)(F)F)cc1

>  <score_type>  (32) 
oracle

>  <origin>  (32) 
adg

>  <m_score__min__energy>  (32) 
-9.8200000000000003

>  <m_primary>  (32) 
energy

$$$$
32:0
     RDKit          3D

 29 31  0  0  0  0  0  0  0  0999 V2000
   60.0486   35.8423   46.7152 H   0  0  0  0  0  0  0  0  0  0  0  0
   59.5740   34.8710   46.5120 C   0  0  0  0  0  0  0  0  0  0  0  0
   59.1310   34.5750   45.2620 N   0  0  0  0  0  0  0  0  0  0  0  0
   58.5420   33.3800   44.9910 C   0  0  0  0  0  0  0  0  0  0  0  0
   58.0880   33.0900   43.7020 C   0  0  0  0  0  0  0  0  0  0  0  0
   58.2068   33.8312   42.8979 H   0  0  0  0  0  0  0  0  0  0  0  0
   57.4830   31.8590   43.4330 C   0  0  0  0  0  0  0  0  0  0  0  0
   57.1184   31.6397   42.4186 H   0  0  0  0  0  0  0  0  0  0  0  0
   57.3370   30.8980   44.4510 C   0  0  0  0  0  0  0  0  0  0  0  0
   56.6870   29.5940   44.1720 C   0  0  0  0  0  0  0  0  0  0  0  0
   56.7320   29.1200   43.0070 O   0  0  0  0  0  0  0  0  0  0  0  0
   56.0530   28.8180   45.2020 N   0  0  0  0  0  0  0  0  0  0  0  0
   56.4340   27.6440   45.6200 C   0  0  0  0  0  0  0  0  0  0  0  0
   55.5250   26.7040   46.0110 N   0  0  0  0  0  0  0  0  0  0  0  0
   55.9040   25.4700   46.4350 C   0  0  0  0  0  0  0  0  0  0  0  0
   55.1444   24.7394   46.7500 H   0  0  0  0  0  0  0  0  0  0  0  0
   57.2580   25.1290   46.4710 C   0  0  0  0  0  0  0  0  0  0  0  0
   57.6440   23.9000   46.8930 F   0  0  0  0  0  0  0  0  0  0  0  0
   58.2080   26.0680   46.0650 C   0  0  0  0  0  0  0  0  0  0  0  0
   59.2778   25.8128   46.0847 H   0  0  0  0  0  0  0  0  0  0  0  0
   57.7990   27.3310   45.6340 C   0  0  0  0  0  0  0  0  0  0  0  0
   58.5421   28.0738   45.3083 H   0  0  0  0  0  0  0  0  0  0  0  0
   57.7810   31.1970   45.7510 C   0  0  0  0  0  0  0  0  0  0  0  0
   57.6523   30.4594   46.5569 H   0  0  0  0  0  0  0  0  0  0  0  0
   58.3880   32.4330   46.0250 C   0  0  0  0  0  0  0  0  0  0  0  0
   58.8340   32.7360   47.2770 N   0  0  0  0  0  0  0  0  0  0  0  0
   58.7300   32.0480   48.0570 H   0  0  0  0  0  0  0  0  0  0  0  0
   59.4230   33.9340   47.5380 C   0  0  0  0  0  0  0  0  0  0  0  0
   59.7792   34.1645   48.5529 H   0  0  0  0  0  0  0  0  0  0  0  0
  1  2  1  0
  2  3  2  0
  3  4  1  0
  4  5  2  0
  5  6  1  0
  5  7  1  0
  7  8  1  0
  7  9  2  0
  9 10  1  0
 10 11  2  0
 10 12  1  0
 12 13  2  0
 13 14  1  0
 14 15  1  0
 15 16  1  0
 15 17  2  0
 17 18  1  0
 17 19  1  0
 19 20  1  0
 19 21  2  0
 21 22  1  0
  9 23  1  0
 23 24  1  0
 23 25  2  0
 25 26  1  0
 26 27  1  0
 26 28  2  0
 28 29  1  0
 28  2  1  0
 25  4  1  0
 21 13  1  0
M  CHG  2  14  -1  26   1
M  END
>  <UniqueID>  (33) 
29

>  <SMILES>  (33) 
O=C(/N=c1/ccc(F)c[n-]1)c1ccc2ncc[nH+]c2c1

>  <Energy>  (33) 
44.44370322241739

>  <Genealogy>  (33) 
O=C(N=c1ccc(F)c[n-]1)c1ccc2ncc[nH+]c2c1 (protonated)
O=C(/N=c1/ccc(F)c[n-]1)c1ccc2ncc[nH+]c2c1 (cis-trans isomerization)
O=C(/N=c1/ccc(F)c[n-]1)c1ccc2ncc[nH+]c2c1 (3D coordinates assigned)
O=C(/N=c1/ccc(F)c[n-]1)c1ccc2ncc[nH+]c2c1 (optimized conformer: 44.44370322241739 kcal/mol)

>  <smiles>  (33) 
O=C(N=c1ccc(F)c[nH]1)c1ccc2nccnc2c1

>  <score_type>  (33) 
oracle

>  <origin>  (33) 
adg

>  <m_score__min__energy>  (33) 
-7.2800000000000002

>  <m_primary>  (33) 
energy

$$$$
33:0
     RDKit          3D

 39 40  0  0  0  0  0  0  0  0999 V2000
   55.9810   23.9450   43.9060 C   0  0  0  0  0  0  0  0  0  0  0  0
   55.1500   23.9490   45.1930 C   0  0  0  0  0  0  0  0  0  0  0  0
   53.6580   23.8000   44.8840 C   0  0  0  0  0  0  0  0  0  0  0  0
   55.3950   25.2040   45.9820 C   0  0  0  0  0  0  0  0  0  0  0  0
   54.7520   26.2570   45.7170 O   0  0  0  0  0  0  0  0  0  0  0  0
   56.3460   25.1910   47.0520 N   0  0  0  0  0  0  0  0  0  0  0  0
   57.6270   25.8860   47.0020 C   0  0  0  0  0  0  0  0  0  0  0  0
   57.6960   26.7640   45.7820 C   0  0  0  0  0  0  0  0  0  0  0  0
   58.2290   26.2770   44.5790 C   0  0  0  0  0  0  0  0  0  0  0  0
   58.2550   27.0870   43.4420 C   0  0  0  0  0  0  0  0  0  0  0  0
   57.7540   28.3900   43.4960 C   0  0  0  0  0  0  0  0  0  0  0  0
   57.2280   28.9000   44.6950 C   0  0  0  0  0  0  0  0  0  0  0  0
   56.6800   30.2790   44.7360 C   0  0  0  0  0  0  0  0  0  0  0  0
   55.4700   30.4600   44.4330 O   0  0  0  0  0  0  0  0  0  0  0  0
   57.5060   31.4490   45.1200 C   0  0  0  0  0  0  0  0  0  0  0  0
   57.5380   32.6080   44.3220 C   0  0  0  0  0  0  0  0  0  0  0  0
   58.3080   33.7100   44.7030 C   0  0  0  0  0  0  0  0  0  0  0  0
   59.0470   33.6730   45.8900 C   0  0  0  0  0  0  0  0  0  0  0  0
   60.0110   35.0570   46.3680 Cl  0  0  0  0  0  0  0  0  0  0  0  0
   59.0090   32.5330   46.6980 C   0  0  0  0  0  0  0  0  0  0  0  0
   58.2400   31.4280   46.3190 C   0  0  0  0  0  0  0  0  0  0  0  0
   57.1870   28.0720   45.8320 C   0  0  0  0  0  0  0  0  0  0  0  0
   57.0511   23.9398   44.1605 H   0  0  0  0  0  0  0  0  0  0  0  0
   55.7399   23.0480   43.3167 H   0  0  0  0  0  0  0  0  0  0  0  0
   55.7486   24.8443   43.3167 H   0  0  0  0  0  0  0  0  0  0  0  0
   55.4655   23.0869   45.7990 H   0  0  0  0  0  0  0  0  0  0  0  0
   53.0924   23.7435   45.8257 H   0  0  0  0  0  0  0  0  0  0  0  0
   53.3156   24.6684   44.3021 H   0  0  0  0  0  0  0  0  0  0  0  0
   53.4941   22.8810   44.3021 H   0  0  0  0  0  0  0  0  0  0  0  0
   57.7386   26.5070   47.9031 H   0  0  0  0  0  0  0  0  0  0  0  0
   58.4364   25.1426   46.9548 H   0  0  0  0  0  0  0  0  0  0  0  0
   58.6280   25.2530   44.5314 H   0  0  0  0  0  0  0  0  0  0  0  0
   58.6712   26.6980   42.5010 H   0  0  0  0  0  0  0  0  0  0  0  0
   57.7714   29.0203   42.5947 H   0  0  0  0  0  0  0  0  0  0  0  0
   56.9525   32.6465   43.3916 H   0  0  0  0  0  0  0  0  0  0  0  0
   58.3330   34.6081   44.0684 H   0  0  0  0  0  0  0  0  0  0  0  0
   59.5855   32.5049   47.6344 H   0  0  0  0  0  0  0  0  0  0  0  0
   58.2092   30.5368   46.9631 H   0  0  0  0  0  0  0  0  0  0  0  0
   56.7525   28.4525   46.7682 H   0  0  0  0  0  0  0  0  0  0  0  0
  1  2  1  0
  2  3  1  0
  2  4  1  0
  4  5  2  0
  4  6  1  0
  6  7  1  0
  7  8  1  0
  8  9  2  0
  9 10  1  0
 10 11  2  0
 11 12  1  0
 12 13  1  0
 13 14  2  0
 13 15  1  0
 15 16  2  0
 16 17  1  0
 17 18  2  0
 18 19  1  0
 18 20  1  0
 20 21  2  0
 12 22  2  0
 22  8  1  0
 21 15  1  0
  1 23  1  0
  1 24  1  0
  1 25  1  0
  2 26  1  0
  3 27  1  0
  3 28  1  0
  3 29  1  0
  7 30  1  0
  7 31  1  0
  9 32  1  0
 10 33  1  0
 11 34  1  0
 16 35  1  0
 17 36  1  0
 20 37  1  0
 21 38  1  0
 22 39  1  0
M  CHG  1   6  -1
M  END
>  <UniqueID>  (34) 
30

>  <SMILES>  (34) 
CC(C)C(=O)[N-]Cc1cccc(C(=O)c2ccc(Cl)cc2)c1

>  <Energy>  (34) 
37.38091419479386

>  <Genealogy>  (34) 
CC(C)C(=O)[N-]Cc1cccc(C(=O)c2ccc(Cl)cc2)c1 (protonated)
CC(C)C(=O)[N-]Cc1cccc(C(=O)c2ccc(Cl)cc2)c1 (3D coordinates assigned)
CC(C)C(=O)[N-]Cc1cccc(C(=O)c2ccc(Cl)cc2)c1 (optimized conformer: 37.38091419479386 kcal/mol)

>  <smiles>  (34) 
CC(C)C(=O)NCc1cccc(C(=O)c2ccc(Cl)cc2)c1

>  <score_type>  (34) 
oracle

>  <origin>  (34) 
adg

>  <m_score__min__energy>  (34) 
-10.6

>  <m_primary>  (34) 
energy

$$$$
34:0
     RDKit          3D

 54 58  0  0  0  0  0  0  0  0999 V2000
   67.1890   35.1110   52.0140 C   0  0  0  0  0  0  0  0  0  0  0  0
   66.7810   34.0060   51.1380 N   0  0  0  0  0  0  0  0  0  0  0  0
   67.8180   33.1600   50.5330 C   0  0  0  0  0  0  0  0  0  0  0  0
   65.3760   33.7530   50.8740 C   0  0  0  0  0  0  0  0  0  0  0  0
   64.3790   34.2160   51.7550 C   0  0  0  0  0  0  0  0  0  0  0  0
   63.0270   33.9740   51.5010 C   0  0  0  0  0  0  0  0  0  0  0  0
   62.6290   33.2690   50.3520 C   0  0  0  0  0  0  0  0  0  0  0  0
   61.1960   32.9950   50.0670 C   0  0  0  0  0  0  0  0  0  0  0  0
   60.3500   32.4130   51.0240 C   0  0  0  0  0  0  0  0  0  0  0  0
   59.0070   32.1790   50.6920 C   0  0  0  0  0  0  0  0  0  0  0  0
   58.0540   31.5700   51.6540 C   0  0  0  0  0  0  0  0  0  0  0  0
   58.5060   30.9880   52.8530 C   0  0  0  0  0  0  0  0  0  0  0  0
   57.5930   30.4100   53.7340 C   0  0  0  0  0  0  0  0  0  0  0  0
   56.2320   30.4030   53.4220 C   0  0  0  0  0  0  0  0  0  0  0  0
   55.2920   29.8280   54.2910 C   0  0  0  0  0  0  0  0  0  0  0  0
   53.9350   29.8310   53.9560 C   0  0  0  0  0  0  0  0  0  0  0  0
   53.5100   30.4050   52.7550 C   0  0  0  0  0  0  0  0  0  0  0  0
   54.4380   30.9790   51.8820 C   0  0  0  0  0  0  0  0  0  0  0  0
   55.8040   30.9840   52.2070 C   0  0  0  0  0  0  0  0  0  0  0  0
   56.7180   31.5430   51.3600 N   0  0  0  0  0  0  0  0  0  0  0  0
   58.5590   32.5460   49.4620 N   0  0  0  0  0  0  0  0  0  0  0  0
   59.3770   33.1210   48.5420 C   0  0  0  0  0  0  0  0  0  0  0  0
   58.8520   33.5120   47.2110 C   0  0  0  0  0  0  0  0  0  0  0  0
   57.7680   32.8210   46.6340 C   0  0  0  0  0  0  0  0  0  0  0  0
   57.2760   33.1910   45.3800 C   0  0  0  0  0  0  0  0  0  0  0  0
   57.8580   34.2530   44.6840 C   0  0  0  0  0  0  0  0  0  0  0  0
   58.9340   34.9480   45.2420 C   0  0  0  0  0  0  0  0  0  0  0  0
   59.4990   35.9770   44.5650 F   0  0  0  0  0  0  0  0  0  0  0  0
   59.4300   34.5810   46.4970 C   0  0  0  0  0  0  0  0  0  0  0  0
   60.6830   33.3370   48.8550 N   0  0  0  0  0  0  0  0  0  0  0  0
   63.6180   32.7950   49.4770 C   0  0  0  0  0  0  0  0  0  0  0  0
   64.9720   33.0360   49.7310 C   0  0  0  0  0  0  0  0  0  0  0  0
   67.0765   34.8064   53.0650 H   0  0  0  0  0  0  0  0  0  0  0  0
   68.2406   35.3662   51.8167 H   0  0  0  0  0  0  0  0  0  0  0  0
   66.5556   35.9884   51.8167 H   0  0  0  0  0  0  0  0  0  0  0  0
   68.4079   32.6787   51.3270 H   0  0  0  0  0  0  0  0  0  0  0  0
   67.3436   32.3879   49.9095 H   0  0  0  0  0  0  0  0  0  0  0  0
   68.4791   33.7798   49.9095 H   0  0  0  0  0  0  0  0  0  0  0  0
   64.6694   34.7762   52.6560 H   0  0  0  0  0  0  0  0  0  0  0  0
   62.2664   34.3387   52.2070 H   0  0  0  0  0  0  0  0  0  0  0  0
   60.7341   32.1444   52.0192 H   0  0  0  0  0  0  0  0  0  0  0  0
   59.5791   30.9891   53.0949 H   0  0  0  0  0  0  0  0  0  0  0  0
   57.9445   29.9599   54.6741 H   0  0  0  0  0  0  0  0  0  0  0  0
   55.6235   29.3745   55.2368 H   0  0  0  0  0  0  0  0  0  0  0  0
   53.2000   29.3805   54.6393 H   0  0  0  0  0  0  0  0  0  0  0  0
   52.4410   30.4050   52.4958 H   0  0  0  0  0  0  0  0  0  0  0  0
   54.0974   31.4282   50.9375 H   0  0  0  0  0  0  0  0  0  0  0  0
   56.3820   31.9740   50.4690 H   0  0  0  0  0  0  0  0  0  0  0  0
   57.3052   31.9829   47.1757 H   0  0  0  0  0  0  0  0  0  0  0  0
   56.4286   32.6449   44.9398 H   0  0  0  0  0  0  0  0  0  0  0  0
   57.4692   34.5422   43.6965 H   0  0  0  0  0  0  0  0  0  0  0  0
   60.2782   35.1311   46.9305 H   0  0  0  0  0  0  0  0  0  0  0  0
   63.3252   32.2275   48.5813 H   0  0  0  0  0  0  0  0  0  0  0  0
   65.7312   32.6607   49.0290 H   0  0  0  0  0  0  0  0  0  0  0  0
  1  2  1  0
  2  3  1  0
  2  4  1  0
  4  5  2  0
  5  6  1  0
  6  7  2  0
  7  8  1  0
  8  9  2  0
  9 10  1  0
 10 11  1  0
 11 12  2  0
 12 13  1  0
 13 14  2  0
 14 15  1  0
 15 16  2  0
 16 17  1  0
 17 18  2  0
 18 19  1  0
 19 20  2  0
 10 21  2  0
 21 22  1  0
 22 23  1  0
 23 24  2  0
 24 25  1  0
 25 26  2  0
 26 27  1  0
 27 28  1  0
 27 29  2  0
 22 30  2  0
  7 31  1  0
 31 32  2  0
 32  4  1  0
 30  8  1  0
 20 11  1  0
 29 23  1  0
 19 14  1  0
  1 33  1  0
  1 34  1  0
  1 35  1  0
  3 36  1  0
  3 37  1  0
  3 38  1  0
  5 39  1  0
  6 40  1  0
  9 41  1  0
 12 42  1  0
 13 43  1  0
 15 44  1  0
 16 45  1  0
 17 46  1  0
 18 47  1  0
 20 48  1  0
 24 49  1  0
 25 50  1  0
 26 51  1  0
 29 52  1  0
 31 53  1  0
 32 54  1  0
M  CHG  1  20   1
M  END
>  <UniqueID>  (35) 
31

>  <SMILES>  (35) 
CN(C)c1ccc(-c2cc(-c3ccc4ccccc4[nH+]3)nc(-c3cccc(F)c3)n2)cc1

>  <Energy>  (35) 
74.81679798403636

>  <Genealogy>  (35) 
CN(C)c1ccc(-c2cc(-c3ccc4ccccc4[nH+]3)nc(-c3cccc(F)c3)n2)cc1 (protonated)
CN(C)c1ccc(-c2cc(-c3ccc4ccccc4[nH+]3)nc(-c3cccc(F)c3)n2)cc1 (3D coordinates assigned)
CN(C)c1ccc(-c2cc(-c3ccc4ccccc4[nH+]3)nc(-c3cccc(F)c3)n2)cc1 (optimized conformer: 74.81679798403636 kcal/mol)

>  <smiles>  (35) 
CN(C)c1ccc(-c2cc(-c3ccc4ccccc4n3)nc(-c3cccc(F)c3)n2)cc1

>  <score_type>  (35) 
oracle

>  <origin>  (35) 
adg

>  <m_score__min__energy>  (35) 
-7.0499999999999998

>  <m_primary>  (35) 
energy

$$$$
35:0
     RDKit          3D

 43 45  0  0  0  0  0  0  0  0999 V2000
   57.1580   26.3250   45.6200 C   0  0  0  0  0  0  0  0  0  0  0  0
   57.0520   27.6430   46.1460 O   0  0  0  0  0  0  0  0  0  0  0  0
   58.1410   28.4850   46.4240 C   0  0  0  0  0  0  0  0  0  0  0  0
   59.1130   28.1350   47.3800 C   0  0  0  0  0  0  0  0  0  0  0  0
   60.1890   28.9820   47.6430 C   0  0  0  0  0  0  0  0  0  0  0  0
   60.3300   30.1910   46.9490 C   0  0  0  0  0  0  0  0  0  0  0  0
   61.4830   31.0730   47.2430 C   0  0  0  0  0  0  0  0  0  0  0  0
   61.4950   32.2140   48.0360 C   0  0  0  0  0  0  0  0  0  0  0  0
   62.8030   32.6470   47.9700 C   0  0  0  0  0  0  0  0  0  0  0  0
   63.3880   33.8030   48.7120 C   0  0  0  0  0  0  0  0  0  0  0  0
   63.5080   31.7980   47.2020 N   0  0  0  0  0  0  0  0  0  0  0  0
   62.6980   30.8750   46.7780 O   0  0  0  0  0  0  0  0  0  0  0  0
   59.3680   30.5400   45.9870 C   0  0  0  0  0  0  0  0  0  0  0  0
   58.2630   29.7120   45.7360 C   0  0  0  0  0  0  0  0  0  0  0  0
   57.0680   30.2340   44.5320 S   0  0  0  0  0  0  0  0  0  0  0  0
   57.3760   29.5340   43.2370 O   0  0  0  0  0  0  0  0  0  0  0  0
   55.6850   29.8200   44.9490 O   0  0  0  0  0  0  0  0  0  0  0  0
   57.0820   31.9620   44.2570 N   0  0  0  0  0  0  0  0  0  0  0  0
   58.1460   32.3690   43.3310 C   0  0  0  0  0  0  0  0  0  0  0  0
   57.0180   32.7650   45.4960 C   0  0  0  0  0  0  0  0  0  0  0  0
   58.2020   33.6680   45.7230 C   0  0  0  0  0  0  0  0  0  0  0  0
   58.9880   33.5750   46.8160 N   0  0  0  0  0  0  0  0  0  0  0  0
   59.8630   34.5850   46.6730 C   0  0  0  0  0  0  0  0  0  0  0  0
   59.5780   35.2700   45.5180 C   0  0  0  0  0  0  0  0  0  0  0  0
   58.5170   34.7050   44.9190 N   0  0  0  0  0  0  0  0  0  0  0  0
   57.2160   25.6033   46.4481 H   0  0  0  0  0  0  0  0  0  0  0  0
   56.2747   26.1044   45.0026 H   0  0  0  0  0  0  0  0  0  0  0  0
   58.0652   26.2485   45.0026 H   0  0  0  0  0  0  0  0  0  0  0  0
   59.0229   27.1838   47.9251 H   0  0  0  0  0  0  0  0  0  0  0  0
   60.9334   28.6986   48.4017 H   0  0  0  0  0  0  0  0  0  0  0  0
   60.6574   32.6661   48.5874 H   0  0  0  0  0  0  0  0  0  0  0  0
   63.2989   33.6270   49.7942 H   0  0  0  0  0  0  0  0  0  0  0  0
   64.4494   33.9113   48.4443 H   0  0  0  0  0  0  0  0  0  0  0  0
   62.8467   34.7224   48.4443 H   0  0  0  0  0  0  0  0  0  0  0  0
   64.5270   31.8470   46.9820 H   0  0  0  0  0  0  0  0  0  0  0  0
   59.4824   31.4766   45.4217 H   0  0  0  0  0  0  0  0  0  0  0  0
   59.0227   32.7044   43.9045 H   0  0  0  0  0  0  0  0  0  0  0  0
   58.4271   31.5149   42.6973 H   0  0  0  0  0  0  0  0  0  0  0  0
   57.7854   33.1927   42.6973 H   0  0  0  0  0  0  0  0  0  0  0  0
   56.1138   33.3900   45.4529 H   0  0  0  0  0  0  0  0  0  0  0  0
   57.0095   32.0483   46.3304 H   0  0  0  0  0  0  0  0  0  0  0  0
   60.6786   34.8248   47.3711 H   0  0  0  0  0  0  0  0  0  0  0  0
   60.1311   36.1435   45.1425 H   0  0  0  0  0  0  0  0  0  0  0  0
  1  2  1  0
  2  3  1  0
  3  4  2  0
  4  5  1  0
  5  6  2  0
  6  7  1  0
  7  8  2  0
  8  9  1  0
  9 10  1  0
  9 11  2  0
 11 12  1  0
  6 13  1  0
 13 14  2  0
 14 15  1  0
 15 16  2  0
 15 17  2  0
 15 18  1  0
 18 19  1  0
 18 20  1  0
 20 21  1  0
 21 22  2  0
 22 23  1  0
 23 24  2  0
 24 25  1  0
 14  3  1  0
 25 21  1  0
 12  7  1  0
  1 26  1  0
  1 27  1  0
  1 28  1  0
  4 29  1  0
  5 30  1  0
  8 31  1  0
 10 32  1  0
 10 33  1  0
 10 34  1  0
 11 35  1  0
 13 36  1  0
 19 37  1  0
 19 38  1  0
 19 39  1  0
 20 40  1  0
 20 41  1  0
 23 42  1  0
 24 43  1  0
M  CHG  2  11   1  25  -1
M  END
>  <UniqueID>  (36) 
32

>  <SMILES>  (36) 
COc1ccc(-c2cc(C)[nH+]o2)cc1S(=O)(=O)N(C)Cc1ncc[n-]1

>  <Energy>  (36) 
103.64879206395896

>  <Genealogy>  (36) 
COc1ccc(-c2cc(C)[nH+]o2)cc1S(=O)(=O)N(C)Cc1ncc[n-]1 (protonated)
COc1ccc(-c2cc(C)[nH+]o2)cc1S(=O)(=O)N(C)Cc1ncc[n-]1 (3D coordinates assigned)
COc1ccc(-c2cc(C)[nH+]o2)cc1S(=O)(=O)N(C)Cc1ncc[n-]1 (optimized conformer: 103.64879206395896 kcal/mol)

>  <smiles>  (36) 
COc1ccc(-c2cc(C)no2)cc1S(=O)(=O)N(C)Cc1ncc[nH]1

>  <score_type>  (36) 
oracle

>  <origin>  (36) 
adg

>  <m_score__min__energy>  (36) 
-9.1199999999999992

>  <m_primary>  (36) 
energy

$$$$
36:0
     RDKit          3D

 44 47  0  0  0  0  0  0  0  0999 V2000
   64.3160   34.0610   50.8730 C   0  0  0  0  0  0  0  0  0  0  0  0
   63.6150   33.8520   49.5940 N   0  0  0  0  0  0  0  0  0  0  0  0
   62.1760   34.1670   49.7440 C   0  0  0  0  0  0  0  0  0  0  0  0
   61.3560   33.6650   48.5480 C   0  0  0  0  0  0  0  0  0  0  0  0
   61.5690   32.2280   48.3440 N   0  0  0  0  0  0  0  0  0  0  0  0
   60.6580   31.4660   47.5310 C   0  0  0  0  0  0  0  0  0  0  0  0
   60.6070   30.1160   47.5350 N   0  0  0  0  0  0  0  0  0  0  0  0
   59.6520   29.6270   46.6960 C   0  0  0  0  0  0  0  0  0  0  0  0
   59.3740   28.1750   46.6520 C   0  0  0  0  0  0  0  0  0  0  0  0
   60.2960   27.2800   46.0790 C   0  0  0  0  0  0  0  0  0  0  0  0
   60.0050   25.9130   46.0130 C   0  0  0  0  0  0  0  0  0  0  0  0
   58.7880   25.4320   46.5000 C   0  0  0  0  0  0  0  0  0  0  0  0
   57.8570   26.3180   47.0520 C   0  0  0  0  0  0  0  0  0  0  0  0
   58.1450   27.6860   47.1220 C   0  0  0  0  0  0  0  0  0  0  0  0
   58.9390   30.6130   45.9900 C   0  0  0  0  0  0  0  0  0  0  0  0
   57.9060   30.4370   44.9500 C   0  0  0  0  0  0  0  0  0  0  0  0
   58.0290   31.0330   43.6830 C   0  0  0  0  0  0  0  0  0  0  0  0
   57.0170   30.8500   42.7370 C   0  0  0  0  0  0  0  0  0  0  0  0
   55.8890   30.0960   43.0630 C   0  0  0  0  0  0  0  0  0  0  0  0
   55.7850   29.5410   44.3390 C   0  0  0  0  0  0  0  0  0  0  0  0
   56.7820   29.7260   45.2460 N   0  0  0  0  0  0  0  0  0  0  0  0
   59.5160   32.1190   46.4790 S   0  0  0  0  0  0  0  0  0  0  0  0
   62.6920   31.5700   49.0200 C   0  0  0  0  0  0  0  0  0  0  0  0
   63.9070   32.5070   49.0290 C   0  0  0  0  0  0  0  0  0  0  0  0
   63.6277   33.8558   51.7062 H   0  0  0  0  0  0  0  0  0  0  0  0
   65.1784   33.3809   50.9339 H   0  0  0  0  0  0  0  0  0  0  0  0
   64.6652   35.1023   50.9339 H   0  0  0  0  0  0  0  0  0  0  0  0
   61.8000   33.6878   50.6600 H   0  0  0  0  0  0  0  0  0  0  0  0
   62.0687   35.2604   49.7978 H   0  0  0  0  0  0  0  0  0  0  0  0
   60.2884   33.8489   48.7387 H   0  0  0  0  0  0  0  0  0  0  0  0
   61.6790   34.2036   47.6449 H   0  0  0  0  0  0  0  0  0  0  0  0
   61.2499   27.6566   45.6811 H   0  0  0  0  0  0  0  0  0  0  0  0
   60.7360   25.2163   45.5769 H   0  0  0  0  0  0  0  0  0  0  0  0
   58.5615   24.3568   46.4496 H   0  0  0  0  0  0  0  0  0  0  0  0
   56.8967   25.9390   47.4318 H   0  0  0  0  0  0  0  0  0  0  0  0
   57.4054   28.3805   47.5470 H   0  0  0  0  0  0  0  0  0  0  0  0
   58.9143   31.6383   43.4383 H   0  0  0  0  0  0  0  0  0  0  0  0
   57.1094   31.2994   41.7373 H   0  0  0  0  0  0  0  0  0  0  0  0
   55.0907   29.9409   42.3223 H   0  0  0  0  0  0  0  0  0  0  0  0
   54.8961   28.9533   44.6118 H   0  0  0  0  0  0  0  0  0  0  0  0
   62.4068   31.3303   50.0550 H   0  0  0  0  0  0  0  0  0  0  0  0
   62.9487   30.6437   48.4851 H   0  0  0  0  0  0  0  0  0  0  0  0
   64.7013   32.0414   49.6310 H   0  0  0  0  0  0  0  0  0  0  0  0
   64.2095   32.6547   47.9818 H   0  0  0  0  0  0  0  0  0  0  0  0
  1  2  1  0
  2  3  1  0
  3  4  1  0
  4  5  1  0
  5  6  1  0
  6  7  2  0
  7  8  1  0
  8  9  1  0
  9 10  2  0
 10 11  1  0
 11 12  2  0
 12 13  1  0
 13 14  2  0
  8 15  2  0
 15 16  1  0
 16 17  2  0
 17 18  1  0
 18 19  2  0
 19 20  1  0
 20 21  2  0
 15 22  1  0
  5 23  1  0
 23 24  1  0
 24  2  1  0
 22  6  1  0
 14  9  1  0
 21 16  1  0
  1 25  1  0
  1 26  1  0
  1 27  1  0
  3 28  1  0
  3 29  1  0
  4 30  1  0
  4 31  1  0
 10 32  1  0
 11 33  1  0
 12 34  1  0
 13 35  1  0
 14 36  1  0
 17 37  1  0
 18 38  1  0
 19 39  1  0
 20 40  1  0
 23 41  1  0
 23 42  1  0
 24 43  1  0
 24 44  1  0
M  END
>  <UniqueID>  (37) 
33

>  <SMILES>  (37) 
CN1CCN(c2nc(-c3ccccc3)c(-c3ccccn3)s2)CC1

>  <Energy>  (37) 
92.43597233750619

>  <Genealogy>  (37) 
CN1CCN(c2nc(-c3ccccc3)c(-c3ccccn3)s2)CC1 (3D coordinates assigned)
CN1CCN(c2nc(-c3ccccc3)c(-c3ccccn3)s2)CC1 (nonaromatic ring conformer: 92.43597233750619 kcal/mol)

>  <smiles>  (37) 
CN1CCN(c2nc(-c3ccccc3)c(-c3ccccn3)s2)CC1

>  <score_type>  (37) 
oracle

>  <origin>  (37) 
adg

>  <m_score__min__energy>  (37) 
-7.1100000000000003

>  <m_primary>  (37) 
energy

$$$$
37:0
     RDKit          3D

 36 38  0  0  0  0  0  0  0  0999 V2000
   55.7900   28.0680   45.2480 O   0  0  0  0  0  0  0  0  0  0  0  0
   56.4250   27.1340   45.8080 C   0  0  0  0  0  0  0  0  0  0  0  0
   55.7120   26.0350   46.3790 N   0  0  0  0  0  0  0  0  0  0  0  0
   54.8810   25.1180   45.6140 C   0  0  0  0  0  0  0  0  0  0  0  0
   55.7570   24.0410   45.0330 C   0  0  0  0  0  0  0  0  0  0  0  0
   55.8090   23.8710   43.6380 C   0  0  0  0  0  0  0  0  0  0  0  0
   56.6640   22.9230   43.0710 C   0  0  0  0  0  0  0  0  0  0  0  0
   57.4830   22.1420   43.8880 C   0  0  0  0  0  0  0  0  0  0  0  0
   57.4520   22.3100   45.2750 C   0  0  0  0  0  0  0  0  0  0  0  0
   56.6000   23.2590   45.8530 C   0  0  0  0  0  0  0  0  0  0  0  0
   56.6300   23.4560   47.6030 Cl  0  0  0  0  0  0  0  0  0  0  0  0
   57.9040   27.1950   45.9070 C   0  0  0  0  0  0  0  0  0  0  0  0
   58.5800   26.2110   46.6480 C   0  0  0  0  0  0  0  0  0  0  0  0
   59.9720   26.1870   46.6820 C   0  0  0  0  0  0  0  0  0  0  0  0
   60.6910   27.1450   45.9720 C   0  0  0  0  0  0  0  0  0  0  0  0
   60.0380   28.1080   45.2690 N   0  0  0  0  0  0  0  0  0  0  0  0
   58.6740   28.1760   45.2300 C   0  0  0  0  0  0  0  0  0  0  0  0
   58.0570   29.2690   44.5340 N   0  0  0  0  0  0  0  0  0  0  0  0
   58.0920   30.5680   44.8910 C   0  0  0  0  0  0  0  0  0  0  0  0
   57.4140   31.3230   43.9560 C   0  0  0  0  0  0  0  0  0  0  0  0
   56.9660   30.4450   42.9880 C   0  0  0  0  0  0  0  0  0  0  0  0
   57.3890   29.1870   43.3690 C   0  0  0  0  0  0  0  0  0  0  0  0
   54.1261   24.6651   46.2735 H   0  0  0  0  0  0  0  0  0  0  0  0
   54.3703   25.6616   44.8055 H   0  0  0  0  0  0  0  0  0  0  0  0
   55.1717   24.4891   42.9886 H   0  0  0  0  0  0  0  0  0  0  0  0
   56.6919   22.7918   41.9792 H   0  0  0  0  0  0  0  0  0  0  0  0
   58.1533   21.3938   43.4398 H   0  0  0  0  0  0  0  0  0  0  0  0
   58.1000   21.6938   45.9157 H   0  0  0  0  0  0  0  0  0  0  0  0
   58.0064   25.4552   47.2045 H   0  0  0  0  0  0  0  0  0  0  0  0
   60.4992   25.4175   47.2650 H   0  0  0  0  0  0  0  0  0  0  0  0
   61.7907   27.1225   45.9800 H   0  0  0  0  0  0  0  0  0  0  0  0
   60.6030   28.8280   44.7650 H   0  0  0  0  0  0  0  0  0  0  0  0
   58.5855   30.9656   45.7901 H   0  0  0  0  0  0  0  0  0  0  0  0
   57.2602   32.4120   43.9772 H   0  0  0  0  0  0  0  0  0  0  0  0
   56.3854   30.6987   42.0888 H   0  0  0  0  0  0  0  0  0  0  0  0
   57.2076   28.2595   42.8061 H   0  0  0  0  0  0  0  0  0  0  0  0
  1  2  2  0
  2  3  1  0
  3  4  1  0
  4  5  1  0
  5  6  2  0
  6  7  1  0
  7  8  2  0
  8  9  1  0
  9 10  2  0
 10 11  1  0
  2 12  1  0
 12 13  2  0
 13 14  1  0
 14 15  2  0
 15 16  1  0
 16 17  2  0
 17 18  1  0
 18 19  1  0
 19 20  2  0
 20 21  1  0
 21 22  2  0
 10  5  1  0
 17 12  1  0
 22 18  1  0
  4 23  1  0
  4 24  1  0
  6 25  1  0
  7 26  1  0
  8 27  1  0
  9 28  1  0
 13 29  1  0
 14 30  1  0
 15 31  1  0
 16 32  1  0
 19 33  1  0
 20 34  1  0
 21 35  1  0
 22 36  1  0
M  CHG  2   3  -1  16   1
M  END
>  <UniqueID>  (38) 
34

>  <SMILES>  (38) 
O=C([N-]Cc1ccccc1Cl)c1ccc[nH+]c1-n1cccc1

>  <Energy>  (38) 
69.80648411335879

>  <Genealogy>  (38) 
O=C([N-]Cc1ccccc1Cl)c1ccc[nH+]c1-n1cccc1 (protonated)
O=C([N-]Cc1ccccc1Cl)c1ccc[nH+]c1-n1cccc1 (3D coordinates assigned)
O=C([N-]Cc1ccccc1Cl)c1ccc[nH+]c1-n1cccc1 (optimized conformer: 69.80648411335879 kcal/mol)

>  <smiles>  (38) 
O=C(NCc1ccccc1Cl)c1cccnc1-n1cccc1

>  <score_type>  (38) 
oracle

>  <origin>  (38) 
adg

>  <m_score__min__energy>  (38) 
-7.2599999999999998

>  <m_primary>  (38) 
energy

$$$$
38:0
     RDKit          3D

 33 35  0  0  0  0  0  0  0  0999 V2000
   60.8340   26.9350   48.1760 C   0  0  0  0  0  0  0  0  0  0  0  0
   59.5320   27.1500   47.4500 C   0  0  0  0  0  0  0  0  0  0  0  0
   58.5310   26.1530   47.5200 C   0  0  0  0  0  0  0  0  0  0  0  0
   57.3380   26.3730   46.8430 C   0  0  0  0  0  0  0  0  0  0  0  0
   56.2700   25.5630   46.7830 N   0  0  0  0  0  0  0  0  0  0  0  0
   55.4150   26.2740   46.0000 C   0  0  0  0  0  0  0  0  0  0  0  0
   54.2290   25.8530   45.6790 N   0  0  0  0  0  0  0  0  0  0  0  0
   53.8500   24.4430   45.5860 C   0  0  0  0  0  0  0  0  0  0  0  0
   54.9510   23.6420   44.9520 C   0  0  0  0  0  0  0  0  0  0  0  0
   55.8140   22.8670   45.7390 C   0  0  0  0  0  0  0  0  0  0  0  0
   56.8440   22.1530   45.1240 C   0  0  0  0  0  0  0  0  0  0  0  0
   57.0060   22.2190   43.7390 C   0  0  0  0  0  0  0  0  0  0  0  0
   56.1310   23.0050   42.9870 C   0  0  0  0  0  0  0  0  0  0  0  0
   55.1320   23.6950   43.6020 N   0  0  0  0  0  0  0  0  0  0  0  0
   55.8910   27.4710   45.5740 N   0  0  0  0  0  0  0  0  0  0  0  0
   57.1120   27.5040   46.1260 C   0  0  0  0  0  0  0  0  0  0  0  0
   58.0620   28.5140   46.0240 C   0  0  0  0  0  0  0  0  0  0  0  0
   59.2960   28.3420   46.6940 C   0  0  0  0  0  0  0  0  0  0  0  0
   60.3390   29.4230   46.5990 C   0  0  0  0  0  0  0  0  0  0  0  0
   60.6577   26.9641   49.2614 H   0  0  0  0  0  0  0  0  0  0  0  0
   61.2512   25.9558   47.8984 H   0  0  0  0  0  0  0  0  0  0  0  0
   61.5439   27.7281   47.8984 H   0  0  0  0  0  0  0  0  0  0  0  0
   58.6927   25.2290   48.0946 H   0  0  0  0  0  0  0  0  0  0  0  0
   53.6547   24.0535   46.5960 H   0  0  0  0  0  0  0  0  0  0  0  0
   52.9461   24.3583   44.9649 H   0  0  0  0  0  0  0  0  0  0  0  0
   55.6810   22.8219   46.8300 H   0  0  0  0  0  0  0  0  0  0  0  0
   57.5269   21.5393   45.7298 H   0  0  0  0  0  0  0  0  0  0  0  0
   57.8137   21.6582   43.2459 H   0  0  0  0  0  0  0  0  0  0  0  0
   56.2492   23.0668   41.8951 H   0  0  0  0  0  0  0  0  0  0  0  0
   57.8595   29.4226   45.4380 H   0  0  0  0  0  0  0  0  0  0  0  0
   60.6385   29.7334   47.6109 H   0  0  0  0  0  0  0  0  0  0  0  0
   61.2167   29.0392   46.0583 H   0  0  0  0  0  0  0  0  0  0  0  0
   59.9240   30.2864   46.0583 H   0  0  0  0  0  0  0  0  0  0  0  0
  1  2  1  0
  2  3  2  0
  3  4  1  0
  4  5  1  0
  5  6  1  0
  6  7  2  3
  7  8  1  0
  8  9  1  0
  9 10  2  0
 10 11  1  0
 11 12  2  0
 12 13  1  0
 13 14  2  0
  6 15  1  0
 15 16  1  0
 16 17  1  0
 17 18  2  0
 18 19  1  0
 18  2  1  0
 16  4  2  0
 14  9  1  0
  1 20  1  0
  1 21  1  0
  1 22  1  0
  3 23  1  0
  8 24  1  0
  8 25  1  0
 10 26  1  0
 11 27  1  0
 12 28  1  0
 13 29  1  0
 17 30  1  0
 19 31  1  0
 19 32  1  0
 19 33  1  0
M  CHG  2   5  -1  15  -1
M  END
>  <UniqueID>  (39) 
35

>  <SMILES>  (39) 
Cc1cc2[n-]c(=NCc3ccccn3)[n-]c2cc1C

>  <Energy>  (39) 
69.36591741510207

>  <Genealogy>  (39) 
Cc1cc2[n-]c(=NCc3ccccn3)[n-]c2cc1C (protonated)
Cc1cc2[n-]c(=NCc3ccccn3)[n-]c2cc1C (3D coordinates assigned)
Cc1cc2[n-]c(=NCc3ccccn3)[n-]c2cc1C (optimized conformer: 69.36591741510207 kcal/mol)

>  <smiles>  (39) 
Cc1cc2[nH]c(=NCc3ccccn3)[nH]c2cc1C

>  <score_type>  (39) 
oracle

>  <origin>  (39) 
adg

>  <m_score__min__energy>  (39) 
-10.130000000000001

>  <m_primary>  (39) 
energy

$$$$
39:0
     RDKit          3D

 50 53  0  0  0  0  0  0  0  0999 V2000
   66.2650   33.1140   49.9850 C   0  0  0  0  0  0  0  0  0  0  0  0
   64.9250   32.7150   50.6410 C   0  0  0  0  0  0  0  0  0  0  0  0
   65.1560   31.4800   51.5360 C   0  0  0  0  0  0  0  0  0  0  0  0
   64.4170   33.9050   51.4950 C   0  0  0  0  0  0  0  0  0  0  0  0
   62.9870   33.7210   51.9200 C   0  0  0  0  0  0  0  0  0  0  0  0
   62.5900   34.2010   53.0140 O   0  0  0  0  0  0  0  0  0  0  0  0
   62.0310   33.0510   51.0250 C   0  0  0  0  0  0  0  0  0  0  0  0
   62.4370   32.4320   49.9040 C   0  0  0  0  0  0  0  0  0  0  0  0
   61.4400   31.7920   49.0090 C   0  0  0  0  0  0  0  0  0  0  0  0
   60.6730   30.7070   49.4630 C   0  0  0  0  0  0  0  0  0  0  0  0
   59.7310   30.1050   48.6240 C   0  0  0  0  0  0  0  0  0  0  0  0
   59.5350   30.5770   47.3150 C   0  0  0  0  0  0  0  0  0  0  0  0
   58.5330   29.9380   46.4240 C   0  0  0  0  0  0  0  0  0  0  0  0
   57.7720   30.7150   45.5320 C   0  0  0  0  0  0  0  0  0  0  0  0
   56.8300   30.1130   44.6950 C   0  0  0  0  0  0  0  0  0  0  0  0
   56.6330   28.7320   44.7380 C   0  0  0  0  0  0  0  0  0  0  0  0
   57.3760   27.9360   45.6250 C   0  0  0  0  0  0  0  0  0  0  0  0
   57.1810   26.4660   45.6630 C   0  0  0  0  0  0  0  0  0  0  0  0
   58.2910   25.6110   45.5360 C   0  0  0  0  0  0  0  0  0  0  0  0
   58.1240   24.2240   45.5610 C   0  0  0  0  0  0  0  0  0  0  0  0
   56.8500   23.6750   45.7150 C   0  0  0  0  0  0  0  0  0  0  0  0
   55.7400   24.5110   45.8490 C   0  0  0  0  0  0  0  0  0  0  0  0
   55.8980   25.9020   45.8290 C   0  0  0  0  0  0  0  0  0  0  0  0
   54.7790   26.7120   45.9970 O   0  0  0  0  0  0  0  0  0  0  0  0
   58.3280   28.5450   46.4600 C   0  0  0  0  0  0  0  0  0  0  0  0
   60.3000   31.6660   46.8640 C   0  0  0  0  0  0  0  0  0  0  0  0
   61.2410   32.2690   47.7030 C   0  0  0  0  0  0  0  0  0  0  0  0
   63.8890   32.3630   49.5840 C   0  0  0  0  0  0  0  0  0  0  0  0
   64.2570   31.9550   48.4470 O   0  0  0  0  0  0  0  0  0  0  0  0
   67.0053   33.3344   50.7681 H   0  0  0  0  0  0  0  0  0  0  0  0
   66.6284   32.2851   49.3598 H   0  0  0  0  0  0  0  0  0  0  0  0
   66.1157   34.0067   49.3598 H   0  0  0  0  0  0  0  0  0  0  0  0
   65.1003   31.7779   52.5934 H   0  0  0  0  0  0  0  0  0  0  0  0
   64.3834   30.7256   51.3264 H   0  0  0  0  0  0  0  0  0  0  0  0
   66.1491   31.0558   51.3264 H   0  0  0  0  0  0  0  0  0  0  0  0
   65.0463   33.9923   52.3930 H   0  0  0  0  0  0  0  0  0  0  0  0
   64.4749   34.8149   50.8796 H   0  0  0  0  0  0  0  0  0  0  0  0
   60.9608   33.0570   51.2791 H   0  0  0  0  0  0  0  0  0  0  0  0
   60.8144   30.3282   50.4860 H   0  0  0  0  0  0  0  0  0  0  0  0
   59.1380   29.2545   48.9915 H   0  0  0  0  0  0  0  0  0  0  0  0
   57.9199   31.8043   45.4934 H   0  0  0  0  0  0  0  0  0  0  0  0
   56.2414   30.7293   43.9995 H   0  0  0  0  0  0  0  0  0  0  0  0
   55.8916   28.2644   44.0734 H   0  0  0  0  0  0  0  0  0  0  0  0
   59.2978   26.0376   45.4161 H   0  0  0  0  0  0  0  0  0  0  0  0
   58.9979   23.5637   45.4592 H   0  0  0  0  0  0  0  0  0  0  0  0
   56.7205   22.5828   45.7308 H   0  0  0  0  0  0  0  0  0  0  0  0
   54.7374   24.0752   45.9708 H   0  0  0  0  0  0  0  0  0  0  0  0
   58.9204   27.9263   47.1502 H   0  0  0  0  0  0  0  0  0  0  0  0
   60.1570   32.0470   45.8421 H   0  0  0  0  0  0  0  0  0  0  0  0
   61.8300   33.1233   47.3380 H   0  0  0  0  0  0  0  0  0  0  0  0
  1  2  1  0
  2  3  1  0
  2  4  1  0
  4  5  1  0
  5  6  2  0
  5  7  1  0
  7  8  2  0
  8  9  1  0
  9 10  2  0
 10 11  1  0
 11 12  2  0
 12 13  1  0
 13 14  2  0
 14 15  1  0
 15 16  2  0
 16 17  1  0
 17 18  1  0
 18 19  2  0
 19 20  1  0
 20 21  2  0
 21 22  1  0
 22 23  2  0
 23 24  1  0
 17 25  2  0
 12 26  1  0
 26 27  2  0
  8 28  1  0
 28 29  2  0
 28  2  1  0
 27  9  1  0
 25 13  1  0
 23 18  1  0
  1 30  1  0
  1 31  1  0
  1 32  1  0
  3 33  1  0
  3 34  1  0
  3 35  1  0
  4 36  1  0
  4 37  1  0
  7 38  1  0
 10 39  1  0
 11 40  1  0
 14 41  1  0
 15 42  1  0
 16 43  1  0
 19 44  1  0
 20 45  1  0
 21 46  1  0
 22 47  1  0
 25 48  1  0
 26 49  1  0
 27 50  1  0
M  CHG  1  24  -1
M  END
>  <UniqueID>  (40) 
36

>  <SMILES>  (40) 
CC1(C)CC(=O)C=C(c2ccc(-c3cccc(-c4ccccc4[O-])c3)cc2)C1=O

>  <Energy>  (40) 
70.02048376322293

>  <Genealogy>  (40) 
CC1(C)CC(=O)C=C(c2ccc(-c3cccc(-c4ccccc4[O-])c3)cc2)C1=O (protonated)
CC1(C)CC(=O)C=C(c2ccc(-c3cccc(-c4ccccc4[O-])c3)cc2)C1=O (3D coordinates assigned)
CC1(C)CC(=O)C=C(c2ccc(-c3cccc(-c4ccccc4[O-])c3)cc2)C1=O (nonaromatic ring conformer: 70.02048376322293 kcal/mol)

>  <smiles>  (40) 
CC1(C)CC(=O)C=C(c2ccc(-c3cccc(-c4ccccc4O)c3)cc2)C1=O

>  <score_type>  (40) 
oracle

>  <origin>  (40) 
adg

>  <m_score__min__energy>  (40) 
-12.26

>  <m_primary>  (40) 
energy

$$$$
40:0
     RDKit          3D

 43 46  0  0  0  0  0  0  0  0999 V2000
   54.7540   26.6990   45.0330 H   0  0  0  0  0  0  0  0  0  0  0  0
   54.8850   26.3300   46.0020 N   0  0  0  0  0  0  0  0  0  0  0  0
   56.1640   25.8820   46.4500 C   0  0  0  0  0  0  0  0  0  0  0  0
   56.2400   24.8190   47.1230 O   0  0  0  0  0  0  0  0  0  0  0  0
   57.3870   26.6540   46.1300 C   0  0  0  0  0  0  0  0  0  0  0  0
   57.5930   27.1660   44.8360 C   0  0  0  0  0  0  0  0  0  0  0  0
   56.8339   27.0030   44.0568 H   0  0  0  0  0  0  0  0  0  0  0  0
   58.7550   27.8800   44.5340 C   0  0  0  0  0  0  0  0  0  0  0  0
   58.9122   28.2657   43.5159 H   0  0  0  0  0  0  0  0  0  0  0  0
   59.7180   28.1060   45.5200 C   0  0  0  0  0  0  0  0  0  0  0  0
   60.6375   28.6567   45.2723 H   0  0  0  0  0  0  0  0  0  0  0  0
   59.5160   27.6320   46.8280 C   0  0  0  0  0  0  0  0  0  0  0  0
   60.4950   27.8150   47.8650 N   0  0  0  0  0  0  0  0  0  0  0  0
   60.5140   28.7540   48.7650 C   0  0  0  0  0  0  0  0  0  0  0  0
   60.3990   30.0650   48.4210 N   0  0  0  0  0  0  0  0  0  0  0  0
   60.3970   31.0270   49.3760 C   0  0  0  0  0  0  0  0  0  0  0  0
   60.2860   32.3970   49.0060 N   0  0  0  0  0  0  0  0  0  0  0  0
   60.7810   33.2750   47.9290 C   0  0  0  0  0  0  0  0  0  0  0  0
   61.8782   33.3511   47.9131 H   0  0  0  0  0  0  0  0  0  0  0  0
   60.5627   32.9724   46.8942 H   0  0  0  0  0  0  0  0  0  0  0  0
   60.1230   34.5200   48.4290 C   0  0  0  0  0  0  0  0  0  0  0  0
   60.6433   35.4712   48.6148 H   0  0  0  0  0  0  0  0  0  0  0  0
   59.0820   34.9580   47.5560 O   0  0  0  0  0  0  0  0  0  0  0  0
   58.6400   34.2430   46.4330 C   0  0  0  0  0  0  0  0  0  0  0  0
   57.5000   33.4370   46.5630 C   0  0  0  0  0  0  0  0  0  0  0  0
   56.9805   33.3784   47.5308 H   0  0  0  0  0  0  0  0  0  0  0  0
   57.0190   32.7080   45.4730 C   0  0  0  0  0  0  0  0  0  0  0  0
   56.1237   32.0788   45.5850 H   0  0  0  0  0  0  0  0  0  0  0  0
   57.6740   32.7770   44.2400 C   0  0  0  0  0  0  0  0  0  0  0  0
   57.2080   32.0690   43.1820 F   0  0  0  0  0  0  0  0  0  0  0  0
   58.8120   33.5770   44.0980 C   0  0  0  0  0  0  0  0  0  0  0  0
   59.3281   33.6309   43.1281 H   0  0  0  0  0  0  0  0  0  0  0  0
   59.2950   34.3090   45.1880 C   0  0  0  0  0  0  0  0  0  0  0  0
   60.1897   34.9384   45.0722 H   0  0  0  0  0  0  0  0  0  0  0  0
   59.6300   33.6160   49.5140 C   0  0  0  0  0  0  0  0  0  0  0  0
   59.9922   33.9103   50.5101 H   0  0  0  0  0  0  0  0  0  0  0  0
   58.5429   33.5715   49.6758 H   0  0  0  0  0  0  0  0  0  0  0  0
   60.5010   30.6820   50.6850 N   0  0  0  0  0  0  0  0  0  0  0  0
   60.6060   29.3760   51.0340 C   0  0  0  0  0  0  0  0  0  0  0  0
   60.6896   29.0956   52.0944 H   0  0  0  0  0  0  0  0  0  0  0  0
   60.6080   28.4140   50.0760 N   0  0  0  0  0  0  0  0  0  0  0  0
   58.3640   26.8870   47.1170 C   0  0  0  0  0  0  0  0  0  0  0  0
   58.2214   26.4789   48.1285 H   0  0  0  0  0  0  0  0  0  0  0  0
  1  2  1  0
  2  3  1  0
  3  4  2  0
  3  5  1  0
  5  6  2  0
  6  7  1  0
  6  8  1  0
  8  9  1  0
  8 10  2  0
 10 11  1  0
 10 12  1  0
 12 13  1  0
 13 14  2  0
 14 15  1  0
 15 16  2  0
 16 17  1  0
 17 18  1  0
 18 19  1  0
 18 20  1  0
 18 21  1  0
 21 22  1  0
 21 23  1  0
 23 24  1  0
 24 25  2  0
 25 26  1  0
 25 27  1  0
 27 28  1  0
 27 29  2  0
 29 30  1  0
 29 31  1  0
 31 32  1  0
 31 33  2  0
 33 34  1  0
 21 35  1  0
 35 36  1  0
 35 37  1  0
 16 38  1  0
 38 39  2  0
 39 40  1  0
 39 41  1  0
 12 42  2  0
 42 43  1  0
 42  5  1  0
 41 14  1  0
 35 17  1  0
 33 24  1  0
M  CHG  2   2  -1  41  -1
M  END
>  <UniqueID>  (41) 
37

>  <SMILES>  (41) 
[NH-]C(=O)c1cccc(/N=c2\nc(N3CC(Oc4ccc(F)cc4)C3)nc[n-]2)c1

>  <Energy>  (41) 
97.91238770418418

>  <Genealogy>  (41) 
[NH-]C(=O)c1cccc(N=c2nc(N3CC(Oc4ccc(F)cc4)C3)nc[n-]2)c1 (protonated)
[NH-]C(=O)c1cccc(/N=c2\nc(N3CC(Oc4ccc(F)cc4)C3)nc[n-]2)c1 (cis-trans isomerization)
[NH-]C(=O)c1cccc(/N=c2\nc(N3CC(Oc4ccc(F)cc4)C3)nc[n-]2)c1 (3D coordinates assigned)
[NH-]C(=O)c1cccc(/N=c2\nc(N3CC(Oc4ccc(F)cc4)C3)nc[n-]2)c1 (nonaromatic ring conformer: 97.91238770418418 kcal/mol)

>  <smiles>  (41) 
NC(=O)c1cccc(N=c2nc(N3CC(Oc4ccc(F)cc4)C3)nc[nH]2)c1

>  <score_type>  (41) 
oracle

>  <origin>  (41) 
adg

>  <m_score__min__energy>  (41) 
-12.59

>  <m_primary>  (41) 
energy

$$$$
41:0
     RDKit          3D

 30 31  0  0  0  0  0  0  0  0999 V2000
   60.3584   29.8020   47.3120 H   0  0  0  0  0  0  0  0  0  0  0  0
   59.5780   29.7830   46.5370 C   0  0  0  0  0  0  0  0  0  0  0  0
   59.4240   28.6500   45.7390 C   0  0  0  0  0  0  0  0  0  0  0  0
   60.3220   27.4590   45.9480 C   0  0  0  0  0  0  0  0  0  0  0  0
   60.4540   27.2840   47.0259 H   0  0  0  0  0  0  0  0  0  0  0  0
   59.8668   26.5709   45.4854 H   0  0  0  0  0  0  0  0  0  0  0  0
   61.3011   27.6523   45.4854 H   0  0  0  0  0  0  0  0  0  0  0  0
   58.4350   28.6520   44.7420 C   0  0  0  0  0  0  0  0  0  0  0  0
   58.2440   27.2300   43.7010 Cl  0  0  0  0  0  0  0  0  0  0  0  0
   57.6080   29.7830   44.5660 C   0  0  0  0  0  0  0  0  0  0  0  0
   56.6580   29.7500   43.4770 C   0  0  0  0  0  0  0  0  0  0  0  0
   55.8900   29.7030   42.6120 N   0  0  0  0  0  0  0  0  0  0  0  0
   57.7850   30.9100   45.4260 C   0  0  0  0  0  0  0  0  0  0  0  0
   57.0630   32.0020   45.3890 N   0  0  0  0  0  0  0  0  0  0  0  0
   57.4070   33.4200   45.5130 C   0  0  0  0  0  0  0  0  0  0  0  0
   56.4922   33.9819   45.2733 H   0  0  0  0  0  0  0  0  0  0  0  0
   57.9230   33.7540   46.9120 C   0  0  0  0  0  0  0  0  0  0  0  0
   57.0967   34.0986   47.5511 H   0  0  0  0  0  0  0  0  0  0  0  0
   58.3670   32.8721   47.3970 H   0  0  0  0  0  0  0  0  0  0  0  0
   58.9520   34.8670   46.7310 C   0  0  0  0  0  0  0  0  0  0  0  0
   58.5356   35.8264   47.0717 H   0  0  0  0  0  0  0  0  0  0  0  0
   59.8582   34.6657   47.3212 H   0  0  0  0  0  0  0  0  0  0  0  0
   59.2740   34.9340   45.2400 C   0  0  0  0  0  0  0  0  0  0  0  0
   58.8974   35.8744   44.8112 H   0  0  0  0  0  0  0  0  0  0  0  0
   60.3594   34.9021   45.0643 H   0  0  0  0  0  0  0  0  0  0  0  0
   58.5760   33.7460   44.5970 C   0  0  0  0  0  0  0  0  0  0  0  0
   58.2154   34.0094   43.5917 H   0  0  0  0  0  0  0  0  0  0  0  0
   59.2543   32.8882   44.4784 H   0  0  0  0  0  0  0  0  0  0  0  0
   58.7740   30.8620   46.3660 N   0  0  0  0  0  0  0  0  0  0  0  0
   58.9240   31.6850   46.9940 H   0  0  0  0  0  0  0  0  0  0  0  0
  1  2  1  0
  2  3  2  0
  3  4  1  0
  4  5  1  0
  4  6  1  0
  4  7  1  0
  3  8  1  0
  8  9  1  0
  8 10  2  0
 10 11  1  0
 11 12  3  0
 10 13  1  0
 13 14  2  0
 14 15  1  0
 15 16  1  0
 15 17  1  0
 17 18  1  0
 17 19  1  0
 17 20  1  0
 20 21  1  0
 20 22  1  0
 20 23  1  0
 23 24  1  0
 23 25  1  0
 23 26  1  0
 26 27  1  0
 26 28  1  0
 13 29  1  0
 29 30  1  0
 29  2  1  0
 26 15  1  0
M  END
>  <UniqueID>  (42) 
38

>  <SMILES>  (42) 
Cc1c[nH]/c(=N/C2CCCC2)c(C#N)c1Cl

>  <Energy>  (42) 
41.03977389549126

>  <Genealogy>  (42) 
Cc1c[nH]/c(=N/C2CCCC2)c(C#N)c1Cl (cis-trans isomerization)
Cc1c[nH]/c(=N/C2CCCC2)c(C#N)c1Cl (3D coordinates assigned)
Cc1c[nH]/c(=N/C2CCCC2)c(C#N)c1Cl (nonaromatic ring conformer: 41.03977389549126 kcal/mol)

>  <smiles>  (42) 
Cc1c[nH]c(=NC2CCCC2)c(C#N)c1Cl

>  <score_type>  (42) 
oracle

>  <origin>  (42) 
adg

>  <m_score__min__energy>  (42) 
-6.2999999999999998

>  <m_primary>  (42) 
energy

$$$$
42:0
     RDKit          3D

 23 25  0  0  1  0  0  0  0  0999 V2000
   55.8960   21.9140   42.9420 O   0  0  0  0  0  0  0  0  0  0  0  0
   56.9410   22.1290   43.6220 C   0  0  0  0  0  0  0  0  0  0  0  0
   57.9520   21.2690   43.7950 N   0  0  0  0  0  0  0  0  0  0  0  0
   58.8900   21.8330   44.5740 N   0  0  0  0  0  0  0  0  0  0  0  0
   58.5020   23.0730   44.9200 C   0  0  0  0  0  0  0  0  0  0  0  0
   57.2670   23.2790   44.3260 C   0  0  0  0  0  0  0  0  0  0  0  0
   56.8020   24.5980   44.6640 C   0  0  1  0  0  0  0  0  0  0  0  0
   55.4320   24.7940   45.1340 C   0  0  0  0  0  0  0  0  0  0  0  0
   55.5940   25.9880   45.9840 N   0  0  0  0  0  0  0  0  0  0  0  0
   57.0370   26.1070   46.2670 C   0  0  0  0  0  0  0  0  0  0  0  0
   57.4620   24.7320   46.0610 C   0  0  2  0  0  0  0  0  0  0  0  0
   58.8100   24.3380   45.6650 C   0  0  0  0  0  0  0  0  0  0  0  0
   58.0480   20.2890   43.4050 H   0  0  0  0  0  0  0  0  0  0  0  0
   59.8040   21.3860   44.8800 H   0  0  0  0  0  0  0  0  0  0  0  0
   56.9716   25.2243   43.7757 H   0  0  0  0  0  0  0  0  0  0  0  0
   54.7416   24.9834   44.2988 H   0  0  0  0  0  0  0  0  0  0  0  0
   55.0014   23.9241   45.6516 H   0  0  0  0  0  0  0  0  0  0  0  0
   55.1450   25.8100   46.9010 H   0  0  0  0  0  0  0  0  0  0  0  0
   57.5329   26.7946   45.5661 H   0  0  0  0  0  0  0  0  0  0  0  0
   57.2771   26.5171   47.2590 H   0  0  0  0  0  0  0  0  0  0  0  0
   57.2740   24.1939   47.0018 H   0  0  0  0  0  0  0  0  0  0  0  0
   59.2811   25.0903   45.0153 H   0  0  0  0  0  0  0  0  0  0  0  0
   59.5230   24.2255   46.4951 H   0  0  0  0  0  0  0  0  0  0  0  0
  1  2  2  0
  2  3  1  0
  3  4  1  0
  4  5  1  0
  5  6  2  0
  6  7  1  0
  7  8  1  0
  8  9  1  0
  9 10  1  0
 10 11  1  0
 11 12  1  0
  6  2  1  0
 11  7  1  0
 12  5  1  0
  3 13  1  0
  4 14  1  0
  7 15  1  6
  8 16  1  0
  8 17  1  0
  9 18  1  0
 10 19  1  0
 10 20  1  0
 11 21  1  1
 12 22  1  0
 12 23  1  0
M  END
>  <smiles>  (43) 
O=c1[nH][nH]c2c1C1CNCC1C2

>  <score_type>  (43) 
oracle

>  <origin>  (43) 
adg

>  <m_score__min__energy>  (43) 
-5.8899999999999997

>  <m_primary>  (43) 
energy

$$$$
43:0
     RDKit          3D

 35 37  0  0  0  0  0  0  0  0999 V2000
   59.2270   27.1830   45.6440 C   0  0  0  0  0  0  0  0  0  0  0  0
   57.8400   27.1180   45.8090 C   0  0  0  0  0  0  0  0  0  0  0  0
   57.0270   28.1400   45.3100 C   0  0  0  0  0  0  0  0  0  0  0  0
   57.6010   29.2310   44.6430 C   0  0  0  0  0  0  0  0  0  0  0  0
   56.5570   30.5370   43.9950 S   0  0  0  0  0  0  0  0  0  0  0  0
   57.5510   31.8270   44.7460 C   0  0  0  0  0  0  0  0  0  0  0  0
   58.0930   32.8450   43.9520 C   0  0  0  0  0  0  0  0  0  0  0  0
   58.8800   33.8430   44.5340 C   0  0  0  0  0  0  0  0  0  0  0  0
   59.1240   33.8360   45.9170 C   0  0  0  0  0  0  0  0  0  0  0  0
   60.0130   34.8810   46.5360 C   0  0  0  0  0  0  0  0  0  0  0  0
   61.1870   34.2280   47.2130 C   0  0  0  0  0  0  0  0  0  0  0  0
   62.3030   33.8240   46.4660 C   0  0  0  0  0  0  0  0  0  0  0  0
   63.3990   33.2540   47.1190 C   0  0  0  0  0  0  0  0  0  0  0  0
   63.3840   33.1030   48.4700 N   0  0  0  0  0  0  0  0  0  0  0  0
   62.3200   33.4950   49.2190 C   0  0  0  0  0  0  0  0  0  0  0  0
   61.2040   34.0700   48.6070 C   0  0  0  0  0  0  0  0  0  0  0  0
   58.5820   32.8090   46.7070 C   0  0  0  0  0  0  0  0  0  0  0  0
   57.7940   31.8130   46.1230 C   0  0  0  0  0  0  0  0  0  0  0  0
   58.9900   29.2970   44.4830 C   0  0  0  0  0  0  0  0  0  0  0  0
   59.8020   28.2730   44.9820 C   0  0  0  0  0  0  0  0  0  0  0  0
   59.8658   26.3772   46.0347 H   0  0  0  0  0  0  0  0  0  0  0  0
   57.3882   26.2621   46.3318 H   0  0  0  0  0  0  0  0  0  0  0  0
   55.9361   28.0879   45.4409 H   0  0  0  0  0  0  0  0  0  0  0  0
   57.8993   32.8594   42.8693 H   0  0  0  0  0  0  0  0  0  0  0  0
   59.3100   34.6372   43.9060 H   0  0  0  0  0  0  0  0  0  0  0  0
   60.3775   35.5597   45.7508 H   0  0  0  0  0  0  0  0  0  0  0  0
   59.4365   35.4467   47.2828 H   0  0  0  0  0  0  0  0  0  0  0  0
   62.3155   33.9549   45.3739 H   0  0  0  0  0  0  0  0  0  0  0  0
   64.2748   32.9271   46.5393 H   0  0  0  0  0  0  0  0  0  0  0  0
   62.3378   33.3590   50.3104 H   0  0  0  0  0  0  0  0  0  0  0  0
   60.3457   34.3962   49.2127 H   0  0  0  0  0  0  0  0  0  0  0  0
   58.7783   32.7883   47.7891 H   0  0  0  0  0  0  0  0  0  0  0  0
   57.3641   31.0164   46.7480 H   0  0  0  0  0  0  0  0  0  0  0  0
   59.4434   30.1547   43.9645 H   0  0  0  0  0  0  0  0  0  0  0  0
   60.8933   28.3249   44.8538 H   0  0  0  0  0  0  0  0  0  0  0  0
  1  2  2  0
  2  3  1  0
  3  4  2  0
  4  5  1  0
  5  6  1  0
  6  7  2  0
  7  8  1  0
  8  9  2  0
  9 10  1  0
 10 11  1  0
 11 12  2  0
 12 13  1  0
 13 14  2  0
 14 15  1  0
 15 16  2  0
  9 17  1  0
 17 18  2  0
  4 19  1  0
 19 20  2  0
 20  1  1  0
 18  6  1  0
 16 11  1  0
  1 21  1  0
  2 22  1  0
  3 23  1  0
  7 24  1  0
  8 25  1  0
 10 26  1  0
 10 27  1  0
 12 28  1  0
 13 29  1  0
 15 30  1  0
 16 31  1  0
 17 32  1  0
 18 33  1  0
 19 34  1  0
 20 35  1  0
M  END
>  <UniqueID>  (44) 
39

>  <SMILES>  (44) 
c1ccc(Sc2ccc(Cc3ccncc3)cc2)cc1

>  <Energy>  (44) 
32.30644933030922

>  <Genealogy>  (44) 
c1ccc(Sc2ccc(Cc3ccncc3)cc2)cc1 (3D coordinates assigned)
c1ccc(Sc2ccc(Cc3ccncc3)cc2)cc1 (optimized conformer: 32.30644933030922 kcal/mol)

>  <smiles>  (44) 
c1ccc(Sc2ccc(Cc3ccncc3)cc2)cc1

>  <score_type>  (44) 
oracle

>  <origin>  (44) 
adg

>  <m_score__min__energy>  (44) 
-7.6200000000000001

>  <m_primary>  (44) 
energy

$$$$
44:0
     RDKit          3D

 27 29  0  0  0  0  0  0  0  0999 V2000
   55.1610   28.0470   44.8620 H   0  0  0  0  0  0  0  0  0  0  0  0
   55.3560   29.0060   44.4960 N   0  0  0  0  0  0  0  0  0  0  0  0
   56.3730   29.6950   44.9070 C   0  0  0  0  0  0  0  0  0  0  0  0
   56.3440   31.0530   44.8310 N   0  0  0  0  0  0  0  0  0  0  0  0
   57.3880   31.8120   45.2540 C   0  0  0  0  0  0  0  0  0  0  0  0
   57.3420   32.9088   45.1832 H   0  0  0  0  0  0  0  0  0  0  0  0
   58.5190   31.1870   45.7790 C   0  0  0  0  0  0  0  0  0  0  0  0
   59.8830   32.1340   46.3370 Cl  0  0  0  0  0  0  0  0  0  0  0  0
   58.5560   29.8330   45.8600 N   0  0  0  0  0  0  0  0  0  0  0  0
   57.5170   29.0610   45.4380 C   0  0  0  0  0  0  0  0  0  0  0  0
   57.6270   27.5640   45.5790 C   0  0  0  0  0  0  0  0  0  0  0  0
   57.4460   27.0937   44.6012 H   0  0  0  0  0  0  0  0  0  0  0  0
   58.6358   27.3129   45.9387 H   0  0  0  0  0  0  0  0  0  0  0  0
   56.6450   27.0690   46.5400 N   0  0  0  0  0  0  0  0  0  0  0  0
   55.8840   26.0340   46.3460 C   0  0  0  0  0  0  0  0  0  0  0  0
   54.7020   26.1290   45.6840 N   0  0  0  0  0  0  0  0  0  0  0  0
   54.2600   24.8630   45.7080 C   0  0  0  0  0  0  0  0  0  0  0  0
   53.0780   24.3620   45.1690 C   0  0  0  0  0  0  0  0  0  0  0  0
   52.3673   25.0192   44.6465 H   0  0  0  0  0  0  0  0  0  0  0  0
   52.8240   22.9850   45.3160 C   0  0  0  0  0  0  0  0  0  0  0  0
   51.9007   22.5522   44.9034 H   0  0  0  0  0  0  0  0  0  0  0  0
   53.7490   22.1550   45.9910 C   0  0  0  0  0  0  0  0  0  0  0  0
   53.4930   20.8310   46.1260 F   0  0  0  0  0  0  0  0  0  0  0  0
   54.9340   22.6980   46.5230 C   0  0  0  0  0  0  0  0  0  0  0  0
   55.6633   22.0653   47.0500 H   0  0  0  0  0  0  0  0  0  0  0  0
   55.1510   24.0640   46.3590 C   0  0  0  0  0  0  0  0  0  0  0  0
   56.2000   24.7840   46.7800 N   0  0  0  0  0  0  0  0  0  0  0  0
  1  2  1  0
  2  3  2  0
  3  4  1  0
  4  5  1  0
  5  6  1  0
  5  7  2  0
  7  8  1  0
  7  9  1  0
  9 10  2  0
 10 11  1  0
 11 12  1  0
 11 13  1  0
 11 14  1  0
 14 15  2  0
 15 16  1  0
 16 17  1  0
 17 18  2  0
 18 19  1  0
 18 20  1  0
 20 21  1  0
 20 22  2  0
 22 23  1  0
 22 24  1  0
 24 25  1  0
 24 26  2  0
 26 27  1  0
 10  3  1  0
 27 15  1  0
 26 17  1  0
M  CHG  3   4  -1  16  -1  27  -1
M  END
>  <UniqueID>  (45) 
40

>  <SMILES>  (45) 
[H]/N=c1\[n-]cc(Cl)nc1C/N=c1/[n-]c2ccc(F)cc2[n-]1

>  <Energy>  (45) 
66.33756566401291

>  <Genealogy>  (45) 
N=c1[n-]cc(Cl)nc1CN=c1[n-]c2ccc(F)cc2[n-]1 (protonated)
[H]/N=c1\[n-]cc(Cl)nc1C/N=c1/[n-]c2ccc(F)cc2[n-]1 (cis-trans isomerization)
[H]/N=c1\[n-]cc(Cl)nc1C/N=c1/[n-]c2ccc(F)cc2[n-]1 (3D coordinates assigned)
[H]/N=c1\[n-]cc(Cl)nc1C/N=c1/[n-]c2ccc(F)cc2[n-]1 (optimized conformer: 66.33756566401291 kcal/mol)

>  <smiles>  (45) 
N=c1[nH]cc(Cl)nc1CN=c1[nH]c2ccc(F)cc2[nH]1

>  <score_type>  (45) 
oracle

>  <origin>  (45) 
adg

>  <m_score__min__energy>  (45) 
-11.99

>  <m_primary>  (45) 
energy

$$$$
45:0
     RDKit          3D

 45 48  0  0  0  0  0  0  0  0999 V2000
   59.9390   24.8100   46.0260 O   0  0  0  0  0  0  0  0  0  0  0  0
   58.8740   25.3820   46.3760 C   0  0  0  0  0  0  0  0  0  0  0  0
   58.0160   24.7290   47.3190 N   0  0  0  0  0  0  0  0  0  0  0  0
   56.6870   24.2150   47.0150 C   0  0  0  0  0  0  0  0  0  0  0  0
   56.7430   23.4100   45.7500 C   0  0  0  0  0  0  0  0  0  0  0  0
   55.9860   23.7950   44.6310 C   0  0  0  0  0  0  0  0  0  0  0  0
   56.0130   23.0250   43.4630 C   0  0  0  0  0  0  0  0  0  0  0  0
   56.7840   21.8600   43.4100 C   0  0  0  0  0  0  0  0  0  0  0  0
   56.8070   21.1130   42.2790 F   0  0  0  0  0  0  0  0  0  0  0  0
   57.5260   21.4610   44.5260 C   0  0  0  0  0  0  0  0  0  0  0  0
   57.5020   22.2290   45.6940 C   0  0  0  0  0  0  0  0  0  0  0  0
   58.5310   26.6920   45.7820 C   0  0  0  0  0  0  0  0  0  0  0  0
   57.7790   26.7650   44.5920 C   0  0  0  0  0  0  0  0  0  0  0  0
   57.4480   27.9730   44.0540 N   0  0  0  0  0  0  0  0  0  0  0  0
   57.8400   29.1070   44.6820 C   0  0  0  0  0  0  0  0  0  0  0  0
   57.5300   30.6840   44.1850 S   0  0  0  0  0  0  0  0  0  0  0  0
   58.3640   31.2810   45.5440 C   0  0  0  0  0  0  0  0  0  0  0  0
   58.5480   32.6780   45.8490 N   0  0  0  0  0  0  0  0  0  0  0  0
   59.0740   33.0690   47.1670 C   0  0  0  0  0  0  0  0  0  0  0  0
   59.0120   34.5860   47.3730 C   0  0  0  0  0  0  0  0  0  0  0  0
   59.6540   35.3310   46.1950 C   0  0  0  0  0  0  0  0  0  0  0  0
   59.1900   34.8190   44.8120 C   0  0  0  0  0  0  0  0  0  0  0  0
   58.1320   33.7120   44.8910 C   0  0  0  0  0  0  0  0  0  0  0  0
   58.8440   30.2770   46.3190 N   0  0  0  0  0  0  0  0  0  0  0  0
   58.5460   29.0760   45.8320 N   0  0  0  0  0  0  0  0  0  0  0  0
   58.9040   27.8980   46.4100 C   0  0  0  0  0  0  0  0  0  0  0  0
   59.5660   27.8930   47.4840 O   0  0  0  0  0  0  0  0  0  0  0  0
   56.3422   23.5765   47.8417 H   0  0  0  0  0  0  0  0  0  0  0  0
   55.9882   25.0547   46.8863 H   0  0  0  0  0  0  0  0  0  0  0  0
   55.3697   24.7052   44.6732 H   0  0  0  0  0  0  0  0  0  0  0  0
   55.4271   23.3366   42.5857 H   0  0  0  0  0  0  0  0  0  0  0  0
   58.1291   20.5420   44.4849 H   0  0  0  0  0  0  0  0  0  0  0  0
   58.0799   21.9072   46.5729 H   0  0  0  0  0  0  0  0  0  0  0  0
   57.4565   25.8392   44.0932 H   0  0  0  0  0  0  0  0  0  0  0  0
   56.8920   28.0200   43.1720 H   0  0  0  0  0  0  0  0  0  0  0  0
   58.4767   32.5780   47.9494 H   0  0  0  0  0  0  0  0  0  0  0  0
   60.1275   32.7576   47.2226 H   0  0  0  0  0  0  0  0  0  0  0  0
   57.9596   34.8936   47.4618 H   0  0  0  0  0  0  0  0  0  0  0  0
   59.5672   34.8368   48.2889 H   0  0  0  0  0  0  0  0  0  0  0  0
   59.3958   36.3972   46.2756 H   0  0  0  0  0  0  0  0  0  0  0  0
   60.7385   35.1573   46.2560 H   0  0  0  0  0  0  0  0  0  0  0  0
   58.7664   35.6656   44.2519 H   0  0  0  0  0  0  0  0  0  0  0  0
   60.0716   34.3880   44.3150 H   0  0  0  0  0  0  0  0  0  0  0  0
   57.1757   34.1463   45.2180 H   0  0  0  0  0  0  0  0  0  0  0  0
   58.0172   33.2545   43.8973 H   0  0  0  0  0  0  0  0  0  0  0  0
  1  2  2  0
  2  3  1  0
  3  4  1  0
  4  5  1  0
  5  6  2  0
  6  7  1  0
  7  8  2  0
  8  9  1  0
  8 10  1  0
 10 11  2  0
  2 12  1  0
 12 13  2  0
 13 14  1  0
 14 15  2  0
 15 16  1  0
 16 17  1  0
 17 18  1  0
 18 19  1  0
 19 20  1  0
 20 21  1  0
 21 22  1  0
 22 23  1  0
 17 24  2  0
 24 25  1  0
 25 26  1  0
 26 27  2  0
 11  5  1  0
 26 12  1  0
 25 15  1  0
 23 18  1  0
  4 28  1  0
  4 29  1  0
  6 30  1  0
  7 31  1  0
 10 32  1  0
 11 33  1  0
 13 34  1  0
 14 35  1  0
 19 36  1  0
 19 37  1  0
 20 38  1  0
 20 39  1  0
 21 40  1  0
 21 41  1  0
 22 42  1  0
 22 43  1  0
 23 44  1  0
 23 45  1  0
M  CHG  2   3  -1  14   1
M  END
>  <UniqueID>  (46) 
41

>  <SMILES>  (46) 
O=C([N-]Cc1ccc(F)cc1)c1c[nH+]c2sc(N3CCCCC3)nn2c1=O

>  <Energy>  (46) 
91.01335293527671

>  <Genealogy>  (46) 
O=C([N-]Cc1ccc(F)cc1)c1c[nH+]c2sc(N3CCCCC3)nn2c1=O (protonated)
O=C([N-]Cc1ccc(F)cc1)c1c[nH+]c2sc(N3CCCCC3)nn2c1=O (3D coordinates assigned)
O=C([N-]Cc1ccc(F)cc1)c1c[nH+]c2sc(N3CCCCC3)nn2c1=O (nonaromatic ring conformer: 91.01335293527671 kcal/mol)

>  <smiles>  (46) 
O=C(NCc1ccc(F)cc1)c1cnc2sc(N3CCCCC3)nn2c1=O

>  <score_type>  (46) 
oracle

>  <origin>  (46) 
adg

>  <m_score__min__energy>  (46) 
-7.9100000000000001

>  <m_primary>  (46) 
energy

$$$$
46:0
     RDKit          3D

 45 48  0  0  0  0  0  0  0  0999 V2000
   58.0450   32.8220   46.3080 O   0  0  0  0  0  0  0  0  0  0  0  0
   58.2230   31.6390   45.9070 C   0  0  0  0  0  0  0  0  0  0  0  0
   57.4200   31.1620   44.7620 C   0  0  0  0  0  0  0  0  0  0  0  0
   57.6780   31.4110   43.4310 C   0  0  0  0  0  0  0  0  0  0  0  0
   56.6510   30.7740   42.7680 C   0  0  0  0  0  0  0  0  0  0  0  0
   55.8380   30.1880   43.6690 N   0  0  0  0  0  0  0  0  0  0  0  0
   56.3260   30.4410   44.8470 O   0  0  0  0  0  0  0  0  0  0  0  0
   59.1870   30.7960   46.5780 N   0  0  0  0  0  0  0  0  0  0  0  0
   59.4170   30.9350   48.0230 C   0  0  0  0  0  0  0  0  0  0  0  0
   59.9850   29.6540   48.6570 C   0  0  0  0  0  0  0  0  0  0  0  0
   59.7020   28.3840   47.8280 C   0  0  1  0  0  0  0  0  0  0  0  0
   60.3380   27.3180   48.5020 O   0  0  0  0  0  0  0  0  0  0  0  0
   58.1610   28.0990   47.7500 C   0  0  0  0  0  0  0  0  0  0  0  0
   57.6650   27.7750   46.3350 C   0  0  0  0  0  0  0  0  0  0  0  0
   58.6340   26.9280   45.6330 N   0  0  0  0  0  0  0  0  0  0  0  0
   58.2550   25.6310   45.1330 C   0  0  0  0  0  0  0  0  0  0  0  0
   58.8080   24.4660   45.6900 C   0  0  0  0  0  0  0  0  0  0  0  0
   58.4470   23.2190   45.1800 C   0  0  0  0  0  0  0  0  0  0  0  0
   57.5410   23.1380   44.1200 C   0  0  0  0  0  0  0  0  0  0  0  0
   57.0350   21.4390   43.4100 Br  0  0  0  0  0  0  0  0  0  0  0  0
   57.0150   24.3140   43.5820 C   0  0  0  0  0  0  0  0  0  0  0  0
   57.3790   25.5250   44.0900 N   0  0  0  0  0  0  0  0  0  0  0  0
   60.0250   27.3810   45.4820 C   0  0  0  0  0  0  0  0  0  0  0  0
   60.3650   28.5630   46.4260 C   0  0  1  0  0  0  0  0  0  0  0  0
   60.0850   29.9500   45.7730 C   0  0  0  0  0  0  0  0  0  0  0  0
   58.5106   31.9850   42.9982 H   0  0  0  0  0  0  0  0  0  0  0  0
   56.5164   30.7481   41.6766 H   0  0  0  0  0  0  0  0  0  0  0  0
   60.1297   31.7563   48.1890 H   0  0  0  0  0  0  0  0  0  0  0  0
   58.4456   31.1391   48.4970 H   0  0  0  0  0  0  0  0  0  0  0  0
   61.0743   29.7685   48.7590 H   0  0  0  0  0  0  0  0  0  0  0  0
   59.4882   29.5247   49.6299 H   0  0  0  0  0  0  0  0  0  0  0  0
   60.8130   27.6840   49.2920 H   0  0  0  0  0  0  0  0  0  0  0  0
   57.9325   27.2434   48.4025 H   0  0  0  0  0  0  0  0  0  0  0  0
   57.6474   29.0182   48.0682 H   0  0  0  0  0  0  0  0  0  0  0  0
   56.7027   27.2462   46.4009 H   0  0  0  0  0  0  0  0  0  0  0  0
   57.5435   28.7149   45.7765 H   0  0  0  0  0  0  0  0  0  0  0  0
   59.5219   24.5368   46.5239 H   0  0  0  0  0  0  0  0  0  0  0  0
   58.8746   22.3019   45.6114 H   0  0  0  0  0  0  0  0  0  0  0  0
   56.3037   24.2629   42.7445 H   0  0  0  0  0  0  0  0  0  0  0  0
   56.9570   26.3830   43.6710 H   0  0  0  0  0  0  0  0  0  0  0  0
   60.6973   26.5410   45.7108 H   0  0  0  0  0  0  0  0  0  0  0  0
   60.1548   27.7293   44.4467 H   0  0  0  0  0  0  0  0  0  0  0  0
   61.4515   28.5459   46.5973 H   0  0  0  0  0  0  0  0  0  0  0  0
   61.0422   30.4770   45.6460 H   0  0  0  0  0  0  0  0  0  0  0  0
   59.5863   29.7650   44.8102 H   0  0  0  0  0  0  0  0  0  0  0  0
  1  2  2  0
  2  3  1  0
  3  4  2  0
  4  5  1  0
  5  6  2  0
  6  7  1  0
  2  8  1  0
  8  9  1  0
  9 10  1  0
 10 11  1  0
 11 12  1  1
 11 13  1  0
 13 14  1  0
 14 15  1  0
 15 16  1  0
 16 17  2  0
 17 18  1  0
 18 19  2  0
 19 20  1  0
 19 21  1  0
 21 22  2  0
 15 23  1  0
 23 24  1  0
 24 25  1  0
  7  3  1  0
 25  8  1  0
 24 11  1  0
 22 16  1  0
  4 26  1  0
  5 27  1  0
  9 28  1  0
  9 29  1  0
 10 30  1  0
 10 31  1  0
 12 32  1  0
 13 33  1  0
 13 34  1  0
 14 35  1  0
 14 36  1  0
 17 37  1  0
 18 38  1  0
 21 39  1  0
 22 40  1  0
 23 41  1  0
 23 42  1  0
 24 43  1  1
 25 44  1  0
 25 45  1  0
M  CHG  1  22   1
M  END
>  <UniqueID>  (47) 
42

>  <SMILES>  (47) 
O=C(c1ccno1)N1CC[C@@]2(O)CCN(c3ccc(Br)c[nH+]3)C[C@H]2C1

>  <Energy>  (47) 
97.93155128401287

>  <Genealogy>  (47) 
O=C(c1ccno1)N1CCC2(O)CCN(c3ccc(Br)c[nH+]3)CC2C1 (protonated)
O=C(c1ccno1)N1CC[C@@]2(O)CCN(c3ccc(Br)c[nH+]3)C[C@H]2C1 (chirality)
O=C(c1ccno1)N1CC[C@@]2(O)CCN(c3ccc(Br)c[nH+]3)C[C@H]2C1 (3D coordinates assigned)
O=C(c1ccno1)N1CC[C@@]2(O)CCN(c3ccc(Br)c[nH+]3)C[C@H]2C1 (nonaromatic ring conformer: 97.93155128401287 kcal/mol)

>  <smiles>  (47) 
O=C(c1ccno1)N1CCC2(O)CCN(c3ccc(Br)cn3)CC2C1

>  <score_type>  (47) 
oracle

>  <origin>  (47) 
adg

>  <m_score__min__energy>  (47) 
-6.2599999999999998

>  <m_primary>  (47) 
energy

$$$$
47:0
     RDKit          3D

 27 27  0  0  0  0  0  0  0  0999 V2000
   56.7940   29.7910   43.2220 C   0  0  0  0  0  0  0  0  0  0  0  0
   56.7560   29.2750   44.6240 C   0  0  0  0  0  0  0  0  0  0  0  0
   56.6580   30.0860   45.5840 O   0  0  0  0  0  0  0  0  0  0  0  0
   56.8580   27.8660   44.8680 N   0  0  0  0  0  0  0  0  0  0  0  0
   56.9470   27.3100   46.2240 C   0  0  2  0  0  0  0  0  0  0  0  0
   58.3850   26.8550   46.5450 C   0  0  0  0  0  0  0  0  0  0  0  0
   59.3230   28.0060   46.8200 C   0  0  0  0  0  0  0  0  0  0  0  0
   59.5550   28.4340   48.1390 C   0  0  0  0  0  0  0  0  0  0  0  0
   60.4070   29.5140   48.3900 C   0  0  0  0  0  0  0  0  0  0  0  0
   61.0330   30.1750   47.3290 C   0  0  0  0  0  0  0  0  0  0  0  0
   60.8070   29.7560   46.0150 C   0  0  0  0  0  0  0  0  0  0  0  0
   59.9560   28.6760   45.7590 C   0  0  0  0  0  0  0  0  0  0  0  0
   55.9560   26.1920   46.4210 C   0  0  0  0  0  0  0  0  0  0  0  0
   56.2790   25.1410   47.0360 O   0  0  0  0  0  0  0  0  0  0  0  0
   54.6520   26.3410   45.9680 O   0  0  0  0  0  0  0  0  0  0  0  0
   56.8748   30.8879   43.2371 H   0  0  0  0  0  0  0  0  0  0  0  0
   57.6633   29.3665   42.6985 H   0  0  0  0  0  0  0  0  0  0  0  0
   55.8719   29.4984   42.6985 H   0  0  0  0  0  0  0  0  0  0  0  0
   56.9680   27.2340   44.0430 H   0  0  0  0  0  0  0  0  0  0  0  0
   56.6869   28.1091   46.9337 H   0  0  0  0  0  0  0  0  0  0  0  0
   58.3570   26.2064   47.4330 H   0  0  0  0  0  0  0  0  0  0  0  0
   58.7667   26.3251   45.6598 H   0  0  0  0  0  0  0  0  0  0  0  0
   59.0643   27.9172   48.9769 H   0  0  0  0  0  0  0  0  0  0  0  0
   60.5850   29.8441   49.4241 H   0  0  0  0  0  0  0  0  0  0  0  0
   61.7030   31.0243   47.5283 H   0  0  0  0  0  0  0  0  0  0  0  0
   61.2994   30.2767   45.1805 H   0  0  0  0  0  0  0  0  0  0  0  0
   59.7814   28.3497   44.7231 H   0  0  0  0  0  0  0  0  0  0  0  0
  1  2  1  0
  2  3  2  0
  2  4  1  0
  4  5  1  0
  5  6  1  0
  6  7  1  0
  7  8  2  0
  8  9  1  0
  9 10  2  0
 10 11  1  0
 11 12  2  0
  5 13  1  0
 13 14  2  0
 13 15  1  0
 12  7  1  0
  1 16  1  0
  1 17  1  0
  1 18  1  0
  4 19  1  0
  5 20  1  1
  6 21  1  0
  6 22  1  0
  8 23  1  0
  9 24  1  0
 10 25  1  0
 11 26  1  0
 12 27  1  0
M  CHG  1  15  -1
M  END
>  <UniqueID>  (48) 
43

>  <SMILES>  (48) 
CC(=O)N[C@H](Cc1ccccc1)C(=O)[O-]

>  <Energy>  (48) 
20.287236377928462

>  <Genealogy>  (48) 
CC(=O)NC(Cc1ccccc1)C(=O)[O-] (protonated)
CC(=O)N[C@H](Cc1ccccc1)C(=O)[O-] (chirality)
CC(=O)N[C@H](Cc1ccccc1)C(=O)[O-] (3D coordinates assigned)
CC(=O)N[C@H](Cc1ccccc1)C(=O)[O-] (optimized conformer: 20.287236377928462 kcal/mol)

>  <smiles>  (48) 
CC(=O)NC(Cc1ccccc1)C(=O)O

>  <score_type>  (48) 
oracle

>  <origin>  (48) 
adg

>  <m_score__min__energy>  (48) 
-8.6300000000000008

>  <m_primary>  (48) 
energy

$$$$
48:0
     RDKit          3D

 21 22  0  0  0  0  0  0  0  0999 V2000
   59.3040   25.4810   46.5590 O   0  0  0  0  0  0  0  0  0  0  0  0
   57.8240   25.4520   46.2980 S   0  0  0  0  0  0  0  0  0  0  0  0
   57.1200   25.1570   47.5920 O   0  0  0  0  0  0  0  0  0  0  0  0
   57.4300   24.2060   45.1200 C   0  0  0  0  0  0  0  0  0  0  0  0
   56.2930   24.3290   44.3090 C   0  0  0  0  0  0  0  0  0  0  0  0
   55.9760   23.3260   43.3870 C   0  0  0  0  0  0  0  0  0  0  0  0
   56.7910   22.1950   43.2750 C   0  0  0  0  0  0  0  0  0  0  0  0
   56.4820   21.2230   42.3810 F   0  0  0  0  0  0  0  0  0  0  0  0
   57.9220   22.0660   44.0860 C   0  0  0  0  0  0  0  0  0  0  0  0
   58.2410   23.0680   45.0090 C   0  0  0  0  0  0  0  0  0  0  0  0
   57.3070   27.0110   45.6840 C   0  0  0  0  0  0  0  0  0  0  0  0
   58.3320   28.2210   45.1220 S   0  0  0  0  0  0  0  0  0  0  0  0
   57.0530   29.2670   44.8030 C   0  0  0  0  0  0  0  0  0  0  0  0
   57.2260   30.7700   44.1900 S   0  0  0  0  0  0  0  0  0  0  0  0
   55.8550   28.7280   45.1180 N   0  0  0  0  0  0  0  0  0  0  0  0
   55.9980   27.4700   45.6100 C   0  0  0  0  0  0  0  0  0  0  0  0
   54.9050   26.7130   46.0110 O   0  0  0  0  0  0  0  0  0  0  0  0
   55.6488   25.2162   44.3979 H   0  0  0  0  0  0  0  0  0  0  0  0
   55.0852   23.4269   42.7496 H   0  0  0  0  0  0  0  0  0  0  0  0
   58.5621   21.1757   43.9985 H   0  0  0  0  0  0  0  0  0  0  0  0
   59.1297   22.9626   45.6486 H   0  0  0  0  0  0  0  0  0  0  0  0
  1  2  2  0
  2  3  2  0
  2  4  1  0
  4  5  2  0
  5  6  1  0
  6  7  2  0
  7  8  1  0
  7  9  1  0
  9 10  2  0
  2 11  1  0
 11 12  1  0
 12 13  1  0
 13 14  2  0
 13 15  1  0
 15 16  1  0
 16 17  1  0
 10  4  1  0
 16 11  2  0
  5 18  1  0
  6 19  1  0
  9 20  1  0
 10 21  1  0
M  CHG  2  15  -1  17  -1
M  END
>  <UniqueID>  (49) 
44

>  <SMILES>  (49) 
O=S(=O)(c1ccc(F)cc1)c1sc(=S)[n-]c1[O-]

>  <Energy>  (49) 
54.55159293644781

>  <Genealogy>  (49) 
O=S(=O)(c1ccc(F)cc1)c1sc(=S)[n-]c1[O-] (protonated)
O=S(=O)(c1ccc(F)cc1)c1sc(=S)[n-]c1[O-] (3D coordinates assigned)
O=S(=O)(c1ccc(F)cc1)c1sc(=S)[n-]c1[O-] (optimized conformer: 54.55159293644781 kcal/mol)

>  <smiles>  (49) 
O=S(=O)(c1ccc(F)cc1)c1sc(=S)[nH]c1O

>  <score_type>  (49) 
oracle

>  <origin>  (49) 
adg

>  <m_score__min__energy>  (49) 
-12.01

>  <m_primary>  (49) 
energy

$$$$
49:0
     RDKit          3D

 37 39  0  0  0  0  0  0  0  0999 V2000
   56.9555   22.2945   42.5611 H   0  0  0  0  0  0  0  0  0  0  0  0
   56.9820   22.8220   43.5260 C   0  0  0  0  0  0  0  0  0  0  0  0
   58.1280   22.7720   44.3140 C   0  0  0  0  0  0  0  0  0  0  0  0
   59.0100   22.2147   43.9656 H   0  0  0  0  0  0  0  0  0  0  0  0
   58.1600   23.4270   45.5440 C   0  0  0  0  0  0  0  0  0  0  0  0
   59.0718   23.3846   46.1579 H   0  0  0  0  0  0  0  0  0  0  0  0
   57.0410   24.1420   46.0110 C   0  0  0  0  0  0  0  0  0  0  0  0
   57.1190   24.7700   47.3870 C   0  0  0  0  0  0  0  0  0  0  0  0
   57.3969   23.9975   48.1191 H   0  0  0  0  0  0  0  0  0  0  0  0
   56.1359   25.1988   47.6313 H   0  0  0  0  0  0  0  0  0  0  0  0
   58.1150   25.8420   47.4220 N   0  0  0  0  0  0  0  0  0  0  0  0
   58.1850   26.8900   46.6450 C   0  0  0  0  0  0  0  0  0  0  0  0
   59.4550   27.3820   46.2770 C   0  0  0  0  0  0  0  0  0  0  0  0
   60.7150   26.7110   46.7590 C   0  0  0  0  0  0  0  0  0  0  0  0
   60.7288   26.7037   47.8589 H   0  0  0  0  0  0  0  0  0  0  0  0
   60.7459   25.6770   46.3850 H   0  0  0  0  0  0  0  0  0  0  0  0
   61.5902   27.2625   46.3850 H   0  0  0  0  0  0  0  0  0  0  0  0
   59.5390   28.4940   45.4300 C   0  0  0  0  0  0  0  0  0  0  0  0
   60.5241   28.8824   45.1320 H   0  0  0  0  0  0  0  0  0  0  0  0
   58.3770   29.1120   44.9620 C   0  0  0  0  0  0  0  0  0  0  0  0
   58.4430   30.2270   44.1120 C   0  0  0  0  0  0  0  0  0  0  0  0
   59.4206   30.6266   43.8045 H   0  0  0  0  0  0  0  0  0  0  0  0
   57.2670   30.8300   43.6560 C   0  0  0  0  0  0  0  0  0  0  0  0
   57.3210   31.7033   42.9894 H   0  0  0  0  0  0  0  0  0  0  0  0
   56.0230   30.3260   44.0450 C   0  0  0  0  0  0  0  0  0  0  0  0
   55.1003   30.8038   43.6839 H   0  0  0  0  0  0  0  0  0  0  0  0
   55.9480   29.2160   44.8920 C   0  0  0  0  0  0  0  0  0  0  0  0
   54.9662   28.8236   45.1954 H   0  0  0  0  0  0  0  0  0  0  0  0
   57.1220   28.6000   45.3570 C   0  0  0  0  0  0  0  0  0  0  0  0
   57.0560   27.5150   46.1820 N   0  0  0  0  0  0  0  0  0  0  0  0
   56.1120   27.1730   46.4610 H   0  0  0  0  0  0  0  0  0  0  0  0
   55.8790   24.2230   45.1900 C   0  0  0  0  0  0  0  0  0  0  0  0
   54.6730   25.0010   45.5710 C   0  0  0  0  0  0  0  0  0  0  0  0
   53.5320   24.4680   45.5020 O   0  0  0  0  0  0  0  0  0  0  0  0
   54.7670   26.3300   45.9610 O   0  0  0  0  0  0  0  0  0  0  0  0
   55.8670   23.5400   43.9580 C   0  0  0  0  0  0  0  0  0  0  0  0
   54.9659   23.5734   43.3280 H   0  0  0  0  0  0  0  0  0  0  0  0
  1  2  1  0
  2  3  2  0
  3  4  1  0
  3  5  1  0
  5  6  1  0
  5  7  2  0
  7  8  1  0
  8  9  1  0
  8 10  1  0
  8 11  1  0
 11 12  2  0
 12 13  1  0
 13 14  1  0
 14 15  1  0
 14 16  1  0
 14 17  1  0
 13 18  2  0
 18 19  1  0
 18 20  1  0
 20 21  2  0
 21 22  1  0
 21 23  1  0
 23 24  1  0
 23 25  2  0
 25 26  1  0
 25 27  1  0
 27 28  1  0
 27 29  2  0
 29 30  1  0
 30 31  1  0
  7 32  1  0
 32 33  1  0
 33 34  2  0
 33 35  1  0
 32 36  2  0
 36 37  1  0
 36  2  1  0
 30 12  1  0
 29 20  1  0
M  CHG  1  35  -1
M  END
>  <UniqueID>  (50) 
45

>  <SMILES>  (50) 
Cc1cc2ccccc2[nH]/c1=N\Cc1ccccc1C(=O)[O-]

>  <Energy>  (50) 
49.906752836287055

>  <Genealogy>  (50) 
Cc1cc2ccccc2[nH]c1=NCc1ccccc1C(=O)[O-] (protonated)
Cc1cc2ccccc2[nH]/c1=N\Cc1ccccc1C(=O)[O-] (cis-trans isomerization)
Cc1cc2ccccc2[nH]/c1=N\Cc1ccccc1C(=O)[O-] (3D coordinates assigned)
Cc1cc2ccccc2[nH]/c1=N\Cc1ccccc1C(=O)[O-] (optimized conformer: 49.906752836287055 kcal/mol)

>  <smiles>  (50) 
Cc1cc2ccccc2[nH]c1=NCc1ccccc1C(=O)O

>  <score_type>  (50) 
oracle

>  <origin>  (50) 
adg

>  <m_score__min__energy>  (50) 
-11.49

>  <m_primary>  (50) 
energy

$$$$
50:0
     RDKit          3D

 42 44  0  0  0  0  0  0  0  0999 V2000
   55.7150   28.9780   44.6820 O   0  0  0  0  0  0  0  0  0  0  0  0
   56.7820   29.6210   44.8730 C   0  0  0  0  0  0  0  0  0  0  0  0
   56.7540   31.0540   44.9270 N   0  0  0  0  0  0  0  0  0  0  0  0
   57.6220   31.8980   45.6950 C   0  0  0  0  0  0  0  0  0  0  0  0
   58.1530   31.4940   46.9320 C   0  0  0  0  0  0  0  0  0  0  0  0
   58.9750   32.3570   47.6630 C   0  0  0  0  0  0  0  0  0  0  0  0
   59.2650   33.6430   47.1770 C   0  0  0  0  0  0  0  0  0  0  0  0
   60.1480   34.5850   47.9650 C   0  0  0  0  0  0  0  0  0  0  0  0
   61.5290   34.0630   48.1110 N   0  0  0  0  0  0  0  0  0  0  0  0
   61.6620   33.1440   49.2770 C   0  0  0  0  0  0  0  0  0  0  0  0
   61.7030   31.6650   48.8480 C   0  0  0  0  0  0  0  0  0  0  0  0
   62.7810   31.3680   47.9720 O   0  0  0  0  0  0  0  0  0  0  0  0
   63.1120   32.4330   47.0900 C   0  0  0  0  0  0  0  0  0  0  0  0
   61.9590   33.4230   46.8440 C   0  0  0  0  0  0  0  0  0  0  0  0
   58.7180   34.0500   45.9500 C   0  0  0  0  0  0  0  0  0  0  0  0
   57.8960   33.1870   45.2220 C   0  0  0  0  0  0  0  0  0  0  0  0
   58.0420   28.8850   45.1410 C   0  0  0  0  0  0  0  0  0  0  0  0
   59.2680   29.5110   44.8490 C   0  0  0  0  0  0  0  0  0  0  0  0
   60.4780   28.8480   45.0690 C   0  0  0  0  0  0  0  0  0  0  0  0
   60.4820   27.5550   45.5890 C   0  0  0  0  0  0  0  0  0  0  0  0
   59.2770   26.9240   45.9000 C   0  0  0  0  0  0  0  0  0  0  0  0
   58.0560   27.5760   45.6860 C   0  0  0  0  0  0  0  0  0  0  0  0
   56.5910   26.7350   46.1860 Cl  0  0  0  0  0  0  0  0  0  0  0  0
   57.9207   30.4940   47.3270 H   0  0  0  0  0  0  0  0  0  0  0  0
   59.3970   32.0273   48.6239 H   0  0  0  0  0  0  0  0  0  0  0  0
   60.1878   35.5531   47.4443 H   0  0  0  0  0  0  0  0  0  0  0  0
   59.7174   34.6912   48.9716 H   0  0  0  0  0  0  0  0  0  0  0  0
   62.1720   34.8750   48.2720 H   0  0  0  0  0  0  0  0  0  0  0  0
   62.5921   33.3836   49.8131 H   0  0  0  0  0  0  0  0  0  0  0  0
   60.7819   33.2853   49.9215 H   0  0  0  0  0  0  0  0  0  0  0  0
   61.8024   31.0419   49.7490 H   0  0  0  0  0  0  0  0  0  0  0  0
   60.7707   31.4559   48.3030 H   0  0  0  0  0  0  0  0  0  0  0  0
   63.9587   32.9880   47.5202 H   0  0  0  0  0  0  0  0  0  0  0  0
   63.3539   31.9781   46.1181 H   0  0  0  0  0  0  0  0  0  0  0  0
   62.2965   34.2016   46.1441 H   0  0  0  0  0  0  0  0  0  0  0  0
   61.1061   32.8703   46.4233 H   0  0  0  0  0  0  0  0  0  0  0  0
   58.9381   35.0546   45.5596 H   0  0  0  0  0  0  0  0  0  0  0  0
   57.4603   33.5227   44.2694 H   0  0  0  0  0  0  0  0  0  0  0  0
   59.2738   30.5334   44.4431 H   0  0  0  0  0  0  0  0  0  0  0  0
   61.4289   29.3473   44.8314 H   0  0  0  0  0  0  0  0  0  0  0  0
   61.4354   27.0318   45.7543 H   0  0  0  0  0  0  0  0  0  0  0  0
   59.2860   25.9060   46.3167 H   0  0  0  0  0  0  0  0  0  0  0  0
  1  2  2  0
  2  3  1  0
  3  4  1  0
  4  5  2  0
  5  6  1  0
  6  7  2  0
  7  8  1  0
  8  9  1  0
  9 10  1  0
 10 11  1  0
 11 12  1  0
 12 13  1  0
 13 14  1  0
  7 15  1  0
 15 16  2  0
  2 17  1  0
 17 18  2  0
 18 19  1  0
 19 20  2  0
 20 21  1  0
 21 22  2  0
 22 23  1  0
 16  4  1  0
 22 17  1  0
 14  9  1  0
  5 24  1  0
  6 25  1  0
  8 26  1  0
  8 27  1  0
  9 28  1  0
 10 29  1  0
 10 30  1  0
 11 31  1  0
 11 32  1  0
 13 33  1  0
 13 34  1  0
 14 35  1  0
 14 36  1  0
 15 37  1  0
 16 38  1  0
 18 39  1  0
 19 40  1  0
 20 41  1  0
 21 42  1  0
M  CHG  2   3  -1   9   1
M  END
>  <UniqueID>  (51) 
46

>  <SMILES>  (51) 
O=C([N-]c1ccc(C[NH+]2CCOCC2)cc1)c1ccccc1Cl

>  <Energy>  (51) 
67.13730542488656

>  <Genealogy>  (51) 
O=C([N-]c1ccc(C[NH+]2CCOCC2)cc1)c1ccccc1Cl (protonated)
O=C([N-]c1ccc(C[NH+]2CCOCC2)cc1)c1ccccc1Cl (3D coordinates assigned)
O=C([N-]c1ccc(C[NH+]2CCOCC2)cc1)c1ccccc1Cl (nonaromatic ring conformer: 67.13730542488656 kcal/mol)

>  <smiles>  (51) 
O=C(Nc1ccc(CN2CCOCC2)cc1)c1ccccc1Cl

>  <score_type>  (51) 
oracle

>  <origin>  (51) 
adg

>  <m_score__min__energy>  (51) 
-8.1999999999999993

>  <m_primary>  (51) 
energy

$$$$
51:0
     RDKit          3D

 42 44  0  0  0  0  0  0  0  0999 V2000
   59.6400   35.6680   46.5460 C   0  0  0  0  0  0  0  0  0  0  0  0
   59.6130   34.7030   45.5000 O   0  0  0  0  0  0  0  0  0  0  0  0
   59.2770   33.3500   45.6720 C   0  0  0  0  0  0  0  0  0  0  0  0
   58.0740   32.8130   45.1870 C   0  0  0  0  0  0  0  0  0  0  0  0
   57.7760   31.4580   45.3690 C   0  0  0  0  0  0  0  0  0  0  0  0
   58.6820   30.6040   46.0390 C   0  0  0  0  0  0  0  0  0  0  0  0
   59.8690   31.1640   46.5500 C   0  0  0  0  0  0  0  0  0  0  0  0
   60.1700   32.5160   46.3550 C   0  0  0  0  0  0  0  0  0  0  0  0
   61.6750   33.1590   46.9960 Cl  0  0  0  0  0  0  0  0  0  0  0  0
   58.2670   29.1540   46.3280 C   0  0  2  0  0  0  0  0  0  0  0  0
   59.4560   28.1760   46.5640 C   0  0  0  0  0  0  0  0  0  0  0  0
   59.7370   27.9390   48.0270 C   0  0  0  0  0  0  0  0  0  0  0  0
   59.8050   26.7570   48.4600 O   0  0  0  0  0  0  0  0  0  0  0  0
   59.8810   29.0660   48.9700 C   0  0  0  0  0  0  0  0  0  0  0  0
   61.0300   29.4040   49.3660 O   0  0  0  0  0  0  0  0  0  0  0  0
   58.7170   29.7540   49.4580 N   0  0  0  0  0  0  0  0  0  0  0  0
   58.7610   31.0030   50.1700 C   0  0  0  0  0  0  0  0  0  0  0  0
   59.5890   32.0350   49.6980 C   0  0  0  0  0  0  0  0  0  0  0  0
   59.6670   33.2500   50.3860 C   0  0  0  0  0  0  0  0  0  0  0  0
   58.9300   33.4400   51.5570 C   0  0  0  0  0  0  0  0  0  0  0  0
   58.1210   32.4120   52.0480 C   0  0  0  0  0  0  0  0  0  0  0  0
   58.0400   31.1950   51.3630 C   0  0  0  0  0  0  0  0  0  0  0  0
   57.3790   28.5950   45.1920 C   0  0  0  0  0  0  0  0  0  0  0  0
   56.2780   29.5500   44.8490 C   0  0  0  0  0  0  0  0  0  0  0  0
   55.1540   29.1220   44.4760 O   0  0  0  0  0  0  0  0  0  0  0  0
   56.5350   30.9510   44.8710 N   0  0  0  0  0  0  0  0  0  0  0  0
   59.6256   35.1548   47.5188 H   0  0  0  0  0  0  0  0  0  0  0  0
   60.5554   36.2724   46.4638 H   0  0  0  0  0  0  0  0  0  0  0  0
   58.7598   36.3226   46.4638 H   0  0  0  0  0  0  0  0  0  0  0  0
   57.3599   33.4626   44.6597 H   0  0  0  0  0  0  0  0  0  0  0  0
   60.5700   30.5285   47.1110 H   0  0  0  0  0  0  0  0  0  0  0  0
   57.7048   29.2093   47.2718 H   0  0  0  0  0  0  0  0  0  0  0  0
   59.2170   27.2119   46.0914 H   0  0  0  0  0  0  0  0  0  0  0  0
   60.3541   28.6347   46.1245 H   0  0  0  0  0  0  0  0  0  0  0  0
   57.7920   29.2740   49.3760 H   0  0  0  0  0  0  0  0  0  0  0  0
   60.1795   31.8865   48.7819 H   0  0  0  0  0  0  0  0  0  0  0  0
   60.3096   34.0571   50.0044 H   0  0  0  0  0  0  0  0  0  0  0  0
   58.9864   34.3990   52.0928 H   0  0  0  0  0  0  0  0  0  0  0  0
   57.5469   32.5599   52.9746 H   0  0  0  0  0  0  0  0  0  0  0  0
   57.4100   30.3847   51.7586 H   0  0  0  0  0  0  0  0  0  0  0  0
   58.0002   28.4274   44.2998 H   0  0  0  0  0  0  0  0  0  0  0  0
   56.9291   27.6508   45.5327 H   0  0  0  0  0  0  0  0  0  0  0  0
  1  2  1  0
  2  3  1  0
  3  4  2  0
  4  5  1  0
  5  6  2  0
  6  7  1  0
  7  8  2  0
  8  9  1  0
  6 10  1  0
 10 11  1  0
 11 12  1  0
 12 13  2  0
 12 14  1  0
 14 15  2  0
 14 16  1  0
 16 17  1  0
 17 18  2  0
 18 19  1  0
 19 20  2  0
 20 21  1  0
 21 22  2  0
 10 23  1  0
 23 24  1  0
 24 25  2  0
 24 26  1  0
  8  3  1  0
 22 17  1  0
 26  5  1  0
  1 27  1  0
  1 28  1  0
  1 29  1  0
  4 30  1  0
  7 31  1  0
 10 32  1  1
 11 33  1  0
 11 34  1  0
 16 35  1  0
 18 36  1  0
 19 37  1  0
 20 38  1  0
 21 39  1  0
 22 40  1  0
 23 41  1  0
 23 42  1  0
M  CHG  1  26  -1
M  END
>  <UniqueID>  (52) 
47

>  <SMILES>  (52) 
COc1cc2c(cc1Cl)[C@H](CC(=O)C(=O)Nc1ccccc1)CC(=O)[N-]2

>  <Energy>  (52) 
51.40585763906911

>  <Genealogy>  (52) 
COc1cc2c(cc1Cl)C(CC(=O)C(=O)Nc1ccccc1)CC(=O)[N-]2 (protonated)
COc1cc2c(cc1Cl)[C@H](CC(=O)C(=O)Nc1ccccc1)CC(=O)[N-]2 (chirality)
COc1cc2c(cc1Cl)[C@H](CC(=O)C(=O)Nc1ccccc1)CC(=O)[N-]2 (3D coordinates assigned)
COc1cc2c(cc1Cl)[C@H](CC(=O)C(=O)Nc1ccccc1)CC(=O)[N-]2 (nonaromatic ring conformer: 51.40585763906911 kcal/mol)

>  <smiles>  (52) 
COc1cc2c(cc1Cl)C(CC(=O)C(=O)Nc1ccccc1)CC(=O)N2

>  <score_type>  (52) 
oracle

>  <origin>  (52) 
adg

>  <m_score__min__energy>  (52) 
-9.7300000000000004

>  <m_primary>  (52) 
energy

$$$$
52:0
     RDKit          3D

 47 49  0  0  0  0  0  0  0  0999 V2000
   55.6530   30.0850   44.4890 O   0  0  0  0  0  0  0  0  0  0  0  0
   56.7650   30.0060   43.8990 C   0  0  0  0  0  0  0  0  0  0  0  0
   57.0460   28.8330   43.0050 C   0  0  0  0  0  0  0  0  0  0  0  0
   57.7690   27.7130   43.7620 C   0  0  0  0  0  0  0  0  0  0  0  0
   58.8490   28.2560   44.6500 C   0  0  0  0  0  0  0  0  0  0  0  0
   59.0660   27.9020   45.9660 C   0  0  0  0  0  0  0  0  0  0  0  0
   60.1850   28.6060   46.3580 C   0  0  0  0  0  0  0  0  0  0  0  0
   60.5790   29.3430   45.2570 C   0  0  0  0  0  0  0  0  0  0  0  0
   59.7630   29.1110   44.2550 O   0  0  0  0  0  0  0  0  0  0  0  0
   57.7780   30.9980   44.1220 N   0  0  0  0  0  0  0  0  0  0  0  0
   57.6090   32.0850   45.0920 C   0  0  0  0  0  0  0  0  0  0  0  0
   58.0620   33.4210   44.4620 C   0  0  0  0  0  0  0  0  0  0  0  0
   58.6310   34.3690   45.5230 C   0  0  0  0  0  0  0  0  0  0  0  0
   59.8430   33.8050   46.1650 N   0  0  0  0  0  0  0  0  0  0  0  0
   60.1390   34.5190   47.4240 C   0  0  0  0  0  0  0  0  0  0  0  0
   61.4990   34.1290   47.9420 C   0  0  0  0  0  0  0  0  0  0  0  0
   62.5190   33.7400   47.0560 C   0  0  0  0  0  0  0  0  0  0  0  0
   63.7810   33.3880   47.5470 C   0  0  0  0  0  0  0  0  0  0  0  0
   64.0320   33.4210   48.9210 C   0  0  0  0  0  0  0  0  0  0  0  0
   63.0230   33.8060   49.8070 C   0  0  0  0  0  0  0  0  0  0  0  0
   61.7600   34.1590   49.3210 C   0  0  0  0  0  0  0  0  0  0  0  0
   59.8030   32.3270   46.3520 C   0  0  0  0  0  0  0  0  0  0  0  0
   58.3730   31.7710   46.4000 C   0  0  0  0  0  0  0  0  0  0  0  0
   56.0938   28.4444   42.6147 H   0  0  0  0  0  0  0  0  0  0  0  0
   57.6955   29.1712   42.1842 H   0  0  0  0  0  0  0  0  0  0  0  0
   57.0384   27.1698   44.3794 H   0  0  0  0  0  0  0  0  0  0  0  0
   58.2342   27.0430   43.0240 H   0  0  0  0  0  0  0  0  0  0  0  0
   58.4713   27.2048   46.5744 H   0  0  0  0  0  0  0  0  0  0  0  0
   60.6666   28.5853   47.3467 H   0  0  0  0  0  0  0  0  0  0  0  0
   61.4447   30.0209   45.2252 H   0  0  0  0  0  0  0  0  0  0  0  0
   58.6780   30.9120   43.5970 H   0  0  0  0  0  0  0  0  0  0  0  0
   56.5452   32.1786   45.3557 H   0  0  0  0  0  0  0  0  0  0  0  0
   58.8379   33.2179   43.7091 H   0  0  0  0  0  0  0  0  0  0  0  0
   57.1880   33.9015   43.9982 H   0  0  0  0  0  0  0  0  0  0  0  0
   58.8921   35.3246   45.0448 H   0  0  0  0  0  0  0  0  0  0  0  0
   57.8661   34.5148   46.3000 H   0  0  0  0  0  0  0  0  0  0  0  0
   60.1188   35.6032   47.2391 H   0  0  0  0  0  0  0  0  0  0  0  0
   59.3808   34.2491   48.1739 H   0  0  0  0  0  0  0  0  0  0  0  0
   62.3243   33.7123   45.9737 H   0  0  0  0  0  0  0  0  0  0  0  0
   64.5765   33.0849   46.8504 H   0  0  0  0  0  0  0  0  0  0  0  0
   65.0247   33.1437   49.3053 H   0  0  0  0  0  0  0  0  0  0  0  0
   63.2221   33.8316   50.8885 H   0  0  0  0  0  0  0  0  0  0  0  0
   60.9681   34.4613   50.0220 H   0  0  0  0  0  0  0  0  0  0  0  0
   60.3365   31.8525   45.5152 H   0  0  0  0  0  0  0  0  0  0  0  0
   60.2776   32.1029   47.3187 H   0  0  0  0  0  0  0  0  0  0  0  0
   58.4160   30.6805   46.5380 H   0  0  0  0  0  0  0  0  0  0  0  0
   57.8414   32.2461   47.2377 H   0  0  0  0  0  0  0  0  0  0  0  0
  1  2  2  0
  2  3  1  0
  3  4  1  0
  4  5  1  0
  5  6  2  0
  6  7  1  0
  7  8  2  0
  8  9  1  0
  2 10  1  0
 10 11  1  0
 11 12  1  0
 12 13  1  0
 13 14  1  0
 14 15  1  0
 15 16  1  0
 16 17  2  0
 17 18  1  0
 18 19  2  0
 19 20  1  0
 20 21  2  0
 14 22  1  0
 22 23  1  0
  9  5  1  0
 23 11  1  0
 21 16  1  0
  3 24  1  0
  3 25  1  0
  4 26  1  0
  4 27  1  0
  6 28  1  0
  7 29  1  0
  8 30  1  0
 10 31  1  0
 11 32  1  0
 12 33  1  0
 12 34  1  0
 13 35  1  0
 13 36  1  0
 15 37  1  0
 15 38  1  0
 17 39  1  0
 18 40  1  0
 19 41  1  0
 20 42  1  0
 21 43  1  0
 22 44  1  0
 22 45  1  0
 23 46  1  0
 23 47  1  0
M  END
>  <UniqueID>  (53) 
48

>  <SMILES>  (53) 
O=C(CCc1ccco1)NC1CCN(Cc2ccccc2)CC1

>  <Energy>  (53) 
74.43040469868015

>  <Genealogy>  (53) 
O=C(CCc1ccco1)NC1CCN(Cc2ccccc2)CC1 (3D coordinates assigned)
O=C(CCc1ccco1)NC1CCN(Cc2ccccc2)CC1 (nonaromatic ring conformer: 74.43040469868015 kcal/mol)

>  <smiles>  (53) 
O=C(CCc1ccco1)NC1CCN(Cc2ccccc2)CC1

>  <score_type>  (53) 
oracle

>  <origin>  (53) 
adg

>  <m_score__min__energy>  (53) 
-8.0999999999999996

>  <m_primary>  (53) 
energy

$$$$
53:0
     RDKit          3D

 24 25  0  0  0  0  0  0  0  0999 V2000
   55.8740   27.3170   45.6710 O   0  0  0  0  0  0  0  0  0  0  0  0
   56.3020   28.4060   45.2050 C   0  0  0  0  0  0  0  0  0  0  0  0
   57.6240   28.7010   45.2890 N   0  0  0  0  0  0  0  0  0  0  0  0
   58.1180   29.8660   44.7950 C   0  0  0  0  0  0  0  0  0  0  0  0
   59.3510   30.1060   44.8980 O   0  0  0  0  0  0  0  0  0  0  0  0
   57.2530   30.7860   44.1780 C   0  0  0  0  0  0  0  0  0  0  0  0
   57.7440   32.1100   43.6470 C   0  0  0  0  0  0  0  0  0  0  0  0
   58.1570   33.0100   44.7810 C   0  0  0  0  0  0  0  0  0  0  0  0
   59.0200   34.0940   44.5520 C   0  0  0  0  0  0  0  0  0  0  0  0
   59.4270   34.9070   45.6140 C   0  0  0  0  0  0  0  0  0  0  0  0
   58.9810   34.6410   46.9120 C   0  0  0  0  0  0  0  0  0  0  0  0
   58.1290   33.5580   47.1500 C   0  0  0  0  0  0  0  0  0  0  0  0
   57.7200   32.7420   46.0900 C   0  0  0  0  0  0  0  0  0  0  0  0
   55.8920   30.4630   44.1140 C   0  0  0  0  0  0  0  0  0  0  0  0
   55.4430   29.2850   44.6220 N   0  0  0  0  0  0  0  0  0  0  0  0
   58.6076   31.9382   42.9877 H   0  0  0  0  0  0  0  0  0  0  0  0
   56.9304   32.5933   43.0863 H   0  0  0  0  0  0  0  0  0  0  0  0
   59.3771   34.3042   43.5330 H   0  0  0  0  0  0  0  0  0  0  0  0
   60.0993   35.7575   45.4280 H   0  0  0  0  0  0  0  0  0  0  0  0
   59.3002   35.2835   47.7459 H   0  0  0  0  0  0  0  0  0  0  0  0
   57.7801   33.3476   48.1718 H   0  0  0  0  0  0  0  0  0  0  0  0
   57.0541   31.8876   46.2814 H   0  0  0  0  0  0  0  0  0  0  0  0
   55.1834   31.1654   43.6508 H   0  0  0  0  0  0  0  0  0  0  0  0
   54.4250   29.0580   44.5630 H   0  0  0  0  0  0  0  0  0  0  0  0
  1  2  2  0
  2  3  1  0
  3  4  1  0
  4  5  2  0
  4  6  1  0
  6  7  1  0
  7  8  1  0
  8  9  2  0
  9 10  1  0
 10 11  2  0
 11 12  1  0
 12 13  2  0
  6 14  2  0
 14 15  1  0
 15  2  1  0
 13  8  1  0
  7 16  1  0
  7 17  1  0
  9 18  1  0
 10 19  1  0
 11 20  1  0
 12 21  1  0
 13 22  1  0
 14 23  1  0
 15 24  1  0
M  CHG  1   3  -1
M  END
>  <UniqueID>  (54) 
49

>  <SMILES>  (54) 
O=c1[n-]c(=O)c(Cc2ccccc2)c[nH]1

>  <Energy>  (54) 
24.965914437467124

>  <Genealogy>  (54) 
O=c1[n-]c(=O)c(Cc2ccccc2)c[nH]1 (protonated)
O=c1[n-]c(=O)c(Cc2ccccc2)c[nH]1 (3D coordinates assigned)
O=c1[n-]c(=O)c(Cc2ccccc2)c[nH]1 (optimized conformer: 24.965914437467124 kcal/mol)

>  <smiles>  (54) 
O=c1[nH]cc(Cc2ccccc2)c(=O)[nH]1

>  <score_type>  (54) 
oracle

>  <origin>  (54) 
adg

>  <m_score__min__energy>  (54) 
-8.3699999999999992

>  <m_primary>  (54) 
energy

$$$$
54:0
     RDKit          3D

 48 51  0  0  0  0  0  0  0  0999 V2000
   57.0210   24.2080   43.5860 C   0  0  0  0  0  0  0  0  0  0  0  0
   57.5170   24.3590   44.9130 O   0  0  0  0  0  0  0  0  0  0  0  0
   57.9880   25.5660   45.4490 C   0  0  0  0  0  0  0  0  0  0  0  0
   58.0070   26.6970   44.6250 C   0  0  0  0  0  0  0  0  0  0  0  0
   58.4680   27.9230   45.1110 C   0  0  0  0  0  0  0  0  0  0  0  0
   58.9210   28.0410   46.4370 C   0  0  0  0  0  0  0  0  0  0  0  0
   59.4120   29.3430   46.9560 C   0  0  0  0  0  0  0  0  0  0  0  0
   60.3990   30.0640   46.2590 C   0  0  0  0  0  0  0  0  0  0  0  0
   60.8590   31.2910   46.7450 C   0  0  0  0  0  0  0  0  0  0  0  0
   60.3430   31.8170   47.9390 C   0  0  0  0  0  0  0  0  0  0  0  0
   60.8170   33.1500   48.4570 C   0  0  0  0  0  0  0  0  0  0  0  0
   60.9420   34.0760   47.3950 O   0  0  0  0  0  0  0  0  0  0  0  0
   59.8390   34.9680   47.3500 C   0  0  1  0  0  0  0  0  0  0  0  0
   59.8730   35.7160   45.9960 C   0  0  0  0  0  0  0  0  0  0  0  0
   59.6460   34.8230   44.9010 O   0  0  0  0  0  0  0  0  0  0  0  0
   58.7600   33.7610   45.0550 C   0  0  0  0  0  0  0  0  0  0  0  0
   58.3330   32.9570   44.0660 N   0  0  0  0  0  0  0  0  0  0  0  0
   57.5000   32.0940   44.6870 C   0  0  0  0  0  0  0  0  0  0  0  0
   56.7880   31.0470   44.0210 N   0  0  0  0  0  0  0  0  0  0  0  0
   56.9080   30.8860   42.7890 O   0  0  0  0  0  0  0  0  0  0  0  0
   55.9640   30.2100   44.7350 O   0  0  0  0  0  0  0  0  0  0  0  0
   57.4390   32.3860   46.0410 C   0  0  0  0  0  0  0  0  0  0  0  0
   58.2550   33.4340   46.2530 N   0  0  0  0  0  0  0  0  0  0  0  0
   58.5190   34.1710   47.4850 C   0  0  0  0  0  0  0  0  0  0  0  0
   59.3580   31.1050   48.6350 C   0  0  0  0  0  0  0  0  0  0  0  0
   58.8970   29.8790   48.1500 C   0  0  0  0  0  0  0  0  0  0  0  0
   58.9020   26.9040   47.2640 C   0  0  0  0  0  0  0  0  0  0  0  0
   58.4390   25.6780   46.7770 C   0  0  0  0  0  0  0  0  0  0  0  0
   55.9692   23.8878   43.6219 H   0  0  0  0  0  0  0  0  0  0  0  0
   57.0938   25.1690   43.0558 H   0  0  0  0  0  0  0  0  0  0  0  0
   57.6170   23.4506   43.0558 H   0  0  0  0  0  0  0  0  0  0  0  0
   57.6558   26.6200   43.5854 H   0  0  0  0  0  0  0  0  0  0  0  0
   58.4767   28.8030   44.4511 H   0  0  0  0  0  0  0  0  0  0  0  0
   60.8121   29.6585   45.3236 H   0  0  0  0  0  0  0  0  0  0  0  0
   61.6287   31.8466   46.1892 H   0  0  0  0  0  0  0  0  0  0  0  0
   60.0906   33.5336   49.1886 H   0  0  0  0  0  0  0  0  0  0  0  0
   61.7999   33.0186   48.9331 H   0  0  0  0  0  0  0  0  0  0  0  0
   59.8977   35.6903   48.1776 H   0  0  0  0  0  0  0  0  0  0  0  0
   59.0913   36.4899   45.9948 H   0  0  0  0  0  0  0  0  0  0  0  0
   60.8688   36.1673   45.8744 H   0  0  0  0  0  0  0  0  0  0  0  0
   58.5840   32.9990   43.0530 H   0  0  0  0  0  0  0  0  0  0  0  0
   56.8378   31.8607   46.7977 H   0  0  0  0  0  0  0  0  0  0  0  0
   57.6902   34.8681   47.6776 H   0  0  0  0  0  0  0  0  0  0  0  0
   58.6090   33.4603   48.3198 H   0  0  0  0  0  0  0  0  0  0  0  0
   58.9451   31.5137   49.5690 H   0  0  0  0  0  0  0  0  0  0  0  0
   58.1246   29.3280   48.7066 H   0  0  0  0  0  0  0  0  0  0  0  0
   59.2545   26.9798   48.3032 H   0  0  0  0  0  0  0  0  0  0  0  0
   58.4273   24.7968   47.4352 H   0  0  0  0  0  0  0  0  0  0  0  0
  1  2  1  0
  2  3  1  0
  3  4  2  0
  4  5  1  0
  5  6  2  0
  6  7  1  0
  7  8  2  0
  8  9  1  0
  9 10  2  0
 10 11  1  0
 11 12  1  0
 12 13  1  0
 13 14  1  0
 14 15  1  0
 15 16  1  0
 16 17  2  0
 17 18  1  0
 18 19  1  0
 19 20  2  0
 19 21  1  0
 18 22  2  0
 22 23  1  0
 23 24  1  0
 10 25  1  0
 25 26  2  0
  6 27  1  0
 27 28  2  0
 28  3  1  0
 26  7  1  0
 24 13  1  0
 23 16  1  0
  1 29  1  0
  1 30  1  0
  1 31  1  0
  4 32  1  0
  5 33  1  0
  8 34  1  0
  9 35  1  0
 11 36  1  0
 11 37  1  0
 13 38  1  1
 14 39  1  0
 14 40  1  0
 17 41  1  0
 22 42  1  0
 24 43  1  0
 24 44  1  0
 25 45  1  0
 26 46  1  0
 27 47  1  0
 28 48  1  0
M  CHG  3  17   1  19   1  21  -1
M  END
>  <UniqueID>  (55) 
50

>  <SMILES>  (55) 
COc1ccc(-c2ccc(CO[C@H]3COc4[nH+]c([N+](=O)[O-])cn4C3)cc2)cc1

>  <Energy>  (55) 
91.53433922800464

>  <Genealogy>  (55) 
COc1ccc(-c2ccc(COC3COc4[nH+]c([N+](=O)[O-])cn4C3)cc2)cc1 (protonated)
COc1ccc(-c2ccc(CO[C@H]3COc4[nH+]c([N+](=O)[O-])cn4C3)cc2)cc1 (chirality)
COc1ccc(-c2ccc(CO[C@H]3COc4[nH+]c([N+](=O)[O-])cn4C3)cc2)cc1 (3D coordinates assigned)
COc1ccc(-c2ccc(CO[C@H]3COc4[nH+]c([N+](=O)[O-])cn4C3)cc2)cc1 (nonaromatic ring conformer: 91.53433922800464 kcal/mol)

>  <smiles>  (55) 
COc1ccc(-c2ccc(COC3COc4nc([N+](=O)[O-])cn4C3)cc2)cc1

>  <score_type>  (55) 
oracle

>  <origin>  (55) 
adg

>  <m_score__min__energy>  (55) 
-6.5999999999999996

>  <m_primary>  (55) 
energy

$$$$
55:0
     RDKit          3D

 38 40  0  0  0  0  0  0  0  0999 V2000
   53.9720   23.7070   44.3040 C   0  0  0  0  0  0  0  0  0  0  0  0
   54.8620   24.4620   45.2290 C   0  0  0  0  0  0  0  0  0  0  0  0
   54.6340   25.7380   45.6160 N   0  0  0  0  0  0  0  0  0  0  0  0
   55.5170   26.1870   46.5060 N   0  0  0  0  0  0  0  0  0  0  0  0
   56.4520   25.2700   46.8380 C   0  0  0  0  0  0  0  0  0  0  0  0
   57.3710   25.5120   47.7280 N   0  0  0  0  0  0  0  0  0  0  0  0
   58.5100   26.3740   47.5720 C   0  0  0  0  0  0  0  0  0  0  0  0
   59.3620   26.4340   48.4980 O   0  0  0  0  0  0  0  0  0  0  0  0
   58.6930   27.2210   46.3790 C   0  0  0  0  0  0  0  0  0  0  0  0
   57.6190   28.0030   45.9300 C   0  0  0  0  0  0  0  0  0  0  0  0
   57.7980   28.9250   44.8910 C   0  0  0  0  0  0  0  0  0  0  0  0
   56.4920   30.0300   44.4500 S   0  0  0  0  0  0  0  0  0  0  0  0
   55.2290   29.6010   45.1470 O   0  0  0  0  0  0  0  0  0  0  0  0
   56.2560   29.9470   42.9680 O   0  0  0  0  0  0  0  0  0  0  0  0
   56.8460   31.6880   44.8770 N   0  0  0  0  0  0  0  0  0  0  0  0
   57.7730   31.7800   46.0040 C   0  0  0  0  0  0  0  0  0  0  0  0
   58.4990   33.1100   45.8640 C   0  0  0  0  0  0  0  0  0  0  0  0
   58.2890   33.5370   44.4190 C   0  0  0  0  0  0  0  0  0  0  0  0
   57.4860   32.4140   43.7820 C   0  0  0  0  0  0  0  0  0  0  0  0
   59.0360   29.0000   44.2400 C   0  0  0  0  0  0  0  0  0  0  0  0
   60.0980   28.1950   44.6530 C   0  0  0  0  0  0  0  0  0  0  0  0
   59.9400   27.3150   45.7290 C   0  0  0  0  0  0  0  0  0  0  0  0
   61.3160   26.3360   46.2260 Cl  0  0  0  0  0  0  0  0  0  0  0  0
   56.1910   23.8090   46.0260 S   0  0  0  0  0  0  0  0  0  0  0  0
   53.2616   23.1044   44.8890 H   0  0  0  0  0  0  0  0  0  0  0  0
   53.4175   24.4144   43.6699 H   0  0  0  0  0  0  0  0  0  0  0  0
   54.5795   23.0446   43.6699 H   0  0  0  0  0  0  0  0  0  0  0  0
   56.6293   27.8915   46.3970 H   0  0  0  0  0  0  0  0  0  0  0  0
   57.2194   31.7482   46.9540 H   0  0  0  0  0  0  0  0  0  0  0  0
   58.4825   30.9394   46.0030 H   0  0  0  0  0  0  0  0  0  0  0  0
   58.0720   33.8553   46.5511 H   0  0  0  0  0  0  0  0  0  0  0  0
   59.5669   33.0203   46.1122 H   0  0  0  0  0  0  0  0  0  0  0  0
   57.7305   34.4836   44.3741 H   0  0  0  0  0  0  0  0  0  0  0  0
   59.2431   33.7057   43.8982 H   0  0  0  0  0  0  0  0  0  0  0  0
   56.7247   32.8282   43.1046 H   0  0  0  0  0  0  0  0  0  0  0  0
   58.1322   31.7501   43.1889 H   0  0  0  0  0  0  0  0  0  0  0  0
   59.1715   29.6966   43.3995 H   0  0  0  0  0  0  0  0  0  0  0  0
   61.0641   28.2525   44.1301 H   0  0  0  0  0  0  0  0  0  0  0  0
  1  2  1  0
  2  3  2  0
  3  4  1  0
  4  5  1  0
  5  6  2  3
  6  7  1  0
  7  8  2  0
  7  9  1  0
  9 10  2  0
 10 11  1  0
 11 12  1  0
 12 13  2  0
 12 14  2  0
 12 15  1  0
 15 16  1  0
 16 17  1  0
 17 18  1  0
 18 19  1  0
 11 20  2  0
 20 21  1  0
 21 22  2  0
 22 23  1  0
  5 24  1  0
 24  2  1  0
 22  9  1  0
 19 15  1  0
  1 25  1  0
  1 26  1  0
  1 27  1  0
 10 28  1  0
 16 29  1  0
 16 30  1  0
 17 31  1  0
 17 32  1  0
 18 33  1  0
 18 34  1  0
 19 35  1  0
 19 36  1  0
 20 37  1  0
 21 38  1  0
M  CHG  1   4  -1
M  END
>  <UniqueID>  (56) 
51

>  <SMILES>  (56) 
Cc1n[n-]c(=NC(=O)c2cc(S(=O)(=O)N3CCCC3)ccc2Cl)s1

>  <Energy>  (56) 
82.64849263138933

>  <Genealogy>  (56) 
Cc1n[n-]c(=NC(=O)c2cc(S(=O)(=O)N3CCCC3)ccc2Cl)s1 (protonated)
Cc1n[n-]c(=NC(=O)c2cc(S(=O)(=O)N3CCCC3)ccc2Cl)s1 (3D coordinates assigned)
Cc1n[n-]c(=NC(=O)c2cc(S(=O)(=O)N3CCCC3)ccc2Cl)s1 (nonaromatic ring conformer: 82.64849263138933 kcal/mol)

>  <smiles>  (56) 
Cc1n[nH]c(=NC(=O)c2cc(S(=O)(=O)N3CCCC3)ccc2Cl)s1

>  <score_type>  (56) 
oracle

>  <origin>  (56) 
adg

>  <m_score__min__energy>  (56) 
-11.24

>  <m_primary>  (56) 
energy

$$$$
56:0
     RDKit          3D

 29 30  0  0  0  0  0  0  0  0999 V2000
   57.6010   28.3920   43.6860 N   0  0  0  0  0  0  0  0  0  0  0  0
   56.5710   29.7560   43.9410 S   0  0  0  0  0  0  0  0  0  0  0  0
   55.4650   29.3770   44.8870 O   0  0  0  0  0  0  0  0  0  0  0  0
   55.9630   30.1850   42.6350 O   0  0  0  0  0  0  0  0  0  0  0  0
   57.5120   31.0820   44.6160 C   0  0  0  0  0  0  0  0  0  0  0  0
   58.3310   30.8620   45.7320 C   0  0  0  0  0  0  0  0  0  0  0  0
   59.0690   31.9140   46.2810 C   0  0  0  0  0  0  0  0  0  0  0  0
   58.9900   33.1970   45.7240 C   0  0  0  0  0  0  0  0  0  0  0  0
   59.9110   34.5190   46.4360 S   0  0  0  0  0  0  0  0  0  0  0  0
   59.5300   34.7140   47.8770 O   0  0  0  0  0  0  0  0  0  0  0  0
   59.6190   35.7820   45.6770 O   0  0  0  0  0  0  0  0  0  0  0  0
   61.6090   34.1740   46.3430 N   0  0  0  0  0  0  0  0  0  0  0  0
   62.2500   33.4680   47.2230 C   0  0  0  0  0  0  0  0  0  0  0  0
   61.7600   32.2730   47.6550 N   0  0  0  0  0  0  0  0  0  0  0  0
   62.4320   31.5300   48.5710 C   0  0  0  0  0  0  0  0  0  0  0  0
   63.6440   31.9900   49.0840 C   0  0  0  0  0  0  0  0  0  0  0  0
   64.1340   33.2140   48.6320 C   0  0  0  0  0  0  0  0  0  0  0  0
   63.4310   33.9280   47.7150 N   0  0  0  0  0  0  0  0  0  0  0  0
   58.1720   33.4180   44.6090 C   0  0  0  0  0  0  0  0  0  0  0  0
   57.4320   32.3660   44.0590 C   0  0  0  0  0  0  0  0  0  0  0  0
   57.0040   27.6270   43.3000 H   0  0  0  0  0  0  0  0  0  0  0  0
   58.2760   28.6570   42.9330 H   0  0  0  0  0  0  0  0  0  0  0  0
   58.3930   29.8580   46.1771 H   0  0  0  0  0  0  0  0  0  0  0  0
   59.7142   31.7341   47.1535 H   0  0  0  0  0  0  0  0  0  0  0  0
   62.0211   30.5668   48.9079 H   0  0  0  0  0  0  0  0  0  0  0  0
   64.2004   31.4009   49.8279 H   0  0  0  0  0  0  0  0  0  0  0  0
   65.0887   33.6012   49.0174 H   0  0  0  0  0  0  0  0  0  0  0  0
   58.1112   34.4222   44.1642 H   0  0  0  0  0  0  0  0  0  0  0  0
   56.7858   32.5467   43.1874 H   0  0  0  0  0  0  0  0  0  0  0  0
  1  2  1  0
  2  3  2  0
  2  4  2  0
  2  5  1  0
  5  6  2  0
  6  7  1  0
  7  8  2  0
  8  9  1  0
  9 10  2  0
  9 11  2  0
  9 12  1  0
 12 13  2  3
 13 14  1  0
 14 15  2  0
 15 16  1  0
 16 17  2  0
 17 18  1  0
  8 19  1  0
 19 20  2  0
 20  5  1  0
 18 13  1  0
  1 21  1  0
  1 22  1  0
  6 23  1  0
  7 24  1  0
 15 25  1  0
 16 26  1  0
 17 27  1  0
 19 28  1  0
 20 29  1  0
M  CHG  1  18  -1
M  END
>  <UniqueID>  (57) 
52

>  <SMILES>  (57) 
NS(=O)(=O)c1ccc(S(=O)(=O)N=c2nccc[n-]2)cc1

>  <Energy>  (57) 
32.312843935129926

>  <Genealogy>  (57) 
NS(=O)(=O)c1ccc(S(=O)(=O)N=c2nccc[n-]2)cc1 (protonated)
NS(=O)(=O)c1ccc(S(=O)(=O)N=c2nccc[n-]2)cc1 (3D coordinates assigned)
NS(=O)(=O)c1ccc(S(=O)(=O)N=c2nccc[n-]2)cc1 (optimized conformer: 32.312843935129926 kcal/mol)

>  <smiles>  (57) 
NS(=O)(=O)c1ccc(S(=O)(=O)N=c2nccc[nH]2)cc1

>  <score_type>  (57) 
oracle

>  <origin>  (57) 
adg

>  <m_score__min__energy>  (57) 
-9.0399999999999991

>  <m_primary>  (57) 
energy

$$$$
57:0
     RDKit          3D

 42 44  0  0  0  0  0  0  0  0999 V2000
   62.4710   32.3580   47.4960 C   0  0  0  0  0  0  0  0  0  0  0  0
   61.2480   32.1220   46.8100 O   0  0  0  0  0  0  0  0  0  0  0  0
   60.2530   33.0950   46.6400 C   0  0  0  0  0  0  0  0  0  0  0  0
   60.4130   34.4530   46.9740 C   0  0  0  0  0  0  0  0  0  0  0  0
   59.2750   35.2160   46.7550 C   0  0  0  0  0  0  0  0  0  0  0  0
   58.0740   34.2100   46.1480 S   0  0  0  0  0  0  0  0  0  0  0  0
   58.9850   32.7950   46.1420 C   0  0  0  0  0  0  0  0  0  0  0  0
   58.4770   31.4790   45.7140 C   0  0  0  0  0  0  0  0  0  0  0  0
   57.3240   31.4030   45.2090 O   0  0  0  0  0  0  0  0  0  0  0  0
   59.2970   30.3030   45.8090 N   0  0  0  0  0  0  0  0  0  0  0  0
   58.7700   28.9640   45.8470 C   0  0  0  0  0  0  0  0  0  0  0  0
   58.2750   28.3370   44.6900 C   0  0  0  0  0  0  0  0  0  0  0  0
   57.7460   27.0450   44.7580 C   0  0  0  0  0  0  0  0  0  0  0  0
   57.6990   26.3650   45.9800 C   0  0  0  0  0  0  0  0  0  0  0  0
   57.0070   24.7480   46.0630 S   0  0  0  0  0  0  0  0  0  0  0  0
   55.5270   24.8410   46.3150 O   0  0  0  0  0  0  0  0  0  0  0  0
   57.6400   23.9990   47.2020 O   0  0  0  0  0  0  0  0  0  0  0  0
   57.3240   23.9080   44.5660 N   0  0  0  0  0  0  0  0  0  0  0  0
   56.1050   23.7560   43.7740 C   0  0  0  0  0  0  0  0  0  0  0  0
   56.2990   22.5150   42.9160 C   0  0  0  0  0  0  0  0  0  0  0  0
   57.4050   21.7230   43.5960 C   0  0  0  0  0  0  0  0  0  0  0  0
   57.8030   22.5480   44.8110 C   0  0  0  0  0  0  0  0  0  0  0  0
   58.1670   26.9960   47.1420 C   0  0  0  0  0  0  0  0  0  0  0  0
   58.6950   28.2880   47.0740 C   0  0  0  0  0  0  0  0  0  0  0  0
   62.2951   32.3241   48.5813 H   0  0  0  0  0  0  0  0  0  0  0  0
   63.2022   31.5844   47.2187 H   0  0  0  0  0  0  0  0  0  0  0  0
   62.8618   33.3481   47.2187 H   0  0  0  0  0  0  0  0  0  0  0  0
   61.3506   34.8695   47.3707 H   0  0  0  0  0  0  0  0  0  0  0  0
   59.1761   36.2948   46.9461 H   0  0  0  0  0  0  0  0  0  0  0  0
   60.3310   30.4200   45.7290 H   0  0  0  0  0  0  0  0  0  0  0  0
   58.3042   28.8661   43.7260 H   0  0  0  0  0  0  0  0  0  0  0  0
   57.3650   26.5607   43.8468 H   0  0  0  0  0  0  0  0  0  0  0  0
   55.2355   23.6284   44.4356 H   0  0  0  0  0  0  0  0  0  0  0  0
   55.9214   24.6446   43.1522 H   0  0  0  0  0  0  0  0  0  0  0  0
   55.3713   21.9252   42.8770 H   0  0  0  0  0  0  0  0  0  0  0  0
   56.5581   22.7715   41.8782 H   0  0  0  0  0  0  0  0  0  0  0  0
   57.0358   20.7343   43.9061 H   0  0  0  0  0  0  0  0  0  0  0  0
   58.2571   21.5484   42.9226 H   0  0  0  0  0  0  0  0  0  0  0  0
   57.3350   22.1382   45.7182 H   0  0  0  0  0  0  0  0  0  0  0  0
   58.8924   22.5318   44.9627 H   0  0  0  0  0  0  0  0  0  0  0  0
   58.1183   26.4729   48.1084 H   0  0  0  0  0  0  0  0  0  0  0  0
   59.0548   28.7791   47.9902 H   0  0  0  0  0  0  0  0  0  0  0  0
  1  2  1  0
  2  3  1  0
  3  4  1  0
  4  5  2  0
  5  6  1  0
  6  7  1  0
  7  8  1  0
  8  9  2  0
  8 10  1  0
 10 11  1  0
 11 12  2  0
 12 13  1  0
 13 14  2  0
 14 15  1  0
 15 16  2  0
 15 17  2  0
 15 18  1  0
 18 19  1  0
 19 20  1  0
 20 21  1  0
 21 22  1  0
 14 23  1  0
 23 24  2  0
  7  3  2  0
 24 11  1  0
 22 18  1  0
  1 25  1  0
  1 26  1  0
  1 27  1  0
  4 28  1  0
  5 29  1  0
 10 30  1  0
 12 31  1  0
 13 32  1  0
 19 33  1  0
 19 34  1  0
 20 35  1  0
 20 36  1  0
 21 37  1  0
 21 38  1  0
 22 39  1  0
 22 40  1  0
 23 41  1  0
 24 42  1  0
M  END
>  <UniqueID>  (58) 
53

>  <SMILES>  (58) 
COc1ccsc1C(=O)Nc1ccc(S(=O)(=O)N2CCCC2)cc1

>  <Energy>  (58) 
72.51095451622767

>  <Genealogy>  (58) 
COc1ccsc1C(=O)Nc1ccc(S(=O)(=O)N2CCCC2)cc1 (3D coordinates assigned)
COc1ccsc1C(=O)Nc1ccc(S(=O)(=O)N2CCCC2)cc1 (nonaromatic ring conformer: 72.51095451622767 kcal/mol)

>  <smiles>  (58) 
COc1ccsc1C(=O)Nc1ccc(S(=O)(=O)N2CCCC2)cc1

>  <score_type>  (58) 
oracle

>  <origin>  (58) 
adg

>  <m_score__min__energy>  (58) 
-7.6500000000000004

>  <m_primary>  (58) 
energy

$$$$
58:0
     RDKit          3D

 36 37  0  0  0  0  0  0  0  0999 V2000
   54.5380   23.4880   44.3640 C   0  0  0  0  0  0  0  0  0  0  0  0
   54.2300   23.3300   45.8300 C   0  0  0  0  0  0  0  0  0  0  0  0
   55.3560   23.6370   46.7520 C   0  0  0  0  0  0  0  0  0  0  0  0
   56.4490   24.3780   46.1800 N   0  0  0  0  0  0  0  0  0  0  0  0
   56.2500   25.7180   46.0150 C   0  0  0  0  0  0  0  0  0  0  0  0
   57.8860   22.2550   45.9950 S   0  0  0  0  0  0  0  0  0  0  0  0
   58.6190   24.5710   45.2470 N   0  0  0  0  0  0  0  0  0  0  0  0
   58.4120   25.8870   45.0890 C   0  0  0  0  0  0  0  0  0  0  0  0
   57.2360   26.5040   45.4630 C   0  0  0  0  0  0  0  0  0  0  0  0
   57.1250   27.9270   45.2470 C   0  0  0  0  0  0  0  0  0  0  0  0
   55.9670   28.4500   45.2570 O   0  0  0  0  0  0  0  0  0  0  0  0
   58.2650   28.7530   45.0270 N   0  0  0  0  0  0  0  0  0  0  0  0
   58.0350   30.1430   44.8260 C   0  0  0  0  0  0  0  0  0  0  0  0
   57.6780   30.6850   43.6110 C   0  0  0  0  0  0  0  0  0  0  0  0
   57.4630   32.0380   43.4480 C   0  0  0  0  0  0  0  0  0  0  0  0
   57.6170   32.8500   44.5520 C   0  0  0  0  0  0  0  0  0  0  0  0
   57.9770   32.3240   45.7910 C   0  0  0  0  0  0  0  0  0  0  0  0
   58.1710   33.3540   47.1840 Cl  0  0  0  0  0  0  0  0  0  0  0  0
   58.1870   30.9700   45.9290 C   0  0  0  0  0  0  0  0  0  0  0  0
   57.6180   23.8420   45.7950 C   0  0  0  0  0  0  0  0  0  0  0  0
   55.1550   26.2650   46.3670 N   0  0  0  0  0  0  0  0  0  0  0  0
   55.5110   23.9872   44.2455 H   0  0  0  0  0  0  0  0  0  0  0  0
   54.5739   22.4970   43.8880 H   0  0  0  0  0  0  0  0  0  0  0  0
   53.7540   24.0952   43.8880 H   0  0  0  0  0  0  0  0  0  0  0  0
   53.3956   24.0030   46.0765 H   0  0  0  0  0  0  0  0  0  0  0  0
   53.9960   22.2656   45.9790 H   0  0  0  0  0  0  0  0  0  0  0  0
   54.9543   24.2224   47.5922 H   0  0  0  0  0  0  0  0  0  0  0  0
   55.7759   22.6636   47.0456 H   0  0  0  0  0  0  0  0  0  0  0  0
   59.5220   24.1200   44.9550 H   0  0  0  0  0  0  0  0  0  0  0  0
   59.2111   26.4980   44.6439 H   0  0  0  0  0  0  0  0  0  0  0  0
   59.2310   28.3460   45.0150 H   0  0  0  0  0  0  0  0  0  0  0  0
   57.5607   30.0184   42.7439 H   0  0  0  0  0  0  0  0  0  0  0  0
   57.1784   32.4549   42.4707 H   0  0  0  0  0  0  0  0  0  0  0  0
   57.4526   33.9331   44.4526 H   0  0  0  0  0  0  0  0  0  0  0  0
   58.4724   30.5486   46.9042 H   0  0  0  0  0  0  0  0  0  0  0  0
   54.7690   27.1540   45.9860 H   0  0  0  0  0  0  0  0  0  0  0  0
  1  2  1  0
  2  3  1  0
  3  4  1  0
  4  5  1  0
  5  6  2  0
  5  7  1  0
  7  8  1  0
  8  9  2  0
  9 10  1  0
 10 11  2  0
 10 12  1  0
 12 13  1  0
 13 14  2  0
 14 15  1  0
 15 16  2  0
 16 17  1  0
 17 18  1  0
 17 19  2  0
  9 20  1  0
 20 21  2  3
 20  4  1  0
 19 13  1  0
  1 22  1  0
  1 23  1  0
  1 24  1  0
  2 25  1  0
  2 26  1  0
  3 27  1  0
  3 28  1  0
  7 29  1  0
  8 30  1  0
 12 31  1  0
 14 32  1  0
 15 33  1  0
 16 34  1  0
 19 35  1  0
 21 36  1  0
M  END
>  <smiles>  (59) 
CCCn1c(=S)[nH]cc(C(=O)Nc2cccc(Cl)c2)c1=N

>  <score_type>  (59) 
oracle

>  <origin>  (59) 
adg

>  <m_score__min__energy>  (59) 
-6.79

>  <m_primary>  (59) 
energy

$$$$
59:0
     RDKit          3D

 36 38  0  0  1  0  0  0  0  0999 V2000
   59.5730   35.8770   44.9900 N   0  0  0  0  0  0  0  0  0  0  0  0
   57.7190   25.6550   46.0130 C   0  0  0  0  0  0  0  0  0  0  0  0
   56.8270   26.7260   45.9180 C   0  0  0  0  0  0  0  0  0  0  0  0
   58.9430   33.6060   47.6450 C   0  0  0  0  0  0  0  0  0  0  0  0
   58.6130   32.5130   46.9370 N   0  0  0  0  0  0  0  0  0  0  0  0
   58.6030   32.5470   45.5710 C   0  0  0  0  0  0  0  0  0  0  0  0
   58.2370   31.3200   44.9420 N   0  0  0  0  0  0  0  0  0  0  0  0
   57.7990   31.3200   43.5640 C   0  0  0  0  0  0  0  0  0  0  0  0
   57.0210   30.0880   43.2100 C   0  0  0  0  0  0  0  0  0  0  0  0
   56.3560   29.4280   44.3580 C   0  0  2  0  0  0  0  0  0  0  0  0
   55.1460   30.0740   44.6510 O   0  0  0  0  0  0  0  0  0  0  0  0
   57.1410   29.2670   45.6000 C   0  0  1  0  0  0  0  0  0  0  0  0
   57.6150   27.8430   45.7510 C   0  0  0  0  0  0  0  0  0  0  0  0
   58.8810   27.4480   45.7480 O   0  0  0  0  0  0  0  0  0  0  0  0
   58.9390   26.1730   45.9020 N   0  0  0  0  0  0  0  0  0  0  0  0
   59.2590   34.7920   45.6130 C   0  0  0  0  0  0  0  0  0  0  0  0
   57.3660   24.4420   46.1730 O   0  0  0  0  0  0  0  0  0  0  0  0
   59.2760   34.7790   46.9960 C   0  0  0  0  0  0  0  0  0  0  0  0
   55.4370   26.6920   45.9770 O   0  0  0  0  0  0  0  0  0  0  0  0
   58.3480   30.1240   45.7340 C   0  0  0  0  0  0  0  0  0  0  0  0
   58.9200   33.6630   44.9200 N   0  0  0  0  0  0  0  0  0  0  0  0
   58.9440   36.2870   44.2800 H   0  0  0  0  0  0  0  0  0  0  0  0
   59.5479   35.6803   47.5649 H   0  0  0  0  0  0  0  0  0  0  0  0
   58.9480   33.5667   48.7443 H   0  0  0  0  0  0  0  0  0  0  0  0
   58.3640   31.6340   47.4600 H   0  0  0  0  0  0  0  0  0  0  0  0
   57.1613   32.2005   43.3963 H   0  0  0  0  0  0  0  0  0  0  0  0
   58.6959   31.3439   42.9276 H   0  0  0  0  0  0  0  0  0  0  0  0
   56.2473   30.3686   42.4801 H   0  0  0  0  0  0  0  0  0  0  0  0
   57.7472   29.3641   42.8117 H   0  0  0  0  0  0  0  0  0  0  0  0
   56.2045   28.3978   44.0033 H   0  0  0  0  0  0  0  0  0  0  0  0
   55.0570   30.1280   45.6260 H   0  0  0  0  0  0  0  0  0  0  0  0
   56.4282   29.5766   46.3785 H   0  0  0  0  0  0  0  0  0  0  0  0
   59.8060   25.5950   45.9370 H   0  0  0  0  0  0  0  0  0  0  0  0
   54.9550   26.3220   46.7800 H   0  0  0  0  0  0  0  0  0  0  0  0
   58.4711   30.4051   46.7903 H   0  0  0  0  0  0  0  0  0  0  0  0
   59.2176   29.5531   45.3764 H   0  0  0  0  0  0  0  0  0  0  0  0
  1  2  2  3
  2  3  1  0
  3  4  2  0
  4  5  1  0
  5  6  1  0
  6  7  1  0
  7  8  1  0
  8  9  1  0
  9 10  1  0
 10 11  1  0
 10 12  1  0
 12 13  1  0
 13 14  1  0
 14 15  1  0
 15 16  1  0
 16 17  2  0
 16 18  1  0
 18 19  1  0
 12 20  1  0
  6 21  2  0
 21  2  1  0
 20  7  1  0
 18 13  2  0
  1 22  1  0
  3 23  1  0
  4 24  1  0
  5 25  1  0
  8 26  1  0
  8 27  1  0
  9 28  1  0
  9 29  1  0
 10 30  1  6
 11 31  1  0
 12 32  1  1
 15 33  1  0
 19 34  1  0
 20 35  1  0
 20 36  1  0
M  END
>  <smiles>  (60) 
N=c1cc[nH]c(N2CCC(O)C(c3o[nH]c(=O)c3O)C2)n1

>  <score_type>  (60) 
oracle

>  <origin>  (60) 
adg

>  <m_score__min__energy>  (60) 
-7.75

>  <m_primary>  (60) 
energy

$$$$
60:0
     RDKit          3D

 30 32  0  0  0  0  0  0  0  0999 V2000
   54.3260   25.9980   45.9460 O   0  0  0  0  0  0  0  0  0  0  0  0
   55.5290   26.3450   46.0780 C   0  0  0  0  0  0  0  0  0  0  0  0
   55.9740   27.6290   45.6210 N   0  0  0  0  0  0  0  0  0  0  0  0
   57.3310   28.0890   45.5530 C   0  0  0  0  0  0  0  0  0  0  0  0
   57.5750   29.4680   45.5690 C   0  0  0  0  0  0  0  0  0  0  0  0
   58.8820   29.9580   45.4780 C   0  0  0  0  0  0  0  0  0  0  0  0
   59.9540   29.0700   45.3540 C   0  0  0  0  0  0  0  0  0  0  0  0
   59.7200   27.6940   45.3120 C   0  0  0  0  0  0  0  0  0  0  0  0
   58.4140   27.2010   45.4040 C   0  0  0  0  0  0  0  0  0  0  0  0
   56.4680   25.4100   46.6140 N   0  0  0  0  0  0  0  0  0  0  0  0
   56.4080   23.9970   46.3890 C   0  0  0  0  0  0  0  0  0  0  0  0
   56.2750   23.1250   47.4850 C   0  0  0  0  0  0  0  0  0  0  0  0
   56.1930   21.7310   47.2900 C   0  0  0  0  0  0  0  0  0  0  0  0
   56.2590   21.1870   45.9970 C   0  0  0  0  0  0  0  0  0  0  0  0
   56.4150   22.0630   44.9240 C   0  0  0  0  0  0  0  0  0  0  0  0
   56.5000   23.4310   45.1070 C   0  0  0  0  0  0  0  0  0  0  0  0
   56.7690   24.0170   43.7890 C   0  0  0  0  0  0  0  0  0  0  0  0
   57.0120   25.2290   43.5540 O   0  0  0  0  0  0  0  0  0  0  0  0
   56.8030   23.0010   42.7890 N   0  0  0  0  0  0  0  0  0  0  0  0
   56.5900   21.7880   43.5050 C   0  0  0  0  0  0  0  0  0  0  0  0
   56.5770   20.6480   42.9690 O   0  0  0  0  0  0  0  0  0  0  0  0
   56.7329   30.1707   45.6537 H   0  0  0  0  0  0  0  0  0  0  0  0
   59.0660   31.0422   45.5040 H   0  0  0  0  0  0  0  0  0  0  0  0
   60.9824   29.4551   45.2895 H   0  0  0  0  0  0  0  0  0  0  0  0
   60.5640   26.9965   45.2064 H   0  0  0  0  0  0  0  0  0  0  0  0
   58.2325   26.1170   45.3598 H   0  0  0  0  0  0  0  0  0  0  0  0
   56.2346   23.5351   48.5049 H   0  0  0  0  0  0  0  0  0  0  0  0
   56.0764   21.0645   48.1573 H   0  0  0  0  0  0  0  0  0  0  0  0
   56.1896   20.1011   45.8356 H   0  0  0  0  0  0  0  0  0  0  0  0
   57.0040   23.1150   41.7710 H   0  0  0  0  0  0  0  0  0  0  0  0
  1  2  2  0
  2  3  1  0
  3  4  1  0
  4  5  2  0
  5  6  1  0
  6  7  2  0
  7  8  1  0
  8  9  2  0
  2 10  1  0
 10 11  1  0
 11 12  2  0
 12 13  1  0
 13 14  2  0
 14 15  1  0
 15 16  2  0
 16 17  1  0
 17 18  2  0
 17 19  1  0
 19 20  1  0
 20 21  2  0
  9  4  1  0
 16 11  1  0
 20 15  1  0
  5 22  1  0
  6 23  1  0
  7 24  1  0
  8 25  1  0
  9 26  1  0
 12 27  1  0
 13 28  1  0
 14 29  1  0
 19 30  1  0
M  CHG  2   3  -1  10  -1
M  END
>  <UniqueID>  (61) 
54

>  <SMILES>  (61) 
O=C([N-]c1ccccc1)[N-]c1cccc2c1C(=O)NC2=O

>  <Energy>  (61) 
73.11611450933839

>  <Genealogy>  (61) 
O=C([N-]c1ccccc1)[N-]c1cccc2c1C(=O)NC2=O (protonated)
O=C([N-]c1ccccc1)[N-]c1cccc2c1C(=O)NC2=O (3D coordinates assigned)
O=C([N-]c1ccccc1)[N-]c1cccc2c1C(=O)NC2=O (nonaromatic ring conformer: 73.11611450933839 kcal/mol)

>  <smiles>  (61) 
O=C(Nc1ccccc1)Nc1cccc2c1C(=O)NC2=O

>  <score_type>  (61) 
oracle

>  <origin>  (61) 
adg

>  <m_score__min__energy>  (61) 
-11.09

>  <m_primary>  (61) 
energy

$$$$
61:0
     RDKit          3D

 52 55  0  0  0  0  0  0  0  0999 V2000
   59.8820   33.9710   44.8270 O   0  0  0  0  0  0  0  0  0  0  0  0
   58.5020   33.6250   45.3160 S   0  0  0  0  0  0  0  0  0  0  0  0
   57.4930   34.3600   44.4780 O   0  0  0  0  0  0  0  0  0  0  0  0
   58.2150   31.8950   45.1540 C   0  0  0  0  0  0  0  0  0  0  0  0
   57.0500   31.4140   44.5440 C   0  0  0  0  0  0  0  0  0  0  0  0
   56.8430   30.0380   44.4090 C   0  0  0  0  0  0  0  0  0  0  0  0
   57.7990   29.1210   44.8840 C   0  0  0  0  0  0  0  0  0  0  0  0
   57.5810   27.6590   44.7420 C   0  0  0  0  0  0  0  0  0  0  0  0
   56.9880   26.9200   45.7840 C   0  0  0  0  0  0  0  0  0  0  0  0
   56.7840   25.5430   45.6500 C   0  0  0  0  0  0  0  0  0  0  0  0
   57.1680   24.8890   44.4770 C   0  0  0  0  0  0  0  0  0  0  0  0
   57.7560   25.6120   43.4350 C   0  0  0  0  0  0  0  0  0  0  0  0
   57.9630   26.9880   43.5640 C   0  0  0  0  0  0  0  0  0  0  0  0
   58.9680   29.6140   45.4930 C   0  0  0  0  0  0  0  0  0  0  0  0
   59.1720   30.9900   45.6270 C   0  0  0  0  0  0  0  0  0  0  0  0
   58.3360   34.0870   46.9920 N   0  0  0  0  0  0  0  0  0  0  0  0
   57.7660   32.9790   47.7970 C   0  0  0  0  0  0  0  0  0  0  0  0
   58.8230   32.2720   48.6570 C   0  0  0  0  0  0  0  0  0  0  0  0
   59.4670   33.2150   49.5990 N   0  0  0  0  0  0  0  0  0  0  0  0
   60.7250   32.6440   50.1210 C   0  0  0  0  0  0  0  0  0  0  0  0
   61.7950   32.6700   49.0610 C   0  0  0  0  0  0  0  0  0  0  0  0
   61.8960   31.6330   48.1170 C   0  0  0  0  0  0  0  0  0  0  0  0
   62.8890   31.6710   47.1340 C   0  0  0  0  0  0  0  0  0  0  0  0
   63.7860   32.7420   47.0840 C   0  0  0  0  0  0  0  0  0  0  0  0
   63.6930   33.7760   48.0190 C   0  0  0  0  0  0  0  0  0  0  0  0
   62.7010   33.7430   49.0050 C   0  0  0  0  0  0  0  0  0  0  0  0
   59.6590   34.5780   49.0360 C   0  0  0  0  0  0  0  0  0  0  0  0
   59.6290   34.5890   47.5010 C   0  0  0  0  0  0  0  0  0  0  0  0
   56.2951   32.1212   44.1698 H   0  0  0  0  0  0  0  0  0  0  0  0
   55.9253   29.6691   43.9275 H   0  0  0  0  0  0  0  0  0  0  0  0
   56.6831   27.4296   46.7099 H   0  0  0  0  0  0  0  0  0  0  0  0
   56.3205   24.9741   46.4695 H   0  0  0  0  0  0  0  0  0  0  0  0
   57.0078   23.8057   44.3732 H   0  0  0  0  0  0  0  0  0  0  0  0
   58.0566   25.0964   42.5110 H   0  0  0  0  0  0  0  0  0  0  0  0
   58.4271   27.5505   42.7405 H   0  0  0  0  0  0  0  0  0  0  0  0
   59.7270   28.9108   45.8664 H   0  0  0  0  0  0  0  0  0  0  0  0
   60.0889   31.3634   46.1064 H   0  0  0  0  0  0  0  0  0  0  0  0
   56.9886   33.3879   48.4592 H   0  0  0  0  0  0  0  0  0  0  0  0
   57.3531   32.2366   47.0982 H   0  0  0  0  0  0  0  0  0  0  0  0
   58.3392   31.4672   49.2300 H   0  0  0  0  0  0  0  0  0  0  0  0
   59.5969   31.8635   47.9905 H   0  0  0  0  0  0  0  0  0  0  0  0
   61.0588   33.2344   50.9870 H   0  0  0  0  0  0  0  0  0  0  0  0
   60.5454   31.6008   50.4202 H   0  0  0  0  0  0  0  0  0  0  0  0
   61.1913   30.7891   48.1521 H   0  0  0  0  0  0  0  0  0  0  0  0
   62.9648   30.8566   46.3984 H   0  0  0  0  0  0  0  0  0  0  0  0
   64.5653   32.7707   46.3082 H   0  0  0  0  0  0  0  0  0  0  0  0
   64.4007   34.6172   47.9798 H   0  0  0  0  0  0  0  0  0  0  0  0
   62.6299   34.5594   49.7387 H   0  0  0  0  0  0  0  0  0  0  0  0
   58.8558   35.2304   49.4093 H   0  0  0  0  0  0  0  0  0  0  0  0
   60.6499   34.9346   49.3538 H   0  0  0  0  0  0  0  0  0  0  0  0
   59.7797   35.6191   47.1458 H   0  0  0  0  0  0  0  0  0  0  0  0
   60.4298   33.9321   47.1306 H   0  0  0  0  0  0  0  0  0  0  0  0
  1  2  2  0
  2  3  2  0
  2  4  1  0
  4  5  2  0
  5  6  1  0
  6  7  2  0
  7  8  1  0
  8  9  2  0
  9 10  1  0
 10 11  2  0
 11 12  1  0
 12 13  2  0
  7 14  1  0
 14 15  2  0
  2 16  1  0
 16 17  1  0
 17 18  1  0
 18 19  1  0
 19 20  1  0
 20 21  1  0
 21 22  2  0
 22 23  1  0
 23 24  2  0
 24 25  1  0
 25 26  2  0
 19 27  1  0
 27 28  1  0
 15  4  1  0
 28 16  1  0
 13  8  1  0
 26 21  1  0
  5 29  1  0
  6 30  1  0
  9 31  1  0
 10 32  1  0
 11 33  1  0
 12 34  1  0
 13 35  1  0
 14 36  1  0
 15 37  1  0
 17 38  1  0
 17 39  1  0
 18 40  1  0
 18 41  1  0
 20 42  1  0
 20 43  1  0
 22 44  1  0
 23 45  1  0
 24 46  1  0
 25 47  1  0
 26 48  1  0
 27 49  1  0
 27 50  1  0
 28 51  1  0
 28 52  1  0
M  END
>  <UniqueID>  (62) 
55

>  <SMILES>  (62) 
O=S(=O)(c1ccc(-c2ccccc2)cc1)N1CCN(Cc2ccccc2)CC1

>  <Energy>  (62) 
71.74184561738339

>  <Genealogy>  (62) 
O=S(=O)(c1ccc(-c2ccccc2)cc1)N1CCN(Cc2ccccc2)CC1 (3D coordinates assigned)
O=S(=O)(c1ccc(-c2ccccc2)cc1)N1CCN(Cc2ccccc2)CC1 (nonaromatic ring conformer: 71.74184561738339 kcal/mol)

>  <smiles>  (62) 
O=S(=O)(c1ccc(-c2ccccc2)cc1)N1CCN(Cc2ccccc2)CC1

>  <score_type>  (62) 
oracle

>  <origin>  (62) 
adg

>  <m_score__min__energy>  (62) 
-9.3000000000000007

>  <m_primary>  (62) 
energy

$$$$
62:0
     RDKit          3D

 22 23  0  0  0  0  0  0  0  0999 V2000
   55.6490   29.8770   44.8910 O   0  0  0  0  0  0  0  0  0  0  0  0
   56.7250   29.3250   45.2470 C   0  0  0  0  0  0  0  0  0  0  0  0
   57.8460   30.1200   45.6640 N   0  0  0  0  0  0  0  0  0  0  0  0
   57.9190   31.5460   45.4930 C   0  0  0  0  0  0  0  0  0  0  0  0
   58.1560   32.3930   46.5900 C   0  0  0  0  0  0  0  0  0  0  0  0
   58.1940   33.7760   46.4130 C   0  0  0  0  0  0  0  0  0  0  0  0
   57.9840   34.3090   45.1420 C   0  0  0  0  0  0  0  0  0  0  0  0
   57.7410   33.4830   44.0900 N   0  0  0  0  0  0  0  0  0  0  0  0
   57.6960   32.1300   44.2320 C   0  0  0  0  0  0  0  0  0  0  0  0
   57.3930   31.1490   42.8060 Cl  0  0  0  0  0  0  0  0  0  0  0  0
   56.8140   27.8570   45.2660 C   0  0  0  0  0  0  0  0  0  0  0  0
   57.8660   27.1020   44.7860 C   0  0  0  0  0  0  0  0  0  0  0  0
   57.5160   25.7890   45.0140 C   0  0  0  0  0  0  0  0  0  0  0  0
   56.2750   25.8230   45.6190 C   0  0  0  0  0  0  0  0  0  0  0  0
   55.8850   27.0690   45.7550 O   0  0  0  0  0  0  0  0  0  0  0  0
   58.6260   29.6410   46.1700 H   0  0  0  0  0  0  0  0  0  0  0  0
   58.3119   31.9637   47.5907 H   0  0  0  0  0  0  0  0  0  0  0  0
   58.3879   34.4400   47.2683 H   0  0  0  0  0  0  0  0  0  0  0  0
   58.0149   35.3981   44.9904 H   0  0  0  0  0  0  0  0  0  0  0  0
   58.7907   27.4718   44.3189 H   0  0  0  0  0  0  0  0  0  0  0  0
   58.1058   24.8946   44.7646 H   0  0  0  0  0  0  0  0  0  0  0  0
   55.7010   24.9406   45.9382 H   0  0  0  0  0  0  0  0  0  0  0  0
  1  2  2  0
  2  3  1  0
  3  4  1  0
  4  5  2  0
  5  6  1  0
  6  7  2  0
  7  8  1  0
  8  9  2  0
  9 10  1  0
  2 11  1  0
 11 12  2  0
 12 13  1  0
 13 14  2  0
 14 15  1  0
  9  4  1  0
 15 11  1  0
  3 16  1  0
  5 17  1  0
  6 18  1  0
  7 19  1  0
 12 20  1  0
 13 21  1  0
 14 22  1  0
M  END
>  <UniqueID>  (63) 
56

>  <SMILES>  (63) 
O=C(Nc1cccnc1Cl)c1ccco1

>  <Energy>  (63) 
52.716835464476645

>  <Genealogy>  (63) 
O=C(Nc1cccnc1Cl)c1ccco1 (3D coordinates assigned)
O=C(Nc1cccnc1Cl)c1ccco1 (optimized conformer: 52.716835464476645 kcal/mol)

>  <smiles>  (63) 
O=C(Nc1cccnc1Cl)c1ccco1

>  <score_type>  (63) 
oracle

>  <origin>  (63) 
adg

>  <m_score__min__energy>  (63) 
-5.8799999999999999

>  <m_primary>  (63) 
energy

$$$$
63:0
     RDKit          3D

 33 34  0  0  0  0  0  0  0  0999 V2000
   56.3730   26.9730   45.9090 O   0  0  0  0  0  0  0  0  0  0  0  0
   56.6080   28.1310   45.4730 C   0  0  0  0  0  0  0  0  0  0  0  0
   55.5260   28.8840   44.9070 N   0  0  0  0  0  0  0  0  0  0  0  0
   55.6340   30.1910   44.2620 C   0  0  0  0  0  0  0  0  0  0  0  0
   56.6380   30.1750   43.1000 C   0  0  0  0  0  0  0  0  0  0  0  0
   57.9360   30.9350   43.3990 C   0  0  0  0  0  0  0  0  0  0  0  0
   57.8040   32.7020   42.9390 S   0  0  0  0  0  0  0  0  0  0  0  0
   58.1880   33.3310   44.5740 C   0  0  0  0  0  0  0  0  0  0  0  0
   59.2040   34.2780   44.7430 C   0  0  0  0  0  0  0  0  0  0  0  0
   59.4910   34.7490   46.0270 C   0  0  0  0  0  0  0  0  0  0  0  0
   58.7620   34.2750   47.1190 C   0  0  0  0  0  0  0  0  0  0  0  0
   57.7500   33.3330   46.9080 C   0  0  0  0  0  0  0  0  0  0  0  0
   57.4870   32.8870   45.6510 N   0  0  0  0  0  0  0  0  0  0  0  0
   57.9760   28.6720   45.5770 C   0  0  0  0  0  0  0  0  0  0  0  0
   59.0000   28.1460   44.7770 C   0  0  0  0  0  0  0  0  0  0  0  0
   60.2900   28.6730   44.8750 C   0  0  0  0  0  0  0  0  0  0  0  0
   60.5440   29.7000   45.7280 N   0  0  0  0  0  0  0  0  0  0  0  0
   59.5650   30.2420   46.5020 C   0  0  0  0  0  0  0  0  0  0  0  0
   58.2620   29.7430   46.4350 C   0  0  0  0  0  0  0  0  0  0  0  0
   54.6457   30.4789   43.8741 H   0  0  0  0  0  0  0  0  0  0  0  0
   55.9915   30.9125   45.0114 H   0  0  0  0  0  0  0  0  0  0  0  0
   56.8918   29.1288   42.8742 H   0  0  0  0  0  0  0  0  0  0  0  0
   56.1562   30.6815   42.2507 H   0  0  0  0  0  0  0  0  0  0  0  0
   58.1529   30.8615   44.4749 H   0  0  0  0  0  0  0  0  0  0  0  0
   58.7435   30.4840   42.8036 H   0  0  0  0  0  0  0  0  0  0  0  0
   59.7702   34.6475   43.8753 H   0  0  0  0  0  0  0  0  0  0  0  0
   60.2890   35.4911   46.1767 H   0  0  0  0  0  0  0  0  0  0  0  0
   58.9810   34.6383   48.1339 H   0  0  0  0  0  0  0  0  0  0  0  0
   57.1666   32.9528   47.7595 H   0  0  0  0  0  0  0  0  0  0  0  0
   58.7892   27.3241   44.0770 H   0  0  0  0  0  0  0  0  0  0  0  0
   61.1016   28.2560   44.2607 H   0  0  0  0  0  0  0  0  0  0  0  0
   59.8000   31.0744   47.1816 H   0  0  0  0  0  0  0  0  0  0  0  0
   57.4662   30.1872   47.0510 H   0  0  0  0  0  0  0  0  0  0  0  0
  1  2  2  0
  2  3  1  0
  3  4  1  0
  4  5  1  0
  5  6  1  0
  6  7  1  0
  7  8  1  0
  8  9  2  0
  9 10  1  0
 10 11  2  0
 11 12  1  0
 12 13  2  0
  2 14  1  0
 14 15  2  0
 15 16  1  0
 16 17  2  0
 17 18  1  0
 18 19  2  0
 13  8  1  0
 19 14  1  0
  4 20  1  0
  4 21  1  0
  5 22  1  0
  5 23  1  0
  6 24  1  0
  6 25  1  0
  9 26  1  0
 10 27  1  0
 11 28  1  0
 12 29  1  0
 15 30  1  0
 16 31  1  0
 18 32  1  0
 19 33  1  0
M  CHG  1   3  -1
M  END
>  <UniqueID>  (64) 
57

>  <SMILES>  (64) 
O=C([N-]CCCSc1ccccn1)c1ccncc1

>  <Energy>  (64) 
32.93795600369361

>  <Genealogy>  (64) 
O=C([N-]CCCSc1ccccn1)c1ccncc1 (protonated)
O=C([N-]CCCSc1ccccn1)c1ccncc1 (3D coordinates assigned)
O=C([N-]CCCSc1ccccn1)c1ccncc1 (optimized conformer: 32.93795600369361 kcal/mol)

>  <smiles>  (64) 
O=C(NCCCSc1ccccn1)c1ccncc1

>  <score_type>  (64) 
oracle

>  <origin>  (64) 
adg

>  <m_score__min__energy>  (64) 
-8.75

>  <m_primary>  (64) 
energy

$$$$
64:0
     RDKit          3D

 37 38  0  0  0  0  0  0  0  0999 V2000
   57.9730   32.5850   42.5980 C   0  0  0  0  0  0  0  0  0  0  0  0
   58.1380   32.8730   44.0660 C   0  0  0  0  0  0  0  0  0  0  0  0
   59.1940   33.7060   44.4780 C   0  0  0  0  0  0  0  0  0  0  0  0
   59.3490   34.0370   45.8270 C   0  0  0  0  0  0  0  0  0  0  0  0
   58.4520   33.5470   46.7760 C   0  0  0  0  0  0  0  0  0  0  0  0
   57.4100   32.7050   46.3840 C   0  0  0  0  0  0  0  0  0  0  0  0
   57.2660   32.3330   45.0410 C   0  0  0  0  0  0  0  0  0  0  0  0
   56.1950   31.4520   44.6840 N   0  0  0  0  0  0  0  0  0  0  0  0
   56.3340   30.0400   44.4840 C   0  0  0  0  0  0  0  0  0  0  0  0
   55.6170   29.2590   45.1640 O   0  0  0  0  0  0  0  0  0  0  0  0
   57.3340   29.4590   43.5150 C   0  0  0  0  0  0  0  0  0  0  0  0
   57.4020   27.9880   43.5770 N   0  0  0  0  0  0  0  0  0  0  0  0
   58.6580   27.4770   44.1650 C   0  0  0  0  0  0  0  0  0  0  0  0
   59.1300   28.3150   45.3300 C   0  0  0  0  0  0  0  0  0  0  0  0
   58.4880   28.2320   46.5770 C   0  0  0  0  0  0  0  0  0  0  0  0
   58.9240   29.0160   47.6500 C   0  0  0  0  0  0  0  0  0  0  0  0
   60.0090   29.8810   47.4890 C   0  0  0  0  0  0  0  0  0  0  0  0
   60.6650   29.9580   46.2570 C   0  0  0  0  0  0  0  0  0  0  0  0
   60.2340   29.1750   45.1830 C   0  0  0  0  0  0  0  0  0  0  0  0
   57.4299   31.6371   42.4691 H   0  0  0  0  0  0  0  0  0  0  0  0
   57.4049   33.4002   42.1260 H   0  0  0  0  0  0  0  0  0  0  0  0
   58.9635   32.5072   42.1260 H   0  0  0  0  0  0  0  0  0  0  0  0
   59.9022   34.0993   43.7338 H   0  0  0  0  0  0  0  0  0  0  0  0
   60.1803   34.6854   46.1410 H   0  0  0  0  0  0  0  0  0  0  0  0
   58.5658   33.8243   47.8344 H   0  0  0  0  0  0  0  0  0  0  0  0
   56.6975   32.3313   47.1341 H   0  0  0  0  0  0  0  0  0  0  0  0
   57.0476   29.7548   42.4950 H   0  0  0  0  0  0  0  0  0  0  0  0
   58.3256   29.8480   43.7897 H   0  0  0  0  0  0  0  0  0  0  0  0
   57.2270   27.5720   42.6340 H   0  0  0  0  0  0  0  0  0  0  0  0
   56.6160   27.6710   44.1920 H   0  0  0  0  0  0  0  0  0  0  0  0
   58.4913   26.4475   44.5147 H   0  0  0  0  0  0  0  0  0  0  0  0
   59.4340   27.5170   43.3864 H   0  0  0  0  0  0  0  0  0  0  0  0
   57.6379   27.5467   46.7101 H   0  0  0  0  0  0  0  0  0  0  0  0
   58.4121   28.9514   48.6215 H   0  0  0  0  0  0  0  0  0  0  0  0
   60.3472   30.5017   48.3318 H   0  0  0  0  0  0  0  0  0  0  0  0
   61.5221   30.6362   46.1328 H   0  0  0  0  0  0  0  0  0  0  0  0
   60.7599   29.2311   44.2185 H   0  0  0  0  0  0  0  0  0  0  0  0
  1  2  1  0
  2  3  2  0
  3  4  1  0
  4  5  2  0
  5  6  1  0
  6  7  2  0
  7  8  1  0
  8  9  1  0
  9 10  2  0
  9 11  1  0
 11 12  1  0
 12 13  1  0
 13 14  1  0
 14 15  2  0
 15 16  1  0
 16 17  2  0
 17 18  1  0
 18 19  2  0
  7  2  1  0
 19 14  1  0
  1 20  1  0
  1 21  1  0
  1 22  1  0
  3 23  1  0
  4 24  1  0
  5 25  1  0
  6 26  1  0
 11 27  1  0
 11 28  1  0
 12 29  1  0
 12 30  1  0
 13 31  1  0
 13 32  1  0
 15 33  1  0
 16 34  1  0
 17 35  1  0
 18 36  1  0
 19 37  1  0
M  CHG  2   8  -1  12   1
M  END
>  <UniqueID>  (65) 
58

>  <SMILES>  (65) 
Cc1ccccc1[N-]C(=O)C[NH2+]Cc1ccccc1

>  <Energy>  (65) 
44.22743471724081

>  <Genealogy>  (65) 
Cc1ccccc1[N-]C(=O)C[NH2+]Cc1ccccc1 (protonated)
Cc1ccccc1[N-]C(=O)C[NH2+]Cc1ccccc1 (3D coordinates assigned)
Cc1ccccc1[N-]C(=O)C[NH2+]Cc1ccccc1 (optimized conformer: 44.22743471724081 kcal/mol)

>  <smiles>  (65) 
Cc1ccccc1NC(=O)CNCc1ccccc1

>  <score_type>  (65) 
oracle

>  <origin>  (65) 
adg

>  <m_score__min__energy>  (65) 
-7.3200000000000003

>  <m_primary>  (65) 
energy

$$$$
65:0
     RDKit          3D

 52 54  0  0  0  0  0  0  0  0999 V2000
   60.4650   26.4040   47.5020 C   0  0  0  0  0  0  0  0  0  0  0  0
   59.5410   26.4180   46.3190 C   0  0  0  0  0  0  0  0  0  0  0  0
   58.9930   25.2200   45.8390 C   0  0  0  0  0  0  0  0  0  0  0  0
   58.1010   25.2300   44.7580 C   0  0  0  0  0  0  0  0  0  0  0  0
   57.4790   23.9490   44.2860 C   0  0  0  0  0  0  0  0  0  0  0  0
   57.7310   26.4520   44.1770 C   0  0  0  0  0  0  0  0  0  0  0  0
   58.2770   27.6590   44.6470 C   0  0  0  0  0  0  0  0  0  0  0  0
   57.8910   28.9230   44.0820 N   0  0  0  0  0  0  0  0  0  0  0  0
   56.6400   29.5740   44.3620 C   0  0  0  0  0  0  0  0  0  0  0  0
   55.6920   28.9390   44.8960 O   0  0  0  0  0  0  0  0  0  0  0  0
   56.4550   31.0260   44.0270 C   0  0  0  0  0  0  0  0  0  0  0  0
   56.9230   31.8850   45.1360 N   0  0  0  0  0  0  0  0  0  0  0  0
   57.3680   33.2140   44.6420 C   0  0  0  0  0  0  0  0  0  0  0  0
   58.8980   33.3060   44.5110 C   0  0  0  0  0  0  0  0  0  0  0  0
   59.5910   33.0640   45.8030 N   0  0  0  0  0  0  0  0  0  0  0  0
   59.9840   34.3320   46.4540 C   0  0  0  0  0  0  0  0  0  0  0  0
   61.1960   34.1360   47.3300 C   0  0  0  0  0  0  0  0  0  0  0  0
   61.0870   34.2810   48.7230 C   0  0  0  0  0  0  0  0  0  0  0  0
   62.2130   34.1260   49.5380 C   0  0  0  0  0  0  0  0  0  0  0  0
   63.4540   33.8330   48.9670 C   0  0  0  0  0  0  0  0  0  0  0  0
   63.5720   33.6930   47.5820 C   0  0  0  0  0  0  0  0  0  0  0  0
   62.4490   33.8460   46.7640 C   0  0  0  0  0  0  0  0  0  0  0  0
   58.8140   32.1990   46.7280 C   0  0  0  0  0  0  0  0  0  0  0  0
   57.9470   31.1950   45.9600 C   0  0  0  0  0  0  0  0  0  0  0  0
   59.1630   27.6350   45.7330 C   0  0  0  0  0  0  0  0  0  0  0  0
   59.8735   26.4130   48.4294 H   0  0  0  0  0  0  0  0  0  0  0  0
   61.0857   25.4963   47.4717 H   0  0  0  0  0  0  0  0  0  0  0  0
   61.1129   27.2924   47.4717 H   0  0  0  0  0  0  0  0  0  0  0  0
   59.2650   24.2659   46.3140 H   0  0  0  0  0  0  0  0  0  0  0  0
   57.1845   23.3424   45.1551 H   0  0  0  0  0  0  0  0  0  0  0  0
   56.5903   24.1750   43.6784 H   0  0  0  0  0  0  0  0  0  0  0  0
   58.2062   23.3904   43.6784 H   0  0  0  0  0  0  0  0  0  0  0  0
   57.0084   26.4658   43.3477 H   0  0  0  0  0  0  0  0  0  0  0  0
   58.5260   29.3620   43.3790 H   0  0  0  0  0  0  0  0  0  0  0  0
   57.0304   31.2629   43.1199 H   0  0  0  0  0  0  0  0  0  0  0  0
   55.3842   31.2159   43.8619 H   0  0  0  0  0  0  0  0  0  0  0  0
   56.9170   33.3936   43.6549 H   0  0  0  0  0  0  0  0  0  0  0  0
   57.0469   33.9698   45.3739 H   0  0  0  0  0  0  0  0  0  0  0  0
   59.2363   32.5548   43.7822 H   0  0  0  0  0  0  0  0  0  0  0  0
   59.1465   34.3258   44.1821 H   0  0  0  0  0  0  0  0  0  0  0  0
   60.2168   35.0773   45.6791 H   0  0  0  0  0  0  0  0  0  0  0  0
   59.1495   34.6773   47.0820 H   0  0  0  0  0  0  0  0  0  0  0  0
   60.1122   34.5174   49.1746 H   0  0  0  0  0  0  0  0  0  0  0  0
   62.1215   34.2348   50.6288 H   0  0  0  0  0  0  0  0  0  0  0  0
   64.3392   33.7124   49.6087 H   0  0  0  0  0  0  0  0  0  0  0  0
   64.5500   33.4620   47.1346 H   0  0  0  0  0  0  0  0  0  0  0  0
   62.5464   33.7390   45.6736 H   0  0  0  0  0  0  0  0  0  0  0  0
   59.5129   31.6475   47.3741 H   0  0  0  0  0  0  0  0  0  0  0  0
   58.1515   32.8408   47.3274 H   0  0  0  0  0  0  0  0  0  0  0  0
   58.5921   30.5950   45.3013 H   0  0  0  0  0  0  0  0  0  0  0  0
   57.4307   30.5534   46.6893 H   0  0  0  0  0  0  0  0  0  0  0  0
   59.5654   28.5790   46.1292 H   0  0  0  0  0  0  0  0  0  0  0  0
  1  2  1  0
  2  3  2  0
  3  4  1  0
  4  5  1  0
  4  6  2  0
  6  7  1  0
  7  8  1  0
  8  9  1  0
  9 10  2  0
  9 11  1  0
 11 12  1  0
 12 13  1  0
 13 14  1  0
 14 15  1  0
 15 16  1  0
 16 17  1  0
 17 18  2  0
 18 19  1  0
 19 20  2  0
 20 21  1  0
 21 22  2  0
 15 23  1  0
 23 24  1  0
  7 25  2  0
 25  2  1  0
 24 12  1  0
 22 17  1  0
  1 26  1  0
  1 27  1  0
  1 28  1  0
  3 29  1  0
  5 30  1  0
  5 31  1  0
  5 32  1  0
  6 33  1  0
  8 34  1  0
 11 35  1  0
 11 36  1  0
 13 37  1  0
 13 38  1  0
 14 39  1  0
 14 40  1  0
 16 41  1  0
 16 42  1  0
 18 43  1  0
 19 44  1  0
 20 45  1  0
 21 46  1  0
 22 47  1  0
 23 48  1  0
 23 49  1  0
 24 50  1  0
 24 51  1  0
 25 52  1  0
M  END
>  <UniqueID>  (66) 
59

>  <SMILES>  (66) 
Cc1cc(C)cc(NC(=O)CN2CCN(Cc3ccccc3)CC2)c1

>  <Energy>  (66) 
66.87831016123391

>  <Genealogy>  (66) 
Cc1cc(C)cc(NC(=O)CN2CCN(Cc3ccccc3)CC2)c1 (3D coordinates assigned)
Cc1cc(C)cc(NC(=O)CN2CCN(Cc3ccccc3)CC2)c1 (nonaromatic ring conformer: 66.87831016123391 kcal/mol)

>  <smiles>  (66) 
Cc1cc(C)cc(NC(=O)CN2CCN(Cc3ccccc3)CC2)c1

>  <score_type>  (66) 
oracle

>  <origin>  (66) 
adg

>  <m_score__min__energy>  (66) 
-8.9299999999999997

>  <m_primary>  (66) 
energy

$$$$
66:0
     RDKit          3D

 34 35  0  0  0  0  0  0  0  0999 V2000
   55.4260   30.8560   44.5080 O   0  0  0  0  0  0  0  0  0  0  0  0
   56.3820   29.7610   44.1300 S   0  0  0  0  0  0  0  0  0  0  0  0
   56.0990   29.3370   42.7140 O   0  0  0  0  0  0  0  0  0  0  0  0
   58.0470   30.3950   44.2410 C   0  0  0  0  0  0  0  0  0  0  0  0
   58.0690   31.7200   44.9510 C   0  0  0  0  0  0  0  0  0  0  0  0
   57.9330   32.9170   44.2280 C   0  0  0  0  0  0  0  0  0  0  0  0
   57.9510   34.1460   44.8940 C   0  0  0  0  0  0  0  0  0  0  0  0
   58.0750   34.1890   46.2850 C   0  0  0  0  0  0  0  0  0  0  0  0
   58.1950   33.0020   47.0120 C   0  0  0  0  0  0  0  0  0  0  0  0
   58.1960   31.7710   46.3490 C   0  0  0  0  0  0  0  0  0  0  0  0
   56.1790   28.4350   45.2390 N   0  0  0  0  0  0  0  0  0  0  0  0
   57.4190   28.1830   45.9730 C   0  0  0  0  0  0  0  0  0  0  0  0
   57.3450   26.8280   46.6740 C   0  0  0  0  0  0  0  0  0  0  0  0
   56.7040   25.7900   45.7970 C   0  0  0  0  0  0  0  0  0  0  0  0
   57.4030   25.2360   44.7130 C   0  0  0  0  0  0  0  0  0  0  0  0
   56.7810   24.2700   43.9190 C   0  0  0  0  0  0  0  0  0  0  0  0
   55.4840   23.8520   44.2230 C   0  0  0  0  0  0  0  0  0  0  0  0
   54.8260   24.4100   45.3210 C   0  0  0  0  0  0  0  0  0  0  0  0
   55.4430   25.3570   46.0760 N   0  0  0  0  0  0  0  0  0  0  0  0
   58.6693   29.6781   44.7966 H   0  0  0  0  0  0  0  0  0  0  0  0
   58.4390   30.5347   43.2228 H   0  0  0  0  0  0  0  0  0  0  0  0
   57.8120   32.8870   43.1351 H   0  0  0  0  0  0  0  0  0  0  0  0
   57.8673   35.0815   44.3215 H   0  0  0  0  0  0  0  0  0  0  0  0
   58.0781   35.1570   46.8075 H   0  0  0  0  0  0  0  0  0  0  0  0
   58.2888   33.0359   48.1075 H   0  0  0  0  0  0  0  0  0  0  0  0
   58.2966   30.8389   46.9244 H   0  0  0  0  0  0  0  0  0  0  0  0
   58.2650   28.1837   45.2700 H   0  0  0  0  0  0  0  0  0  0  0  0
   57.5593   28.9721   46.7264 H   0  0  0  0  0  0  0  0  0  0  0  0
   58.3639   26.5011   46.9290 H   0  0  0  0  0  0  0  0  0  0  0  0
   56.7323   26.9408   47.5805 H   0  0  0  0  0  0  0  0  0  0  0  0
   58.4306   25.5596   44.4911 H   0  0  0  0  0  0  0  0  0  0  0  0
   57.3114   23.8398   43.0567 H   0  0  0  0  0  0  0  0  0  0  0  0
   54.9858   23.0912   43.6042 H   0  0  0  0  0  0  0  0  0  0  0  0
   53.8070   24.0828   45.5753 H   0  0  0  0  0  0  0  0  0  0  0  0
  1  2  2  0
  2  3  2  0
  2  4  1  0
  4  5  1  0
  5  6  2  0
  6  7  1  0
  7  8  2  0
  8  9  1  0
  9 10  2  0
  2 11  1  0
 11 12  1  0
 12 13  1  0
 13 14  1  0
 14 15  2  0
 15 16  1  0
 16 17  2  0
 17 18  1  0
 18 19  2  0
 10  5  1  0
 19 14  1  0
  4 20  1  0
  4 21  1  0
  6 22  1  0
  7 23  1  0
  8 24  1  0
  9 25  1  0
 10 26  1  0
 12 27  1  0
 12 28  1  0
 13 29  1  0
 13 30  1  0
 15 31  1  0
 16 32  1  0
 17 33  1  0
 18 34  1  0
M  CHG  1  11  -1
M  END
>  <UniqueID>  (67) 
60

>  <SMILES>  (67) 
O=S(=O)(Cc1ccccc1)[N-]CCc1ccccn1

>  <Energy>  (67) 
22.573724964008843

>  <Genealogy>  (67) 
O=S(=O)(Cc1ccccc1)[N-]CCc1ccccn1 (protonated)
O=S(=O)(Cc1ccccc1)[N-]CCc1ccccn1 (3D coordinates assigned)
O=S(=O)(Cc1ccccc1)[N-]CCc1ccccn1 (optimized conformer: 22.573724964008843 kcal/mol)

>  <smiles>  (67) 
O=S(=O)(Cc1ccccc1)NCCc1ccccn1

>  <score_type>  (67) 
oracle

>  <origin>  (67) 
adg

>  <m_score__min__energy>  (67) 
-9.3300000000000001

>  <m_primary>  (67) 
energy

$$$$
67:0
     RDKit          3D

 41 43  0  0  0  0  0  0  0  0999 V2000
   55.1620   28.9770   44.4980 O   0  0  0  0  0  0  0  0  0  0  0  0
   56.4020   29.7690   44.1930 S   0  0  0  0  0  0  0  0  0  0  0  0
   56.5790   29.8510   42.7030 O   0  0  0  0  0  0  0  0  0  0  0  0
   56.2400   31.3680   44.8500 N   0  0  0  0  0  0  0  0  0  0  0  0
   57.4510   32.1460   44.5820 C   0  0  0  0  0  0  0  0  0  0  0  0
   57.2270   33.6070   44.9750 C   0  0  0  0  0  0  0  0  0  0  0  0
   58.3910   34.1520   45.7630 C   0  0  0  0  0  0  0  0  0  0  0  0
   59.1300   35.2000   45.3390 N   0  0  0  0  0  0  0  0  0  0  0  0
   60.0130   35.4150   46.3340 C   0  0  0  0  0  0  0  0  0  0  0  0
   59.7880   34.5170   47.3510 C   0  0  0  0  0  0  0  0  0  0  0  0
   58.7660   33.7210   46.9910 N   0  0  0  0  0  0  0  0  0  0  0  0
   58.1480   32.6920   47.8300 C   0  0  0  0  0  0  0  0  0  0  0  0
   59.1350   31.5930   48.1220 C   0  0  0  0  0  0  0  0  0  0  0  0
   58.8940   30.6920   49.1690 C   0  0  0  0  0  0  0  0  0  0  0  0
   59.8070   29.6630   49.4160 C   0  0  0  0  0  0  0  0  0  0  0  0
   60.9200   29.5370   48.6460 N   0  0  0  0  0  0  0  0  0  0  0  0
   61.1800   30.4000   47.6260 C   0  0  0  0  0  0  0  0  0  0  0  0
   60.2930   31.4430   47.3450 C   0  0  0  0  0  0  0  0  0  0  0  0
   57.7890   28.9780   44.9370 C   0  0  0  0  0  0  0  0  0  0  0  0
   57.6160   28.0550   45.9820 C   0  0  0  0  0  0  0  0  0  0  0  0
   58.7260   27.4130   46.5400 C   0  0  0  0  0  0  0  0  0  0  0  0
   60.0100   27.6870   46.0580 C   0  0  0  0  0  0  0  0  0  0  0  0
   60.1860   28.6100   45.0210 C   0  0  0  0  0  0  0  0  0  0  0  0
   59.0790   29.2550   44.4640 C   0  0  0  0  0  0  0  0  0  0  0  0
   58.2863   31.7345   45.1676 H   0  0  0  0  0  0  0  0  0  0  0  0
   57.6874   32.0911   43.5091 H   0  0  0  0  0  0  0  0  0  0  0  0
   57.1010   34.2074   44.0620 H   0  0  0  0  0  0  0  0  0  0  0  0
   56.3277   33.6606   45.6062 H   0  0  0  0  0  0  0  0  0  0  0  0
   60.7938   36.1898   46.3329 H   0  0  0  0  0  0  0  0  0  0  0  0
   60.3478   34.4598   48.2962 H   0  0  0  0  0  0  0  0  0  0  0  0
   57.8190   33.1452   48.7768 H   0  0  0  0  0  0  0  0  0  0  0  0
   57.2857   32.2658   47.2964 H   0  0  0  0  0  0  0  0  0  0  0  0
   57.9929   30.7943   49.7915 H   0  0  0  0  0  0  0  0  0  0  0  0
   59.6243   28.9530   50.2360 H   0  0  0  0  0  0  0  0  0  0  0  0
   62.0905   30.2763   47.0213 H   0  0  0  0  0  0  0  0  0  0  0  0
   60.5015   32.1409   46.5207 H   0  0  0  0  0  0  0  0  0  0  0  0
   56.6068   27.8372   46.3615 H   0  0  0  0  0  0  0  0  0  0  0  0
   58.5891   26.6916   47.3590 H   0  0  0  0  0  0  0  0  0  0  0  0
   60.8816   27.1769   46.4941 H   0  0  0  0  0  0  0  0  0  0  0  0
   61.1963   28.8277   44.6443 H   0  0  0  0  0  0  0  0  0  0  0  0
   59.2203   29.9828   43.6514 H   0  0  0  0  0  0  0  0  0  0  0  0
  1  2  2  0
  2  3  2  0
  2  4  1  0
  4  5  1  0
  5  6  1  0
  6  7  1  0
  7  8  2  0
  8  9  1  0
  9 10  2  0
 10 11  1  0
 11 12  1  0
 12 13  1  0
 13 14  2  0
 14 15  1  0
 15 16  2  0
 16 17  1  0
 17 18  2  0
  2 19  1  0
 19 20  2  0
 20 21  1  0
 21 22  2  0
 22 23  1  0
 23 24  2  0
 11  7  1  0
 18 13  1  0
 24 19  1  0
  5 25  1  0
  5 26  1  0
  6 27  1  0
  6 28  1  0
  9 29  1  0
 10 30  1  0
 12 31  1  0
 12 32  1  0
 14 33  1  0
 15 34  1  0
 17 35  1  0
 18 36  1  0
 20 37  1  0
 21 38  1  0
 22 39  1  0
 23 40  1  0
 24 41  1  0
M  CHG  1   4  -1
M  END
>  <UniqueID>  (68) 
61

>  <SMILES>  (68) 
O=S(=O)([N-]CCc1nccn1Cc1ccncc1)c1ccccc1

>  <Energy>  (68) 
67.1541427245593

>  <Genealogy>  (68) 
O=S(=O)([N-]CCc1nccn1Cc1ccncc1)c1ccccc1 (protonated)
O=S(=O)([N-]CCc1nccn1Cc1ccncc1)c1ccccc1 (3D coordinates assigned)
O=S(=O)([N-]CCc1nccn1Cc1ccncc1)c1ccccc1 (optimized conformer: 67.1541427245593 kcal/mol)

>  <smiles>  (68) 
O=S(=O)(NCCc1nccn1Cc1ccncc1)c1ccccc1

>  <score_type>  (68) 
oracle

>  <origin>  (68) 
adg

>  <m_score__min__energy>  (68) 
-9.6300000000000008

>  <m_primary>  (68) 
energy

$$$$
68:0
     RDKit          3D

 31 33  0  0  0  0  0  0  0  0999 V2000
   57.0150   27.2110   43.4550 H   0  0  0  0  0  0  0  0  0  0  0  0
   57.7730   27.3840   44.1520 N   0  0  0  0  0  0  0  0  0  0  0  0
   57.8610   28.5130   44.7800 C   0  0  0  0  0  0  0  0  0  0  0  0
   58.8740   28.8010   46.0920 S   0  0  0  0  0  0  0  0  0  0  0  0
   58.3010   30.3890   46.2160 C   0  0  0  0  0  0  0  0  0  0  0  0
   58.7860   31.3920   47.1910 C   0  0  0  0  0  0  0  0  0  0  0  0
   58.9990   30.9820   48.5170 C   0  0  0  0  0  0  0  0  0  0  0  0
   58.7510   29.9520   48.8129 H   0  0  0  0  0  0  0  0  0  0  0  0
   59.5070   31.8400   49.4390 N   0  0  0  0  0  0  0  0  0  0  0  0
   59.6650   31.5020   50.4160 H   0  0  0  0  0  0  0  0  0  0  0  0
   59.8280   33.1200   49.1240 C   0  0  0  0  0  0  0  0  0  0  0  0
   60.2532   33.7832   49.8917 H   0  0  0  0  0  0  0  0  0  0  0  0
   59.6200   33.6000   47.8250 C   0  0  0  0  0  0  0  0  0  0  0  0
   59.9310   34.9310   47.5060 C   0  0  0  0  0  0  0  0  0  0  0  0
   60.3658   35.5912   48.2709 H   0  0  0  0  0  0  0  0  0  0  0  0
   59.6900   35.4190   46.2210 C   0  0  0  0  0  0  0  0  0  0  0  0
   59.9439   36.4599   45.9720 H   0  0  0  0  0  0  0  0  0  0  0  0
   59.1280   34.5890   45.2530 C   0  0  0  0  0  0  0  0  0  0  0  0
   58.9281   34.9818   44.2452 H   0  0  0  0  0  0  0  0  0  0  0  0
   58.8170   33.2610   45.5550 C   0  0  0  0  0  0  0  0  0  0  0  0
   58.3640   32.6189   44.7853 H   0  0  0  0  0  0  0  0  0  0  0  0
   59.0790   32.7350   46.8400 C   0  0  0  0  0  0  0  0  0  0  0  0
   57.3830   30.6530   45.2560 N   0  0  0  0  0  0  0  0  0  0  0  0
   57.1390   29.6130   44.4590 N   0  0  0  0  0  0  0  0  0  0  0  0
   56.1350   29.6810   43.3970 C   0  0  0  0  0  0  0  0  0  0  0  0
   55.9335   28.6666   43.0222 H   0  0  0  0  0  0  0  0  0  0  0  0
   55.2127   30.1219   43.8032 H   0  0  0  0  0  0  0  0  0  0  0  0
   56.6380   30.5500   42.2510 C   0  0  0  0  0  0  0  0  0  0  0  0
   57.1498   31.4342   42.6587 H   0  0  0  0  0  0  0  0  0  0  0  0
   57.3410   29.9716   41.6335 H   0  0  0  0  0  0  0  0  0  0  0  0
   55.7863   30.8715   41.6335 H   0  0  0  0  0  0  0  0  0  0  0  0
  1  2  1  0
  2  3  2  0
  3  4  1  0
  4  5  1  0
  5  6  1  0
  6  7  2  0
  7  8  1  0
  7  9  1  0
  9 10  1  0
  9 11  2  0
 11 12  1  0
 11 13  1  0
 13 14  2  0
 14 15  1  0
 14 16  1  0
 16 17  1  0
 16 18  2  0
 18 19  1  0
 18 20  1  0
 20 21  1  0
 20 22  2  0
  5 23  2  0
 23 24  1  0
 24 25  1  0
 25 26  1  0
 25 27  1  0
 25 28  1  0
 28 29  1  0
 28 30  1  0
 28 31  1  0
 24  3  1  0
 22  6  1  0
 22 13  1  0
M  CHG  1   9   1
M  END
>  <UniqueID>  (69) 
62

>  <SMILES>  (69) 
[H]/N=c1\sc(-c2c[nH+]cc3ccccc23)nn1CC

>  <Energy>  (69) 
74.06218989369806

>  <Genealogy>  (69) 
CCn1nc(-c2c[nH+]cc3ccccc23)sc1=N (protonated)
[H]/N=c1\sc(-c2c[nH+]cc3ccccc23)nn1CC (cis-trans isomerization)
[H]/N=c1\sc(-c2c[nH+]cc3ccccc23)nn1CC (3D coordinates assigned)
[H]/N=c1\sc(-c2c[nH+]cc3ccccc23)nn1CC (optimized conformer: 74.06218989369806 kcal/mol)

>  <smiles>  (69) 
CCn1nc(-c2cncc3ccccc23)sc1=N

>  <score_type>  (69) 
oracle

>  <origin>  (69) 
adg

>  <m_score__min__energy>  (69) 
-5.2999999999999998

>  <m_primary>  (69) 
energy

$$$$
69:0
     RDKit          3D

 56 58  0  0  0  0  0  0  0  0999 V2000
   57.6040   21.8260   45.8840 C   0  0  0  0  0  0  0  0  0  0  0  0
   57.7330   22.9630   46.7330 O   0  0  0  0  0  0  0  0  0  0  0  0
   57.5390   24.2880   46.3160 C   0  0  0  0  0  0  0  0  0  0  0  0
   58.6230   24.9770   45.7620 C   0  0  0  0  0  0  0  0  0  0  0  0
   58.4820   26.3020   45.3410 C   0  0  0  0  0  0  0  0  0  0  0  0
   57.2510   26.9570   45.4740 C   0  0  0  0  0  0  0  0  0  0  0  0
   57.0900   28.6490   44.9940 S   0  0  0  0  0  0  0  0  0  0  0  0
   55.6300   28.9940   44.8840 O   0  0  0  0  0  0  0  0  0  0  0  0
   57.7170   28.8430   43.6430 O   0  0  0  0  0  0  0  0  0  0  0  0
   57.8590   29.7210   46.1430 N   0  0  0  0  0  0  0  0  0  0  0  0
   58.1660   29.0090   47.4000 C   0  0  0  0  0  0  0  0  0  0  0  0
   59.3110   29.6890   48.1530 C   0  0  0  0  0  0  0  0  0  0  0  0
   60.5730   29.6090   47.3780 N   0  0  0  0  0  0  0  0  0  0  0  0
   61.5600   30.5830   47.9100 C   0  0  0  0  0  0  0  0  0  0  0  0
   61.4730   31.9650   47.2090 C   0  0  0  0  0  0  0  0  0  0  0  0
   60.4670   32.9670   47.8310 C   0  0  1  0  0  0  0  0  0  0  0  0
   61.1640   34.1850   48.4640 C   0  0  0  0  0  0  0  0  0  0  0  0
   59.3480   33.3360   46.8690 C   0  0  0  0  0  0  0  0  0  0  0  0
   59.6530   34.1060   45.7310 C   0  0  0  0  0  0  0  0  0  0  0  0
   58.6390   34.5380   44.8720 C   0  0  0  0  0  0  0  0  0  0  0  0
   57.3080   34.2130   45.1410 C   0  0  0  0  0  0  0  0  0  0  0  0
   56.9890   33.4580   46.2700 C   0  0  0  0  0  0  0  0  0  0  0  0
   57.9980   33.0220   47.1330 C   0  0  0  0  0  0  0  0  0  0  0  0
   60.3660   29.7690   45.9080 C   0  0  0  0  0  0  0  0  0  0  0  0
   59.0180   30.4260   45.5500 C   0  0  0  0  0  0  0  0  0  0  0  0
   56.1580   26.2670   46.0130 C   0  0  0  0  0  0  0  0  0  0  0  0
   56.2980   24.9430   46.4360 C   0  0  0  0  0  0  0  0  0  0  0  0
   57.5011   20.9194   46.4984 H   0  0  0  0  0  0  0  0  0  0  0  0
   56.7132   21.9417   45.2491 H   0  0  0  0  0  0  0  0  0  0  0  0
   58.4981   21.7392   45.2491 H   0  0  0  0  0  0  0  0  0  0  0  0
   59.5944   24.4717   45.6569 H   0  0  0  0  0  0  0  0  0  0  0  0
   59.3407   26.8325   44.9036 H   0  0  0  0  0  0  0  0  0  0  0  0
   57.2698   29.0036   48.0378 H   0  0  0  0  0  0  0  0  0  0  0  0
   58.4716   27.9814   47.1537 H   0  0  0  0  0  0  0  0  0  0  0  0
   59.0560   30.7462   48.3185 H   0  0  0  0  0  0  0  0  0  0  0  0
   59.4549   29.1744   49.1145 H   0  0  0  0  0  0  0  0  0  0  0  0
   60.9450   28.6420   47.5300 H   0  0  0  0  0  0  0  0  0  0  0  0
   61.3740   30.7212   48.9853 H   0  0  0  0  0  0  0  0  0  0  0  0
   62.5644   30.1763   47.7207 H   0  0  0  0  0  0  0  0  0  0  0  0
   62.4720   32.4243   47.2404 H   0  0  0  0  0  0  0  0  0  0  0  0
   61.1087   31.7645   46.1906 H   0  0  0  0  0  0  0  0  0  0  0  0
   59.9756   32.4471   48.6666 H   0  0  0  0  0  0  0  0  0  0  0  0
   61.1182   34.1050   49.5601 H   0  0  0  0  0  0  0  0  0  0  0  0
   62.2154   34.2141   48.1421 H   0  0  0  0  0  0  0  0  0  0  0  0
   60.6564   35.1062   48.1421 H   0  0  0  0  0  0  0  0  0  0  0  0
   60.6989   34.3701   45.5159 H   0  0  0  0  0  0  0  0  0  0  0  0
   58.8897   35.1349   43.9827 H   0  0  0  0  0  0  0  0  0  0  0  0
   56.5111   34.5522   44.4629 H   0  0  0  0  0  0  0  0  0  0  0  0
   55.9396   33.2050   46.4816 H   0  0  0  0  0  0  0  0  0  0  0  0
   57.7382   32.4305   48.0233 H   0  0  0  0  0  0  0  0  0  0  0  0
   61.1769   30.3950   45.5073 H   0  0  0  0  0  0  0  0  0  0  0  0
   60.3644   28.7610   45.4676 H   0  0  0  0  0  0  0  0  0  0  0  0
   59.0240   31.4627   45.9176 H   0  0  0  0  0  0  0  0  0  0  0  0
   58.9083   30.3806   44.4564 H   0  0  0  0  0  0  0  0  0  0  0  0
   55.1841   26.7702   46.1038 H   0  0  0  0  0  0  0  0  0  0  0  0
   55.4361   24.4103   46.8642 H   0  0  0  0  0  0  0  0  0  0  0  0
  1  2  1  0
  2  3  1  0
  3  4  2  0
  4  5  1  0
  5  6  2  0
  6  7  1  0
  7  8  2  0
  7  9  2  0
  7 10  1  0
 10 11  1  0
 11 12  1  0
 12 13  1  0
 13 14  1  0
 14 15  1  0
 15 16  1  0
 16 17  1  0
 16 18  1  0
 18 19  2  0
 19 20  1  0
 20 21  2  0
 21 22  1  0
 22 23  2  0
 13 24  1  0
 24 25  1  0
  6 26  1  0
 26 27  2  0
 27  3  1  0
 25 10  1  0
 23 18  1  0
  1 28  1  0
  1 29  1  0
  1 30  1  0
  4 31  1  0
  5 32  1  0
 11 33  1  0
 11 34  1  0
 12 35  1  0
 12 36  1  0
 13 37  1  0
 14 38  1  0
 14 39  1  0
 15 40  1  0
 15 41  1  0
 16 42  1  1
 17 43  1  0
 17 44  1  0
 17 45  1  0
 19 46  1  0
 20 47  1  0
 21 48  1  0
 22 49  1  0
 23 50  1  0
 24 51  1  0
 24 52  1  0
 25 53  1  0
 25 54  1  0
 26 55  1  0
 27 56  1  0
M  CHG  1  13   1
M  END
>  <UniqueID>  (70) 
63

>  <SMILES>  (70) 
COc1ccc(S(=O)(=O)N2CC[NH+](CC[C@@H](C)c3ccccc3)CC2)cc1

>  <Energy>  (70) 
67.4588267451385

>  <Genealogy>  (70) 
COc1ccc(S(=O)(=O)N2CC[NH+](CCC(C)c3ccccc3)CC2)cc1 (protonated)
COc1ccc(S(=O)(=O)N2CC[NH+](CC[C@@H](C)c3ccccc3)CC2)cc1 (chirality)
COc1ccc(S(=O)(=O)N2CC[NH+](CC[C@@H](C)c3ccccc3)CC2)cc1 (3D coordinates assigned)
COc1ccc(S(=O)(=O)N2CC[NH+](CC[C@@H](C)c3ccccc3)CC2)cc1 (nonaromatic ring conformer: 67.4588267451385 kcal/mol)

>  <smiles>  (70) 
COc1ccc(S(=O)(=O)N2CCN(CCC(C)c3ccccc3)CC2)cc1

>  <score_type>  (70) 
oracle

>  <origin>  (70) 
adg

>  <m_score__min__energy>  (70) 
-7.21

>  <m_primary>  (70) 
energy

$$$$
70:0
     RDKit          3D

 46 49  0  0  0  0  0  0  0  0999 V2000
   59.6390   35.3490   45.9170 C   0  0  0  0  0  0  0  0  0  0  0  0
   60.0000   34.0330   46.3160 O   0  0  0  0  0  0  0  0  0  0  0  0
   61.1820   33.7040   46.9980 C   0  0  0  0  0  0  0  0  0  0  0  0
   62.4500   33.8270   46.3960 C   0  0  0  0  0  0  0  0  0  0  0  0
   63.6070   33.5100   47.1140 C   0  0  0  0  0  0  0  0  0  0  0  0
   63.5130   33.0820   48.4390 C   0  0  0  0  0  0  0  0  0  0  0  0
   62.2620   32.9550   49.0440 C   0  0  0  0  0  0  0  0  0  0  0  0
   61.0950   33.2400   48.3250 C   0  0  0  0  0  0  0  0  0  0  0  0
   59.5010   33.0420   49.1330 S   0  0  0  0  0  0  0  0  0  0  0  0
   58.9690   31.6990   48.0460 C   0  0  0  0  0  0  0  0  0  0  0  0
   58.3140   32.0250   46.8980 N   0  0  0  0  0  0  0  0  0  0  0  0
   57.9050   31.0740   46.0220 C   0  0  0  0  0  0  0  0  0  0  0  0
   57.2680   31.4330   44.8740 N   0  0  0  0  0  0  0  0  0  0  0  0
   56.8430   30.5080   43.9720 C   0  0  0  0  0  0  0  0  0  0  0  0
   57.0540   29.1490   44.2110 C   0  0  0  0  0  0  0  0  0  0  0  0
   57.7030   28.7510   45.3810 C   0  0  0  0  0  0  0  0  0  0  0  0
   58.1370   29.7180   46.3030 C   0  0  0  0  0  0  0  0  0  0  0  0
   58.7880   29.3870   47.5010 C   0  0  0  0  0  0  0  0  0  0  0  0
   58.9880   28.1740   47.7920 O   0  0  0  0  0  0  0  0  0  0  0  0
   59.1980   30.3790   48.3570 N   0  0  0  0  0  0  0  0  0  0  0  0
   59.8570   30.0180   49.5870 C   0  0  0  0  0  0  0  0  0  0  0  0
   61.2400   29.7780   49.5940 C   0  0  0  0  0  0  0  0  0  0  0  0
   61.8930   29.4460   50.7820 C   0  0  0  0  0  0  0  0  0  0  0  0
   61.1720   29.3590   51.9740 C   0  0  0  0  0  0  0  0  0  0  0  0
   59.7970   29.6050   51.9820 C   0  0  0  0  0  0  0  0  0  0  0  0
   59.1260   29.9360   50.7890 C   0  0  0  0  0  0  0  0  0  0  0  0
   57.7420   30.1700   50.7510 O   0  0  0  0  0  0  0  0  0  0  0  0
   57.0460   31.0320   51.6440 C   0  0  0  0  0  0  0  0  0  0  0  0
   59.4689   35.9691   46.8095 H   0  0  0  0  0  0  0  0  0  0  0  0
   60.4505   35.7857   45.3164 H   0  0  0  0  0  0  0  0  0  0  0  0
   58.7182   35.3105   45.3164 H   0  0  0  0  0  0  0  0  0  0  0  0
   62.5300   34.1744   45.3554 H   0  0  0  0  0  0  0  0  0  0  0  0
   64.5928   33.5981   46.6339 H   0  0  0  0  0  0  0  0  0  0  0  0
   64.4250   32.8448   49.0064 H   0  0  0  0  0  0  0  0  0  0  0  0
   62.1923   32.6290   50.0923 H   0  0  0  0  0  0  0  0  0  0  0  0
   58.1200   33.0300   46.6850 H   0  0  0  0  0  0  0  0  0  0  0  0
   56.3323   30.8312   43.0529 H   0  0  0  0  0  0  0  0  0  0  0  0
   56.7118   28.3982   43.4836 H   0  0  0  0  0  0  0  0  0  0  0  0
   57.8742   27.6829   45.5806 H   0  0  0  0  0  0  0  0  0  0  0  0
   61.8125   29.8520   48.6577 H   0  0  0  0  0  0  0  0  0  0  0  0
   62.9759   29.2529   50.7789 H   0  0  0  0  0  0  0  0  0  0  0  0
   61.6878   29.0961   52.9093 H   0  0  0  0  0  0  0  0  0  0  0  0
   59.2352   29.5398   52.9255 H   0  0  0  0  0  0  0  0  0  0  0  0
   57.2755   30.7477   52.6816 H   0  0  0  0  0  0  0  0  0  0  0  0
   57.3610   32.0715   51.4704 H   0  0  0  0  0  0  0  0  0  0  0  0
   55.9634   30.9431   51.4704 H   0  0  0  0  0  0  0  0  0  0  0  0
  1  2  1  0
  2  3  1  0
  3  4  2  0
  4  5  1  0
  5  6  2  0
  6  7  1  0
  7  8  2  0
  8  9  1  0
  9 10  1  0
 10 11  2  0
 11 12  1  0
 12 13  2  0
 13 14  1  0
 14 15  2  0
 15 16  1  0
 16 17  2  0
 17 18  1  0
 18 19  2  0
 18 20  1  0
 20 21  1  0
 21 22  2  0
 22 23  1  0
 23 24  2  0
 24 25  1  0
 25 26  2  0
 26 27  1  0
 27 28  1  0
  8  3  1  0
 20 10  1  0
 26 21  1  0
 17 12  1  0
  1 29  1  0
  1 30  1  0
  1 31  1  0
  4 32  1  0
  5 33  1  0
  6 34  1  0
  7 35  1  0
 11 36  1  0
 14 37  1  0
 15 38  1  0
 16 39  1  0
 22 40  1  0
 23 41  1  0
 24 42  1  0
 25 43  1  0
 28 44  1  0
 28 45  1  0
 28 46  1  0
M  CHG  1  11   1
M  END
>  <UniqueID>  (71) 
64

>  <SMILES>  (71) 
COc1ccccc1Sc1[nH+]c2ncccc2c(=O)n1-c1ccccc1OC

>  <Energy>  (71) 
58.275778347383586

>  <Genealogy>  (71) 
COc1ccccc1Sc1[nH+]c2ncccc2c(=O)n1-c1ccccc1OC (protonated)
COc1ccccc1Sc1[nH+]c2ncccc2c(=O)n1-c1ccccc1OC (3D coordinates assigned)
COc1ccccc1Sc1[nH+]c2ncccc2c(=O)n1-c1ccccc1OC (optimized conformer: 58.275778347383586 kcal/mol)

>  <smiles>  (71) 
COc1ccccc1Sc1nc2ncccc2c(=O)n1-c1ccccc1OC

>  <score_type>  (71) 
oracle

>  <origin>  (71) 
adg

>  <m_score__min__energy>  (71) 
-5.8600000000000003

>  <m_primary>  (71) 
energy

$$$$
71:0
     RDKit          3D

 32 33  0  0  0  0  0  0  0  0999 V2000
   58.7230   33.9990   44.9730 C   0  0  0  0  0  0  0  0  0  0  0  0
   59.0860   33.7300   46.4110 C   0  0  0  0  0  0  0  0  0  0  0  0
   59.2800   34.8220   47.2750 C   0  0  0  0  0  0  0  0  0  0  0  0
   59.6400   34.6190   48.6080 C   0  0  0  0  0  0  0  0  0  0  0  0
   59.8030   33.3260   49.0990 C   0  0  0  0  0  0  0  0  0  0  0  0
   59.5990   32.2280   48.2610 C   0  0  0  0  0  0  0  0  0  0  0  0
   59.2290   32.4110   46.9140 C   0  0  0  0  0  0  0  0  0  0  0  0
   58.9880   31.2130   46.0730 C   0  0  0  0  0  0  0  0  0  0  0  0
   57.7650   31.0080   45.5290 N   0  0  0  0  0  0  0  0  0  0  0  0
   57.4790   29.9220   44.7690 C   0  0  0  0  0  0  0  0  0  0  0  0
   56.1150   29.8560   44.2000 C   0  0  0  0  0  0  0  0  0  0  0  0
   55.1410   29.3720   44.8330 O   0  0  0  0  0  0  0  0  0  0  0  0
   58.4810   28.9380   44.5620 C   0  0  0  0  0  0  0  0  0  0  0  0
   58.1860   27.6720   43.7870 C   0  0  0  0  0  0  0  0  0  0  0  0
   59.7680   29.1900   45.1020 C   0  0  0  0  0  0  0  0  0  0  0  0
   60.9180   28.2380   44.8850 C   0  0  0  0  0  0  0  0  0  0  0  0
   59.9810   30.3080   45.8530 N   0  0  0  0  0  0  0  0  0  0  0  0
   57.8398   34.6535   44.9341 H   0  0  0  0  0  0  0  0  0  0  0  0
   59.5669   34.4915   44.4678 H   0  0  0  0  0  0  0  0  0  0  0  0
   58.4974   33.0483   44.4678 H   0  0  0  0  0  0  0  0  0  0  0  0
   59.1468   35.8463   46.8967 H   0  0  0  0  0  0  0  0  0  0  0  0
   59.7953   35.4820   49.2722 H   0  0  0  0  0  0  0  0  0  0  0  0
   60.0929   33.1695   50.1485 H   0  0  0  0  0  0  0  0  0  0  0  0
   59.7285   31.2098   48.6565 H   0  0  0  0  0  0  0  0  0  0  0  0
   55.9458   30.2448   43.1850 H   0  0  0  0  0  0  0  0  0  0  0  0
   57.9940   26.8481   44.4900 H   0  0  0  0  0  0  0  0  0  0  0  0
   57.3001   27.8277   43.1538 H   0  0  0  0  0  0  0  0  0  0  0  0
   59.0495   27.4201   43.1538 H   0  0  0  0  0  0  0  0  0  0  0  0
   61.3124   27.9115   45.8586 H   0  0  0  0  0  0  0  0  0  0  0  0
   60.5673   27.3623   44.3191 H   0  0  0  0  0  0  0  0  0  0  0  0
   61.7128   28.7460   44.3191 H   0  0  0  0  0  0  0  0  0  0  0  0
   60.9290   30.4860   46.2550 H   0  0  0  0  0  0  0  0  0  0  0  0
  1  2  1  0
  2  3  2  0
  3  4  1  0
  4  5  2  0
  5  6  1  0
  6  7  2  0
  7  8  1  0
  8  9  2  0
  9 10  1  0
 10 11  1  0
 11 12  2  0
 10 13  2  0
 13 14  1  0
 13 15  1  0
 15 16  1  0
 15 17  2  0
  7  2  1  0
 17  8  1  0
  1 18  1  0
  1 19  1  0
  1 20  1  0
  3 21  1  0
  4 22  1  0
  5 23  1  0
  6 24  1  0
 11 25  1  0
 14 26  1  0
 14 27  1  0
 14 28  1  0
 16 29  1  0
 16 30  1  0
 16 31  1  0
 17 32  1  0
M  CHG  1  17   1
M  END
>  <UniqueID>  (72) 
65

>  <SMILES>  (72) 
Cc1ccccc1-c1nc(C=O)c(C)c(C)[nH+]1

>  <Energy>  (72) 
43.31710789137034

>  <Genealogy>  (72) 
Cc1ccccc1-c1nc(C=O)c(C)c(C)[nH+]1 (protonated)
Cc1ccccc1-c1nc(C=O)c(C)c(C)[nH+]1 (3D coordinates assigned)
Cc1ccccc1-c1nc(C=O)c(C)c(C)[nH+]1 (optimized conformer: 43.31710789137034 kcal/mol)

>  <smiles>  (72) 
Cc1ccccc1-c1nc(C)c(C)c(C=O)n1

>  <score_type>  (72) 
oracle

>  <origin>  (72) 
adg

>  <m_score__min__energy>  (72) 
-5.71

>  <m_primary>  (72) 
energy

$$$$
72:0
     RDKit          3D

 36 38  0  0  0  0  0  0  0  0999 V2000
   56.9030   28.9870   43.9360 C   0  0  0  0  0  0  0  0  0  0  0  0
   56.8740   29.4150   45.2940 O   0  0  0  0  0  0  0  0  0  0  0  0
   57.9590   29.9880   45.9780 C   0  0  0  0  0  0  0  0  0  0  0  0
   58.8650   29.1920   46.7040 C   0  0  0  0  0  0  0  0  0  0  0  0
   59.9370   29.7710   47.3790 C   0  0  0  0  0  0  0  0  0  0  0  0
   60.1230   31.1520   47.3460 C   0  0  0  0  0  0  0  0  0  0  0  0
   59.2300   31.9740   46.6380 C   0  0  0  0  0  0  0  0  0  0  0  0
   58.1450   31.3920   45.9420 C   0  0  0  0  0  0  0  0  0  0  0  0
   57.2230   32.2910   45.1960 C   0  0  0  0  0  0  0  0  0  0  0  0
   56.2820   31.8260   44.4990 O   0  0  0  0  0  0  0  0  0  0  0  0
   57.3720   33.7800   45.3070 C   0  0  0  0  0  0  0  0  0  0  0  0
   58.8410   34.1610   45.4730 C   0  0  0  0  0  0  0  0  0  0  0  0
   59.4350   33.4050   46.5830 N   0  0  0  0  0  0  0  0  0  0  0  0
   60.0950   34.1040   47.6550 C   0  0  0  0  0  0  0  0  0  0  0  0
   59.4490   34.9590   48.3220 O   0  0  0  0  0  0  0  0  0  0  0  0
   61.5160   33.8430   47.9860 C   0  0  0  0  0  0  0  0  0  0  0  0
   61.9630   33.9370   49.3170 C   0  0  0  0  0  0  0  0  0  0  0  0
   63.3010   33.6820   49.6340 C   0  0  0  0  0  0  0  0  0  0  0  0
   64.2020   33.3230   48.6290 C   0  0  0  0  0  0  0  0  0  0  0  0
   63.7680   33.2140   47.3070 C   0  0  0  0  0  0  0  0  0  0  0  0
   62.4310   33.4680   46.9850 C   0  0  0  0  0  0  0  0  0  0  0  0
   56.9773   27.8901   43.8988 H   0  0  0  0  0  0  0  0  0  0  0  0
   55.9810   29.3094   43.4302 H   0  0  0  0  0  0  0  0  0  0  0  0
   57.7731   29.4308   43.4302 H   0  0  0  0  0  0  0  0  0  0  0  0
   58.7249   28.1015   46.7386 H   0  0  0  0  0  0  0  0  0  0  0  0
   60.6390   29.1364   47.9399 H   0  0  0  0  0  0  0  0  0  0  0  0
   60.9746   31.6014   47.8778 H   0  0  0  0  0  0  0  0  0  0  0  0
   56.9767   34.2520   44.3955 H   0  0  0  0  0  0  0  0  0  0  0  0
   56.8131   34.1281   46.1882 H   0  0  0  0  0  0  0  0  0  0  0  0
   59.3839   33.9311   44.5443 H   0  0  0  0  0  0  0  0  0  0  0  0
   58.9120   35.2369   45.6909 H   0  0  0  0  0  0  0  0  0  0  0  0
   61.2556   34.2128   50.1130 H   0  0  0  0  0  0  0  0  0  0  0  0
   63.6441   33.7642   50.6759 H   0  0  0  0  0  0  0  0  0  0  0  0
   65.2548   33.1260   48.8797 H   0  0  0  0  0  0  0  0  0  0  0  0
   64.4784   32.9280   46.5174 H   0  0  0  0  0  0  0  0  0  0  0  0
   62.0925   33.3740   45.9426 H   0  0  0  0  0  0  0  0  0  0  0  0
  1  2  1  0
  2  3  1  0
  3  4  2  0
  4  5  1  0
  5  6  2  0
  6  7  1  0
  7  8  2  0
  8  9  1  0
  9 10  2  0
  9 11  1  0
 11 12  1  0
 12 13  1  0
 13 14  1  0
 14 15  2  0
 14 16  1  0
 16 17  2  0
 17 18  1  0
 18 19  2  0
 19 20  1  0
 20 21  2  0
  8  3  1  0
 21 16  1  0
 13  7  1  0
  1 22  1  0
  1 23  1  0
  1 24  1  0
  4 25  1  0
  5 26  1  0
  6 27  1  0
 11 28  1  0
 11 29  1  0
 12 30  1  0
 12 31  1  0
 17 32  1  0
 18 33  1  0
 19 34  1  0
 20 35  1  0
 21 36  1  0
M  END
>  <UniqueID>  (73) 
66

>  <SMILES>  (73) 
COc1cccc2c1C(=O)CCN2C(=O)c1ccccc1

>  <Energy>  (73) 
48.288300425030435

>  <Genealogy>  (73) 
COc1cccc2c1C(=O)CCN2C(=O)c1ccccc1 (3D coordinates assigned)
COc1cccc2c1C(=O)CCN2C(=O)c1ccccc1 (nonaromatic ring conformer: 48.288300425030435 kcal/mol)

>  <smiles>  (73) 
COc1cccc2c1C(=O)CCN2C(=O)c1ccccc1

>  <score_type>  (73) 
oracle

>  <origin>  (73) 
adg

>  <m_score__min__energy>  (73) 
-7.6299999999999999

>  <m_primary>  (73) 
energy

$$$$
73:0
     RDKit          3D

 34 36  0  0  0  0  0  0  0  0999 V2000
   53.9660   26.1080   46.3670 H   0  0  0  0  0  0  0  0  0  0  0  0
   54.8780   25.8640   45.9180 N   0  0  0  0  0  0  0  0  0  0  0  0
   55.9310   26.6080   46.0500 C   0  0  0  0  0  0  0  0  0  0  0  0
   56.9910   26.1400   46.7450 N   0  0  0  0  0  0  0  0  0  0  0  0
   58.1130   26.8830   46.9100 C   0  0  0  0  0  0  0  0  0  0  0  0
   59.1660   26.3500   47.6460 C   0  0  0  0  0  0  0  0  0  0  0  0
   59.0857   25.3380   48.0696 H   0  0  0  0  0  0  0  0  0  0  0  0
   60.3140   27.0950   47.8440 C   0  0  0  0  0  0  0  0  0  0  0  0
   61.1504   26.6794   48.4252 H   0  0  0  0  0  0  0  0  0  0  0  0
   60.4040   28.3720   47.3040 C   0  0  0  0  0  0  0  0  0  0  0  0
   61.3169   28.9617   47.4738 H   0  0  0  0  0  0  0  0  0  0  0  0
   59.3840   28.9180   46.5640 N   0  0  0  0  0  0  0  0  0  0  0  0
   59.6260   30.3010   46.0910 C   0  0  0  0  0  0  0  0  0  0  0  0
   60.7083   30.4971   46.1029 H   0  0  0  0  0  0  0  0  0  0  0  0
   59.2192   30.3903   45.0729 H   0  0  0  0  0  0  0  0  0  0  0  0
   58.9220   31.3400   46.9800 C   0  0  0  0  0  0  0  0  0  0  0  0
   57.8571   31.0747   47.0548 H   0  0  0  0  0  0  0  0  0  0  0  0
   59.4163   31.3246   47.9626 H   0  0  0  0  0  0  0  0  0  0  0  0
   59.0320   32.7410   46.4390 C   0  0  0  0  0  0  0  0  0  0  0  0
   59.9760   33.6360   46.9720 C   0  0  0  0  0  0  0  0  0  0  0  0
   60.6171   33.3221   47.8090 H   0  0  0  0  0  0  0  0  0  0  0  0
   60.1030   34.9240   46.4420 C   0  0  0  0  0  0  0  0  0  0  0  0
   60.8425   35.6208   46.8634 H   0  0  0  0  0  0  0  0  0  0  0  0
   59.2920   35.3270   45.3780 C   0  0  0  0  0  0  0  0  0  0  0  0
   59.3960   36.3393   44.9604 H   0  0  0  0  0  0  0  0  0  0  0  0
   58.3490   34.4450   44.8440 C   0  0  0  0  0  0  0  0  0  0  0  0
   57.7109   34.7634   44.0065 H   0  0  0  0  0  0  0  0  0  0  0  0
   58.2160   33.1570   45.3740 C   0  0  0  0  0  0  0  0  0  0  0  0
   57.4690   32.4669   44.9548 H   0  0  0  0  0  0  0  0  0  0  0  0
   58.2150   28.1860   46.3560 C   0  0  0  0  0  0  0  0  0  0  0  0
   57.0760   28.6460   45.6290 C   0  0  0  0  0  0  0  0  0  0  0  0
   57.0390   29.7810   45.0920 O   0  0  0  0  0  0  0  0  0  0  0  0
   55.9780   27.8500   45.5010 N   0  0  0  0  0  0  0  0  0  0  0  0
   55.1540   28.2090   44.9650 H   0  0  0  0  0  0  0  0  0  0  0  0
  1  2  1  0
  2  3  2  0
  3  4  1  0
  4  5  1  0
  5  6  2  0
  6  7  1  0
  6  8  1  0
  8  9  1  0
  8 10  2  0
 10 11  1  0
 10 12  1  0
 12 13  1  0
 13 14  1  0
 13 15  1  0
 13 16  1  0
 16 17  1  0
 16 18  1  0
 16 19  1  0
 19 20  2  0
 20 21  1  0
 20 22  1  0
 22 23  1  0
 22 24  2  0
 24 25  1  0
 24 26  1  0
 26 27  1  0
 26 28  2  0
 28 29  1  0
 12 30  2  0
 30 31  1  0
 31 32  2  0
 31 33  1  0
 33 34  1  0
 33  3  1  0
 30  5  1  0
 28 19  1  0
M  CHG  2   4  -1  12   1
M  END
>  <UniqueID>  (74) 
67

>  <SMILES>  (74) 
[H]/N=c1/[n-]c2ccc[n+](CCc3ccccc3)c2c(=O)[nH]1

>  <Energy>  (74) 
47.84500554513077

>  <Genealogy>  (74) 
N=c1[n-]c2ccc[n+](CCc3ccccc3)c2c(=O)[nH]1 (protonated)
[H]/N=c1/[n-]c2ccc[n+](CCc3ccccc3)c2c(=O)[nH]1 (cis-trans isomerization)
[H]/N=c1/[n-]c2ccc[n+](CCc3ccccc3)c2c(=O)[nH]1 (3D coordinates assigned)
[H]/N=c1/[n-]c2ccc[n+](CCc3ccccc3)c2c(=O)[nH]1 (optimized conformer: 47.84500554513077 kcal/mol)

>  <smiles>  (74) 
N=c1[nH]c(=O)c2c(ccc[n+]2CCc2ccccc2)[nH]1

>  <score_type>  (74) 
oracle

>  <origin>  (74) 
adg

>  <m_score__min__energy>  (74) 
-8.1500000000000004

>  <m_primary>  (74) 
energy

$$$$
74:0
     RDKit          3D

 27 28  0  0  0  0  0  0  0  0999 V2000
   58.9290   33.4670   48.2090 N   0  0  0  0  0  0  0  0  0  0  0  0
   58.6170   33.3320   46.8190 C   0  0  0  0  0  0  0  0  0  0  0  0
   59.1640   34.2230   45.8850 C   0  0  0  0  0  0  0  0  0  0  0  0
   58.8480   34.0990   44.5300 C   0  0  0  0  0  0  0  0  0  0  0  0
   57.9930   33.0810   44.0980 C   0  0  0  0  0  0  0  0  0  0  0  0
   57.4580   32.1700   45.0170 C   0  0  0  0  0  0  0  0  0  0  0  0
   56.5730   31.1440   44.5420 N   0  0  0  0  0  0  0  0  0  0  0  0
   56.6230   29.7550   44.8920 C   0  0  0  0  0  0  0  0  0  0  0  0
   55.5530   29.0900   44.8690 O   0  0  0  0  0  0  0  0  0  0  0  0
   57.8940   29.0710   45.2270 C   0  0  0  0  0  0  0  0  0  0  0  0
   57.9430   28.1360   46.2720 C   0  0  0  0  0  0  0  0  0  0  0  0
   59.1430   27.4920   46.5800 C   0  0  0  0  0  0  0  0  0  0  0  0
   60.2850   27.7810   45.8330 C   0  0  0  0  0  0  0  0  0  0  0  0
   60.2260   28.6760   44.8120 N   0  0  0  0  0  0  0  0  0  0  0  0
   59.0680   29.3160   44.4920 C   0  0  0  0  0  0  0  0  0  0  0  0
   57.7580   32.3120   46.3840 C   0  0  0  0  0  0  0  0  0  0  0  0
   59.1810   34.3970   48.6120 H   0  0  0  0  0  0  0  0  0  0  0  0
   58.9130   32.6380   48.8430 H   0  0  0  0  0  0  0  0  0  0  0  0
   59.8431   35.0210   46.2197 H   0  0  0  0  0  0  0  0  0  0  0  0
   59.2732   34.8044   43.8009 H   0  0  0  0  0  0  0  0  0  0  0  0
   57.7393   32.9952   43.0311 H   0  0  0  0  0  0  0  0  0  0  0  0
   57.0345   27.9099   46.8496 H   0  0  0  0  0  0  0  0  0  0  0  0
   59.1873   26.7640   47.4035 H   0  0  0  0  0  0  0  0  0  0  0  0
   61.2364   27.2829   46.0711 H   0  0  0  0  0  0  0  0  0  0  0  0
   61.0880   28.8740   44.2560 H   0  0  0  0  0  0  0  0  0  0  0  0
   59.0502   30.0286   43.6542 H   0  0  0  0  0  0  0  0  0  0  0  0
   57.3166   31.6194   47.1158 H   0  0  0  0  0  0  0  0  0  0  0  0
  1  2  1  0
  2  3  2  0
  3  4  1  0
  4  5  2  0
  5  6  1  0
  6  7  1  0
  7  8  1  0
  8  9  2  0
  8 10  1  0
 10 11  2  0
 11 12  1  0
 12 13  2  0
 13 14  1  0
 14 15  2  0
  6 16  2  0
 16  2  1  0
 15 10  1  0
  1 17  1  0
  1 18  1  0
  3 19  1  0
  4 20  1  0
  5 21  1  0
 11 22  1  0
 12 23  1  0
 13 24  1  0
 14 25  1  0
 15 26  1  0
 16 27  1  0
M  CHG  2   7  -1  14   1
M  END
>  <UniqueID>  (75) 
68

>  <SMILES>  (75) 
Nc1cccc([N-]C(=O)c2ccc[nH+]c2)c1

>  <Energy>  (75) 
33.50998831641799

>  <Genealogy>  (75) 
Nc1cccc([N-]C(=O)c2ccc[nH+]c2)c1 (protonated)
Nc1cccc([N-]C(=O)c2ccc[nH+]c2)c1 (3D coordinates assigned)
Nc1cccc([N-]C(=O)c2ccc[nH+]c2)c1 (optimized conformer: 33.50998831641799 kcal/mol)

>  <smiles>  (75) 
Nc1cccc(NC(=O)c2cccnc2)c1

>  <score_type>  (75) 
oracle

>  <origin>  (75) 
adg

>  <m_score__min__energy>  (75) 
-6.7400000000000002

>  <m_primary>  (75) 
energy

$$$$
75:0
     RDKit          3D

 50 52  0  0  0  0  0  0  0  0999 V2000
   57.8630   21.6720   44.4010 C   0  0  0  0  0  0  0  0  0  0  0  0
   56.8040   22.7570   44.1060 C   0  0  0  0  0  0  0  0  0  0  0  0
   55.6010   22.5060   45.0450 C   0  0  0  0  0  0  0  0  0  0  0  0
   56.3040   22.6030   42.6520 C   0  0  0  0  0  0  0  0  0  0  0  0
   57.4350   24.1530   44.2880 C   0  0  0  0  0  0  0  0  0  0  0  0
   57.3940   25.0820   43.2260 C   0  0  0  0  0  0  0  0  0  0  0  0
   57.9520   26.3560   43.3560 C   0  0  0  0  0  0  0  0  0  0  0  0
   58.5590   26.7480   44.5560 C   0  0  0  0  0  0  0  0  0  0  0  0
   59.1560   28.0960   44.6810 C   0  0  0  0  0  0  0  0  0  0  0  0
   60.4090   28.2210   44.5970 O   0  0  0  0  0  0  0  0  0  0  0  0
   58.3430   29.2670   44.8980 N   0  0  0  0  0  0  0  0  0  0  0  0
   58.9160   30.4270   45.5890 C   0  0  0  0  0  0  0  0  0  0  0  0
   57.8090   31.4030   46.0080 C   0  0  0  0  0  0  0  0  0  0  0  0
   56.9560   31.8350   44.8710 N   0  0  0  0  0  0  0  0  0  0  0  0
   57.3930   33.1400   44.3330 C   0  0  0  0  0  0  0  0  0  0  0  0
   58.2570   33.8660   45.3190 C   0  0  0  0  0  0  0  0  0  0  0  0
   59.5510   34.3140   45.0900 C   0  0  0  0  0  0  0  0  0  0  0  0
   60.1290   34.9230   46.2110 C   0  0  0  0  0  0  0  0  0  0  0  0
   59.2960   34.9480   47.3230 C   0  0  0  0  0  0  0  0  0  0  0  0
   57.8410   34.2120   46.9110 S   0  0  0  0  0  0  0  0  0  0  0  0
   56.8080   30.8200   43.7920 C   0  0  0  0  0  0  0  0  0  0  0  0
   57.0100   29.3870   44.2950 C   0  0  0  0  0  0  0  0  0  0  0  0
   58.6280   25.8310   45.6140 C   0  0  0  0  0  0  0  0  0  0  0  0
   58.0710   24.5550   45.4870 C   0  0  0  0  0  0  0  0  0  0  0  0
   57.9760   21.5562   45.4890 H   0  0  0  0  0  0  0  0  0  0  0  0
   57.5408   20.7162   43.9620 H   0  0  0  0  0  0  0  0  0  0  0  0
   58.8263   21.9709   43.9620 H   0  0  0  0  0  0  0  0  0  0  0  0
   55.9322   22.5751   46.0917 H   0  0  0  0  0  0  0  0  0  0  0  0
   54.8242   23.2614   44.8556 H   0  0  0  0  0  0  0  0  0  0  0  0
   55.1910   21.5030   44.8556 H   0  0  0  0  0  0  0  0  0  0  0  0
   55.2528   22.2792   42.6581 H   0  0  0  0  0  0  0  0  0  0  0  0
   56.3873   23.5684   42.1314 H   0  0  0  0  0  0  0  0  0  0  0  0
   56.9160   21.8517   42.1314 H   0  0  0  0  0  0  0  0  0  0  0  0
   56.9136   24.7974   42.2783 H   0  0  0  0  0  0  0  0  0  0  0  0
   57.9144   27.0571   42.5092 H   0  0  0  0  0  0  0  0  0  0  0  0
   59.4552   30.0849   46.4847 H   0  0  0  0  0  0  0  0  0  0  0  0
   59.6059   30.9435   44.9055 H   0  0  0  0  0  0  0  0  0  0  0  0
   57.1718   30.9099   46.7569 H   0  0  0  0  0  0  0  0  0  0  0  0
   58.2979   32.3014   46.4129 H   0  0  0  0  0  0  0  0  0  0  0  0
   57.9644   32.9744   43.4077 H   0  0  0  0  0  0  0  0  0  0  0  0
   56.5014   33.7520   44.1315 H   0  0  0  0  0  0  0  0  0  0  0  0
   60.0694   34.2020   44.1263 H   0  0  0  0  0  0  0  0  0  0  0  0
   61.1461   35.3419   46.2112 H   0  0  0  0  0  0  0  0  0  0  0  0
   59.5456   35.3761   48.3050 H   0  0  0  0  0  0  0  0  0  0  0  0
   55.7972   30.9041   43.3663 H   0  0  0  0  0  0  0  0  0  0  0  0
   57.5849   31.0201   43.0394 H   0  0  0  0  0  0  0  0  0  0  0  0
   56.2437   29.1505   45.0479 H   0  0  0  0  0  0  0  0  0  0  0  0
   56.9226   28.6853   43.4524 H   0  0  0  0  0  0  0  0  0  0  0  0
   59.1248   26.1179   46.5525 H   0  0  0  0  0  0  0  0  0  0  0  0
   58.1278   23.8527   46.3317 H   0  0  0  0  0  0  0  0  0  0  0  0
  1  2  1  0
  2  3  1  0
  2  4  1  0
  2  5  1  0
  5  6  2  0
  6  7  1  0
  7  8  2  0
  8  9  1  0
  9 10  2  0
  9 11  1  0
 11 12  1  0
 12 13  1  0
 13 14  1  0
 14 15  1  0
 15 16  1  0
 16 17  2  0
 17 18  1  0
 18 19  2  0
 19 20  1  0
 14 21  1  0
 21 22  1  0
  8 23  1  0
 23 24  2  0
 24  5  1  0
 22 11  1  0
 20 16  1  0
  1 25  1  0
  1 26  1  0
  1 27  1  0
  3 28  1  0
  3 29  1  0
  3 30  1  0
  4 31  1  0
  4 32  1  0
  4 33  1  0
  6 34  1  0
  7 35  1  0
 12 36  1  0
 12 37  1  0
 13 38  1  0
 13 39  1  0
 15 40  1  0
 15 41  1  0
 17 42  1  0
 18 43  1  0
 19 44  1  0
 21 45  1  0
 21 46  1  0
 22 47  1  0
 22 48  1  0
 23 49  1  0
 24 50  1  0
M  END
>  <UniqueID>  (76) 
69

>  <SMILES>  (76) 
CC(C)(C)c1ccc(C(=O)N2CCN(Cc3cccs3)CC2)cc1

>  <Energy>  (76) 
89.12933535616104

>  <Genealogy>  (76) 
CC(C)(C)c1ccc(C(=O)N2CCN(Cc3cccs3)CC2)cc1 (3D coordinates assigned)
CC(C)(C)c1ccc(C(=O)N2CCN(Cc3cccs3)CC2)cc1 (nonaromatic ring conformer: 89.12933535616104 kcal/mol)

>  <smiles>  (76) 
CC(C)(C)c1ccc(C(=O)N2CCN(Cc3cccs3)CC2)cc1

>  <score_type>  (76) 
oracle

>  <origin>  (76) 
adg

>  <m_score__min__energy>  (76) 
-7.8700000000000001

>  <m_primary>  (76) 
energy

$$$$
76:0
     RDKit          3D

 25 26  0  0  0  0  0  0  0  0999 V2000
   58.7600   31.8540   45.3230 C   0  0  0  0  0  0  0  0  0  0  0  0
   58.9190   30.4840   45.9120 C   0  0  0  0  0  0  0  0  0  0  0  0
   58.0080   29.4390   45.8330 C   0  0  0  0  0  0  0  0  0  0  0  0
   56.7620   29.3530   45.2270 C   0  0  0  0  0  0  0  0  0  0  0  0
   56.2610   30.3310   44.6090 O   0  0  0  0  0  0  0  0  0  0  0  0
   56.0880   28.1740   45.3190 N   0  0  0  0  0  0  0  0  0  0  0  0
   56.6180   27.1020   45.9870 C   0  0  0  0  0  0  0  0  0  0  0  0
   55.9580   26.0290   46.0470 O   0  0  0  0  0  0  0  0  0  0  0  0
   57.8560   27.2040   46.5820 N   0  0  0  0  0  0  0  0  0  0  0  0
   58.4520   26.0710   47.3070 C   0  0  0  0  0  0  0  0  0  0  0  0
   58.5040   28.3740   46.4810 N   0  0  0  0  0  0  0  0  0  0  0  0
   59.7100   28.7650   46.9530 C   0  0  0  0  0  0  0  0  0  0  0  0
   60.4870   28.0310   47.6230 O   0  0  0  0  0  0  0  0  0  0  0  0
   59.9910   30.0470   46.6220 N   0  0  0  0  0  0  0  0  0  0  0  0
   61.1970   30.8010   46.9610 C   0  0  0  0  0  0  0  0  0  0  0  0
   58.6742   32.5935   46.1328 H   0  0  0  0  0  0  0  0  0  0  0  0
   59.6368   32.0902   44.7021 H   0  0  0  0  0  0  0  0  0  0  0  0
   57.8524   31.8831   44.7021 H   0  0  0  0  0  0  0  0  0  0  0  0
   55.1470   28.0860   44.8700 H   0  0  0  0  0  0  0  0  0  0  0  0
   58.3626   26.2409   48.3901 H   0  0  0  0  0  0  0  0  0  0  0  0
   57.9246   25.1443   47.0365 H   0  0  0  0  0  0  0  0  0  0  0  0
   59.5144   25.9806   47.0365 H   0  0  0  0  0  0  0  0  0  0  0  0
   61.2955   30.8626   48.0548 H   0  0  0  0  0  0  0  0  0  0  0  0
   62.0775   30.2923   46.5416 H   0  0  0  0  0  0  0  0  0  0  0  0
   61.1252   31.8154   46.5416 H   0  0  0  0  0  0  0  0  0  0  0  0
  1  2  1  0
  2  3  2  0
  3  4  1  0
  4  5  2  0
  4  6  1  0
  6  7  1  0
  7  8  2  0
  7  9  1  0
  9 10  1  0
  9 11  1  0
 11 12  1  0
 12 13  2  0
 12 14  1  0
 14 15  1  0
 14  2  1  0
 11  3  1  0
  1 16  1  0
  1 17  1  0
  1 18  1  0
  6 19  1  0
 10 20  1  0
 10 21  1  0
 10 22  1  0
 15 23  1  0
 15 24  1  0
 15 25  1  0
M  END
>  <UniqueID>  (77) 
70

>  <SMILES>  (77) 
Cc1c2c(=O)[nH]c(=O)n(C)n2c(=O)n1C

>  <Energy>  (77) 
71.3248600380422

>  <Genealogy>  (77) 
Cc1c2c(=O)[nH]c(=O)n(C)n2c(=O)n1C (3D coordinates assigned)
Cc1c2c(=O)[nH]c(=O)n(C)n2c(=O)n1C (optimized conformer: 71.3248600380422 kcal/mol)

>  <smiles>  (77) 
Cc1c2c(=O)[nH]c(=O)n(C)n2c(=O)n1C

>  <score_type>  (77) 
oracle

>  <origin>  (77) 
adg

>  <m_score__min__energy>  (77) 
-5.3799999999999999

>  <m_primary>  (77) 
energy

$$$$
77:0
     RDKit          3D

 36 38  0  0  0  0  0  0  0  0999 V2000
   56.7900   30.2860   42.6950 C   0  0  0  0  0  0  0  0  0  0  0  0
   56.6630   29.3500   43.7120 C   0  0  0  0  0  0  0  0  0  0  0  0
   57.3580   29.9920   45.0990 S   0  0  0  0  0  0  0  0  0  0  0  0
   57.8250   31.4680   44.4270 C   0  0  0  0  0  0  0  0  0  0  0  0
   58.5320   32.5600   45.1430 C   0  0  0  0  0  0  0  0  0  0  0  0
   58.4180   33.8850   44.6970 C   0  0  0  0  0  0  0  0  0  0  0  0
   59.1000   34.8870   45.3820 C   0  0  0  0  0  0  0  0  0  0  0  0
   59.8520   34.5740   46.4650 N   0  0  0  0  0  0  0  0  0  0  0  0
   59.9560   33.2920   46.9040 C   0  0  0  0  0  0  0  0  0  0  0  0
   60.7730   32.9970   48.0530 N   0  0  0  0  0  0  0  0  0  0  0  0
   61.5420   34.1050   48.6550 C   0  0  0  0  0  0  0  0  0  0  0  0
   63.0230   34.1300   48.2390 C   0  0  0  0  0  0  0  0  0  0  0  0
   63.7260   32.7640   48.3550 C   0  0  0  0  0  0  0  0  0  0  0  0
   63.1500   31.6540   47.4600 C   0  0  0  0  0  0  0  0  0  0  0  0
   62.0410   30.8260   48.1270 C   0  0  0  0  0  0  0  0  0  0  0  0
   60.8070   31.6260   48.5960 C   0  0  0  0  0  0  0  0  0  0  0  0
   59.3100   32.2930   46.2350 N   0  0  0  0  0  0  0  0  0  0  0  0
   57.4370   31.4640   43.0870 C   0  0  0  0  0  0  0  0  0  0  0  0
   56.4164   30.1176   41.6742 H   0  0  0  0  0  0  0  0  0  0  0  0
   56.1899   28.3608   43.6246 H   0  0  0  0  0  0  0  0  0  0  0  0
   57.7998   34.1284   43.8203 H   0  0  0  0  0  0  0  0  0  0  0  0
   59.0285   35.9315   45.0445 H   0  0  0  0  0  0  0  0  0  0  0  0
   61.0795   35.0549   48.3487 H   0  0  0  0  0  0  0  0  0  0  0  0
   61.5175   33.9573   49.7448 H   0  0  0  0  0  0  0  0  0  0  0  0
   63.0834   34.4631   47.1924 H   0  0  0  0  0  0  0  0  0  0  0  0
   63.5377   34.8142   48.9297 H   0  0  0  0  0  0  0  0  0  0  0  0
   64.7841   32.9019   48.0880 H   0  0  0  0  0  0  0  0  0  0  0  0
   63.5750   32.4296   49.3920 H   0  0  0  0  0  0  0  0  0  0  0  0
   62.7360   32.1203   46.5538 H   0  0  0  0  0  0  0  0  0  0  0  0
   63.9760   30.9615   47.2405 H   0  0  0  0  0  0  0  0  0  0  0  0
   61.7005   30.0703   47.4039 H   0  0  0  0  0  0  0  0  0  0  0  0
   62.4881   30.3985   49.0366 H   0  0  0  0  0  0  0  0  0  0  0  0
   59.9000   31.0962   48.2693 H   0  0  0  0  0  0  0  0  0  0  0  0
   60.8614   31.7056   49.6918 H   0  0  0  0  0  0  0  0  0  0  0  0
   59.4540   31.3070   46.5430 H   0  0  0  0  0  0  0  0  0  0  0  0
   57.6218   32.3060   42.4037 H   0  0  0  0  0  0  0  0  0  0  0  0
  1  2  2  0
  2  3  1  0
  3  4  1  0
  4  5  1  0
  5  6  2  0
  6  7  1  0
  7  8  2  0
  8  9  1  0
  9 10  1  0
 10 11  1  0
 11 12  1  0
 12 13  1  0
 13 14  1  0
 14 15  1  0
 15 16  1  0
  9 17  2  0
  4 18  2  0
 18  1  1  0
 17  5  1  0
 16 10  1  0
  1 19  1  0
  2 20  1  0
  6 21  1  0
  7 22  1  0
 11 23  1  0
 11 24  1  0
 12 25  1  0
 12 26  1  0
 13 27  1  0
 13 28  1  0
 14 29  1  0
 14 30  1  0
 15 31  1  0
 15 32  1  0
 16 33  1  0
 16 34  1  0
 17 35  1  0
 18 36  1  0
M  CHG  1  17   1
M  END
>  <UniqueID>  (78) 
71

>  <SMILES>  (78) 
c1csc(-c2ccnc(N3CCCCCC3)[nH+]2)c1

>  <Energy>  (78) 
73.79432540760003

>  <Genealogy>  (78) 
c1csc(-c2ccnc(N3CCCCCC3)[nH+]2)c1 (protonated)
c1csc(-c2ccnc(N3CCCCCC3)[nH+]2)c1 (3D coordinates assigned)
c1csc(-c2ccnc(N3CCCCCC3)[nH+]2)c1 (nonaromatic ring conformer: 73.79432540760003 kcal/mol)

>  <smiles>  (78) 
c1csc(-c2ccnc(N3CCCCCC3)n2)c1

>  <score_type>  (78) 
oracle

>  <origin>  (78) 
adg

>  <m_score__min__energy>  (78) 
-3.3500000000000001

>  <m_primary>  (78) 
energy

$$$$
78:0
     RDKit          3D

 54 58  0  0  0  0  0  0  0  0999 V2000
   58.9400   32.7550   50.2520 C   0  0  0  0  0  0  0  0  0  0  0  0
   58.5400   31.9110   49.0470 C   0  0  0  0  0  0  0  0  0  0  0  0
   57.7680   32.6800   48.1260 O   0  0  0  0  0  0  0  0  0  0  0  0
   58.2780   33.4430   47.0580 C   0  0  0  0  0  0  0  0  0  0  0  0
   59.1460   34.5360   47.2620 C   0  0  0  0  0  0  0  0  0  0  0  0
   59.6440   35.2540   46.1730 C   0  0  0  0  0  0  0  0  0  0  0  0
   59.2930   34.8880   44.8740 C   0  0  0  0  0  0  0  0  0  0  0  0
   58.4280   33.8120   44.6580 C   0  0  0  0  0  0  0  0  0  0  0  0
   57.8960   33.0940   45.7500 C   0  0  0  0  0  0  0  0  0  0  0  0
   57.0190   31.9640   45.5790 N   0  0  0  0  0  0  0  0  0  0  0  0
   57.1720   30.8290   44.7150 C   0  0  0  0  0  0  0  0  0  0  0  0
   56.7320   30.8390   43.5340 O   0  0  0  0  0  0  0  0  0  0  0  0
   57.7840   29.5770   45.2540 C   0  0  0  0  0  0  0  0  0  0  0  0
   59.5200   29.3690   44.7170 S   0  0  0  0  0  0  0  0  0  0  0  0
   60.2660   29.7080   46.3360 C   0  0  0  0  0  0  0  0  0  0  0  0
   60.9370   30.9050   46.3800 N   0  0  0  0  0  0  0  0  0  0  0  0
   61.5770   31.6050   47.3470 C   0  0  0  0  0  0  0  0  0  0  0  0
   62.1470   32.8450   47.0260 C   0  0  0  0  0  0  0  0  0  0  0  0
   62.8200   33.7550   47.8730 C   0  0  0  0  0  0  0  0  0  0  0  0
   63.1100   33.6910   49.2540 C   0  0  0  0  0  0  0  0  0  0  0  0
   62.7970   32.6740   50.1630 C   0  0  0  0  0  0  0  0  0  0  0  0
   62.1230   31.5370   49.7890 C   0  0  0  0  0  0  0  0  0  0  0  0
   61.6810   30.4000   50.3680 N   0  0  0  0  0  0  0  0  0  0  0  0
   61.1870   29.9880   49.1770 C   0  0  0  0  0  0  0  0  0  0  0  0
   60.5320   28.8880   48.6860 C   0  0  0  0  0  0  0  0  0  0  0  0
   60.3090   27.9500   49.5020 O   0  0  0  0  0  0  0  0  0  0  0  0
   60.1360   28.7730   47.3670 N   0  0  0  0  0  0  0  0  0  0  0  0
   59.5220   27.5080   47.0190 C   0  0  0  0  0  0  0  0  0  0  0  0
   58.1790   27.2570   47.3520 C   0  0  0  0  0  0  0  0  0  0  0  0
   57.5930   26.0250   47.0360 C   0  0  0  0  0  0  0  0  0  0  0  0
   58.3400   25.0420   46.3790 C   0  0  0  0  0  0  0  0  0  0  0  0
   59.6700   25.2940   46.0220 C   0  0  0  0  0  0  0  0  0  0  0  0
   60.2540   26.5260   46.3300 C   0  0  0  0  0  0  0  0  0  0  0  0
   61.6260   31.1200   48.6030 C   0  0  0  0  0  0  0  0  0  0  0  0
   58.6851   32.2173   51.1771 H   0  0  0  0  0  0  0  0  0  0  0  0
   60.0233   32.9437   50.2241 H   0  0  0  0  0  0  0  0  0  0  0  0
   58.4001   33.7130   50.2241 H   0  0  0  0  0  0  0  0  0  0  0  0
   59.4479   31.5487   48.5427 H   0  0  0  0  0  0  0  0  0  0  0  0
   57.9325   31.0628   49.3956 H   0  0  0  0  0  0  0  0  0  0  0  0
   59.4320   34.8242   48.2843 H   0  0  0  0  0  0  0  0  0  0  0  0
   60.3144   36.1099   46.3400 H   0  0  0  0  0  0  0  0  0  0  0  0
   59.6978   35.4474   44.0177 H   0  0  0  0  0  0  0  0  0  0  0  0
   58.1603   33.5231   43.6309 H   0  0  0  0  0  0  0  0  0  0  0  0
   57.7552   29.6134   46.3530 H   0  0  0  0  0  0  0  0  0  0  0  0
   57.2064   28.7250   44.8661 H   0  0  0  0  0  0  0  0  0  0  0  0
   62.0586   33.1511   45.9731 H   0  0  0  0  0  0  0  0  0  0  0  0
   63.1782   34.6666   47.3723 H   0  0  0  0  0  0  0  0  0  0  0  0
   63.6527   34.5531   49.6691 H   0  0  0  0  0  0  0  0  0  0  0  0
   63.1014   32.7892   51.2138 H   0  0  0  0  0  0  0  0  0  0  0  0
   57.5869   28.0309   47.8624 H   0  0  0  0  0  0  0  0  0  0  0  0
   56.5443   25.8303   47.3048 H   0  0  0  0  0  0  0  0  0  0  0  0
   57.8822   24.0701   46.1426 H   0  0  0  0  0  0  0  0  0  0  0  0
   60.2551   24.5229   45.4994 H   0  0  0  0  0  0  0  0  0  0  0  0
   61.2932   26.7282   46.0312 H   0  0  0  0  0  0  0  0  0  0  0  0
  1  2  1  0
  2  3  1  0
  3  4  1  0
  4  5  2  0
  5  6  1  0
  6  7  2  0
  7  8  1  0
  8  9  2  0
  9 10  1  0
 10 11  1  0
 11 12  2  0
 11 13  1  0
 13 14  1  0
 14 15  1  0
 15 16  2  0
 16 17  1  0
 17 18  2  0
 18 19  1  0
 19 20  2  0
 20 21  1  0
 21 22  2  0
 22 23  1  0
 23 24  1  0
 24 25  1  0
 25 26  2  0
 25 27  1  0
 27 28  1  0
 28 29  2  0
 29 30  1  0
 30 31  2  0
 31 32  1  0
 32 33  2  0
 24 34  2  0
  9  4  1  0
 27 15  1  0
 33 28  1  0
 34 17  1  0
 34 22  1  0
  1 35  1  0
  1 36  1  0
  1 37  1  0
  2 38  1  0
  2 39  1  0
  5 40  1  0
  6 41  1  0
  7 42  1  0
  8 43  1  0
 13 44  1  0
 13 45  1  0
 18 46  1  0
 19 47  1  0
 20 48  1  0
 21 49  1  0
 29 50  1  0
 30 51  1  0
 31 52  1  0
 32 53  1  0
 33 54  1  0
M  CHG  2  10  -1  23  -1
M  END
>  <UniqueID>  (79) 
72

>  <SMILES>  (79) 
CCOc1ccccc1[N-]C(=O)CSc1nc2ccccc3[n-]c(c(=O)n1-c1ccccc1)c23

>  <Energy>  (79) 
90.97883110606638

>  <Genealogy>  (79) 
CCOc1ccccc1[N-]C(=O)CSc1nc2ccccc3[n-]c(c(=O)n1-c1ccccc1)c23 (protonated)
CCOc1ccccc1[N-]C(=O)CSc1nc2ccccc3[n-]c(c(=O)n1-c1ccccc1)c23 (3D coordinates assigned)
CCOc1ccccc1[N-]C(=O)CSc1nc2ccccc3[n-]c(c(=O)n1-c1ccccc1)c23 (optimized conformer: 90.97883110606638 kcal/mol)

>  <smiles>  (79) 
CCOc1ccccc1NC(=O)CSc1nc2ccccc3[nH]c(c(=O)n1-c1ccccc1)c23

>  <score_type>  (79) 
oracle

>  <origin>  (79) 
adg

>  <m_score__min__energy>  (79) 
-12.19

>  <m_primary>  (79) 
energy

$$$$
79:0
     RDKit          3D

 39 40  0  0  0  0  0  0  0  0999 V2000
   57.3830   34.1630   44.8760 C   0  0  0  0  0  0  0  0  0  0  0  0
   58.3150   33.0900   44.9130 O   0  0  0  0  0  0  0  0  0  0  0  0
   58.6750   32.4730   46.1130 C   0  0  0  0  0  0  0  0  0  0  0  0
   58.7000   33.2440   47.2810 C   0  0  0  0  0  0  0  0  0  0  0  0
   59.0900   32.6760   48.4950 C   0  0  0  0  0  0  0  0  0  0  0  0
   59.4630   31.3340   48.5490 C   0  0  0  0  0  0  0  0  0  0  0  0
   59.4340   30.5510   47.3930 C   0  0  0  0  0  0  0  0  0  0  0  0
   59.0000   31.0960   46.1640 C   0  0  0  0  0  0  0  0  0  0  0  0
   58.9750   30.2780   44.9660 N   0  0  0  0  0  0  0  0  0  0  0  0
   58.4950   28.9310   45.2370 C   0  0  0  0  0  0  0  0  0  0  0  0
   59.4040   27.8910   45.5840 C   0  0  0  0  0  0  0  0  0  0  0  0
   60.8980   28.1090   45.6130 C   0  0  0  0  0  0  0  0  0  0  0  0
   58.9180   26.6170   45.9180 C   0  0  0  0  0  0  0  0  0  0  0  0
   57.5460   26.3390   45.9310 C   0  0  0  0  0  0  0  0  0  0  0  0
   57.0650   24.9780   46.3000 C   0  0  0  0  0  0  0  0  0  0  0  0
   57.9190   23.7570   46.1280 C   0  0  0  0  0  0  0  0  0  0  0  0
   55.9050   24.8310   46.7750 O   0  0  0  0  0  0  0  0  0  0  0  0
   56.6480   27.3600   45.5860 C   0  0  0  0  0  0  0  0  0  0  0  0
   57.0980   28.6390   45.2260 C   0  0  0  0  0  0  0  0  0  0  0  0
   56.0670   29.6420   44.8660 C   0  0  0  0  0  0  0  0  0  0  0  0
   54.8450   29.3410   44.8480 O   0  0  0  0  0  0  0  0  0  0  0  0
   56.4400   30.9560   44.6070 O   0  0  0  0  0  0  0  0  0  0  0  0
   57.1249   34.4601   45.9032 H   0  0  0  0  0  0  0  0  0  0  0  0
   57.8296   35.0185   44.3481 H   0  0  0  0  0  0  0  0  0  0  0  0
   56.4734   33.8406   44.3481 H   0  0  0  0  0  0  0  0  0  0  0  0
   58.4104   34.3045   47.2420 H   0  0  0  0  0  0  0  0  0  0  0  0
   59.1030   33.2876   49.4092 H   0  0  0  0  0  0  0  0  0  0  0  0
   59.7809   30.8908   49.5042 H   0  0  0  0  0  0  0  0  0  0  0  0
   59.7523   29.4991   47.4399 H   0  0  0  0  0  0  0  0  0  0  0  0
   59.9360   30.2920   44.5650 H   0  0  0  0  0  0  0  0  0  0  0  0
   58.3730   30.6940   44.2220 H   0  0  0  0  0  0  0  0  0  0  0  0
   61.2410   28.1591   46.6569 H   0  0  0  0  0  0  0  0  0  0  0  0
   61.4003   27.2746   45.1016 H   0  0  0  0  0  0  0  0  0  0  0  0
   61.1409   29.0521   45.1016 H   0  0  0  0  0  0  0  0  0  0  0  0
   59.6309   25.8197   46.1751 H   0  0  0  0  0  0  0  0  0  0  0  0
   58.1959   23.3611   47.1162 H   0  0  0  0  0  0  0  0  0  0  0  0
   57.3577   22.9925   45.5708 H   0  0  0  0  0  0  0  0  0  0  0  0
   58.8297   24.0220   45.5708 H   0  0  0  0  0  0  0  0  0  0  0  0
   55.5677   27.1532   45.5980 H   0  0  0  0  0  0  0  0  0  0  0  0
  1  2  1  0
  2  3  1  0
  3  4  2  0
  4  5  1  0
  5  6  2  0
  6  7  1  0
  7  8  2  0
  8  9  1  0
  9 10  1  0
 10 11  2  0
 11 12  1  0
 11 13  1  0
 13 14  2  0
 14 15  1  0
 15 16  1  0
 15 17  2  0
 14 18  1  0
 18 19  2  0
 19 20  1  0
 20 21  2  0
 20 22  1  0
  8  3  1  0
 19 10  1  0
  1 23  1  0
  1 24  1  0
  1 25  1  0
  4 26  1  0
  5 27  1  0
  6 28  1  0
  7 29  1  0
  9 30  1  0
  9 31  1  0
 12 32  1  0
 12 33  1  0
 12 34  1  0
 13 35  1  0
 16 36  1  0
 16 37  1  0
 16 38  1  0
 18 39  1  0
M  CHG  2   9   1  22  -1
M  END
>  <UniqueID>  (80) 
73

>  <SMILES>  (80) 
COc1ccccc1[NH2+]c1c(C)cc(C(C)=O)cc1C(=O)[O-]

>  <Energy>  (80) 
58.85421031427834

>  <Genealogy>  (80) 
COc1ccccc1[NH2+]c1c(C)cc(C(C)=O)cc1C(=O)[O-] (protonated)
COc1ccccc1[NH2+]c1c(C)cc(C(C)=O)cc1C(=O)[O-] (3D coordinates assigned)
COc1ccccc1[NH2+]c1c(C)cc(C(C)=O)cc1C(=O)[O-] (optimized conformer: 58.85421031427834 kcal/mol)

>  <smiles>  (80) 
COc1ccccc1Nc1c(C)cc(C(C)=O)cc1C(=O)O

>  <score_type>  (80) 
oracle

>  <origin>  (80) 
adg

>  <m_score__min__energy>  (80) 
-7.6699999999999999

>  <m_primary>  (80) 
energy

$$$$
80:0
     RDKit          3D

 30 32  0  0  0  0  0  0  0  0999 V2000
   64.1060   32.6720   48.8370 C   0  0  0  0  0  0  0  0  0  0  0  0
   62.8220   33.2060   48.2780 C   0  0  0  0  0  0  0  0  0  0  0  0
   61.8080   33.6530   49.1400 C   0  0  0  0  0  0  0  0  0  0  0  0
   60.6230   34.1850   48.6200 C   0  0  0  0  0  0  0  0  0  0  0  0
   60.4480   34.2830   47.2350 C   0  0  0  0  0  0  0  0  0  0  0  0
   58.9290   34.9600   46.5680 S   0  0  0  0  0  0  0  0  0  0  0  0
   58.4370   33.3840   45.8790 C   0  0  0  0  0  0  0  0  0  0  0  0
   57.8590   33.2600   44.6560 N   0  0  0  0  0  0  0  0  0  0  0  0
   57.6850   31.9310   44.5700 C   0  0  0  0  0  0  0  0  0  0  0  0
   57.1290   31.2070   43.5190 C   0  0  0  0  0  0  0  0  0  0  0  0
   57.0510   29.8030   43.6540 C   0  0  0  0  0  0  0  0  0  0  0  0
   56.4890   29.0140   42.6030 N   0  0  0  0  0  0  0  0  0  0  0  0
   57.5310   29.1780   44.8330 C   0  0  0  0  0  0  0  0  0  0  0  0
   58.0880   29.9440   45.8740 C   0  0  0  0  0  0  0  0  0  0  0  0
   58.1440   31.3220   45.6980 C   0  0  0  0  0  0  0  0  0  0  0  0
   58.6100   32.2340   46.5070 O   0  0  0  0  0  0  0  0  0  0  0  0
   61.4650   33.8590   46.3710 C   0  0  0  0  0  0  0  0  0  0  0  0
   62.6490   33.3280   46.8900 C   0  0  0  0  0  0  0  0  0  0  0  0
   64.0630   32.6899   49.9360 H   0  0  0  0  0  0  0  0  0  0  0  0
   64.2538   31.6378   48.4926 H   0  0  0  0  0  0  0  0  0  0  0  0
   64.9436   33.2964   48.4926 H   0  0  0  0  0  0  0  0  0  0  0  0
   61.9458   33.5847   50.2292 H   0  0  0  0  0  0  0  0  0  0  0  0
   59.8286   34.5263   49.3001 H   0  0  0  0  0  0  0  0  0  0  0  0
   56.7624   31.7117   42.6130 H   0  0  0  0  0  0  0  0  0  0  0  0
   55.8900   29.4510   41.8680 H   0  0  0  0  0  0  0  0  0  0  0  0
   56.6700   27.9860   42.5510 H   0  0  0  0  0  0  0  0  0  0  0  0
   57.4674   28.0846   44.9348 H   0  0  0  0  0  0  0  0  0  0  0  0
   58.4649   29.4702   46.7924 H   0  0  0  0  0  0  0  0  0  0  0  0
   61.3319   33.9440   45.2824 H   0  0  0  0  0  0  0  0  0  0  0  0
   63.4490   33.0042   46.2080 H   0  0  0  0  0  0  0  0  0  0  0  0
  1  2  1  0
  2  3  2  0
  3  4  1  0
  4  5  2  0
  5  6  1  0
  6  7  1  0
  7  8  2  0
  8  9  1  0
  9 10  2  0
 10 11  1  0
 11 12  1  0
 11 13  2  0
 13 14  1  0
 14 15  2  0
 15 16  1  0
  5 17  1  0
 17 18  2  0
 18  2  1  0
 16  7  1  0
 15  9  1  0
  1 19  1  0
  1 20  1  0
  1 21  1  0
  3 22  1  0
  4 23  1  0
 10 24  1  0
 12 25  1  0
 12 26  1  0
 13 27  1  0
 14 28  1  0
 17 29  1  0
 18 30  1  0
M  END
>  <UniqueID>  (81) 
74

>  <SMILES>  (81) 
Cc1ccc(Sc2nc3cc(N)ccc3o2)cc1

>  <Energy>  (81) 
63.850959559468826

>  <Genealogy>  (81) 
Cc1ccc(Sc2nc3cc(N)ccc3o2)cc1 (3D coordinates assigned)
Cc1ccc(Sc2nc3cc(N)ccc3o2)cc1 (optimized conformer: 63.850959559468826 kcal/mol)

>  <smiles>  (81) 
Cc1ccc(Sc2nc3cc(N)ccc3o2)cc1

>  <score_type>  (81) 
oracle

>  <origin>  (81) 
adg

>  <m_score__min__energy>  (81) 
-7.0599999999999996

>  <m_primary>  (81) 
energy

$$$$
81:0
     RDKit          3D

 26 28  0  0  0  0  0  0  0  0999 V2000
   56.2820   30.8640   44.4920 O   0  0  0  0  0  0  0  0  0  0  0  0
   57.3940   30.9910   45.0710 C   0  0  0  0  0  0  0  0  0  0  0  0
   57.9760   32.2530   45.5120 C   0  0  0  0  0  0  0  0  0  0  0  0
   57.4770   33.5540   45.4580 C   0  0  0  0  0  0  0  0  0  0  0  0
   58.2800   34.5900   45.9680 C   0  0  0  0  0  0  0  0  0  0  0  0
   59.5510   34.3080   46.5150 C   0  0  0  0  0  0  0  0  0  0  0  0
   60.0320   32.9870   46.5570 C   0  0  0  0  0  0  0  0  0  0  0  0
   59.2190   31.9770   46.0430 C   0  0  0  0  0  0  0  0  0  0  0  0
   59.4330   30.5380   45.9470 C   0  0  0  0  0  0  0  0  0  0  0  0
   60.4430   29.9210   46.3780 O   0  0  0  0  0  0  0  0  0  0  0  0
   58.2960   29.9130   45.3390 N   0  0  0  0  0  0  0  0  0  0  0  0
   58.1060   28.5140   45.0600 C   0  0  0  0  0  0  0  0  0  0  0  0
   57.8080   27.6150   46.0980 C   0  0  0  0  0  0  0  0  0  0  0  0
   57.6230   26.2560   45.8260 C   0  0  0  0  0  0  0  0  0  0  0  0
   57.3420   25.3960   46.8370 F   0  0  0  0  0  0  0  0  0  0  0  0
   57.7340   25.7820   44.5150 C   0  0  0  0  0  0  0  0  0  0  0  0
   57.5550   24.4640   44.2510 F   0  0  0  0  0  0  0  0  0  0  0  0
   58.0300   26.6690   43.4750 C   0  0  0  0  0  0  0  0  0  0  0  0
   58.1310   26.2140   42.2030 F   0  0  0  0  0  0  0  0  0  0  0  0
   58.2160   28.0290   43.7460 C   0  0  0  0  0  0  0  0  0  0  0  0
   56.4857   33.7636   45.0297 H   0  0  0  0  0  0  0  0  0  0  0  0
   57.9153   35.6274   45.9406 H   0  0  0  0  0  0  0  0  0  0  0  0
   60.1692   35.1272   46.9110 H   0  0  0  0  0  0  0  0  0  0  0  0
   61.0200   32.7573   46.9826 H   0  0  0  0  0  0  0  0  0  0  0  0
   57.7197   27.9826   47.1310 H   0  0  0  0  0  0  0  0  0  0  0  0
   58.4498   28.7229   42.9251 H   0  0  0  0  0  0  0  0  0  0  0  0
  1  2  2  0
  2  3  1  0
  3  4  2  0
  4  5  1  0
  5  6  2  0
  6  7  1  0
  7  8  2  0
  8  9  1  0
  9 10  2  0
  9 11  1  0
 11 12  1  0
 12 13  2  0
 13 14  1  0
 14 15  1  0
 14 16  2  0
 16 17  1  0
 16 18  1  0
 18 19  1  0
 18 20  2  0
 11  2  1  0
 20 12  1  0
  8  3  1  0
  4 21  1  0
  5 22  1  0
  6 23  1  0
  7 24  1  0
 13 25  1  0
 20 26  1  0
M  END
>  <UniqueID>  (82) 
75

>  <SMILES>  (82) 
O=C1c2ccccc2C(=O)N1c1cc(F)c(F)c(F)c1

>  <Energy>  (82) 
66.1867989414627

>  <Genealogy>  (82) 
O=C1c2ccccc2C(=O)N1c1cc(F)c(F)c(F)c1 (3D coordinates assigned)
O=C1c2ccccc2C(=O)N1c1cc(F)c(F)c(F)c1 (nonaromatic ring conformer: 66.1867989414627 kcal/mol)

>  <smiles>  (82) 
O=C1c2ccccc2C(=O)N1c1cc(F)c(F)c(F)c1

>  <score_type>  (82) 
oracle

>  <origin>  (82) 
adg

>  <m_score__min__energy>  (82) 
-6.4400000000000004

>  <m_primary>  (82) 
energy

$$$$
82:0
     RDKit          3D

 33 35  0  0  0  0  0  0  0  0999 V2000
   57.6170   26.2050   47.0040 C   0  0  0  0  0  0  0  0  0  0  0  0
   58.0920   27.3500   46.0940 C   0  0  0  0  0  0  0  0  0  0  0  0
   59.4360   26.9440   45.4560 C   0  0  0  0  0  0  0  0  0  0  0  0
   58.3000   28.5110   46.9020 O   0  0  0  0  0  0  0  0  0  0  0  0
   58.2980   29.8100   46.3820 C   0  0  0  0  0  0  0  0  0  0  0  0
   58.7340   30.8650   47.1920 C   0  0  0  0  0  0  0  0  0  0  0  0
   58.7650   32.1700   46.6950 C   0  0  0  0  0  0  0  0  0  0  0  0
   59.1860   33.1670   47.4700 O   0  0  0  0  0  0  0  0  0  0  0  0
   59.2420   34.4270   47.0480 C   0  0  0  0  0  0  0  0  0  0  0  0
   59.6490   35.3280   47.8270 O   0  0  0  0  0  0  0  0  0  0  0  0
   58.8530   34.7550   45.7450 C   0  0  0  0  0  0  0  0  0  0  0  0
   58.4040   33.7420   44.8990 C   0  0  0  0  0  0  0  0  0  0  0  0
   58.3530   32.4260   45.3700 C   0  0  0  0  0  0  0  0  0  0  0  0
   57.9060   31.3730   44.5600 C   0  0  0  0  0  0  0  0  0  0  0  0
   57.8500   30.0620   45.0660 C   0  0  0  0  0  0  0  0  0  0  0  0
   57.3880   28.9230   44.1800 C   0  0  2  0  0  0  0  0  0  0  0  0
   56.2780   29.3310   43.4200 O   0  0  0  0  0  0  0  0  0  0  0  0
   57.0250   27.6560   44.9990 C   0  0  2  0  0  0  0  0  0  0  0  0
   55.7390   27.7850   45.5610 O   0  0  0  0  0  0  0  0  0  0  0  0
   57.7389   26.4989   48.0570 H   0  0  0  0  0  0  0  0  0  0  0  0
   56.5566   25.9927   46.8030 H   0  0  0  0  0  0  0  0  0  0  0  0
   58.2158   25.3044   46.8030 H   0  0  0  0  0  0  0  0  0  0  0  0
   60.1663   26.7234   46.2485 H   0  0  0  0  0  0  0  0  0  0  0  0
   59.2905   26.0497   44.8322 H   0  0  0  0  0  0  0  0  0  0  0  0
   59.8099   27.7693   44.8322 H   0  0  0  0  0  0  0  0  0  0  0  0
   59.0539   30.6653   48.2253 H   0  0  0  0  0  0  0  0  0  0  0  0
   58.9006   35.7962   45.3933 H   0  0  0  0  0  0  0  0  0  0  0  0
   58.0926   33.9756   43.8702 H   0  0  0  0  0  0  0  0  0  0  0  0
   57.5974   31.5731   43.5233 H   0  0  0  0  0  0  0  0  0  0  0  0
   58.2239   28.6608   43.5148 H   0  0  0  0  0  0  0  0  0  0  0  0
   55.5820   28.6300   43.5320 H   0  0  0  0  0  0  0  0  0  0  0  0
   57.0180   26.7993   44.3091 H   0  0  0  0  0  0  0  0  0  0  0  0
   55.1460   28.1890   44.8750 H   0  0  0  0  0  0  0  0  0  0  0  0
  1  2  1  0
  2  3  1  0
  2  4  1  0
  4  5  1  0
  5  6  2  0
  6  7  1  0
  7  8  1  0
  8  9  1  0
  9 10  2  0
  9 11  1  0
 11 12  2  0
 12 13  1  0
 13 14  1  0
 14 15  2  0
 15 16  1  0
 16 17  1  0
 16 18  1  0
 18 19  1  0
 18  2  1  0
 15  5  1  0
 13  7  2  0
  1 20  1  0
  1 21  1  0
  1 22  1  0
  3 23  1  0
  3 24  1  0
  3 25  1  0
  6 26  1  0
 11 27  1  0
 12 28  1  0
 14 29  1  0
 16 30  1  6
 17 31  1  0
 18 32  1  6
 19 33  1  0
M  END
>  <UniqueID>  (83) 
76

>  <SMILES>  (83) 
CC1(C)Oc2cc3oc(=O)ccc3cc2[C@H](O)[C@@H]1O

>  <Energy>  (83) 
40.10240720612666

>  <Genealogy>  (83) 
CC1(C)Oc2cc3oc(=O)ccc3cc2[C@H](O)[C@@H]1O (chirality)
CC1(C)Oc2cc3oc(=O)ccc3cc2[C@H](O)[C@@H]1O (3D coordinates assigned)
CC1(C)Oc2cc3oc(=O)ccc3cc2[C@H](O)[C@@H]1O (nonaromatic ring conformer: 40.10240720612666 kcal/mol)

>  <smiles>  (83) 
CC1(C)Oc2cc3oc(=O)ccc3cc2C(O)C1O

>  <score_type>  (83) 
oracle

>  <origin>  (83) 
adg

>  <m_score__min__energy>  (83) 
-6.9800000000000004

>  <m_primary>  (83) 
energy

$$$$
83:0
     RDKit          3D

 48 50  0  0  0  0  0  0  0  0999 V2000
   59.2810   32.7480   49.8620 C   0  0  0  0  0  0  0  0  0  0  0  0
   59.4270   33.9680   48.9580 C   0  0  0  0  0  0  0  0  0  0  0  0
   60.5840   33.8120   48.0720 N   0  0  0  0  0  0  0  0  0  0  0  0
   61.8600   33.4180   48.6010 C   0  0  0  0  0  0  0  0  0  0  0  0
   62.4290   34.1210   49.6750 C   0  0  0  0  0  0  0  0  0  0  0  0
   63.6770   33.7460   50.1820 C   0  0  0  0  0  0  0  0  0  0  0  0
   64.3670   32.6690   49.6180 C   0  0  0  0  0  0  0  0  0  0  0  0
   63.8080   31.9670   48.5460 C   0  0  0  0  0  0  0  0  0  0  0  0
   62.5610   32.3400   48.0370 C   0  0  0  0  0  0  0  0  0  0  0  0
   60.3840   34.0680   46.3630 S   0  0  0  0  0  0  0  0  0  0  0  0
   61.6840   33.8410   45.6440 O   0  0  0  0  0  0  0  0  0  0  0  0
   59.9490   35.4850   46.1160 O   0  0  0  0  0  0  0  0  0  0  0  0
   59.1730   32.9450   45.7550 C   0  0  0  0  0  0  0  0  0  0  0  0
   58.6920   31.9160   46.5760 C   0  0  0  0  0  0  0  0  0  0  0  0
   57.8060   30.9650   46.0640 C   0  0  0  0  0  0  0  0  0  0  0  0
   57.4000   31.0310   44.7240 C   0  0  0  0  0  0  0  0  0  0  0  0
   56.3860   29.7710   44.0270 S   0  0  0  0  0  0  0  0  0  0  0  0
   55.1520   29.5510   44.8550 O   0  0  0  0  0  0  0  0  0  0  0  0
   55.9760   30.1910   42.6430 O   0  0  0  0  0  0  0  0  0  0  0  0
   57.2900   28.2930   43.9400 N   0  0  0  0  0  0  0  0  0  0  0  0
   58.4090   28.0090   44.7970 C   0  0  0  0  0  0  0  0  0  0  0  0
   58.2770   27.1890   45.9340 C   0  0  0  0  0  0  0  0  0  0  0  0
   59.3780   26.9500   46.7630 C   0  0  0  0  0  0  0  0  0  0  0  0
   60.6180   27.5170   46.4640 C   0  0  0  0  0  0  0  0  0  0  0  0
   60.7630   28.3180   45.3280 C   0  0  0  0  0  0  0  0  0  0  0  0
   59.6660   28.5590   44.4950 C   0  0  0  0  0  0  0  0  0  0  0  0
   57.8660   32.0700   43.9100 C   0  0  0  0  0  0  0  0  0  0  0  0
   58.7480   33.0240   44.4230 C   0  0  0  0  0  0  0  0  0  0  0  0
   59.3189   33.0650   50.9146 H   0  0  0  0  0  0  0  0  0  0  0  0
   58.3176   32.2563   49.6616 H   0  0  0  0  0  0  0  0  0  0  0  0
   60.1012   32.0429   49.6616 H   0  0  0  0  0  0  0  0  0  0  0  0
   58.5172   34.0794   48.3498 H   0  0  0  0  0  0  0  0  0  0  0  0
   59.5748   34.8603   49.5841 H   0  0  0  0  0  0  0  0  0  0  0  0
   61.8904   34.9708   50.1197 H   0  0  0  0  0  0  0  0  0  0  0  0
   64.1162   34.2990   51.0254 H   0  0  0  0  0  0  0  0  0  0  0  0
   65.3487   32.3742   50.0172 H   0  0  0  0  0  0  0  0  0  0  0  0
   64.3507   31.1193   48.1023 H   0  0  0  0  0  0  0  0  0  0  0  0
   62.1269   31.7868   47.1911 H   0  0  0  0  0  0  0  0  0  0  0  0
   59.0130   31.8570   47.6265 H   0  0  0  0  0  0  0  0  0  0  0  0
   57.4262   30.1628   46.7137 H   0  0  0  0  0  0  0  0  0  0  0  0
   57.1110   27.6740   43.1180 H   0  0  0  0  0  0  0  0  0  0  0  0
   57.3039   26.7344   46.1713 H   0  0  0  0  0  0  0  0  0  0  0  0
   59.2663   26.3134   47.6531 H   0  0  0  0  0  0  0  0  0  0  0  0
   61.4802   27.3335   47.1219 H   0  0  0  0  0  0  0  0  0  0  0  0
   61.7416   28.7596   45.0887 H   0  0  0  0  0  0  0  0  0  0  0  0
   59.7880   29.1832   43.5975 H   0  0  0  0  0  0  0  0  0  0  0  0
   57.5365   32.1355   42.8626 H   0  0  0  0  0  0  0  0  0  0  0  0
   59.1096   33.8393   43.7791 H   0  0  0  0  0  0  0  0  0  0  0  0
  1  2  1  0
  2  3  1  0
  3  4  1  0
  4  5  2  0
  5  6  1  0
  6  7  2  0
  7  8  1  0
  8  9  2  0
  3 10  1  0
 10 11  2  0
 10 12  2  0
 10 13  1  0
 13 14  2  0
 14 15  1  0
 15 16  2  0
 16 17  1  0
 17 18  2  0
 17 19  2  0
 17 20  1  0
 20 21  1  0
 21 22  2  0
 22 23  1  0
 23 24  2  0
 24 25  1  0
 25 26  2  0
 16 27  1  0
 27 28  2  0
  9  4  1  0
 28 13  1  0
 26 21  1  0
  1 29  1  0
  1 30  1  0
  1 31  1  0
  2 32  1  0
  2 33  1  0
  5 34  1  0
  6 35  1  0
  7 36  1  0
  8 37  1  0
  9 38  1  0
 14 39  1  0
 15 40  1  0
 20 41  1  0
 22 42  1  0
 23 43  1  0
 24 44  1  0
 25 45  1  0
 26 46  1  0
 27 47  1  0
 28 48  1  0
M  END
>  <UniqueID>  (84) 
77

>  <SMILES>  (84) 
CCN(c1ccccc1)S(=O)(=O)c1ccc(S(=O)(=O)Nc2ccccc2)cc1

>  <Energy>  (84) 
53.60987183438342

>  <Genealogy>  (84) 
CCN(c1ccccc1)S(=O)(=O)c1ccc(S(=O)(=O)Nc2ccccc2)cc1 (3D coordinates assigned)
CCN(c1ccccc1)S(=O)(=O)c1ccc(S(=O)(=O)Nc2ccccc2)cc1 (optimized conformer: 53.60987183438342 kcal/mol)

>  <smiles>  (84) 
CCN(c1ccccc1)S(=O)(=O)c1ccc(S(=O)(=O)Nc2ccccc2)cc1

>  <score_type>  (84) 
oracle

>  <origin>  (84) 
adg

>  <m_score__min__energy>  (84) 
-9.7200000000000006

>  <m_primary>  (84) 
energy

$$$$
84:0
     RDKit          3D

 43 45  0  0  0  0  0  0  0  0999 V2000
   55.4833   29.6639   42.3663 H   0  0  0  0  0  0  0  0  0  0  0  0
   56.2050   29.7500   43.1920 C   0  0  0  0  0  0  0  0  0  0  0  0
   57.4070   28.6360   43.5750 S   0  0  0  0  0  0  0  0  0  0  0  0
   57.9790   29.5320   44.8720 C   0  0  0  0  0  0  0  0  0  0  0  0
   58.9570   29.1270   45.6310 N   0  0  0  0  0  0  0  0  0  0  0  0
   59.2670   29.4930   46.9860 C   0  0  0  0  0  0  0  0  0  0  0  0
   59.0910   28.6890   47.9400 O   0  0  0  0  0  0  0  0  0  0  0  0
   59.7400   30.8900   47.2890 C   0  0  1  0  0  0  0  0  0  0  0  0
   60.2327   31.3273   46.4081 H   0  0  0  0  0  0  0  0  0  0  0  0
   58.5680   31.7570   47.6060 N   0  0  0  0  0  0  0  0  0  0  0  0
   58.4430   33.1000   46.4920 S   0  0  0  0  0  0  0  0  0  0  0  0
   56.9970   33.4640   46.2960 O   0  0  0  0  0  0  0  0  0  0  0  0
   59.0280   32.7110   45.1620 O   0  0  0  0  0  0  0  0  0  0  0  0
   59.3250   34.5310   47.1060 C   0  0  0  0  0  0  0  0  0  0  0  0
   59.3114   35.3140   46.3335 H   0  0  0  0  0  0  0  0  0  0  0  0
   58.8242   34.8677   48.0257 H   0  0  0  0  0  0  0  0  0  0  0  0
   60.7580   34.2120   47.4490 C   0  0  0  0  0  0  0  0  0  0  0  0
   61.2060   34.2660   48.7810 C   0  0  0  0  0  0  0  0  0  0  0  0
   60.5113   34.5620   49.5809 H   0  0  0  0  0  0  0  0  0  0  0  0
   62.5310   33.9450   49.0930 C   0  0  0  0  0  0  0  0  0  0  0  0
   62.8801   34.0078   50.1343 H   0  0  0  0  0  0  0  0  0  0  0  0
   63.4120   33.5450   48.0860 C   0  0  0  0  0  0  0  0  0  0  0  0
   64.4537   33.2932   48.3338 H   0  0  0  0  0  0  0  0  0  0  0  0
   62.9690   33.4650   46.7640 C   0  0  0  0  0  0  0  0  0  0  0  0
   63.6597   33.1384   45.9727 H   0  0  0  0  0  0  0  0  0  0  0  0
   61.6500   33.7990   46.4440 C   0  0  0  0  0  0  0  0  0  0  0  0
   61.3081   33.7384   45.4002 H   0  0  0  0  0  0  0  0  0  0  0  0
   58.5330   32.2730   48.9910 C   0  0  0  0  0  0  0  0  0  0  0  0
   57.5373   32.6952   49.1918 H   0  0  0  0  0  0  0  0  0  0  0  0
   59.3093   33.0453   49.0953 H   0  0  0  0  0  0  0  0  0  0  0  0
   58.8170   31.1590   50.0030 C   0  0  0  0  0  0  0  0  0  0  0  0
   58.0382   30.3879   49.9092 H   0  0  0  0  0  0  0  0  0  0  0  0
   58.8172   31.6068   51.0077 H   0  0  0  0  0  0  0  0  0  0  0  0
   60.1910   30.5060   49.7760 C   0  0  0  0  0  0  0  0  0  0  0  0
   60.0753   29.4138   49.8367 H   0  0  0  0  0  0  0  0  0  0  0  0
   60.8713   30.8882   50.5513 H   0  0  0  0  0  0  0  0  0  0  0  0
   60.8010   30.8600   48.4100 C   0  0  0  0  0  0  0  0  0  0  0  0
   61.5632   30.1084   48.1567 H   0  0  0  0  0  0  0  0  0  0  0  0
   61.2408   31.8653   48.4863 H   0  0  0  0  0  0  0  0  0  0  0  0
   57.2680   30.6760   45.0330 N   0  0  0  0  0  0  0  0  0  0  0  0
   57.4010   31.3880   45.7800 H   0  0  0  0  0  0  0  0  0  0  0  0
   56.2840   30.7980   44.1020 C   0  0  0  0  0  0  0  0  0  0  0  0
   55.6022   31.6607   44.0714 H   0  0  0  0  0  0  0  0  0  0  0  0
  1  2  1  0
  2  3  1  0
  3  4  1  0
  4  5  2  0
  5  6  1  0
  6  7  2  0
  6  8  1  0
  8  9  1  6
  8 10  1  0
 10 11  1  0
 11 12  2  0
 11 13  2  0
 11 14  1  0
 14 15  1  0
 14 16  1  0
 14 17  1  0
 17 18  2  0
 18 19  1  0
 18 20  1  0
 20 21  1  0
 20 22  2  0
 22 23  1  0
 22 24  1  0
 24 25  1  0
 24 26  2  0
 26 27  1  0
 10 28  1  0
 28 29  1  0
 28 30  1  0
 28 31  1  0
 31 32  1  0
 31 33  1  0
 31 34  1  0
 34 35  1  0
 34 36  1  0
 34 37  1  0
 37 38  1  0
 37 39  1  0
  4 40  1  0
 40 41  1  0
 40 42  1  0
 42 43  1  0
 42  2  2  0
 37  8  1  0
 26 17  1  0
M  END
>  <UniqueID>  (85) 
78

>  <SMILES>  (85) 
O=C(/N=c1\[nH]ccs1)[C@@H]1CCCCN1S(=O)(=O)Cc1ccccc1

>  <Energy>  (85) 
75.34346334784962

>  <Genealogy>  (85) 
O=C(N=c1[nH]ccs1)[C@@H]1CCCCN1S(=O)(=O)Cc1ccccc1 (chirality)
O=C(/N=c1\[nH]ccs1)[C@@H]1CCCCN1S(=O)(=O)Cc1ccccc1 (cis-trans isomerization)
O=C(/N=c1\[nH]ccs1)[C@@H]1CCCCN1S(=O)(=O)Cc1ccccc1 (3D coordinates assigned)
O=C(/N=c1\[nH]ccs1)[C@@H]1CCCCN1S(=O)(=O)Cc1ccccc1 (nonaromatic ring conformer: 75.34346334784962 kcal/mol)

>  <smiles>  (85) 
O=C(N=c1[nH]ccs1)C1CCCCN1S(=O)(=O)Cc1ccccc1

>  <score_type>  (85) 
oracle

>  <origin>  (85) 
adg

>  <m_score__min__energy>  (85) 
-8.9900000000000002

>  <m_primary>  (85) 
energy

$$$$
85:0
     RDKit          3D

 39 41  0  0  1  0  0  0  0  0999 V2000
   56.3250   21.1980   49.0310 C   0  0  0  0  0  0  0  0  0  0  0  0
   57.3180   21.7720   48.2200 O   0  0  0  0  0  0  0  0  0  0  0  0
   56.9810   22.3130   46.9680 C   0  0  0  0  0  0  0  0  0  0  0  0
   56.6090   21.5130   45.9120 C   0  0  0  0  0  0  0  0  0  0  0  0
   56.2830   22.1000   44.6870 C   0  0  0  0  0  0  0  0  0  0  0  0
   56.3280   23.4790   44.5110 C   0  0  0  0  0  0  0  0  0  0  0  0
   56.7030   24.2680   45.5800 C   0  0  0  0  0  0  0  0  0  0  0  0
   56.7650   25.7180   45.4420 C   0  0  0  0  0  0  0  0  0  0  0  0
   57.6690   26.4050   44.6590 C   0  0  0  0  0  0  0  0  0  0  0  0
   57.3540   27.7410   44.8380 C   0  0  0  0  0  0  0  0  0  0  0  0
   57.9720   28.7000   44.2730 N   0  0  0  0  0  0  0  0  0  0  0  0
   57.7930   30.0600   44.7220 C   0  0  0  0  0  0  0  0  0  0  0  0
   56.6080   30.4250   44.8810 O   0  0  0  0  0  0  0  0  0  0  0  0
   58.8950   30.8920   44.9560 N   0  0  0  0  0  0  0  0  0  0  0  0
   58.8730   32.2250   45.3920 C   0  0  0  0  0  0  0  0  0  0  0  0
   58.3360   33.2870   44.7030 C   0  0  0  0  0  0  0  0  0  0  0  0
   58.3440   34.5890   45.1850 C   0  0  0  0  0  0  0  0  0  0  0  0
   58.9070   34.8710   46.4080 C   0  0  0  0  0  0  0  0  0  0  0  0
   59.4480   33.8090   47.1040 C   0  0  0  0  0  0  0  0  0  0  0  0
   59.4380   32.5210   46.6230 C   0  0  0  0  0  0  0  0  0  0  0  0
   56.3090   27.8190   45.6890 N   0  0  0  0  0  0  0  0  0  0  0  0
   55.9430   26.5850   46.0630 N   0  0  0  0  0  0  0  0  0  0  0  0
   57.0180   23.6590   46.7770 C   0  0  0  0  0  0  0  0  0  0  0  0
   56.5842   21.3478   50.0895 H   0  0  0  0  0  0  0  0  0  0  0  0
   55.3571   21.6759   48.8193 H   0  0  0  0  0  0  0  0  0  0  0  0
   56.2561   20.1208   48.8193 H   0  0  0  0  0  0  0  0  0  0  0  0
   56.5687   20.4203   46.0315 H   0  0  0  0  0  0  0  0  0  0  0  0
   55.9847   21.4587   43.8446 H   0  0  0  0  0  0  0  0  0  0  0  0
   56.0705   23.9308   43.5417 H   0  0  0  0  0  0  0  0  0  0  0  0
   58.4664   25.9832   44.0295 H   0  0  0  0  0  0  0  0  0  0  0  0
   59.8480   30.4450   44.7790 H   0  0  0  0  0  0  0  0  0  0  0  0
   57.8775   33.0955   43.7216 H   0  0  0  0  0  0  0  0  0  0  0  0
   57.8987   35.3977   44.5869 H   0  0  0  0  0  0  0  0  0  0  0  0
   58.9252   35.8940   46.8120 H   0  0  0  0  0  0  0  0  0  0  0  0
   59.9066   34.0012   48.0852 H   0  0  0  0  0  0  0  0  0  0  0  0
   59.8844   31.7144   47.2231 H   0  0  0  0  0  0  0  0  0  0  0  0
   55.8550   28.7130   46.0090 H   0  0  0  0  0  0  0  0  0  0  0  0
   55.1570   26.3410   46.7240 H   0  0  0  0  0  0  0  0  0  0  0  0
   57.3152   24.2965   47.6227 H   0  0  0  0  0  0  0  0  0  0  0  0
  1  2  1  0
  2  3  1  0
  3  4  2  0
  4  5  1  0
  5  6  2  0
  6  7  1  0
  7  8  1  0
  8  9  2  0
  9 10  1  0
 10 11  2  0
 11 12  1  0
 12 13  2  0
 12 14  1  0
 14 15  1  0
 15 16  2  0
 16 17  1  0
 17 18  2  0
 18 19  1  0
 19 20  2  0
 10 21  1  0
 21 22  1  0
  7 23  2  0
 23  3  1  0
 22  8  1  0
 20 15  1  0
  1 24  1  0
  1 25  1  0
  1 26  1  0
  4 27  1  0
  5 28  1  0
  6 29  1  0
  9 30  1  0
 14 31  1  0
 16 32  1  0
 17 33  1  0
 18 34  1  0
 19 35  1  0
 20 36  1  0
 21 37  1  0
 22 38  1  0
 23 39  1  0
M  END
>  <smiles>  (86) 
COc1cccc(-c2cc(=NC(=O)Nc3ccccc3)[nH][nH]2)c1

>  <score_type>  (86) 
oracle

>  <origin>  (86) 
adg

>  <m_score__min__energy>  (86) 
-7.8200000000000003

>  <m_primary>  (86) 
energy

$$$$
86:0
     RDKit          3D

 46 48  0  0  0  0  0  0  0  0999 V2000
   57.7730   32.5290   43.5540 C   0  0  0  0  0  0  0  0  0  0  0  0
   57.8400   33.7540   44.4740 C   0  0  2  0  0  0  0  0  0  0  0  0
   59.3120   34.1360   44.7550 C   0  0  0  0  0  0  0  0  0  0  0  0
   59.4290   34.9510   46.0500 C   0  0  0  0  0  0  0  0  0  0  0  0
   58.9400   34.2090   47.2460 N   0  0  2  0  0  0  0  0  0  0  0  0
   60.2750   33.5440   48.1580 S   0  0  0  0  0  0  0  0  0  0  0  0
   61.4030   33.1890   47.2300 O   0  0  0  0  0  0  0  0  0  0  0  0
   60.7720   34.5600   49.1500 O   0  0  0  0  0  0  0  0  0  0  0  0
   59.7570   32.0840   48.9970 C   0  0  0  0  0  0  0  0  0  0  0  0
   59.0660   32.1640   50.2140 C   0  0  0  0  0  0  0  0  0  0  0  0
   58.6480   30.9990   50.8600 C   0  0  0  0  0  0  0  0  0  0  0  0
   58.9170   29.7480   50.2980 C   0  0  0  0  0  0  0  0  0  0  0  0
   59.6140   29.6500   49.0810 C   0  0  0  0  0  0  0  0  0  0  0  0
   59.9000   28.3260   48.4740 C   0  0  0  0  0  0  0  0  0  0  0  0
   60.4770   27.4390   49.1590 O   0  0  0  0  0  0  0  0  0  0  0  0
   59.6080   28.0470   47.0970 N   0  0  0  0  0  0  0  0  0  0  0  0
   58.4380   28.0760   46.5200 C   0  0  0  0  0  0  0  0  0  0  0  0
   57.5740   26.9600   46.4940 C   0  0  0  0  0  0  0  0  0  0  0  0
   56.3370   27.0630   45.8510 C   0  0  0  0  0  0  0  0  0  0  0  0
   55.9740   28.2250   45.2480 N   0  0  0  0  0  0  0  0  0  0  0  0
   56.7920   29.3100   45.2450 C   0  0  0  0  0  0  0  0  0  0  0  0
   58.0380   29.2520   45.8750 C   0  0  0  0  0  0  0  0  0  0  0  0
   60.0230   30.8300   48.4320 C   0  0  0  0  0  0  0  0  0  0  0  0
   57.9650   33.1340   46.9400 C   0  0  0  0  0  0  0  0  0  0  0  0
   57.0400   33.5240   45.7800 C   0  0  0  0  0  0  0  0  0  0  0  0
   57.7230   31.6148   44.1637 H   0  0  0  0  0  0  0  0  0  0  0  0
   56.8772   32.5958   42.9192 H   0  0  0  0  0  0  0  0  0  0  0  0
   58.6708   32.4977   42.9192 H   0  0  0  0  0  0  0  0  0  0  0  0
   57.3656   34.6024   43.9591 H   0  0  0  0  0  0  0  0  0  0  0  0
   59.9100   33.2179   44.8521 H   0  0  0  0  0  0  0  0  0  0  0  0
   59.6815   34.7489   43.9196 H   0  0  0  0  0  0  0  0  0  0  0  0
   60.4860   35.2122   46.2065 H   0  0  0  0  0  0  0  0  0  0  0  0
   58.7998   35.8460   45.9357 H   0  0  0  0  0  0  0  0  0  0  0  0
   58.4660   34.8980   47.8760 H   0  0  0  0  0  0  0  0  0  0  0  0
   58.8527   33.1463   50.6608 H   0  0  0  0  0  0  0  0  0  0  0  0
   58.1052   31.0660   51.8144 H   0  0  0  0  0  0  0  0  0  0  0  0
   58.5814   28.8346   50.8109 H   0  0  0  0  0  0  0  0  0  0  0  0
   57.8717   26.0170   46.9758 H   0  0  0  0  0  0  0  0  0  0  0  0
   55.6551   26.2001   45.8332 H   0  0  0  0  0  0  0  0  0  0  0  0
   56.4725   30.2364   44.7453 H   0  0  0  0  0  0  0  0  0  0  0  0
   58.7027   30.1284   45.8640 H   0  0  0  0  0  0  0  0  0  0  0  0
   60.5565   30.7670   47.4721 H   0  0  0  0  0  0  0  0  0  0  0  0
   58.5144   32.2209   46.6670 H   0  0  0  0  0  0  0  0  0  0  0  0
   57.3451   32.9673   47.8333 H   0  0  0  0  0  0  0  0  0  0  0  0
   56.3112   32.7166   45.6161 H   0  0  0  0  0  0  0  0  0  0  0  0
   56.5296   34.4620   46.0438 H   0  0  0  0  0  0  0  0  0  0  0  0
  1  2  1  0
  2  3  1  0
  3  4  1  0
  4  5  1  0
  5  6  1  0
  6  7  2  0
  6  8  2  0
  6  9  1  0
  9 10  2  0
 10 11  1  0
 11 12  2  0
 12 13  1  0
 13 14  1  0
 14 15  2  0
 14 16  1  0
 16 17  2  3
 17 18  1  0
 18 19  2  0
 19 20  1  0
 20 21  1  0
 21 22  2  0
 13 23  2  0
  5 24  1  0
 24 25  1  0
 25  2  1  0
 23  9  1  0
 22 17  1  0
  1 26  1  0
  1 27  1  0
  1 28  1  0
  2 29  1  6
  3 30  1  0
  3 31  1  0
  4 32  1  0
  4 33  1  0
  5 34  1  1
 10 35  1  0
 11 36  1  0
 12 37  1  0
 18 38  1  0
 19 39  1  0
 21 40  1  0
 22 41  1  0
 23 42  1  0
 24 43  1  0
 24 44  1  0
 25 45  1  0
 25 46  1  0
M  CHG  2   5   1  20  -1
M  END
>  <UniqueID>  (87) 
79

>  <SMILES>  (87) 
CC1CC[NH+](S(=O)(=O)c2cccc(C(=O)N=c3cc[n-]cc3)c2)CC1

>  <Energy>  (87) 
62.67103320684437

>  <Genealogy>  (87) 
CC1CC[NH+](S(=O)(=O)c2cccc(C(=O)N=c3cc[n-]cc3)c2)CC1 (protonated)
CC1CC[NH+](S(=O)(=O)c2cccc(C(=O)N=c3cc[n-]cc3)c2)CC1 (3D coordinates assigned)
CC1CC[NH+](S(=O)(=O)c2cccc(C(=O)N=c3cc[n-]cc3)c2)CC1 (nonaromatic ring conformer: 62.67103320684437 kcal/mol)

>  <smiles>  (87) 
CC1CCN(S(=O)(=O)c2cccc(C(=O)N=c3cc[nH]cc3)c2)CC1

>  <score_type>  (87) 
oracle

>  <origin>  (87) 
adg

>  <m_score__min__energy>  (87) 
-9.2599999999999998

>  <m_primary>  (87) 
energy

$$$$
87:0
     RDKit          3D

 66 69  0  0  0  0  0  0  0  0999 V2000
   58.4860   32.1360   48.9920 C   0  0  0  0  0  0  0  0  0  0  0  0
   58.9670   32.0080   47.6570 O   0  0  0  0  0  0  0  0  0  0  0  0
   59.0950   33.0710   46.7500 C   0  0  0  0  0  0  0  0  0  0  0  0
   59.5310   34.3490   47.1580 C   0  0  0  0  0  0  0  0  0  0  0  0
   59.6160   35.3940   46.2340 C   0  0  0  0  0  0  0  0  0  0  0  0
   59.2650   35.1820   44.9020 C   0  0  0  0  0  0  0  0  0  0  0  0
   58.8390   33.9200   44.4850 C   0  0  0  0  0  0  0  0  0  0  0  0
   58.7580   32.8570   45.3990 C   0  0  0  0  0  0  0  0  0  0  0  0
   58.3310   31.5600   44.9480 N   0  0  0  0  0  0  0  0  0  0  0  0
   59.0660   30.3650   45.3780 C   0  0  0  0  0  0  0  0  0  0  0  0
   58.7040   29.1650   44.4940 C   0  0  0  0  0  0  0  0  0  0  0  0
   57.2380   28.9640   44.4220 N   0  0  0  0  0  0  0  0  0  0  0  0
   56.7120   28.2620   45.6210 C   0  0  0  0  0  0  0  0  0  0  0  0
   56.9820   26.7410   45.5590 C   0  0  2  0  0  0  0  0  0  0  0  0
   56.2070   26.0670   46.5150 O   0  0  0  0  0  0  0  0  0  0  0  0
   58.4650   26.3950   45.7600 C   0  0  0  0  0  0  0  0  0  0  0  0
   58.9020   26.7940   47.0970 N   0  0  0  0  0  0  0  0  0  0  0  0
   60.0340   27.6530   47.3160 C   0  0  0  0  0  0  0  0  0  0  0  0
   60.6430   28.1490   46.3290 O   0  0  0  0  0  0  0  0  0  0  0  0
   60.5020   27.9460   48.6960 C   0  0  0  0  0  0  0  0  0  0  0  0
   60.5490   26.9010   49.6400 C   0  0  0  0  0  0  0  0  0  0  0  0
   60.9690   27.1430   50.9500 C   0  0  0  0  0  0  0  0  0  0  0  0
   61.3490   28.4250   51.3380 C   0  0  0  0  0  0  0  0  0  0  0  0
   61.3080   29.4730   50.4190 C   0  0  0  0  0  0  0  0  0  0  0  0
   60.8860   29.2490   49.0980 C   0  0  0  0  0  0  0  0  0  0  0  0
   60.8570   30.3510   48.1750 N   0  0  0  0  0  0  0  0  0  0  0  0
   61.8210   31.4200   48.1950 C   0  0  0  0  0  0  0  0  0  0  0  0
   62.7160   31.5570   47.1220 C   0  0  0  0  0  0  0  0  0  0  0  0
   63.6610   32.5860   47.1130 C   0  0  0  0  0  0  0  0  0  0  0  0
   63.7150   33.4970   48.1700 C   0  0  0  0  0  0  0  0  0  0  0  0
   62.8170   33.3850   49.2340 C   0  0  0  0  0  0  0  0  0  0  0  0
   61.8680   32.3580   49.2510 C   0  0  0  0  0  0  0  0  0  0  0  0
   60.9800   32.3030   50.2750 F   0  0  0  0  0  0  0  0  0  0  0  0
   56.4710   30.2020   44.0910 C   0  0  0  0  0  0  0  0  0  0  0  0
   57.3440   31.4490   43.8720 C   0  0  0  0  0  0  0  0  0  0  0  0
   59.3013   31.9190   49.6979 H   0  0  0  0  0  0  0  0  0  0  0  0
   58.1237   33.1618   49.1544 H   0  0  0  0  0  0  0  0  0  0  0  0
   57.6617   31.4260   49.1544 H   0  0  0  0  0  0  0  0  0  0  0  0
   59.8055   34.5239   48.2087 H   0  0  0  0  0  0  0  0  0  0  0  0
   59.9609   36.3867   46.5589 H   0  0  0  0  0  0  0  0  0  0  0  0
   59.3237   36.0093   44.1794 H   0  0  0  0  0  0  0  0  0  0  0  0
   58.5646   33.7568   43.4323 H   0  0  0  0  0  0  0  0  0  0  0  0
   60.1463   30.5577   45.3022 H   0  0  0  0  0  0  0  0  0  0  0  0
   58.7940   30.1352   46.4188 H   0  0  0  0  0  0  0  0  0  0  0  0
   59.0908   29.3395   43.4791 H   0  0  0  0  0  0  0  0  0  0  0  0
   59.1538   28.2637   44.9359 H   0  0  0  0  0  0  0  0  0  0  0  0
   57.1989   28.6740   46.5172 H   0  0  0  0  0  0  0  0  0  0  0  0
   55.6233   28.4153   45.6573 H   0  0  0  0  0  0  0  0  0  0  0  0
   56.6992   26.4111   44.5485 H   0  0  0  0  0  0  0  0  0  0  0  0
   55.8100   26.7610   47.1050 H   0  0  0  0  0  0  0  0  0  0  0  0
   58.6039   25.3103   45.6414 H   0  0  0  0  0  0  0  0  0  0  0  0
   59.0633   26.9354   45.0117 H   0  0  0  0  0  0  0  0  0  0  0  0
   58.2900   26.5360   47.9030 H   0  0  0  0  0  0  0  0  0  0  0  0
   60.2520   25.8845   49.3424 H   0  0  0  0  0  0  0  0  0  0  0  0
   60.9996   26.3183   51.6772 H   0  0  0  0  0  0  0  0  0  0  0  0
   61.6817   28.6112   52.3698 H   0  0  0  0  0  0  0  0  0  0  0  0
   61.6087   30.4840   50.7312 H   0  0  0  0  0  0  0  0  0  0  0  0
   60.2540   30.2450   47.3280 H   0  0  0  0  0  0  0  0  0  0  0  0
   62.6729   30.8485   46.2817 H   0  0  0  0  0  0  0  0  0  0  0  0
   64.3637   32.6787   46.2718 H   0  0  0  0  0  0  0  0  0  0  0  0
   64.4643   34.3023   48.1647 H   0  0  0  0  0  0  0  0  0  0  0  0
   62.8565   34.1078   50.0622 H   0  0  0  0  0  0  0  0  0  0  0  0
   55.8985   30.0165   43.1702 H   0  0  0  0  0  0  0  0  0  0  0  0
   55.8292   30.4157   44.9584 H   0  0  0  0  0  0  0  0  0  0  0  0
   57.8644   31.3652   42.9065 H   0  0  0  0  0  0  0  0  0  0  0  0
   56.7046   32.3441   43.8725 H   0  0  0  0  0  0  0  0  0  0  0  0
  1  2  1  0
  2  3  1  0
  3  4  2  0
  4  5  1  0
  5  6  2  0
  6  7  1  0
  7  8  2  0
  8  9  1  0
  9 10  1  0
 10 11  1  0
 11 12  1  0
 12 13  1  0
 13 14  1  0
 14 15  1  0
 14 16  1  0
 16 17  1  0
 17 18  1  0
 18 19  2  0
 18 20  1  0
 20 21  2  0
 21 22  1  0
 22 23  2  0
 23 24  1  0
 24 25  2  0
 25 26  1  0
 26 27  1  0
 27 28  2  0
 28 29  1  0
 29 30  2  0
 30 31  1  0
 31 32  2  0
 32 33  1  0
 12 34  1  0
 34 35  1  0
  8  3  1  0
 35  9  1  0
 25 20  1  0
 32 27  1  0
  1 36  1  0
  1 37  1  0
  1 38  1  0
  4 39  1  0
  5 40  1  0
  6 41  1  0
  7 42  1  0
 10 43  1  0
 10 44  1  0
 11 45  1  0
 11 46  1  0
 13 47  1  0
 13 48  1  0
 14 49  1  6
 15 50  1  0
 16 51  1  0
 16 52  1  0
 17 53  1  0
 21 54  1  0
 22 55  1  0
 23 56  1  0
 24 57  1  0
 26 58  1  0
 28 59  1  0
 29 60  1  0
 30 61  1  0
 31 62  1  0
 34 63  1  0
 34 64  1  0
 35 65  1  0
 35 66  1  0
M  END
>  <UniqueID>  (88) 
80

>  <SMILES>  (88) 
COc1ccccc1N1CCN(C[C@H](O)CNC(=O)c2ccccc2Nc2ccccc2F)CC1

>  <Energy>  (88) 
92.73122772251044

>  <Genealogy>  (88) 
COc1ccccc1N1CCN(C[C@H](O)CNC(=O)c2ccccc2Nc2ccccc2F)CC1 (chirality)
COc1ccccc1N1CCN(C[C@H](O)CNC(=O)c2ccccc2Nc2ccccc2F)CC1 (3D coordinates assigned)
COc1ccccc1N1CCN(C[C@H](O)CNC(=O)c2ccccc2Nc2ccccc2F)CC1 (nonaromatic ring conformer: 92.73122772251044 kcal/mol)

>  <smiles>  (88) 
COc1ccccc1N1CCN(CC(O)CNC(=O)c2ccccc2Nc2ccccc2F)CC1

>  <score_type>  (88) 
oracle

>  <origin>  (88) 
adg

>  <m_score__min__energy>  (88) 
-9.8900000000000006

>  <m_primary>  (88) 
energy

$$$$
88:0
     RDKit          3D

 47 50  0  0  0  0  0  0  0  0999 V2000
   55.8730   29.8640   42.9990 C   0  0  0  0  0  0  0  0  0  0  0  0
   56.7110   30.8220   43.7810 C   0  0  0  0  0  0  0  0  0  0  0  0
   56.8980   30.7340   45.0850 O   0  0  0  0  0  0  0  0  0  0  0  0
   57.6910   31.7160   45.4400 C   0  0  0  0  0  0  0  0  0  0  0  0
   58.1670   32.0050   46.7160 C   0  0  0  0  0  0  0  0  0  0  0  0
   59.0300   33.1090   46.8690 C   0  0  0  0  0  0  0  0  0  0  0  0
   59.6720   33.4940   48.4630 S   0  0  0  0  0  0  0  0  0  0  0  0
   58.7770   32.8740   49.5010 O   0  0  0  0  0  0  0  0  0  0  0  0
   59.6710   34.9850   48.6600 O   0  0  0  0  0  0  0  0  0  0  0  0
   61.2980   32.8570   48.6010 N   0  0  0  0  0  0  0  0  0  0  0  0
   61.4280   31.9460   49.7740 C   0  0  0  0  0  0  0  0  0  0  0  0
   61.5760   30.4620   49.3990 C   0  0  0  0  0  0  0  0  0  0  0  0
   60.7680   30.1580   48.2160 N   0  0  0  0  0  0  0  0  0  0  0  0
   59.6230   29.2860   48.3220 C   0  0  0  0  0  0  0  0  0  0  0  0
   59.0040   29.2090   49.4180 O   0  0  0  0  0  0  0  0  0  0  0  0
   59.1440   28.4780   47.1830 C   0  0  0  0  0  0  0  0  0  0  0  0
   58.7280   27.1500   47.2560 C   0  0  0  0  0  0  0  0  0  0  0  0
   58.3810   26.5910   46.0660 N   0  0  0  0  0  0  0  0  0  0  0  0
   58.5250   27.4580   45.0400 C   0  0  0  0  0  0  0  0  0  0  0  0
   58.1390   27.0240   43.2260 Br  0  0  0  0  0  0  0  0  0  0  0  0
   59.0940   28.9480   45.5650 S   0  0  0  0  0  0  0  0  0  0  0  0
   61.0020   30.9490   47.0010 C   0  0  0  0  0  0  0  0  0  0  0  0
   61.7510   32.2540   47.3280 C   0  0  0  0  0  0  0  0  0  0  0  0
   59.3970   33.8830   45.7390 C   0  0  0  0  0  0  0  0  0  0  0  0
   58.8990   33.5670   44.4620 C   0  0  0  0  0  0  0  0  0  0  0  0
   58.0400   32.4750   44.3510 C   0  0  0  0  0  0  0  0  0  0  0  0
   57.4000   31.9200   43.2640 C   0  0  0  0  0  0  0  0  0  0  0  0
   57.5230   32.3300   41.8300 C   0  0  0  0  0  0  0  0  0  0  0  0
   55.3099   29.2202   43.6907 H   0  0  0  0  0  0  0  0  0  0  0  0
   55.1700   30.4245   42.3652 H   0  0  0  0  0  0  0  0  0  0  0  0
   56.5220   29.2418   42.3652 H   0  0  0  0  0  0  0  0  0  0  0  0
   57.8778   31.3892   47.5804 H   0  0  0  0  0  0  0  0  0  0  0  0
   61.9120   33.6880   48.7740 H   0  0  0  0  0  0  0  0  0  0  0  0
   62.3155   32.2476   50.3497 H   0  0  0  0  0  0  0  0  0  0  0  0
   60.4971   32.0370   50.3528 H   0  0  0  0  0  0  0  0  0  0  0  0
   62.6326   30.2450   49.1833 H   0  0  0  0  0  0  0  0  0  0  0  0
   61.2303   29.8424   50.2396 H   0  0  0  0  0  0  0  0  0  0  0  0
   58.6837   26.5956   48.2050 H   0  0  0  0  0  0  0  0  0  0  0  0
   61.6032   30.3561   46.2960 H   0  0  0  0  0  0  0  0  0  0  0  0
   60.0289   31.2053   46.5568 H   0  0  0  0  0  0  0  0  0  0  0  0
   62.8265   32.0355   47.4029 H   0  0  0  0  0  0  0  0  0  0  0  0
   61.5426   32.9729   46.5219 H   0  0  0  0  0  0  0  0  0  0  0  0
   60.0774   34.7385   45.8622 H   0  0  0  0  0  0  0  0  0  0  0  0
   59.1783   34.1621   43.5800 H   0  0  0  0  0  0  0  0  0  0  0  0
   57.8387   33.3823   41.7753 H   0  0  0  0  0  0  0  0  0  0  0  0
   58.2706   31.6965   41.3303 H   0  0  0  0  0  0  0  0  0  0  0  0
   56.5501   32.2126   41.3303 H   0  0  0  0  0  0  0  0  0  0  0  0
  1  2  1  0
  2  3  1  0
  3  4  1  0
  4  5  2  0
  5  6  1  0
  6  7  1  0
  7  8  2  0
  7  9  2  0
  7 10  1  0
 10 11  1  0
 11 12  1  0
 12 13  1  0
 13 14  1  0
 14 15  2  0
 14 16  1  0
 16 17  2  0
 17 18  1  0
 18 19  2  0
 19 20  1  0
 19 21  1  0
 13 22  1  0
 22 23  1  0
  6 24  2  0
 24 25  1  0
 25 26  2  0
 26 27  1  0
 27 28  1  0
 27  2  2  0
 26  4  1  0
 23 10  1  0
 21 16  1  0
  1 29  1  0
  1 30  1  0
  1 31  1  0
  5 32  1  0
 10 33  1  0
 11 34  1  0
 11 35  1  0
 12 36  1  0
 12 37  1  0
 17 38  1  0
 22 39  1  0
 22 40  1  0
 23 41  1  0
 23 42  1  0
 24 43  1  0
 25 44  1  0
 28 45  1  0
 28 46  1  0
 28 47  1  0
M  CHG  1  10   1
M  END
>  <UniqueID>  (89) 
81

>  <SMILES>  (89) 
Cc1oc2cc(S(=O)(=O)[NH+]3CCN(C(=O)c4cnc(Br)s4)CC3)ccc2c1C

>  <Energy>  (89) 
121.99607228517819

>  <Genealogy>  (89) 
Cc1oc2cc(S(=O)(=O)[NH+]3CCN(C(=O)c4cnc(Br)s4)CC3)ccc2c1C (protonated)
Cc1oc2cc(S(=O)(=O)[NH+]3CCN(C(=O)c4cnc(Br)s4)CC3)ccc2c1C (3D coordinates assigned)
Cc1oc2cc(S(=O)(=O)[NH+]3CCN(C(=O)c4cnc(Br)s4)CC3)ccc2c1C (nonaromatic ring conformer: 121.99607228517819 kcal/mol)

>  <smiles>  (89) 
Cc1oc2cc(S(=O)(=O)N3CCN(C(=O)c4cnc(Br)s4)CC3)ccc2c1C

>  <score_type>  (89) 
oracle

>  <origin>  (89) 
adg

>  <m_score__min__energy>  (89) 
-8.1400000000000006

>  <m_primary>  (89) 
energy

$$$$
89:0
     RDKit          3D

 43 45  0  0  0  0  0  0  0  0999 V2000
   56.6250   30.1700   44.8950 O   0  0  0  0  0  0  0  0  0  0  0  0
   57.7280   30.7000   44.8740 C   0  0  0  0  0  0  0  0  0  0  0  0
   57.8740   32.0430   44.2060 C   0  0  0  0  0  0  0  0  0  0  0  0
   58.3640   33.0680   45.1950 C   0  0  0  0  0  0  0  0  0  0  0  0
   59.1520   34.1490   44.7590 C   0  0  0  0  0  0  0  0  0  0  0  0
   59.6330   35.0880   45.6800 C   0  0  0  0  0  0  0  0  0  0  0  0
   59.3410   34.9480   47.0410 C   0  0  0  0  0  0  0  0  0  0  0  0
   58.5790   33.8610   47.4880 C   0  0  0  0  0  0  0  0  0  0  0  0
   58.0930   32.9220   46.5700 C   0  0  0  0  0  0  0  0  0  0  0  0
   58.8850   30.0410   45.4680 N   0  0  2  0  0  0  0  0  0  0  0  0
   59.6010   29.1850   44.4870 C   0  0  0  0  0  0  0  0  0  0  0  0
   58.9120   27.8360   44.2310 C   0  0  0  0  0  0  0  0  0  0  0  0
   58.6610   27.0990   45.5430 C   0  0  0  0  0  0  0  0  0  0  0  0
   57.8530   27.9750   46.5040 C   0  0  0  0  0  0  0  0  0  0  0  0
   58.5250   29.3490   46.7430 C   0  0  1  0  0  0  0  0  0  0  0  0
   59.7430   29.2140   47.6970 C   0  0  0  0  0  0  0  0  0  0  0  0
   60.5330   30.4440   47.7180 N   0  0  0  0  0  0  0  0  0  0  0  0
   60.5920   31.3300   48.7310 C   0  0  0  0  0  0  0  0  0  0  0  0
   61.4980   32.3120   48.3920 C   0  0  0  0  0  0  0  0  0  0  0  0
   61.9580   31.9520   47.1380 C   0  0  0  0  0  0  0  0  0  0  0  0
   61.3590   30.8080   46.7480 N   0  0  0  0  0  0  0  0  0  0  0  0
   58.5962   31.9611   43.3804 H   0  0  0  0  0  0  0  0  0  0  0  0
   56.8939   32.3588   43.8192 H   0  0  0  0  0  0  0  0  0  0  0  0
   59.3912   34.2570   43.6908 H   0  0  0  0  0  0  0  0  0  0  0  0
   60.2410   35.9365   45.3329 H   0  0  0  0  0  0  0  0  0  0  0  0
   59.7104   35.6928   47.7613 H   0  0  0  0  0  0  0  0  0  0  0  0
   58.3624   33.7450   48.5602 H   0  0  0  0  0  0  0  0  0  0  0  0
   57.4975   32.0673   46.9235 H   0  0  0  0  0  0  0  0  0  0  0  0
   59.5580   30.8050   45.7050 H   0  0  0  0  0  0  0  0  0  0  0  0
   59.6663   29.7289   43.5331 H   0  0  0  0  0  0  0  0  0  0  0  0
   60.5917   28.9661   44.9119 H   0  0  0  0  0  0  0  0  0  0  0  0
   57.9505   28.0120   43.7264 H   0  0  0  0  0  0  0  0  0  0  0  0
   59.5681   27.2189   43.5996 H   0  0  0  0  0  0  0  0  0  0  0  0
   58.1008   26.1749   45.3376 H   0  0  0  0  0  0  0  0  0  0  0  0
   59.6290   26.8603   46.0078 H   0  0  0  0  0  0  0  0  0  0  0  0
   56.8520   28.1388   46.0783 H   0  0  0  0  0  0  0  0  0  0  0  0
   57.7947   27.4533   47.4707 H   0  0  0  0  0  0  0  0  0  0  0  0
   57.7819   29.9921   47.2372 H   0  0  0  0  0  0  0  0  0  0  0  0
   59.3812   29.0018   48.7139 H   0  0  0  0  0  0  0  0  0  0  0  0
   60.3814   28.3945   47.3353 H   0  0  0  0  0  0  0  0  0  0  0  0
   60.0166   31.2787   49.6671 H   0  0  0  0  0  0  0  0  0  0  0  0
   61.7909   33.1891   48.9877 H   0  0  0  0  0  0  0  0  0  0  0  0
   62.6988   32.5127   46.5491 H   0  0  0  0  0  0  0  0  0  0  0  0
  1  2  2  0
  2  3  1  0
  3  4  1  0
  4  5  2  0
  5  6  1  0
  6  7  2  0
  7  8  1  0
  8  9  2  0
  2 10  1  0
 10 11  1  0
 11 12  1  0
 12 13  1  0
 13 14  1  0
 14 15  1  0
 15 16  1  0
 16 17  1  0
 17 18  1  0
 18 19  2  0
 19 20  1  0
 20 21  2  0
  9  4  1  0
 15 10  1  0
 21 17  1  0
  3 22  1  0
  3 23  1  0
  5 24  1  0
  6 25  1  0
  7 26  1  0
  8 27  1  0
  9 28  1  0
 10 29  1  1
 11 30  1  0
 11 31  1  0
 12 32  1  0
 12 33  1  0
 13 34  1  0
 13 35  1  0
 14 36  1  0
 14 37  1  0
 15 38  1  1
 16 39  1  0
 16 40  1  0
 18 41  1  0
 19 42  1  0
 20 43  1  0
M  CHG  1  10   1
M  END
>  <UniqueID>  (90) 
82

>  <SMILES>  (90) 
O=C(Cc1ccccc1)[N@@H+]1CCCC[C@H]1Cn1cccn1

>  <Energy>  (90) 
72.02282541370163

>  <Genealogy>  (90) 
O=C(Cc1ccccc1)[NH+]1CCCCC1Cn1cccn1 (protonated)
O=C(Cc1ccccc1)[N@@H+]1CCCC[C@H]1Cn1cccn1 (chirality)
O=C(Cc1ccccc1)[N@@H+]1CCCC[C@H]1Cn1cccn1 (3D coordinates assigned)
O=C(Cc1ccccc1)[N@@H+]1CCCC[C@H]1Cn1cccn1 (nonaromatic ring conformer: 72.02282541370163 kcal/mol)

>  <smiles>  (90) 
O=C(Cc1ccccc1)N1CCCCC1Cn1cccn1

>  <score_type>  (90) 
oracle

>  <origin>  (90) 
adg

>  <m_score__min__energy>  (90) 
-5.3600000000000003

>  <m_primary>  (90) 
energy

$$$$
90:0
     RDKit          3D

 52 55  0  0  0  0  0  0  0  0999 V2000
   58.1380   26.9600   42.8440 C   0  0  0  0  0  0  0  0  0  0  0  0
   59.0430   27.7870   43.5690 O   0  0  0  0  0  0  0  0  0  0  0  0
   59.1490   27.8220   44.9680 C   0  0  0  0  0  0  0  0  0  0  0  0
   60.3960   27.7150   45.6150 C   0  0  0  0  0  0  0  0  0  0  0  0
   60.4700   27.6980   47.0090 C   0  0  0  0  0  0  0  0  0  0  0  0
   59.3070   27.7800   47.7740 C   0  0  0  0  0  0  0  0  0  0  0  0
   58.0650   27.8960   47.1450 C   0  0  0  0  0  0  0  0  0  0  0  0
   57.9760   27.9460   45.7490 C   0  0  0  0  0  0  0  0  0  0  0  0
   56.6740   28.0740   45.1580 N   0  0  0  0  0  0  0  0  0  0  0  0
   56.0230   29.2910   44.7800 C   0  0  0  0  0  0  0  0  0  0  0  0
   54.7690   29.3410   44.8380 O   0  0  0  0  0  0  0  0  0  0  0  0
   56.7800   30.4980   44.3690 C   0  0  0  0  0  0  0  0  0  0  0  0
   56.8350   30.8640   43.0140 C   0  0  0  0  0  0  0  0  0  0  0  0
   57.5580   31.9900   42.6150 C   0  0  0  0  0  0  0  0  0  0  0  0
   57.6260   32.4740   40.7680 Br  0  0  0  0  0  0  0  0  0  0  0  0
   58.2290   32.7630   43.5640 C   0  0  0  0  0  0  0  0  0  0  0  0
   58.1840   32.4170   44.9250 C   0  0  0  0  0  0  0  0  0  0  0  0
   58.8660   33.2200   45.9060 N   0  0  0  0  0  0  0  0  0  0  0  0
   58.4860   33.1580   47.3220 C   0  0  0  0  0  0  0  0  0  0  0  0
   59.7070   32.7640   48.1550 C   0  0  0  0  0  0  0  0  0  0  0  0
   60.8850   33.5730   47.7960 N   0  0  0  0  0  0  0  0  0  0  0  0
   62.0620   33.5350   48.6270 C   0  0  0  0  0  0  0  0  0  0  0  0
   63.2760   33.0160   48.1450 C   0  0  0  0  0  0  0  0  0  0  0  0
   64.3980   33.0010   48.9770 C   0  0  0  0  0  0  0  0  0  0  0  0
   64.3030   33.4900   50.2780 C   0  0  0  0  0  0  0  0  0  0  0  0
   63.0850   33.9990   50.7290 C   0  0  0  0  0  0  0  0  0  0  0  0
   62.0050   34.0120   49.9030 N   0  0  0  0  0  0  0  0  0  0  0  0
   60.7890   34.5790   46.7260 C   0  0  0  0  0  0  0  0  0  0  0  0
   60.0400   34.0110   45.5100 C   0  0  0  0  0  0  0  0  0  0  0  0
   57.4450   31.2930   45.3220 C   0  0  0  0  0  0  0  0  0  0  0  0
   57.5153   26.3910   43.5500 H   0  0  0  0  0  0  0  0  0  0  0  0
   57.4940   27.5882   42.2110 H   0  0  0  0  0  0  0  0  0  0  0  0
   58.7057   26.2621   42.2110 H   0  0  0  0  0  0  0  0  0  0  0  0
   61.3172   27.6444   45.0179 H   0  0  0  0  0  0  0  0  0  0  0  0
   61.4485   27.6197   47.5053 H   0  0  0  0  0  0  0  0  0  0  0  0
   59.3675   27.7534   48.8720 H   0  0  0  0  0  0  0  0  0  0  0  0
   57.1491   27.9485   47.7520 H   0  0  0  0  0  0  0  0  0  0  0  0
   56.3053   30.2599   42.2626 H   0  0  0  0  0  0  0  0  0  0  0  0
   58.7969   33.6491   43.2441 H   0  0  0  0  0  0  0  0  0  0  0  0
   58.1207   34.1430   47.6481 H   0  0  0  0  0  0  0  0  0  0  0  0
   57.6899   32.4112   47.4581 H   0  0  0  0  0  0  0  0  0  0  0  0
   59.4785   32.9171   49.2200 H   0  0  0  0  0  0  0  0  0  0  0  0
   59.9376   31.7074   47.9539 H   0  0  0  0  0  0  0  0  0  0  0  0
   63.3422   32.6242   47.1193 H   0  0  0  0  0  0  0  0  0  0  0  0
   65.3543   32.6040   48.6058 H   0  0  0  0  0  0  0  0  0  0  0  0
   65.1793   33.4749   50.9427 H   0  0  0  0  0  0  0  0  0  0  0  0
   62.9982   34.3901   51.7535 H   0  0  0  0  0  0  0  0  0  0  0  0
   60.2474   35.4583   47.1049 H   0  0  0  0  0  0  0  0  0  0  0  0
   61.8055   34.8611   46.4144 H   0  0  0  0  0  0  0  0  0  0  0  0
   59.7079   34.8461   44.8757 H   0  0  0  0  0  0  0  0  0  0  0  0
   60.7288   33.3476   44.9664 H   0  0  0  0  0  0  0  0  0  0  0  0
   57.3843   31.0300   46.3884 H   0  0  0  0  0  0  0  0  0  0  0  0
  1  2  1  0
  2  3  1  0
  3  4  2  0
  4  5  1  0
  5  6  2  0
  6  7  1  0
  7  8  2  0
  8  9  1  0
  9 10  1  0
 10 11  2  0
 10 12  1  0
 12 13  2  0
 13 14  1  0
 14 15  1  0
 14 16  2  0
 16 17  1  0
 17 18  1  0
 18 19  1  0
 19 20  1  0
 20 21  1  0
 21 22  1  0
 22 23  2  0
 23 24  1  0
 24 25  2  0
 25 26  1  0
 26 27  2  0
 21 28  1  0
 28 29  1  0
 17 30  2  0
  8  3  1  0
 30 12  1  0
 29 18  1  0
 27 22  1  0
  1 31  1  0
  1 32  1  0
  1 33  1  0
  4 34  1  0
  5 35  1  0
  6 36  1  0
  7 37  1  0
 13 38  1  0
 16 39  1  0
 19 40  1  0
 19 41  1  0
 20 42  1  0
 20 43  1  0
 23 44  1  0
 24 45  1  0
 25 46  1  0
 26 47  1  0
 28 48  1  0
 28 49  1  0
 29 50  1  0
 29 51  1  0
 30 52  1  0
M  CHG  1   9  -1
M  END
>  <UniqueID>  (91) 
83

>  <SMILES>  (91) 
COc1ccccc1[N-]C(=O)c1cc(Br)cc(N2CCN(c3ccccn3)CC2)c1

>  <Energy>  (91) 
69.73606867836305

>  <Genealogy>  (91) 
COc1ccccc1[N-]C(=O)c1cc(Br)cc(N2CCN(c3ccccn3)CC2)c1 (protonated)
COc1ccccc1[N-]C(=O)c1cc(Br)cc(N2CCN(c3ccccn3)CC2)c1 (3D coordinates assigned)
COc1ccccc1[N-]C(=O)c1cc(Br)cc(N2CCN(c3ccccn3)CC2)c1 (nonaromatic ring conformer: 69.73606867836305 kcal/mol)

>  <smiles>  (91) 
COc1ccccc1NC(=O)c1cc(Br)cc(N2CCN(c3ccccn3)CC2)c1

>  <score_type>  (91) 
oracle

>  <origin>  (91) 
adg

>  <m_score__min__energy>  (91) 
-11.220000000000001

>  <m_primary>  (91) 
energy

$$$$
91:0
     RDKit          3D

 31 32  0  0  0  0  0  0  0  0999 V2000
   54.7680   26.3360   45.9970 N   0  0  0  0  0  0  0  0  0  0  0  0
   56.1090   25.2500   46.0840 S   0  0  0  0  0  0  0  0  0  0  0  0
   56.0770   24.3410   44.8860 O   0  0  0  0  0  0  0  0  0  0  0  0
   56.0020   24.4130   47.3280 O   0  0  0  0  0  0  0  0  0  0  0  0
   57.6170   26.1710   46.1200 C   0  0  0  0  0  0  0  0  0  0  0  0
   57.5770   27.5610   46.3150 C   0  0  0  0  0  0  0  0  0  0  0  0
   58.7560   28.3190   46.3360 C   0  0  0  0  0  0  0  0  0  0  0  0
   58.6770   29.7370   46.5610 N   0  0  0  0  0  0  0  0  0  0  0  0
   57.7400   30.6080   45.9110 C   0  0  0  0  0  0  0  0  0  0  0  0
   56.8050   30.1320   45.2120 O   0  0  0  0  0  0  0  0  0  0  0  0
   57.8880   32.0250   46.0590 N   0  0  0  0  0  0  0  0  0  0  0  0
   58.5520   32.7100   47.1330 C   0  0  0  0  0  0  0  0  0  0  0  0
   58.6190   32.1610   48.4280 C   0  0  0  0  0  0  0  0  0  0  0  0
   59.2910   32.8400   49.4490 C   0  0  0  0  0  0  0  0  0  0  0  0
   59.9140   34.0620   49.1850 C   0  0  0  0  0  0  0  0  0  0  0  0
   59.8730   34.6020   47.8980 C   0  0  0  0  0  0  0  0  0  0  0  0
   59.2030   33.9280   46.8700 C   0  0  0  0  0  0  0  0  0  0  0  0
   59.1760   34.6350   45.2610 Cl  0  0  0  0  0  0  0  0  0  0  0  0
   59.9920   27.6670   46.2010 C   0  0  0  0  0  0  0  0  0  0  0  0
   60.0410   26.2850   46.0100 C   0  0  0  0  0  0  0  0  0  0  0  0
   58.8640   25.5330   45.9630 C   0  0  0  0  0  0  0  0  0  0  0  0
   58.9960   23.7930   45.7190 Cl  0  0  0  0  0  0  0  0  0  0  0  0
   55.1530   27.3030   46.0810 H   0  0  0  0  0  0  0  0  0  0  0  0
   56.6074   28.0618   46.4531 H   0  0  0  0  0  0  0  0  0  0  0  0
   59.2740   30.1520   47.3120 H   0  0  0  0  0  0  0  0  0  0  0  0
   58.1402   31.1931   48.6374 H   0  0  0  0  0  0  0  0  0  0  0  0
   59.3291   32.4113   50.4613 H   0  0  0  0  0  0  0  0  0  0  0  0
   60.4366   34.5986   49.9905 H   0  0  0  0  0  0  0  0  0  0  0  0
   60.3695   35.5615   47.6909 H   0  0  0  0  0  0  0  0  0  0  0  0
   60.9254   28.2473   46.2459 H   0  0  0  0  0  0  0  0  0  0  0  0
   61.0136   25.7840   45.8956 H   0  0  0  0  0  0  0  0  0  0  0  0
  1  2  1  0
  2  3  2  0
  2  4  2  0
  2  5  1  0
  5  6  2  0
  6  7  1  0
  7  8  1  0
  8  9  1  0
  9 10  2  0
  9 11  1  0
 11 12  1  0
 12 13  2  0
 13 14  1  0
 14 15  2  0
 15 16  1  0
 16 17  2  0
 17 18  1  0
  7 19  2  0
 19 20  1  0
 20 21  2  0
 21 22  1  0
 21  5  1  0
 17 12  1  0
  1 23  1  0
  6 24  1  0
  8 25  1  0
 13 26  1  0
 14 27  1  0
 15 28  1  0
 16 29  1  0
 19 30  1  0
 20 31  1  0
M  CHG  2   1  -1  11  -1
M  END
>  <UniqueID>  (92) 
84

>  <SMILES>  (92) 
[NH-]S(=O)(=O)c1cc(NC(=O)[N-]c2ccccc2Cl)ccc1Cl

>  <Energy>  (92) 
40.35046375486194

>  <Genealogy>  (92) 
[NH-]S(=O)(=O)c1cc(NC(=O)[N-]c2ccccc2Cl)ccc1Cl (protonated)
[NH-]S(=O)(=O)c1cc(NC(=O)[N-]c2ccccc2Cl)ccc1Cl (3D coordinates assigned)
[NH-]S(=O)(=O)c1cc(NC(=O)[N-]c2ccccc2Cl)ccc1Cl (optimized conformer: 40.35046375486194 kcal/mol)

>  <smiles>  (92) 
NS(=O)(=O)c1cc(NC(=O)Nc2ccccc2Cl)ccc1Cl

>  <score_type>  (92) 
oracle

>  <origin>  (92) 
adg

>  <m_score__min__energy>  (92) 
-12.83

>  <m_primary>  (92) 
energy

$$$$
92:0
     RDKit          3D

 53 56  0  0  0  0  0  0  0  0999 V2000
   59.6100   35.3360   47.0500 C   0  0  0  0  0  0  0  0  0  0  0  0
   59.1740   34.0410   46.5570 N   0  0  0  0  0  0  0  0  0  0  0  0
   58.5270   33.8760   45.3030 C   0  0  0  0  0  0  0  0  0  0  0  0
   58.3500   34.9440   44.6290 O   0  0  0  0  0  0  0  0  0  0  0  0
   58.0920   32.5830   44.8120 C   0  0  0  0  0  0  0  0  0  0  0  0
   57.7890   32.3210   43.4920 C   0  0  0  0  0  0  0  0  0  0  0  0
   57.3750   31.0870   43.0360 C   0  0  0  0  0  0  0  0  0  0  0  0
   57.2670   30.0810   43.9690 C   0  0  0  0  0  0  0  0  0  0  0  0
   56.9040   28.7670   43.9250 N   0  0  0  0  0  0  0  0  0  0  0  0
   56.9610   28.2050   45.1170 C   0  0  0  0  0  0  0  0  0  0  0  0
   56.7060   26.8410   45.6160 C   0  0  0  0  0  0  0  0  0  0  0  0
   57.5440   25.7570   45.0620 C   0  0  0  0  0  0  0  0  0  0  0  0
   58.2090   24.8950   46.0870 C   0  0  0  0  0  0  0  0  0  0  0  0
   58.5800   25.6760   47.3310 C   0  0  0  0  0  0  0  0  0  0  0  0
   59.2770   26.9350   47.0630 C   0  0  0  0  0  0  0  0  0  0  0  0
   59.2470   27.9290   47.9750 N   0  0  0  0  0  0  0  0  0  0  0  0
   59.8630   29.1160   47.8010 C   0  0  0  0  0  0  0  0  0  0  0  0
   59.7460   30.0410   48.8250 C   0  0  0  0  0  0  0  0  0  0  0  0
   58.9710   29.7370   50.0700 C   0  0  0  0  0  0  0  0  0  0  0  0
   60.3780   31.2570   48.6470 C   0  0  0  0  0  0  0  0  0  0  0  0
   61.0930   31.5230   47.4870 C   0  0  0  0  0  0  0  0  0  0  0  0
   61.1860   30.5630   46.4780 C   0  0  0  0  0  0  0  0  0  0  0  0
   60.5620   29.3510   46.6450 C   0  0  0  0  0  0  0  0  0  0  0  0
   60.5990   28.3410   45.7050 C   0  0  0  0  0  0  0  0  0  0  0  0
   61.2590   28.5470   44.6000 N   0  0  0  0  0  0  0  0  0  0  0  0
   59.9630   27.1700   45.9310 N   0  0  0  0  0  0  0  0  0  0  0  0
   57.3760   29.1850   45.9730 N   0  0  0  0  0  0  0  0  0  0  0  0
   57.5620   30.3160   45.2900 C   0  0  0  0  0  0  0  0  0  0  0  0
   57.9710   31.5470   45.7210 C   0  0  0  0  0  0  0  0  0  0  0  0
   59.6077   35.3293   48.1500 H   0  0  0  0  0  0  0  0  0  0  0  0
   60.6274   35.5431   46.6867 H   0  0  0  0  0  0  0  0  0  0  0  0
   58.9250   36.1162   46.6867 H   0  0  0  0  0  0  0  0  0  0  0  0
   59.3610   33.2240   47.1760 H   0  0  0  0  0  0  0  0  0  0  0  0
   57.8826   33.1403   42.7640 H   0  0  0  0  0  0  0  0  0  0  0  0
   57.1417   30.9147   41.9749 H   0  0  0  0  0  0  0  0  0  0  0  0
   56.6130   28.3380   43.0320 H   0  0  0  0  0  0  0  0  0  0  0  0
   56.8560   26.8527   46.7057 H   0  0  0  0  0  0  0  0  0  0  0  0
   55.6817   26.6047   45.2918 H   0  0  0  0  0  0  0  0  0  0  0  0
   56.9052   25.1155   44.4371 H   0  0  0  0  0  0  0  0  0  0  0  0
   58.3510   26.2463   44.4969 H   0  0  0  0  0  0  0  0  0  0  0  0
   57.5216   24.0838   46.3688 H   0  0  0  0  0  0  0  0  0  0  0  0
   59.1352   24.4969   45.6469 H   0  0  0  0  0  0  0  0  0  0  0  0
   57.6566   25.9037   47.8836 H   0  0  0  0  0  0  0  0  0  0  0  0
   59.2753   25.0455   47.9046 H   0  0  0  0  0  0  0  0  0  0  0  0
   59.5838   29.9774   50.9513 H   0  0  0  0  0  0  0  0  0  0  0  0
   58.0520   30.3413   50.0866 H   0  0  0  0  0  0  0  0  0  0  0  0
   58.7080   28.6690   50.0866 H   0  0  0  0  0  0  0  0  0  0  0  0
   60.3138   32.0232   49.4337 H   0  0  0  0  0  0  0  0  0  0  0  0
   61.5894   32.4966   47.3623 H   0  0  0  0  0  0  0  0  0  0  0  0
   61.7527   30.7748   45.5593 H   0  0  0  0  0  0  0  0  0  0  0  0
   62.0970   27.9440   44.4120 H   0  0  0  0  0  0  0  0  0  0  0  0
   60.0010   26.4130   45.2040 H   0  0  0  0  0  0  0  0  0  0  0  0
   58.2024   31.7129   46.7835 H   0  0  0  0  0  0  0  0  0  0  0  0
  1  2  1  0
  2  3  1  0
  3  4  2  0
  3  5  1  0
  5  6  2  0
  6  7  1  0
  7  8  2  0
  8  9  1  0
  9 10  1  0
 10 11  1  0
 11 12  1  0
 12 13  1  0
 13 14  1  0
 14 15  1  0
 15 16  2  0
 16 17  1  0
 17 18  2  0
 18 19  1  0
 18 20  1  0
 20 21  2  0
 21 22  1  0
 22 23  2  0
 23 24  1  0
 24 25  2  3
 24 26  1  0
 10 27  2  0
 27 28  1  0
 28 29  2  0
 29  5  1  0
 28  8  1  0
 26 15  1  0
 23 17  1  0
  1 30  1  0
  1 31  1  0
  1 32  1  0
  2 33  1  0
  6 34  1  0
  7 35  1  0
  9 36  1  0
 11 37  1  0
 11 38  1  0
 12 39  1  0
 12 40  1  0
 13 41  1  0
 13 42  1  0
 14 43  1  0
 14 44  1  0
 19 45  1  0
 19 46  1  0
 19 47  1  0
 20 48  1  0
 21 49  1  0
 22 50  1  0
 25 51  1  0
 26 52  1  0
 29 53  1  0
M  END
>  <smiles>  (93) 
CNC(=O)c1ccc2[nH]c(CCCCc3nc4c(C)cccc4c(=N)[nH]3)nc2c1

>  <score_type>  (93) 
oracle

>  <origin>  (93) 
adg

>  <m_score__min__energy>  (93) 
-8.9499999999999993

>  <m_primary>  (93) 
energy

$$$$
93:0
     RDKit          3D

 20 22  0  0  0  0  0  0  0  0999 V2000
   54.7760   26.7130   46.0080 O   0  0  0  0  0  0  0  0  0  0  0  0
   56.1610   26.8050   45.9230 C   0  0  0  0  0  0  0  0  0  0  0  0
   56.9540   25.7010   46.2670 C   0  0  0  0  0  0  0  0  0  0  0  0
   58.3500   25.7800   46.1870 C   0  0  0  0  0  0  0  0  0  0  0  0
   58.9630   26.9660   45.7620 C   0  0  0  0  0  0  0  0  0  0  0  0
   58.1700   28.0730   45.4190 C   0  0  0  0  0  0  0  0  0  0  0  0
   58.7700   29.2630   44.9930 C   0  0  0  0  0  0  0  0  0  0  0  0
   57.9500   30.3440   44.6600 C   0  0  0  0  0  0  0  0  0  0  0  0
   56.5990   30.2170   44.7540 N   0  0  0  0  0  0  0  0  0  0  0  0
   56.0250   29.0820   45.1600 N   0  0  0  0  0  0  0  0  0  0  0  0
   56.7690   27.9950   45.4990 C   0  0  0  0  0  0  0  0  0  0  0  0
   60.2440   29.3550   44.9060 C   0  0  0  0  0  0  0  0  0  0  0  0
   61.0010   28.3000   45.2340 C   0  0  0  0  0  0  0  0  0  0  0  0
   60.3930   27.0750   45.6710 N   0  0  0  0  0  0  0  0  0  0  0  0
   56.4771   24.7679   46.6015 H   0  0  0  0  0  0  0  0  0  0  0  0
   58.9659   24.9099   46.4582 H   0  0  0  0  0  0  0  0  0  0  0  0
   58.3944   31.2924   44.3237 H   0  0  0  0  0  0  0  0  0  0  0  0
   60.7181   30.2897   44.5720 H   0  0  0  0  0  0  0  0  0  0  0  0
   62.0966   28.3726   45.1681 H   0  0  0  0  0  0  0  0  0  0  0  0
   61.0020   26.2640   45.9220 H   0  0  0  0  0  0  0  0  0  0  0  0
  1  2  1  0
  2  3  2  0
  3  4  1  0
  4  5  2  0
  5  6  1  0
  6  7  2  0
  7  8  1  0
  8  9  2  0
  9 10  1  0
 10 11  2  0
  7 12  1  0
 12 13  2  0
 13 14  1  0
 11  2  1  0
 14  5  1  0
 11  6  1  0
  3 15  1  0
  4 16  1  0
  8 17  1  0
 12 18  1  0
 13 19  1  0
 14 20  1  0
M  CHG  1   1  -1
M  END
>  <UniqueID>  (94) 
85

>  <SMILES>  (94) 
[O-]c1ccc2c3c(cnnc13)C=CN2

>  <Energy>  (94) 
27.824803294320347

>  <Genealogy>  (94) 
[O-]c1ccc2c3c(cnnc13)C=CN2 (protonated)
[O-]c1ccc2c3c(cnnc13)C=CN2 (3D coordinates assigned)
[O-]c1ccc2c3c(cnnc13)C=CN2 (nonaromatic ring conformer: 27.824803294320347 kcal/mol)

>  <smiles>  (94) 
Oc1ccc2c3c(cnnc13)C=CN2

>  <score_type>  (94) 
oracle

>  <origin>  (94) 
adg

>  <m_score__min__energy>  (94) 
-10.02

>  <m_primary>  (94) 
energy

$$$$
