0:0
     RDKit          3D

 59 63  0  0  0  0  0  0  0  0999 V2000
   62.1550   30.0390   50.9880 C   0  0  0  0  0  0  0  0  0  0  0  0
   62.8100   31.0410   50.2190 O   0  0  0  0  0  0  0  0  0  0  0  0
   64.1310   31.4710   50.4280 C   0  0  0  0  0  0  0  0  0  0  0  0
   65.0300   30.7420   51.2320 C   0  0  0  0  0  0  0  0  0  0  0  0
   66.3450   31.1840   51.4020 C   0  0  0  0  0  0  0  0  0  0  0  0
   66.7770   32.3520   50.7740 C   0  0  0  0  0  0  0  0  0  0  0  0
   65.8950   33.0840   49.9770 C   0  0  0  0  0  0  0  0  0  0  0  0
   64.5700   32.6550   49.8010 C   0  0  0  0  0  0  0  0  0  0  0  0
   63.6720   33.4400   48.9960 N   0  0  0  0  0  0  0  0  0  0  0  0
   63.6960   33.3280   47.5340 C   0  0  0  0  0  0  0  0  0  0  0  0
   62.2980   33.5850   46.9430 C   0  0  0  0  0  0  0  0  0  0  0  0
   61.2490   33.1750   47.8950 N   0  0  0  0  0  0  0  0  0  0  0  0
   59.9040   33.0890   47.2650 C   0  0  0  0  0  0  0  0  0  0  0  0
   59.3460   31.6740   47.1140 C   0  0  0  0  0  0  0  0  0  0  0  0
   60.0650   30.6910   47.7180 N   0  0  0  0  0  0  0  0  0  0  0  0
   59.7180   29.3880   47.6500 C   0  0  0  0  0  0  0  0  0  0  0  0
   60.4880   28.4210   48.3080 C   0  0  0  0  0  0  0  0  0  0  0  0
   60.1260   27.0730   48.2380 C   0  0  0  0  0  0  0  0  0  0  0  0
   58.9960   26.6890   47.5110 C   0  0  0  0  0  0  0  0  0  0  0  0
   58.2260   27.6500   46.8510 C   0  0  0  0  0  0  0  0  0  0  0  0
   58.5840   29.0110   46.9170 C   0  0  0  0  0  0  0  0  0  0  0  0
   57.8500   30.0160   46.2680 C   0  0  0  0  0  0  0  0  0  0  0  0
   56.8330   29.6920   45.5890 O   0  0  0  0  0  0  0  0  0  0  0  0
   58.2270   31.3410   46.3640 N   0  0  0  0  0  0  0  0  0  0  0  0
   57.4030   32.3380   45.6390 C   0  0  0  0  0  0  0  0  0  0  0  0
   57.4240   32.0950   44.1580 C   0  0  0  0  0  0  0  0  0  0  0  0
   58.1890   32.7940   43.2460 C   0  0  0  0  0  0  0  0  0  0  0  0
   57.9030   32.2380   42.0170 C   0  0  0  0  0  0  0  0  0  0  0  0
   56.9870   31.2340   42.2550 C   0  0  0  0  0  0  0  0  0  0  0  0
   56.7240   31.1690   43.5390 O   0  0  0  0  0  0  0  0  0  0  0  0
   61.2600   34.0250   49.1150 C   0  0  0  0  0  0  0  0  0  0  0  0
   62.6870   34.3240   49.6260 C   0  0  0  0  0  0  0  0  0  0  0  0
   62.2929   30.2500   52.0587 H   0  0  0  0  0  0  0  0  0  0  0  0
   61.0811   30.0376   50.7499 H   0  0  0  0  0  0  0  0  0  0  0  0
   62.5846   29.0548   50.7499 H   0  0  0  0  0  0  0  0  0  0  0  0
   64.6948   29.8196   51.7287 H   0  0  0  0  0  0  0  0  0  0  0  0
   67.0403   30.6098   52.0320 H   0  0  0  0  0  0  0  0  0  0  0  0
   67.8132   32.6966   50.9067 H   0  0  0  0  0  0  0  0  0  0  0  0
   66.2409   34.0040   49.4831 H   0  0  0  0  0  0  0  0  0  0  0  0
   64.4011   34.0678   47.1272 H   0  0  0  0  0  0  0  0  0  0  0  0
   64.0113   32.3094   47.2636 H   0  0  0  0  0  0  0  0  0  0  0  0
   62.1892   34.6577   46.7250 H   0  0  0  0  0  0  0  0  0  0  0  0
   62.1893   32.9964   46.0201 H   0  0  0  0  0  0  0  0  0  0  0  0
   61.4730   32.1980   48.2030 H   0  0  0  0  0  0  0  0  0  0  0  0
   59.2013   33.6680   47.8823 H   0  0  0  0  0  0  0  0  0  0  0  0
   60.0190   33.4826   46.2443 H   0  0  0  0  0  0  0  0  0  0  0  0
   61.3779   28.7225   48.8800 H   0  0  0  0  0  0  0  0  0  0  0  0
   60.7309   26.3138   48.7554 H   0  0  0  0  0  0  0  0  0  0  0  0
   58.7121   25.6276   47.4583 H   0  0  0  0  0  0  0  0  0  0  0  0
   57.3382   27.3433   46.2785 H   0  0  0  0  0  0  0  0  0  0  0  0
   56.3651   32.2727   45.9974 H   0  0  0  0  0  0  0  0  0  0  0  0
   57.8210   33.3372   45.8312 H   0  0  0  0  0  0  0  0  0  0  0  0
   58.8822   33.6219   43.4559 H   0  0  0  0  0  0  0  0  0  0  0  0
   58.3207   32.5349   41.0436 H   0  0  0  0  0  0  0  0  0  0  0  0
   56.5440   30.5858   41.4846 H   0  0  0  0  0  0  0  0  0  0  0  0
   60.7632   34.9786   48.8830 H   0  0  0  0  0  0  0  0  0  0  0  0
   60.7345   33.4721   49.9075 H   0  0  0  0  0  0  0  0  0  0  0  0
   62.9405   35.3684   49.3916 H   0  0  0  0  0  0  0  0  0  0  0  0
   62.7107   34.1535   50.7124 H   0  0  0  0  0  0  0  0  0  0  0  0
  1  2  1  0
  2  3  1  0
  3  4  2  0
  4  5  1  0
  5  6  2  0
  6  7  1  0
  7  8  2  0
  8  9  1  0
  9 10  1  0
 10 11  1  0
 11 12  1  0
 12 13  1  0
 13 14  1  0
 14 15  2  0
 15 16  1  0
 16 17  2  0
 17 18  1  0
 18 19  2  0
 19 20  1  0
 20 21  2  0
 21 22  1  0
 22 23  2  0
 22 24  1  0
 24 25  1  0
 25 26  1  0
 26 27  2  0
 27 28  1  0
 28 29  2  0
 29 30  1  0
 12 31  1  0
 31 32  1  0
  8  3  1  0
 32  9  1  0
 24 14  1  0
 30 26  1  0
 21 16  1  0
  1 33  1  0
  1 34  1  0
  1 35  1  0
  4 36  1  0
  5 37  1  0
  6 38  1  0
  7 39  1  0
 10 40  1  0
 10 41  1  0
 11 42  1  0
 11 43  1  0
 12 44  1  0
 13 45  1  0
 13 46  1  0
 17 47  1  0
 18 48  1  0
 19 49  1  0
 20 50  1  0
 25 51  1  0
 25 52  1  0
 27 53  1  0
 28 54  1  0
 29 55  1  0
 31 56  1  0
 31 57  1  0
 32 58  1  0
 32 59  1  0
M  CHG  1  12   1
M  END
>  <UniqueID>  (1) 
1

>  <SMILES>  (1) 
COc1ccccc1N1CC[NH+](Cc2nc3ccccc3c(=O)n2Cc2ccco2)CC1

>  <Energy>  (1) 
116.46493814936842

>  <Genealogy>  (1) 
COc1ccccc1N1CC[NH+](Cc2nc3ccccc3c(=O)n2Cc2ccco2)CC1 (protonated)
COc1ccccc1N1CC[NH+](Cc2nc3ccccc3c(=O)n2Cc2ccco2)CC1 (3D coordinates assigned)
COc1ccccc1N1CC[NH+](Cc2nc3ccccc3c(=O)n2Cc2ccco2)CC1 (nonaromatic ring conformer: 116.46493814936842 kcal/mol)

>  <smiles>  (1) 
COc1ccccc1N1CCN(Cc2nc3ccccc3c(=O)n2Cc2ccco2)CC1

>  <score_type>  (1) 
oracle

>  <origin>  (1) 
adg

>  <m_score__min__energy>  (1) 
-6.3700000000000001

>  <m_primary>  (1) 
energy

$$$$
1:0
     RDKit          3D

 31 32  0  0  0  0  0  0  0  0999 V2000
   60.6990   30.0520   47.0570 N   0  0  0  0  0  0  0  0  0  0  0  0
   59.9350   29.1980   46.9010 C   0  0  0  0  0  0  0  0  0  0  0  0
   58.9850   28.1330   46.7050 C   0  0  0  0  0  0  0  0  0  0  0  0
   58.9370   27.0040   47.5360 C   0  0  0  0  0  0  0  0  0  0  0  0
   57.9510   26.0930   47.1760 C   0  0  0  0  0  0  0  0  0  0  0  0
   57.1420   26.6900   45.8270 S   0  0  0  0  0  0  0  0  0  0  0  0
   58.0340   28.1140   45.6890 C   0  0  0  0  0  0  0  0  0  0  0  0
   57.8690   29.1370   44.6900 N   0  0  0  0  0  0  0  0  0  0  0  0
   56.6100   29.7100   44.3010 C   0  0  0  0  0  0  0  0  0  0  0  0
   55.5380   29.3740   44.8700 O   0  0  0  0  0  0  0  0  0  0  0  0
   56.5640   30.7220   43.1950 C   0  0  0  0  0  0  0  0  0  0  0  0
   57.8390   31.3090   43.0100 O   0  0  0  0  0  0  0  0  0  0  0  0
   57.7780   32.7150   43.1580 C   0  0  0  0  0  0  0  0  0  0  0  0
   58.2350   33.1210   44.5340 C   0  0  0  0  0  0  0  0  0  0  0  0
   57.7910   32.4210   45.6690 C   0  0  0  0  0  0  0  0  0  0  0  0
   58.2350   32.7920   46.9420 C   0  0  0  0  0  0  0  0  0  0  0  0
   59.1260   33.8610   47.0910 C   0  0  0  0  0  0  0  0  0  0  0  0
   59.6810   34.3240   48.6890 Cl  0  0  0  0  0  0  0  0  0  0  0  0
   59.5750   34.5570   45.9640 C   0  0  0  0  0  0  0  0  0  0  0  0
   59.1330   34.1880   44.6900 C   0  0  0  0  0  0  0  0  0  0  0  0
   59.6141   26.8541   48.3899 H   0  0  0  0  0  0  0  0  0  0  0  0
   57.7360   25.1427   47.6866 H   0  0  0  0  0  0  0  0  0  0  0  0
   58.7240   29.4890   44.2040 H   0  0  0  0  0  0  0  0  0  0  0  0
   56.2544   30.2265   42.2630 H   0  0  0  0  0  0  0  0  0  0  0  0
   55.8438   31.5096   43.4616 H   0  0  0  0  0  0  0  0  0  0  0  0
   58.4286   33.1866   42.4067 H   0  0  0  0  0  0  0  0  0  0  0  0
   56.7373   33.0425   43.0179 H   0  0  0  0  0  0  0  0  0  0  0  0
   57.0923   31.5790   45.5556 H   0  0  0  0  0  0  0  0  0  0  0  0
   57.8834   32.2427   47.8278 H   0  0  0  0  0  0  0  0  0  0  0  0
   60.2769   35.3959   46.0802 H   0  0  0  0  0  0  0  0  0  0  0  0
   59.4907   34.7364   43.8061 H   0  0  0  0  0  0  0  0  0  0  0  0
  1  2  3  0
  2  3  1  0
  3  4  1  0
  4  5  2  0
  5  6  1  0
  6  7  1  0
  7  8  1  0
  8  9  1  0
  9 10  2  0
  9 11  1  0
 11 12  1  0
 12 13  1  0
 13 14  1  0
 14 15  2  0
 15 16  1  0
 16 17  2  0
 17 18  1  0
 17 19  1  0
 19 20  2  0
  7  3  2  0
 20 14  1  0
  4 21  1  0
  5 22  1  0
  8 23  1  0
 11 24  1  0
 11 25  1  0
 13 26  1  0
 13 27  1  0
 15 28  1  0
 16 29  1  0
 19 30  1  0
 20 31  1  0
M  END
>  <UniqueID>  (2) 
2

>  <SMILES>  (2) 
N#Cc1ccsc1NC(=O)COCc1ccc(Cl)cc1

>  <Energy>  (2) 
59.939571502137795

>  <Genealogy>  (2) 
N#Cc1ccsc1NC(=O)COCc1ccc(Cl)cc1 (3D coordinates assigned)
N#Cc1ccsc1NC(=O)COCc1ccc(Cl)cc1 (optimized conformer: 59.939571502137795 kcal/mol)

>  <smiles>  (2) 
N#Cc1ccsc1NC(=O)COCc1ccc(Cl)cc1

>  <score_type>  (2) 
oracle

>  <origin>  (2) 
adg

>  <m_score__min__energy>  (2) 
-6.9800000000000004

>  <m_primary>  (2) 
energy

$$$$
2:0
     RDKit          3D

 72 75  0  0  0  0  0  0  0  0999 V2000
   56.5740   23.9110   44.0750 C   0  0  0  0  0  0  0  0  0  0  0  0
   55.2490   23.8590   44.8340 C   0  0  0  0  0  0  0  0  0  0  0  0
   55.0620   25.0790   45.7000 C   0  0  0  0  0  0  0  0  0  0  0  0
   53.9760   25.7130   45.6320 O   0  0  0  0  0  0  0  0  0  0  0  0
   56.0250   25.4680   46.6890 N   0  0  0  0  0  0  0  0  0  0  0  0
   57.1100   26.3900   46.5140 C   0  0  0  0  0  0  0  0  0  0  0  0
   58.1320   26.4200   47.4700 C   0  0  0  0  0  0  0  0  0  0  0  0
   59.1940   27.3180   47.3390 C   0  0  0  0  0  0  0  0  0  0  0  0
   59.2380   28.2010   46.2580 C   0  0  0  0  0  0  0  0  0  0  0  0
   58.2050   28.2050   45.3070 C   0  0  0  0  0  0  0  0  0  0  0  0
   58.2200   29.2010   44.1820 C   0  0  0  0  0  0  0  0  0  0  0  0
   58.1220   30.5930   44.7270 C   0  0  0  0  0  0  0  0  0  0  0  0
   57.0330   31.2220   44.6250 O   0  0  0  0  0  0  0  0  0  0  0  0
   59.2620   31.2110   45.3450 N   0  0  0  0  0  0  0  0  0  0  0  0
   59.1820   32.4370   46.0880 C   0  0  0  0  0  0  0  0  0  0  0  0
   58.2410   33.4070   45.7240 C   0  0  0  0  0  0  0  0  0  0  0  0
   58.1420   34.5840   46.4680 C   0  0  0  0  0  0  0  0  0  0  0  0
   58.9680   34.7920   47.5260 N   0  0  0  0  0  0  0  0  0  0  0  0
   59.9300   33.8910   47.8780 C   0  0  0  0  0  0  0  0  0  0  0  0
   60.7050   34.1000   48.9030 N   0  0  0  0  0  0  0  0  0  0  0  0
   61.7610   33.2350   49.3520 C   0  0  0  0  0  0  0  0  0  0  0  0
   61.4610   32.2790   50.3260 C   0  0  0  0  0  0  0  0  0  0  0  0
   62.4540   31.4340   50.8230 C   0  0  0  0  0  0  0  0  0  0  0  0
   63.7710   31.5260   50.3440 C   0  0  0  0  0  0  0  0  0  0  0  0
   64.8070   30.6830   50.8890 N   0  0  0  0  0  0  0  0  0  0  0  0
   66.2130   30.8910   50.5190 C   0  0  0  0  0  0  0  0  0  0  0  0
   67.1400   30.3270   51.6060 C   0  0  0  0  0  0  0  0  0  0  0  0
   66.8750   28.9010   51.9210 N   0  0  0  0  0  0  0  0  0  0  0  0
   68.0340   27.8550   51.1350 S   0  0  0  0  0  0  0  0  0  0  0  0
   67.4610   26.1680   51.1620 C   0  0  0  0  0  0  0  0  0  0  0  0
   69.3640   27.9460   51.8320 O   0  0  0  0  0  0  0  0  0  0  0  0
   68.2020   28.2710   49.6990 O   0  0  0  0  0  0  0  0  0  0  0  0
   65.5000   28.4450   51.6200 C   0  0  0  0  0  0  0  0  0  0  0  0
   64.4660   29.5660   51.7770 C   0  0  0  0  0  0  0  0  0  0  0  0
   64.0650   32.4530   49.3290 C   0  0  0  0  0  0  0  0  0  0  0  0
   63.0620   33.2950   48.8070 C   0  0  0  0  0  0  0  0  0  0  0  0
   63.3160   34.1760   47.7450 O   0  0  0  0  0  0  0  0  0  0  0  0
   63.3620   33.7980   46.3720 C   0  0  0  0  0  0  0  0  0  0  0  0
   60.0510   32.6950   47.1610 C   0  0  0  0  0  0  0  0  0  0  0  0
   57.1310   27.3100   45.4520 C   0  0  0  0  0  0  0  0  0  0  0  0
   57.4068   23.9437   44.7929 H   0  0  0  0  0  0  0  0  0  0  0  0
   56.6698   23.0159   43.4428 H   0  0  0  0  0  0  0  0  0  0  0  0
   56.5994   24.8108   43.4428 H   0  0  0  0  0  0  0  0  0  0  0  0
   54.4234   23.8048   44.1091 H   0  0  0  0  0  0  0  0  0  0  0  0
   55.2572   22.9715   45.4839 H   0  0  0  0  0  0  0  0  0  0  0  0
   58.0987   25.7331   48.3286 H   0  0  0  0  0  0  0  0  0  0  0  0
   59.9980   27.3296   48.0896 H   0  0  0  0  0  0  0  0  0  0  0  0
   60.0844   28.8954   46.1512 H   0  0  0  0  0  0  0  0  0  0  0  0
   59.1575   29.0968   43.6160 H   0  0  0  0  0  0  0  0  0  0  0  0
   57.3614   29.0113   43.5211 H   0  0  0  0  0  0  0  0  0  0  0  0
   60.2100   30.8180   45.1420 H   0  0  0  0  0  0  0  0  0  0  0  0
   57.5838   33.2430   44.8573 H   0  0  0  0  0  0  0  0  0  0  0  0
   57.3942   35.3439   46.1971 H   0  0  0  0  0  0  0  0  0  0  0  0
   60.4319   32.1917   50.7047 H   0  0  0  0  0  0  0  0  0  0  0  0
   62.2037   30.6912   51.5948 H   0  0  0  0  0  0  0  0  0  0  0  0
   66.4171   30.3793   49.5669 H   0  0  0  0  0  0  0  0  0  0  0  0
   66.3994   31.9701   50.4147 H   0  0  0  0  0  0  0  0  0  0  0  0
   68.1803   30.4210   51.2610 H   0  0  0  0  0  0  0  0  0  0  0  0
   66.9543   30.9036   52.5242 H   0  0  0  0  0  0  0  0  0  0  0  0
   67.3481   25.8357   52.2045 H   0  0  0  0  0  0  0  0  0  0  0  0
   66.4901   26.1023   50.6491 H   0  0  0  0  0  0  0  0  0  0  0  0
   68.1910   25.5246   50.6491 H   0  0  0  0  0  0  0  0  0  0  0  0
   65.4684   28.0776   50.5836 H   0  0  0  0  0  0  0  0  0  0  0  0
   65.2453   27.6504   52.3367 H   0  0  0  0  0  0  0  0  0  0  0  0
   63.4688   29.1825   51.5154 H   0  0  0  0  0  0  0  0  0  0  0  0
   64.4657   29.9171   52.8195 H   0  0  0  0  0  0  0  0  0  0  0  0
   65.0905   32.5223   48.9371 H   0  0  0  0  0  0  0  0  0  0  0  0
   63.4946   32.7087   46.2958 H   0  0  0  0  0  0  0  0  0  0  0  0
   62.4219   34.0883   45.8801 H   0  0  0  0  0  0  0  0  0  0  0  0
   64.2050   34.3052   45.8801 H   0  0  0  0  0  0  0  0  0  0  0  0
   60.8226   31.9610   47.4364 H   0  0  0  0  0  0  0  0  0  0  0  0
   56.3017   27.3298   44.7296 H   0  0  0  0  0  0  0  0  0  0  0  0
  1  2  1  0
  2  3  1  0
  3  4  2  0
  3  5  1  0
  5  6  1  0
  6  7  2  0
  7  8  1  0
  8  9  2  0
  9 10  1  0
 10 11  1  0
 11 12  1  0
 12 13  2  0
 12 14  1  0
 14 15  1  0
 15 16  1  0
 16 17  2  0
 17 18  1  0
 18 19  1  0
 19 20  2  3
 20 21  1  0
 21 22  2  0
 22 23  1  0
 23 24  2  0
 24 25  1  0
 25 26  1  0
 26 27  1  0
 27 28  1  0
 28 29  1  0
 29 30  1  0
 29 31  2  0
 29 32  2  0
 28 33  1  0
 33 34  1  0
 24 35  1  0
 35 36  2  0
 36 37  1  0
 37 38  1  0
 19 39  1  0
 10 40  2  0
 40  6  1  0
 39 15  2  0
 36 21  1  0
 34 25  1  0
  1 41  1  0
  1 42  1  0
  1 43  1  0
  2 44  1  0
  2 45  1  0
  7 46  1  0
  8 47  1  0
  9 48  1  0
 11 49  1  0
 11 50  1  0
 14 51  1  0
 16 52  1  0
 17 53  1  0
 22 54  1  0
 23 55  1  0
 26 56  1  0
 26 57  1  0
 27 58  1  0
 27 59  1  0
 30 60  1  0
 30 61  1  0
 30 62  1  0
 33 63  1  0
 33 64  1  0
 34 65  1  0
 34 66  1  0
 35 67  1  0
 38 68  1  0
 38 69  1  0
 38 70  1  0
 39 71  1  0
 40 72  1  0
M  CHG  2   5  -1  18  -1
M  END
>  <UniqueID>  (3) 
3

>  <SMILES>  (3) 
CCC(=O)[N-]c1cccc(CC(=O)Nc2cc[n-]c(=Nc3ccc(N4CCN(S(C)(=O)=O)CC4)cc3OC)c2)c1

>  <Energy>  (3) 
90.74327681505478

>  <Genealogy>  (3) 
CCC(=O)[N-]c1cccc(CC(=O)Nc2cc[n-]c(=Nc3ccc(N4CCN(S(C)(=O)=O)CC4)cc3OC)c2)c1 (protonated)
CCC(=O)[N-]c1cccc(CC(=O)Nc2cc[n-]c(=Nc3ccc(N4CCN(S(C)(=O)=O)CC4)cc3OC)c2)c1 (3D coordinates assigned)
CCC(=O)[N-]c1cccc(CC(=O)Nc2cc[n-]c(=Nc3ccc(N4CCN(S(C)(=O)=O)CC4)cc3OC)c2)c1 (nonaromatic ring conformer: 90.74327681505478 kcal/mol)

>  <smiles>  (3) 
CCC(=O)Nc1cccc(CC(=O)Nc2cc[nH]c(=Nc3ccc(N4CCN(S(C)(=O)=O)CC4)cc3OC)c2)c1

>  <score_type>  (3) 
oracle

>  <origin>  (3) 
adg

>  <m_score__min__energy>  (3) 
-12.51

>  <m_primary>  (3) 
energy

$$$$
3:0
     RDKit          3D

 83 86  0  0  0  0  0  0  0  0999 V2000
   58.0000   32.3950   41.3560 C   0  0  0  0  0  0  0  0  0  0  0  0
   57.0430   31.9360   42.3040 O   0  0  0  0  0  0  0  0  0  0  0  0
   57.3000   30.9540   43.2740 C   0  0  0  0  0  0  0  0  0  0  0  0
   58.5930   30.7010   43.7700 C   0  0  0  0  0  0  0  0  0  0  0  0
   58.7950   29.7240   44.7510 C   0  0  0  0  0  0  0  0  0  0  0  0
   57.7120   28.9870   45.2480 C   0  0  0  0  0  0  0  0  0  0  0  0
   57.9380   27.8430   46.5650 S   0  0  0  0  0  0  0  0  0  0  0  0
   59.1500   26.9970   46.2940 O   0  0  0  0  0  0  0  0  0  0  0  0
   56.7400   26.9450   46.6860 O   0  0  0  0  0  0  0  0  0  0  0  0
   58.1860   28.7310   48.0270 N   0  0  0  0  0  0  0  0  0  0  0  0
   59.0200   29.8910   48.0660 C   0  0  0  0  0  0  0  0  0  0  0  0
   58.5920   31.0800   47.4620 C   0  0  0  0  0  0  0  0  0  0  0  0
   59.3980   32.2470   47.4430 C   0  0  0  0  0  0  0  0  0  0  0  0
   58.9680   33.4820   46.5800 C   0  0  0  0  0  0  0  0  0  0  0  0
   58.9160   34.7660   47.4490 C   0  0  0  0  0  0  0  0  0  0  0  0
   59.9760   33.7950   45.4370 C   0  0  0  0  0  0  0  0  0  0  0  0
   57.5990   33.2300   45.9110 C   0  0  0  0  0  0  0  0  0  0  0  0
   60.6200   32.1980   48.1920 C   0  0  0  0  0  0  0  0  0  0  0  0
   61.6660   33.6380   48.5070 S   0  0  0  0  0  0  0  0  0  0  0  0
   61.6390   33.6790   50.3560 C   0  0  2  0  0  0  0  0  0  0  0  0
   62.5760   32.6230   50.8950 C   0  0  0  0  0  0  0  0  0  0  0  0
   63.6810   32.4910   50.3870 O   0  0  0  0  0  0  0  0  0  0  0  0
   62.2030   31.7390   52.0630 C   0  0  0  0  0  0  0  0  0  0  0  0
   61.1400   32.3980   52.9920 C   0  0  1  0  0  0  0  0  0  0  0  0
   60.5680   31.2760   53.9180 C   0  0  0  0  0  0  0  0  0  0  0  0
   59.9170   30.0600   53.2090 C   0  0  0  0  0  0  0  0  0  0  0  0
   58.4450   30.2480   52.9090 C   0  0  0  0  0  0  0  0  0  0  0  0
   58.0380   30.9820   51.7770 C   0  0  0  0  0  0  0  0  0  0  0  0
   56.6790   31.1290   51.4790 C   0  0  0  0  0  0  0  0  0  0  0  0
   55.7150   30.5330   52.3000 C   0  0  0  0  0  0  0  0  0  0  0  0
   56.1090   29.7850   53.4130 C   0  0  0  0  0  0  0  0  0  0  0  0
   57.4650   29.6280   53.7120 C   0  0  0  0  0  0  0  0  0  0  0  0
   61.8060   33.6050   53.7730 C   0  0  0  0  0  0  0  0  0  0  0  0
   60.8760   34.2660   54.8070 C   0  0  0  0  0  0  0  0  0  0  0  0
   63.1660   33.2800   54.4150 C   0  0  0  0  0  0  0  0  0  0  0  0
   60.0700   32.8730   52.1730 O   0  0  0  0  0  0  0  0  0  0  0  0
   60.2640   33.5700   50.9770 C   0  0  0  0  0  0  0  0  0  0  0  0
   59.2820   34.1580   50.4510 O   0  0  0  0  0  0  0  0  0  0  0  0
   61.0640   30.9850   48.7380 C   0  0  0  0  0  0  0  0  0  0  0  0
   60.2710   29.8350   48.6950 C   0  0  0  0  0  0  0  0  0  0  0  0
   60.7880   28.5400   49.2600 C   0  0  0  0  0  0  0  0  0  0  0  0
   56.4250   29.2320   44.7490 C   0  0  0  0  0  0  0  0  0  0  0  0
   56.2230   30.2080   43.7660 C   0  0  0  0  0  0  0  0  0  0  0  0
   58.8695   32.8120   41.8852 H   0  0  0  0  0  0  0  0  0  0  0  0
   58.3235   31.5541   40.7250 H   0  0  0  0  0  0  0  0  0  0  0  0
   57.5467   33.1737   40.7250 H   0  0  0  0  0  0  0  0  0  0  0  0
   59.4489   31.2743   43.3843 H   0  0  0  0  0  0  0  0  0  0  0  0
   59.8086   29.5337   45.1337 H   0  0  0  0  0  0  0  0  0  0  0  0
   57.6000   31.1097   46.9876 H   0  0  0  0  0  0  0  0  0  0  0  0
   58.9272   34.4890   48.5135 H   0  0  0  0  0  0  0  0  0  0  0  0
   59.7894   35.3961   47.2249 H   0  0  0  0  0  0  0  0  0  0  0  0
   57.9945   35.3234   47.2249 H   0  0  0  0  0  0  0  0  0  0  0  0
   60.9412   34.0947   45.8712 H   0  0  0  0  0  0  0  0  0  0  0  0
   60.1161   32.8980   44.8158 H   0  0  0  0  0  0  0  0  0  0  0  0
   59.5834   34.6135   44.8158 H   0  0  0  0  0  0  0  0  0  0  0  0
   56.8322   33.0888   46.6869 H   0  0  0  0  0  0  0  0  0  0  0  0
   57.3323   34.0941   45.2848 H   0  0  0  0  0  0  0  0  0  0  0  0
   57.6575   32.3275   45.2848 H   0  0  0  0  0  0  0  0  0  0  0  0
   61.9856   34.6808   50.6496 H   0  0  0  0  0  0  0  0  0  0  0  0
   61.7953   30.7941   51.6746 H   0  0  0  0  0  0  0  0  0  0  0  0
   63.1117   31.5713   52.6598 H   0  0  0  0  0  0  0  0  0  0  0  0
   61.3957   30.8987   54.5366 H   0  0  0  0  0  0  0  0  0  0  0  0
   59.7548   31.7525   54.4852 H   0  0  0  0  0  0  0  0  0  0  0  0
   60.4457   29.8871   52.2600 H   0  0  0  0  0  0  0  0  0  0  0  0
   59.9988   29.2050   53.8962 H   0  0  0  0  0  0  0  0  0  0  0  0
   58.7937   31.4423   51.1235 H   0  0  0  0  0  0  0  0  0  0  0  0
   56.3684   31.7127   50.5999 H   0  0  0  0  0  0  0  0  0  0  0  0
   54.6462   30.6533   52.0692 H   0  0  0  0  0  0  0  0  0  0  0  0
   55.3486   29.3180   54.0562 H   0  0  0  0  0  0  0  0  0  0  0  0
   57.7691   29.0191   54.5762 H   0  0  0  0  0  0  0  0  0  0  0  0
   61.9946   34.3355   52.9725 H   0  0  0  0  0  0  0  0  0  0  0  0
   61.2222   34.0199   55.8217 H   0  0  0  0  0  0  0  0  0  0  0  0
   60.8910   35.3572   54.6690 H   0  0  0  0  0  0  0  0  0  0  0  0
   59.8504   33.8931   54.6690 H   0  0  0  0  0  0  0  0  0  0  0  0
   63.0692   33.3031   55.5105 H   0  0  0  0  0  0  0  0  0  0  0  0
   63.4918   32.2787   54.0967 H   0  0  0  0  0  0  0  0  0  0  0  0
   63.9093   34.0258   54.0967 H   0  0  0  0  0  0  0  0  0  0  0  0
   62.0566   30.9377   49.2097 H   0  0  0  0  0  0  0  0  0  0  0  0
   60.7696   28.5861   50.3589 H   0  0  0  0  0  0  0  0  0  0  0  0
   60.1521   27.7105   48.9171 H   0  0  0  0  0  0  0  0  0  0  0  0
   61.8203   28.3765   48.9171 H   0  0  0  0  0  0  0  0  0  0  0  0
   55.5703   28.6549   45.1315 H   0  0  0  0  0  0  0  0  0  0  0  0
   55.2101   30.3899   43.3774 H   0  0  0  0  0  0  0  0  0  0  0  0
  1  2  1  0
  2  3  1  0
  3  4  2  0
  4  5  1  0
  5  6  2  0
  6  7  1  0
  7  8  2  0
  7  9  2  0
  7 10  1  0
 10 11  1  0
 11 12  2  0
 12 13  1  0
 13 14  1  0
 14 15  1  0
 14 16  1  0
 14 17  1  0
 13 18  2  0
 18 19  1  0
 19 20  1  0
 20 21  1  0
 21 22  2  0
 21 23  1  0
 23 24  1  0
 24 25  1  1
 25 26  1  0
 26 27  1  0
 27 28  2  0
 28 29  1  0
 29 30  2  0
 30 31  1  0
 31 32  2  0
 24 33  1  0
 33 34  1  0
 33 35  1  0
 24 36  1  0
 36 37  1  0
 37 38  2  0
 18 39  1  0
 39 40  2  0
 40 41  1  0
  6 42  1  0
 42 43  2  0
 43  3  1  0
 40 11  1  0
 37 20  1  0
 32 27  1  0
  1 44  1  0
  1 45  1  0
  1 46  1  0
  4 47  1  0
  5 48  1  0
 12 49  1  0
 15 50  1  0
 15 51  1  0
 15 52  1  0
 16 53  1  0
 16 54  1  0
 16 55  1  0
 17 56  1  0
 17 57  1  0
 17 58  1  0
 20 59  1  6
 23 60  1  0
 23 61  1  0
 25 62  1  0
 25 63  1  0
 26 64  1  0
 26 65  1  0
 28 66  1  0
 29 67  1  0
 30 68  1  0
 31 69  1  0
 32 70  1  0
 33 71  1  0
 34 72  1  0
 34 73  1  0
 34 74  1  0
 35 75  1  0
 35 76  1  0
 35 77  1  0
 39 78  1  0
 41 79  1  0
 41 80  1  0
 41 81  1  0
 42 82  1  0
 43 83  1  0
M  CHG  1  10  -1
M  END
>  <UniqueID>  (4) 
4

>  <SMILES>  (4) 
COc1ccc(S(=O)(=O)[N-]c2cc(C(C)(C)C)c(S[C@@H]3C(=O)C[C@@](CCc4ccccc4)(C(C)C)OC3=O)cc2C)cc1

>  <Energy>  (4) 
110.51446714204171

>  <Genealogy>  (4) 
COc1ccc(S(=O)(=O)[N-]c2cc(C(C)(C)C)c(SC3C(=O)CC(CCc4ccccc4)(C(C)C)OC3=O)cc2C)cc1 (protonated)
COc1ccc(S(=O)(=O)[N-]c2cc(C(C)(C)C)c(S[C@@H]3C(=O)C[C@@](CCc4ccccc4)(C(C)C)OC3=O)cc2C)cc1 (chirality)
COc1ccc(S(=O)(=O)[N-]c2cc(C(C)(C)C)c(S[C@@H]3C(=O)C[C@@](CCc4ccccc4)(C(C)C)OC3=O)cc2C)cc1 (3D coordinates assigned)
COc1ccc(S(=O)(=O)[N-]c2cc(C(C)(C)C)c(S[C@@H]3C(=O)C[C@@](CCc4ccccc4)(C(C)C)OC3=O)cc2C)cc1 (nonaromatic ring conformer: 110.51446714204171 kcal/mol)

>  <smiles>  (4) 
COc1ccc(S(=O)(=O)Nc2cc(C(C)(C)C)c(SC3C(=O)CC(CCc4ccccc4)(C(C)C)OC3=O)cc2C)cc1

>  <score_type>  (4) 
oracle

>  <origin>  (4) 
adg

>  <m_score__min__energy>  (4) 
-10.99

>  <m_primary>  (4) 
energy

$$$$
4:0
     RDKit          3D

 38 40  0  0  0  0  0  0  0  0999 V2000
   56.2140   30.3350   44.5710 O   0  0  0  0  0  0  0  0  0  0  0  0
   57.3320   29.8130   44.8340 C   0  0  0  0  0  0  0  0  0  0  0  0
   57.3970   28.4250   44.6890 C   0  0  0  0  0  0  0  0  0  0  0  0
   58.4550   27.5540   44.9130 C   0  0  0  0  0  0  0  0  0  0  0  0
   59.7310   27.8430   45.3630 C   0  0  0  0  0  0  0  0  0  0  0  0
   60.2620   29.0770   45.6920 C   0  0  0  0  0  0  0  0  0  0  0  0
   59.6570   30.3250   45.6360 C   0  0  0  0  0  0  0  0  0  0  0  0
   58.3610   30.6810   45.2460 C   0  0  0  0  0  0  0  0  0  0  0  0
   58.0620   32.0880   45.2780 N   0  0  0  0  0  0  0  0  0  0  0  0
   57.3750   32.7340   46.3850 C   0  0  0  0  0  0  0  0  0  0  0  0
   57.2620   34.2010   45.9920 C   0  0  0  0  0  0  0  0  0  0  0  0
   58.2880   34.4170   44.8670 C   0  0  1  0  0  0  0  0  0  0  0  0
   59.5890   35.1000   45.3570 C   0  0  0  0  0  0  0  0  0  0  0  0
   60.2040   34.4530   46.5720 C   0  0  0  0  0  0  0  0  0  0  0  0
   61.1620   33.4980   46.4140 N   0  0  0  0  0  0  0  0  0  0  0  0
   61.7290   32.8870   47.4860 C   0  0  0  0  0  0  0  0  0  0  0  0
   61.3280   33.2330   48.7740 C   0  0  0  0  0  0  0  0  0  0  0  0
   60.3510   34.2150   48.9240 C   0  0  0  0  0  0  0  0  0  0  0  0
   59.8090   34.8110   47.8290 N   0  0  0  0  0  0  0  0  0  0  0  0
   58.5280   33.0250   44.2690 C   0  0  0  0  0  0  0  0  0  0  0  0
   56.4671   27.9489   44.3444 H   0  0  0  0  0  0  0  0  0  0  0  0
   58.2516   26.4932   44.7050 H   0  0  0  0  0  0  0  0  0  0  0  0
   60.4083   26.9833   45.4729 H   0  0  0  0  0  0  0  0  0  0  0  0
   61.3036   29.0682   46.0455 H   0  0  0  0  0  0  0  0  0  0  0  0
   60.2957   31.1650   45.9465 H   0  0  0  0  0  0  0  0  0  0  0  0
   56.3761   32.2956   46.5261 H   0  0  0  0  0  0  0  0  0  0  0  0
   57.9176   32.6058   47.3332 H   0  0  0  0  0  0  0  0  0  0  0  0
   56.2468   34.4233   45.6316 H   0  0  0  0  0  0  0  0  0  0  0  0
   57.4560   34.8642   46.8479 H   0  0  0  0  0  0  0  0  0  0  0  0
   57.9083   35.1170   44.1081 H   0  0  0  0  0  0  0  0  0  0  0  0
   60.3244   35.0689   44.5396 H   0  0  0  0  0  0  0  0  0  0  0  0
   59.3188   36.1262   45.6467 H   0  0  0  0  0  0  0  0  0  0  0  0
   62.5036   32.1202   47.3373 H   0  0  0  0  0  0  0  0  0  0  0  0
   61.7723   32.7424   49.6526 H   0  0  0  0  0  0  0  0  0  0  0  0
   60.0176   34.5085   49.9303 H   0  0  0  0  0  0  0  0  0  0  0  0
   59.0870   35.5520   47.9650 H   0  0  0  0  0  0  0  0  0  0  0  0
   57.9572   32.9026   43.3367 H   0  0  0  0  0  0  0  0  0  0  0  0
   59.5867   32.8638   44.0177 H   0  0  0  0  0  0  0  0  0  0  0  0
  1  2  2  0
  2  3  1  0
  3  4  2  0
  4  5  1  0
  5  6  2  0
  6  7  1  0
  7  8  2  0
  8  9  1  0
  9 10  1  0
 10 11  1  0
 11 12  1  0
 12 13  1  0
 13 14  1  0
 14 15  2  0
 15 16  1  0
 16 17  2  0
 17 18  1  0
 18 19  2  0
 12 20  1  0
  8  2  1  0
 20  9  1  0
 19 14  1  0
  3 21  1  0
  4 22  1  0
  5 23  1  0
  6 24  1  0
  7 25  1  0
 10 26  1  0
 10 27  1  0
 11 28  1  0
 11 29  1  0
 12 30  1  6
 13 31  1  0
 13 32  1  0
 16 33  1  0
 17 34  1  0
 18 35  1  0
 19 36  1  0
 20 37  1  0
 20 38  1  0
M  CHG  1  19   1
M  END
>  <UniqueID>  (5) 
5

>  <SMILES>  (5) 
O=c1cccccc1N1CC[C@@H](Cc2nccc[nH+]2)C1

>  <Energy>  (5) 
62.58857981776819

>  <Genealogy>  (5) 
O=c1cccccc1N1CCC(Cc2nccc[nH+]2)C1 (protonated)
O=c1cccccc1N1CC[C@@H](Cc2nccc[nH+]2)C1 (chirality)
O=c1cccccc1N1CC[C@@H](Cc2nccc[nH+]2)C1 (3D coordinates assigned)
O=c1cccccc1N1CC[C@@H](Cc2nccc[nH+]2)C1 (nonaromatic ring conformer: 62.58857981776819 kcal/mol)

>  <smiles>  (5) 
O=c1cccccc1N1CCC(Cc2ncccn2)C1

>  <score_type>  (5) 
oracle

>  <origin>  (5) 
adg

>  <m_score__min__energy>  (5) 
-6.0800000000000001

>  <m_primary>  (5) 
energy

$$$$
5:0
     RDKit          3D

 33 33  0  0  1  0  0  0  0  0999 V2000
   58.1530   27.1200   42.6170 C   0  0  0  0  0  0  0  0  0  0  0  0
   57.4890   27.6380   43.7840 N   0  0  0  0  0  0  0  0  0  0  0  0
   57.4810   29.0160   44.1140 C   0  0  0  0  0  0  0  0  0  0  0  0
   56.2720   29.6990   44.0370 C   0  0  0  0  0  0  0  0  0  0  0  0
   56.2650   31.0430   44.3560 C   0  0  0  0  0  0  0  0  0  0  0  0
   57.4180   31.7120   44.7450 C   0  0  0  0  0  0  0  0  0  0  0  0
   58.6230   31.0090   44.8160 C   0  0  0  0  0  0  0  0  0  0  0  0
   58.6440   29.6920   44.5060 C   0  0  0  0  0  0  0  0  0  0  0  0
   60.1290   28.6700   44.5580 S   0  0  0  0  0  0  0  0  0  0  0  0
   60.3610   28.2000   46.2930 C   0  0  0  0  0  0  0  0  0  0  0  0
   60.3210   26.3910   46.4050 S   0  0  0  0  0  0  0  0  0  0  0  0
   58.7010   25.7250   46.0410 C   0  0  0  0  0  0  0  0  0  0  0  0
   57.8030   25.7750   47.2420 C   0  0  0  0  0  0  0  0  0  0  0  0
   56.3970   25.5760   46.7960 C   0  0  0  0  0  0  0  0  0  0  0  0
   55.7330   24.4630   47.3230 O   0  0  0  0  0  0  0  0  0  0  0  0
   55.7720   26.3270   45.9890 N   0  0  0  0  0  0  0  0  0  0  0  0
   54.4230   26.3340   45.8280 O   0  0  0  0  0  0  0  0  0  0  0  0
   58.9853   26.4707   42.9266 H   0  0  0  0  0  0  0  0  0  0  0  0
   57.4382   26.5385   42.0162 H   0  0  0  0  0  0  0  0  0  0  0  0
   58.5431   27.9548   42.0162 H   0  0  0  0  0  0  0  0  0  0  0  0
   56.9970   26.9540   44.4000 H   0  0  0  0  0  0  0  0  0  0  0  0
   55.3491   29.1845   43.7313 H   0  0  0  0  0  0  0  0  0  0  0  0
   55.3180   31.5998   44.3002 H   0  0  0  0  0  0  0  0  0  0  0  0
   57.3829   32.7828   44.9943 H   0  0  0  0  0  0  0  0  0  0  0  0
   59.5471   31.5217   45.1214 H   0  0  0  0  0  0  0  0  0  0  0  0
   61.3312   28.5733   46.6526 H   0  0  0  0  0  0  0  0  0  0  0  0
   59.5631   28.6351   46.9127 H   0  0  0  0  0  0  0  0  0  0  0  0
   58.2466   26.3134   45.2303 H   0  0  0  0  0  0  0  0  0  0  0  0
   58.8196   24.6729   45.7425 H   0  0  0  0  0  0  0  0  0  0  0  0
   58.0837   24.9789   47.9473 H   0  0  0  0  0  0  0  0  0  0  0  0
   57.9025   26.7488   47.7437 H   0  0  0  0  0  0  0  0  0  0  0  0
   54.7290   24.4660   47.3470 H   0  0  0  0  0  0  0  0  0  0  0  0
   53.7280   25.8810   46.3720 H   0  0  0  0  0  0  0  0  0  0  0  0
  1  2  1  0
  2  3  1  0
  3  4  2  0
  4  5  1  0
  5  6  2  0
  6  7  1  0
  7  8  2  0
  8  9  1  0
  9 10  1  0
 10 11  1  0
 11 12  1  0
 12 13  1  0
 13 14  1  0
 14 15  1  0
 14 16  2  0
 16 17  1  0
  8  3  1  0
  1 18  1  0
  1 19  1  0
  1 20  1  0
  2 21  1  0
  4 22  1  0
  5 23  1  0
  6 24  1  0
  7 25  1  0
 10 26  1  0
 10 27  1  0
 12 28  1  0
 12 29  1  0
 13 30  1  0
 13 31  1  0
 15 32  1  0
 17 33  1  0
M  END
>  <smiles>  (6) 
CNc1ccccc1SCSCCC(O)=NO

>  <score_type>  (6) 
oracle

>  <origin>  (6) 
adg

>  <m_score__min__energy>  (6) 
-7.3799999999999999

>  <m_primary>  (6) 
energy

$$$$
6:0
     RDKit          3D

 62 64  0  0  0  0  0  0  0  0999 V2000
   60.9960   26.5760   51.1760 C   0  0  0  0  0  0  0  0  0  0  0  0
   60.8960   27.6430   50.1150 C   0  0  0  0  0  0  0  0  0  0  0  0
   60.8530   28.9880   50.4820 C   0  0  0  0  0  0  0  0  0  0  0  0
   60.7100   29.9550   49.5360 N   0  0  0  0  0  0  0  0  0  0  0  0
   60.7020   31.3300   49.9520 C   0  0  0  0  0  0  0  0  0  0  0  0
   59.7170   31.7620   50.6210 O   0  0  0  0  0  0  0  0  0  0  0  0
   61.8100   32.2050   49.6320 N   0  0  0  0  0  0  0  0  0  0  0  0
   62.7560   31.8720   48.5540 C   0  0  0  0  0  0  0  0  0  0  0  0
   62.4680   32.7630   47.3280 C   0  0  0  0  0  0  0  0  0  0  0  0
   61.7280   33.9760   47.7300 N   0  0  0  0  0  0  0  0  0  0  0  0
   60.4980   34.3410   47.0710 C   0  0  0  0  0  0  0  0  0  0  0  0
   59.8560   35.3550   47.4570 O   0  0  0  0  0  0  0  0  0  0  0  0
   60.0100   33.5530   46.0150 O   0  0  0  0  0  0  0  0  0  0  0  0
   58.6310   33.2790   45.7240 C   0  0  0  0  0  0  0  0  0  0  0  0
   57.9060   34.5730   45.2990 C   0  0  0  0  0  0  0  0  0  0  0  0
   58.5030   32.1970   44.6330 C   0  0  0  0  0  0  0  0  0  0  0  0
   57.9920   32.7530   47.0200 C   0  0  0  0  0  0  0  0  0  0  0  0
   62.1050   34.5880   49.0130 C   0  0  0  0  0  0  0  0  0  0  0  0
   61.8630   33.5830   50.1590 C   0  0  0  0  0  0  0  0  0  0  0  0
   60.5650   29.6230   48.2170 C   0  0  0  0  0  0  0  0  0  0  0  0
   60.4010   30.5330   47.3560 O   0  0  0  0  0  0  0  0  0  0  0  0
   60.5960   28.3060   47.8220 N   0  0  0  0  0  0  0  0  0  0  0  0
   60.4260   27.9720   46.3890 C   0  0  0  0  0  0  0  0  0  0  0  0
   58.9750   28.0580   45.9830 C   0  0  0  0  0  0  0  0  0  0  0  0
   58.4850   29.2040   45.3380 C   0  0  0  0  0  0  0  0  0  0  0  0
   57.1450   29.2780   44.9580 C   0  0  0  0  0  0  0  0  0  0  0  0
   56.2770   28.2190   45.2340 C   0  0  0  0  0  0  0  0  0  0  0  0
   56.7380   27.0760   45.9080 C   0  0  0  0  0  0  0  0  0  0  0  0
   55.8160   25.9610   46.2270 C   0  0  0  0  0  0  0  0  0  0  0  0
   54.4300   26.0400   45.8810 N   0  0  0  0  0  0  0  0  0  0  0  0
   56.2370   24.9380   46.8290 O   0  0  0  0  0  0  0  0  0  0  0  0
   58.0930   27.0060   46.2820 C   0  0  0  0  0  0  0  0  0  0  0  0
   60.7660   27.3170   48.7570 C   0  0  0  0  0  0  0  0  0  0  0  0
   60.7960   26.1040   48.4080 O   0  0  0  0  0  0  0  0  0  0  0  0
   60.9522   27.0430   52.1710 H   0  0  0  0  0  0  0  0  0  0  0  0
   60.1601   25.8695   51.0655 H   0  0  0  0  0  0  0  0  0  0  0  0
   61.9486   26.0371   51.0655 H   0  0  0  0  0  0  0  0  0  0  0  0
   60.9352   29.2684   51.5425 H   0  0  0  0  0  0  0  0  0  0  0  0
   63.7850   32.0468   48.9014 H   0  0  0  0  0  0  0  0  0  0  0  0
   62.6393   30.8142   48.2757 H   0  0  0  0  0  0  0  0  0  0  0  0
   63.4205   33.0578   46.8635 H   0  0  0  0  0  0  0  0  0  0  0  0
   61.8558   32.1947   46.6123 H   0  0  0  0  0  0  0  0  0  0  0  0
   57.5941   35.1297   46.1950 H   0  0  0  0  0  0  0  0  0  0  0  0
   58.5871   35.1949   44.6995 H   0  0  0  0  0  0  0  0  0  0  0  0
   57.0200   34.3169   44.6995 H   0  0  0  0  0  0  0  0  0  0  0  0
   58.3863   31.2110   45.1064 H   0  0  0  0  0  0  0  0  0  0  0  0
   57.6237   32.4096   44.0071 H   0  0  0  0  0  0  0  0  0  0  0  0
   59.4076   32.1985   44.0071 H   0  0  0  0  0  0  0  0  0  0  0  0
   58.5145   33.1831   47.8872 H   0  0  0  0  0  0  0  0  0  0  0  0
   56.9314   33.0433   47.0499 H   0  0  0  0  0  0  0  0  0  0  0  0
   58.0730   31.6564   47.0499 H   0  0  0  0  0  0  0  0  0  0  0  0
   63.1694   34.8645   48.9876 H   0  0  0  0  0  0  0  0  0  0  0  0
   61.4941   35.4871   49.1815 H   0  0  0  0  0  0  0  0  0  0  0  0
   62.6826   33.6608   50.8885 H   0  0  0  0  0  0  0  0  0  0  0  0
   60.9032   33.8174   50.6426 H   0  0  0  0  0  0  0  0  0  0  0  0
   61.0118   28.6786   45.7828 H   0  0  0  0  0  0  0  0  0  0  0  0
   60.7758   26.9421   46.2249 H   0  0  0  0  0  0  0  0  0  0  0  0
   59.1604   30.0473   45.1313 H   0  0  0  0  0  0  0  0  0  0  0  0
   56.7707   30.1730   44.4394 H   0  0  0  0  0  0  0  0  0  0  0  0
   55.2242   28.2806   44.9211 H   0  0  0  0  0  0  0  0  0  0  0  0
   53.7950   26.7150   46.3710 H   0  0  0  0  0  0  0  0  0  0  0  0
   58.4655   26.1182   46.8141 H   0  0  0  0  0  0  0  0  0  0  0  0
  1  2  1  0
  2  3  2  0
  3  4  1  0
  4  5  1  0
  5  6  2  0
  5  7  1  0
  7  8  1  0
  8  9  1  0
  9 10  1  0
 10 11  1  0
 11 12  2  0
 11 13  1  0
 13 14  1  0
 14 15  1  0
 14 16  1  0
 14 17  1  0
 10 18  1  0
 18 19  1  0
  4 20  1  0
 20 21  2  0
 20 22  1  0
 22 23  1  0
 23 24  1  0
 24 25  2  0
 25 26  1  0
 26 27  2  0
 27 28  1  0
 28 29  1  0
 29 30  1  0
 29 31  2  0
 28 32  2  0
 22 33  1  0
 33 34  2  0
 33  2  1  0
 19  7  1  0
 32 24  1  0
  1 35  1  0
  1 36  1  0
  1 37  1  0
  3 38  1  0
  8 39  1  0
  8 40  1  0
  9 41  1  0
  9 42  1  0
 15 43  1  0
 15 44  1  0
 15 45  1  0
 16 46  1  0
 16 47  1  0
 16 48  1  0
 17 49  1  0
 17 50  1  0
 17 51  1  0
 18 52  1  0
 18 53  1  0
 19 54  1  0
 19 55  1  0
 23 56  1  0
 23 57  1  0
 25 58  1  0
 26 59  1  0
 27 60  1  0
 30 61  1  0
 32 62  1  0
M  CHG  1  30  -1
M  END
>  <UniqueID>  (7) 
6

>  <SMILES>  (7) 
Cc1cn(C(=O)N2CCN(C(=O)OC(C)(C)C)CC2)c(=O)n(Cc2cccc(C([NH-])=O)c2)c1=O

>  <Energy>  (7) 
76.63847516111028

>  <Genealogy>  (7) 
Cc1cn(C(=O)N2CCN(C(=O)OC(C)(C)C)CC2)c(=O)n(Cc2cccc(C([NH-])=O)c2)c1=O (protonated)
Cc1cn(C(=O)N2CCN(C(=O)OC(C)(C)C)CC2)c(=O)n(Cc2cccc(C([NH-])=O)c2)c1=O (3D coordinates assigned)
Cc1cn(C(=O)N2CCN(C(=O)OC(C)(C)C)CC2)c(=O)n(Cc2cccc(C([NH-])=O)c2)c1=O (nonaromatic ring conformer: 76.63847516111028 kcal/mol)

>  <smiles>  (7) 
Cc1cn(C(=O)N2CCN(C(=O)OC(C)(C)C)CC2)c(=O)n(Cc2cccc(C(N)=O)c2)c1=O

>  <score_type>  (7) 
oracle

>  <origin>  (7) 
adg

>  <m_score__min__energy>  (7) 
-11.449999999999999

>  <m_primary>  (7) 
energy

$$$$
7:0
     RDKit          3D

 32 33  0  0  0  0  0  0  0  0999 V2000
   59.5740   35.1380   46.9340 C   0  0  0  0  0  0  0  0  0  0  0  0
   58.9480   34.0080   46.1720 C   0  0  0  0  0  0  0  0  0  0  0  0
   58.4500   34.2190   44.8770 C   0  0  0  0  0  0  0  0  0  0  0  0
   57.8350   33.1750   44.1790 C   0  0  0  0  0  0  0  0  0  0  0  0
   57.7000   31.9130   44.7730 C   0  0  0  0  0  0  0  0  0  0  0  0
   56.9470   30.6010   43.8720 S   0  0  0  0  0  0  0  0  0  0  0  0
   55.6630   30.1720   44.5260 O   0  0  0  0  0  0  0  0  0  0  0  0
   56.6530   31.0800   42.4790 O   0  0  0  0  0  0  0  0  0  0  0  0
   58.0280   29.2440   43.7980 N   0  0  0  0  0  0  0  0  0  0  0  0
   58.1200   28.2570   44.8410 C   0  0  0  0  0  0  0  0  0  0  0  0
   56.9810   27.5360   45.2500 C   0  0  0  0  0  0  0  0  0  0  0  0
   57.0650   26.5800   46.2690 C   0  0  0  0  0  0  0  0  0  0  0  0
   55.8990   25.8610   46.6800 N   0  0  0  0  0  0  0  0  0  0  0  0
   58.2970   26.3300   46.8830 C   0  0  0  0  0  0  0  0  0  0  0  0
   59.4360   27.0300   46.4810 C   0  0  0  0  0  0  0  0  0  0  0  0
   59.3570   27.9890   45.4660 C   0  0  0  0  0  0  0  0  0  0  0  0
   60.9580   28.9380   45.0010 Br  0  0  0  0  0  0  0  0  0  0  0  0
   58.1750   31.7060   46.0750 C   0  0  0  0  0  0  0  0  0  0  0  0
   58.7900   32.7500   46.7730 C   0  0  0  0  0  0  0  0  0  0  0  0
   59.4717   34.9533   48.0136 H   0  0  0  0  0  0  0  0  0  0  0  0
   60.6404   35.2095   46.6737 H   0  0  0  0  0  0  0  0  0  0  0  0
   59.0691   36.0799   46.6737 H   0  0  0  0  0  0  0  0  0  0  0  0
   58.5439   35.2100   44.4090 H   0  0  0  0  0  0  0  0  0  0  0  0
   57.4560   33.3449   43.1604 H   0  0  0  0  0  0  0  0  0  0  0  0
   58.6970   29.2250   42.9980 H   0  0  0  0  0  0  0  0  0  0  0  0
   56.0135   27.7266   44.7625 H   0  0  0  0  0  0  0  0  0  0  0  0
   54.9710   26.3350   46.7390 H   0  0  0  0  0  0  0  0  0  0  0  0
   55.9560   24.8480   46.9310 H   0  0  0  0  0  0  0  0  0  0  0  0
   58.3684   25.5800   47.6845 H   0  0  0  0  0  0  0  0  0  0  0  0
   60.4021   26.8259   46.9658 H   0  0  0  0  0  0  0  0  0  0  0  0
   58.0638   30.7197   46.5492 H   0  0  0  0  0  0  0  0  0  0  0  0
   59.1518   32.5842   47.7985 H   0  0  0  0  0  0  0  0  0  0  0  0
  1  2  1  0
  2  3  2  0
  3  4  1  0
  4  5  2  0
  5  6  1  0
  6  7  2  0
  6  8  2  0
  6  9  1  0
  9 10  1  0
 10 11  2  0
 11 12  1  0
 12 13  1  0
 12 14  2  0
 14 15  1  0
 15 16  2  0
 16 17  1  0
  5 18  1  0
 18 19  2  0
 19  2  1  0
 16 10  1  0
  1 20  1  0
  1 21  1  0
  1 22  1  0
  3 23  1  0
  4 24  1  0
  9 25  1  0
 11 26  1  0
 13 27  1  0
 13 28  1  0
 14 29  1  0
 15 30  1  0
 18 31  1  0
 19 32  1  0
M  END
>  <UniqueID>  (8) 
7

>  <SMILES>  (8) 
Cc1ccc(S(=O)(=O)Nc2cc(N)ccc2Br)cc1

>  <Energy>  (8) 
34.732807741627816

>  <Genealogy>  (8) 
Cc1ccc(S(=O)(=O)Nc2cc(N)ccc2Br)cc1 (3D coordinates assigned)
Cc1ccc(S(=O)(=O)Nc2cc(N)ccc2Br)cc1 (optimized conformer: 34.732807741627816 kcal/mol)

>  <smiles>  (8) 
Cc1ccc(S(=O)(=O)Nc2cc(N)ccc2Br)cc1

>  <score_type>  (8) 
oracle

>  <origin>  (8) 
adg

>  <m_score__min__energy>  (8) 
-8.25

>  <m_primary>  (8) 
energy

$$$$
8:0
     RDKit          3D

 38 40  0  0  1  0  0  0  0  0999 V2000
   63.3530   32.6260   47.4930 C   0  0  0  0  0  0  0  0  0  0  0  0
   61.9550   32.1280   47.2870 C   0  0  0  0  0  0  0  0  0  0  0  0
   61.7140   30.9190   46.9920 O   0  0  0  0  0  0  0  0  0  0  0  0
   60.8890   33.0630   47.4360 N   0  0  0  0  0  0  0  0  0  0  0  0
   59.5200   32.5850   47.2400 C   0  0  0  0  0  0  0  0  0  0  0  0
   59.0580   33.0890   45.9350 C   0  0  2  0  0  0  0  0  0  0  0  0
   57.9210   34.0950   46.0270 C   0  0  0  0  0  0  0  0  0  0  0  0
   57.4390   34.1200   44.5900 C   0  0  0  0  0  0  0  0  0  0  0  0
   57.9260   32.8150   43.9480 C   0  0  0  0  0  0  0  0  0  0  0  0
   58.3470   32.0720   45.1400 N   0  0  0  0  0  0  0  0  0  0  0  0
   58.1260   30.7150   45.4760 C   0  0  0  0  0  0  0  0  0  0  0  0
   56.9630   30.0780   45.1920 N   0  0  0  0  0  0  0  0  0  0  0  0
   57.0160   28.8160   45.6100 C   0  0  0  0  0  0  0  0  0  0  0  0
   56.0900   27.8390   45.5310 N   0  0  0  0  0  0  0  0  0  0  0  0
   56.4120   26.6280   46.0430 C   0  0  0  0  0  0  0  0  0  0  0  0
   55.5140   25.7140   45.9610 N   0  0  0  0  0  0  0  0  0  0  0  0
   57.6270   26.4130   46.6130 N   0  0  0  0  0  0  0  0  0  0  0  0
   58.5460   27.3880   46.6910 C   0  0  0  0  0  0  0  0  0  0  0  0
   59.6920   27.2010   47.2240 O   0  0  0  0  0  0  0  0  0  0  0  0
   58.2580   28.6290   46.1850 C   0  0  0  0  0  0  0  0  0  0  0  0
   58.9120   29.8160   46.0840 N   0  0  0  0  0  0  0  0  0  0  0  0
   63.5608   32.7000   48.5707 H   0  0  0  0  0  0  0  0  0  0  0  0
   64.0637   31.9257   47.0298 H   0  0  0  0  0  0  0  0  0  0  0  0
   63.4609   33.6179   47.0298 H   0  0  0  0  0  0  0  0  0  0  0  0
   61.1020   34.0650   47.6800 H   0  0  0  0  0  0  0  0  0  0  0  0
   59.5017   31.4852   47.2458 H   0  0  0  0  0  0  0  0  0  0  0  0
   58.8650   32.9432   48.0478 H   0  0  0  0  0  0  0  0  0  0  0  0
   60.0010   33.4705   45.5164 H   0  0  0  0  0  0  0  0  0  0  0  0
   57.1318   33.7510   46.7117 H   0  0  0  0  0  0  0  0  0  0  0  0
   58.2164   35.0778   46.4231 H   0  0  0  0  0  0  0  0  0  0  0  0
   56.3408   34.1733   44.5578 H   0  0  0  0  0  0  0  0  0  0  0  0
   57.8281   34.9981   44.0537 H   0  0  0  0  0  0  0  0  0  0  0  0
   57.1156   32.2986   43.4127 H   0  0  0  0  0  0  0  0  0  0  0  0
   58.7098   32.9430   43.1869 H   0  0  0  0  0  0  0  0  0  0  0  0
   55.1580   28.0140   45.0920 H   0  0  0  0  0  0  0  0  0  0  0  0
   54.5500   25.8580   46.3740 H   0  0  0  0  0  0  0  0  0  0  0  0
   57.8720   25.4810   47.0070 H   0  0  0  0  0  0  0  0  0  0  0  0
   59.8790   30.0040   46.4270 H   0  0  0  0  0  0  0  0  0  0  0  0
  1  2  1  0
  2  3  2  0
  2  4  1  0
  4  5  1  0
  5  6  1  0
  6  7  1  0
  7  8  1  0
  8  9  1  0
  9 10  1  0
 10 11  1  0
 11 12  2  0
 12 13  1  0
 13 14  1  0
 14 15  1  0
 15 16  2  3
 15 17  1  0
 17 18  1  0
 18 19  2  0
 18 20  1  0
 20 21  1  0
 10  6  1  0
 21 11  1  0
 20 13  2  0
  1 22  1  0
  1 23  1  0
  1 24  1  0
  4 25  1  0
  5 26  1  0
  5 27  1  0
  6 28  1  6
  7 29  1  0
  7 30  1  0
  8 31  1  0
  8 32  1  0
  9 33  1  0
  9 34  1  0
 14 35  1  0
 16 36  1  0
 17 37  1  0
 21 38  1  0
M  END
>  <smiles>  (9) 
CC(=O)NCC1CCCN1c1nc2[nH]c(=N)[nH]c(=O)c2[nH]1

>  <score_type>  (9) 
oracle

>  <origin>  (9) 
adg

>  <m_score__min__energy>  (9) 
-7.3899999999999997

>  <m_primary>  (9) 
energy

$$$$
9:0
     RDKit          3D

 59 60  0  0  0  0  0  0  0  0999 V2000
   62.9900   33.4850   46.8140 C   0  0  0  0  0  0  0  0  0  0  0  0
   61.4740   33.5160   46.6380 C   0  0  0  0  0  0  0  0  0  0  0  0
   60.7500   32.7850   47.7720 C   0  0  0  0  0  0  0  0  0  0  0  0
   59.3610   32.4540   47.4060 N   0  0  0  0  0  0  0  0  0  0  0  0
   58.3390   33.5040   47.3350 C   0  0  0  0  0  0  0  0  0  0  0  0
   58.4030   34.2240   45.9850 C   0  0  0  0  0  0  0  0  0  0  0  0
   57.1170   34.0340   45.1820 C   0  0  0  0  0  0  0  0  0  0  0  0
   59.0060   31.0940   47.0930 C   0  0  0  0  0  0  0  0  0  0  0  0
   58.8840   30.1150   48.0920 C   0  0  0  0  0  0  0  0  0  0  0  0
   59.1070   30.4080   49.5450 C   0  0  0  0  0  0  0  0  0  0  0  0
   58.5880   28.8420   47.7360 N   0  0  0  0  0  0  0  0  0  0  0  0
   58.3520   28.4830   46.4500 C   0  0  0  0  0  0  0  0  0  0  0  0
   58.0790   27.0560   46.1830 C   0  0  0  0  0  0  0  0  0  0  0  0
   59.1360   26.1370   46.1850 C   0  0  0  0  0  0  0  0  0  0  0  0
   58.8860   24.7760   45.9970 C   0  0  0  0  0  0  0  0  0  0  0  0
   57.5770   24.3220   45.8040 C   0  0  0  0  0  0  0  0  0  0  0  0
   56.5010   25.2290   45.8350 C   0  0  0  0  0  0  0  0  0  0  0  0
   55.1010   24.7470   45.6030 C   0  0  0  0  0  0  0  0  0  0  0  0
   56.7610   26.5950   46.0320 C   0  0  0  0  0  0  0  0  0  0  0  0
   58.4450   29.4190   45.4400 N   0  0  0  0  0  0  0  0  0  0  0  0
   58.2100   29.0630   44.0230 C   0  0  0  0  0  0  0  0  0  0  0  0
   56.8360   29.5560   43.4780 C   0  0  0  0  0  0  0  0  0  0  0  0
   56.9950   30.8850   42.7320 C   0  0  0  0  0  0  0  0  0  0  0  0
   55.7370   29.6930   44.5430 C   0  0  0  0  0  0  0  0  0  0  0  0
   58.7830   30.7130   45.7630 C   0  0  0  0  0  0  0  0  0  0  0  0
   58.9040   31.5790   44.8540 O   0  0  0  0  0  0  0  0  0  0  0  0
   63.2346   33.4800   47.8864 H   0  0  0  0  0  0  0  0  0  0  0  0
   63.3956   32.5784   46.3412 H   0  0  0  0  0  0  0  0  0  0  0  0
   63.4323   34.3743   46.3412 H   0  0  0  0  0  0  0  0  0  0  0  0
   61.1398   34.5639   46.6206 H   0  0  0  0  0  0  0  0  0  0  0  0
   61.2309   33.0052   45.6946 H   0  0  0  0  0  0  0  0  0  0  0  0
   61.2906   31.8543   47.9989 H   0  0  0  0  0  0  0  0  0  0  0  0
   60.7254   33.4493   48.6484 H   0  0  0  0  0  0  0  0  0  0  0  0
   57.3444   33.0500   47.4564 H   0  0  0  0  0  0  0  0  0  0  0  0
   58.5228   34.2343   48.1368 H   0  0  0  0  0  0  0  0  0  0  0  0
   58.5579   35.2987   46.1611 H   0  0  0  0  0  0  0  0  0  0  0  0
   59.2349   33.7955   45.4068 H   0  0  0  0  0  0  0  0  0  0  0  0
   56.2692   33.9087   45.8716 H   0  0  0  0  0  0  0  0  0  0  0  0
   56.9467   34.9167   44.5481 H   0  0  0  0  0  0  0  0  0  0  0  0
   57.2093   33.1397   44.5481 H   0  0  0  0  0  0  0  0  0  0  0  0
   58.5527   29.6797   50.1552 H   0  0  0  0  0  0  0  0  0  0  0  0
   60.1807   30.3357   49.7731 H   0  0  0  0  0  0  0  0  0  0  0  0
   58.7513   31.4236   49.7731 H   0  0  0  0  0  0  0  0  0  0  0  0
   60.1673   26.4888   46.3353 H   0  0  0  0  0  0  0  0  0  0  0  0
   59.7204   24.0592   46.0007 H   0  0  0  0  0  0  0  0  0  0  0  0
   57.3879   23.2528   45.6275 H   0  0  0  0  0  0  0  0  0  0  0  0
   54.6067   24.5768   46.5708 H   0  0  0  0  0  0  0  0  0  0  0  0
   54.5420   25.5044   45.0339 H   0  0  0  0  0  0  0  0  0  0  0  0
   55.1268   23.8060   45.0339 H   0  0  0  0  0  0  0  0  0  0  0  0
   55.9256   27.3096   46.0683 H   0  0  0  0  0  0  0  0  0  0  0  0
   59.0079   29.5130   43.4140 H   0  0  0  0  0  0  0  0  0  0  0  0
   58.2073   27.9647   43.9614 H   0  0  0  0  0  0  0  0  0  0  0  0
   56.5019   28.7648   42.7907 H   0  0  0  0  0  0  0  0  0  0  0  0
   57.0930   31.7043   43.4594 H   0  0  0  0  0  0  0  0  0  0  0  0
   57.8948   30.8457   42.1005 H   0  0  0  0  0  0  0  0  0  0  0  0
   56.1113   31.0590   42.1005 H   0  0  0  0  0  0  0  0  0  0  0  0
   56.1881   29.6368   45.5447 H   0  0  0  0  0  0  0  0  0  0  0  0
   55.2292   30.6614   44.4234 H   0  0  0  0  0  0  0  0  0  0  0  0
   55.0070   28.8789   44.4234 H   0  0  0  0  0  0  0  0  0  0  0  0
  1  2  1  0
  2  3  1  0
  3  4  1  0
  4  5  1  0
  5  6  1  0
  6  7  1  0
  4  8  1  0
  8  9  2  0
  9 10  1  0
  9 11  1  0
 11 12  2  0
 12 13  1  0
 13 14  2  0
 14 15  1  0
 15 16  2  0
 16 17  1  0
 17 18  1  0
 17 19  2  0
 12 20  1  0
 20 21  1  0
 21 22  1  0
 22 23  1  0
 22 24  1  0
 20 25  1  0
 25 26  2  0
 25  8  1  0
 19 13  1  0
  1 27  1  0
  1 28  1  0
  1 29  1  0
  2 30  1  0
  2 31  1  0
  3 32  1  0
  3 33  1  0
  5 34  1  0
  5 35  1  0
  6 36  1  0
  6 37  1  0
  7 38  1  0
  7 39  1  0
  7 40  1  0
 10 41  1  0
 10 42  1  0
 10 43  1  0
 14 44  1  0
 15 45  1  0
 16 46  1  0
 18 47  1  0
 18 48  1  0
 18 49  1  0
 19 50  1  0
 21 51  1  0
 21 52  1  0
 22 53  1  0
 23 54  1  0
 23 55  1  0
 23 56  1  0
 24 57  1  0
 24 58  1  0
 24 59  1  0
M  END
>  <UniqueID>  (10) 
8

>  <SMILES>  (10) 
CCCN(CCC)c1c(C)nc(-c2cccc(C)c2)n(CC(C)C)c1=O

>  <Energy>  (10) 
61.849125067829455

>  <Genealogy>  (10) 
CCCN(CCC)c1c(C)nc(-c2cccc(C)c2)n(CC(C)C)c1=O (3D coordinates assigned)
CCCN(CCC)c1c(C)nc(-c2cccc(C)c2)n(CC(C)C)c1=O (optimized conformer: 61.849125067829455 kcal/mol)

>  <smiles>  (10) 
CCCN(CCC)c1c(C)nc(-c2cccc(C)c2)n(CC(C)C)c1=O

>  <score_type>  (10) 
oracle

>  <origin>  (10) 
adg

>  <m_score__min__energy>  (10) 
-7.7000000000000002

>  <m_primary>  (10) 
energy

$$$$
10:0
     RDKit          3D

 29 30  0  0  0  0  0  0  0  0999 V2000
   59.4910   34.9810   47.0010 C   0  0  0  0  0  0  0  0  0  0  0  0
   58.8340   33.8760   46.2300 C   0  0  0  0  0  0  0  0  0  0  0  0
   58.7440   32.5870   46.7790 C   0  0  0  0  0  0  0  0  0  0  0  0
   58.1630   31.5470   46.0460 C   0  0  0  0  0  0  0  0  0  0  0  0
   57.6750   31.7830   44.7540 C   0  0  0  0  0  0  0  0  0  0  0  0
   56.9310   30.4820   43.8300 S   0  0  0  0  0  0  0  0  0  0  0  0
   55.6420   30.0920   44.4960 O   0  0  0  0  0  0  0  0  0  0  0  0
   56.6400   30.9280   42.4240 O   0  0  0  0  0  0  0  0  0  0  0  0
   57.9890   29.1060   43.7810 N   0  0  0  0  0  0  0  0  0  0  0  0
   58.3600   28.3360   44.9400 C   0  0  0  0  0  0  0  0  0  0  0  0
   59.6940   28.2200   45.3680 C   0  0  0  0  0  0  0  0  0  0  0  0
   60.0020   27.4670   46.5020 C   0  0  0  0  0  0  0  0  0  0  0  0
   58.9760   26.8300   47.2000 C   0  0  0  0  0  0  0  0  0  0  0  0
   57.6900   26.9440   46.7740 N   0  0  0  0  0  0  0  0  0  0  0  0
   57.3650   27.6730   45.6730 C   0  0  0  0  0  0  0  0  0  0  0  0
   57.7850   33.0630   44.1950 C   0  0  0  0  0  0  0  0  0  0  0  0
   58.3650   34.1030   44.9270 C   0  0  0  0  0  0  0  0  0  0  0  0
   59.3791   34.7928   48.0790 H   0  0  0  0  0  0  0  0  0  0  0  0
   60.5600   35.0215   46.7449 H   0  0  0  0  0  0  0  0  0  0  0  0
   59.0160   35.9395   46.7449 H   0  0  0  0  0  0  0  0  0  0  0  0
   59.1321   32.3941   47.7900 H   0  0  0  0  0  0  0  0  0  0  0  0
   58.0890   30.5411   46.4851 H   0  0  0  0  0  0  0  0  0  0  0  0
   58.3210   28.7970   42.8410 H   0  0  0  0  0  0  0  0  0  0  0  0
   60.4961   28.7234   44.8084 H   0  0  0  0  0  0  0  0  0  0  0  0
   61.0442   27.3767   46.8422 H   0  0  0  0  0  0  0  0  0  0  0  0
   59.2076   26.2350   48.0957 H   0  0  0  0  0  0  0  0  0  0  0  0
   56.3143   27.7432   45.3551 H   0  0  0  0  0  0  0  0  0  0  0  0
   57.4137   33.2501   43.1766 H   0  0  0  0  0  0  0  0  0  0  0  0
   58.4542   35.1040   44.4796 H   0  0  0  0  0  0  0  0  0  0  0  0
  1  2  1  0
  2  3  2  0
  3  4  1  0
  4  5  2  0
  5  6  1  0
  6  7  2  0
  6  8  2  0
  6  9  1  0
  9 10  1  0
 10 11  2  0
 11 12  1  0
 12 13  2  0
 13 14  1  0
 14 15  2  0
  5 16  1  0
 16 17  2  0
 17  2  1  0
 15 10  1  0
  1 18  1  0
  1 19  1  0
  1 20  1  0
  3 21  1  0
  4 22  1  0
  9 23  1  0
 11 24  1  0
 12 25  1  0
 13 26  1  0
 15 27  1  0
 16 28  1  0
 17 29  1  0
M  END
>  <UniqueID>  (11) 
9

>  <SMILES>  (11) 
Cc1ccc(S(=O)(=O)Nc2cccnc2)cc1

>  <Energy>  (11) 
32.12043876611901

>  <Genealogy>  (11) 
Cc1ccc(S(=O)(=O)Nc2cccnc2)cc1 (3D coordinates assigned)
Cc1ccc(S(=O)(=O)Nc2cccnc2)cc1 (optimized conformer: 32.12043876611901 kcal/mol)

>  <smiles>  (11) 
Cc1ccc(S(=O)(=O)Nc2cccnc2)cc1

>  <score_type>  (11) 
oracle

>  <origin>  (11) 
adg

>  <m_score__min__energy>  (11) 
-7.1500000000000004

>  <m_primary>  (11) 
energy

$$$$
11:0
     RDKit          3D

 31 33  0  0  0  0  0  0  0  0999 V2000
   60.0520   26.3450   45.9220 C   0  0  0  0  0  0  0  0  0  0  0  0
   58.6770   25.7190   45.9720 C   0  0  0  0  0  0  0  0  0  0  0  0
   57.5110   26.5210   45.9360 C   0  0  0  0  0  0  0  0  0  0  0  0
   57.5990   27.9960   45.8200 C   0  0  0  0  0  0  0  0  0  0  0  0
   58.1830   28.7500   46.8500 C   0  0  0  0  0  0  0  0  0  0  0  0
   58.2620   30.1420   46.7450 C   0  0  0  0  0  0  0  0  0  0  0  0
   57.7560   30.7890   45.6130 C   0  0  0  0  0  0  0  0  0  0  0  0
   57.8650   32.6910   45.4700 Br  0  0  0  0  0  0  0  0  0  0  0  0
   57.1670   30.0430   44.5860 C   0  0  0  0  0  0  0  0  0  0  0  0
   57.0860   28.6510   44.6890 C   0  0  0  0  0  0  0  0  0  0  0  0
   56.2820   25.9270   46.0080 N   0  0  0  0  0  0  0  0  0  0  0  0
   55.1490   26.7140   45.9690 O   0  0  0  0  0  0  0  0  0  0  0  0
   56.1590   24.5690   46.0870 C   0  0  0  0  0  0  0  0  0  0  0  0
   54.8930   23.9570   46.1590 C   0  0  0  0  0  0  0  0  0  0  0  0
   54.7840   22.5660   46.2270 C   0  0  0  0  0  0  0  0  0  0  0  0
   55.9300   21.7720   46.2240 C   0  0  0  0  0  0  0  0  0  0  0  0
   57.1930   22.3630   46.1530 C   0  0  0  0  0  0  0  0  0  0  0  0
   57.3220   23.7650   46.0850 C   0  0  0  0  0  0  0  0  0  0  0  0
   58.5510   24.3570   46.0180 N   0  0  0  0  0  0  0  0  0  0  0  0
   59.6850   23.5710   45.9940 O   0  0  0  0  0  0  0  0  0  0  0  0
   60.4167   26.5111   46.9464 H   0  0  0  0  0  0  0  0  0  0  0  0
   60.7421   25.6723   45.3916 H   0  0  0  0  0  0  0  0  0  0  0  0
   59.9978   27.3072   45.3916 H   0  0  0  0  0  0  0  0  0  0  0  0
   58.5797   28.2441   47.7426 H   0  0  0  0  0  0  0  0  0  0  0  0
   58.7225   30.7288   47.5534 H   0  0  0  0  0  0  0  0  0  0  0  0
   56.7673   30.5523   43.6967 H   0  0  0  0  0  0  0  0  0  0  0  0
   56.6191   28.0675   43.8818 H   0  0  0  0  0  0  0  0  0  0  0  0
   53.9848   24.5776   46.1617 H   0  0  0  0  0  0  0  0  0  0  0  0
   53.7912   22.0958   46.2831 H   0  0  0  0  0  0  0  0  0  0  0  0
   55.8389   20.6771   46.2777 H   0  0  0  0  0  0  0  0  0  0  0  0
   58.0930   21.7305   46.1501 H   0  0  0  0  0  0  0  0  0  0  0  0
  1  2  1  0
  2  3  2  0
  3  4  1  0
  4  5  2  0
  5  6  1  0
  6  7  2  0
  7  8  1  0
  7  9  1  0
  9 10  2  0
  3 11  1  0
 11 12  1  0
 11 13  2  0
 13 14  1  0
 14 15  2  0
 15 16  1  0
 16 17  2  0
 17 18  1  0
 18 19  2  0
 19 20  1  0
 19  2  1  0
 10  4  1  0
 18 13  1  0
  1 21  1  0
  1 22  1  0
  1 23  1  0
  5 24  1  0
  6 25  1  0
  9 26  1  0
 10 27  1  0
 14 28  1  0
 15 29  1  0
 16 30  1  0
 17 31  1  0
M  CHG  4  11   1  12  -1  19   1  20  -1
M  END
>  <UniqueID>  (12) 
10

>  <SMILES>  (12) 
Cc1c(-c2ccc(Br)cc2)[n+]([O-])c2ccccc2[n+]1[O-]

>  <Energy>  (12) 
49.64670922038026

>  <Genealogy>  (12) 
Cc1c(-c2ccc(Br)cc2)[n+]([O-])c2ccccc2[n+]1[O-] (3D coordinates assigned)
Cc1c(-c2ccc(Br)cc2)[n+]([O-])c2ccccc2[n+]1[O-] (optimized conformer: 49.64670922038026 kcal/mol)

>  <smiles>  (12) 
Cc1c(-c2ccc(Br)cc2)[n+]([O-])c2ccccc2[n+]1[O-]

>  <score_type>  (12) 
oracle

>  <origin>  (12) 
adg

>  <m_score__min__energy>  (12) 
-7.6399999999999997

>  <m_primary>  (12) 
energy

$$$$
12:0
     RDKit          3D

 35 37  0  0  0  0  0  0  0  0999 V2000
   59.2870   34.0770   48.2910 C   0  0  0  0  0  0  0  0  0  0  0  0
   60.3430   33.4430   47.3710 C   0  0  2  0  0  0  0  0  0  0  0  0
   60.5160   34.2400   46.0560 C   0  0  0  0  0  0  0  0  0  0  0  0
   59.2600   34.2070   45.1640 C   0  0  0  0  0  0  0  0  0  0  0  0
   58.6590   32.8360   45.1260 C   0  0  0  0  0  0  0  0  0  0  0  0
   57.4000   32.3380   44.1320 S   0  0  0  0  0  0  0  0  0  0  0  0
   57.2150   30.8220   44.8440 C   0  0  0  0  0  0  0  0  0  0  0  0
   56.1910   29.8410   44.4530 C   0  0  0  0  0  0  0  0  0  0  0  0
   55.4960   30.0670   43.4290 O   0  0  0  0  0  0  0  0  0  0  0  0
   55.9090   28.6690   45.2340 N   0  0  0  0  0  0  0  0  0  0  0  0
   56.8810   27.6750   45.6870 C   0  0  0  0  0  0  0  0  0  0  0  0
   56.2710   26.3060   45.7170 C   0  0  0  0  0  0  0  0  0  0  0  0
   56.9490   25.1150   45.5490 C   0  0  0  0  0  0  0  0  0  0  0  0
   55.9970   24.1270   45.6750 C   0  0  0  0  0  0  0  0  0  0  0  0
   54.8000   24.7740   45.9020 C   0  0  0  0  0  0  0  0  0  0  0  0
   54.9940   26.0730   45.9200 O   0  0  0  0  0  0  0  0  0  0  0  0
   58.1490   30.6840   45.8670 C   0  0  0  0  0  0  0  0  0  0  0  0
   58.9320   31.8310   46.0440 C   0  0  0  0  0  0  0  0  0  0  0  0
   60.0160   31.9610   47.0760 C   0  0  0  0  0  0  0  0  0  0  0  0
   59.5672   33.9088   49.3413 H   0  0  0  0  0  0  0  0  0  0  0  0
   59.2314   35.1580   48.0950 H   0  0  0  0  0  0  0  0  0  0  0  0
   58.3068   33.6179   48.0950 H   0  0  0  0  0  0  0  0  0  0  0  0
   61.3013   33.4809   47.9097 H   0  0  0  0  0  0  0  0  0  0  0  0
   60.7403   35.2871   46.3074 H   0  0  0  0  0  0  0  0  0  0  0  0
   61.3342   33.7698   45.4908 H   0  0  0  0  0  0  0  0  0  0  0  0
   58.5174   34.9134   45.5635 H   0  0  0  0  0  0  0  0  0  0  0  0
   59.5515   34.4881   44.1413 H   0  0  0  0  0  0  0  0  0  0  0  0
   57.7399   27.6717   44.9997 H   0  0  0  0  0  0  0  0  0  0  0  0
   57.2047   27.9381   46.7048 H   0  0  0  0  0  0  0  0  0  0  0  0
   58.0237   24.9827   45.3552 H   0  0  0  0  0  0  0  0  0  0  0  0
   56.1588   23.0410   45.6081 H   0  0  0  0  0  0  0  0  0  0  0  0
   53.8293   24.2770   46.0462 H   0  0  0  0  0  0  0  0  0  0  0  0
   58.2599   29.7717   46.4714 H   0  0  0  0  0  0  0  0  0  0  0  0
   59.6841   31.4763   48.0060 H   0  0  0  0  0  0  0  0  0  0  0  0
   60.9240   31.4785   46.6853 H   0  0  0  0  0  0  0  0  0  0  0  0
  1  2  1  0
  2  3  1  0
  3  4  1  0
  4  5  1  0
  5  6  1  0
  6  7  1  0
  7  8  1  0
  8  9  2  0
  8 10  1  0
 10 11  1  0
 11 12  1  0
 12 13  2  0
 13 14  1  0
 14 15  2  0
 15 16  1  0
  7 17  2  0
 17 18  1  0
 18 19  1  0
 19  2  1  0
 18  5  2  0
 16 12  1  0
  1 20  1  0
  1 21  1  0
  1 22  1  0
  2 23  1  1
  3 24  1  0
  3 25  1  0
  4 26  1  0
  4 27  1  0
 11 28  1  0
 11 29  1  0
 13 30  1  0
 14 31  1  0
 15 32  1  0
 17 33  1  0
 19 34  1  0
 19 35  1  0
M  CHG  1  10  -1
M  END
>  <UniqueID>  (13) 
11

>  <SMILES>  (13) 
C[C@@H]1CCc2sc(C(=O)[N-]Cc3ccco3)cc2C1

>  <Energy>  (13) 
85.71660335691821

>  <Genealogy>  (13) 
CC1CCc2sc(C(=O)[N-]Cc3ccco3)cc2C1 (protonated)
C[C@@H]1CCc2sc(C(=O)[N-]Cc3ccco3)cc2C1 (chirality)
C[C@@H]1CCc2sc(C(=O)[N-]Cc3ccco3)cc2C1 (3D coordinates assigned)
C[C@@H]1CCc2sc(C(=O)[N-]Cc3ccco3)cc2C1 (nonaromatic ring conformer: 85.71660335691821 kcal/mol)

>  <smiles>  (13) 
CC1CCc2sc(C(=O)NCc3ccco3)cc2C1

>  <score_type>  (13) 
oracle

>  <origin>  (13) 
adg

>  <m_score__min__energy>  (13) 
-9.75

>  <m_primary>  (13) 
energy

$$$$
13:0
     RDKit          3D

 37 39  0  0  0  0  0  0  0  0999 V2000
   58.4630   26.6970   47.1630 O   0  0  0  0  0  0  0  0  0  0  0  0
   57.6240   27.1600   46.3430 C   0  0  0  0  0  0  0  0  0  0  0  0
   56.6350   26.2910   45.7680 N   0  0  0  0  0  0  0  0  0  0  0  0
   56.3390   24.9730   46.3230 C   0  0  0  0  0  0  0  0  0  0  0  0
   56.6770   23.9020   45.3230 C   0  0  0  0  0  0  0  0  0  0  0  0
   57.7870   23.0690   45.5360 C   0  0  0  0  0  0  0  0  0  0  0  0
   58.1230   22.0910   44.5940 C   0  0  0  0  0  0  0  0  0  0  0  0
   57.3580   21.9420   43.4350 C   0  0  0  0  0  0  0  0  0  0  0  0
   56.2570   22.7730   43.2120 C   0  0  0  0  0  0  0  0  0  0  0  0
   55.9170   23.7530   44.1500 C   0  0  0  0  0  0  0  0  0  0  0  0
   57.7100   28.5830   45.9580 C   0  0  0  0  0  0  0  0  0  0  0  0
   58.7990   29.2970   46.3510 N   0  0  0  0  0  0  0  0  0  0  0  0
   58.9480   30.6120   46.0350 C   0  0  0  0  0  0  0  0  0  0  0  0
   60.1540   31.3570   46.4740 C   0  0  0  0  0  0  0  0  0  0  0  0
   60.2120   32.7600   46.3570 C   0  0  0  0  0  0  0  0  0  0  0  0
   61.3500   33.4600   46.7710 C   0  0  0  0  0  0  0  0  0  0  0  0
   62.4410   32.7720   47.3050 C   0  0  0  0  0  0  0  0  0  0  0  0
   62.3960   31.3820   47.4260 C   0  0  0  0  0  0  0  0  0  0  0  0
   61.2620   30.6770   47.0140 C   0  0  0  0  0  0  0  0  0  0  0  0
   57.9790   31.2370   45.3120 N   0  0  0  0  0  0  0  0  0  0  0  0
   56.8640   30.5770   44.9090 C   0  0  0  0  0  0  0  0  0  0  0  0
   55.9820   31.1900   44.2510 O   0  0  0  0  0  0  0  0  0  0  0  0
   56.6940   29.2300   45.2330 C   0  0  0  0  0  0  0  0  0  0  0  0
   55.5250   28.5680   44.8670 O   0  0  0  0  0  0  0  0  0  0  0  0
   56.1380   26.5810   44.8970 H   0  0  0  0  0  0  0  0  0  0  0  0
   56.9350   24.8202   47.2348 H   0  0  0  0  0  0  0  0  0  0  0  0
   55.2668   24.9161   46.5621 H   0  0  0  0  0  0  0  0  0  0  0  0
   58.3939   23.1858   46.4459 H   0  0  0  0  0  0  0  0  0  0  0  0
   58.9913   21.4381   44.7664 H   0  0  0  0  0  0  0  0  0  0  0  0
   57.6224   21.1700   42.6973 H   0  0  0  0  0  0  0  0  0  0  0  0
   55.6569   22.6562   42.2975 H   0  0  0  0  0  0  0  0  0  0  0  0
   55.0526   24.4089   43.9694 H   0  0  0  0  0  0  0  0  0  0  0  0
   59.3561   33.3087   45.9370 H   0  0  0  0  0  0  0  0  0  0  0  0
   61.3854   34.5553   46.6756 H   0  0  0  0  0  0  0  0  0  0  0  0
   63.3350   33.3244   47.6300 H   0  0  0  0  0  0  0  0  0  0  0  0
   63.2557   30.8401   47.8469 H   0  0  0  0  0  0  0  0  0  0  0  0
   61.2349   29.5817   47.1124 H   0  0  0  0  0  0  0  0  0  0  0  0
  1  2  2  0
  2  3  1  0
  3  4  1  0
  4  5  1  0
  5  6  2  0
  6  7  1  0
  7  8  2  0
  8  9  1  0
  9 10  2  0
  2 11  1  0
 11 12  1  0
 12 13  1  0
 13 14  1  0
 14 15  2  0
 15 16  1  0
 16 17  2  0
 17 18  1  0
 18 19  2  0
 13 20  2  0
 20 21  1  0
 21 22  2  0
 21 23  1  0
 23 24  1  0
 10  5  1  0
 23 11  2  0
 19 14  1  0
  3 25  1  0
  4 26  1  0
  4 27  1  0
  6 28  1  0
  7 29  1  0
  8 30  1  0
  9 31  1  0
 10 32  1  0
 15 33  1  0
 16 34  1  0
 17 35  1  0
 18 36  1  0
 19 37  1  0
M  CHG  2  12  -1  24  -1
M  END
>  <UniqueID>  (14) 
12

>  <SMILES>  (14) 
O=C(NCc1ccccc1)c1[n-]c(-c2ccccc2)nc(=O)c1[O-]

>  <Energy>  (14) 
43.640921497366556

>  <Genealogy>  (14) 
O=C(NCc1ccccc1)c1[n-]c(-c2ccccc2)nc(=O)c1[O-] (protonated)
O=C(NCc1ccccc1)c1[n-]c(-c2ccccc2)nc(=O)c1[O-] (3D coordinates assigned)
O=C(NCc1ccccc1)c1[n-]c(-c2ccccc2)nc(=O)c1[O-] (optimized conformer: 43.640921497366556 kcal/mol)

>  <smiles>  (14) 
O=C(NCc1ccccc1)c1[nH]c(-c2ccccc2)nc(=O)c1O

>  <score_type>  (14) 
oracle

>  <origin>  (14) 
adg

>  <m_score__min__energy>  (14) 
-11.640000000000001

>  <m_primary>  (14) 
energy

$$$$
14:0
     RDKit          3D

 20 22  0  0  0  0  0  0  0  0999 V2000
   60.0300   27.7750   45.7160 O   0  0  0  0  0  0  0  0  0  0  0  0
   58.6680   27.9320   45.5290 N   0  0  0  0  0  0  0  0  0  0  0  0
   58.0950   29.0270   44.9080 C   0  0  0  0  0  0  0  0  0  0  0  0
   58.8590   30.1020   44.4000 C   0  0  0  0  0  0  0  0  0  0  0  0
   58.2330   31.1870   43.7790 C   0  0  0  0  0  0  0  0  0  0  0  0
   56.8440   31.2260   43.6510 C   0  0  0  0  0  0  0  0  0  0  0  0
   56.0650   30.1790   44.1440 C   0  0  0  0  0  0  0  0  0  0  0  0
   56.6710   29.0840   44.7690 C   0  0  0  0  0  0  0  0  0  0  0  0
   55.8950   28.0700   45.2430 N   0  0  0  0  0  0  0  0  0  0  0  0
   56.4770   27.0100   45.8470 C   0  0  0  0  0  0  0  0  0  0  0  0
   55.7910   25.9550   46.3510 N   0  0  0  0  0  0  0  0  0  0  0  0
   56.6480   25.0540   46.8920 C   0  0  0  0  0  0  0  0  0  0  0  0
   56.1530   23.6630   47.5880 S   0  0  0  0  0  0  0  0  0  0  0  0
   58.2720   25.5250   46.7680 S   0  0  0  0  0  0  0  0  0  0  0  0
   57.8470   26.9500   45.9840 C   0  0  0  0  0  0  0  0  0  0  0  0
   60.7080   27.7960   44.9700 H   0  0  0  0  0  0  0  0  0  0  0  0
   59.9548   30.0849   44.4939 H   0  0  0  0  0  0  0  0  0  0  0  0
   58.8404   32.0167   43.3881 H   0  0  0  0  0  0  0  0  0  0  0  0
   56.3621   32.0844   43.1602 H   0  0  0  0  0  0  0  0  0  0  0  0
   54.9704   30.2146   44.0409 H   0  0  0  0  0  0  0  0  0  0  0  0
  1  2  1  0
  2  3  2  0
  3  4  1  0
  4  5  2  0
  5  6  1  0
  6  7  2  0
  7  8  1  0
  8  9  2  0
  9 10  1  0
 10 11  1  0
 11 12  1  0
 12 13  2  0
 12 14  1  0
 14 15  1  0
 15  2  1  0
  8  3  1  0
 15 10  2  0
  1 16  1  0
  4 17  1  0
  5 18  1  0
  6 19  1  0
  7 20  1  0
M  CHG  2   2   1  11  -1
M  END
>  <UniqueID>  (15) 
13

>  <SMILES>  (15) 
O[n+]1c2ccccc2nc2[n-]c(=S)sc21

>  <Energy>  (15) 
66.84238320465813

>  <Genealogy>  (15) 
O[n+]1c2ccccc2nc2[n-]c(=S)sc21 (protonated)
O[n+]1c2ccccc2nc2[n-]c(=S)sc21 (3D coordinates assigned)
O[n+]1c2ccccc2nc2[n-]c(=S)sc21 (optimized conformer: 66.84238320465813 kcal/mol)

>  <smiles>  (15) 
[O-][n+]1c2ccccc2nc2[nH]c(=S)sc21

>  <score_type>  (15) 
oracle

>  <origin>  (15) 
adg

>  <m_score__min__energy>  (15) 
-6.04

>  <m_primary>  (15) 
energy

$$$$
15:0
     RDKit          3D

 51 54  0  0  0  0  0  0  0  0999 V2000
   57.3634   29.7444   43.0781 H   0  0  0  0  0  0  0  0  0  0  0  0
   57.4430   30.2810   44.0350 C   0  0  0  0  0  0  0  0  0  0  0  0
   56.5760   31.2110   44.2940 N   0  0  0  0  0  0  0  0  0  0  0  0
   56.6990   32.0560   45.3740 O   0  0  0  0  0  0  0  0  0  0  0  0
   57.0440   33.4190   45.1950 C   0  0  0  0  0  0  0  0  0  0  0  0
   56.1886   34.0551   45.4663 H   0  0  0  0  0  0  0  0  0  0  0  0
   57.3086   33.6015   44.1430 H   0  0  0  0  0  0  0  0  0  0  0  0
   58.2130   33.7440   46.0770 C   0  0  0  0  0  0  0  0  0  0  0  0
   58.1820   33.3960   47.4360 C   0  0  0  0  0  0  0  0  0  0  0  0
   57.2852   32.9190   47.8581 H   0  0  0  0  0  0  0  0  0  0  0  0
   59.2840   33.6520   48.2560 C   0  0  0  0  0  0  0  0  0  0  0  0
   59.2460   33.3806   49.3213 H   0  0  0  0  0  0  0  0  0  0  0  0
   60.4360   34.2510   47.7330 C   0  0  0  0  0  0  0  0  0  0  0  0
   61.5160   34.4860   48.5960 O   0  0  0  0  0  0  0  0  0  0  0  0
   61.5030   34.2090   49.9930 C   0  0  0  0  0  0  0  0  0  0  0  0
   61.5473   35.1538   50.5546 H   0  0  0  0  0  0  0  0  0  0  0  0
   60.5786   33.6717   50.2517 H   0  0  0  0  0  0  0  0  0  0  0  0
   62.3730   33.5875   50.2517 H   0  0  0  0  0  0  0  0  0  0  0  0
   60.4730   34.5920   46.3670 C   0  0  0  0  0  0  0  0  0  0  0  0
   61.3726   35.0630   45.9440 H   0  0  0  0  0  0  0  0  0  0  0  0
   59.3700   34.3340   45.5460 C   0  0  0  0  0  0  0  0  0  0  0  0
   59.4100   34.5952   44.4782 H   0  0  0  0  0  0  0  0  0  0  0  0
   58.5340   29.9060   44.9630 C   0  0  0  0  0  0  0  0  0  0  0  0
   59.3070   30.7500   45.7480 C   0  0  0  0  0  0  0  0  0  0  0  0
   59.2826   31.8495   45.7241 H   0  0  0  0  0  0  0  0  0  0  0  0
   60.0940   29.9970   46.5460 N   0  0  0  0  0  0  0  0  0  0  0  0
   61.0490   30.4850   47.5090 C   0  0  0  0  0  0  0  0  0  0  0  0
   62.1490   31.2630   47.0990 C   0  0  0  0  0  0  0  0  0  0  0  0
   62.2787   31.5068   46.0342 H   0  0  0  0  0  0  0  0  0  0  0  0
   63.0780   31.7280   48.0360 C   0  0  0  0  0  0  0  0  0  0  0  0
   63.9336   32.3358   47.7066 H   0  0  0  0  0  0  0  0  0  0  0  0
   62.9200   31.4210   49.3900 C   0  0  0  0  0  0  0  0  0  0  0  0
   63.6509   31.7873   50.1259 H   0  0  0  0  0  0  0  0  0  0  0  0
   61.8340   30.6490   49.8090 C   0  0  0  0  0  0  0  0  0  0  0  0
   61.7106   30.4078   50.8751 H   0  0  0  0  0  0  0  0  0  0  0  0
   60.9030   30.1820   48.8750 C   0  0  0  0  0  0  0  0  0  0  0  0
   60.0506   29.5734   49.2112 H   0  0  0  0  0  0  0  0  0  0  0  0
   59.8440   28.7160   46.3120 N   0  0  0  0  0  0  0  0  0  0  0  0
   60.2990   27.9160   46.8050 H   0  0  0  0  0  0  0  0  0  0  0  0
   58.8980   28.6230   45.3570 C   0  0  0  0  0  0  0  0  0  0  0  0
   58.3710   27.3370   44.8470 C   0  0  0  0  0  0  0  0  0  0  0  0
   58.2420   27.1070   43.4670 C   0  0  0  0  0  0  0  0  0  0  0  0
   58.5238   27.8941   42.7521 H   0  0  0  0  0  0  0  0  0  0  0  0
   57.7570   25.8820   42.9980 C   0  0  0  0  0  0  0  0  0  0  0  0
   57.6515   25.7115   41.9164 H   0  0  0  0  0  0  0  0  0  0  0  0
   57.4060   24.8740   43.9000 C   0  0  0  0  0  0  0  0  0  0  0  0
   56.9370   23.6870   43.4430 F   0  0  0  0  0  0  0  0  0  0  0  0
   57.5430   25.0900   45.2740 C   0  0  0  0  0  0  0  0  0  0  0  0
   57.2681   24.2966   45.9846 H   0  0  0  0  0  0  0  0  0  0  0  0
   58.0290   26.3130   45.7470 C   0  0  0  0  0  0  0  0  0  0  0  0
   58.1442   26.4744   46.8290 H   0  0  0  0  0  0  0  0  0  0  0  0
  1  2  1  0
  2  3  2  0
  3  4  1  0
  4  5  1  0
  5  6  1  0
  5  7  1  0
  5  8  1  0
  8  9  2  0
  9 10  1  0
  9 11  1  0
 11 12  1  0
 11 13  2  0
 13 14  1  0
 14 15  1  0
 15 16  1  0
 15 17  1  0
 15 18  1  0
 13 19  1  0
 19 20  1  0
 19 21  2  0
 21 22  1  0
  2 23  1  0
 23 24  2  0
 24 25  1  0
 24 26  1  0
 26 27  1  0
 27 28  2  0
 28 29  1  0
 28 30  1  0
 30 31  1  0
 30 32  2  0
 32 33  1  0
 32 34  1  0
 34 35  1  0
 34 36  2  0
 36 37  1  0
 26 38  1  0
 38 39  1  0
 38 40  2  0
 40 41  1  0
 41 42  2  0
 42 43  1  0
 42 44  1  0
 44 45  1  0
 44 46  2  0
 46 47  1  0
 46 48  1  0
 48 49  1  0
 48 50  2  0
 50 51  1  0
 21  8  1  0
 40 23  1  0
 50 41  1  0
 36 27  1  0
M  CHG  1  38   1
M  END
>  <UniqueID>  (16) 
14

>  <SMILES>  (16) 
COc1ccc(CO/N=C\c2cn(-c3ccccc3)[nH+]c2-c2ccc(F)cc2)cc1

>  <Energy>  (16) 
91.31635736497041

>  <Genealogy>  (16) 
COc1ccc(CON=Cc2cn(-c3ccccc3)[nH+]c2-c2ccc(F)cc2)cc1 (protonated)
COc1ccc(CO/N=C\c2cn(-c3ccccc3)[nH+]c2-c2ccc(F)cc2)cc1 (cis-trans isomerization)
COc1ccc(CO/N=C\c2cn(-c3ccccc3)[nH+]c2-c2ccc(F)cc2)cc1 (3D coordinates assigned)
COc1ccc(CO/N=C\c2cn(-c3ccccc3)[nH+]c2-c2ccc(F)cc2)cc1 (optimized conformer: 91.31635736497041 kcal/mol)

>  <smiles>  (16) 
COc1ccc(CON=Cc2cn(-c3ccccc3)nc2-c2ccc(F)cc2)cc1

>  <score_type>  (16) 
oracle

>  <origin>  (16) 
adg

>  <m_score__min__energy>  (16) 
-6.9000000000000004

>  <m_primary>  (16) 
energy

$$$$
16:0
     RDKit          3D

 48 51  0  0  0  0  0  0  0  0999 V2000
   58.1770   31.2010   50.5120 C   0  0  0  0  0  0  0  0  0  0  0  0
   58.5250   32.0740   51.6860 C   0  0  0  0  0  0  0  0  0  0  0  0
   57.8540   31.8930   52.9070 C   0  0  0  0  0  0  0  0  0  0  0  0
   58.1650   32.6890   54.0120 C   0  0  0  0  0  0  0  0  0  0  0  0
   59.1440   33.6790   53.9080 C   0  0  0  0  0  0  0  0  0  0  0  0
   59.8070   33.8830   52.6960 C   0  0  0  0  0  0  0  0  0  0  0  0
   59.4940   33.0990   51.5760 C   0  0  0  0  0  0  0  0  0  0  0  0
   60.1830   33.3410   50.3400 N   0  0  0  0  0  0  0  0  0  0  0  0
   59.5440   34.0220   49.3880 N   0  0  0  0  0  0  0  0  0  0  0  0
   60.0980   34.2900   48.1780 C   0  0  0  0  0  0  0  0  0  0  0  0
   59.2660   35.0020   47.1870 C   0  0  0  0  0  0  0  0  0  0  0  0
   59.1740   34.6510   45.9350 N   0  0  0  0  0  0  0  0  0  0  0  0
   58.5300   33.4770   45.4110 C   0  0  0  0  0  0  0  0  0  0  0  0
   58.0570   33.4200   44.0880 C   0  0  0  0  0  0  0  0  0  0  0  0
   57.4280   32.2670   43.6130 C   0  0  0  0  0  0  0  0  0  0  0  0
   57.2880   31.1480   44.4440 C   0  0  0  0  0  0  0  0  0  0  0  0
   56.4680   29.7060   43.8550 S   0  0  0  0  0  0  0  0  0  0  0  0
   57.5970   28.4010   43.7690 N   0  0  0  0  0  0  0  0  0  0  0  0
   55.3450   29.3440   44.7870 O   0  0  0  0  0  0  0  0  0  0  0  0
   55.8960   29.9660   42.4890 O   0  0  0  0  0  0  0  0  0  0  0  0
   57.7870   31.1910   45.7530 C   0  0  0  0  0  0  0  0  0  0  0  0
   58.4170   32.3460   46.2270 C   0  0  0  0  0  0  0  0  0  0  0  0
   61.4210   33.8690   47.9210 C   0  0  0  0  0  0  0  0  0  0  0  0
   62.0950   34.1880   46.7240 C   0  0  0  0  0  0  0  0  0  0  0  0
   63.3910   33.7240   46.4960 C   0  0  0  0  0  0  0  0  0  0  0  0
   64.0400   32.9530   47.4590 C   0  0  0  0  0  0  0  0  0  0  0  0
   63.4010   32.6530   48.6640 C   0  0  0  0  0  0  0  0  0  0  0  0
   62.0930   33.1150   48.9100 C   0  0  0  0  0  0  0  0  0  0  0  0
   61.4420   32.8490   50.1270 C   0  0  0  0  0  0  0  0  0  0  0  0
   62.0120   32.1610   51.0190 O   0  0  0  0  0  0  0  0  0  0  0  0
   57.7923   30.2361   50.8739 H   0  0  0  0  0  0  0  0  0  0  0  0
   57.4077   31.6968   49.9017 H   0  0  0  0  0  0  0  0  0  0  0  0
   59.0763   31.0316   49.9017 H   0  0  0  0  0  0  0  0  0  0  0  0
   57.0777   31.1185   52.9935 H   0  0  0  0  0  0  0  0  0  0  0  0
   57.6379   32.5356   54.9653 H   0  0  0  0  0  0  0  0  0  0  0  0
   59.3934   34.2990   54.7817 H   0  0  0  0  0  0  0  0  0  0  0  0
   60.5790   34.6629   52.6193 H   0  0  0  0  0  0  0  0  0  0  0  0
   58.6918   35.8775   47.5243 H   0  0  0  0  0  0  0  0  0  0  0  0
   58.1830   34.2878   43.4239 H   0  0  0  0  0  0  0  0  0  0  0  0
   57.0415   32.2375   42.5836 H   0  0  0  0  0  0  0  0  0  0  0  0
   58.2490   28.6110   42.9800 H   0  0  0  0  0  0  0  0  0  0  0  0
   57.0590   27.5490   43.4950 H   0  0  0  0  0  0  0  0  0  0  0  0
   57.6828   30.3142   46.4090 H   0  0  0  0  0  0  0  0  0  0  0  0
   58.8263   32.3655   47.2478 H   0  0  0  0  0  0  0  0  0  0  0  0
   61.5953   34.8072   45.9645 H   0  0  0  0  0  0  0  0  0  0  0  0
   63.9023   33.9675   45.5530 H   0  0  0  0  0  0  0  0  0  0  0  0
   65.0574   32.5802   47.2695 H   0  0  0  0  0  0  0  0  0  0  0  0
   63.9216   32.0530   49.4249 H   0  0  0  0  0  0  0  0  0  0  0  0
  1  2  1  0
  2  3  2  0
  3  4  1  0
  4  5  2  0
  5  6  1  0
  6  7  2  0
  7  8  1  0
  8  9  1  0
  9 10  2  0
 10 11  1  0
 11 12  2  3
 12 13  1  0
 13 14  2  0
 14 15  1  0
 15 16  2  0
 16 17  1  0
 17 18  1  0
 17 19  2  0
 17 20  2  0
 16 21  1  0
 21 22  2  0
 10 23  1  0
 23 24  2  0
 24 25  1  0
 25 26  2  0
 26 27  1  0
 27 28  2  0
 28 29  1  0
 29 30  2  0
  7  2  1  0
 29  8  1  0
 22 13  1  0
 28 23  1  0
  1 31  1  0
  1 32  1  0
  1 33  1  0
  3 34  1  0
  4 35  1  0
  5 36  1  0
  6 37  1  0
 11 38  1  0
 14 39  1  0
 15 40  1  0
 18 41  1  0
 18 42  1  0
 21 43  1  0
 22 44  1  0
 24 45  1  0
 25 46  1  0
 26 47  1  0
 27 48  1  0
M  END
>  <UniqueID>  (17) 
15

>  <SMILES>  (17) 
Cc1ccccc1-n1nc(C=Nc2ccc(S(N)(=O)=O)cc2)c2ccccc2c1=O

>  <Energy>  (17) 
77.50750951292608

>  <Genealogy>  (17) 
Cc1ccccc1-n1nc(C=Nc2ccc(S(N)(=O)=O)cc2)c2ccccc2c1=O (3D coordinates assigned)
Cc1ccccc1-n1nc(C=Nc2ccc(S(N)(=O)=O)cc2)c2ccccc2c1=O (optimized conformer: 77.50750951292608 kcal/mol)

>  <smiles>  (17) 
Cc1ccccc1-n1nc(C=Nc2ccc(S(N)(=O)=O)cc2)c2ccccc2c1=O

>  <score_type>  (17) 
oracle

>  <origin>  (17) 
adg

>  <m_score__min__energy>  (17) 
-10.27

>  <m_primary>  (17) 
energy

$$$$
17:0
     RDKit          3D

 36 38  0  0  0  0  0  0  0  0999 V2000
   64.2379   32.8715   50.7735 H   0  0  0  0  0  0  0  0  0  0  0  0
   63.6790   33.1300   49.8620 C   0  0  0  0  0  0  0  0  0  0  0  0
   64.1500   32.7180   48.6130 C   0  0  0  0  0  0  0  0  0  0  0  0
   65.0752   32.1273   48.5422 H   0  0  0  0  0  0  0  0  0  0  0  0
   63.4460   33.0560   47.4520 C   0  0  0  0  0  0  0  0  0  0  0  0
   63.8127   32.7200   46.4708 H   0  0  0  0  0  0  0  0  0  0  0  0
   62.2710   33.8240   47.5360 C   0  0  0  0  0  0  0  0  0  0  0  0
   61.5180   34.1770   46.3680 N   0  0  0  0  0  0  0  0  0  0  0  0
   60.1360   34.5530   46.3520 C   0  0  0  0  0  0  0  0  0  0  0  0
   59.8340   35.7670   46.4980 O   0  0  0  0  0  0  0  0  0  0  0  0
   59.0980   33.5790   46.1410 N   0  0  0  0  0  0  0  0  0  0  0  0
   59.1280   32.3300   46.9200 C   0  0  0  0  0  0  0  0  0  0  0  0
   58.7433   32.5244   47.9320 H   0  0  0  0  0  0  0  0  0  0  0  0
   60.1651   31.9672   46.9738 H   0  0  0  0  0  0  0  0  0  0  0  0
   58.2820   31.2870   46.2630 C   0  0  0  0  0  0  0  0  0  0  0  0
   58.1510   29.6730   46.7070 S   0  0  0  0  0  0  0  0  0  0  0  0
   56.9990   29.3480   45.5080 C   0  0  0  0  0  0  0  0  0  0  0  0
   56.4550   28.1960   45.2410 N   0  0  0  0  0  0  0  0  0  0  0  0
   56.5410   26.9620   45.9750 C   0  0  0  0  0  0  0  0  0  0  0  0
   55.4720   26.3780   46.2930 O   0  0  0  0  0  0  0  0  0  0  0  0
   57.8410   26.3620   46.4170 C   0  0  0  0  0  0  0  0  0  0  0  0
   57.8813   26.3434   47.5161 H   0  0  0  0  0  0  0  0  0  0  0  0
   57.9216   25.3356   46.0297 H   0  0  0  0  0  0  0  0  0  0  0  0
   58.6744   26.9666   46.0297 H   0  0  0  0  0  0  0  0  0  0  0  0
   56.7200   30.4480   44.7730 N   0  0  0  0  0  0  0  0  0  0  0  0
   57.4180   31.5320   45.2080 C   0  0  0  0  0  0  0  0  0  0  0  0
   57.3410   32.8710   44.5410 C   0  0  0  0  0  0  0  0  0  0  0  0
   56.2959   33.0776   44.2669 H   0  0  0  0  0  0  0  0  0  0  0  0
   57.9766   32.8545   43.6433 H   0  0  0  0  0  0  0  0  0  0  0  0
   57.8440   33.9790   45.4800 C   0  0  0  0  0  0  0  0  0  0  0  0
   57.0799   34.1759   46.2464 H   0  0  0  0  0  0  0  0  0  0  0  0
   58.0338   34.8845   44.8850 H   0  0  0  0  0  0  0  0  0  0  0  0
   61.7920   34.2110   48.7940 C   0  0  0  0  0  0  0  0  0  0  0  0
   60.8568   34.7851   48.8708 H   0  0  0  0  0  0  0  0  0  0  0  0
   62.4970   33.8710   49.9530 C   0  0  0  0  0  0  0  0  0  0  0  0
   62.1211   34.1870   50.9373 H   0  0  0  0  0  0  0  0  0  0  0  0
  1  2  1  0
  2  3  2  0
  3  4  1  0
  3  5  1  0
  5  6  1  0
  5  7  2  0
  7  8  1  0
  8  9  1  0
  9 10  2  0
  9 11  1  0
 11 12  1  0
 12 13  1  0
 12 14  1  0
 12 15  1  0
 15 16  1  0
 16 17  1  0
 17 18  2  0
 18 19  1  0
 19 20  2  0
 19 21  1  0
 21 22  1  0
 21 23  1  0
 21 24  1  0
 17 25  1  0
 25 26  1  0
 26 27  1  0
 27 28  1  0
 27 29  1  0
 27 30  1  0
 30 31  1  0
 30 32  1  0
  7 33  1  0
 33 34  1  0
 33 35  2  0
 35 36  1  0
 35  2  1  0
 30 11  1  0
 26 15  2  0
M  CHG  2   8  -1  25  -1
M  END
>  <UniqueID>  (18) 
16

>  <SMILES>  (18) 
CC(=O)/N=c1/[n-]c2c(s1)CN(C(=O)[N-]c1ccccc1)CC2

>  <Energy>  (18) 
78.32126209604796

>  <Genealogy>  (18) 
CC(=O)N=c1[n-]c2c(s1)CN(C(=O)[N-]c1ccccc1)CC2 (protonated)
CC(=O)/N=c1/[n-]c2c(s1)CN(C(=O)[N-]c1ccccc1)CC2 (cis-trans isomerization)
CC(=O)/N=c1/[n-]c2c(s1)CN(C(=O)[N-]c1ccccc1)CC2 (3D coordinates assigned)
CC(=O)/N=c1/[n-]c2c(s1)CN(C(=O)[N-]c1ccccc1)CC2 (nonaromatic ring conformer: 78.32126209604796 kcal/mol)

>  <smiles>  (18) 
CC(=O)N=c1[nH]c2c(s1)CN(C(=O)Nc1ccccc1)CC2

>  <score_type>  (18) 
oracle

>  <origin>  (18) 
adg

>  <m_score__min__energy>  (18) 
-10.5

>  <m_primary>  (18) 
energy

$$$$
18:0
     RDKit          3D

 56 59  0  0  0  0  0  0  0  0999 V2000
   57.3100   31.2050   42.8580 C   0  0  0  0  0  0  0  0  0  0  0  0
   56.7060   30.5350   44.0880 C   0  0  0  0  0  0  0  0  0  0  0  0
   57.7680   30.1170   45.0350 N   0  0  0  0  0  0  0  0  0  0  0  0
   58.4210   31.0900   45.7580 C   0  0  0  0  0  0  0  0  0  0  0  0
   58.0890   32.3030   45.6250 O   0  0  0  0  0  0  0  0  0  0  0  0
   59.4360   30.7660   46.6170 N   0  0  0  0  0  0  0  0  0  0  0  0
   60.1140   31.8080   47.3520 C   0  0  0  0  0  0  0  0  0  0  0  0
   61.4680   32.0790   47.1080 C   0  0  0  0  0  0  0  0  0  0  0  0
   62.1240   33.0890   47.8200 C   0  0  0  0  0  0  0  0  0  0  0  0
   61.4390   33.8400   48.7830 C   0  0  0  0  0  0  0  0  0  0  0  0
   62.1440   34.8410   49.4690 O   0  0  0  0  0  0  0  0  0  0  0  0
   63.0450   34.6050   50.5460 C   0  0  0  0  0  0  0  0  0  0  0  0
   64.1180   33.8670   50.0840 F   0  0  0  0  0  0  0  0  0  0  0  0
   62.4090   33.8930   51.5470 F   0  0  0  0  0  0  0  0  0  0  0  0
   60.0790   33.5680   49.0260 C   0  0  0  0  0  0  0  0  0  0  0  0
   59.4240   32.5590   48.3140 C   0  0  0  0  0  0  0  0  0  0  0  0
   59.8130   29.4660   46.7880 C   0  0  0  0  0  0  0  0  0  0  0  0
   60.7520   29.1800   47.5860 O   0  0  0  0  0  0  0  0  0  0  0  0
   59.1460   28.4440   46.0990 C   0  0  0  0  0  0  0  0  0  0  0  0
   59.5000   27.0960   46.2870 C   0  0  0  0  0  0  0  0  0  0  0  0
   58.8130   26.0600   45.6380 C   0  0  0  0  0  0  0  0  0  0  0  0
   57.7710   26.3930   44.7390 C   0  0  0  0  0  0  0  0  0  0  0  0
   57.4100   27.7380   44.5670 C   0  0  0  0  0  0  0  0  0  0  0  0
   58.0950   28.7870   45.2240 C   0  0  0  0  0  0  0  0  0  0  0  0
   57.0320   25.4000   43.9990 N   0  0  0  0  0  0  0  0  0  0  0  0
   56.2940   24.2810   44.6140 C   0  0  0  0  0  0  0  0  0  0  0  0
   55.4240   24.8310   45.7660 C   0  0  0  0  0  0  0  0  0  0  0  0
   55.3330   23.6480   43.5790 C   0  0  0  0  0  0  0  0  0  0  0  0
   57.2780   23.2200   45.1930 C   0  0  0  0  0  0  0  0  0  0  0  0
   58.1380   23.6980   46.3710 C   0  0  0  0  0  0  0  0  0  0  0  0
   59.2620   24.6410   45.9350 C   0  0  0  0  0  0  0  0  0  0  0  0
   58.0152   31.9872   43.1757 H   0  0  0  0  0  0  0  0  0  0  0  0
   57.8423   30.4541   42.2557 H   0  0  0  0  0  0  0  0  0  0  0  0
   56.5081   31.6569   42.2557 H   0  0  0  0  0  0  0  0  0  0  0  0
   56.0330   31.2447   44.5913 H   0  0  0  0  0  0  0  0  0  0  0  0
   56.1497   29.6424   43.7658 H   0  0  0  0  0  0  0  0  0  0  0  0
   62.0164   31.4953   46.3540 H   0  0  0  0  0  0  0  0  0  0  0  0
   63.1862   33.2947   47.6217 H   0  0  0  0  0  0  0  0  0  0  0  0
   63.3902   35.5694   50.9469 H   0  0  0  0  0  0  0  0  0  0  0  0
   59.5297   34.1519   49.7792 H   0  0  0  0  0  0  0  0  0  0  0  0
   58.3613   32.3531   48.5096 H   0  0  0  0  0  0  0  0  0  0  0  0
   60.3352   26.8485   46.9587 H   0  0  0  0  0  0  0  0  0  0  0  0
   56.5694   27.9840   43.9015 H   0  0  0  0  0  0  0  0  0  0  0  0
   57.1950   25.3720   42.9660 H   0  0  0  0  0  0  0  0  0  0  0  0
   55.8712   24.5483   46.7304 H   0  0  0  0  0  0  0  0  0  0  0  0
   55.3706   25.9273   45.6939 H   0  0  0  0  0  0  0  0  0  0  0  0
   54.4107   24.4090   45.6939 H   0  0  0  0  0  0  0  0  0  0  0  0
   54.5262   23.1165   44.1049 H   0  0  0  0  0  0  0  0  0  0  0  0
   54.9009   24.4388   42.9483 H   0  0  0  0  0  0  0  0  0  0  0  0
   55.8890   22.9387   42.9483 H   0  0  0  0  0  0  0  0  0  0  0  0
   56.6863   22.3569   45.5322 H   0  0  0  0  0  0  0  0  0  0  0  0
   57.9801   22.9806   44.3808 H   0  0  0  0  0  0  0  0  0  0  0  0
   57.4919   24.2273   47.0868 H   0  0  0  0  0  0  0  0  0  0  0  0
   58.6045   22.8109   46.8243 H   0  0  0  0  0  0  0  0  0  0  0  0
   60.0105   24.6789   46.7402 H   0  0  0  0  0  0  0  0  0  0  0  0
   59.6628   24.2362   44.9940 H   0  0  0  0  0  0  0  0  0  0  0  0
  1  2  1  0
  2  3  1  0
  3  4  1  0
  4  5  2  0
  4  6  1  0
  6  7  1  0
  7  8  2  0
  8  9  1  0
  9 10  2  0
 10 11  1  0
 11 12  1  0
 12 13  1  0
 12 14  1  0
 10 15  1  0
 15 16  2  0
  6 17  1  0
 17 18  2  0
 17 19  1  0
 19 20  2  0
 20 21  1  0
 21 22  2  0
 22 23  1  0
 23 24  2  0
 22 25  1  0
 25 26  1  0
 26 27  1  0
 26 28  1  0
 26 29  1  0
 29 30  1  0
 30 31  1  0
 24  3  1  0
 16  7  1  0
 24 19  1  0
 31 21  1  0
  1 32  1  0
  1 33  1  0
  1 34  1  0
  2 35  1  0
  2 36  1  0
  8 37  1  0
  9 38  1  0
 12 39  1  0
 15 40  1  0
 16 41  1  0
 20 42  1  0
 23 43  1  0
 25 44  1  0
 27 45  1  0
 27 46  1  0
 27 47  1  0
 28 48  1  0
 28 49  1  0
 28 50  1  0
 29 51  1  0
 29 52  1  0
 30 53  1  0
 30 54  1  0
 31 55  1  0
 31 56  1  0
M  END
>  <UniqueID>  (19) 
17

>  <SMILES>  (19) 
CCn1c(=O)n(-c2ccc(OC(F)F)cc2)c(=O)c2cc3c(cc21)NC(C)(C)CCC3

>  <Energy>  (19) 
87.19699757317034

>  <Genealogy>  (19) 
CCn1c(=O)n(-c2ccc(OC(F)F)cc2)c(=O)c2cc3c(cc21)NC(C)(C)CCC3 (3D coordinates assigned)
CCn1c(=O)n(-c2ccc(OC(F)F)cc2)c(=O)c2cc3c(cc21)NC(C)(C)CCC3 (nonaromatic ring conformer: 87.19699757317034 kcal/mol)

>  <smiles>  (19) 
CCn1c(=O)n(-c2ccc(OC(F)F)cc2)c(=O)c2cc3c(cc21)NC(C)(C)CCC3

>  <score_type>  (19) 
oracle

>  <origin>  (19) 
adg

>  <m_score__min__energy>  (19) 
-5.5999999999999996

>  <m_primary>  (19) 
energy

$$$$
19:0
     RDKit          3D

 41 43  0  0  0  0  0  0  0  0999 V2000
   63.4070   33.6990   48.5160 C   0  0  0  0  0  0  0  0  0  0  0  0
   62.6280   34.5900   49.4780 C   0  0  0  0  0  0  0  0  0  0  0  0
   61.3080   34.8300   48.9880 O   0  0  0  0  0  0  0  0  0  0  0  0
   60.5550   33.9450   48.1980 C   0  0  0  0  0  0  0  0  0  0  0  0
   59.9400   32.8580   48.8290 C   0  0  0  0  0  0  0  0  0  0  0  0
   59.1770   31.9450   48.0950 C   0  0  0  0  0  0  0  0  0  0  0  0
   59.0160   32.1080   46.7100 C   0  0  0  0  0  0  0  0  0  0  0  0
   58.2100   31.1410   45.9390 C   0  0  0  0  0  0  0  0  0  0  0  0
   57.0560   31.4390   45.3100 N   0  0  0  0  0  0  0  0  0  0  0  0
   56.6430   30.3180   44.7380 N   0  0  0  0  0  0  0  0  0  0  0  0
   57.5600   29.3780   45.0400 C   0  0  0  0  0  0  0  0  0  0  0  0
   57.4910   27.9710   44.5990 C   0  0  0  0  0  0  0  0  0  0  0  0
   57.8390   27.6270   43.2830 C   0  0  0  0  0  0  0  0  0  0  0  0
   57.7780   26.2960   42.8600 C   0  0  0  0  0  0  0  0  0  0  0  0
   57.3780   25.2840   43.7500 C   0  0  0  0  0  0  0  0  0  0  0  0
   57.2830   23.9110   43.3330 N   0  0  0  0  0  0  0  0  0  0  0  0
   57.7350   22.7960   44.1200 C   0  0  0  0  0  0  0  0  0  0  0  0
   57.7740   21.4300   43.5180 C   0  0  0  0  0  0  0  0  0  0  0  0
   58.0180   22.9430   45.3390 O   0  0  0  0  0  0  0  0  0  0  0  0
   57.0090   25.6330   45.0570 C   0  0  0  0  0  0  0  0  0  0  0  0
   57.0710   26.9630   45.4820 C   0  0  0  0  0  0  0  0  0  0  0  0
   58.5240   29.8780   45.7760 O   0  0  0  0  0  0  0  0  0  0  0  0
   59.6280   33.2000   46.0740 C   0  0  0  0  0  0  0  0  0  0  0  0
   60.3900   34.1130   46.8100 C   0  0  0  0  0  0  0  0  0  0  0  0
   64.0248   32.9923   49.0895 H   0  0  0  0  0  0  0  0  0  0  0  0
   62.7028   33.1399   47.8823 H   0  0  0  0  0  0  0  0  0  0  0  0
   64.0552   34.3222   47.8823 H   0  0  0  0  0  0  0  0  0  0  0  0
   62.5647   34.0945   50.4580 H   0  0  0  0  0  0  0  0  0  0  0  0
   63.1514   35.5531   49.5701 H   0  0  0  0  0  0  0  0  0  0  0  0
   60.0581   32.7204   49.9139 H   0  0  0  0  0  0  0  0  0  0  0  0
   58.7005   31.0949   48.6052 H   0  0  0  0  0  0  0  0  0  0  0  0
   58.1616   28.4096   42.5805 H   0  0  0  0  0  0  0  0  0  0  0  0
   58.0447   26.0389   41.8242 H   0  0  0  0  0  0  0  0  0  0  0  0
   56.7840   23.7020   42.4390 H   0  0  0  0  0  0  0  0  0  0  0  0
   57.7955   20.6767   44.3193 H   0  0  0  0  0  0  0  0  0  0  0  0
   56.8798   21.2779   42.8956 H   0  0  0  0  0  0  0  0  0  0  0  0
   58.6754   21.3292   42.8956 H   0  0  0  0  0  0  0  0  0  0  0  0
   56.6678   24.8533   45.7538 H   0  0  0  0  0  0  0  0  0  0  0  0
   56.7894   27.2215   46.5134 H   0  0  0  0  0  0  0  0  0  0  0  0
   59.5073   33.3383   44.9894 H   0  0  0  0  0  0  0  0  0  0  0  0
   60.8627   34.9665   46.3019 H   0  0  0  0  0  0  0  0  0  0  0  0
  1  2  1  0
  2  3  1  0
  3  4  1  0
  4  5  2  0
  5  6  1  0
  6  7  2  0
  7  8  1  0
  8  9  2  0
  9 10  1  0
 10 11  2  0
 11 12  1  0
 12 13  2  0
 13 14  1  0
 14 15  2  0
 15 16  1  0
 16 17  1  0
 17 18  1  0
 17 19  2  0
 15 20  1  0
 20 21  2  0
 11 22  1  0
  7 23  1  0
 23 24  2  0
 24  4  1  0
 22  8  1  0
 21 12  1  0
  1 25  1  0
  1 26  1  0
  1 27  1  0
  2 28  1  0
  2 29  1  0
  5 30  1  0
  6 31  1  0
 13 32  1  0
 14 33  1  0
 16 34  1  0
 18 35  1  0
 18 36  1  0
 18 37  1  0
 20 38  1  0
 21 39  1  0
 23 40  1  0
 24 41  1  0
M  END
>  <UniqueID>  (20) 
18

>  <SMILES>  (20) 
CCOc1ccc(-c2nnc(-c3ccc(NC(C)=O)cc3)o2)cc1

>  <Energy>  (20) 
77.5714000338845

>  <Genealogy>  (20) 
CCOc1ccc(-c2nnc(-c3ccc(NC(C)=O)cc3)o2)cc1 (3D coordinates assigned)
CCOc1ccc(-c2nnc(-c3ccc(NC(C)=O)cc3)o2)cc1 (optimized conformer: 77.5714000338845 kcal/mol)

>  <smiles>  (20) 
CCOc1ccc(-c2nnc(-c3ccc(NC(C)=O)cc3)o2)cc1

>  <score_type>  (20) 
oracle

>  <origin>  (20) 
adg

>  <m_score__min__energy>  (20) 
-6.96

>  <m_primary>  (20) 
energy

$$$$
20:0
     RDKit          3D

 22 23  0  0  0  0  0  0  0  0999 V2000
   54.7730   28.2820   44.4970 H   0  0  0  0  0  0  0  0  0  0  0  0
   55.5030   28.9760   44.7700 N   0  0  0  0  0  0  0  0  0  0  0  0
   56.6200   28.6410   45.3370 C   0  0  0  0  0  0  0  0  0  0  0  0
   56.8440   27.4600   46.0160 C   0  0  0  0  0  0  0  0  0  0  0  0
   55.9370   26.3190   46.2030 C   0  0  0  0  0  0  0  0  0  0  0  0
   56.3010   25.3160   46.8720 O   0  0  0  0  0  0  0  0  0  0  0  0
   54.6670   26.3400   45.6430 O   0  0  0  0  0  0  0  0  0  0  0  0
   58.1230   27.5990   46.5280 C   0  0  0  0  0  0  0  0  0  0  0  0
   58.6477   26.8482   47.1371 H   0  0  0  0  0  0  0  0  0  0  0  0
   58.6270   28.7970   46.1650 N   0  0  0  0  0  0  0  0  0  0  0  0
   57.7160   29.4250   45.4340 N   0  0  0  0  0  0  0  0  0  0  0  0
   57.9380   30.7250   44.8630 C   0  0  0  0  0  0  0  0  0  0  0  0
   58.4660   31.7710   45.6390 C   0  0  0  0  0  0  0  0  0  0  0  0
   58.7378   31.5909   46.6896 H   0  0  0  0  0  0  0  0  0  0  0  0
   58.6470   33.0400   45.0800 C   0  0  0  0  0  0  0  0  0  0  0  0
   59.0696   33.8529   45.6887 H   0  0  0  0  0  0  0  0  0  0  0  0
   58.2920   33.2770   43.7500 C   0  0  0  0  0  0  0  0  0  0  0  0
   58.4424   34.2738   43.3098 H   0  0  0  0  0  0  0  0  0  0  0  0
   57.7460   32.2480   42.9790 C   0  0  0  0  0  0  0  0  0  0  0  0
   57.4606   32.4370   41.9336 H   0  0  0  0  0  0  0  0  0  0  0  0
   57.5620   30.9790   43.5340 C   0  0  0  0  0  0  0  0  0  0  0  0
   57.1204   30.1749   42.9269 H   0  0  0  0  0  0  0  0  0  0  0  0
  1  2  1  0
  2  3  2  0
  3  4  1  0
  4  5  1  0
  5  6  2  0
  5  7  1  0
  4  8  2  0
  8  9  1  0
  8 10  1  0
 10 11  1  0
 11 12  1  0
 12 13  2  0
 13 14  1  0
 13 15  1  0
 15 16  1  0
 15 17  2  0
 17 18  1  0
 17 19  1  0
 19 20  1  0
 19 21  2  0
 21 22  1  0
 11  3  1  0
 21 12  1  0
M  CHG  2   7  -1  10  -1
M  END
>  <UniqueID>  (21) 
19

>  <SMILES>  (21) 
[H]/N=c1/c(C(=O)[O-])c[n-]n1-c1ccccc1

>  <Energy>  (21) 
61.13491139838255

>  <Genealogy>  (21) 
N=c1c(C(=O)[O-])c[n-]n1-c1ccccc1 (protonated)
[H]/N=c1/c(C(=O)[O-])c[n-]n1-c1ccccc1 (cis-trans isomerization)
[H]/N=c1/c(C(=O)[O-])c[n-]n1-c1ccccc1 (3D coordinates assigned)
[H]/N=c1/c(C(=O)[O-])c[n-]n1-c1ccccc1 (optimized conformer: 61.13491139838255 kcal/mol)

>  <smiles>  (21) 
N=c1c(C(=O)O)c[nH]n1-c1ccccc1

>  <score_type>  (21) 
oracle

>  <origin>  (21) 
adg

>  <m_score__min__energy>  (21) 
-9.7599999999999998

>  <m_primary>  (21) 
energy

$$$$
21:0
     RDKit          3D

 49 52  0  0  1  0  0  0  0  0999 V2000
   64.2770   31.7400   50.3520 C   0  0  0  0  0  0  0  0  0  0  0  0
   64.3040   32.9740   49.6960 O   0  0  0  0  0  0  0  0  0  0  0  0
   63.3820   33.2630   48.6840 C   0  0  0  0  0  0  0  0  0  0  0  0
   63.7730   33.2860   47.3410 C   0  0  0  0  0  0  0  0  0  0  0  0
   62.8310   33.5760   46.3690 C   0  0  0  0  0  0  0  0  0  0  0  0
   61.5010   33.8460   46.6930 C   0  0  0  0  0  0  0  0  0  0  0  0
   61.1440   33.8160   48.0260 C   0  0  0  0  0  0  0  0  0  0  0  0
   62.0620   33.5300   49.0250 C   0  0  0  0  0  0  0  0  0  0  0  0
   59.8040   34.0920   48.3110 O   0  0  0  0  0  0  0  0  0  0  0  0
   59.1410   34.9660   47.3970 C   0  0  0  0  0  0  0  0  0  0  0  0
   59.2650   34.3650   46.0130 C   0  0  2  0  0  0  0  0  0  0  0  0
   58.4790   33.0800   46.0320 C   0  0  0  0  0  0  0  0  0  0  0  0
   57.2630   33.1920   46.2980 O   0  0  0  0  0  0  0  0  0  0  0  0
   59.1170   31.8540   45.7620 N   0  0  0  0  0  0  0  0  0  0  0  0
   58.5090   30.5830   45.7460 C   0  0  0  0  0  0  0  0  0  0  0  0
   57.4730   30.2050   44.9280 C   0  0  0  0  0  0  0  0  0  0  0  0
   56.9160   28.9190   44.9670 C   0  0  0  0  0  0  0  0  0  0  0  0
   57.3960   27.9790   45.8390 C   0  0  0  0  0  0  0  0  0  0  0  0
   56.7420   26.3660   45.9310 S   0  0  0  0  0  0  0  0  0  0  0  0
   57.3210   25.6920   47.1550 O   0  0  0  0  0  0  0  0  0  0  0  0
   55.2440   26.3740   46.0010 O   0  0  0  0  0  0  0  0  0  0  0  0
   57.3160   25.4880   44.5610 N   0  0  0  0  0  0  0  0  0  0  0  0
   56.9910   24.2390   44.4780 C   0  0  0  0  0  0  0  0  0  0  0  0
   57.3830   23.4900   43.4330 N   0  0  0  0  0  0  0  0  0  0  0  0
   57.0360   22.1720   43.3520 C   0  0  0  0  0  0  0  0  0  0  0  0
   56.2800   21.6520   44.3720 C   0  0  0  0  0  0  0  0  0  0  0  0
   55.8860   22.4220   45.4320 C   0  0  0  0  0  0  0  0  0  0  0  0
   56.2410   23.7340   45.4940 N   0  0  0  0  0  0  0  0  0  0  0  0
   58.4440   28.3690   46.6620 C   0  0  0  0  0  0  0  0  0  0  0  0
   58.9880   29.6300   46.6210 C   0  0  0  0  0  0  0  0  0  0  0  0
   60.6060   34.1300   45.6710 O   0  0  0  0  0  0  0  0  0  0  0  0
   64.2806   31.9029   51.4399 H   0  0  0  0  0  0  0  0  0  0  0  0
   63.3667   31.1926   50.0662 H   0  0  0  0  0  0  0  0  0  0  0  0
   65.1625   31.1533   50.0662 H   0  0  0  0  0  0  0  0  0  0  0  0
   64.8159   33.0763   47.0609 H   0  0  0  0  0  0  0  0  0  0  0  0
   63.1392   33.5941   45.3132 H   0  0  0  0  0  0  0  0  0  0  0  0
   61.7476   33.5146   50.0790 H   0  0  0  0  0  0  0  0  0  0  0  0
   58.0798   35.0596   47.6711 H   0  0  0  0  0  0  0  0  0  0  0  0
   59.5947   35.9677   47.4240 H   0  0  0  0  0  0  0  0  0  0  0  0
   58.8741   35.0581   45.2535 H   0  0  0  0  0  0  0  0  0  0  0  0
   60.1580   31.9200   45.5510 H   0  0  0  0  0  0  0  0  0  0  0  0
   57.0652   30.9378   44.2162 H   0  0  0  0  0  0  0  0  0  0  0  0
   56.0865   28.6631   44.2914 H   0  0  0  0  0  0  0  0  0  0  0  0
   57.3508   21.5503   42.5008 H   0  0  0  0  0  0  0  0  0  0  0  0
   55.9843   20.5931   44.3368 H   0  0  0  0  0  0  0  0  0  0  0  0
   55.2805   21.9791   46.2365 H   0  0  0  0  0  0  0  0  0  0  0  0
   55.9430   24.3450   46.3090 H   0  0  0  0  0  0  0  0  0  0  0  0
   58.8551   27.6394   47.3752 H   0  0  0  0  0  0  0  0  0  0  0  0
   59.8184   29.8837   47.2964 H   0  0  0  0  0  0  0  0  0  0  0  0
  1  2  1  0
  2  3  1  0
  3  4  2  0
  4  5  1  0
  5  6  2  0
  6  7  1  0
  7  8  2  0
  7  9  1  0
  9 10  1  0
 10 11  1  0
 11 12  1  0
 12 13  2  0
 12 14  1  0
 14 15  1  0
 15 16  2  0
 16 17  1  0
 17 18  2  0
 18 19  1  0
 19 20  2  0
 19 21  2  0
 19 22  1  0
 22 23  2  3
 23 24  1  0
 24 25  2  0
 25 26  1  0
 26 27  2  0
 27 28  1  0
 18 29  1  0
 29 30  2  0
 11 31  1  0
  8  3  1  0
 30 15  1  0
 31  6  1  0
 28 23  1  0
  1 32  1  0
  1 33  1  0
  1 34  1  0
  4 35  1  0
  5 36  1  0
  8 37  1  0
 10 38  1  0
 10 39  1  0
 11 40  1  6
 14 41  1  0
 16 42  1  0
 17 43  1  0
 25 44  1  0
 26 45  1  0
 27 46  1  0
 28 47  1  0
 29 48  1  0
 30 49  1  0
M  END
>  <smiles>  (22) 
COc1ccc2c(c1)OCC(C(=O)Nc1ccc(S(=O)(=O)N=c3nccc[nH]3)cc1)O2

>  <score_type>  (22) 
oracle

>  <origin>  (22) 
adg

>  <m_score__min__energy>  (22) 
-8.4499999999999993

>  <m_primary>  (22) 
energy

$$$$
22:0
     RDKit          3D

 48 53  0  0  0  0  0  0  0  0999 V2000
   56.6320   34.7210   45.0480 O   0  0  0  0  0  0  0  0  0  0  0  0
   57.7260   34.1990   45.1870 C   0  0  0  0  0  0  0  0  0  0  0  0
   59.0560   34.9240   44.8930 C   0  0  0  0  0  0  0  0  0  0  0  0
   60.3160   34.1570   45.4950 C   0  0  0  0  0  0  0  0  0  0  0  0
   59.9910   33.6280   46.9290 C   0  0  2  0  0  0  0  0  0  0  0  0
   59.7430   34.8030   47.6870 O   0  0  0  0  0  0  0  0  0  0  0  0
   61.0580   32.8230   47.7440 C   0  0  2  0  0  0  0  0  0  0  0  0
   61.4090   31.4210   47.1080 C   0  0  0  0  0  0  0  0  0  0  0  0
   60.1920   30.5700   46.8470 C   0  0  0  0  0  0  0  0  0  0  0  0
   60.2190   29.1940   46.5420 C   0  0  0  0  0  0  0  0  0  0  0  0
   59.0470   28.5500   46.0640 C   0  0  0  0  0  0  0  0  0  0  0  0
   57.8750   29.2950   45.7950 C   0  0  0  0  0  0  0  0  0  0  0  0
   56.7640   28.6990   45.2110 O   0  0  0  0  0  0  0  0  0  0  0  0
   57.8910   30.6590   46.0790 C   0  0  0  0  0  0  0  0  0  0  0  0
   58.9980   31.2240   46.6820 C   0  0  0  0  0  0  0  0  0  0  0  0
   58.7610   32.6690   46.9020 C   0  0  1  0  0  0  0  0  0  0  0  0
   58.1230   32.7170   48.3130 C   0  0  0  0  0  0  0  0  0  0  0  0
   59.1720   32.2210   49.3680 C   0  0  0  0  0  0  0  0  0  0  0  0
   60.5790   32.7260   49.1780 N   0  0  1  0  0  0  0  0  0  0  0  0
   61.5350   31.9700   50.0290 C   0  0  0  0  0  0  0  0  0  0  0  0
   62.6820   32.8650   50.5420 C   0  0  0  0  0  0  0  0  0  0  0  0
   63.8090   33.1050   49.5480 C   0  0  0  0  0  0  0  0  0  0  0  0
   62.8170   34.2160   49.8570 C   0  0  0  0  0  0  0  0  0  0  0  0
   57.9050   32.8000   45.6360 C   0  0  1  0  0  0  0  0  0  0  0  0
   57.0260   31.6720   45.6190 O   0  0  0  0  0  0  0  0  0  0  0  0
   59.1801   35.0048   43.8030 H   0  0  0  0  0  0  0  0  0  0  0  0
   59.0089   35.9143   45.3696 H   0  0  0  0  0  0  0  0  0  0  0  0
   60.5700   33.3080   44.8434 H   0  0  0  0  0  0  0  0  0  0  0  0
   61.1658   34.8530   45.5532 H   0  0  0  0  0  0  0  0  0  0  0  0
   59.8770   35.6100   47.1270 H   0  0  0  0  0  0  0  0  0  0  0  0
   62.0156   33.3635   47.7154 H   0  0  0  0  0  0  0  0  0  0  0  0
   61.9297   31.5896   46.1539 H   0  0  0  0  0  0  0  0  0  0  0  0
   62.0388   30.8810   47.8303 H   0  0  0  0  0  0  0  0  0  0  0  0
   61.1476   28.6193   46.6742 H   0  0  0  0  0  0  0  0  0  0  0  0
   59.0506   27.4621   45.9015 H   0  0  0  0  0  0  0  0  0  0  0  0
   57.8248   33.7495   48.5474 H   0  0  0  0  0  0  0  0  0  0  0  0
   57.2350   32.0684   48.3403 H   0  0  0  0  0  0  0  0  0  0  0  0
   58.8290   32.5424   50.3625 H   0  0  0  0  0  0  0  0  0  0  0  0
   59.2264   31.1291   49.2462 H   0  0  0  0  0  0  0  0  0  0  0  0
   60.5940   33.7000   49.5610 H   0  0  0  0  0  0  0  0  0  0  0  0
   60.9927   31.5574   50.8925 H   0  0  0  0  0  0  0  0  0  0  0  0
   61.9756   31.1690   49.4172 H   0  0  0  0  0  0  0  0  0  0  0  0
   62.6196   32.5261   51.5866 H   0  0  0  0  0  0  0  0  0  0  0  0
   64.8477   33.1809   49.9019 H   0  0  0  0  0  0  0  0  0  0  0  0
   64.1577   32.6060   48.6318 H   0  0  0  0  0  0  0  0  0  0  0  0
   63.1386   35.0955   50.4341 H   0  0  0  0  0  0  0  0  0  0  0  0
   62.1513   34.8533   49.2564 H   0  0  0  0  0  0  0  0  0  0  0  0
   58.2633   32.6566   44.6059 H   0  0  0  0  0  0  0  0  0  0  0  0
  1  2  2  0
  2  3  1  0
  3  4  1  0
  4  5  1  0
  5  6  1  1
  5  7  1  0
  7  8  1  0
  8  9  1  0
  9 10  2  0
 10 11  1  0
 11 12  2  0
 12 13  1  0
 12 14  1  0
 14 15  2  0
 15 16  1  0
 16 17  1  1
 17 18  1  0
 18 19  1  0
 19 20  1  0
 20 21  1  0
 21 22  1  0
 22 23  1  0
 16 24  1  0
 24 25  1  0
 24  2  1  0
 16  5  1  0
 23 21  1  0
 19  7  1  0
 15  9  1  0
 25 14  1  0
  3 26  1  0
  3 27  1  0
  4 28  1  0
  4 29  1  0
  6 30  1  0
  7 31  1  1
  8 32  1  0
  8 33  1  0
 10 34  1  0
 11 35  1  0
 17 36  1  0
 17 37  1  0
 18 38  1  0
 18 39  1  0
 19 40  1  1
 20 41  1  0
 20 42  1  0
 21 43  1  0
 22 44  1  0
 22 45  1  0
 23 46  1  0
 23 47  1  0
 24 48  1  6
M  CHG  2  13  -1  19   1
M  END
>  <UniqueID>  (23) 
20

>  <SMILES>  (23) 
O=C1CC[C@]2(O)[C@@H]3Cc4ccc([O-])c5c4C2(CC[NH+]3CC2CC2)C1O5

>  <Energy>  (23) 
443.9454282503855

>  <Genealogy>  (23) 
O=C1CCC2(O)C3Cc4ccc([O-])c5c4C2(CC[NH+]3CC2CC2)C1O5 (protonated)
O=C1CC[C@]2(O)[C@@H]3Cc4ccc([O-])c5c4C2(CC[NH+]3CC2CC2)C1O5 (chirality)
O=C1CC[C@]2(O)[C@@H]3Cc4ccc([O-])c5c4C2(CC[NH+]3CC2CC2)C1O5 (3D coordinates assigned)
O=C1CC[C@]2(O)[C@@H]3Cc4ccc([O-])c5c4C2(CC[NH+]3CC2CC2)C1O5 (nonaromatic ring conformer: 443.9454282503855 kcal/mol)

>  <smiles>  (23) 
O=C1CCC2(O)C3Cc4ccc(O)c5c4C2(CCN3CC2CC2)C1O5

>  <score_type>  (23) 
oracle

>  <origin>  (23) 
adg

>  <m_score__min__energy>  (23) 
-7.6399999999999997

>  <m_primary>  (23) 
energy

$$$$
23:0
     RDKit          3D

 34 35  0  0  0  0  0  0  0  0999 V2000
   64.9300   32.7600   49.6940 C   0  0  0  0  0  0  0  0  0  0  0  0
   63.9540   33.5390   49.0090 O   0  0  0  0  0  0  0  0  0  0  0  0
   62.8640   33.0040   48.3050 C   0  0  0  0  0  0  0  0  0  0  0  0
   62.8440   31.6760   47.8460 C   0  0  0  0  0  0  0  0  0  0  0  0
   61.7350   31.1890   47.1520 C   0  0  0  0  0  0  0  0  0  0  0  0
   60.6240   32.0130   46.9060 C   0  0  0  0  0  0  0  0  0  0  0  0
   59.4550   31.4610   46.1800 C   0  0  0  0  0  0  0  0  0  0  0  0
   59.1010   30.1080   46.3180 C   0  0  0  0  0  0  0  0  0  0  0  0
   58.0040   29.5900   45.6260 C   0  0  0  0  0  0  0  0  0  0  0  0
   57.2390   30.4160   44.7870 C   0  0  0  0  0  0  0  0  0  0  0  0
   56.0810   29.8500   44.0140 C   0  0  0  0  0  0  0  0  0  0  0  0
   55.1070   29.3620   44.8940 O   0  0  0  0  0  0  0  0  0  0  0  0
   57.6060   31.7610   44.6280 C   0  0  0  0  0  0  0  0  0  0  0  0
   58.7030   32.2800   45.3210 C   0  0  0  0  0  0  0  0  0  0  0  0
   60.6410   33.3520   47.3520 C   0  0  0  0  0  0  0  0  0  0  0  0
   59.5430   34.1810   47.0660 O   0  0  0  0  0  0  0  0  0  0  0  0
   59.5950   35.3380   46.2370 C   0  0  0  0  0  0  0  0  0  0  0  0
   61.7650   33.8310   48.0560 C   0  0  0  0  0  0  0  0  0  0  0  0
   64.7914   32.8706   50.7796 H   0  0  0  0  0  0  0  0  0  0  0  0
   64.8159   31.7019   49.4157 H   0  0  0  0  0  0  0  0  0  0  0  0
   65.9365   33.1058   49.4157 H   0  0  0  0  0  0  0  0  0  0  0  0
   63.7052   31.0180   48.0342 H   0  0  0  0  0  0  0  0  0  0  0  0
   61.7309   30.1489   46.7939 H   0  0  0  0  0  0  0  0  0  0  0  0
   59.6916   29.4528   46.9752 H   0  0  0  0  0  0  0  0  0  0  0  0
   57.7378   28.5287   45.7389 H   0  0  0  0  0  0  0  0  0  0  0  0
   55.6417   30.6396   43.3867 H   0  0  0  0  0  0  0  0  0  0  0  0
   56.4398   29.0251   43.3809 H   0  0  0  0  0  0  0  0  0  0  0  0
   54.7630   28.5180   44.4980 H   0  0  0  0  0  0  0  0  0  0  0  0
   57.0273   32.4102   43.9544 H   0  0  0  0  0  0  0  0  0  0  0  0
   58.9796   33.3369   45.1931 H   0  0  0  0  0  0  0  0  0  0  0  0
   59.6355   36.2389   46.8669 H   0  0  0  0  0  0  0  0  0  0  0  0
   60.4921   35.2940   45.6019 H   0  0  0  0  0  0  0  0  0  0  0  0
   58.6976   35.3747   45.6019 H   0  0  0  0  0  0  0  0  0  0  0  0
   61.7771   34.8709   48.4145 H   0  0  0  0  0  0  0  0  0  0  0  0
  1  2  1  0
  2  3  1  0
  3  4  2  0
  4  5  1  0
  5  6  2  0
  6  7  1  0
  7  8  2  0
  8  9  1  0
  9 10  2  0
 10 11  1  0
 11 12  1  0
 10 13  1  0
 13 14  2  0
  6 15  1  0
 15 16  1  0
 16 17  1  0
 15 18  2  0
 18  3  1  0
 14  7  1  0
  1 19  1  0
  1 20  1  0
  1 21  1  0
  4 22  1  0
  5 23  1  0
  8 24  1  0
  9 25  1  0
 11 26  1  0
 11 27  1  0
 12 28  1  0
 13 29  1  0
 14 30  1  0
 17 31  1  0
 17 32  1  0
 17 33  1  0
 18 34  1  0
M  END
>  <UniqueID>  (24) 
21

>  <SMILES>  (24) 
COc1ccc(-c2ccc(CO)cc2)c(OC)c1

>  <Energy>  (24) 
38.891748186946785

>  <Genealogy>  (24) 
COc1ccc(-c2ccc(CO)cc2)c(OC)c1 (3D coordinates assigned)
COc1ccc(-c2ccc(CO)cc2)c(OC)c1 (optimized conformer: 38.891748186946785 kcal/mol)

>  <smiles>  (24) 
COc1ccc(-c2ccc(CO)cc2)c(OC)c1

>  <score_type>  (24) 
oracle

>  <origin>  (24) 
adg

>  <m_score__min__energy>  (24) 
-6.4199999999999999

>  <m_primary>  (24) 
energy

$$$$
24:0
     RDKit          3D

 56 59  0  0  0  0  0  0  0  0999 V2000
   59.6280   27.3490   46.3320 O   0  0  0  0  0  0  0  0  0  0  0  0
   59.6720   28.4160   46.9970 C   0  0  0  0  0  0  0  0  0  0  0  0
   60.2260   28.4330   48.3150 N   0  0  0  0  0  0  0  0  0  0  0  0
   60.6070   29.8740   49.2080 S   0  0  0  0  0  0  0  0  0  0  0  0
   61.0410   30.9440   48.2410 O   0  0  0  0  0  0  0  0  0  0  0  0
   61.7450   29.5830   50.1460 O   0  0  0  0  0  0  0  0  0  0  0  0
   59.2340   30.4720   50.1410 C   0  0  0  0  0  0  0  0  0  0  0  0
   58.9690   31.8450   50.2090 C   0  0  0  0  0  0  0  0  0  0  0  0
   57.8960   32.3070   50.9740 C   0  0  0  0  0  0  0  0  0  0  0  0
   57.0950   31.3900   51.6560 C   0  0  0  0  0  0  0  0  0  0  0  0
   57.3570   30.0610   51.5670 N   0  0  0  0  0  0  0  0  0  0  0  0
   58.3960   29.5830   50.8290 C   0  0  0  0  0  0  0  0  0  0  0  0
   59.1650   29.6340   46.4410 N   0  0  0  0  0  0  0  0  0  0  0  0
   58.2840   29.6780   45.3080 C   0  0  0  0  0  0  0  0  0  0  0  0
   58.1490   28.5120   44.5390 C   0  0  0  0  0  0  0  0  0  0  0  0
   57.3780   28.5110   43.3780 C   0  0  0  0  0  0  0  0  0  0  0  0
   56.7670   29.6860   42.9470 C   0  0  0  0  0  0  0  0  0  0  0  0
   56.9120   30.8630   43.6840 C   0  0  0  0  0  0  0  0  0  0  0  0
   57.6350   30.8770   44.8940 C   0  0  0  0  0  0  0  0  0  0  0  0
   57.7890   32.1650   45.6290 C   0  0  0  0  0  0  0  0  0  0  0  0
   57.7850   32.1540   46.8890 O   0  0  0  0  0  0  0  0  0  0  0  0
   58.0670   33.4640   44.9600 C   0  0  0  0  0  0  0  0  0  0  0  0
   58.9200   34.4120   45.3840 C   0  0  0  0  0  0  0  0  0  0  0  0
   59.7710   34.3030   46.5820 C   0  0  0  0  0  0  0  0  0  0  0  0
   59.2760   34.6440   47.8480 C   0  0  0  0  0  0  0  0  0  0  0  0
   60.1020   34.5710   48.9730 C   0  0  0  0  0  0  0  0  0  0  0  0
   61.4230   34.1230   48.8520 C   0  0  0  0  0  0  0  0  0  0  0  0
   62.2330   34.0890   49.9970 O   0  0  0  0  0  0  0  0  0  0  0  0
   63.2790   33.1850   50.2270 C   0  0  0  0  0  0  0  0  0  0  0  0
   64.5200   33.4280   49.6290 C   0  0  0  0  0  0  0  0  0  0  0  0
   65.5920   32.5590   49.8500 C   0  0  0  0  0  0  0  0  0  0  0  0
   65.4300   31.4390   50.6710 C   0  0  0  0  0  0  0  0  0  0  0  0
   64.2030   31.1970   51.2860 C   0  0  0  0  0  0  0  0  0  0  0  0
   63.1310   32.0690   51.0730 C   0  0  0  0  0  0  0  0  0  0  0  0
   61.9130   33.7610   47.5860 C   0  0  0  0  0  0  0  0  0  0  0  0
   61.0840   33.8300   46.4620 C   0  0  0  0  0  0  0  0  0  0  0  0
   59.6038   32.5574   49.6617 H   0  0  0  0  0  0  0  0  0  0  0  0
   57.6839   33.3844   51.0385 H   0  0  0  0  0  0  0  0  0  0  0  0
   56.2509   31.7443   52.2660 H   0  0  0  0  0  0  0  0  0  0  0  0
   58.5782   28.4997   50.7724 H   0  0  0  0  0  0  0  0  0  0  0  0
   59.4910   30.5420   46.8470 H   0  0  0  0  0  0  0  0  0  0  0  0
   58.6570   27.5892   44.8558 H   0  0  0  0  0  0  0  0  0  0  0  0
   57.2521   27.5823   42.8021 H   0  0  0  0  0  0  0  0  0  0  0  0
   56.1688   29.6868   42.0239 H   0  0  0  0  0  0  0  0  0  0  0  0
   56.4553   31.7931   43.3149 H   0  0  0  0  0  0  0  0  0  0  0  0
   57.5212   33.6687   44.0272 H   0  0  0  0  0  0  0  0  0  0  0  0
   58.9879   35.3374   44.7933 H   0  0  0  0  0  0  0  0  0  0  0  0
   58.2314   34.9710   47.9568 H   0  0  0  0  0  0  0  0  0  0  0  0
   59.7124   34.8669   49.9582 H   0  0  0  0  0  0  0  0  0  0  0  0
   64.6528   34.3074   48.9816 H   0  0  0  0  0  0  0  0  0  0  0  0
   66.5653   32.7566   49.3770 H   0  0  0  0  0  0  0  0  0  0  0  0
   66.2712   30.7486   50.8316 H   0  0  0  0  0  0  0  0  0  0  0  0
   64.0780   30.3204   51.9387 H   0  0  0  0  0  0  0  0  0  0  0  0
   62.1670   31.8823   51.5688 H   0  0  0  0  0  0  0  0  0  0  0  0
   62.9538   33.4217   47.4785 H   0  0  0  0  0  0  0  0  0  0  0  0
   61.4643   33.5117   45.4801 H   0  0  0  0  0  0  0  0  0  0  0  0
  1  2  2  0
  2  3  1  0
  3  4  1  0
  4  5  2  0
  4  6  2  0
  4  7  1  0
  7  8  2  0
  8  9  1  0
  9 10  2  0
 10 11  1  0
 11 12  2  0
  2 13  1  0
 13 14  1  0
 14 15  2  0
 15 16  1  0
 16 17  2  0
 17 18  1  0
 18 19  2  0
 19 20  1  0
 20 21  2  0
 20 22  1  0
 22 23  2  3
 23 24  1  0
 24 25  2  0
 25 26  1  0
 26 27  2  0
 27 28  1  0
 28 29  1  0
 29 30  2  0
 30 31  1  0
 31 32  2  0
 32 33  1  0
 33 34  2  0
 27 35  1  0
 35 36  2  0
 12  7  1  0
 19 14  1  0
 36 24  1  0
 34 29  1  0
  8 37  1  0
  9 38  1  0
 10 39  1  0
 12 40  1  0
 13 41  1  0
 15 42  1  0
 16 43  1  0
 17 44  1  0
 18 45  1  0
 22 46  1  0
 23 47  1  0
 25 48  1  0
 26 49  1  0
 30 50  1  0
 31 51  1  0
 32 52  1  0
 33 53  1  0
 34 54  1  0
 35 55  1  0
 36 56  1  0
M  CHG  1   3  -1
M  END
>  <UniqueID>  (25) 
22

>  <SMILES>  (25) 
O=C([N-]S(=O)(=O)c1cccnc1)Nc1ccccc1C(=O)C=Cc1ccc(Oc2ccccc2)cc1

>  <Energy>  (25) 
90.23464499448662

>  <Genealogy>  (25) 
O=C([N-]S(=O)(=O)c1cccnc1)Nc1ccccc1C(=O)C=Cc1ccc(Oc2ccccc2)cc1 (protonated)
O=C([N-]S(=O)(=O)c1cccnc1)Nc1ccccc1C(=O)C=Cc1ccc(Oc2ccccc2)cc1 (3D coordinates assigned)
O=C([N-]S(=O)(=O)c1cccnc1)Nc1ccccc1C(=O)C=Cc1ccc(Oc2ccccc2)cc1 (optimized conformer: 90.23464499448662 kcal/mol)

>  <smiles>  (25) 
O=C(Nc1ccccc1C(=O)C=Cc1ccc(Oc2ccccc2)cc1)NS(=O)(=O)c1cccnc1

>  <score_type>  (25) 
oracle

>  <origin>  (25) 
adg

>  <m_score__min__energy>  (25) 
-14.34

>  <m_primary>  (25) 
energy

$$$$
25:0
     RDKit          3D

 36 37  0  0  0  0  0  0  0  0999 V2000
   54.9780   23.6440   45.3290 C   0  0  0  0  0  0  0  0  0  0  0  0
   55.4610   25.0090   45.6900 C   0  0  0  0  0  0  0  0  0  0  0  0
   54.6250   25.9100   45.9650 O   0  0  0  0  0  0  0  0  0  0  0  0
   56.8670   25.2450   45.8240 N   0  0  0  0  0  0  0  0  0  0  0  0
   57.5210   26.5220   45.8380 C   0  0  0  0  0  0  0  0  0  0  0  0
   57.8890   27.1020   44.6180 C   0  0  0  0  0  0  0  0  0  0  0  0
   58.5080   28.3540   44.5850 C   0  0  0  0  0  0  0  0  0  0  0  0
   58.7710   29.0500   45.7740 C   0  0  0  0  0  0  0  0  0  0  0  0
   59.3780   30.3520   45.7090 N   0  0  0  0  0  0  0  0  0  0  0  0
   59.1760   31.3880   46.6830 C   0  0  0  0  0  0  0  0  0  0  0  0
   58.7520   31.1070   47.8370 O   0  0  0  0  0  0  0  0  0  0  0  0
   59.5230   32.8070   46.3540 C   0  0  0  0  0  0  0  0  0  0  0  0
   58.0410   33.7570   45.8610 S   0  0  0  0  0  0  0  0  0  0  0  0
   57.4930   32.5620   44.6440 C   0  0  0  0  0  0  0  0  0  0  0  0
   57.8720   32.6910   43.3450 N   0  0  0  0  0  0  0  0  0  0  0  0
   57.4610   31.7980   42.4070 C   0  0  0  0  0  0  0  0  0  0  0  0
   57.8210   31.9360   41.2090 O   0  0  0  0  0  0  0  0  0  0  0  0
   56.6370   30.7310   42.7760 C   0  0  0  0  0  0  0  0  0  0  0  0
   56.2610   30.6120   44.1170 C   0  0  0  0  0  0  0  0  0  0  0  0
   55.4210   29.5390   44.5430 N   0  0  0  0  0  0  0  0  0  0  0  0
   56.6990   31.5270   45.0220 N   0  0  0  0  0  0  0  0  0  0  0  0
   58.3650   28.4870   46.9980 C   0  0  0  0  0  0  0  0  0  0  0  0
   57.7430   27.2350   47.0300 C   0  0  0  0  0  0  0  0  0  0  0  0
   54.7756   23.0721   46.2466 H   0  0  0  0  0  0  0  0  0  0  0  0
   54.0545   23.7265   44.7372 H   0  0  0  0  0  0  0  0  0  0  0  0
   55.7479   23.1273   44.7372 H   0  0  0  0  0  0  0  0  0  0  0  0
   57.6891   26.5674   43.6776 H   0  0  0  0  0  0  0  0  0  0  0  0
   58.7913   28.7974   43.6190 H   0  0  0  0  0  0  0  0  0  0  0  0
   60.0350   30.5510   44.9200 H   0  0  0  0  0  0  0  0  0  0  0  0
   59.9736   33.2800   47.2390 H   0  0  0  0  0  0  0  0  0  0  0  0
   60.2298   32.8048   45.5111 H   0  0  0  0  0  0  0  0  0  0  0  0
   56.2923   30.0016   42.0282 H   0  0  0  0  0  0  0  0  0  0  0  0
   55.7440   28.5480   44.4850 H   0  0  0  0  0  0  0  0  0  0  0  0
   54.4650   29.7370   44.9160 H   0  0  0  0  0  0  0  0  0  0  0  0
   58.5380   29.0353   47.9358 H   0  0  0  0  0  0  0  0  0  0  0  0
   57.4258   26.8057   47.9918 H   0  0  0  0  0  0  0  0  0  0  0  0
  1  2  1  0
  2  3  2  0
  2  4  1  0
  4  5  1  0
  5  6  2  0
  6  7  1  0
  7  8  2  0
  8  9  1  0
  9 10  1  0
 10 11  2  0
 10 12  1  0
 12 13  1  0
 13 14  1  0
 14 15  2  0
 15 16  1  0
 16 17  2  0
 16 18  1  0
 18 19  2  0
 19 20  1  0
 19 21  1  0
  8 22  1  0
 22 23  2  0
 23  5  1  0
 21 14  1  0
  1 24  1  0
  1 25  1  0
  1 26  1  0
  6 27  1  0
  7 28  1  0
  9 29  1  0
 12 30  1  0
 12 31  1  0
 18 32  1  0
 20 33  1  0
 20 34  1  0
 22 35  1  0
 23 36  1  0
M  CHG  2   4  -1  21  -1
M  END
>  <UniqueID>  (26) 
23

>  <SMILES>  (26) 
CC(=O)[N-]c1ccc(NC(=O)CSc2nc(=O)cc(N)[n-]2)cc1

>  <Energy>  (26) 
34.92053896727489

>  <Genealogy>  (26) 
CC(=O)[N-]c1ccc(NC(=O)CSc2nc(=O)cc(N)[n-]2)cc1 (protonated)
CC(=O)[N-]c1ccc(NC(=O)CSc2nc(=O)cc(N)[n-]2)cc1 (3D coordinates assigned)
CC(=O)[N-]c1ccc(NC(=O)CSc2nc(=O)cc(N)[n-]2)cc1 (optimized conformer: 34.92053896727489 kcal/mol)

>  <smiles>  (26) 
CC(=O)Nc1ccc(NC(=O)CSc2nc(=O)cc(N)[nH]2)cc1

>  <score_type>  (26) 
oracle

>  <origin>  (26) 
adg

>  <m_score__min__energy>  (26) 
-10.94

>  <m_primary>  (26) 
energy

$$$$
26:0
     RDKit          3D

 50 52  0  0  0  0  0  0  0  0999 V2000
   59.7570   30.6080   51.0550 C   0  0  0  0  0  0  0  0  0  0  0  0
   60.0730   29.3490   50.3210 C   0  0  0  0  0  0  0  0  0  0  0  0
   60.7060   28.2950   50.8720 N   0  0  0  0  0  0  0  0  0  0  0  0
   60.7680   27.3790   49.8890 C   0  0  0  0  0  0  0  0  0  0  0  0
   60.1640   27.9190   48.7710 C   0  0  0  0  0  0  0  0  0  0  0  0
   59.9850   27.2630   47.4660 C   0  0  0  0  0  0  0  0  0  0  0  0
   60.1830   26.0220   47.3660 O   0  0  0  0  0  0  0  0  0  0  0  0
   59.5350   28.0050   46.3200 N   0  0  0  0  0  0  0  0  0  0  0  0
   58.5840   27.3880   45.3900 C   0  0  0  0  0  0  0  0  0  0  0  0
   57.8910   28.4440   44.5120 C   0  0  0  0  0  0  0  0  0  0  0  0
   57.6200   29.7340   45.3320 C   0  0  0  0  0  0  0  0  0  0  0  0
   56.7950   30.7260   44.5790 N   0  0  0  0  0  0  0  0  0  0  0  0
   55.7580   30.0750   43.7450 C   0  0  0  0  0  0  0  0  0  0  0  0
   57.5620   31.7210   43.7820 C   0  0  0  0  0  0  0  0  0  0  0  0
   57.3970   33.1980   44.2270 C   0  0  0  0  0  0  0  0  0  0  0  0
   58.2080   33.5530   45.4500 C   0  0  0  0  0  0  0  0  0  0  0  0
   57.8010   33.1290   46.7270 C   0  0  0  0  0  0  0  0  0  0  0  0
   58.5580   33.4600   47.8550 C   0  0  0  0  0  0  0  0  0  0  0  0
   59.7350   34.1990   47.7170 C   0  0  0  0  0  0  0  0  0  0  0  0
   60.1640   34.6000   46.4500 C   0  0  0  0  0  0  0  0  0  0  0  0
   59.4100   34.2710   45.3180 C   0  0  0  0  0  0  0  0  0  0  0  0
   58.9880   30.3510   45.7540 C   0  0  0  0  0  0  0  0  0  0  0  0
   60.1030   29.3150   45.9850 C   0  0  0  0  0  0  0  0  0  0  0  0
   59.7420   29.1270   49.0690 O   0  0  0  0  0  0  0  0  0  0  0  0
   59.8036   30.4224   52.1382 H   0  0  0  0  0  0  0  0  0  0  0  0
   60.4883   31.3838   50.7841 H   0  0  0  0  0  0  0  0  0  0  0  0
   58.7460   30.9465   50.7841 H   0  0  0  0  0  0  0  0  0  0  0  0
   61.0660   28.2030   51.8480 H   0  0  0  0  0  0  0  0  0  0  0  0
   61.2192   26.3785   49.9626 H   0  0  0  0  0  0  0  0  0  0  0  0
   59.1242   26.6823   44.7417 H   0  0  0  0  0  0  0  0  0  0  0  0
   57.8137   26.8674   45.9778 H   0  0  0  0  0  0  0  0  0  0  0  0
   58.5392   28.6871   43.6572 H   0  0  0  0  0  0  0  0  0  0  0  0
   56.9324   28.0391   44.1554 H   0  0  0  0  0  0  0  0  0  0  0  0
   57.0346   29.4660   46.2239 H   0  0  0  0  0  0  0  0  0  0  0  0
   55.0069   29.6035   44.3957 H   0  0  0  0  0  0  0  0  0  0  0  0
   55.2710   30.8298   43.1100 H   0  0  0  0  0  0  0  0  0  0  0  0
   56.2261   29.3084   43.1100 H   0  0  0  0  0  0  0  0  0  0  0  0
   58.6289   31.4624   43.8520 H   0  0  0  0  0  0  0  0  0  0  0  0
   57.1604   31.6654   42.7594 H   0  0  0  0  0  0  0  0  0  0  0  0
   57.7136   33.8486   43.3985 H   0  0  0  0  0  0  0  0  0  0  0  0
   56.3381   33.3406   44.4885 H   0  0  0  0  0  0  0  0  0  0  0  0
   56.8826   32.5340   46.8394 H   0  0  0  0  0  0  0  0  0  0  0  0
   58.2259   33.1378   48.8529 H   0  0  0  0  0  0  0  0  0  0  0  0
   60.3244   34.4653   48.6068 H   0  0  0  0  0  0  0  0  0  0  0  0
   61.0955   35.1750   46.3417 H   0  0  0  0  0  0  0  0  0  0  0  0
   59.7591   34.5754   44.3203 H   0  0  0  0  0  0  0  0  0  0  0  0
   59.3154   31.0392   44.9608 H   0  0  0  0  0  0  0  0  0  0  0  0
   58.8229   30.8576   46.7163 H   0  0  0  0  0  0  0  0  0  0  0  0
   60.7056   29.2234   45.0693 H   0  0  0  0  0  0  0  0  0  0  0  0
   60.7299   29.6525   46.8235 H   0  0  0  0  0  0  0  0  0  0  0  0
  1  2  1  0
  2  3  2  0
  3  4  1  0
  4  5  2  0
  5  6  1  0
  6  7  2  0
  6  8  1  0
  8  9  1  0
  9 10  1  0
 10 11  1  0
 11 12  1  0
 12 13  1  0
 12 14  1  0
 14 15  1  0
 15 16  1  0
 16 17  2  0
 17 18  1  0
 18 19  2  0
 19 20  1  0
 20 21  2  0
 11 22  1  0
 22 23  1  0
  5 24  1  0
 24  2  1  0
 23  8  1  0
 21 16  1  0
  1 25  1  0
  1 26  1  0
  1 27  1  0
  3 28  1  0
  4 29  1  0
  9 30  1  0
  9 31  1  0
 10 32  1  0
 10 33  1  0
 11 34  1  0
 13 35  1  0
 13 36  1  0
 13 37  1  0
 14 38  1  0
 14 39  1  0
 15 40  1  0
 15 41  1  0
 17 42  1  0
 18 43  1  0
 19 44  1  0
 20 45  1  0
 21 46  1  0
 22 47  1  0
 22 48  1  0
 23 49  1  0
 23 50  1  0
M  CHG  1   3   1
M  END
>  <UniqueID>  (27) 
24

>  <SMILES>  (27) 
Cc1[nH+]cc(C(=O)N2CCC(N(C)CCc3ccccc3)CC2)o1

>  <Energy>  (27) 
92.7594734934531

>  <Genealogy>  (27) 
Cc1[nH+]cc(C(=O)N2CCC(N(C)CCc3ccccc3)CC2)o1 (protonated)
Cc1[nH+]cc(C(=O)N2CCC(N(C)CCc3ccccc3)CC2)o1 (3D coordinates assigned)
Cc1[nH+]cc(C(=O)N2CCC(N(C)CCc3ccccc3)CC2)o1 (nonaromatic ring conformer: 92.7594734934531 kcal/mol)

>  <smiles>  (27) 
Cc1ncc(C(=O)N2CCC(N(C)CCc3ccccc3)CC2)o1

>  <score_type>  (27) 
oracle

>  <origin>  (27) 
adg

>  <m_score__min__energy>  (27) 
-6.3499999999999996

>  <m_primary>  (27) 
energy

$$$$
27:0
     RDKit          3D

 55 58  0  0  1  0  0  0  0  0999 V2000
   63.3520   33.7410   46.3540 C   0  0  0  0  0  0  0  0  0  0  0  0
   63.2960   34.2540   47.6570 O   0  0  0  0  0  0  0  0  0  0  0  0
   62.4250   33.7890   48.6260 C   0  0  0  0  0  0  0  0  0  0  0  0
   62.7260   33.6540   49.9460 C   0  0  0  0  0  0  0  0  0  0  0  0
   61.8720   33.1910   50.9240 C   0  0  0  0  0  0  0  0  0  0  0  0
   60.6090   32.8400   50.5130 C   0  0  0  0  0  0  0  0  0  0  0  0
   59.7730   32.3920   51.4680 N   0  0  0  0  0  0  0  0  0  0  0  0
   58.5260   32.0460   51.0920 C   0  0  0  0  0  0  0  0  0  0  0  0
   57.6720   31.5920   52.1440 N   0  0  0  0  0  0  0  0  0  0  0  0
   56.2740   31.9260   52.2600 C   0  0  0  0  0  0  0  0  0  0  0  0
   55.5450   30.5980   52.5080 C   0  0  0  0  0  0  0  0  0  0  0  0
   56.3850   29.5580   52.0020 N   0  0  0  0  0  0  0  0  0  0  0  0
   57.5560   29.3440   52.8470 C   0  0  0  0  0  0  0  0  0  0  0  0
   58.2330   30.6920   53.1360 C   0  0  0  0  0  0  0  0  0  0  0  0
   58.1260   32.1390   49.8250 N   0  0  0  0  0  0  0  0  0  0  0  0
   58.9690   32.5880   48.8730 C   0  0  0  0  0  0  0  0  0  0  0  0
   58.5440   32.6640   47.7110 N   0  0  0  0  0  0  0  0  0  0  0  0
   58.9740   32.0530   46.5530 C   0  0  0  0  0  0  0  0  0  0  0  0
   58.1040   32.0430   45.3220 C   0  0  0  0  0  0  0  0  0  0  0  0
   57.2310   30.9680   45.1360 N   0  0  0  0  0  0  0  0  0  0  0  0
   56.6560   30.8410   43.8230 C   0  0  0  0  0  0  0  0  0  0  0  0
   55.6120   29.7820   43.7340 C   0  0  0  0  0  0  0  0  0  0  0  0
   55.5310   28.9930   44.9050 O   0  0  0  0  0  0  0  0  0  0  0  0
   56.8410   28.5490   45.1460 C   0  0  0  0  0  0  0  0  0  0  0  0
   57.5920   29.7290   45.7380 C   0  0  0  0  0  0  0  0  0  0  0  0
   60.2530   32.9560   49.1930 C   0  0  0  0  0  0  0  0  0  0  0  0
   61.1130   33.4160   48.2410 C   0  0  0  0  0  0  0  0  0  0  0  0
   63.4713   32.6483   46.3950 H   0  0  0  0  0  0  0  0  0  0  0  0
   62.4215   33.9886   45.8222 H   0  0  0  0  0  0  0  0  0  0  0  0
   64.2072   34.1835   45.8222 H   0  0  0  0  0  0  0  0  0  0  0  0
   63.7406   33.9396   50.2606 H   0  0  0  0  0  0  0  0  0  0  0  0
   62.1845   33.1072   51.9753 H   0  0  0  0  0  0  0  0  0  0  0  0
   60.0770   32.3090   52.4790 H   0  0  0  0  0  0  0  0  0  0  0  0
   56.1134   32.6142   53.1030 H   0  0  0  0  0  0  0  0  0  0  0  0
   55.9018   32.4289   51.3553 H   0  0  0  0  0  0  0  0  0  0  0  0
   55.3756   30.4558   53.5855 H   0  0  0  0  0  0  0  0  0  0  0  0
   54.5654   30.5891   52.0077 H   0  0  0  0  0  0  0  0  0  0  0  0
   55.9280   28.6940   51.7260 H   0  0  0  0  0  0  0  0  0  0  0  0
   57.2445   28.8797   53.7943 H   0  0  0  0  0  0  0  0  0  0  0  0
   58.2652   28.6814   52.3293 H   0  0  0  0  0  0  0  0  0  0  0  0
   57.9970   31.0369   54.1535 H   0  0  0  0  0  0  0  0  0  0  0  0
   59.3300   30.6334   53.0794 H   0  0  0  0  0  0  0  0  0  0  0  0
   59.9159   32.5450   46.2687 H   0  0  0  0  0  0  0  0  0  0  0  0
   59.0136   30.9906   46.8352 H   0  0  0  0  0  0  0  0  0  0  0  0
   57.4934   32.9576   45.3474 H   0  0  0  0  0  0  0  0  0  0  0  0
   58.8159   31.9618   44.4874 H   0  0  0  0  0  0  0  0  0  0  0  0
   56.2006   31.8036   43.5472 H   0  0  0  0  0  0  0  0  0  0  0  0
   57.4685   30.5542   43.1391 H   0  0  0  0  0  0  0  0  0  0  0  0
   54.6370   30.2628   43.5659 H   0  0  0  0  0  0  0  0  0  0  0  0
   55.8865   29.1151   42.9034 H   0  0  0  0  0  0  0  0  0  0  0  0
   56.8333   27.7084   45.8555 H   0  0  0  0  0  0  0  0  0  0  0  0
   57.3190   28.1961   44.2202 H   0  0  0  0  0  0  0  0  0  0  0  0
   57.3707   29.7829   46.8142 H   0  0  0  0  0  0  0  0  0  0  0  0
   58.6640   29.5684   45.5507 H   0  0  0  0  0  0  0  0  0  0  0  0
   60.7941   33.4964   47.1913 H   0  0  0  0  0  0  0  0  0  0  0  0
  1  2  1  0
  2  3  1  0
  3  4  2  0
  4  5  1  0
  5  6  2  0
  6  7  1  0
  7  8  1  0
  8  9  1  0
  9 10  1  0
 10 11  1  0
 11 12  1  0
 12 13  1  0
 13 14  1  0
  8 15  2  0
 15 16  1  0
 16 17  2  0
 17 18  1  0
 18 19  1  0
 19 20  1  0
 20 21  1  0
 21 22  1  0
 22 23  1  0
 23 24  1  0
 24 25  1  0
 16 26  1  0
 26 27  2  0
 27  3  1  0
 26  6  1  0
 14  9  1  0
 25 20  1  0
  1 28  1  0
  1 29  1  0
  1 30  1  0
  4 31  1  0
  5 32  1  0
  7 33  1  0
 10 34  1  0
 10 35  1  0
 11 36  1  0
 11 37  1  0
 12 38  1  0
 13 39  1  0
 13 40  1  0
 14 41  1  0
 14 42  1  0
 18 43  1  0
 18 44  1  0
 19 45  1  0
 19 46  1  0
 21 47  1  0
 21 48  1  0
 22 49  1  0
 22 50  1  0
 24 51  1  0
 24 52  1  0
 25 53  1  0
 25 54  1  0
 27 55  1  0
M  END
>  <smiles>  (28) 
COc1ccc2[nH]c(N3CCNCC3)nc(=NCCN3CCOCC3)c2c1

>  <score_type>  (28) 
oracle

>  <origin>  (28) 
adg

>  <m_score__min__energy>  (28) 
-7.6600000000000001

>  <m_primary>  (28) 
energy

$$$$
28:0
     RDKit          3D

 40 42  0  0  0  0  0  0  0  0999 V2000
   57.2530   33.1359   47.9365 H   0  0  0  0  0  0  0  0  0  0  0  0
   57.7420   33.4200   46.9930 C   0  0  0  0  0  0  0  0  0  0  0  0
   57.3570   32.9150   45.7920 N   0  0  0  0  0  0  0  0  0  0  0  0
   58.1120   33.4070   44.7830 C   0  0  0  0  0  0  0  0  0  0  0  0
   57.9390   33.1140   43.5280 N   0  0  0  0  0  0  0  0  0  0  0  0
   57.6410   31.8080   43.0110 C   0  0  0  0  0  0  0  0  0  0  0  0
   57.3690   31.6900   41.7870 O   0  0  0  0  0  0  0  0  0  0  0  0
   57.6850   30.5970   43.8620 C   0  0  0  0  0  0  0  0  0  0  0  0
   58.8830   30.2030   44.4810 C   0  0  0  0  0  0  0  0  0  0  0  0
   59.8017   30.7845   44.3143 H   0  0  0  0  0  0  0  0  0  0  0  0
   58.9140   29.0770   45.3070 C   0  0  0  0  0  0  0  0  0  0  0  0
   59.8561   28.7755   45.7883 H   0  0  0  0  0  0  0  0  0  0  0  0
   57.7490   28.3310   45.5240 C   0  0  0  0  0  0  0  0  0  0  0  0
   57.7430   26.9780   46.6500 S   0  0  0  0  0  0  0  0  0  0  0  0
   58.8000   25.9950   46.2320 O   0  0  0  0  0  0  0  0  0  0  0  0
   58.0380   27.4370   48.0500 O   0  0  0  0  0  0  0  0  0  0  0  0
   56.1890   26.2050   46.6090 N   0  0  0  0  0  0  0  0  0  0  0  0
   55.5790   26.3210   47.4480 H   0  0  0  0  0  0  0  0  0  0  0  0
   55.8270   25.2350   45.6110 C   0  0  0  0  0  0  0  0  0  0  0  0
   56.7330   24.8290   44.6170 C   0  0  0  0  0  0  0  0  0  0  0  0
   57.7408   25.2685   44.5827 H   0  0  0  0  0  0  0  0  0  0  0  0
   56.3610   23.8710   43.6730 C   0  0  0  0  0  0  0  0  0  0  0  0
   57.0792   23.5539   42.9025 H   0  0  0  0  0  0  0  0  0  0  0  0
   55.0810   23.3130   43.7020 C   0  0  0  0  0  0  0  0  0  0  0  0
   54.7964   22.5522   42.9603 H   0  0  0  0  0  0  0  0  0  0  0  0
   54.1550   23.7230   44.6790 C   0  0  0  0  0  0  0  0  0  0  0  0
   52.8550   23.1990   44.7480 O   0  0  0  0  0  0  0  0  0  0  0  0
   51.6690   23.9660   44.5720 C   0  0  0  0  0  0  0  0  0  0  0  0
   51.2558   24.2332   45.5558 H   0  0  0  0  0  0  0  0  0  0  0  0
   51.9050   24.8829   44.0121 H   0  0  0  0  0  0  0  0  0  0  0  0
   50.9296   23.3746   44.0121 H   0  0  0  0  0  0  0  0  0  0  0  0
   54.5350   24.6860   45.6220 C   0  0  0  0  0  0  0  0  0  0  0  0
   53.8114   25.0167   46.3816 H   0  0  0  0  0  0  0  0  0  0  0  0
   56.5590   28.7040   44.8870 C   0  0  0  0  0  0  0  0  0  0  0  0
   55.6446   28.1133   45.0447 H   0  0  0  0  0  0  0  0  0  0  0  0
   56.5290   29.8250   44.0510 C   0  0  0  0  0  0  0  0  0  0  0  0
   55.5953   30.1023   43.5397 H   0  0  0  0  0  0  0  0  0  0  0  0
   59.2670   34.4930   45.3340 S   0  0  0  0  0  0  0  0  0  0  0  0
   58.7990   34.3220   46.9430 C   0  0  0  0  0  0  0  0  0  0  0  0
   59.2511   34.8349   47.8047 H   0  0  0  0  0  0  0  0  0  0  0  0
  1  2  1  0
  2  3  1  0
  3  4  1  0
  4  5  2  0
  5  6  1  0
  6  7  2  0
  6  8  1  0
  8  9  2  0
  9 10  1  0
  9 11  1  0
 11 12  1  0
 11 13  2  0
 13 14  1  0
 14 15  2  0
 14 16  2  0
 14 17  1  0
 17 18  1  0
 17 19  1  0
 19 20  2  0
 20 21  1  0
 20 22  1  0
 22 23  1  0
 22 24  2  0
 24 25  1  0
 24 26  1  0
 26 27  1  0
 27 28  1  0
 28 29  1  0
 28 30  1  0
 28 31  1  0
 26 32  2  0
 32 33  1  0
 13 34  1  0
 34 35  1  0
 34 36  2  0
 36 37  1  0
  4 38  1  0
 38 39  1  0
 39 40  1  0
 39  2  2  0
 36  8  1  0
 32 19  1  0
M  CHG  1   3  -1
M  END
>  <UniqueID>  (29) 
25

>  <SMILES>  (29) 
COc1cccc(NS(=O)(=O)c2ccc(C(=O)/N=c3\[n-]ccs3)cc2)c1

>  <Energy>  (29) 
81.33225640457923

>  <Genealogy>  (29) 
COc1cccc(NS(=O)(=O)c2ccc(C(=O)N=c3[n-]ccs3)cc2)c1 (protonated)
COc1cccc(NS(=O)(=O)c2ccc(C(=O)/N=c3\[n-]ccs3)cc2)c1 (cis-trans isomerization)
COc1cccc(NS(=O)(=O)c2ccc(C(=O)/N=c3\[n-]ccs3)cc2)c1 (3D coordinates assigned)
COc1cccc(NS(=O)(=O)c2ccc(C(=O)/N=c3\[n-]ccs3)cc2)c1 (optimized conformer: 81.33225640457923 kcal/mol)

>  <smiles>  (29) 
COc1cccc(NS(=O)(=O)c2ccc(C(=O)N=c3[nH]ccs3)cc2)c1

>  <score_type>  (29) 
oracle

>  <origin>  (29) 
adg

>  <m_score__min__energy>  (29) 
-10.390000000000001

>  <m_primary>  (29) 
energy

$$$$
29:0
     RDKit          3D

112115  0  0  0  0  0  0  0  0999 V2000
   59.0740   34.6720   53.6610 C   0  0  0  0  0  0  0  0  0  0  0  0
   58.3390   34.0490   52.4730 C   0  0  0  0  0  0  0  0  0  0  0  0
   57.7370   32.6730   52.8200 C   0  0  0  0  0  0  0  0  0  0  0  0
   57.1470   31.9140   51.6130 C   0  0  0  0  0  0  0  0  0  0  0  0
   58.1060   31.7270   50.4200 C   0  0  0  0  0  0  0  0  0  0  0  0
   58.5490   30.2760   50.1630 C   0  0  0  0  0  0  0  0  0  0  0  0
   60.0210   30.0320   50.5260 C   0  0  0  0  0  0  0  0  0  0  0  0
   60.2590   28.5720   50.9350 C   0  0  0  0  0  0  0  0  0  0  0  0
   60.7980   27.7020   49.7820 C   0  0  0  0  0  0  0  0  0  0  0  0
   60.1150   27.9640   48.4260 C   0  0  0  0  0  0  0  0  0  0  0  0
   60.6480   27.0540   47.2960 C   0  0  0  0  0  0  0  0  0  0  0  0
   59.5420   26.1800   46.6860 C   0  0  0  0  0  0  0  0  0  0  0  0
   58.3520   27.0360   46.2170 C   0  0  0  0  0  0  0  0  0  0  0  0
   58.7790   28.0050   45.1060 C   0  0  0  0  0  0  0  0  0  0  0  0
   57.6150   28.3710   44.1750 C   0  0  0  0  0  0  0  0  0  0  0  0
   56.3790   28.8810   44.9470 C   0  0  0  0  0  0  0  0  0  0  0  0
   55.6170   29.9750   44.1740 C   0  0  0  0  0  0  0  0  0  0  0  0
   56.3610   30.4600   42.9610 C   0  0  0  0  0  0  0  0  0  0  0  0
   56.2650   29.8150   41.8840 O   0  0  0  0  0  0  0  0  0  0  0  0
   57.1280   31.6320   43.0300 O   0  0  0  0  0  0  0  0  0  0  0  0
   57.7170   32.1650   44.1840 C   0  0  0  0  0  0  0  0  0  0  0  0
   57.3980   33.4440   44.6740 C   0  0  0  0  0  0  0  0  0  0  0  0
   58.0180   33.9350   45.8290 C   0  0  0  0  0  0  0  0  0  0  0  0
   58.9630   33.1500   46.5090 C   0  0  0  0  0  0  0  0  0  0  0  0
   59.6590   33.6230   47.6370 C   0  0  0  0  0  0  0  0  0  0  0  0
   59.4240   34.7770   48.0920 O   0  0  0  0  0  0  0  0  0  0  0  0
   60.6120   32.7940   48.2610 C   0  0  0  0  0  0  0  0  0  0  0  0
   61.5070   33.2940   49.3310 C   0  0  0  0  0  0  0  0  0  0  0  0
   62.8630   33.5210   49.0490 C   0  0  0  0  0  0  0  0  0  0  0  0
   63.7560   33.8120   50.0790 C   0  0  0  0  0  0  0  0  0  0  0  0
   63.3130   33.8850   51.4110 C   0  0  0  0  0  0  0  0  0  0  0  0
   64.2090   34.0230   52.4800 O   0  0  0  0  0  0  0  0  0  0  0  0
   65.4800   33.3770   52.5010 C   0  0  1  0  0  0  0  0  0  0  0  0
   66.3380   34.0170   53.4240 O   0  0  0  0  0  0  0  0  0  0  0  0
   67.6920   33.6280   53.2030 C   0  0  1  0  0  0  0  0  0  0  0  0
   68.4870   33.9510   54.4690 C   0  0  0  0  0  0  0  0  0  0  0  0
   67.8670   32.1170   52.8290 C   0  0  2  0  0  0  0  0  0  0  0  0
   67.8970   31.9560   51.4100 O   0  0  0  0  0  0  0  0  0  0  0  0
   67.7350   33.0010   50.4980 C   0  0  0  0  0  0  0  0  0  0  0  0
   68.8030   34.0340   50.3730 C   0  0  0  0  0  0  0  0  0  0  0  0
   66.6980   33.0820   49.7840 O   0  0  0  0  0  0  0  0  0  0  0  0
   66.6820   31.3040   53.3900 C   0  0  2  0  0  0  0  0  0  0  0  0
   66.7910   29.9340   52.9980 O   0  0  0  0  0  0  0  0  0  0  0  0
   66.4410   29.4690   51.7260 C   0  0  0  0  0  0  0  0  0  0  0  0
   67.4890   28.8350   50.8760 C   0  0  0  0  0  0  0  0  0  0  0  0
   65.2590   29.5790   51.2970 O   0  0  0  0  0  0  0  0  0  0  0  0
   65.3310   31.8870   52.8880 C   0  0  1  0  0  0  0  0  0  0  0  0
   64.3240   31.7050   53.8560 O   0  0  0  0  0  0  0  0  0  0  0  0
   61.9470   33.7480   51.6810 C   0  0  0  0  0  0  0  0  0  0  0  0
   61.0510   33.4310   50.6520 C   0  0  0  0  0  0  0  0  0  0  0  0
   60.8040   31.5020   47.7460 C   0  0  0  0  0  0  0  0  0  0  0  0
   60.1340   31.0860   46.6760 O   0  0  0  0  0  0  0  0  0  0  0  0
   59.2570   31.8530   46.0350 C   0  0  0  0  0  0  0  0  0  0  0  0
   58.6330   31.3720   44.8810 C   0  0  0  0  0  0  0  0  0  0  0  0
   58.6357   34.3005   54.5990 H   0  0  0  0  0  0  0  0  0  0  0  0
   60.1381   34.3966   53.6191 H   0  0  0  0  0  0  0  0  0  0  0  0
   58.9767   35.7669   53.6191 H   0  0  0  0  0  0  0  0  0  0  0  0
   57.5268   34.7239   52.1649 H   0  0  0  0  0  0  0  0  0  0  0  0
   59.0678   33.9049   51.6617 H   0  0  0  0  0  0  0  0  0  0  0  0
   58.5297   32.0522   53.2630 H   0  0  0  0  0  0  0  0  0  0  0  0
   56.9027   32.8602   53.5121 H   0  0  0  0  0  0  0  0  0  0  0  0
   56.8350   30.9171   51.9578 H   0  0  0  0  0  0  0  0  0  0  0  0
   56.3160   32.5317   51.2416 H   0  0  0  0  0  0  0  0  0  0  0  0
   57.6005   32.0948   49.5149 H   0  0  0  0  0  0  0  0  0  0  0  0
   59.0191   32.2877   50.6687 H   0  0  0  0  0  0  0  0  0  0  0  0
   57.9216   29.6043   50.7674 H   0  0  0  0  0  0  0  0  0  0  0  0
   58.4356   30.0800   49.0866 H   0  0  0  0  0  0  0  0  0  0  0  0
   60.6490   30.2669   49.6539 H   0  0  0  0  0  0  0  0  0  0  0  0
   60.2807   30.6782   51.3774 H   0  0  0  0  0  0  0  0  0  0  0  0
   60.9883   28.5533   51.7583 H   0  0  0  0  0  0  0  0  0  0  0  0
   59.2876   28.1529   51.2362 H   0  0  0  0  0  0  0  0  0  0  0  0
   61.8740   27.9023   49.6716 H   0  0  0  0  0  0  0  0  0  0  0  0
   60.5865   26.6557   50.0476 H   0  0  0  0  0  0  0  0  0  0  0  0
   59.0349   27.7882   48.5377 H   0  0  0  0  0  0  0  0  0  0  0  0
   60.3344   29.0039   48.1424 H   0  0  0  0  0  0  0  0  0  0  0  0
   61.0772   27.6861   46.5046 H   0  0  0  0  0  0  0  0  0  0  0  0
   61.4066   26.3857   47.7295 H   0  0  0  0  0  0  0  0  0  0  0  0
   59.9516   25.6322   45.8246 H   0  0  0  0  0  0  0  0  0  0  0  0
   59.1859   25.4804   47.4565 H   0  0  0  0  0  0  0  0  0  0  0  0
   57.5613   26.3743   45.8336 H   0  0  0  0  0  0  0  0  0  0  0  0
   57.9819   27.6217   47.0714 H   0  0  0  0  0  0  0  0  0  0  0  0
   59.1654   28.9253   45.5682 H   0  0  0  0  0  0  0  0  0  0  0  0
   59.5502   27.5056   44.5012 H   0  0  0  0  0  0  0  0  0  0  0  0
   57.9498   29.1592   43.4846 H   0  0  0  0  0  0  0  0  0  0  0  0
   57.3193   27.4595   43.6349 H   0  0  0  0  0  0  0  0  0  0  0  0
   55.6991   28.0348   45.1249 H   0  0  0  0  0  0  0  0  0  0  0  0
   56.7303   29.3198   45.8926 H   0  0  0  0  0  0  0  0  0  0  0  0
   54.6480   29.5665   43.8514 H   0  0  0  0  0  0  0  0  0  0  0  0
   55.4944   30.8332   44.8511 H   0  0  0  0  0  0  0  0  0  0  0  0
   56.6568   34.0623   44.1465 H   0  0  0  0  0  0  0  0  0  0  0  0
   57.7645   34.9374   46.2045 H   0  0  0  0  0  0  0  0  0  0  0  0
   63.2226   33.4691   48.0107 H   0  0  0  0  0  0  0  0  0  0  0  0
   64.8171   33.9861   49.8473 H   0  0  0  0  0  0  0  0  0  0  0  0
   65.9124   33.4423   51.4917 H   0  0  0  0  0  0  0  0  0  0  0  0
   68.0637   34.1898   52.3334 H   0  0  0  0  0  0  0  0  0  0  0  0
   67.8823   33.7053   55.3544 H   0  0  0  0  0  0  0  0  0  0  0  0
   69.4133   33.3579   54.4816 H   0  0  0  0  0  0  0  0  0  0  0  0
   68.7372   35.0221   54.4816 H   0  0  0  0  0  0  0  0  0  0  0  0
   68.8136   31.7589   53.2599 H   0  0  0  0  0  0  0  0  0  0  0  0
   69.1281   34.3485   51.3757 H   0  0  0  0  0  0  0  0  0  0  0  0
   69.6588   33.6122   49.8255 H   0  0  0  0  0  0  0  0  0  0  0  0
   68.4100   34.9034   49.8255 H   0  0  0  0  0  0  0  0  0  0  0  0
   66.7101   31.3687   54.4877 H   0  0  0  0  0  0  0  0  0  0  0  0
   68.2526   28.3730   51.5190 H   0  0  0  0  0  0  0  0  0  0  0  0
   67.0289   28.0636   50.2409 H   0  0  0  0  0  0  0  0  0  0  0  0
   67.9587   29.6006   50.2409 H   0  0  0  0  0  0  0  0  0  0  0  0
   65.0324   31.3394   51.9819 H   0  0  0  0  0  0  0  0  0  0  0  0
   63.9780   32.6040   54.0990 H   0  0  0  0  0  0  0  0  0  0  0  0
   61.5749   33.8899   52.7064 H   0  0  0  0  0  0  0  0  0  0  0  0
   59.9844   33.2886   50.8800 H   0  0  0  0  0  0  0  0  0  0  0  0
   61.5192   30.8243   48.2350 H   0  0  0  0  0  0  0  0  0  0  0  0
   58.8648   30.3599   44.5177 H   0  0  0  0  0  0  0  0  0  0  0  0
  1  2  1  0
  2  3  1  0
  3  4  1  0
  4  5  1  0
  5  6  1  0
  6  7  1  0
  7  8  1  0
  8  9  1  0
  9 10  1  0
 10 11  1  0
 11 12  1  0
 12 13  1  0
 13 14  1  0
 14 15  1  0
 15 16  1  0
 16 17  1  0
 17 18  1  0
 18 19  2  0
 18 20  1  0
 20 21  1  0
 21 22  2  0
 22 23  1  0
 23 24  2  0
 24 25  1  0
 25 26  2  0
 25 27  1  0
 27 28  1  0
 28 29  2  0
 29 30  1  0
 30 31  2  0
 31 32  1  0
 32 33  1  0
 33 34  1  0
 34 35  1  0
 35 36  1  0
 35 37  1  0
 37 38  1  0
 38 39  1  0
 39 40  1  0
 39 41  2  0
 37 42  1  0
 42 43  1  0
 43 44  1  0
 44 45  1  0
 44 46  2  0
 42 47  1  0
 47 48  1  0
 31 49  1  0
 49 50  2  0
 27 51  2  0
 51 52  1  0
 52 53  1  0
 53 54  2  0
 54 21  1  0
 53 24  1  0
 50 28  1  0
 47 33  1  0
  1 55  1  0
  1 56  1  0
  1 57  1  0
  2 58  1  0
  2 59  1  0
  3 60  1  0
  3 61  1  0
  4 62  1  0
  4 63  1  0
  5 64  1  0
  5 65  1  0
  6 66  1  0
  6 67  1  0
  7 68  1  0
  7 69  1  0
  8 70  1  0
  8 71  1  0
  9 72  1  0
  9 73  1  0
 10 74  1  0
 10 75  1  0
 11 76  1  0
 11 77  1  0
 12 78  1  0
 12 79  1  0
 13 80  1  0
 13 81  1  0
 14 82  1  0
 14 83  1  0
 15 84  1  0
 15 85  1  0
 16 86  1  0
 16 87  1  0
 17 88  1  0
 17 89  1  0
 22 90  1  0
 23 91  1  0
 29 92  1  0
 30 93  1  0
 33 94  1  6
 35 95  1  6
 36 96  1  0
 36 97  1  0
 36 98  1  0
 37 99  1  1
 40100  1  0
 40101  1  0
 40102  1  0
 42103  1  1
 45104  1  0
 45105  1  0
 45106  1  0
 47107  1  6
 48108  1  0
 49109  1  0
 50110  1  0
 51111  1  0
 54112  1  0
M  END
>  <UniqueID>  (30) 
26

>  <SMILES>  (30) 
CCCCCCCCCCCCCCCCCC(=O)Oc1ccc2c(=O)c(-c3ccc(O[C@H]4O[C@@H](C)C(OC(C)=O)C(OC(C)=O)C4O)cc3)coc2c1

>  <Energy>  (30) 
111.38761987746462

>  <Genealogy>  (30) 
CCCCCCCCCCCCCCCCCC(=O)Oc1ccc2c(=O)c(-c3ccc(O[C@H]4O[C@@H](C)C(OC(C)=O)C(OC(C)=O)C4O)cc3)coc2c1 (chirality)
CCCCCCCCCCCCCCCCCC(=O)Oc1ccc2c(=O)c(-c3ccc(O[C@H]4O[C@@H](C)C(OC(C)=O)C(OC(C)=O)C4O)cc3)coc2c1 (3D coordinates assigned)
CCCCCCCCCCCCCCCCCC(=O)Oc1ccc2c(=O)c(-c3ccc(O[C@H]4O[C@@H](C)C(OC(C)=O)C(OC(C)=O)C4O)cc3)coc2c1 (nonaromatic ring conformer: 111.38761987746462 kcal/mol)

>  <smiles>  (30) 
CCCCCCCCCCCCCCCCCC(=O)Oc1ccc2c(=O)c(-c3ccc(OC4OC(C)C(OC(C)=O)C(OC(C)=O)C4O)cc3)coc2c1

>  <score_type>  (30) 
oracle

>  <origin>  (30) 
adg

>  <m_score__min__energy>  (30) 
-7.6600000000000001

>  <m_primary>  (30) 
energy

$$$$
30:0
     RDKit          3D

 27 29  0  0  0  0  0  0  0  0999 V2000
   59.0403   35.0155   45.2640 H   0  0  0  0  0  0  0  0  0  0  0  0
   58.5870   34.0460   45.0100 C   0  0  0  0  0  0  0  0  0  0  0  0
   58.5270   33.5740   43.7360 N   0  0  0  0  0  0  0  0  0  0  0  0
   57.9100   32.3950   43.9000 C   0  0  0  0  0  0  0  0  0  0  0  0
   57.5410   31.4590   42.9490 C   0  0  0  0  0  0  0  0  0  0  0  0
   57.8030   31.6670   41.7310 O   0  0  0  0  0  0  0  0  0  0  0  0
   56.8700   30.3230   43.3610 N   0  0  0  0  0  0  0  0  0  0  0  0
   56.2450   29.4840   42.3210 C   0  0  0  0  0  0  0  0  0  0  0  0
   55.6529   28.6891   42.7980 H   0  0  0  0  0  0  0  0  0  0  0  0
   55.5878   30.1052   41.6947 H   0  0  0  0  0  0  0  0  0  0  0  0
   57.0283   29.0321   41.6947 H   0  0  0  0  0  0  0  0  0  0  0  0
   56.6970   30.0900   44.7320 C   0  0  0  0  0  0  0  0  0  0  0  0
   56.2430   28.9700   45.2310 N   0  0  0  0  0  0  0  0  0  0  0  0
   56.9190   27.7340   45.4990 C   0  0  0  0  0  0  0  0  0  0  0  0
   58.3210   27.6690   45.4620 C   0  0  0  0  0  0  0  0  0  0  0  0
   58.9033   28.5556   45.1707 H   0  0  0  0  0  0  0  0  0  0  0  0
   58.9790   26.4820   45.7940 C   0  0  0  0  0  0  0  0  0  0  0  0
   60.0764   26.4285   45.7415 H   0  0  0  0  0  0  0  0  0  0  0  0
   58.2430   25.3620   46.1930 C   0  0  0  0  0  0  0  0  0  0  0  0
   58.7609   24.4252   46.4463 H   0  0  0  0  0  0  0  0  0  0  0  0
   56.8490   25.4330   46.2700 C   0  0  0  0  0  0  0  0  0  0  0  0
   56.2718   24.5541   46.5930 H   0  0  0  0  0  0  0  0  0  0  0  0
   56.1860   26.6200   45.9370 C   0  0  0  0  0  0  0  0  0  0  0  0
   54.8010   26.6860   46.0350 O   0  0  0  0  0  0  0  0  0  0  0  0
   57.0340   31.0640   45.6320 N   0  0  0  0  0  0  0  0  0  0  0  0
   57.6220   32.1960   45.1940 C   0  0  0  0  0  0  0  0  0  0  0  0
   58.0410   33.2220   45.9450 N   0  0  0  0  0  0  0  0  0  0  0  0
  1  2  1  0
  2  3  2  0
  3  4  1  0
  4  5  1  0
  5  6  2  0
  5  7  1  0
  7  8  1  0
  8  9  1  0
  8 10  1  0
  8 11  1  0
  7 12  1  0
 12 13  2  0
 13 14  1  0
 14 15  2  0
 15 16  1  0
 15 17  1  0
 17 18  1  0
 17 19  2  0
 19 20  1  0
 19 21  1  0
 21 22  1  0
 21 23  2  0
 23 24  1  0
 12 25  1  0
 25 26  1  0
 26 27  1  0
 27  2  1  0
 26  4  2  0
 23 14  1  0
M  CHG  3  24  -1  25  -1  27  -1
M  END
>  <UniqueID>  (31) 
27

>  <SMILES>  (31) 
Cn1c(=O)c2nc[n-]c2[n-]/c1=N/c1ccccc1[O-]

>  <Energy>  (31) 
90.37469402847428

>  <Genealogy>  (31) 
Cn1c(=Nc2ccccc2[O-])[n-]c2[n-]cnc2c1=O (protonated)
Cn1c(=O)c2nc[n-]c2[n-]/c1=N/c1ccccc1[O-] (cis-trans isomerization)
Cn1c(=O)c2nc[n-]c2[n-]/c1=N/c1ccccc1[O-] (3D coordinates assigned)
Cn1c(=O)c2nc[n-]c2[n-]/c1=N/c1ccccc1[O-] (optimized conformer: 90.37469402847428 kcal/mol)

>  <smiles>  (31) 
Cn1c(=Nc2ccccc2O)[nH]c2[nH]cnc2c1=O

>  <score_type>  (31) 
oracle

>  <origin>  (31) 
adg

>  <m_score__min__energy>  (31) 
-13.609999999999999

>  <m_primary>  (31) 
energy

$$$$
31:0
     RDKit          3D

 61 65  0  0  1  0  0  0  0  0999 V2000
   59.5790   31.9950   51.6060 C   0  0  0  0  0  0  0  0  0  0  0  0
   60.8790   32.8030   51.5530 C   0  0  0  0  0  0  0  0  0  0  0  0
   61.8350   31.8520   50.8700 N   0  0  0  0  0  0  0  0  0  0  0  0
   61.9970   30.6630   51.6240 C   0  0  0  0  0  0  0  0  0  0  0  0
   62.3860   29.3700   51.0180 C   0  0  0  0  0  0  0  0  0  0  0  0
   61.6030   28.9240   50.0300 O   0  0  0  0  0  0  0  0  0  0  0  0
   60.6990   28.7120   49.1630 C   0  0  0  0  0  0  0  0  0  0  0  0
   60.7590   27.7000   48.2050 C   0  0  0  0  0  0  0  0  0  0  0  0
   59.7630   27.4900   47.2790 C   0  0  0  0  0  0  0  0  0  0  0  0
   58.6800   28.3060   47.3040 C   0  0  0  0  0  0  0  0  0  0  0  0
   57.5960   28.1480   46.4120 N   0  0  0  0  0  0  0  0  0  0  0  0
   57.3890   28.9860   45.4440 C   0  0  0  0  0  0  0  0  0  0  0  0
   57.8220   30.2400   45.6720 N   0  0  0  0  0  0  0  0  0  0  0  0
   57.6790   31.2510   44.7520 C   0  0  0  0  0  0  0  0  0  0  0  0
   58.2200   32.5200   45.1170 C   0  0  0  0  0  0  0  0  0  0  0  0
   58.3810   33.5590   44.1850 C   0  0  0  0  0  0  0  0  0  0  0  0
   58.9210   34.6330   44.7860 N   0  0  0  0  0  0  0  0  0  0  0  0
   59.1330   34.3660   46.0810 C   0  0  0  0  0  0  0  0  0  0  0  0
   59.6680   35.1340   47.0890 C   0  0  0  0  0  0  0  0  0  0  0  0
   59.7960   34.6250   48.3550 C   0  0  0  0  0  0  0  0  0  0  0  0
   59.3620   33.3150   48.5510 C   0  0  0  0  0  0  0  0  0  0  0  0
   58.8300   32.5550   47.5350 C   0  0  0  0  0  0  0  0  0  0  0  0
   58.7000   33.0560   46.2830 C   0  0  0  0  0  0  0  0  0  0  0  0
   57.0650   30.8750   43.5940 C   0  0  0  0  0  0  0  0  0  0  0  0
   56.6180   29.5660   43.3680 C   0  0  0  0  0  0  0  0  0  0  0  0
   56.7840   28.6000   44.3140 N   0  0  0  0  0  0  0  0  0  0  0  0
   58.5350   29.3520   48.2330 C   0  0  0  0  0  0  0  0  0  0  0  0
   59.5430   29.5220   49.1260 C   0  0  0  0  0  0  0  0  0  0  0  0
   62.3370   32.2770   49.6390 C   0  0  0  0  0  0  0  0  0  0  0  0
   63.0560   33.4360   49.4060 C   0  0  0  0  0  0  0  0  0  0  0  0
   63.6220   33.7910   48.2030 C   0  0  0  0  0  0  0  0  0  0  0  0
   63.5020   32.9800   47.1090 C   0  0  0  0  0  0  0  0  0  0  0  0
   62.7940   31.8080   47.2830 C   0  0  0  0  0  0  0  0  0  0  0  0
   62.2230   31.4520   48.5050 C   0  0  0  0  0  0  0  0  0  0  0  0
   59.2983   31.8205   52.6552 H   0  0  0  0  0  0  0  0  0  0  0  0
   58.7784   32.5549   51.1005 H   0  0  0  0  0  0  0  0  0  0  0  0
   59.7266   31.0293   51.1005 H   0  0  0  0  0  0  0  0  0  0  0  0
   60.7495   33.7244   50.9663 H   0  0  0  0  0  0  0  0  0  0  0  0
   61.2267   33.1351   52.5424 H   0  0  0  0  0  0  0  0  0  0  0  0
   62.7641   30.8861   52.3802 H   0  0  0  0  0  0  0  0  0  0  0  0
   60.9621   30.4573   51.9348 H   0  0  0  0  0  0  0  0  0  0  0  0
   63.4041   29.4799   50.6163 H   0  0  0  0  0  0  0  0  0  0  0  0
   62.2964   28.6270   51.8242 H   0  0  0  0  0  0  0  0  0  0  0  0
   61.6401   27.0417   48.1890 H   0  0  0  0  0  0  0  0  0  0  0  0
   59.8431   26.6813   46.5377 H   0  0  0  0  0  0  0  0  0  0  0  0
   58.1060   33.5019   43.1215 H   0  0  0  0  0  0  0  0  0  0  0  0
   59.1490   35.5390   44.3380 H   0  0  0  0  0  0  0  0  0  0  0  0
   59.9950   36.1628   46.8777 H   0  0  0  0  0  0  0  0  0  0  0  0
   60.2205   35.2211   49.1763 H   0  0  0  0  0  0  0  0  0  0  0  0
   59.4480   32.8727   49.5545 H   0  0  0  0  0  0  0  0  0  0  0  0
   58.5052   31.5247   47.7424 H   0  0  0  0  0  0  0  0  0  0  0  0
   56.9147   31.6283   42.8066 H   0  0  0  0  0  0  0  0  0  0  0  0
   56.1275   29.3158   42.4157 H   0  0  0  0  0  0  0  0  0  0  0  0
   56.4630   27.6200   44.1690 H   0  0  0  0  0  0  0  0  0  0  0  0
   57.6471   30.0013   48.2358 H   0  0  0  0  0  0  0  0  0  0  0  0
   59.4545   30.3354   49.8612 H   0  0  0  0  0  0  0  0  0  0  0  0
   63.1855   34.1293   50.2502 H   0  0  0  0  0  0  0  0  0  0  0  0
   64.1768   34.7373   48.1207 H   0  0  0  0  0  0  0  0  0  0  0  0
   63.9471   33.2479   46.1394 H   0  0  0  0  0  0  0  0  0  0  0  0
   62.6755   31.1290   46.4257 H   0  0  0  0  0  0  0  0  0  0  0  0
   61.6706   30.5040   48.5838 H   0  0  0  0  0  0  0  0  0  0  0  0
  1  2  1  0
  2  3  1  0
  3  4  1  0
  4  5  1  0
  5  6  1  0
  6  7  1  0
  7  8  2  0
  8  9  1  0
  9 10  2  0
 10 11  1  0
 11 12  2  0
 12 13  1  0
 13 14  2  0
 14 15  1  0
 15 16  2  0
 16 17  1  0
 17 18  1  0
 18 19  2  0
 19 20  1  0
 20 21  2  0
 21 22  1  0
 22 23  2  0
 14 24  1  0
 24 25  2  0
 25 26  1  0
 10 27  1  0
 27 28  2  0
  3 29  1  0
 29 30  2  0
 30 31  1  0
 31 32  2  0
 32 33  1  0
 33 34  2  0
 28  7  1  0
 34 29  1  0
 26 12  1  0
 23 15  1  0
 23 18  1  0
  1 35  1  0
  1 36  1  0
  1 37  1  0
  2 38  1  0
  2 39  1  0
  4 40  1  0
  4 41  1  0
  5 42  1  0
  5 43  1  0
  8 44  1  0
  9 45  1  0
 16 46  1  0
 17 47  1  0
 19 48  1  0
 20 49  1  0
 21 50  1  0
 22 51  1  0
 24 52  1  0
 25 53  1  0
 26 54  1  0
 27 55  1  0
 28 56  1  0
 30 57  1  0
 31 58  1  0
 32 59  1  0
 33 60  1  0
 34 61  1  0
M  END
>  <smiles>  (32) 
CCN(CCOc1ccc(N=c2nc(-c3c[nH]c4ccccc34)cc[nH]2)cc1)c1ccccc1

>  <score_type>  (32) 
oracle

>  <origin>  (32) 
adg

>  <m_score__min__energy>  (32) 
-8.6600000000000001

>  <m_primary>  (32) 
energy

$$$$
32:0
     RDKit          3D

 49 50  0  0  0  0  0  0  0  0999 V2000
   63.4280   33.6070   46.4250 C   0  0  0  0  0  0  0  0  0  0  0  0
   62.7940   33.6370   47.7480 N   0  0  0  0  0  0  0  0  0  0  0  0
   63.6280   33.4440   48.9440 C   0  0  0  0  0  0  0  0  0  0  0  0
   63.6870   31.9670   49.3400 C   0  0  0  0  0  0  0  0  0  0  0  0
   62.4300   31.5410   49.7900 O   0  0  0  0  0  0  0  0  0  0  0  0
   61.3660   33.8630   47.8280 C   0  0  0  0  0  0  0  0  0  0  0  0
   60.7480   33.5280   48.8770 O   0  0  0  0  0  0  0  0  0  0  0  0
   60.6020   34.5610   46.7260 C   0  0  0  0  0  0  0  0  0  0  0  0
   59.0820   34.4290   46.8960 C   0  0  0  0  0  0  0  0  0  0  0  0
   58.5090   33.5410   45.8370 C   0  0  0  0  0  0  0  0  0  0  0  0
   58.4380   33.8380   44.4810 C   0  0  0  0  0  0  0  0  0  0  0  0
   57.8050   32.8410   43.7300 C   0  0  0  0  0  0  0  0  0  0  0  0
   57.3530   31.7750   44.5020 C   0  0  0  0  0  0  0  0  0  0  0  0
   56.6950   30.5520   44.0140 C   0  0  0  0  0  0  0  0  0  0  0  0
   56.7100   30.3090   42.7790 O   0  0  0  0  0  0  0  0  0  0  0  0
   56.0600   29.6110   44.8900 N   0  0  0  0  0  0  0  0  0  0  0  0
   56.5540   28.2770   45.2330 C   0  0  0  0  0  0  0  0  0  0  0  0
   58.0820   28.1800   45.0910 C   0  0  0  0  0  0  0  0  0  0  0  0
   58.8020   27.9530   46.4270 C   0  0  0  0  0  0  0  0  0  0  0  0
   59.6260   29.1060   46.7870 N   0  0  0  0  0  0  0  0  0  0  0  0
   60.5460   29.7160   46.0160 C   0  0  0  0  0  0  0  0  0  0  0  0
   61.1200   30.7280   46.7570 C   0  0  0  0  0  0  0  0  0  0  0  0
   60.5590   30.7370   47.9820 N   0  0  0  0  0  0  0  0  0  0  0  0
   59.6550   29.7390   47.9760 C   0  0  0  0  0  0  0  0  0  0  0  0
   57.7710   32.0550   46.1080 S   0  0  0  0  0  0  0  0  0  0  0  0
   64.5204   33.5553   46.5430 H   0  0  0  0  0  0  0  0  0  0  0  0
   63.0770   32.7245   45.8701 H   0  0  0  0  0  0  0  0  0  0  0  0
   63.1619   34.5187   45.8701 H   0  0  0  0  0  0  0  0  0  0  0  0
   64.6470   33.8007   48.7332 H   0  0  0  0  0  0  0  0  0  0  0  0
   63.1847   34.0119   49.7753 H   0  0  0  0  0  0  0  0  0  0  0  0
   63.9838   31.3673   48.4669 H   0  0  0  0  0  0  0  0  0  0  0  0
   64.4223   31.8388   50.1480 H   0  0  0  0  0  0  0  0  0  0  0  0
   61.9870   32.3450   50.1690 H   0  0  0  0  0  0  0  0  0  0  0  0
   60.8672   35.6285   46.7332 H   0  0  0  0  0  0  0  0  0  0  0  0
   60.8763   34.0849   45.7731 H   0  0  0  0  0  0  0  0  0  0  0  0
   58.8648   33.9990   47.8849 H   0  0  0  0  0  0  0  0  0  0  0  0
   58.6272   35.4266   46.8067 H   0  0  0  0  0  0  0  0  0  0  0  0
   58.8390   34.7636   44.0423 H   0  0  0  0  0  0  0  0  0  0  0  0
   57.6775   32.8946   42.6387 H   0  0  0  0  0  0  0  0  0  0  0  0
   56.2781   28.0519   46.2738 H   0  0  0  0  0  0  0  0  0  0  0  0
   56.0995   27.5551   44.5385 H   0  0  0  0  0  0  0  0  0  0  0  0
   58.3178   27.3407   44.4202 H   0  0  0  0  0  0  0  0  0  0  0  0
   58.4339   29.1421   44.6903 H   0  0  0  0  0  0  0  0  0  0  0  0
   58.0524   27.7879   47.2149 H   0  0  0  0  0  0  0  0  0  0  0  0
   59.4572   27.0754   46.3245 H   0  0  0  0  0  0  0  0  0  0  0  0
   60.7960   29.4534   44.9775 H   0  0  0  0  0  0  0  0  0  0  0  0
   61.9053   31.4137   46.4061 H   0  0  0  0  0  0  0  0  0  0  0  0
   60.7810   31.3810   48.7720 H   0  0  0  0  0  0  0  0  0  0  0  0
   59.0199   29.4738   48.8341 H   0  0  0  0  0  0  0  0  0  0  0  0
  1  2  1  0
  2  3  1  0
  3  4  1  0
  4  5  1  0
  2  6  1  0
  6  7  2  0
  6  8  1  0
  8  9  1  0
  9 10  1  0
 10 11  2  0
 11 12  1  0
 12 13  2  0
 13 14  1  0
 14 15  2  0
 14 16  1  0
 16 17  1  0
 17 18  1  0
 18 19  1  0
 19 20  1  0
 20 21  1  0
 21 22  2  0
 22 23  1  0
 23 24  2  0
 13 25  1  0
 25 10  1  0
 24 20  1  0
  1 26  1  0
  1 27  1  0
  1 28  1  0
  3 29  1  0
  3 30  1  0
  4 31  1  0
  4 32  1  0
  5 33  1  0
  8 34  1  0
  8 35  1  0
  9 36  1  0
  9 37  1  0
 11 38  1  0
 12 39  1  0
 17 40  1  0
 17 41  1  0
 18 42  1  0
 18 43  1  0
 19 44  1  0
 19 45  1  0
 21 46  1  0
 22 47  1  0
 23 48  1  0
 24 49  1  0
M  CHG  2  16  -1  23   1
M  END
>  <UniqueID>  (33) 
28

>  <SMILES>  (33) 
CN(CCO)C(=O)CCc1ccc(C(=O)[N-]CCCn2cc[nH+]c2)s1

>  <Energy>  (33) 
95.95601910153381

>  <Genealogy>  (33) 
CN(CCO)C(=O)CCc1ccc(C(=O)[N-]CCCn2cc[nH+]c2)s1 (protonated)
CN(CCO)C(=O)CCc1ccc(C(=O)[N-]CCCn2cc[nH+]c2)s1 (3D coordinates assigned)
CN(CCO)C(=O)CCc1ccc(C(=O)[N-]CCCn2cc[nH+]c2)s1 (optimized conformer: 95.95601910153381 kcal/mol)

>  <smiles>  (33) 
CN(CCO)C(=O)CCc1ccc(C(=O)NCCCn2ccnc2)s1

>  <score_type>  (33) 
oracle

>  <origin>  (33) 
adg

>  <m_score__min__energy>  (33) 
-7.8300000000000001

>  <m_primary>  (33) 
energy

$$$$
33:0
     RDKit          3D

 36 38  0  0  0  0  0  0  0  0999 V2000
   53.4220   29.0240   54.1910 O   0  0  0  0  0  0  0  0  0  0  0  0
   54.3650   29.3290   53.4110 C   0  0  0  0  0  0  0  0  0  0  0  0
   54.0910   30.0490   52.1990 N   0  0  0  0  0  0  0  0  0  0  0  0
   52.9280   30.8700   51.9910 C   0  0  0  0  0  0  0  0  0  0  0  0
   52.1520   31.2530   53.0940 C   0  0  0  0  0  0  0  0  0  0  0  0
   50.9950   32.0100   52.8970 C   0  0  0  0  0  0  0  0  0  0  0  0
   50.6120   32.3560   51.6400 N   0  0  0  0  0  0  0  0  0  0  0  0
   51.3310   31.9850   50.5490 C   0  0  0  0  0  0  0  0  0  0  0  0
   50.9380   32.3120   49.3980 O   0  0  0  0  0  0  0  0  0  0  0  0
   52.5010   31.2330   50.7010 C   0  0  0  0  0  0  0  0  0  0  0  0
   55.7350   28.8520   53.7080 C   0  0  0  0  0  0  0  0  0  0  0  0
   55.9370   28.0530   54.8470 C   0  0  0  0  0  0  0  0  0  0  0  0
   57.1920   27.5040   55.1190 C   0  0  0  0  0  0  0  0  0  0  0  0
   58.2620   27.7420   54.2550 C   0  0  0  0  0  0  0  0  0  0  0  0
   59.8330   27.0380   54.5890 Cl  0  0  0  0  0  0  0  0  0  0  0  0
   58.0830   28.5510   53.1300 C   0  0  0  0  0  0  0  0  0  0  0  0
   56.8400   29.1410   52.8650 C   0  0  0  0  0  0  0  0  0  0  0  0
   56.7530   29.9980   51.7590 O   0  0  0  0  0  0  0  0  0  0  0  0
   57.5920   31.0940   51.4930 C   0  0  0  0  0  0  0  0  0  0  0  0
   57.3580   32.2750   52.2120 C   0  0  0  0  0  0  0  0  0  0  0  0
   58.1700   33.3970   52.0260 C   0  0  0  0  0  0  0  0  0  0  0  0
   57.9490   34.5200   52.7530 F   0  0  0  0  0  0  0  0  0  0  0  0
   59.2140   33.3560   51.1030 C   0  0  0  0  0  0  0  0  0  0  0  0
   59.4350   32.2010   50.3490 C   0  0  0  0  0  0  0  0  0  0  0  0
   58.6280   31.0700   50.5270 C   0  0  0  0  0  0  0  0  0  0  0  0
   58.8930   29.7050   49.4490 Cl  0  0  0  0  0  0  0  0  0  0  0  0
   54.7630   29.9360   51.4060 H   0  0  0  0  0  0  0  0  0  0  0  0
   52.4531   30.9586   54.1102 H   0  0  0  0  0  0  0  0  0  0  0  0
   50.3926   32.3268   53.7611 H   0  0  0  0  0  0  0  0  0  0  0  0
   53.0824   30.9280   49.8184 H   0  0  0  0  0  0  0  0  0  0  0  0
   55.0979   27.8582   55.5310 H   0  0  0  0  0  0  0  0  0  0  0  0
   57.3374   26.8832   56.0154 H   0  0  0  0  0  0  0  0  0  0  0  0
   58.9261   28.7265   52.4456 H   0  0  0  0  0  0  0  0  0  0  0  0
   56.5261   32.3187   52.9303 H   0  0  0  0  0  0  0  0  0  0  0  0
   59.8638   34.2333   50.9684 H   0  0  0  0  0  0  0  0  0  0  0  0
   60.2492   32.1795   49.6096 H   0  0  0  0  0  0  0  0  0  0  0  0
  1  2  2  0
  2  3  1  0
  3  4  1  0
  4  5  1  0
  5  6  2  0
  6  7  1  0
  7  8  1  0
  8  9  2  0
  8 10  1  0
  2 11  1  0
 11 12  2  0
 12 13  1  0
 13 14  2  0
 14 15  1  0
 14 16  1  0
 16 17  2  0
 17 18  1  0
 18 19  1  0
 19 20  2  0
 20 21  1  0
 21 22  1  0
 21 23  2  0
 23 24  1  0
 24 25  2  0
 25 26  1  0
 10  4  2  0
 17 11  1  0
 25 19  1  0
  3 27  1  0
  5 28  1  0
  6 29  1  0
 10 30  1  0
 12 31  1  0
 13 32  1  0
 16 33  1  0
 20 34  1  0
 23 35  1  0
 24 36  1  0
M  CHG  1   7  -1
M  END
>  <UniqueID>  (34) 
29

>  <SMILES>  (34) 
O=C(Nc1cc[n-]c(=O)c1)c1ccc(Cl)cc1Oc1cc(F)ccc1Cl

>  <Energy>  (34) 
55.30244400392673

>  <Genealogy>  (34) 
O=C(Nc1cc[n-]c(=O)c1)c1ccc(Cl)cc1Oc1cc(F)ccc1Cl (protonated)
O=C(Nc1cc[n-]c(=O)c1)c1ccc(Cl)cc1Oc1cc(F)ccc1Cl (3D coordinates assigned)
O=C(Nc1cc[n-]c(=O)c1)c1ccc(Cl)cc1Oc1cc(F)ccc1Cl (optimized conformer: 55.30244400392673 kcal/mol)

>  <smiles>  (34) 
O=C(Nc1cc[nH]c(=O)c1)c1ccc(Cl)cc1Oc1cc(F)ccc1Cl

>  <score_type>  (34) 
oracle

>  <origin>  (34) 
adg

>  <m_score__min__energy>  (34) 
-10.08

>  <m_primary>  (34) 
energy

$$$$
34:0
     RDKit          3D

 36 38  0  0  0  0  0  0  0  0999 V2000
   59.7850   35.6930   45.9990 C   0  0  0  0  0  0  0  0  0  0  0  0
   58.8560   34.5900   45.5860 C   0  0  0  0  0  0  0  0  0  0  0  0
   57.8570   34.1420   46.4630 C   0  0  0  0  0  0  0  0  0  0  0  0
   57.0150   33.0880   46.0930 C   0  0  0  0  0  0  0  0  0  0  0  0
   57.1580   32.4730   44.8430 C   0  0  0  0  0  0  0  0  0  0  0  0
   56.2990   31.3740   44.5070 N   0  0  0  0  0  0  0  0  0  0  0  0
   56.5590   29.9940   44.7870 C   0  0  0  0  0  0  0  0  0  0  0  0
   55.5910   29.2400   45.0740 O   0  0  0  0  0  0  0  0  0  0  0  0
   57.8880   29.4580   44.6920 N   0  0  0  0  0  0  0  0  0  0  0  0
   58.2100   28.1410   45.1600 C   0  0  0  0  0  0  0  0  0  0  0  0
   57.7800   27.0400   44.4080 C   0  0  0  0  0  0  0  0  0  0  0  0
   58.0910   25.7410   44.8090 C   0  0  0  0  0  0  0  0  0  0  0  0
   58.8280   25.5220   45.9730 C   0  0  0  0  0  0  0  0  0  0  0  0
   59.2460   26.6060   46.7580 C   0  0  0  0  0  0  0  0  0  0  0  0
   59.9680   26.3840   47.9420 C   0  0  0  0  0  0  0  0  0  0  0  0
   60.3620   27.4610   48.7380 C   0  0  0  0  0  0  0  0  0  0  0  0
   60.0350   28.7650   48.3640 C   0  0  0  0  0  0  0  0  0  0  0  0
   59.3200   29.0040   47.1870 C   0  0  0  0  0  0  0  0  0  0  0  0
   58.9300   27.9320   46.3600 C   0  0  0  0  0  0  0  0  0  0  0  0
   58.1870   32.8920   43.9820 C   0  0  0  0  0  0  0  0  0  0  0  0
   59.0290   33.9460   44.3520 C   0  0  0  0  0  0  0  0  0  0  0  0
   59.8281   35.7442   47.0970 H   0  0  0  0  0  0  0  0  0  0  0  0
   60.7910   35.4932   45.6014 H   0  0  0  0  0  0  0  0  0  0  0  0
   59.4171   36.6504   45.6014 H   0  0  0  0  0  0  0  0  0  0  0  0
   57.7353   34.6214   47.4455 H   0  0  0  0  0  0  0  0  0  0  0  0
   56.2362   32.7403   46.7877 H   0  0  0  0  0  0  0  0  0  0  0  0
   58.6770   30.0810   44.4140 H   0  0  0  0  0  0  0  0  0  0  0  0
   57.1916   27.2016   43.4928 H   0  0  0  0  0  0  0  0  0  0  0  0
   57.7538   24.8857   44.2050 H   0  0  0  0  0  0  0  0  0  0  0  0
   59.0821   24.4955   46.2760 H   0  0  0  0  0  0  0  0  0  0  0  0
   60.2240   25.3575   48.2433 H   0  0  0  0  0  0  0  0  0  0  0  0
   60.9314   27.2814   49.6619 H   0  0  0  0  0  0  0  0  0  0  0  0
   60.3416   29.6094   48.9989 H   0  0  0  0  0  0  0  0  0  0  0  0
   59.0603   30.0350   46.9047 H   0  0  0  0  0  0  0  0  0  0  0  0
   58.3306   32.3894   43.0141 H   0  0  0  0  0  0  0  0  0  0  0  0
   59.8303   34.2712   43.6722 H   0  0  0  0  0  0  0  0  0  0  0  0
  1  2  1  0
  2  3  2  0
  3  4  1  0
  4  5  2  0
  5  6  1  0
  6  7  1  0
  7  8  2  0
  7  9  1  0
  9 10  1  0
 10 11  2  0
 11 12  1  0
 12 13  2  0
 13 14  1  0
 14 15  2  0
 15 16  1  0
 16 17  2  0
 17 18  1  0
 18 19  2  0
  5 20  1  0
 20 21  2  0
 21  2  1  0
 19 10  1  0
 19 14  1  0
  1 22  1  0
  1 23  1  0
  1 24  1  0
  3 25  1  0
  4 26  1  0
  9 27  1  0
 11 28  1  0
 12 29  1  0
 13 30  1  0
 15 31  1  0
 16 32  1  0
 17 33  1  0
 18 34  1  0
 20 35  1  0
 21 36  1  0
M  CHG  1   6  -1
M  END
>  <UniqueID>  (35) 
30

>  <SMILES>  (35) 
Cc1ccc([N-]C(=O)Nc2cccc3ccccc23)cc1

>  <Energy>  (35) 
52.29666984070165

>  <Genealogy>  (35) 
Cc1ccc([N-]C(=O)Nc2cccc3ccccc23)cc1 (protonated)
Cc1ccc([N-]C(=O)Nc2cccc3ccccc23)cc1 (3D coordinates assigned)
Cc1ccc([N-]C(=O)Nc2cccc3ccccc23)cc1 (optimized conformer: 52.29666984070165 kcal/mol)

>  <smiles>  (35) 
Cc1ccc(NC(=O)Nc2cccc3ccccc23)cc1

>  <score_type>  (35) 
oracle

>  <origin>  (35) 
adg

>  <m_score__min__energy>  (35) 
-9.1300000000000008

>  <m_primary>  (35) 
energy

$$$$
35:0
     RDKit          3D

 41 42  0  0  0  0  0  0  0  0999 V2000
   63.5050   33.1380   47.1180 C   0  0  0  0  0  0  0  0  0  0  0  0
   62.2810   33.6050   47.7820 N   0  0  0  0  0  0  0  0  0  0  0  0
   62.3830   34.1960   49.1220 C   0  0  0  0  0  0  0  0  0  0  0  0
   60.9950   33.4930   47.1200 C   0  0  0  0  0  0  0  0  0  0  0  0
   60.3000   32.2650   47.0920 C   0  0  0  0  0  0  0  0  0  0  0  0
   59.0660   32.1550   46.4460 C   0  0  0  0  0  0  0  0  0  0  0  0
   58.4950   33.2660   45.8130 C   0  0  0  0  0  0  0  0  0  0  0  0
   57.1850   33.1300   45.0840 C   0  0  0  0  0  0  0  0  0  0  0  0
   56.6570   31.7690   45.2060 N   0  0  0  0  0  0  0  0  0  0  0  0
   57.2270   30.7440   43.9180 S   0  0  0  0  0  0  0  0  0  0  0  0
   58.2660   31.4730   43.1110 O   0  0  0  0  0  0  0  0  0  0  0  0
   56.0720   30.4030   43.0200 O   0  0  0  0  0  0  0  0  0  0  0  0
   57.8920   29.2500   44.5710 C   0  0  0  0  0  0  0  0  0  0  0  0
   59.2740   29.0930   44.7320 C   0  0  0  0  0  0  0  0  0  0  0  0
   59.7880   27.9120   45.2700 C   0  0  0  0  0  0  0  0  0  0  0  0
   58.9290   26.8750   45.6520 C   0  0  0  0  0  0  0  0  0  0  0  0
   59.6410   25.4010   46.2980 Cl  0  0  0  0  0  0  0  0  0  0  0  0
   57.5350   27.0260   45.5010 C   0  0  0  0  0  0  0  0  0  0  0  0
   56.4200   25.7440   45.9880 S   0  0  0  0  0  0  0  0  0  0  0  0
   54.7850   26.3110   45.9840 N   0  0  0  0  0  0  0  0  0  0  0  0
   56.7650   25.2760   47.3740 O   0  0  0  0  0  0  0  0  0  0  0  0
   56.5350   24.5950   45.0270 O   0  0  0  0  0  0  0  0  0  0  0  0
   57.0300   28.2120   44.9460 C   0  0  0  0  0  0  0  0  0  0  0  0
   59.1690   34.4950   45.8460 C   0  0  0  0  0  0  0  0  0  0  0  0
   60.4050   34.6070   46.4870 C   0  0  0  0  0  0  0  0  0  0  0  0
   64.2486   32.8543   47.8773 H   0  0  0  0  0  0  0  0  0  0  0  0
   63.2714   32.2658   46.4897 H   0  0  0  0  0  0  0  0  0  0  0  0
   63.9117   33.9441   46.4897 H   0  0  0  0  0  0  0  0  0  0  0  0
   62.2475   33.4108   49.8803 H   0  0  0  0  0  0  0  0  0  0  0  0
   63.3740   34.6573   49.2448 H   0  0  0  0  0  0  0  0  0  0  0  0
   61.6039   34.9628   49.2448 H   0  0  0  0  0  0  0  0  0  0  0  0
   60.7353   31.3833   47.5850 H   0  0  0  0  0  0  0  0  0  0  0  0
   58.5395   31.1893   46.4346 H   0  0  0  0  0  0  0  0  0  0  0  0
   56.4595   33.8373   45.5122 H   0  0  0  0  0  0  0  0  0  0  0  0
   57.3517   33.3478   44.0187 H   0  0  0  0  0  0  0  0  0  0  0  0
   59.9565   29.9025   44.4337 H   0  0  0  0  0  0  0  0  0  0  0  0
   60.8747   27.7956   45.3945 H   0  0  0  0  0  0  0  0  0  0  0  0
   54.7200   27.0640   46.7050 H   0  0  0  0  0  0  0  0  0  0  0  0
   55.9453   28.3275   44.8040 H   0  0  0  0  0  0  0  0  0  0  0  0
   58.7215   35.3767   45.3640 H   0  0  0  0  0  0  0  0  0  0  0  0
   60.9249   35.5763   46.4983 H   0  0  0  0  0  0  0  0  0  0  0  0
  1  2  1  0
  2  3  1  0
  2  4  1  0
  4  5  2  0
  5  6  1  0
  6  7  2  0
  7  8  1  0
  8  9  1  0
  9 10  1  0
 10 11  2  0
 10 12  2  0
 10 13  1  0
 13 14  2  0
 14 15  1  0
 15 16  2  0
 16 17  1  0
 16 18  1  0
 18 19  1  0
 19 20  1  0
 19 21  2  0
 19 22  2  0
 18 23  2  0
  7 24  1  0
 24 25  2  0
 25  4  1  0
 23 13  1  0
  1 26  1  0
  1 27  1  0
  1 28  1  0
  3 29  1  0
  3 30  1  0
  3 31  1  0
  5 32  1  0
  6 33  1  0
  8 34  1  0
  8 35  1  0
 14 36  1  0
 15 37  1  0
 20 38  1  0
 23 39  1  0
 24 40  1  0
 25 41  1  0
M  CHG  2   9  -1  20  -1
M  END
>  <UniqueID>  (36) 
31

>  <SMILES>  (36) 
CN(C)c1ccc(C[N-]S(=O)(=O)c2ccc(Cl)c(S([NH-])(=O)=O)c2)cc1

>  <Energy>  (36) 
36.36332839253302

>  <Genealogy>  (36) 
CN(C)c1ccc(C[N-]S(=O)(=O)c2ccc(Cl)c(S([NH-])(=O)=O)c2)cc1 (protonated)
CN(C)c1ccc(C[N-]S(=O)(=O)c2ccc(Cl)c(S([NH-])(=O)=O)c2)cc1 (3D coordinates assigned)
CN(C)c1ccc(C[N-]S(=O)(=O)c2ccc(Cl)c(S([NH-])(=O)=O)c2)cc1 (optimized conformer: 36.36332839253302 kcal/mol)

>  <smiles>  (36) 
CN(C)c1ccc(CNS(=O)(=O)c2ccc(Cl)c(S(N)(=O)=O)c2)cc1

>  <score_type>  (36) 
oracle

>  <origin>  (36) 
adg

>  <m_score__min__energy>  (36) 
-13.35

>  <m_primary>  (36) 
energy

$$$$
36:0
     RDKit          3D

 50 52  0  0  0  0  0  0  0  0999 V2000
   59.3820   33.2640   50.4740 O   0  0  0  0  0  0  0  0  0  0  0  0
   58.6270   32.4840   49.8330 C   0  0  0  0  0  0  0  0  0  0  0  0
   58.1480   31.2190   50.4710 C   0  0  0  0  0  0  0  0  0  0  0  0
   59.0470   30.0740   50.0860 C   0  0  0  0  0  0  0  0  0  0  0  0
   60.0760   29.6540   50.9460 C   0  0  0  0  0  0  0  0  0  0  0  0
   60.9310   28.6150   50.5670 C   0  0  0  0  0  0  0  0  0  0  0  0
   60.7760   27.9990   49.3210 C   0  0  0  0  0  0  0  0  0  0  0  0
   59.7640   28.4200   48.4550 C   0  0  0  0  0  0  0  0  0  0  0  0
   58.9000   29.4530   48.8340 C   0  0  0  0  0  0  0  0  0  0  0  0
   58.2000   32.8120   48.5080 N   0  0  0  0  0  0  0  0  0  0  0  0
   58.8680   32.3360   47.2990 C   0  0  1  0  0  0  0  0  0  0  0  0
   57.8180   31.8900   46.2690 C   0  0  0  0  0  0  0  0  0  0  0  0
   58.4280   31.2110   45.1720 O   0  0  0  0  0  0  0  0  0  0  0  0
   57.7930   30.2040   44.4340 C   0  0  0  0  0  0  0  0  0  0  0  0
   57.4120   30.4380   43.2540 O   0  0  0  0  0  0  0  0  0  0  0  0
   57.5690   28.8620   45.0330 C   0  0  0  0  0  0  0  0  0  0  0  0
   58.6740   28.0660   45.3900 C   0  0  0  0  0  0  0  0  0  0  0  0
   58.4900   26.8010   45.9510 C   0  0  0  0  0  0  0  0  0  0  0  0
   57.2020   26.3080   46.1630 C   0  0  0  0  0  0  0  0  0  0  0  0
   57.0280   25.0480   46.7220 O   0  0  0  0  0  0  0  0  0  0  0  0
   56.0920   27.0810   45.8110 C   0  0  0  0  0  0  0  0  0  0  0  0
   54.8100   26.5840   46.0160 O   0  0  0  0  0  0  0  0  0  0  0  0
   56.2670   28.3540   45.2480 C   0  0  0  0  0  0  0  0  0  0  0  0
   55.1400   29.0940   44.9060 O   0  0  0  0  0  0  0  0  0  0  0  0
   59.7590   33.4560   46.7340 C   0  0  0  0  0  0  0  0  0  0  0  0
   61.1100   33.4670   47.4050 C   0  0  0  0  0  0  0  0  0  0  0  0
   62.1530   32.6700   46.9050 C   0  0  0  0  0  0  0  0  0  0  0  0
   63.3920   32.6440   47.5530 C   0  0  0  0  0  0  0  0  0  0  0  0
   63.5980   33.4110   48.7030 C   0  0  0  0  0  0  0  0  0  0  0  0
   62.5650   34.2040   49.2080 C   0  0  0  0  0  0  0  0  0  0  0  0
   61.3210   34.2260   48.5680 C   0  0  0  0  0  0  0  0  0  0  0  0
   58.1567   31.3369   51.5646 H   0  0  0  0  0  0  0  0  0  0  0  0
   57.1253   31.0061   50.1262 H   0  0  0  0  0  0  0  0  0  0  0  0
   60.2092   30.1448   51.9214 H   0  0  0  0  0  0  0  0  0  0  0  0
   61.7266   28.2815   51.2495 H   0  0  0  0  0  0  0  0  0  0  0  0
   61.4509   27.1831   49.0230 H   0  0  0  0  0  0  0  0  0  0  0  0
   59.6462   27.9383   47.4731 H   0  0  0  0  0  0  0  0  0  0  0  0
   58.1032   29.7801   48.1499 H   0  0  0  0  0  0  0  0  0  0  0  0
   59.5041   31.4707   47.5368 H   0  0  0  0  0  0  0  0  0  0  0  0
   57.1017   31.2126   46.7569 H   0  0  0  0  0  0  0  0  0  0  0  0
   57.3055   32.7840   45.8842 H   0  0  0  0  0  0  0  0  0  0  0  0
   59.6934   28.4450   45.2251 H   0  0  0  0  0  0  0  0  0  0  0  0
   59.3629   26.1911   46.2267 H   0  0  0  0  0  0  0  0  0  0  0  0
   59.8956   33.2960   45.6543 H   0  0  0  0  0  0  0  0  0  0  0  0
   59.2676   34.4218   46.9231 H   0  0  0  0  0  0  0  0  0  0  0  0
   61.9947   32.0642   46.0006 H   0  0  0  0  0  0  0  0  0  0  0  0
   64.2058   32.0188   47.1569 H   0  0  0  0  0  0  0  0  0  0  0  0
   64.5737   33.3902   49.2105 H   0  0  0  0  0  0  0  0  0  0  0  0
   62.7297   34.8119   50.1099 H   0  0  0  0  0  0  0  0  0  0  0  0
   60.5051   34.8400   48.9771 H   0  0  0  0  0  0  0  0  0  0  0  0
  1  2  2  0
  2  3  1  0
  3  4  1  0
  4  5  2  0
  5  6  1  0
  6  7  2  0
  7  8  1  0
  8  9  2  0
  2 10  1  0
 10 11  1  0
 11 12  1  0
 12 13  1  0
 13 14  1  0
 14 15  2  0
 14 16  1  0
 16 17  2  0
 17 18  1  0
 18 19  2  0
 19 20  1  0
 19 21  1  0
 21 22  1  0
 21 23  2  0
 23 24  1  0
 11 25  1  0
 25 26  1  0
 26 27  2  0
 27 28  1  0
 28 29  2  0
 29 30  1  0
 30 31  2  0
  9  4  1  0
 23 16  1  0
 31 26  1  0
  3 32  1  0
  3 33  1  0
  5 34  1  0
  6 35  1  0
  7 36  1  0
  8 37  1  0
  9 38  1  0
 11 39  1  1
 12 40  1  0
 12 41  1  0
 17 42  1  0
 18 43  1  0
 25 44  1  0
 25 45  1  0
 27 46  1  0
 28 47  1  0
 29 48  1  0
 30 49  1  0
 31 50  1  0
M  CHG  4  10  -1  20  -1  22  -1  24  -1
M  END
>  <UniqueID>  (37) 
32

>  <SMILES>  (37) 
O=C(Cc1ccccc1)[N-][C@@H](COC(=O)c1ccc([O-])c([O-])c1[O-])Cc1ccccc1

>  <Energy>  (37) 
43.836426253120905

>  <Genealogy>  (37) 
O=C(Cc1ccccc1)[N-]C(COC(=O)c1ccc([O-])c([O-])c1[O-])Cc1ccccc1 (protonated)
O=C(Cc1ccccc1)[N-][C@@H](COC(=O)c1ccc([O-])c([O-])c1[O-])Cc1ccccc1 (chirality)
O=C(Cc1ccccc1)[N-][C@@H](COC(=O)c1ccc([O-])c([O-])c1[O-])Cc1ccccc1 (3D coordinates assigned)
O=C(Cc1ccccc1)[N-][C@@H](COC(=O)c1ccc([O-])c([O-])c1[O-])Cc1ccccc1 (optimized conformer: 43.836426253120905 kcal/mol)

>  <smiles>  (37) 
O=C(Cc1ccccc1)NC(COC(=O)c1ccc(O)c(O)c1O)Cc1ccccc1

>  <score_type>  (37) 
oracle

>  <origin>  (37) 
adg

>  <m_score__min__energy>  (37) 
-18.359999999999999

>  <m_primary>  (37) 
energy

$$$$
37:0
     RDKit          3D

 59 61  0  0  0  0  0  0  0  0999 V2000
   57.6370   34.1930   44.8840 C   0  0  0  0  0  0  0  0  0  0  0  0
   56.8110   33.0950   45.5550 C   0  0  0  0  0  0  0  0  0  0  0  0
   57.3830   31.7490   45.3130 N   0  0  0  0  0  0  0  0  0  0  0  0
   56.8400   31.1330   44.0730 C   0  0  0  0  0  0  0  0  0  0  0  0
   56.2480   29.7620   44.3830 C   0  0  0  0  0  0  0  0  0  0  0  0
   58.8630   31.8250   45.2720 C   0  0  0  0  0  0  0  0  0  0  0  0
   59.4320   32.2820   46.6230 C   0  0  0  0  0  0  0  0  0  0  0  0
   60.3870   31.2420   47.2230 C   0  0  0  0  0  0  0  0  0  0  0  0
   60.4960   30.1060   46.3630 O   0  0  0  0  0  0  0  0  0  0  0  0
   59.6910   28.9570   46.4140 C   0  0  0  0  0  0  0  0  0  0  0  0
   59.2350   28.2950   45.2610 C   0  0  0  0  0  0  0  0  0  0  0  0
   58.4330   27.1550   45.3720 C   0  0  0  0  0  0  0  0  0  0  0  0
   58.0580   26.6600   46.6330 C   0  0  0  0  0  0  0  0  0  0  0  0
   57.2070   25.4460   46.7150 C   0  0  0  0  0  0  0  0  0  0  0  0
   57.5580   24.3440   47.5180 C   0  0  0  0  0  0  0  0  0  0  0  0
   56.7140   23.2340   47.5650 C   0  0  0  0  0  0  0  0  0  0  0  0
   57.0240   22.2460   48.2860 O   0  0  0  0  0  0  0  0  0  0  0  0
   55.5280   23.2370   46.8120 C   0  0  0  0  0  0  0  0  0  0  0  0
   54.6340   22.1540   46.8180 C   0  0  0  0  0  0  0  0  0  0  0  0
   53.4510   22.2030   46.0530 C   0  0  0  0  0  0  0  0  0  0  0  0
   52.5320   21.1410   46.0330 O   0  0  0  0  0  0  0  0  0  0  0  0
   51.3200   21.1070   46.7820 C   0  0  0  0  0  0  0  0  0  0  0  0
   53.1660   23.3410   45.2810 C   0  0  0  0  0  0  0  0  0  0  0  0
   51.9780   23.3580   44.5320 O   0  0  0  0  0  0  0  0  0  0  0  0
   51.0880   24.4670   44.4530 C   0  0  0  0  0  0  0  0  0  0  0  0
   54.0650   24.4240   45.2750 C   0  0  0  0  0  0  0  0  0  0  0  0
   55.2370   24.3760   46.0350 C   0  0  0  0  0  0  0  0  0  0  0  0
   56.0700   25.4120   46.0200 O   0  0  0  0  0  0  0  0  0  0  0  0
   58.5220   27.3240   47.7840 C   0  0  0  0  0  0  0  0  0  0  0  0
   59.3250   28.4630   47.6700 C   0  0  0  0  0  0  0  0  0  0  0  0
   58.1087   34.8200   45.6550 H   0  0  0  0  0  0  0  0  0  0  0  0
   58.4160   33.7345   44.2571 H   0  0  0  0  0  0  0  0  0  0  0  0
   56.9805   34.8144   44.2571 H   0  0  0  0  0  0  0  0  0  0  0  0
   56.7852   33.2811   46.6388 H   0  0  0  0  0  0  0  0  0  0  0  0
   55.7987   33.1182   45.1252 H   0  0  0  0  0  0  0  0  0  0  0  0
   56.0552   31.7825   43.6580 H   0  0  0  0  0  0  0  0  0  0  0  0
   57.6547   31.0160   43.3432 H   0  0  0  0  0  0  0  0  0  0  0  0
   56.1892   29.6259   45.4730 H   0  0  0  0  0  0  0  0  0  0  0  0
   55.2393   29.6917   43.9498 H   0  0  0  0  0  0  0  0  0  0  0  0
   56.8885   28.9796   43.9498 H   0  0  0  0  0  0  0  0  0  0  0  0
   59.2670   30.8309   45.0301 H   0  0  0  0  0  0  0  0  0  0  0  0
   59.1535   32.5582   44.5052 H   0  0  0  0  0  0  0  0  0  0  0  0
   59.9791   33.2251   46.4777 H   0  0  0  0  0  0  0  0  0  0  0  0
   58.5911   32.4145   47.3197 H   0  0  0  0  0  0  0  0  0  0  0  0
   61.3810   31.6952   47.3514 H   0  0  0  0  0  0  0  0  0  0  0  0
   59.9903   30.9147   48.1954 H   0  0  0  0  0  0  0  0  0  0  0  0
   59.5104   28.6756   44.2664 H   0  0  0  0  0  0  0  0  0  0  0  0
   58.0916   26.6397   44.4621 H   0  0  0  0  0  0  0  0  0  0  0  0
   58.4894   24.3581   48.1031 H   0  0  0  0  0  0  0  0  0  0  0  0
   54.8580   21.2629   47.4228 H   0  0  0  0  0  0  0  0  0  0  0  0
   51.5530   21.1135   47.8570 H   0  0  0  0  0  0  0  0  0  0  0  0
   50.7106   21.9884   46.5335 H   0  0  0  0  0  0  0  0  0  0  0  0
   50.7609   20.1928   46.5335 H   0  0  0  0  0  0  0  0  0  0  0  0
   50.8229   24.7974   45.4682 H   0  0  0  0  0  0  0  0  0  0  0  0
   51.5773   25.2922   43.9149 H   0  0  0  0  0  0  0  0  0  0  0  0
   50.1764   24.1679   43.9149 H   0  0  0  0  0  0  0  0  0  0  0  0
   53.8437   25.3143   44.6680 H   0  0  0  0  0  0  0  0  0  0  0  0
   58.2510   26.9443   48.7802 H   0  0  0  0  0  0  0  0  0  0  0  0
   59.6728   28.9763   48.5786 H   0  0  0  0  0  0  0  0  0  0  0  0
  1  2  1  0
  2  3  1  0
  3  4  1  0
  4  5  1  0
  3  6  1  0
  6  7  1  0
  7  8  1  0
  8  9  1  0
  9 10  1  0
 10 11  2  0
 11 12  1  0
 12 13  2  0
 13 14  1  0
 14 15  2  0
 15 16  1  0
 16 17  2  0
 16 18  1  0
 18 19  2  0
 19 20  1  0
 20 21  1  0
 21 22  1  0
 20 23  2  0
 23 24  1  0
 24 25  1  0
 23 26  1  0
 26 27  2  0
 27 28  1  0
 13 29  1  0
 29 30  2  0
 30 10  1  0
 28 14  1  0
 27 18  1  0
  1 31  1  0
  1 32  1  0
  1 33  1  0
  2 34  1  0
  2 35  1  0
  4 36  1  0
  4 37  1  0
  5 38  1  0
  5 39  1  0
  5 40  1  0
  6 41  1  0
  6 42  1  0
  7 43  1  0
  7 44  1  0
  8 45  1  0
  8 46  1  0
 11 47  1  0
 12 48  1  0
 15 49  1  0
 19 50  1  0
 22 51  1  0
 22 52  1  0
 22 53  1  0
 25 54  1  0
 25 55  1  0
 25 56  1  0
 26 57  1  0
 29 58  1  0
 30 59  1  0
M  END
>  <UniqueID>  (38) 
33

>  <SMILES>  (38) 
CCN(CC)CCCOc1ccc(-c2cc(=O)c3cc(OC)c(OC)cc3o2)cc1

>  <Energy>  (38) 
65.33999979421851

>  <Genealogy>  (38) 
CCN(CC)CCCOc1ccc(-c2cc(=O)c3cc(OC)c(OC)cc3o2)cc1 (3D coordinates assigned)
CCN(CC)CCCOc1ccc(-c2cc(=O)c3cc(OC)c(OC)cc3o2)cc1 (optimized conformer: 65.33999979421851 kcal/mol)

>  <smiles>  (38) 
CCN(CC)CCCOc1ccc(-c2cc(=O)c3cc(OC)c(OC)cc3o2)cc1

>  <score_type>  (38) 
oracle

>  <origin>  (38) 
adg

>  <m_score__min__energy>  (38) 
-7.1200000000000001

>  <m_primary>  (38) 
energy

$$$$
38:0
     RDKit          3D

 41 43  0  0  0  0  0  0  0  0999 V2000
   55.5300   30.0660   43.8830 C   0  0  0  0  0  0  0  0  0  0  0  0
   56.6480   30.2100   44.8330 N   0  0  0  0  0  0  0  0  0  0  0  0
   57.0370   28.9210   45.4480 C   0  0  0  0  0  0  0  0  0  0  0  0
   58.5360   28.5890   45.3170 C   0  0  0  0  0  0  0  0  0  0  0  0
   59.2980   29.1830   46.4630 C   0  0  0  0  0  0  0  0  0  0  0  0
   59.2440   28.6710   47.7560 C   0  0  0  0  0  0  0  0  0  0  0  0
   60.2980   29.5710   48.7040 S   0  0  0  0  0  0  0  0  0  0  0  0
   60.7880   30.5690   47.4340 C   0  0  0  0  0  0  0  0  0  0  0  0
   61.7770   31.6670   47.5250 C   0  0  0  0  0  0  0  0  0  0  0  0
   61.6070   32.8360   46.7610 C   0  0  0  0  0  0  0  0  0  0  0  0
   62.5350   33.8790   46.8440 C   0  0  0  0  0  0  0  0  0  0  0  0
   63.6410   33.7670   47.6880 C   0  0  0  0  0  0  0  0  0  0  0  0
   63.8230   32.6110   48.4500 C   0  0  0  0  0  0  0  0  0  0  0  0
   62.8980   31.5650   48.3700 C   0  0  0  0  0  0  0  0  0  0  0  0
   60.1590   30.2230   46.2870 N   0  0  0  0  0  0  0  0  0  0  0  0
   57.7930   30.9290   44.2360 C   0  0  0  0  0  0  0  0  0  0  0  0
   58.0390   32.2180   44.9740 C   0  0  0  0  0  0  0  0  0  0  0  0
   58.5180   33.3430   44.2860 C   0  0  0  0  0  0  0  0  0  0  0  0
   58.7590   34.5260   44.9870 C   0  0  0  0  0  0  0  0  0  0  0  0
   58.5360   34.5830   46.3280 N   0  0  0  0  0  0  0  0  0  0  0  0
   58.0790   33.5050   47.0200 C   0  0  0  0  0  0  0  0  0  0  0  0
   57.8250   32.3020   46.3570 C   0  0  0  0  0  0  0  0  0  0  0  0
   54.5891   29.9448   44.4397 H   0  0  0  0  0  0  0  0  0  0  0  0
   55.4686   30.9637   43.2502 H   0  0  0  0  0  0  0  0  0  0  0  0
   55.6981   29.1821   43.2502 H   0  0  0  0  0  0  0  0  0  0  0  0
   56.7835   28.9581   46.5178 H   0  0  0  0  0  0  0  0  0  0  0  0
   56.4893   28.1340   44.9089 H   0  0  0  0  0  0  0  0  0  0  0  0
   58.6682   27.4970   45.3194 H   0  0  0  0  0  0  0  0  0  0  0  0
   58.9167   29.0104   44.3750 H   0  0  0  0  0  0  0  0  0  0  0  0
   58.6231   27.8289   48.0956 H   0  0  0  0  0  0  0  0  0  0  0  0
   60.7378   32.9304   46.0935 H   0  0  0  0  0  0  0  0  0  0  0  0
   62.3930   34.7893   46.2430 H   0  0  0  0  0  0  0  0  0  0  0  0
   64.3690   34.5890   47.7529 H   0  0  0  0  0  0  0  0  0  0  0  0
   64.6953   32.5229   49.1143 H   0  0  0  0  0  0  0  0  0  0  0  0
   63.0476   30.6563   48.9716 H   0  0  0  0  0  0  0  0  0  0  0  0
   58.6914   30.2973   44.2985 H   0  0  0  0  0  0  0  0  0  0  0  0
   57.5658   31.1554   43.1838 H   0  0  0  0  0  0  0  0  0  0  0  0
   58.7022   33.2933   43.2027 H   0  0  0  0  0  0  0  0  0  0  0  0
   59.1300   35.4139   44.4541 H   0  0  0  0  0  0  0  0  0  0  0  0
   57.9090   33.5806   48.1042 H   0  0  0  0  0  0  0  0  0  0  0  0
   57.4600   31.4275   46.9156 H   0  0  0  0  0  0  0  0  0  0  0  0
  1  2  1  0
  2  3  1  0
  3  4  1  0
  4  5  1  0
  5  6  2  0
  6  7  1  0
  7  8  1  0
  8  9  1  0
  9 10  2  0
 10 11  1  0
 11 12  2  0
 12 13  1  0
 13 14  2  0
  8 15  2  0
  2 16  1  0
 16 17  1  0
 17 18  2  0
 18 19  1  0
 19 20  2  0
 20 21  1  0
 21 22  2  0
 15  5  1  0
 22 17  1  0
 14  9  1  0
  1 23  1  0
  1 24  1  0
  1 25  1  0
  3 26  1  0
  3 27  1  0
  4 28  1  0
  4 29  1  0
  6 30  1  0
 10 31  1  0
 11 32  1  0
 12 33  1  0
 13 34  1  0
 14 35  1  0
 16 36  1  0
 16 37  1  0
 18 38  1  0
 19 39  1  0
 21 40  1  0
 22 41  1  0
M  END
>  <UniqueID>  (39) 
34

>  <SMILES>  (39) 
CN(CCc1csc(-c2ccccc2)n1)Cc1ccncc1

>  <Energy>  (39) 
74.92966654714

>  <Genealogy>  (39) 
CN(CCc1csc(-c2ccccc2)n1)Cc1ccncc1 (3D coordinates assigned)
CN(CCc1csc(-c2ccccc2)n1)Cc1ccncc1 (optimized conformer: 74.92966654714 kcal/mol)

>  <smiles>  (39) 
CN(CCc1csc(-c2ccccc2)n1)Cc1ccncc1

>  <score_type>  (39) 
oracle

>  <origin>  (39) 
adg

>  <m_score__min__energy>  (39) 
-7.1799999999999997

>  <m_primary>  (39) 
energy

$$$$
39:0
     RDKit          3D

 38 39  0  0  0  0  0  0  0  0999 V2000
   55.6310   28.9120   45.2210 N   0  0  0  0  0  0  0  0  0  0  0  0
   56.7960   29.7260   45.0770 C   0  0  0  0  0  0  0  0  0  0  0  0
   56.9900   30.3420   43.9940 O   0  0  0  0  0  0  0  0  0  0  0  0
   57.8080   29.7650   46.1890 C   0  0  0  0  0  0  0  0  0  0  0  0
   58.0980   31.1760   46.6600 C   0  0  0  0  0  0  0  0  0  0  0  0
   58.0480   32.2170   45.7120 C   0  0  0  0  0  0  0  0  0  0  0  0
   58.2980   33.5380   46.0890 C   0  0  0  0  0  0  0  0  0  0  0  0
   58.6210   33.8360   47.4130 C   0  0  0  0  0  0  0  0  0  0  0  0
   58.6830   32.8170   48.3630 C   0  0  0  0  0  0  0  0  0  0  0  0
   58.4000   31.4890   48.0110 C   0  0  0  0  0  0  0  0  0  0  0  0
   58.5230   30.2370   49.3070 S   0  0  0  0  0  0  0  0  0  0  0  0
   58.4570   31.4170   50.6690 C   0  0  0  0  0  0  0  0  0  0  0  0
   59.5500   32.2710   50.8700 C   0  0  0  0  0  0  0  0  0  0  0  0
   59.5300   33.2190   51.8970 C   0  0  0  0  0  0  0  0  0  0  0  0
   58.4140   33.3190   52.7300 C   0  0  0  0  0  0  0  0  0  0  0  0
   57.3120   32.4850   52.5280 C   0  0  0  0  0  0  0  0  0  0  0  0
   57.3240   31.5270   51.4980 C   0  0  0  0  0  0  0  0  0  0  0  0
   56.1760   30.7000   51.2530 N   0  0  0  0  0  0  0  0  0  0  0  0
   54.9170   30.8130   51.9290 C   0  0  0  0  0  0  0  0  0  0  0  0
   54.8230   30.5050   53.1460 O   0  0  0  0  0  0  0  0  0  0  0  0
   53.6940   31.1290   51.1770 C   0  0  0  0  0  0  0  0  0  0  0  0
   52.4810   31.3530   51.7080 C   0  0  0  0  0  0  0  0  0  0  0  0
   51.4730   32.3190   51.2170 C   0  0  0  0  0  0  0  0  0  0  0  0
   51.3830   32.6300   49.9980 O   0  0  0  0  0  0  0  0  0  0  0  0
   50.6510   32.9570   52.1420 O   0  0  0  0  0  0  0  0  0  0  0  0
   54.6840   29.3440   45.3150 H   0  0  0  0  0  0  0  0  0  0  0  0
   57.4219   29.1819   47.0381 H   0  0  0  0  0  0  0  0  0  0  0  0
   58.7468   29.3421   45.8018 H   0  0  0  0  0  0  0  0  0  0  0  0
   57.8094   31.9866   44.6632 H   0  0  0  0  0  0  0  0  0  0  0  0
   58.2403   34.3435   45.3422 H   0  0  0  0  0  0  0  0  0  0  0  0
   58.8269   34.8755   47.7079 H   0  0  0  0  0  0  0  0  0  0  0  0
   58.9571   33.0575   49.4008 H   0  0  0  0  0  0  0  0  0  0  0  0
   60.4302   32.1947   50.2146 H   0  0  0  0  0  0  0  0  0  0  0  0
   60.3921   33.8852   52.0487 H   0  0  0  0  0  0  0  0  0  0  0  0
   58.4026   34.0558   53.5467 H   0  0  0  0  0  0  0  0  0  0  0  0
   56.4296   32.5778   53.1781 H   0  0  0  0  0  0  0  0  0  0  0  0
   53.7801   31.1871   50.0819 H   0  0  0  0  0  0  0  0  0  0  0  0
   52.2102   30.7606   52.5944 H   0  0  0  0  0  0  0  0  0  0  0  0
  1  2  1  0
  2  3  2  0
  2  4  1  0
  4  5  1  0
  5  6  2  0
  6  7  1  0
  7  8  2  0
  8  9  1  0
  9 10  2  0
 10 11  1  0
 11 12  1  0
 12 13  2  0
 13 14  1  0
 14 15  2  0
 15 16  1  0
 16 17  2  0
 17 18  1  0
 18 19  1  0
 19 20  2  0
 19 21  1  0
 21 22  2  3
 22 23  1  0
 23 24  2  0
 23 25  1  0
 10  5  1  0
 17 12  1  0
  1 26  1  0
  4 27  1  0
  4 28  1  0
  6 29  1  0
  7 30  1  0
  8 31  1  0
  9 32  1  0
 13 33  1  0
 14 34  1  0
 15 35  1  0
 16 36  1  0
 21 37  1  0
 22 38  1  0
M  CHG  3   1  -1  18  -1  25  -1
M  END
>  <UniqueID>  (40) 
35

>  <SMILES>  (40) 
[NH-]C(=O)Cc1ccccc1Sc1ccccc1[N-]C(=O)C=CC(=O)[O-]

>  <Energy>  (40) 
44.291961605438566

>  <Genealogy>  (40) 
[NH-]C(=O)Cc1ccccc1Sc1ccccc1[N-]C(=O)C=CC(=O)[O-] (protonated)
[NH-]C(=O)Cc1ccccc1Sc1ccccc1[N-]C(=O)C=CC(=O)[O-] (3D coordinates assigned)
[NH-]C(=O)Cc1ccccc1Sc1ccccc1[N-]C(=O)C=CC(=O)[O-] (optimized conformer: 44.291961605438566 kcal/mol)

>  <smiles>  (40) 
NC(=O)Cc1ccccc1Sc1ccccc1NC(=O)C=CC(=O)O

>  <score_type>  (40) 
oracle

>  <origin>  (40) 
adg

>  <m_score__min__energy>  (40) 
-15.1

>  <m_primary>  (40) 
energy

$$$$
40:0
     RDKit          3D

 31 33  0  0  0  0  0  0  0  0999 V2000
   56.2320   31.2040   44.4910 N   0  0  0  0  0  0  0  0  0  0  0  0
   57.0560   31.8950   44.9190 C   0  0  0  0  0  0  0  0  0  0  0  0
   58.0820   32.7530   45.4500 C   0  0  0  0  0  0  0  0  0  0  0  0
   58.2370   34.0900   45.1550 C   0  0  0  0  0  0  0  0  0  0  0  0
   59.3420   34.5640   45.7590 N   0  0  0  0  0  0  0  0  0  0  0  0
   59.8990   33.5430   46.4430 C   0  0  0  0  0  0  0  0  0  0  0  0
   61.1110   33.6980   47.2790 C   0  0  0  0  0  0  0  0  0  0  0  0
   62.3910   33.4610   46.7450 C   0  0  0  0  0  0  0  0  0  0  0  0
   63.5270   33.6050   47.5470 C   0  0  0  0  0  0  0  0  0  0  0  0
   63.3970   33.9740   48.8890 C   0  0  0  0  0  0  0  0  0  0  0  0
   62.1280   34.1950   49.4310 C   0  0  0  0  0  0  0  0  0  0  0  0
   60.9890   34.0530   48.6330 C   0  0  0  0  0  0  0  0  0  0  0  0
   59.1400   32.3870   46.2680 C   0  0  0  0  0  0  0  0  0  0  0  0
   59.4460   31.0200   46.7480 C   0  0  0  0  0  0  0  0  0  0  0  0
   59.7900   30.0060   45.8390 C   0  0  0  0  0  0  0  0  0  0  0  0
   60.0800   28.7170   46.2960 C   0  0  0  0  0  0  0  0  0  0  0  0
   60.0240   28.4280   47.6610 C   0  0  0  0  0  0  0  0  0  0  0  0
   59.6770   29.4290   48.5730 C   0  0  0  0  0  0  0  0  0  0  0  0
   59.3870   30.7210   48.1200 C   0  0  0  0  0  0  0  0  0  0  0  0
   57.5594   34.6809   44.5212 H   0  0  0  0  0  0  0  0  0  0  0  0
   59.6850   35.5490   45.7150 H   0  0  0  0  0  0  0  0  0  0  0  0
   62.4983   33.1612   45.6921 H   0  0  0  0  0  0  0  0  0  0  0  0
   64.5255   33.4275   47.1210 H   0  0  0  0  0  0  0  0  0  0  0  0
   64.2923   34.0902   49.5175 H   0  0  0  0  0  0  0  0  0  0  0  0
   62.0251   34.4814   50.4881 H   0  0  0  0  0  0  0  0  0  0  0  0
   59.9923   34.2200   49.0673 H   0  0  0  0  0  0  0  0  0  0  0  0
   59.8314   30.2272   44.7623 H   0  0  0  0  0  0  0  0  0  0  0  0
   60.3529   27.9288   45.5788 H   0  0  0  0  0  0  0  0  0  0  0  0
   60.2528   27.4132   48.0185 H   0  0  0  0  0  0  0  0  0  0  0  0
   59.6318   29.2009   49.6481 H   0  0  0  0  0  0  0  0  0  0  0  0
   59.1119   31.5054   48.8404 H   0  0  0  0  0  0  0  0  0  0  0  0
  1  2  3  0
  2  3  1  0
  3  4  2  0
  4  5  1  0
  5  6  1  0
  6  7  1  0
  7  8  2  0
  8  9  1  0
  9 10  2  0
 10 11  1  0
 11 12  2  0
  6 13  2  0
 13 14  1  0
 14 15  2  0
 15 16  1  0
 16 17  2  0
 17 18  1  0
 18 19  2  0
 13  3  1  0
 19 14  1  0
 12  7  1  0
  4 20  1  0
  5 21  1  0
  8 22  1  0
  9 23  1  0
 10 24  1  0
 11 25  1  0
 12 26  1  0
 15 27  1  0
 16 28  1  0
 17 29  1  0
 18 30  1  0
 19 31  1  0
M  END
>  <UniqueID>  (41) 
36

>  <SMILES>  (41) 
N#Cc1c[nH]c(-c2ccccc2)c1-c1ccccc1

>  <Energy>  (41) 
68.06973973173908

>  <Genealogy>  (41) 
N#Cc1c[nH]c(-c2ccccc2)c1-c1ccccc1 (3D coordinates assigned)
N#Cc1c[nH]c(-c2ccccc2)c1-c1ccccc1 (optimized conformer: 68.06973973173908 kcal/mol)

>  <smiles>  (41) 
N#Cc1c[nH]c(-c2ccccc2)c1-c1ccccc1

>  <score_type>  (41) 
oracle

>  <origin>  (41) 
adg

>  <m_score__min__energy>  (41) 
-6.7400000000000002

>  <m_primary>  (41) 
energy

$$$$
41:0
     RDKit          3D

 38 40  0  0  0  0  0  0  0  0999 V2000
   55.4910   29.6070   44.8800 O   0  0  0  0  0  0  0  0  0  0  0  0
   56.8480   29.6930   44.2410 S   0  0  0  0  0  0  0  0  0  0  0  0
   56.6620   29.6800   42.7490 O   0  0  0  0  0  0  0  0  0  0  0  0
   57.6190   31.2090   44.7150 C   0  0  0  0  0  0  0  0  0  0  0  0
   57.7550   32.2580   43.7960 C   0  0  0  0  0  0  0  0  0  0  0  0
   58.3770   33.4460   44.1800 C   0  0  0  0  0  0  0  0  0  0  0  0
   58.8520   33.5780   45.4880 C   0  0  0  0  0  0  0  0  0  0  0  0
   59.6460   35.0940   46.0130 S   0  0  0  0  0  0  0  0  0  0  0  0
   60.8670   34.2190   46.9920 C   0  0  0  0  0  0  0  0  0  0  0  0
   62.0630   33.7900   46.4020 C   0  0  0  0  0  0  0  0  0  0  0  0
   63.0130   33.1030   47.1650 C   0  0  0  0  0  0  0  0  0  0  0  0
   62.7710   32.8480   48.5190 C   0  0  0  0  0  0  0  0  0  0  0  0
   61.5790   33.2790   49.1100 C   0  0  0  0  0  0  0  0  0  0  0  0
   60.6290   33.9660   48.3490 C   0  0  0  0  0  0  0  0  0  0  0  0
   58.7080   32.5520   46.3700 N   0  0  0  0  0  0  0  0  0  0  0  0
   58.1070   31.3850   46.0170 C   0  0  0  0  0  0  0  0  0  0  0  0
   57.8040   28.3070   44.7160 N   0  0  0  0  0  0  0  0  0  0  0  0
   59.1690   28.3640   44.1490 C   0  0  0  0  0  0  0  0  0  0  0  0
   60.2200   28.7430   45.2100 C   0  0  0  0  0  0  0  0  0  0  0  0
   60.2540   27.8450   46.3110 O   0  0  0  0  0  0  0  0  0  0  0  0
   58.9840   27.2980   46.6460 C   0  0  0  0  0  0  0  0  0  0  0  0
   57.7910   28.1510   46.1830 C   0  0  0  0  0  0  0  0  0  0  0  0
   57.3711   32.1446   42.7714 H   0  0  0  0  0  0  0  0  0  0  0  0
   58.4925   34.2704   43.4610 H   0  0  0  0  0  0  0  0  0  0  0  0
   62.2551   33.9935   45.3382 H   0  0  0  0  0  0  0  0  0  0  0  0
   63.9504   32.7633   46.7003 H   0  0  0  0  0  0  0  0  0  0  0  0
   63.5185   32.3083   49.1190 H   0  0  0  0  0  0  0  0  0  0  0  0
   61.3890   33.0772   50.1745 H   0  0  0  0  0  0  0  0  0  0  0  0
   59.6937   34.3082   48.8161 H   0  0  0  0  0  0  0  0  0  0  0  0
   58.0033   30.5763   46.7554 H   0  0  0  0  0  0  0  0  0  0  0  0
   59.4228   27.3772   43.7346 H   0  0  0  0  0  0  0  0  0  0  0  0
   59.1802   29.1387   43.3681 H   0  0  0  0  0  0  0  0  0  0  0  0
   61.2113   28.7492   44.7333 H   0  0  0  0  0  0  0  0  0  0  0  0
   59.9444   29.7324   45.6039 H   0  0  0  0  0  0  0  0  0  0  0  0
   58.9011   26.3057   46.1787 H   0  0  0  0  0  0  0  0  0  0  0  0
   58.9365   27.2558   47.7442 H   0  0  0  0  0  0  0  0  0  0  0  0
   56.8551   27.6588   46.4862 H   0  0  0  0  0  0  0  0  0  0  0  0
   57.8645   29.1458   46.6466 H   0  0  0  0  0  0  0  0  0  0  0  0
  1  2  2  0
  2  3  2  0
  2  4  1  0
  4  5  2  0
  5  6  1  0
  6  7  2  0
  7  8  1  0
  8  9  1  0
  9 10  2  0
 10 11  1  0
 11 12  2  0
 12 13  1  0
 13 14  2  0
  7 15  1  0
 15 16  2  0
  2 17  1  0
 17 18  1  0
 18 19  1  0
 19 20  1  0
 20 21  1  0
 21 22  1  0
 16  4  1  0
 22 17  1  0
 14  9  1  0
  5 23  1  0
  6 24  1  0
 10 25  1  0
 11 26  1  0
 12 27  1  0
 13 28  1  0
 14 29  1  0
 16 30  1  0
 18 31  1  0
 18 32  1  0
 19 33  1  0
 19 34  1  0
 21 35  1  0
 21 36  1  0
 22 37  1  0
 22 38  1  0
M  END
>  <UniqueID>  (42) 
37

>  <SMILES>  (42) 
O=S(=O)(c1ccc(Sc2ccccc2)nc1)N1CCOCC1

>  <Energy>  (42) 
47.585640879331656

>  <Genealogy>  (42) 
O=S(=O)(c1ccc(Sc2ccccc2)nc1)N1CCOCC1 (3D coordinates assigned)
O=S(=O)(c1ccc(Sc2ccccc2)nc1)N1CCOCC1 (nonaromatic ring conformer: 47.585640879331656 kcal/mol)

>  <smiles>  (42) 
O=S(=O)(c1ccc(Sc2ccccc2)nc1)N1CCOCC1

>  <score_type>  (42) 
oracle

>  <origin>  (42) 
adg

>  <m_score__min__energy>  (42) 
-8.3399999999999999

>  <m_primary>  (42) 
energy

$$$$
42:0
     RDKit          3D

 15 16  0  0  0  0  0  0  0  0999 V2000
   55.6810   29.3510   43.9390 N   0  0  0  0  0  0  0  0  0  0  0  0
   56.4570   30.3920   43.9060 C   0  0  0  0  0  0  0  0  0  0  0  0
   56.2670   31.3240   44.8700 N   0  0  0  0  0  0  0  0  0  0  0  0
   57.0390   32.4490   44.9080 C   0  0  0  0  0  0  0  0  0  0  0  0
   57.0710   33.5140   45.7300 N   0  0  0  0  0  0  0  0  0  0  0  0
   58.0540   34.3470   45.2930 C   0  0  0  0  0  0  0  0  0  0  0  0
   58.6100   33.7630   44.1970 N   0  0  0  0  0  0  0  0  0  0  0  0
   58.0070   32.5960   43.9360 C   0  0  0  0  0  0  0  0  0  0  0  0
   58.1860   31.6360   42.9590 C   0  0  0  0  0  0  0  0  0  0  0  0
   57.3980   30.5360   42.9610 N   0  0  0  0  0  0  0  0  0  0  0  0
   56.1160   28.4160   43.7780 H   0  0  0  0  0  0  0  0  0  0  0  0
   56.4770   33.6990   46.5480 H   0  0  0  0  0  0  0  0  0  0  0  0
   58.3440   35.3091   45.7404 H   0  0  0  0  0  0  0  0  0  0  0  0
   58.9602   31.7643   42.1882 H   0  0  0  0  0  0  0  0  0  0  0  0
   57.4870   29.7790   42.2490 H   0  0  0  0  0  0  0  0  0  0  0  0
  1  2  2  3
  2  3  1  0
  3  4  2  0
  4  5  1  0
  5  6  1  0
  6  7  2  0
  7  8  1  0
  8  9  2  0
  9 10  1  0
 10  2  1  0
  8  4  1  0
  1 11  1  0
  5 12  1  0
  6 13  1  0
  9 14  1  0
 10 15  1  0
M  END
>  <smiles>  (43) 
N=c1nc2[nH]cnc2c[nH]1

>  <score_type>  (43) 
oracle

>  <origin>  (43) 
adg

>  <m_score__min__energy>  (43) 
-4.5899999999999999

>  <m_primary>  (43) 
energy

$$$$
43:0
     RDKit          3D

 42 45  0  0  0  0  0  0  0  0999 V2000
   62.0500   33.1040   48.4480 C   0  0  0  0  0  0  0  0  0  0  0  0
   61.2520   32.5750   49.4660 C   0  0  0  0  0  0  0  0  0  0  0  0
   60.7090   31.2930   49.3360 C   0  0  0  0  0  0  0  0  0  0  0  0
   60.9690   30.5270   48.1870 C   0  0  0  0  0  0  0  0  0  0  0  0
   60.3550   29.1640   48.0290 C   0  0  0  0  0  0  0  0  0  0  0  0
   59.9710   28.9370   46.6010 C   0  0  0  0  0  0  0  0  0  0  0  0
   58.7110   29.0540   46.0590 C   0  0  0  0  0  0  0  0  0  0  0  0
   58.8280   28.6840   44.7720 N   0  0  0  0  0  0  0  0  0  0  0  0
   57.7750   28.6930   43.7630 C   0  0  0  0  0  0  0  0  0  0  0  0
   57.2810   30.1230   43.5250 C   0  0  2  0  0  0  0  0  0  0  0  0
   58.3820   31.1750   43.7540 C   0  0  0  0  0  0  0  0  0  0  0  0
   57.8000   31.9990   44.8600 C   0  0  0  0  0  0  0  0  0  0  0  0
   58.4520   33.1770   45.4810 C   0  0  0  0  0  0  0  0  0  0  0  0
   58.9870   34.2050   44.6830 C   0  0  0  0  0  0  0  0  0  0  0  0
   59.6010   35.3140   45.2740 C   0  0  0  0  0  0  0  0  0  0  0  0
   59.6880   35.4090   46.6640 C   0  0  0  0  0  0  0  0  0  0  0  0
   59.1620   34.3960   47.4670 C   0  0  0  0  0  0  0  0  0  0  0  0
   58.5460   33.2850   46.8820 C   0  0  0  0  0  0  0  0  0  0  0  0
   56.6440   31.5670   45.2290 N   0  0  0  0  0  0  0  0  0  0  0  0
   56.2960   30.4710   44.4850 O   0  0  0  0  0  0  0  0  0  0  0  0
   60.0910   28.3620   44.5380 N   0  0  0  0  0  0  0  0  0  0  0  0
   60.8110   28.4960   45.6430 N   0  0  0  0  0  0  0  0  0  0  0  0
   61.7600   31.0720   47.1620 C   0  0  0  0  0  0  0  0  0  0  0  0
   62.3010   32.3530   47.2950 C   0  0  0  0  0  0  0  0  0  0  0  0
   62.4806   34.1107   48.5534 H   0  0  0  0  0  0  0  0  0  0  0  0
   61.0508   33.1677   50.3705 H   0  0  0  0  0  0  0  0  0  0  0  0
   60.0758   30.8825   50.1363 H   0  0  0  0  0  0  0  0  0  0  0  0
   61.0831   28.3989   48.3363 H   0  0  0  0  0  0  0  0  0  0  0  0
   59.4557   29.0984   48.6591 H   0  0  0  0  0  0  0  0  0  0  0  0
   57.7961   29.3828   46.5735 H   0  0  0  0  0  0  0  0  0  0  0  0
   58.1707   28.2841   42.8216 H   0  0  0  0  0  0  0  0  0  0  0  0
   56.9346   28.0777   44.1166 H   0  0  0  0  0  0  0  0  0  0  0  0
   56.9176   30.1286   42.4868 H   0  0  0  0  0  0  0  0  0  0  0  0
   59.3272   30.7038   44.0615 H   0  0  0  0  0  0  0  0  0  0  0  0
   58.6349   31.7554   42.8544 H   0  0  0  0  0  0  0  0  0  0  0  0
   58.9219   34.1360   43.5871 H   0  0  0  0  0  0  0  0  0  0  0  0
   60.0162   36.1130   44.6422 H   0  0  0  0  0  0  0  0  0  0  0  0
   60.1712   36.2823   47.1264 H   0  0  0  0  0  0  0  0  0  0  0  0
   59.2320   34.4715   48.5622 H   0  0  0  0  0  0  0  0  0  0  0  0
   58.1323   32.4904   47.5203 H   0  0  0  0  0  0  0  0  0  0  0  0
   61.9542   30.4875   46.2506 H   0  0  0  0  0  0  0  0  0  0  0  0
   62.9253   32.7717   46.4919 H   0  0  0  0  0  0  0  0  0  0  0  0
  1  2  2  0
  2  3  1  0
  3  4  2  0
  4  5  1  0
  5  6  1  0
  6  7  2  0
  7  8  1  0
  8  9  1  0
  9 10  1  0
 10 11  1  0
 11 12  1  0
 12 13  1  0
 13 14  2  0
 14 15  1  0
 15 16  2  0
 16 17  1  0
 17 18  2  0
 12 19  2  0
 19 20  1  0
  8 21  1  0
 21 22  2  0
  4 23  1  0
 23 24  2  0
 24  1  1  0
 22  6  1  0
 20 10  1  0
 18 13  1  0
  1 25  1  0
  2 26  1  0
  3 27  1  0
  5 28  1  0
  5 29  1  0
  7 30  1  0
  9 31  1  0
  9 32  1  0
 10 33  1  6
 11 34  1  0
 11 35  1  0
 14 36  1  0
 15 37  1  0
 16 38  1  0
 17 39  1  0
 18 40  1  0
 23 41  1  0
 24 42  1  0
M  END
>  <UniqueID>  (44) 
38

>  <SMILES>  (44) 
c1ccc(Cc2cn(C[C@@H]3CC(c4ccccc4)=NO3)nn2)cc1

>  <Energy>  (44) 
90.03238692629415

>  <Genealogy>  (44) 
c1ccc(Cc2cn(C[C@@H]3CC(c4ccccc4)=NO3)nn2)cc1 (chirality)
c1ccc(Cc2cn(C[C@@H]3CC(c4ccccc4)=NO3)nn2)cc1 (3D coordinates assigned)
c1ccc(Cc2cn(C[C@@H]3CC(c4ccccc4)=NO3)nn2)cc1 (nonaromatic ring conformer: 90.03238692629415 kcal/mol)

>  <smiles>  (44) 
c1ccc(Cc2cn(CC3CC(c4ccccc4)=NO3)nn2)cc1

>  <score_type>  (44) 
oracle

>  <origin>  (44) 
adg

>  <m_score__min__energy>  (44) 
-9.0299999999999994

>  <m_primary>  (44) 
energy

$$$$
44:0
     RDKit          3D

 43 45  0  0  0  0  0  0  0  0999 V2000
   58.1999   30.6902   44.0229 H   0  0  0  0  0  0  0  0  0  0  0  0
   58.1120   30.4650   45.0960 C   0  0  0  0  0  0  0  0  0  0  0  0
   58.1830   31.5000   45.9500 C   0  0  0  0  0  0  0  0  0  0  0  0
   57.2416   31.8660   46.3856 H   0  0  0  0  0  0  0  0  0  0  0  0
   59.4330   32.1840   46.3480 C   0  0  0  0  0  0  0  0  0  0  0  0
   59.7120   33.5270   46.0080 C   0  0  0  0  0  0  0  0  0  0  0  0
   58.5430   34.5360   45.1660 Cl  0  0  0  0  0  0  0  0  0  0  0  0
   60.8920   34.0890   46.3820 N   0  0  0  0  0  0  0  0  0  0  0  0
   61.8250   33.4020   47.0910 C   0  0  0  0  0  0  0  0  0  0  0  0
   63.0340   34.0170   47.4440 C   0  0  0  0  0  0  0  0  0  0  0  0
   63.2361   35.0524   47.1326 H   0  0  0  0  0  0  0  0  0  0  0  0
   63.9840   33.3130   48.1930 C   0  0  0  0  0  0  0  0  0  0  0  0
   64.9294   33.7998   48.4746 H   0  0  0  0  0  0  0  0  0  0  0  0
   63.7360   31.9900   48.5860 C   0  0  0  0  0  0  0  0  0  0  0  0
   64.4872   31.4409   49.1726 H   0  0  0  0  0  0  0  0  0  0  0  0
   62.5320   31.3670   48.2320 C   0  0  0  0  0  0  0  0  0  0  0  0
   62.3401   30.3271   48.5349 H   0  0  0  0  0  0  0  0  0  0  0  0
   61.5720   32.0710   47.4910 C   0  0  0  0  0  0  0  0  0  0  0  0
   60.3580   31.4770   47.1310 C   0  0  0  0  0  0  0  0  0  0  0  0
   60.1280   30.4536   47.4624 H   0  0  0  0  0  0  0  0  0  0  0  0
   57.9250   29.0440   45.4790 C   0  0  0  0  0  0  0  0  0  0  0  0
   59.0630   28.3220   45.8490 C   0  0  0  0  0  0  0  0  0  0  0  0
   60.0519   28.8009   45.7963 H   0  0  0  0  0  0  0  0  0  0  0  0
   58.9590   27.0020   46.2840 C   0  0  0  0  0  0  0  0  0  0  0  0
   59.8673   26.4491   46.5655 H   0  0  0  0  0  0  0  0  0  0  0  0
   57.7080   26.3700   46.3670 C   0  0  0  0  0  0  0  0  0  0  0  0
   57.6170   25.0560   46.8520 O   0  0  0  0  0  0  0  0  0  0  0  0
   57.9490   23.8990   46.0880 C   0  0  0  0  0  0  0  0  0  0  0  0
   58.1877   23.0672   46.7671 H   0  0  0  0  0  0  0  0  0  0  0  0
   57.0944   23.6208   45.4537 H   0  0  0  0  0  0  0  0  0  0  0  0
   58.8210   24.1163   45.4537 H   0  0  0  0  0  0  0  0  0  0  0  0
   56.5490   27.0760   45.9620 C   0  0  0  0  0  0  0  0  0  0  0  0
   55.2530   26.5280   45.9860 O   0  0  0  0  0  0  0  0  0  0  0  0
   54.8910   25.1920   45.6410 C   0  0  0  0  0  0  0  0  0  0  0  0
   54.7324   24.6065   46.5586 H   0  0  0  0  0  0  0  0  0  0  0  0
   53.9639   25.2045   45.0492 H   0  0  0  0  0  0  0  0  0  0  0  0
   55.6976   24.7348   45.0492 H   0  0  0  0  0  0  0  0  0  0  0  0
   56.6710   28.3890   45.4690 C   0  0  0  0  0  0  0  0  0  0  0  0
   55.5240   29.0020   44.9540 O   0  0  0  0  0  0  0  0  0  0  0  0
   55.5270   29.7120   43.7210 C   0  0  0  0  0  0  0  0  0  0  0  0
   55.5316   30.7937   43.9208 H   0  0  0  0  0  0  0  0  0  0  0  0
   56.4240   29.4418   43.1445 H   0  0  0  0  0  0  0  0  0  0  0  0
   54.6277   29.4494   43.1445 H   0  0  0  0  0  0  0  0  0  0  0  0
  1  2  1  0
  2  3  2  0
  3  4  1  0
  3  5  1  0
  5  6  2  0
  6  7  1  0
  6  8  1  0
  8  9  2  0
  9 10  1  0
 10 11  1  0
 10 12  2  0
 12 13  1  0
 12 14  1  0
 14 15  1  0
 14 16  2  0
 16 17  1  0
 16 18  1  0
 18 19  2  0
 19 20  1  0
  2 21  1  0
 21 22  2  0
 22 23  1  0
 22 24  1  0
 24 25  1  0
 24 26  2  0
 26 27  1  0
 27 28  1  0
 28 29  1  0
 28 30  1  0
 28 31  1  0
 26 32  1  0
 32 33  1  0
 33 34  1  0
 34 35  1  0
 34 36  1  0
 34 37  1  0
 32 38  2  0
 38 39  1  0
 39 40  1  0
 40 41  1  0
 40 42  1  0
 40 43  1  0
 19  5  1  0
 38 21  1  0
 18  9  1  0
M  END
>  <UniqueID>  (45) 
39

>  <SMILES>  (45) 
COc1ccc(/C=C\c2cc3ccccc3nc2Cl)c(OC)c1OC

>  <Energy>  (45) 
70.60103875551575

>  <Genealogy>  (45) 
COc1ccc(/C=C\c2cc3ccccc3nc2Cl)c(OC)c1OC (cis-trans isomerization)
COc1ccc(/C=C\c2cc3ccccc3nc2Cl)c(OC)c1OC (3D coordinates assigned)
COc1ccc(/C=C\c2cc3ccccc3nc2Cl)c(OC)c1OC (optimized conformer: 70.60103875551575 kcal/mol)

>  <smiles>  (45) 
COc1ccc(C=Cc2cc3ccccc3nc2Cl)c(OC)c1OC

>  <score_type>  (45) 
oracle

>  <origin>  (45) 
adg

>  <m_score__min__energy>  (45) 
-8.8599999999999994

>  <m_primary>  (45) 
energy

$$$$
45:0
     RDKit          3D

 44 46  0  0  1  0  0  0  0  0999 V2000
   62.9450   33.6580   47.9790 C   0  0  0  0  0  0  0  0  0  0  0  0
   61.8750   33.8170   48.8340 C   0  0  0  0  0  0  0  0  0  0  0  0
   60.8480   32.8970   48.8250 C   0  0  0  0  0  0  0  0  0  0  0  0
   60.8360   31.7950   47.9800 C   0  0  0  0  0  0  0  0  0  0  0  0
   59.7060   30.8070   47.9880 C   0  0  0  0  0  0  0  0  0  0  0  0
   59.9760   29.7000   47.1310 N   0  0  0  0  0  0  0  0  0  0  0  0
   59.0560   29.0560   46.5540 C   0  0  0  0  0  0  0  0  0  0  0  0
   59.1250   27.6810   46.5230 C   0  0  0  0  0  0  0  0  0  0  0  0
   58.1610   26.8930   45.9120 C   0  0  0  0  0  0  0  0  0  0  0  0
   57.1340   27.5540   45.3410 N   0  0  0  0  0  0  0  0  0  0  0  0
   57.0650   28.9050   45.3710 C   0  0  0  0  0  0  0  0  0  0  0  0
   56.0500   29.4420   44.8010 N   0  0  0  0  0  0  0  0  0  0  0  0
   56.1640   30.0630   43.4930 C   0  0  0  0  0  0  0  0  0  0  0  0
   57.0160   31.3180   43.7150 C   0  0  0  0  0  0  0  0  0  0  0  0
   56.7260   31.9720   44.9200 O   0  0  0  0  0  0  0  0  0  0  0  0
   57.6270   32.9550   45.3130 C   0  0  0  0  0  0  0  0  0  0  0  0
   58.4900   33.5770   44.4280 C   0  0  0  0  0  0  0  0  0  0  0  0
   59.3780   34.5580   44.8680 C   0  0  0  0  0  0  0  0  0  0  0  0
   59.4220   34.9400   46.2020 C   0  0  0  0  0  0  0  0  0  0  0  0
   58.5530   34.3130   47.0910 C   0  0  0  0  0  0  0  0  0  0  0  0
   57.6730   33.3400   46.6570 C   0  0  0  0  0  0  0  0  0  0  0  0
   57.9990   29.6310   45.9610 N   0  0  0  0  0  0  0  0  0  0  0  0
   61.9210   31.6660   47.1390 C   0  0  0  0  0  0  0  0  0  0  0  0
   62.9680   32.5780   47.1270 C   0  0  0  0  0  0  0  0  0  0  0  0
   63.7700   34.3856   47.9781 H   0  0  0  0  0  0  0  0  0  0  0  0
   61.8408   34.6752   49.5212 H   0  0  0  0  0  0  0  0  0  0  0  0
   60.0038   33.0418   49.5152 H   0  0  0  0  0  0  0  0  0  0  0  0
   59.5606   30.4380   49.0140 H   0  0  0  0  0  0  0  0  0  0  0  0
   58.8006   31.3141   47.6232 H   0  0  0  0  0  0  0  0  0  0  0  0
   59.9818   27.1862   47.0037 H   0  0  0  0  0  0  0  0  0  0  0  0
   58.2302   25.7953   45.8943 H   0  0  0  0  0  0  0  0  0  0  0  0
   56.3770   27.0010   44.8650 H   0  0  0  0  0  0  0  0  0  0  0  0
   56.6583   29.3819   42.7847 H   0  0  0  0  0  0  0  0  0  0  0  0
   55.1795   30.3054   43.0665 H   0  0  0  0  0  0  0  0  0  0  0  0
   58.0762   31.0249   43.7218 H   0  0  0  0  0  0  0  0  0  0  0  0
   56.7882   32.0184   42.8980 H   0  0  0  0  0  0  0  0  0  0  0  0
   58.4754   33.2943   43.3651 H   0  0  0  0  0  0  0  0  0  0  0  0
   60.0552   35.0374   44.1458 H   0  0  0  0  0  0  0  0  0  0  0  0
   60.1226   35.7150   46.5464 H   0  0  0  0  0  0  0  0  0  0  0  0
   58.5672   34.5962   48.1538 H   0  0  0  0  0  0  0  0  0  0  0  0
   56.9974   32.8602   47.3805 H   0  0  0  0  0  0  0  0  0  0  0  0
   57.9260   30.6660   45.9720 H   0  0  0  0  0  0  0  0  0  0  0  0
   61.9586   30.8081   46.4515 H   0  0  0  0  0  0  0  0  0  0  0  0
   63.8138   32.4373   46.4379 H   0  0  0  0  0  0  0  0  0  0  0  0
  1  2  2  0
  2  3  1  0
  3  4  2  0
  4  5  1  0
  5  6  1  0
  6  7  2  0
  7  8  1  0
  8  9  2  0
  9 10  1  0
 10 11  1  0
 11 12  2  0
 12 13  1  0
 13 14  1  0
 14 15  1  0
 15 16  1  0
 16 17  2  0
 17 18  1  0
 18 19  2  0
 19 20  1  0
 20 21  2  0
 11 22  1  0
  4 23  1  0
 23 24  2  0
 24  1  1  0
 22  7  1  0
 21 16  1  0
  1 25  1  0
  2 26  1  0
  3 27  1  0
  5 28  1  0
  5 29  1  0
  8 30  1  0
  9 31  1  0
 10 32  1  0
 13 33  1  0
 13 34  1  0
 14 35  1  0
 14 36  1  0
 17 37  1  0
 18 38  1  0
 19 39  1  0
 20 40  1  0
 21 41  1  0
 22 42  1  0
 23 43  1  0
 24 44  1  0
M  END
>  <smiles>  (46) 
c1ccc(CN=c2cc[nH]c(=NCCOc3ccccc3)[nH]2)cc1

>  <score_type>  (46) 
oracle

>  <origin>  (46) 
adg

>  <m_score__min__energy>  (46) 
-8.3599999999999994

>  <m_primary>  (46) 
energy

$$$$
46:0
     RDKit          3D

 42 44  0  0  0  0  0  0  0  0999 V2000
   57.0659   35.3487   44.3528 H   0  0  0  0  0  0  0  0  0  0  0  0
   57.6820   34.5780   44.8390 C   0  0  0  0  0  0  0  0  0  0  0  0
   58.7590   34.9420   45.5820 N   0  0  0  0  0  0  0  0  0  0  0  0
   59.5560   34.0220   46.1880 C   0  0  0  0  0  0  0  0  0  0  0  0
   60.6460   34.4740   47.0060 N   0  0  0  0  0  0  0  0  0  0  0  0
   61.6650   33.7770   47.4250 C   0  0  0  0  0  0  0  0  0  0  0  0
   61.5110   33.0130   48.5430 N   0  0  0  0  0  0  0  0  0  0  0  0
   62.5230   32.2650   49.0580 C   0  0  0  0  0  0  0  0  0  0  0  0
   62.3538   31.6572   49.9591 H   0  0  0  0  0  0  0  0  0  0  0  0
   63.7760   32.2680   48.4440 C   0  0  0  0  0  0  0  0  0  0  0  0
   64.5963   31.6588   48.8514 H   0  0  0  0  0  0  0  0  0  0  0  0
   63.9770   33.0520   47.3080 C   0  0  0  0  0  0  0  0  0  0  0  0
   64.9618   33.0692   46.8182 H   0  0  0  0  0  0  0  0  0  0  0  0
   62.9270   33.8150   46.7930 C   0  0  0  0  0  0  0  0  0  0  0  0
   63.0819   34.4409   45.9018 H   0  0  0  0  0  0  0  0  0  0  0  0
   59.2370   32.6580   46.0930 C   0  0  0  0  0  0  0  0  0  0  0  0
   59.8467   31.9115   46.6231 H   0  0  0  0  0  0  0  0  0  0  0  0
   58.1380   32.2480   45.3200 C   0  0  0  0  0  0  0  0  0  0  0  0
   57.7900   30.8130   45.1890 C   0  0  0  0  0  0  0  0  0  0  0  0
   56.6800   30.4870   44.6860 O   0  0  0  0  0  0  0  0  0  0  0  0
   58.7210   29.7910   45.5840 N   0  0  0  0  0  0  0  0  0  0  0  0
   59.7420   30.0100   45.5320 H   0  0  0  0  0  0  0  0  0  0  0  0
   58.3390   28.4420   45.9050 C   0  0  0  0  0  0  0  0  0  0  0  0
   59.3030   27.5550   46.4050 C   0  0  0  0  0  0  0  0  0  0  0  0
   60.3427   27.8915   46.5309 H   0  0  0  0  0  0  0  0  0  0  0  0
   58.9510   26.2470   46.7440 C   0  0  0  0  0  0  0  0  0  0  0  0
   59.7150   25.5548   47.1276 H   0  0  0  0  0  0  0  0  0  0  0  0
   57.6310   25.8160   46.5970 C   0  0  0  0  0  0  0  0  0  0  0  0
   57.3622   24.7816   46.8574 H   0  0  0  0  0  0  0  0  0  0  0  0
   56.6480   26.6900   46.1210 C   0  0  0  0  0  0  0  0  0  0  0  0
   55.3030   26.2050   46.0000 N   0  0  0  0  0  0  0  0  0  0  0  0
   54.8390   24.5820   45.6010 S   0  0  0  0  0  0  0  0  0  0  0  0
   53.3550   24.5110   45.3690 O   0  0  0  0  0  0  0  0  0  0  0  0
   55.5440   24.1770   44.3380 O   0  0  0  0  0  0  0  0  0  0  0  0
   55.3180   23.4680   46.9060 C   0  0  0  0  0  0  0  0  0  0  0  0
   55.1165   23.9367   47.8806 H   0  0  0  0  0  0  0  0  0  0  0  0
   54.7415   22.5350   46.8216 H   0  0  0  0  0  0  0  0  0  0  0  0
   56.3917   23.2445   46.8216 H   0  0  0  0  0  0  0  0  0  0  0  0
   57.0050   28.0090   45.7830 C   0  0  0  0  0  0  0  0  0  0  0  0
   56.2357   28.7068   45.4207 H   0  0  0  0  0  0  0  0  0  0  0  0
   57.3540   33.2290   44.6900 C   0  0  0  0  0  0  0  0  0  0  0  0
   56.4855   32.9356   44.0820 H   0  0  0  0  0  0  0  0  0  0  0  0
  1  2  1  0
  2  3  2  0
  3  4  1  0
  4  5  1  0
  5  6  2  0
  6  7  1  0
  7  8  1  0
  8  9  1  0
  8 10  2  0
 10 11  1  0
 10 12  1  0
 12 13  1  0
 12 14  2  0
 14 15  1  0
  4 16  2  0
 16 17  1  0
 16 18  1  0
 18 19  1  0
 19 20  2  0
 19 21  1  0
 21 22  1  0
 21 23  1  0
 23 24  2  0
 24 25  1  0
 24 26  1  0
 26 27  1  0
 26 28  2  0
 28 29  1  0
 28 30  1  0
 30 31  1  0
 31 32  1  0
 32 33  2  0
 32 34  2  0
 32 35  1  0
 35 36  1  0
 35 37  1  0
 35 38  1  0
 30 39  2  0
 39 40  1  0
 18 41  2  0
 41 42  1  0
 41  2  1  0
 14  6  1  0
 39 23  1  0
M  CHG  2   7  -1  31  -1
M  END
>  <UniqueID>  (47) 
40

>  <SMILES>  (47) 
CS(=O)(=O)[N-]c1cccc(NC(=O)c2ccnc(/N=c3\cccc[n-]3)c2)c1

>  <Energy>  (47) 
59.77683955794097

>  <Genealogy>  (47) 
CS(=O)(=O)[N-]c1cccc(NC(=O)c2ccnc(N=c3cccc[n-]3)c2)c1 (protonated)
CS(=O)(=O)[N-]c1cccc(NC(=O)c2ccnc(/N=c3\cccc[n-]3)c2)c1 (cis-trans isomerization)
CS(=O)(=O)[N-]c1cccc(NC(=O)c2ccnc(/N=c3\cccc[n-]3)c2)c1 (3D coordinates assigned)
CS(=O)(=O)[N-]c1cccc(NC(=O)c2ccnc(/N=c3\cccc[n-]3)c2)c1 (optimized conformer: 59.77683955794097 kcal/mol)

>  <smiles>  (47) 
CS(=O)(=O)Nc1cccc(NC(=O)c2ccnc(N=c3cccc[nH]3)c2)c1

>  <score_type>  (47) 
oracle

>  <origin>  (47) 
adg

>  <m_score__min__energy>  (47) 
-12.35

>  <m_primary>  (47) 
energy

$$$$
47:0
     RDKit          3D

 31 33  0  0  0  0  0  0  0  0999 V2000
   56.2680   29.8020   42.6700 O   0  0  0  0  0  0  0  0  0  0  0  0
   56.4330   29.9320   44.1580 S   0  0  0  0  0  0  0  0  0  0  0  0
   55.2500   29.3400   44.8700 O   0  0  0  0  0  0  0  0  0  0  0  0
   56.5880   31.5950   44.5790 N   0  0  0  0  0  0  0  0  0  0  0  0
   57.6330   32.0950   45.1690 C   0  0  0  0  0  0  0  0  0  0  0  0
   57.6650   33.5810   45.4700 C   0  0  0  0  0  0  0  0  0  0  0  0
   57.7640   33.8410   46.9700 C   0  0  0  0  0  0  0  0  0  0  0  0
   59.2500   33.9690   47.2810 C   0  0  0  0  0  0  0  0  0  0  0  0
   59.9530   34.2960   45.9650 C   0  0  0  0  0  0  0  0  0  0  0  0
   58.8930   34.2640   44.8680 C   0  0  0  0  0  0  0  0  0  0  0  0
   58.7820   31.2870   45.5050 N   0  0  0  0  0  0  0  0  0  0  0  0
   58.9090   29.8690   45.2780 C   0  0  0  0  0  0  0  0  0  0  0  0
   60.0790   29.2070   45.6760 C   0  0  0  0  0  0  0  0  0  0  0  0
   60.2070   27.8330   45.4580 C   0  0  0  0  0  0  0  0  0  0  0  0
   59.2010   27.1380   44.8610 N   0  0  0  0  0  0  0  0  0  0  0  0
   58.0560   27.7550   44.4630 C   0  0  0  0  0  0  0  0  0  0  0  0
   57.8910   29.1290   44.6650 C   0  0  0  0  0  0  0  0  0  0  0  0
   56.7341   33.9795   45.0404 H   0  0  0  0  0  0  0  0  0  0  0  0
   57.2380   34.7710   47.2315 H   0  0  0  0  0  0  0  0  0  0  0  0
   57.3013   33.0285   47.5495 H   0  0  0  0  0  0  0  0  0  0  0  0
   59.4157   34.7767   48.0091 H   0  0  0  0  0  0  0  0  0  0  0  0
   59.6425   33.0380   47.7159 H   0  0  0  0  0  0  0  0  0  0  0  0
   60.4091   35.2955   46.0195 H   0  0  0  0  0  0  0  0  0  0  0  0
   60.7520   33.5690   45.7576 H   0  0  0  0  0  0  0  0  0  0  0  0
   58.6420   35.2874   44.5523 H   0  0  0  0  0  0  0  0  0  0  0  0
   59.2546   33.7224   43.9815 H   0  0  0  0  0  0  0  0  0  0  0  0
   59.5920   31.7720   45.9530 H   0  0  0  0  0  0  0  0  0  0  0  0
   60.8934   29.7675   46.1583 H   0  0  0  0  0  0  0  0  0  0  0  0
   61.1239   27.3114   45.7699 H   0  0  0  0  0  0  0  0  0  0  0  0
   59.3120   26.1120   44.7030 H   0  0  0  0  0  0  0  0  0  0  0  0
   57.2576   27.1717   43.9809 H   0  0  0  0  0  0  0  0  0  0  0  0
  1  2  2  0
  2  3  2  0
  2  4  1  0
  4  5  2  0
  5  6  1  0
  6  7  1  0
  7  8  1  0
  8  9  1  0
  9 10  1  0
  5 11  1  0
 11 12  1  0
 12 13  2  0
 13 14  1  0
 14 15  2  0
 15 16  1  0
 16 17  2  0
 17  2  1  0
 10  6  1  0
 17 12  1  0
  6 18  1  0
  7 19  1  0
  7 20  1  0
  8 21  1  0
  8 22  1  0
  9 23  1  0
  9 24  1  0
 10 25  1  0
 10 26  1  0
 11 27  1  0
 13 28  1  0
 14 29  1  0
 15 30  1  0
 16 31  1  0
M  CHG  1  15   1
M  END
>  <UniqueID>  (48) 
41

>  <SMILES>  (48) 
O=S1(=O)N=C(C2CCCC2)Nc2cc[nH+]cc21

>  <Energy>  (48) 
37.8891688649375

>  <Genealogy>  (48) 
O=S1(=O)N=C(C2CCCC2)Nc2cc[nH+]cc21 (protonated)
O=S1(=O)N=C(C2CCCC2)Nc2cc[nH+]cc21 (3D coordinates assigned)
O=S1(=O)N=C(C2CCCC2)Nc2cc[nH+]cc21 (nonaromatic ring conformer: 37.8891688649375 kcal/mol)

>  <smiles>  (48) 
O=S1(=O)N=C(C2CCCC2)Nc2ccncc21

>  <score_type>  (48) 
oracle

>  <origin>  (48) 
adg

>  <m_score__min__energy>  (48) 
-6.4699999999999998

>  <m_primary>  (48) 
energy

$$$$
48:0
     RDKit          3D

 54 57  0  0  0  0  0  0  0  0999 V2000
   57.7770   32.3250   41.5030 C   0  0  0  0  0  0  0  0  0  0  0  0
   57.1430   31.9190   42.6950 O   0  0  0  0  0  0  0  0  0  0  0  0
   58.1140   31.4590   43.6120 C   0  0  0  0  0  0  0  0  0  0  0  0
   57.4320   30.6480   44.7380 C   0  0  2  0  0  0  0  0  0  0  0  0
   56.0420   30.7880   44.5800 O   0  0  0  0  0  0  0  0  0  0  0  0
   57.8250   31.1210   46.1820 C   0  0  2  0  0  0  0  0  0  0  0  0
   57.7720   32.6460   46.3330 C   0  0  0  0  0  0  0  0  0  0  0  0
   59.1270   33.1390   45.8770 C   0  0  0  0  0  0  0  0  0  0  0  0
   60.1360   32.0530   46.2880 C   0  0  1  0  0  0  0  0  0  0  0  0
   61.0560   32.5500   47.4470 C   0  0  2  0  0  0  0  0  0  0  0  0
   62.0360   33.6680   46.9620 C   0  0  0  0  0  0  0  0  0  0  0  0
   63.5190   33.3460   47.1660 C   0  0  0  0  0  0  0  0  0  0  0  0
   63.7570   32.7860   48.5390 C   0  0  0  0  0  0  0  0  0  0  0  0
   64.8690   33.1900   49.2940 C   0  0  0  0  0  0  0  0  0  0  0  0
   65.1440   32.5820   50.5230 C   0  0  0  0  0  0  0  0  0  0  0  0
   66.2390   32.9820   51.2860 O   0  0  0  0  0  0  0  0  0  0  0  0
   64.3230   31.5510   50.9850 C   0  0  0  0  0  0  0  0  0  0  0  0
   63.2220   31.1330   50.2330 C   0  0  0  0  0  0  0  0  0  0  0  0
   62.9000   31.7770   49.0200 C   0  0  0  0  0  0  0  0  0  0  0  0
   61.7510   31.3350   48.1180 C   0  0  1  0  0  0  0  0  0  0  0  0
   60.6890   30.4480   48.8230 C   0  0  0  0  0  0  0  0  0  0  0  0
   59.2880   30.5060   48.1740 C   0  0  0  0  0  0  0  0  0  0  0  0
   59.2930   30.7730   46.6360 C   0  0  1  0  0  0  0  0  0  0  0  0
   59.8780   29.5130   45.9360 C   0  0  0  0  0  0  0  0  0  0  0  0
   58.6803   32.9035   41.7468 H   0  0  0  0  0  0  0  0  0  0  0  0
   58.0570   31.4378   40.9161 H   0  0  0  0  0  0  0  0  0  0  0  0
   57.0883   32.9505   40.9161 H   0  0  0  0  0  0  0  0  0  0  0  0
   58.8367   30.8173   43.0867 H   0  0  0  0  0  0  0  0  0  0  0  0
   58.6345   32.3225   44.0519 H   0  0  0  0  0  0  0  0  0  0  0  0
   57.7672   29.6042   44.6484 H   0  0  0  0  0  0  0  0  0  0  0  0
   55.8940   31.4080   43.8190 H   0  0  0  0  0  0  0  0  0  0  0  0
   57.0856   30.5811   46.7918 H   0  0  0  0  0  0  0  0  0  0  0  0
   56.9759   33.0683   45.7022 H   0  0  0  0  0  0  0  0  0  0  0  0
   57.5522   32.9485   47.3675 H   0  0  0  0  0  0  0  0  0  0  0  0
   59.1362   33.2754   44.7855 H   0  0  0  0  0  0  0  0  0  0  0  0
   59.3748   34.1102   46.3301 H   0  0  0  0  0  0  0  0  0  0  0  0
   60.8378   31.8086   45.4770 H   0  0  0  0  0  0  0  0  0  0  0  0
   60.4477   33.0344   48.2250 H   0  0  0  0  0  0  0  0  0  0  0  0
   61.8649   33.8324   45.8879 H   0  0  0  0  0  0  0  0  0  0  0  0
   61.8224   34.5573   47.5731 H   0  0  0  0  0  0  0  0  0  0  0  0
   63.8346   32.6069   46.4149 H   0  0  0  0  0  0  0  0  0  0  0  0
   64.1004   34.2734   47.0568 H   0  0  0  0  0  0  0  0  0  0  0  0
   65.5265   33.9876   48.9178 H   0  0  0  0  0  0  0  0  0  0  0  0
   66.2410   33.8640   51.7870 H   0  0  0  0  0  0  0  0  0  0  0  0
   64.5444   31.0651   51.9467 H   0  0  0  0  0  0  0  0  0  0  0  0
   62.6026   30.2966   50.5891 H   0  0  0  0  0  0  0  0  0  0  0  0
   62.2257   30.7068   47.3499 H   0  0  0  0  0  0  0  0  0  0  0  0
   61.0383   29.4052   48.7984 H   0  0  0  0  0  0  0  0  0  0  0  0
   60.5808   30.8355   49.8468 H   0  0  0  0  0  0  0  0  0  0  0  0
   58.7871   29.5432   48.3531 H   0  0  0  0  0  0  0  0  0  0  0  0
   58.7663   31.3573   48.6358 H   0  0  0  0  0  0  0  0  0  0  0  0
   60.2124   28.7927   46.6972 H   0  0  0  0  0  0  0  0  0  0  0  0
   59.1030   29.0494   45.3079 H   0  0  0  0  0  0  0  0  0  0  0  0
   60.7323   29.8059   45.3079 H   0  0  0  0  0  0  0  0  0  0  0  0
  1  2  1  0
  2  3  1  0
  3  4  1  0
  4  5  1  0
  4  6  1  0
  6  7  1  0
  7  8  1  0
  8  9  1  0
  9 10  1  0
 10 11  1  0
 11 12  1  0
 12 13  1  0
 13 14  2  0
 14 15  1  0
 15 16  1  0
 15 17  2  0
 17 18  1  0
 18 19  2  0
 19 20  1  0
 20 21  1  0
 21 22  1  0
 22 23  1  0
 23 24  1  6
 23  6  1  0
 23  9  1  0
 20 10  1  0
 19 13  1  0
  1 25  1  0
  1 26  1  0
  1 27  1  0
  3 28  1  0
  3 29  1  0
  4 30  1  1
  5 31  1  0
  6 32  1  1
  7 33  1  0
  7 34  1  0
  8 35  1  0
  8 36  1  0
  9 37  1  6
 10 38  1  1
 11 39  1  0
 11 40  1  0
 12 41  1  0
 12 42  1  0
 14 43  1  0
 16 44  1  0
 17 45  1  0
 18 46  1  0
 20 47  1  6
 21 48  1  0
 21 49  1  0
 22 50  1  0
 22 51  1  0
 24 52  1  0
 24 53  1  0
 24 54  1  0
M  END
>  <UniqueID>  (49) 
42

>  <SMILES>  (49) 
COC[C@H](O)[C@@H]1CCC2C3CCc4cc(O)ccc4C3CCC21C

>  <Energy>  (49) 
82.36003370810162

>  <Genealogy>  (49) 
COC[C@H](O)[C@@H]1CCC2C3CCc4cc(O)ccc4C3CCC21C (chirality)
COC[C@H](O)[C@@H]1CCC2C3CCc4cc(O)ccc4C3CCC21C (3D coordinates assigned)
COC[C@H](O)[C@@H]1CCC2C3CCc4cc(O)ccc4C3CCC21C (nonaromatic ring conformer: 82.36003370810162 kcal/mol)

>  <smiles>  (49) 
COCC(O)C1CCC2C3CCc4cc(O)ccc4C3CCC12C

>  <score_type>  (49) 
oracle

>  <origin>  (49) 
adg

>  <m_score__min__energy>  (49) 
-7.8899999999999997

>  <m_primary>  (49) 
energy

$$$$
49:0
     RDKit          3D

 44 46  0  0  0  0  0  0  0  0999 V2000
   55.2160   29.2920   44.9080 O   0  0  0  0  0  0  0  0  0  0  0  0
   55.5750   30.1480   43.8590 C   0  0  0  0  0  0  0  0  0  0  0  0
   57.0950   30.3350   43.7960 C   0  0  0  0  0  0  0  0  0  0  0  0
   57.6820   30.5760   45.1250 N   0  0  0  0  0  0  0  0  0  0  0  0
   57.7550   29.4730   46.0970 C   0  0  0  0  0  0  0  0  0  0  0  0
   58.9560   29.6310   46.9790 C   0  0  0  0  0  0  0  0  0  0  0  0
   60.2690   29.7930   46.5520 C   0  0  0  0  0  0  0  0  0  0  0  0
   61.1590   30.0630   47.5420 N   0  0  0  0  0  0  0  0  0  0  0  0
   60.5690   30.1060   48.7570 C   0  0  0  0  0  0  0  0  0  0  0  0
   61.2910   30.5040   50.0030 C   0  0  0  0  0  0  0  0  0  0  0  0
   62.4360   31.2920   49.6730 O   0  0  0  0  0  0  0  0  0  0  0  0
   62.5000   32.2370   48.6350 C   0  0  0  0  0  0  0  0  0  0  0  0
   63.6370   32.2440   47.8170 C   0  0  0  0  0  0  0  0  0  0  0  0
   63.7470   33.1550   46.7620 C   0  0  0  0  0  0  0  0  0  0  0  0
   62.7250   34.0750   46.5230 C   0  0  0  0  0  0  0  0  0  0  0  0
   61.5930   34.0890   47.3420 C   0  0  0  0  0  0  0  0  0  0  0  0
   61.4770   33.1760   48.3930 C   0  0  0  0  0  0  0  0  0  0  0  0
   58.9110   29.8400   48.6480 S   0  0  0  0  0  0  0  0  0  0  0  0
   58.0260   31.9230   45.5190 C   0  0  0  0  0  0  0  0  0  0  0  0
   58.5840   32.8240   44.5930 C   0  0  0  0  0  0  0  0  0  0  0  0
   58.9070   34.1280   44.9810 C   0  0  0  0  0  0  0  0  0  0  0  0
   58.6800   34.5460   46.2930 C   0  0  0  0  0  0  0  0  0  0  0  0
   58.1270   33.6610   47.2210 C   0  0  0  0  0  0  0  0  0  0  0  0
   57.8060   32.3560   46.8390 C   0  0  0  0  0  0  0  0  0  0  0  0
   54.7660   28.5090   44.4970 H   0  0  0  0  0  0  0  0  0  0  0  0
   55.2261   29.7178   42.9086 H   0  0  0  0  0  0  0  0  0  0  0  0
   55.1089   31.1290   44.0331 H   0  0  0  0  0  0  0  0  0  0  0  0
   57.5461   29.4272   43.3690 H   0  0  0  0  0  0  0  0  0  0  0  0
   57.3009   31.2167   43.1713 H   0  0  0  0  0  0  0  0  0  0  0  0
   56.8468   29.4764   46.7177 H   0  0  0  0  0  0  0  0  0  0  0  0
   57.8367   28.5217   45.5509 H   0  0  0  0  0  0  0  0  0  0  0  0
   60.5640   29.7091   45.4956 H   0  0  0  0  0  0  0  0  0  0  0  0
   60.6165   31.0916   50.6431 H   0  0  0  0  0  0  0  0  0  0  0  0
   61.6168   29.5989   50.5366 H   0  0  0  0  0  0  0  0  0  0  0  0
   64.4497   31.5272   48.0061 H   0  0  0  0  0  0  0  0  0  0  0  0
   64.6400   33.1466   46.1197 H   0  0  0  0  0  0  0  0  0  0  0  0
   62.8106   34.7887   45.6903 H   0  0  0  0  0  0  0  0  0  0  0  0
   60.7918   34.8202   47.1589 H   0  0  0  0  0  0  0  0  0  0  0  0
   60.5835   33.1900   49.0344 H   0  0  0  0  0  0  0  0  0  0  0  0
   58.7672   32.5005   43.5577 H   0  0  0  0  0  0  0  0  0  0  0  0
   59.3412   34.8262   44.2502 H   0  0  0  0  0  0  0  0  0  0  0  0
   58.9365   35.5719   46.5960 H   0  0  0  0  0  0  0  0  0  0  0  0
   57.9439   33.9918   48.2540 H   0  0  0  0  0  0  0  0  0  0  0  0
   57.3777   31.6615   47.5767 H   0  0  0  0  0  0  0  0  0  0  0  0
  1  2  1  0
  2  3  1  0
  3  4  1  0
  4  5  1  0
  5  6  1  0
  6  7  2  0
  7  8  1  0
  8  9  2  0
  9 10  1  0
 10 11  1  0
 11 12  1  0
 12 13  2  0
 13 14  1  0
 14 15  2  0
 15 16  1  0
 16 17  2  0
  9 18  1  0
  4 19  1  0
 19 20  2  0
 20 21  1  0
 21 22  2  0
 22 23  1  0
 23 24  2  0
 18  6  1  0
 24 19  1  0
 17 12  1  0
  1 25  1  0
  2 26  1  0
  2 27  1  0
  3 28  1  0
  3 29  1  0
  5 30  1  0
  5 31  1  0
  7 32  1  0
 10 33  1  0
 10 34  1  0
 13 35  1  0
 14 36  1  0
 15 37  1  0
 16 38  1  0
 17 39  1  0
 20 40  1  0
 21 41  1  0
 22 42  1  0
 23 43  1  0
 24 44  1  0
M  END
>  <UniqueID>  (50) 
43

>  <SMILES>  (50) 
OCCN(Cc1cnc(COc2ccccc2)s1)c1ccccc1

>  <Energy>  (50) 
72.30282847944365

>  <Genealogy>  (50) 
OCCN(Cc1cnc(COc2ccccc2)s1)c1ccccc1 (3D coordinates assigned)
OCCN(Cc1cnc(COc2ccccc2)s1)c1ccccc1 (optimized conformer: 72.30282847944365 kcal/mol)

>  <smiles>  (50) 
OCCN(Cc1cnc(COc2ccccc2)s1)c1ccccc1

>  <score_type>  (50) 
oracle

>  <origin>  (50) 
adg

>  <m_score__min__energy>  (50) 
-8.25

>  <m_primary>  (50) 
energy

$$$$
50:0
     RDKit          3D

 79 79  0  0  0  0  0  0  0  0999 V2000
   58.1545   34.8982   47.7563 H   0  0  0  0  0  0  0  0  0  0  0  0
   58.9660   34.1620   47.6590 C   0  0  0  0  0  0  0  0  0  0  0  0
   59.0610   33.2150   48.6140 C   0  0  0  0  0  0  0  0  0  0  0  0
   58.3384   32.3862   48.5818 H   0  0  0  0  0  0  0  0  0  0  0  0
   60.0820   33.2060   49.7220 C   0  0  0  0  0  0  0  0  0  0  0  0
   61.0060   33.6788   49.3578 H   0  0  0  0  0  0  0  0  0  0  0  0
   60.2595   32.1602   50.0132 H   0  0  0  0  0  0  0  0  0  0  0  0
   59.5870   33.9720   50.9680 C   0  0  0  0  0  0  0  0  0  0  0  0
   58.9902   34.8336   50.6342 H   0  0  0  0  0  0  0  0  0  0  0  0
   60.4768   34.2804   51.5365 H   0  0  0  0  0  0  0  0  0  0  0  0
   58.7220   33.1120   51.9050 C   0  0  0  0  0  0  0  0  0  0  0  0
   57.9467   33.7536   52.3491 H   0  0  0  0  0  0  0  0  0  0  0  0
   59.3947   32.6836   52.6626 H   0  0  0  0  0  0  0  0  0  0  0  0
   58.0280   31.9280   51.1930 C   0  0  0  0  0  0  0  0  0  0  0  0
   58.3709   31.9020   50.1481 H   0  0  0  0  0  0  0  0  0  0  0  0
   56.9438   32.0946   51.2751 H   0  0  0  0  0  0  0  0  0  0  0  0
   58.3230   30.5590   51.8360 C   0  0  0  0  0  0  0  0  0  0  0  0
   57.3768   30.1554   52.2256 H   0  0  0  0  0  0  0  0  0  0  0  0
   59.0766   30.7447   52.6155 H   0  0  0  0  0  0  0  0  0  0  0  0
   58.9360   29.5080   50.8920 C   0  0  0  0  0  0  0  0  0  0  0  0
   58.2584   28.6422   50.8573 H   0  0  0  0  0  0  0  0  0  0  0  0
   59.9283   29.2657   51.3002 H   0  0  0  0  0  0  0  0  0  0  0  0
   59.1670   29.9940   49.4490 C   0  0  0  0  0  0  0  0  0  0  0  0
   58.8260   31.0369   49.3706 H   0  0  0  0  0  0  0  0  0  0  0  0
   58.6011   29.3283   48.7807 H   0  0  0  0  0  0  0  0  0  0  0  0
   60.6440   29.9270   49.0270 C   0  0  0  0  0  0  0  0  0  0  0  0
   61.0433   28.9390   49.2998 H   0  0  0  0  0  0  0  0  0  0  0  0
   61.1746   30.7384   49.5466 H   0  0  0  0  0  0  0  0  0  0  0  0
   60.8410   30.1370   47.5150 C   0  0  0  0  0  0  0  0  0  0  0  0
   59.8539   30.0900   47.0318 H   0  0  0  0  0  0  0  0  0  0  0  0
   61.5273   29.3454   47.1799 H   0  0  0  0  0  0  0  0  0  0  0  0
   61.5000   31.4730   47.1280 C   0  0  0  0  0  0  0  0  0  0  0  0
   60.8580   32.2945   47.4786 H   0  0  0  0  0  0  0  0  0  0  0  0
   61.6142   31.4775   46.0340 H   0  0  0  0  0  0  0  0  0  0  0  0
   62.8990   31.6530   47.7350 C   0  0  0  0  0  0  0  0  0  0  0  0
   63.6422   31.1871   47.0713 H   0  0  0  0  0  0  0  0  0  0  0  0
   62.9161   31.1759   48.7260 H   0  0  0  0  0  0  0  0  0  0  0  0
   63.2360   33.1380   47.9010 C   0  0  0  0  0  0  0  0  0  0  0  0
   64.2133   33.2304   48.3974 H   0  0  0  0  0  0  0  0  0  0  0  0
   62.4465   33.6079   48.5059 H   0  0  0  0  0  0  0  0  0  0  0  0
   63.2950   33.8470   46.5510 C   0  0  0  0  0  0  0  0  0  0  0  0
   63.3853   34.9317   46.7101 H   0  0  0  0  0  0  0  0  0  0  0  0
   64.1662   33.4857   45.9849 H   0  0  0  0  0  0  0  0  0  0  0  0
   62.3761   33.6347   45.9849 H   0  0  0  0  0  0  0  0  0  0  0  0
   59.8830   34.2940   46.4670 C   0  0  0  0  0  0  0  0  0  0  0  0
   60.7682   34.8793   46.7566 H   0  0  0  0  0  0  0  0  0  0  0  0
   60.1792   33.2870   46.1381 H   0  0  0  0  0  0  0  0  0  0  0  0
   59.1720   35.0000   45.3050 C   0  0  0  0  0  0  0  0  0  0  0  0
   58.7651   35.9562   45.6656 H   0  0  0  0  0  0  0  0  0  0  0  0
   59.9070   35.1588   44.5022 H   0  0  0  0  0  0  0  0  0  0  0  0
   58.0210   34.1530   44.7360 C   0  0  0  0  0  0  0  0  0  0  0  0
   57.2908   33.9624   45.5363 H   0  0  0  0  0  0  0  0  0  0  0  0
   57.5644   34.7129   43.9065 H   0  0  0  0  0  0  0  0  0  0  0  0
   58.5160   32.8070   44.1850 C   0  0  0  0  0  0  0  0  0  0  0  0
   59.2941   32.9990   43.4316 H   0  0  0  0  0  0  0  0  0  0  0  0
   58.9074   32.2232   45.0311 H   0  0  0  0  0  0  0  0  0  0  0  0
   57.3880   31.9860   43.5320 C   0  0  0  0  0  0  0  0  0  0  0  0
   56.4348   32.5038   43.7148 H   0  0  0  0  0  0  0  0  0  0  0  0
   57.6337   31.9078   42.4626 H   0  0  0  0  0  0  0  0  0  0  0  0
   57.2640   30.5450   44.0630 C   0  0  0  0  0  0  0  0  0  0  0  0
   56.2348   30.3882   44.4182 H   0  0  0  0  0  0  0  0  0  0  0  0
   57.5177   29.8638   43.2374 H   0  0  0  0  0  0  0  0  0  0  0  0
   58.2350   30.2530   45.2220 C   0  0  0  0  0  0  0  0  0  0  0  0
   58.9406   31.0923   45.3104 H   0  0  0  0  0  0  0  0  0  0  0  0
   57.6354   30.1291   46.1358 H   0  0  0  0  0  0  0  0  0  0  0  0
   59.0340   28.9590   45.0110 C   0  0  0  0  0  0  0  0  0  0  0  0
   59.2807   28.8665   43.9430 H   0  0  0  0  0  0  0  0  0  0  0  0
   59.9407   29.0203   45.6307 H   0  0  0  0  0  0  0  0  0  0  0  0
   58.2670   27.7320   45.4390 C   0  0  0  0  0  0  0  0  0  0  0  0
   58.9400   26.5300   45.7070 C   0  0  0  0  0  0  0  0  0  0  0  0
   60.0339   26.4804   45.6021 H   0  0  0  0  0  0  0  0  0  0  0  0
   58.2270   25.3940   46.1070 C   0  0  0  0  0  0  0  0  0  0  0  0
   58.9000   24.2100   46.3700 O   0  0  0  0  0  0  0  0  0  0  0  0
   56.8360   25.4530   46.2430 C   0  0  0  0  0  0  0  0  0  0  0  0
   56.2762   24.5605   46.5593 H   0  0  0  0  0  0  0  0  0  0  0  0
   56.1570   26.6460   45.9770 C   0  0  0  0  0  0  0  0  0  0  0  0
   54.7750   26.7010   46.1080 O   0  0  0  0  0  0  0  0  0  0  0  0
   56.8680   27.7830   45.5800 C   0  0  0  0  0  0  0  0  0  0  0  0
   56.3311   28.7214   45.3771 H   0  0  0  0  0  0  0  0  0  0  0  0
  1  2  1  0
  2  3  2  0
  3  4  1  0
  3  5  1  0
  5  6  1  0
  5  7  1  0
  5  8  1  0
  8  9  1  0
  8 10  1  0
  8 11  1  0
 11 12  1  0
 11 13  1  0
 11 14  1  0
 14 15  1  0
 14 16  1  0
 14 17  1  0
 17 18  1  0
 17 19  1  0
 17 20  1  0
 20 21  1  0
 20 22  1  0
 20 23  1  0
 23 24  1  0
 23 25  1  0
 23 26  1  0
 26 27  1  0
 26 28  1  0
 26 29  1  0
 29 30  1  0
 29 31  1  0
 29 32  1  0
 32 33  1  0
 32 34  1  0
 32 35  1  0
 35 36  1  0
 35 37  1  0
 35 38  1  0
 38 39  1  0
 38 40  1  0
 38 41  1  0
 41 42  1  0
 41 43  1  0
 41 44  1  0
  2 45  1  0
 45 46  1  0
 45 47  1  0
 45 48  1  0
 48 49  1  0
 48 50  1  0
 48 51  1  0
 51 52  1  0
 51 53  1  0
 51 54  1  0
 54 55  1  0
 54 56  1  0
 54 57  1  0
 57 58  1  0
 57 59  1  0
 57 60  1  0
 60 61  1  0
 60 62  1  0
 60 63  1  0
 63 64  1  0
 63 65  1  0
 63 66  1  0
 66 67  1  0
 66 68  1  0
 66 69  1  0
 69 70  2  0
 70 71  1  0
 70 72  1  0
 72 73  1  0
 72 74  2  0
 74 75  1  0
 74 76  1  0
 76 77  1  0
 76 78  2  0
 78 79  1  0
 78 69  1  0
M  CHG  2  73  -1  77  -1
M  END
>  <UniqueID>  (51) 
44

>  <SMILES>  (51) 
CCCCCCCCCCCCC/C=C\CCCCCCCCc1cc([O-])cc([O-])c1

>  <Energy>  (51) 
44.37715634839416

>  <Genealogy>  (51) 
CCCCCCCCCCCCCC=CCCCCCCCCc1cc([O-])cc([O-])c1 (protonated)
CCCCCCCCCCCCC/C=C\CCCCCCCCc1cc([O-])cc([O-])c1 (cis-trans isomerization)
CCCCCCCCCCCCC/C=C\CCCCCCCCc1cc([O-])cc([O-])c1 (3D coordinates assigned)
CCCCCCCCCCCCC/C=C\CCCCCCCCc1cc([O-])cc([O-])c1 (optimized conformer: 44.37715634839416 kcal/mol)

>  <smiles>  (51) 
CCCCCCCCCCCCCC=CCCCCCCCCc1cc(O)cc(O)c1

>  <score_type>  (51) 
oracle

>  <origin>  (51) 
adg

>  <m_score__min__energy>  (51) 
-13.85

>  <m_primary>  (51) 
energy

$$$$
51:0
     RDKit          3D

 32 34  0  0  0  0  0  0  0  0999 V2000
   56.9570   34.0440   45.4370 O   0  0  0  0  0  0  0  0  0  0  0  0
   57.7000   33.0300   45.5230 C   0  0  0  0  0  0  0  0  0  0  0  0
   57.2890   31.7980   45.3310 O   0  0  0  0  0  0  0  0  0  0  0  0
   58.3610   31.0470   45.5020 C   0  0  0  0  0  0  0  0  0  0  0  0
   58.3620   29.5710   45.3800 C   0  0  0  0  0  0  0  0  0  0  0  0
   58.1030   28.9800   44.1310 C   0  0  0  0  0  0  0  0  0  0  0  0
   58.0980   27.5880   43.9930 C   0  0  0  0  0  0  0  0  0  0  0  0
   58.3520   26.7730   45.0980 C   0  0  0  0  0  0  0  0  0  0  0  0
   58.6100   27.3490   46.3440 C   0  0  0  0  0  0  0  0  0  0  0  0
   58.6170   28.7400   46.4880 C   0  0  0  0  0  0  0  0  0  0  0  0
   59.4360   31.8140   45.7980 N   0  0  0  0  0  0  0  0  0  0  0  0
   59.0110   33.0660   45.8160 N   0  0  0  0  0  0  0  0  0  0  0  0
   59.8500   34.2350   46.0780 C   0  0  0  0  0  0  0  0  0  0  0  0
   61.0310   33.8480   46.9330 C   0  0  0  0  0  0  0  0  0  0  0  0
   62.3180   33.8410   46.3680 C   0  0  0  0  0  0  0  0  0  0  0  0
   63.4250   33.4530   47.1280 C   0  0  0  0  0  0  0  0  0  0  0  0
   63.2590   33.0620   48.4580 C   0  0  0  0  0  0  0  0  0  0  0  0
   64.6490   32.5730   49.4090 Cl  0  0  0  0  0  0  0  0  0  0  0  0
   61.9830   33.0520   49.0290 C   0  0  0  0  0  0  0  0  0  0  0  0
   60.8670   33.4380   48.2750 C   0  0  0  0  0  0  0  0  0  0  0  0
   59.2850   33.3890   49.0450 Cl  0  0  0  0  0  0  0  0  0  0  0  0
   57.9029   29.6164   43.2564 H   0  0  0  0  0  0  0  0  0  0  0  0
   57.8935   27.1345   43.0119 H   0  0  0  0  0  0  0  0  0  0  0  0
   58.3489   25.6786   44.9873 H   0  0  0  0  0  0  0  0  0  0  0  0
   58.8083   26.7066   47.2146 H   0  0  0  0  0  0  0  0  0  0  0  0
   58.8227   29.1873   47.4717 H   0  0  0  0  0  0  0  0  0  0  0  0
   60.4190   31.5140   45.9770 H   0  0  0  0  0  0  0  0  0  0  0  0
   60.2114   34.6442   45.1230 H   0  0  0  0  0  0  0  0  0  0  0  0
   59.2548   34.9919   46.6098 H   0  0  0  0  0  0  0  0  0  0  0  0
   62.4551   34.1433   45.3193 H   0  0  0  0  0  0  0  0  0  0  0  0
   64.4285   33.4557   46.6776 H   0  0  0  0  0  0  0  0  0  0  0  0
   61.8545   32.7394   50.0758 H   0  0  0  0  0  0  0  0  0  0  0  0
  1  2  2  0
  2  3  1  0
  3  4  1  0
  4  5  1  0
  5  6  2  0
  6  7  1  0
  7  8  2  0
  8  9  1  0
  9 10  2  0
  4 11  2  0
 11 12  1  0
 12 13  1  0
 13 14  1  0
 14 15  2  0
 15 16  1  0
 16 17  2  0
 17 18  1  0
 17 19  1  0
 19 20  2  0
 20 21  1  0
 12  2  1  0
 20 14  1  0
 10  5  1  0
  6 22  1  0
  7 23  1  0
  8 24  1  0
  9 25  1  0
 10 26  1  0
 11 27  1  0
 13 28  1  0
 13 29  1  0
 15 30  1  0
 16 31  1  0
 19 32  1  0
M  CHG  1  11   1
M  END
>  <UniqueID>  (52) 
45

>  <SMILES>  (52) 
O=c1oc(-c2ccccc2)[nH+]n1Cc1ccc(Cl)cc1Cl

>  <Energy>  (52) 
74.09901470775584

>  <Genealogy>  (52) 
O=c1oc(-c2ccccc2)[nH+]n1Cc1ccc(Cl)cc1Cl (protonated)
O=c1oc(-c2ccccc2)[nH+]n1Cc1ccc(Cl)cc1Cl (3D coordinates assigned)
O=c1oc(-c2ccccc2)[nH+]n1Cc1ccc(Cl)cc1Cl (optimized conformer: 74.09901470775584 kcal/mol)

>  <smiles>  (52) 
O=c1oc(-c2ccccc2)nn1Cc1ccc(Cl)cc1Cl

>  <score_type>  (52) 
oracle

>  <origin>  (52) 
adg

>  <m_score__min__energy>  (52) 
-6.3600000000000003

>  <m_primary>  (52) 
energy

$$$$
52:0
     RDKit          3D

 34 35  0  0  1  0  0  0  0  0999 V2000
   59.6640   35.3510   46.0010 C   0  0  0  0  0  0  0  0  0  0  0  0
   58.9180   34.2960   46.6850 N   0  0  0  0  0  0  0  0  0  0  0  0
   59.2820   33.9200   48.0550 C   0  0  0  0  0  0  0  0  0  0  0  0
   57.8460   33.6440   46.0110 C   0  0  0  0  0  0  0  0  0  0  0  0
   58.0780   32.9380   44.9210 C   0  0  0  0  0  0  0  0  0  0  0  0
   57.5870   31.5790   44.7290 C   0  0  0  0  0  0  0  0  0  0  0  0
   58.4320   30.4910   44.7760 C   0  0  0  0  0  0  0  0  0  0  0  0
   57.9440   29.2010   44.5900 C   0  0  0  0  0  0  0  0  0  0  0  0
   58.8010   28.2350   44.6490 N   0  0  0  0  0  0  0  0  0  0  0  0
   58.3170   26.9080   44.4630 C   0  0  0  0  0  0  0  0  0  0  0  0
   57.8710   26.5030   43.2040 C   0  0  0  0  0  0  0  0  0  0  0  0
   57.3990   25.1960   43.0400 C   0  0  0  0  0  0  0  0  0  0  0  0
   57.3760   24.3240   44.1060 C   0  0  0  0  0  0  0  0  0  0  0  0
   56.7480   22.5330   43.9500 Br  0  0  0  0  0  0  0  0  0  0  0  0
   57.8220   24.7250   45.3630 C   0  0  0  0  0  0  0  0  0  0  0  0
   58.2930   26.0280   45.5340 C   0  0  0  0  0  0  0  0  0  0  0  0
   56.6290   28.9900   44.3600 N   0  0  0  0  0  0  0  0  0  0  0  0
   55.8010   30.0730   44.3150 C   0  0  0  0  0  0  0  0  0  0  0  0
   56.2860   31.3250   44.4970 N   0  0  0  0  0  0  0  0  0  0  0  0
   60.1312   36.0118   46.7460 H   0  0  0  0  0  0  0  0  0  0  0  0
   60.4444   34.8990   45.3712 H   0  0  0  0  0  0  0  0  0  0  0  0
   58.9777   35.9361   45.3712 H   0  0  0  0  0  0  0  0  0  0  0  0
   58.6992   34.5221   48.7676 H   0  0  0  0  0  0  0  0  0  0  0  0
   59.0646   32.8533   48.2125 H   0  0  0  0  0  0  0  0  0  0  0  0
   60.3552   34.1027   48.2125 H   0  0  0  0  0  0  0  0  0  0  0  0
   56.8209   33.7294   46.4007 H   0  0  0  0  0  0  0  0  0  0  0  0
   58.6715   33.3977   44.1170 H   0  0  0  0  0  0  0  0  0  0  0  0
   59.5051   30.6442   44.9628 H   0  0  0  0  0  0  0  0  0  0  0  0
   57.8903   27.2006   42.3537 H   0  0  0  0  0  0  0  0  0  0  0  0
   57.0441   24.8628   42.0536 H   0  0  0  0  0  0  0  0  0  0  0  0
   57.8034   24.0238   46.2104 H   0  0  0  0  0  0  0  0  0  0  0  0
   58.6464   26.3577   46.5221 H   0  0  0  0  0  0  0  0  0  0  0  0
   56.2650   28.0180   44.2200 H   0  0  0  0  0  0  0  0  0  0  0  0
   54.7266   29.9282   44.1287 H   0  0  0  0  0  0  0  0  0  0  0  0
  1  2  1  0
  2  3  1  0
  2  4  1  0
  4  5  2  0
  5  6  1  0
  6  7  2  0
  7  8  1  0
  8  9  2  0
  9 10  1  0
 10 11  2  0
 11 12  1  0
 12 13  2  0
 13 14  1  0
 13 15  1  0
 15 16  2  0
  8 17  1  0
 17 18  1  0
 18 19  2  0
 19  6  1  0
 16 10  1  0
  1 20  1  0
  1 21  1  0
  1 22  1  0
  3 23  1  0
  3 24  1  0
  3 25  1  0
  4 26  1  0
  5 27  1  0
  7 28  1  0
 11 29  1  0
 12 30  1  0
 15 31  1  0
 16 32  1  0
 17 33  1  0
 18 34  1  0
M  END
>  <smiles>  (53) 
CN(C)C=Cc1cc(=Nc2ccc(Br)cc2)[nH]cn1

>  <score_type>  (53) 
oracle

>  <origin>  (53) 
adg

>  <m_score__min__energy>  (53) 
-7

>  <m_primary>  (53) 
energy

$$$$
53:0
     RDKit          3D

 19 20  0  0  0  0  0  0  0  0999 V2000
   57.7750   23.6640   47.1960 O   0  0  0  0  0  0  0  0  0  0  0  0
   56.7700   22.5960   46.8700 S   0  0  0  0  0  0  0  0  0  0  0  0
   55.4470   22.9270   47.5010 O   0  0  0  0  0  0  0  0  0  0  0  0
   57.3320   21.0730   47.4760 N   0  0  0  0  0  0  0  0  0  0  0  0
   56.8510   20.0040   46.5990 C   0  0  0  0  0  0  0  0  0  0  0  0
   57.4350   20.1260   45.2520 N   0  0  0  0  0  0  0  0  0  0  0  0
   56.8790   21.2320   44.5090 C   0  0  0  0  0  0  0  0  0  0  0  0
   56.7240   21.1230   43.1590 N   0  0  0  0  0  0  0  0  0  0  0  0
   56.2630   22.1530   42.4000 C   0  0  0  0  0  0  0  0  0  0  0  0
   55.9470   23.3760   42.9950 C   0  0  0  0  0  0  0  0  0  0  0  0
   56.1110   23.5270   44.3730 C   0  0  0  0  0  0  0  0  0  0  0  0
   56.5870   22.4570   45.1340 C   0  0  0  0  0  0  0  0  0  0  0  0
   57.1346   19.0315   47.0277 H   0  0  0  0  0  0  0  0  0  0  0  0
   55.7570   20.0831   46.5161 H   0  0  0  0  0  0  0  0  0  0  0  0
   58.4720   20.2550   45.3250 H   0  0  0  0  0  0  0  0  0  0  0  0
   57.2480   19.2380   44.7310 H   0  0  0  0  0  0  0  0  0  0  0  0
   56.1388   22.0223   41.3149 H   0  0  0  0  0  0  0  0  0  0  0  0
   55.5730   24.2112   42.3846 H   0  0  0  0  0  0  0  0  0  0  0  0
   55.8665   24.4840   44.8571 H   0  0  0  0  0  0  0  0  0  0  0  0
  1  2  2  0
  2  3  2  0
  2  4  1  0
  4  5  1  0
  5  6  1  0
  6  7  1  0
  7  8  2  0
  8  9  1  0
  9 10  2  0
 10 11  1  0
 11 12  2  0
 12  2  1  0
 12  7  1  0
  5 13  1  0
  5 14  1  0
  6 15  1  0
  6 16  1  0
  9 17  1  0
 10 18  1  0
 11 19  1  0
M  CHG  2   4  -1   6   1
M  END
>  <UniqueID>  (54) 
46

>  <SMILES>  (54) 
O=S1(=O)[N-]C[NH2+]c2ncccc21

>  <Energy>  (54) 
23.537764834607216

>  <Genealogy>  (54) 
O=S1(=O)[N-]C[NH2+]c2ncccc21 (protonated)
O=S1(=O)[N-]C[NH2+]c2ncccc21 (3D coordinates assigned)
O=S1(=O)[N-]C[NH2+]c2ncccc21 (nonaromatic ring conformer: 23.537764834607216 kcal/mol)

>  <smiles>  (54) 
O=S1(=O)NCNc2ncccc21

>  <score_type>  (54) 
oracle

>  <origin>  (54) 
adg

>  <m_score__min__energy>  (54) 
-5.5199999999999996

>  <m_primary>  (54) 
energy

$$$$
54:0
     RDKit          3D

 41 43  0  0  0  0  0  0  0  0999 V2000
   55.3120   23.0640   46.8170 C   0  0  0  0  0  0  0  0  0  0  0  0
   55.4060   24.0790   45.7630 N   0  0  0  0  0  0  0  0  0  0  0  0
   55.1520   23.7150   44.3630 C   0  0  0  0  0  0  0  0  0  0  0  0
   56.1580   22.7080   43.9020 C   0  0  0  0  0  0  0  0  0  0  0  0
   57.4770   22.6440   44.3060 C   0  0  0  0  0  0  0  0  0  0  0  0
   58.0090   21.5540   43.6530 C   0  0  0  0  0  0  0  0  0  0  0  0
   56.9850   21.0220   42.8950 C   0  0  0  0  0  0  0  0  0  0  0  0
   55.8940   21.7310   43.0660 O   0  0  0  0  0  0  0  0  0  0  0  0
   55.7070   25.4430   46.1160 C   0  0  0  0  0  0  0  0  0  0  0  0
   54.8340   26.3400   45.9610 O   0  0  0  0  0  0  0  0  0  0  0  0
   56.9820   25.7700   46.6870 N   0  0  0  0  0  0  0  0  0  0  0  0
   57.7070   26.9960   46.5140 C   0  0  0  0  0  0  0  0  0  0  0  0
   58.4890   27.5520   47.5420 C   0  0  0  0  0  0  0  0  0  0  0  0
   59.1580   28.7640   47.3420 C   0  0  0  0  0  0  0  0  0  0  0  0
   59.0320   29.4510   46.1210 C   0  0  0  0  0  0  0  0  0  0  0  0
   59.7000   30.6600   45.8780 O   0  0  0  0  0  0  0  0  0  0  0  0
   59.0910   31.9190   45.7680 C   0  0  0  0  0  0  0  0  0  0  0  0
   59.6840   33.0110   46.4120 C   0  0  0  0  0  0  0  0  0  0  0  0
   59.1150   34.2850   46.3140 C   0  0  0  0  0  0  0  0  0  0  0  0
   57.9550   34.4770   45.5600 C   0  0  0  0  0  0  0  0  0  0  0  0
   57.3660   33.3960   44.8970 C   0  0  0  0  0  0  0  0  0  0  0  0
   57.9330   32.1220   44.9940 C   0  0  0  0  0  0  0  0  0  0  0  0
   58.2500   28.8970   45.1020 C   0  0  0  0  0  0  0  0  0  0  0  0
   57.5810   27.6860   45.3020 C   0  0  0  0  0  0  0  0  0  0  0  0
   55.3572   23.5525   47.8015 H   0  0  0  0  0  0  0  0  0  0  0  0
   54.3598   22.5218   46.7201 H   0  0  0  0  0  0  0  0  0  0  0  0
   56.1484   22.3562   46.7201 H   0  0  0  0  0  0  0  0  0  0  0  0
   54.1425   23.2867   44.2760 H   0  0  0  0  0  0  0  0  0  0  0  0
   55.2320   24.6159   43.7370 H   0  0  0  0  0  0  0  0  0  0  0  0
   57.9938   23.3207   45.0024 H   0  0  0  0  0  0  0  0  0  0  0  0
   59.0420   21.1822   43.7217 H   0  0  0  0  0  0  0  0  0  0  0  0
   57.0706   20.1379   42.2461 H   0  0  0  0  0  0  0  0  0  0  0  0
   58.5749   27.0317   48.5073 H   0  0  0  0  0  0  0  0  0  0  0  0
   59.7854   29.1818   48.1431 H   0  0  0  0  0  0  0  0  0  0  0  0
   60.6031   32.8665   46.9988 H   0  0  0  0  0  0  0  0  0  0  0  0
   59.5815   35.1364   46.8312 H   0  0  0  0  0  0  0  0  0  0  0  0
   57.5051   35.4782   45.4878 H   0  0  0  0  0  0  0  0  0  0  0  0
   56.4557   33.5482   44.2986 H   0  0  0  0  0  0  0  0  0  0  0  0
   57.4727   31.2753   44.4637 H   0  0  0  0  0  0  0  0  0  0  0  0
   58.1609   29.4176   44.1371 H   0  0  0  0  0  0  0  0  0  0  0  0
   56.9508   27.2719   44.5012 H   0  0  0  0  0  0  0  0  0  0  0  0
  1  2  1  0
  2  3  1  0
  3  4  1  0
  4  5  2  0
  5  6  1  0
  6  7  2  0
  7  8  1  0
  2  9  1  0
  9 10  2  0
  9 11  1  0
 11 12  1  0
 12 13  2  0
 13 14  1  0
 14 15  2  0
 15 16  1  0
 16 17  1  0
 17 18  2  0
 18 19  1  0
 19 20  2  0
 20 21  1  0
 21 22  2  0
 15 23  1  0
 23 24  2  0
  8  4  1  0
 24 12  1  0
 22 17  1  0
  1 25  1  0
  1 26  1  0
  1 27  1  0
  3 28  1  0
  3 29  1  0
  5 30  1  0
  6 31  1  0
  7 32  1  0
 13 33  1  0
 14 34  1  0
 18 35  1  0
 19 36  1  0
 20 37  1  0
 21 38  1  0
 22 39  1  0
 23 40  1  0
 24 41  1  0
M  CHG  1  11  -1
M  END
>  <UniqueID>  (55) 
47

>  <SMILES>  (55) 
CN(Cc1ccco1)C(=O)[N-]c1ccc(Oc2ccccc2)cc1

>  <Energy>  (55) 
74.96535744604235

>  <Genealogy>  (55) 
CN(Cc1ccco1)C(=O)[N-]c1ccc(Oc2ccccc2)cc1 (protonated)
CN(Cc1ccco1)C(=O)[N-]c1ccc(Oc2ccccc2)cc1 (3D coordinates assigned)
CN(Cc1ccco1)C(=O)[N-]c1ccc(Oc2ccccc2)cc1 (optimized conformer: 74.96535744604235 kcal/mol)

>  <smiles>  (55) 
CN(Cc1ccco1)C(=O)Nc1ccc(Oc2ccccc2)cc1

>  <score_type>  (55) 
oracle

>  <origin>  (55) 
adg

>  <m_score__min__energy>  (55) 
-10.42

>  <m_primary>  (55) 
energy

$$$$
55:0
     RDKit          3D

 50 53  0  0  0  0  0  0  0  0999 V2000
   64.3870   32.8510   49.2680 C   0  0  0  0  0  0  0  0  0  0  0  0
   63.2780   33.7260   49.0930 O   0  0  0  0  0  0  0  0  0  0  0  0
   62.1460   33.4250   48.3200 C   0  0  0  0  0  0  0  0  0  0  0  0
   61.0520   34.2950   48.3750 C   0  0  0  0  0  0  0  0  0  0  0  0
   59.9020   34.0410   47.6230 C   0  0  0  0  0  0  0  0  0  0  0  0
   59.8260   32.9060   46.7950 C   0  0  0  0  0  0  0  0  0  0  0  0
   58.6170   32.6200   45.9870 C   0  0  0  0  0  0  0  0  0  0  0  0
   58.5780   31.7270   44.9750 N   0  0  0  0  0  0  0  0  0  0  0  0
   57.3290   31.7850   44.5380 N   0  0  0  0  0  0  0  0  0  0  0  0
   56.7900   30.9380   43.4840 C   0  0  0  0  0  0  0  0  0  0  0  0
   55.8990   29.8990   44.0830 C   0  0  0  0  0  0  0  0  0  0  0  0
   54.7770   29.6630   43.5600 O   0  0  0  0  0  0  0  0  0  0  0  0
   56.3330   29.1890   45.2490 N   0  0  0  0  0  0  0  0  0  0  0  0
   57.6870   28.8570   45.5890 C   0  0  0  0  0  0  0  0  0  0  0  0
   58.5790   28.5390   44.5590 C   0  0  0  0  0  0  0  0  0  0  0  0
   59.9100   28.2330   44.8460 C   0  0  0  0  0  0  0  0  0  0  0  0
   60.3660   28.2530   46.1660 C   0  0  0  0  0  0  0  0  0  0  0  0
   59.4910   28.5830   47.2150 C   0  0  0  0  0  0  0  0  0  0  0  0
   59.9740   28.6480   48.6170 C   0  0  0  0  0  0  0  0  0  0  0  0
   60.4060   27.5950   49.1610 O   0  0  0  0  0  0  0  0  0  0  0  0
   59.9650   29.9080   49.4010 C   0  0  0  0  0  0  0  0  0  0  0  0
   61.0770   30.2860   50.1780 C   0  0  0  0  0  0  0  0  0  0  0  0
   61.0480   31.4670   50.9250 C   0  0  0  0  0  0  0  0  0  0  0  0
   59.9100   32.2750   50.9150 C   0  0  0  0  0  0  0  0  0  0  0  0
   58.7960   31.9020   50.1590 C   0  0  0  0  0  0  0  0  0  0  0  0
   58.8190   30.7220   49.4100 C   0  0  0  0  0  0  0  0  0  0  0  0
   58.1550   28.9040   46.9170 C   0  0  0  0  0  0  0  0  0  0  0  0
   56.6150   32.6480   45.2410 N   0  0  0  0  0  0  0  0  0  0  0  0
   57.4050   33.1890   46.1510 N   0  0  0  0  0  0  0  0  0  0  0  0
   60.9270   32.0330   46.7420 C   0  0  0  0  0  0  0  0  0  0  0  0
   62.0760   32.2870   47.4960 C   0  0  0  0  0  0  0  0  0  0  0  0
   64.5726   32.7046   50.3423 H   0  0  0  0  0  0  0  0  0  0  0  0
   64.1664   31.8810   48.7985 H   0  0  0  0  0  0  0  0  0  0  0  0
   65.2790   33.2912   48.7985 H   0  0  0  0  0  0  0  0  0  0  0  0
   61.0974   35.1875   49.0163 H   0  0  0  0  0  0  0  0  0  0  0  0
   59.0494   34.7338   47.6788 H   0  0  0  0  0  0  0  0  0  0  0  0
   56.2121   31.5537   42.7791 H   0  0  0  0  0  0  0  0  0  0  0  0
   57.6174   30.4467   42.9509 H   0  0  0  0  0  0  0  0  0  0  0  0
   58.2289   28.5301   43.5162 H   0  0  0  0  0  0  0  0  0  0  0  0
   60.6018   27.9754   44.0305 H   0  0  0  0  0  0  0  0  0  0  0  0
   61.4159   28.0091   46.3857 H   0  0  0  0  0  0  0  0  0  0  0  0
   61.9732   29.6484   50.1971 H   0  0  0  0  0  0  0  0  0  0  0  0
   61.9240   31.7603   51.5221 H   0  0  0  0  0  0  0  0  0  0  0  0
   59.8903   33.2050   51.5021 H   0  0  0  0  0  0  0  0  0  0  0  0
   57.8987   32.5383   50.1531 H   0  0  0  0  0  0  0  0  0  0  0  0
   57.9353   30.4287   48.8243 H   0  0  0  0  0  0  0  0  0  0  0  0
   57.4698   29.1941   47.7271 H   0  0  0  0  0  0  0  0  0  0  0  0
   57.1030   33.9060   46.8450 H   0  0  0  0  0  0  0  0  0  0  0  0
   60.8835   31.1407   46.1003 H   0  0  0  0  0  0  0  0  0  0  0  0
   62.9290   31.5943   47.4449 H   0  0  0  0  0  0  0  0  0  0  0  0
  1  2  1  0
  2  3  1  0
  3  4  2  0
  4  5  1  0
  5  6  2  0
  6  7  1  0
  7  8  2  0
  8  9  1  0
  9 10  1  0
 10 11  1  0
 11 12  2  0
 11 13  1  0
 13 14  1  0
 14 15  2  0
 15 16  1  0
 16 17  2  0
 17 18  1  0
 18 19  1  0
 19 20  2  0
 19 21  1  0
 21 22  2  0
 22 23  1  0
 23 24  2  0
 24 25  1  0
 25 26  2  0
 18 27  2  0
  9 28  1  0
 28 29  2  0
  6 30  1  0
 30 31  2  0
 31  3  1  0
 29  7  1  0
 27 14  1  0
 26 21  1  0
  1 32  1  0
  1 33  1  0
  1 34  1  0
  4 35  1  0
  5 36  1  0
 10 37  1  0
 10 38  1  0
 15 39  1  0
 16 40  1  0
 17 41  1  0
 22 42  1  0
 23 43  1  0
 24 44  1  0
 25 45  1  0
 26 46  1  0
 27 47  1  0
 29 48  1  0
 30 49  1  0
 31 50  1  0
M  CHG  2  13  -1  29   1
M  END
>  <UniqueID>  (56) 
48

>  <SMILES>  (56) 
COc1ccc(-c2nn(CC(=O)[N-]c3cccc(C(=O)c4ccccc4)c3)n[nH+]2)cc1

>  <Energy>  (56) 
102.10758338542965

>  <Genealogy>  (56) 
COc1ccc(-c2nn(CC(=O)[N-]c3cccc(C(=O)c4ccccc4)c3)n[nH+]2)cc1 (protonated)
COc1ccc(-c2nn(CC(=O)[N-]c3cccc(C(=O)c4ccccc4)c3)n[nH+]2)cc1 (3D coordinates assigned)
COc1ccc(-c2nn(CC(=O)[N-]c3cccc(C(=O)c4ccccc4)c3)n[nH+]2)cc1 (optimized conformer: 102.10758338542965 kcal/mol)

>  <smiles>  (56) 
COc1ccc(-c2nnn(CC(=O)Nc3cccc(C(=O)c4ccccc4)c3)n2)cc1

>  <score_type>  (56) 
oracle

>  <origin>  (56) 
adg

>  <m_score__min__energy>  (56) 
-10.41

>  <m_primary>  (56) 
energy

$$$$
56:0
     RDKit          3D

 29 30  0  0  0  0  0  0  0  0999 V2000
   64.9320   32.7330   48.9830 N   0  0  0  0  0  0  0  0  0  0  0  0
   63.6940   33.1930   48.4350 C   0  0  0  0  0  0  0  0  0  0  0  0
   62.6590   33.6150   49.2820 C   0  0  0  0  0  0  0  0  0  0  0  0
   61.4490   34.0640   48.7450 C   0  0  0  0  0  0  0  0  0  0  0  0
   61.2600   34.0910   47.3560 C   0  0  0  0  0  0  0  0  0  0  0  0
   59.7470   34.6810   46.6820 S   0  0  0  0  0  0  0  0  0  0  0  0
   58.9180   35.3180   47.7630 O   0  0  0  0  0  0  0  0  0  0  0  0
   60.0240   35.7210   45.6330 O   0  0  0  0  0  0  0  0  0  0  0  0
   58.8710   33.3320   45.9720 C   0  0  0  0  0  0  0  0  0  0  0  0
   58.1170   33.5160   44.8050 C   0  0  0  0  0  0  0  0  0  0  0  0
   57.4050   32.4480   44.2510 C   0  0  0  0  0  0  0  0  0  0  0  0
   57.4310   31.1790   44.8610 C   0  0  0  0  0  0  0  0  0  0  0  0
   56.6980   30.0770   44.2940 N   0  0  0  0  0  0  0  0  0  0  0  0
   57.1100   29.4990   43.2670 O   0  0  0  0  0  0  0  0  0  0  0  0
   55.5310   29.6410   44.8780 O   0  0  0  0  0  0  0  0  0  0  0  0
   58.1810   31.0060   46.0360 C   0  0  0  0  0  0  0  0  0  0  0  0
   58.8930   32.0750   46.5890 C   0  0  0  0  0  0  0  0  0  0  0  0
   62.2980   33.6780   46.5080 C   0  0  0  0  0  0  0  0  0  0  0  0
   63.5070   33.2280   47.0450 C   0  0  0  0  0  0  0  0  0  0  0  0
   65.8410   32.9790   48.5300 H   0  0  0  0  0  0  0  0  0  0  0  0
   64.9500   32.1430   49.8440 H   0  0  0  0  0  0  0  0  0  0  0  0
   62.7998   33.5926   50.3727 H   0  0  0  0  0  0  0  0  0  0  0  0
   60.6423   34.3973   49.4145 H   0  0  0  0  0  0  0  0  0  0  0  0
   58.0853   34.5044   44.3232 H   0  0  0  0  0  0  0  0  0  0  0  0
   56.8202   32.6000   43.3318 H   0  0  0  0  0  0  0  0  0  0  0  0
   58.2085   30.0212   46.5253 H   0  0  0  0  0  0  0  0  0  0  0  0
   59.4726   31.9280   47.5123 H   0  0  0  0  0  0  0  0  0  0  0  0
   62.1600   33.7084   45.4171 H   0  0  0  0  0  0  0  0  0  0  0  0
   64.3155   32.8998   46.3751 H   0  0  0  0  0  0  0  0  0  0  0  0
  1  2  1  0
  2  3  2  0
  3  4  1  0
  4  5  2  0
  5  6  1  0
  6  7  2  0
  6  8  2  0
  6  9  1  0
  9 10  2  0
 10 11  1  0
 11 12  2  0
 12 13  1  0
 13 14  2  0
 13 15  1  0
 12 16  1  0
 16 17  2  0
  5 18  1  0
 18 19  2  0
 19  2  1  0
 17  9  1  0
  1 20  1  0
  1 21  1  0
  3 22  1  0
  4 23  1  0
 10 24  1  0
 11 25  1  0
 16 26  1  0
 17 27  1  0
 18 28  1  0
 19 29  1  0
M  CHG  2  13   1  15  -1
M  END
>  <UniqueID>  (57) 
49

>  <SMILES>  (57) 
Nc1ccc(S(=O)(=O)c2ccc([N+](=O)[O-])cc2)cc1

>  <Energy>  (57) 
31.871524465568584

>  <Genealogy>  (57) 
Nc1ccc(S(=O)(=O)c2ccc([N+](=O)[O-])cc2)cc1 (3D coordinates assigned)
Nc1ccc(S(=O)(=O)c2ccc([N+](=O)[O-])cc2)cc1 (optimized conformer: 31.871524465568584 kcal/mol)

>  <smiles>  (57) 
Nc1ccc(S(=O)(=O)c2ccc([N+](=O)[O-])cc2)cc1

>  <score_type>  (57) 
oracle

>  <origin>  (57) 
adg

>  <m_score__min__energy>  (57) 
-7.54

>  <m_primary>  (57) 
energy

$$$$
57:0
     RDKit          3D

 52 55  0  0  0  0  0  0  0  0999 V2000
   62.8370   33.7850   46.7340 C   0  0  0  0  0  0  0  0  0  0  0  0
   61.5720   34.1650   47.2680 O   0  0  0  0  0  0  0  0  0  0  0  0
   60.3710   34.1740   46.5410 C   0  0  0  0  0  0  0  0  0  0  0  0
   60.0240   35.2380   45.6850 C   0  0  0  0  0  0  0  0  0  0  0  0
   58.8290   35.2030   44.9630 C   0  0  0  0  0  0  0  0  0  0  0  0
   57.9690   34.1100   45.0830 C   0  0  0  0  0  0  0  0  0  0  0  0
   58.3010   33.0510   45.9280 C   0  0  0  0  0  0  0  0  0  0  0  0
   59.4960   33.0780   46.6680 C   0  0  0  0  0  0  0  0  0  0  0  0
   59.8150   31.9990   47.5640 N   0  0  0  0  0  0  0  0  0  0  0  0
   58.7690   31.5060   48.4630 C   0  0  0  0  0  0  0  0  0  0  0  0
   59.3960   30.8760   49.7070 C   0  0  0  0  0  0  0  0  0  0  0  0
   60.3780   29.8290   49.3530 N   0  0  0  0  0  0  0  0  0  0  0  0
   59.7160   28.6250   48.8480 C   0  0  0  0  0  0  0  0  0  0  0  0
   58.5010   28.5330   48.9650 O   0  0  0  0  0  0  0  0  0  0  0  0
   60.4250   27.4690   48.1810 C   0  0  0  0  0  0  0  0  0  0  0  0
   59.9650   27.3380   46.8390 O   0  0  0  0  0  0  0  0  0  0  0  0
   58.6130   27.3680   46.4530 C   0  0  0  0  0  0  0  0  0  0  0  0
   57.7080   26.3660   46.8430 C   0  0  0  0  0  0  0  0  0  0  0  0
   56.3840   26.4290   46.4000 C   0  0  0  0  0  0  0  0  0  0  0  0
   55.5650   25.5350   46.7420 O   0  0  0  0  0  0  0  0  0  0  0  0
   55.9800   27.4230   45.6170 O   0  0  0  0  0  0  0  0  0  0  0  0
   56.7920   28.3990   45.2250 C   0  0  0  0  0  0  0  0  0  0  0  0
   56.3040   29.4130   44.3930 C   0  0  0  0  0  0  0  0  0  0  0  0
   57.1490   30.4420   43.9710 C   0  0  0  0  0  0  0  0  0  0  0  0
   58.4830   30.4700   44.3860 C   0  0  0  0  0  0  0  0  0  0  0  0
   58.9810   29.4650   45.2200 C   0  0  0  0  0  0  0  0  0  0  0  0
   58.1450   28.4160   45.6400 C   0  0  0  0  0  0  0  0  0  0  0  0
   61.4650   30.3980   48.5190 C   0  0  0  0  0  0  0  0  0  0  0  0
   60.9640   31.1380   47.2630 C   0  0  0  0  0  0  0  0  0  0  0  0
   63.5348   33.5754   47.5581 H   0  0  0  0  0  0  0  0  0  0  0  0
   62.7180   32.8829   46.1158 H   0  0  0  0  0  0  0  0  0  0  0  0
   63.2348   34.6033   46.1158 H   0  0  0  0  0  0  0  0  0  0  0  0
   60.6983   36.1013   45.5848 H   0  0  0  0  0  0  0  0  0  0  0  0
   58.5649   36.0387   44.2982 H   0  0  0  0  0  0  0  0  0  0  0  0
   57.0296   34.0838   44.5113 H   0  0  0  0  0  0  0  0  0  0  0  0
   57.6233   32.1890   46.0159 H   0  0  0  0  0  0  0  0  0  0  0  0
   58.1250   32.3448   48.7658 H   0  0  0  0  0  0  0  0  0  0  0  0
   58.1728   30.7457   47.9372 H   0  0  0  0  0  0  0  0  0  0  0  0
   59.9046   31.6607   50.2864 H   0  0  0  0  0  0  0  0  0  0  0  0
   58.5935   30.4087   50.2966 H   0  0  0  0  0  0  0  0  0  0  0  0
   60.8340   29.5390   50.2500 H   0  0  0  0  0  0  0  0  0  0  0  0
   61.5091   27.6555   48.1801 H   0  0  0  0  0  0  0  0  0  0  0  0
   60.2120   26.5416   48.7329 H   0  0  0  0  0  0  0  0  0  0  0  0
   58.0385   25.5404   47.4905 H   0  0  0  0  0  0  0  0  0  0  0  0
   55.2524   29.3996   44.0706 H   0  0  0  0  0  0  0  0  0  0  0  0
   56.7633   31.2324   43.3103 H   0  0  0  0  0  0  0  0  0  0  0  0
   59.1432   31.2854   44.0554 H   0  0  0  0  0  0  0  0  0  0  0  0
   60.0303   29.4951   45.5487 H   0  0  0  0  0  0  0  0  0  0  0  0
   62.0384   31.1074   49.1337 H   0  0  0  0  0  0  0  0  0  0  0  0
   62.0765   29.5528   48.1700 H   0  0  0  0  0  0  0  0  0  0  0  0
   61.7804   31.7588   46.8653 H   0  0  0  0  0  0  0  0  0  0  0  0
   60.6460   30.3863   46.5256 H   0  0  0  0  0  0  0  0  0  0  0  0
  1  2  1  0
  2  3  1  0
  3  4  2  0
  4  5  1  0
  5  6  2  0
  6  7  1  0
  7  8  2  0
  8  9  1  0
  9 10  1  0
 10 11  1  0
 11 12  1  0
 12 13  1  0
 13 14  2  0
 13 15  1  0
 15 16  1  0
 16 17  1  0
 17 18  2  0
 18 19  1  0
 19 20  2  0
 19 21  1  0
 21 22  1  0
 22 23  2  0
 23 24  1  0
 24 25  2  0
 25 26  1  0
 26 27  2  0
 12 28  1  0
 28 29  1  0
  8  3  1  0
 29  9  1  0
 27 17  1  0
 27 22  1  0
  1 30  1  0
  1 31  1  0
  1 32  1  0
  4 33  1  0
  5 34  1  0
  6 35  1  0
  7 36  1  0
 10 37  1  0
 10 38  1  0
 11 39  1  0
 11 40  1  0
 12 41  1  0
 15 42  1  0
 15 43  1  0
 18 44  1  0
 23 45  1  0
 24 46  1  0
 25 47  1  0
 26 48  1  0
 28 49  1  0
 28 50  1  0
 29 51  1  0
 29 52  1  0
M  CHG  1  12   1
M  END
>  <UniqueID>  (58) 
50

>  <SMILES>  (58) 
COc1ccccc1N1CC[NH+](C(=O)COc2cc(=O)oc3ccccc23)CC1

>  <Energy>  (58) 
68.94814029257097

>  <Genealogy>  (58) 
COc1ccccc1N1CC[NH+](C(=O)COc2cc(=O)oc3ccccc23)CC1 (protonated)
COc1ccccc1N1CC[NH+](C(=O)COc2cc(=O)oc3ccccc23)CC1 (3D coordinates assigned)
COc1ccccc1N1CC[NH+](C(=O)COc2cc(=O)oc3ccccc23)CC1 (nonaromatic ring conformer: 68.94814029257097 kcal/mol)

>  <smiles>  (58) 
COc1ccccc1N1CCN(C(=O)COc2cc(=O)oc3ccccc23)CC1

>  <score_type>  (58) 
oracle

>  <origin>  (58) 
adg

>  <m_score__min__energy>  (58) 
-6.8499999999999996

>  <m_primary>  (58) 
energy

$$$$
58:0
     RDKit          3D

 31 33  0  0  0  0  0  0  0  0999 V2000
   55.2250   29.3380   44.8480 N   0  0  0  0  0  0  0  0  0  0  0  0
   56.4700   29.6840   44.2440 C   0  0  0  0  0  0  0  0  0  0  0  0
   56.8880   29.0160   43.2620 O   0  0  0  0  0  0  0  0  0  0  0  0
   57.2370   30.8340   44.7540 C   0  0  0  0  0  0  0  0  0  0  0  0
   57.3980   32.3010   43.9220 S   0  0  0  0  0  0  0  0  0  0  0  0
   58.4530   32.9970   45.0270 C   0  0  0  0  0  0  0  0  0  0  0  0
   59.0340   34.2600   44.9830 C   0  0  0  0  0  0  0  0  0  0  0  0
   59.8940   34.6310   46.0270 C   0  0  0  0  0  0  0  0  0  0  0  0
   60.1570   33.7400   47.0920 C   0  0  0  0  0  0  0  0  0  0  0  0
   61.0330   34.1290   48.1520 N   0  0  0  0  0  0  0  0  0  0  0  0
   59.5520   32.4660   47.1070 C   0  0  0  0  0  0  0  0  0  0  0  0
   58.7000   32.1070   46.0590 C   0  0  0  0  0  0  0  0  0  0  0  0
   58.0100   30.8950   45.9260 C   0  0  0  0  0  0  0  0  0  0  0  0
   58.1110   29.8710   46.8760 O   0  0  0  0  0  0  0  0  0  0  0  0
   58.6480   28.5980   46.6310 C   0  0  0  0  0  0  0  0  0  0  0  0
   57.7980   27.4900   46.7490 C   0  0  0  0  0  0  0  0  0  0  0  0
   58.2800   26.1990   46.5210 C   0  0  0  0  0  0  0  0  0  0  0  0
   59.6160   26.0030   46.1630 C   0  0  0  0  0  0  0  0  0  0  0  0
   60.4690   27.1000   46.0240 C   0  0  0  0  0  0  0  0  0  0  0  0
   59.9930   28.3970   46.2500 C   0  0  0  0  0  0  0  0  0  0  0  0
   60.8350   29.4420   46.0590 F   0  0  0  0  0  0  0  0  0  0  0  0
   55.1810   28.6400   45.6230 H   0  0  0  0  0  0  0  0  0  0  0  0
   58.8246   34.9493   44.1518 H   0  0  0  0  0  0  0  0  0  0  0  0
   60.3677   35.6237   46.0168 H   0  0  0  0  0  0  0  0  0  0  0  0
   61.8300   33.5170   48.4380 H   0  0  0  0  0  0  0  0  0  0  0  0
   60.8910   35.0310   48.6600 H   0  0  0  0  0  0  0  0  0  0  0  0
   59.7480   31.7650   47.9318 H   0  0  0  0  0  0  0  0  0  0  0  0
   56.7431   27.6382   47.0233 H   0  0  0  0  0  0  0  0  0  0  0  0
   57.6065   25.3353   46.6235 H   0  0  0  0  0  0  0  0  0  0  0  0
   59.9959   24.9852   45.9907 H   0  0  0  0  0  0  0  0  0  0  0  0
   61.5191   26.9443   45.7358 H   0  0  0  0  0  0  0  0  0  0  0  0
  1  2  1  0
  2  3  2  0
  2  4  1  0
  4  5  1  0
  5  6  1  0
  6  7  2  0
  7  8  1  0
  8  9  2  0
  9 10  1  0
  9 11  1  0
 11 12  2  0
 12 13  1  0
 13 14  1  0
 14 15  1  0
 15 16  2  0
 16 17  1  0
 17 18  2  0
 18 19  1  0
 19 20  2  0
 20 21  1  0
 13  4  2  0
 20 15  1  0
 12  6  1  0
  1 22  1  0
  7 23  1  0
  8 24  1  0
 10 25  1  0
 10 26  1  0
 11 27  1  0
 16 28  1  0
 17 29  1  0
 18 30  1  0
 19 31  1  0
M  CHG  1   1  -1
M  END
>  <UniqueID>  (59) 
51

>  <SMILES>  (59) 
[NH-]C(=O)c1sc2ccc(N)cc2c1Oc1ccccc1F

>  <Energy>  (59) 
72.46152696007024

>  <Genealogy>  (59) 
[NH-]C(=O)c1sc2ccc(N)cc2c1Oc1ccccc1F (protonated)
[NH-]C(=O)c1sc2ccc(N)cc2c1Oc1ccccc1F (3D coordinates assigned)
[NH-]C(=O)c1sc2ccc(N)cc2c1Oc1ccccc1F (optimized conformer: 72.46152696007024 kcal/mol)

>  <smiles>  (59) 
NC(=O)c1sc2ccc(N)cc2c1Oc1ccccc1F

>  <score_type>  (59) 
oracle

>  <origin>  (59) 
adg

>  <m_score__min__energy>  (59) 
-9.5299999999999994

>  <m_primary>  (59) 
energy

$$$$
59:0
     RDKit          3D

 38 40  0  0  0  0  0  0  0  0999 V2000
   61.4870   30.0500   46.3300 O   0  0  0  0  0  0  0  0  0  0  0  0
   60.5810   30.7750   46.8260 C   0  0  0  0  0  0  0  0  0  0  0  0
   59.2020   30.4050   46.6550 N   0  0  0  0  0  0  0  0  0  0  0  0
   58.7570   29.4790   45.6470 C   0  0  0  0  0  0  0  0  0  0  0  0
   59.3600   28.2130   45.5420 C   0  0  0  0  0  0  0  0  0  0  0  0
   58.9840   27.3290   44.5300 C   0  0  0  0  0  0  0  0  0  0  0  0
   58.0090   27.6990   43.6040 C   0  0  0  0  0  0  0  0  0  0  0  0
   57.4070   28.9550   43.6880 C   0  0  0  0  0  0  0  0  0  0  0  0
   57.7760   29.8600   44.6990 C   0  0  0  0  0  0  0  0  0  0  0  0
   57.0770   31.1640   44.7920 C   0  0  0  0  0  0  0  0  0  0  0  0
   55.8400   31.2070   44.5520 O   0  0  0  0  0  0  0  0  0  0  0  0
   57.7940   32.4180   45.1370 C   0  0  0  0  0  0  0  0  0  0  0  0
   57.6590   33.0050   46.4100 C   0  0  0  0  0  0  0  0  0  0  0  0
   58.3310   34.1910   46.7180 C   0  0  0  0  0  0  0  0  0  0  0  0
   59.1390   34.8080   45.7600 C   0  0  0  0  0  0  0  0  0  0  0  0
   59.2720   34.2420   44.4900 C   0  0  0  0  0  0  0  0  0  0  0  0
   58.6020   33.0560   44.1770 C   0  0  0  0  0  0  0  0  0  0  0  0
   60.9580   31.9750   47.6120 C   0  0  0  0  0  0  0  0  0  0  0  0
   62.1150   32.7150   47.2970 C   0  0  0  0  0  0  0  0  0  0  0  0
   62.4610   33.8400   48.0510 C   0  0  0  0  0  0  0  0  0  0  0  0
   61.6640   34.2370   49.1280 C   0  0  0  0  0  0  0  0  0  0  0  0
   60.5210   33.5060   49.4560 C   0  0  0  0  0  0  0  0  0  0  0  0
   60.1700   32.3780   48.7070 C   0  0  0  0  0  0  0  0  0  0  0  0
   58.5030   30.7610   47.3440 H   0  0  0  0  0  0  0  0  0  0  0  0
   60.1351   27.9169   46.2642 H   0  0  0  0  0  0  0  0  0  0  0  0
   59.4575   26.3384   44.4624 H   0  0  0  0  0  0  0  0  0  0  0  0
   57.7144   27.0004   42.8070 H   0  0  0  0  0  0  0  0  0  0  0  0
   56.6365   29.2399   42.9564 H   0  0  0  0  0  0  0  0  0  0  0  0
   57.0202   32.5267   47.1671 H   0  0  0  0  0  0  0  0  0  0  0  0
   58.2235   34.6395   47.7167 H   0  0  0  0  0  0  0  0  0  0  0  0
   59.6703   35.7393   46.0057 H   0  0  0  0  0  0  0  0  0  0  0  0
   59.9052   34.7306   43.7348 H   0  0  0  0  0  0  0  0  0  0  0  0
   58.7068   32.6181   43.1734 H   0  0  0  0  0  0  0  0  0  0  0  0
   62.7493   32.4057   46.4532 H   0  0  0  0  0  0  0  0  0  0  0  0
   63.3636   34.4147   47.7958 H   0  0  0  0  0  0  0  0  0  0  0  0
   61.9372   35.1250   49.7169 H   0  0  0  0  0  0  0  0  0  0  0  0
   59.8951   33.8176   50.3052 H   0  0  0  0  0  0  0  0  0  0  0  0
   59.2722   31.8018   48.9753 H   0  0  0  0  0  0  0  0  0  0  0  0
  1  2  2  0
  2  3  1  0
  3  4  1  0
  4  5  2  0
  5  6  1  0
  6  7  2  0
  7  8  1  0
  8  9  2  0
  9 10  1  0
 10 11  2  0
 10 12  1  0
 12 13  2  0
 13 14  1  0
 14 15  2  0
 15 16  1  0
 16 17  2  0
  2 18  1  0
 18 19  2  0
 19 20  1  0
 20 21  2  0
 21 22  1  0
 22 23  2  0
  9  4  1  0
 17 12  1  0
 23 18  1  0
  3 24  1  0
  5 25  1  0
  6 26  1  0
  7 27  1  0
  8 28  1  0
 13 29  1  0
 14 30  1  0
 15 31  1  0
 16 32  1  0
 17 33  1  0
 19 34  1  0
 20 35  1  0
 21 36  1  0
 22 37  1  0
 23 38  1  0
M  END
>  <UniqueID>  (60) 
52

>  <SMILES>  (60) 
O=C(Nc1ccccc1C(=O)c1ccccc1)c1ccccc1

>  <Energy>  (60) 
54.80468839236654

>  <Genealogy>  (60) 
O=C(Nc1ccccc1C(=O)c1ccccc1)c1ccccc1 (3D coordinates assigned)
O=C(Nc1ccccc1C(=O)c1ccccc1)c1ccccc1 (optimized conformer: 54.80468839236654 kcal/mol)

>  <smiles>  (60) 
O=C(Nc1ccccc1C(=O)c1ccccc1)c1ccccc1

>  <score_type>  (60) 
oracle

>  <origin>  (60) 
adg

>  <m_score__min__energy>  (60) 
-8.1099999999999994

>  <m_primary>  (60) 
energy

$$$$
60:0
     RDKit          3D

 72 75  0  0  0  0  0  0  0  0999 V2000
   57.3980   32.0130   42.3240 C   0  0  0  0  0  0  0  0  0  0  0  0
   57.3710   31.4630   43.5610 C   0  0  0  0  0  0  0  0  0  0  0  0
   56.6030   30.2810   43.7790 C   0  0  0  0  0  0  0  0  0  0  0  0
   55.7520   29.7230   42.8150 O   0  0  0  0  0  0  0  0  0  0  0  0
   56.6600   29.6250   45.0050 C   0  0  0  0  0  0  0  0  0  0  0  0
   55.9290   28.4570   45.1980 O   0  0  0  0  0  0  0  0  0  0  0  0
   57.4100   30.1320   46.0520 C   0  0  0  0  0  0  0  0  0  0  0  0
   58.1560   31.3150   45.9120 C   0  0  0  0  0  0  0  0  0  0  0  0
   58.1440   31.9970   44.6550 C   0  0  0  0  0  0  0  0  0  0  0  0
   58.8920   33.1270   44.5410 C   0  0  0  0  0  0  0  0  0  0  0  0
   59.9090   33.4840   45.5370 C   0  0  0  0  0  0  0  0  0  0  0  0
   59.9500   32.8700   46.7260 C   0  0  0  0  0  0  0  0  0  0  0  0
   58.7470   32.0090   47.1610 C   0  0  1  0  0  0  0  0  0  0  0  0
   57.6020   32.8990   47.7180 C   0  0  0  0  0  0  0  0  0  0  0  0
   59.1660   30.9820   48.2760 C   0  0  0  0  0  0  0  0  0  0  0  0
   60.1690   31.4710   49.3710 C   0  0  0  0  0  0  0  0  0  0  0  0
   60.9830   32.7550   49.0190 C   0  0  1  0  0  0  0  0  0  0  0  0
   60.1800   34.0310   49.4660 C   0  0  0  0  0  0  0  0  0  0  0  0
   62.4360   32.8380   49.5910 C   0  0  2  0  0  0  0  0  0  0  0  0
   62.7410   33.0510   51.1240 C   0  0  1  0  0  0  0  0  0  0  0  0
   63.7240   34.1810   51.4870 C   0  0  0  0  0  0  0  0  0  0  0  0
   61.4720   33.1800   52.0090 C   0  0  0  0  0  0  0  0  0  0  0  0
   61.0640   31.8690   52.7060 C   0  0  0  0  0  0  0  0  0  0  0  0
   59.5370   31.7960   52.8790 C   0  0  0  0  0  0  0  0  0  0  0  0
   58.7450   32.8350   52.0490 C   0  0  0  0  0  0  0  0  0  0  0  0
   58.4980   34.1380   52.8210 C   0  0  0  0  0  0  0  0  0  0  0  0
   57.4290   32.2660   51.4980 C   0  0  0  0  0  0  0  0  0  0  0  0
   63.1390   33.8540   48.6470 C   0  0  0  0  0  0  0  0  0  0  0  0
   62.2580   33.9640   47.3790 C   0  0  0  0  0  0  0  0  0  0  0  0
   61.2710   32.7820   47.4880 C   0  0  2  0  0  0  0  0  0  0  0  0
   62.0280   31.5260   46.9250 C   0  0  0  0  0  0  0  0  0  0  0  0
   57.9856   32.9245   42.1401 H   0  0  0  0  0  0  0  0  0  0  0  0
   56.8323   31.5483   41.5030 H   0  0  0  0  0  0  0  0  0  0  0  0
   55.3570   28.7950   42.8530 H   0  0  0  0  0  0  0  0  0  0  0  0
   57.4225   29.5980   47.0136 H   0  0  0  0  0  0  0  0  0  0  0  0
   58.7304   33.7912   43.6792 H   0  0  0  0  0  0  0  0  0  0  0  0
   60.6468   34.2658   45.3037 H   0  0  0  0  0  0  0  0  0  0  0  0
   57.6253   32.8809   48.8176 H   0  0  0  0  0  0  0  0  0  0  0  0
   57.7362   33.9323   47.3654 H   0  0  0  0  0  0  0  0  0  0  0  0
   56.6338   32.5140   47.3654 H   0  0  0  0  0  0  0  0  0  0  0  0
   58.2478   30.6619   48.7903 H   0  0  0  0  0  0  0  0  0  0  0  0
   59.7058   30.1895   47.7369 H   0  0  0  0  0  0  0  0  0  0  0  0
   59.5957   31.6751   50.2873 H   0  0  0  0  0  0  0  0  0  0  0  0
   60.9110   30.6661   49.4785 H   0  0  0  0  0  0  0  0  0  0  0  0
   60.1498   34.0790   50.5645 H   0  0  0  0  0  0  0  0  0  0  0  0
   60.6744   34.9317   49.0731 H   0  0  0  0  0  0  0  0  0  0  0  0
   59.1541   33.9749   49.0731 H   0  0  0  0  0  0  0  0  0  0  0  0
   62.8319   31.8117   49.5926 H   0  0  0  0  0  0  0  0  0  0  0  0
   63.2574   32.1074   51.3542 H   0  0  0  0  0  0  0  0  0  0  0  0
   63.7975   34.2655   52.5813 H   0  0  0  0  0  0  0  0  0  0  0  0
   64.7157   33.9525   51.0694 H   0  0  0  0  0  0  0  0  0  0  0  0
   63.3604   35.1315   51.0694 H   0  0  0  0  0  0  0  0  0  0  0  0
   61.6641   33.9385   52.7822 H   0  0  0  0  0  0  0  0  0  0  0  0
   60.6433   33.4592   51.3417 H   0  0  0  0  0  0  0  0  0  0  0  0
   61.3993   31.0168   52.0966 H   0  0  0  0  0  0  0  0  0  0  0  0
   61.5339   31.8365   53.7000 H   0  0  0  0  0  0  0  0  0  0  0  0
   59.2051   30.7913   52.5782 H   0  0  0  0  0  0  0  0  0  0  0  0
   59.3316   32.0191   53.9364 H   0  0  0  0  0  0  0  0  0  0  0  0
   59.3850   33.0786   51.1882 H   0  0  0  0  0  0  0  0  0  0  0  0
   58.5362   33.9367   53.9018 H   0  0  0  0  0  0  0  0  0  0  0  0
   59.2728   34.8729   52.5573 H   0  0  0  0  0  0  0  0  0  0  0  0
   57.5080   34.5384   52.5573 H   0  0  0  0  0  0  0  0  0  0  0  0
   56.7734   31.9825   52.3345 H   0  0  0  0  0  0  0  0  0  0  0  0
   56.9291   33.0284   50.8824 H   0  0  0  0  0  0  0  0  0  0  0  0
   57.6420   31.3796   50.8824 H   0  0  0  0  0  0  0  0  0  0  0  0
   63.2206   34.8347   49.1385 H   0  0  0  0  0  0  0  0  0  0  0  0
   64.1568   33.5217   48.3947 H   0  0  0  0  0  0  0  0  0  0  0  0
   61.7171   34.9217   47.3637 H   0  0  0  0  0  0  0  0  0  0  0  0
   62.8517   33.9282   46.4537 H   0  0  0  0  0  0  0  0  0  0  0  0
   62.3966   30.9145   47.7618 H   0  0  0  0  0  0  0  0  0  0  0  0
   61.3395   30.9284   46.3095 H   0  0  0  0  0  0  0  0  0  0  0  0
   62.8780   31.8556   46.3095 H   0  0  0  0  0  0  0  0  0  0  0  0
  1  2  2  0
  2  3  1  0
  3  4  1  0
  3  5  2  0
  5  6  1  0
  5  7  1  0
  7  8  2  0
  8  9  1  0
  9 10  2  0
 10 11  1  0
 11 12  2  0
 12 13  1  0
 13 14  1  1
 13 15  1  0
 15 16  1  0
 16 17  1  0
 17 18  1  1
 17 19  1  0
 19 20  1  0
 20 21  1  0
 20 22  1  0
 22 23  1  0
 23 24  1  0
 24 25  1  0
 25 26  1  0
 25 27  1  0
 19 28  1  0
 28 29  1  0
 29 30  1  0
 30 31  1  6
  9  2  1  0
 30 12  1  0
 13  8  1  0
 30 17  1  0
  1 32  1  0
  1 33  1  0
  4 34  1  0
  7 35  1  0
 10 36  1  0
 11 37  1  0
 14 38  1  0
 14 39  1  0
 14 40  1  0
 15 41  1  0
 15 42  1  0
 16 43  1  0
 16 44  1  0
 18 45  1  0
 18 46  1  0
 18 47  1  0
 19 48  1  6
 20 49  1  1
 21 50  1  0
 21 51  1  0
 21 52  1  0
 22 53  1  0
 22 54  1  0
 23 55  1  0
 23 56  1  0
 24 57  1  0
 24 58  1  0
 25 59  1  0
 26 60  1  0
 26 61  1  0
 26 62  1  0
 27 63  1  0
 27 64  1  0
 27 65  1  0
 28 66  1  0
 28 67  1  0
 29 68  1  0
 29 69  1  0
 31 70  1  0
 31 71  1  0
 31 72  1  0
M  CHG  1   6  -1
M  END
>  <UniqueID>  (61) 
53

>  <SMILES>  (61) 
C=c1c(O)c([O-])cc2c1=CC=C1C3(C)CCC(C(C)CCCC(C)C)[C@]3(C)CC[C@@]12C

>  <Energy>  (61) 
134.78052681037542

>  <Genealogy>  (61) 
C=c1c(O)c([O-])cc2c1=CC=C1C2(C)CCC2(C)C(C(C)CCCC(C)C)CCC12C (protonated)
C=c1c(O)c([O-])cc2c1=CC=C1C3(C)CCC(C(C)CCCC(C)C)[C@]3(C)CC[C@@]12C (chirality)
C=c1c(O)c([O-])cc2c1=CC=C1C3(C)CCC(C(C)CCCC(C)C)[C@]3(C)CC[C@@]12C (3D coordinates assigned)
C=c1c(O)c([O-])cc2c1=CC=C1C3(C)CCC(C(C)CCCC(C)C)[C@]3(C)CC[C@@]12C (nonaromatic ring conformer: 134.78052681037542 kcal/mol)

>  <smiles>  (61) 
C=c1c(O)c(O)cc2c1=CC=C1C2(C)CCC2(C)C(C(C)CCCC(C)C)CCC12C

>  <score_type>  (61) 
oracle

>  <origin>  (61) 
adg

>  <m_score__min__energy>  (61) 
-11.779999999999999

>  <m_primary>  (61) 
energy

$$$$
61:0
     RDKit          3D

 38 40  0  0  0  0  0  0  0  0999 V2000
   59.6950   33.8940   50.1880 C   0  0  0  0  0  0  0  0  0  0  0  0
   60.4220   32.7050   49.8940 O   0  0  0  0  0  0  0  0  0  0  0  0
   61.5340   32.6410   49.0400 C   0  0  0  0  0  0  0  0  0  0  0  0
   62.6050   33.5520   49.1430 C   0  0  0  0  0  0  0  0  0  0  0  0
   63.6990   33.4570   48.2820 C   0  0  0  0  0  0  0  0  0  0  0  0
   63.7420   32.4570   47.3110 C   0  0  0  0  0  0  0  0  0  0  0  0
   62.6880   31.5480   47.1970 C   0  0  0  0  0  0  0  0  0  0  0  0
   61.5800   31.6350   48.0530 C   0  0  0  0  0  0  0  0  0  0  0  0
   60.2520   30.4800   47.9030 S   0  0  0  0  0  0  0  0  0  0  0  0
   60.8020   29.0840   47.9890 O   0  0  0  0  0  0  0  0  0  0  0  0
   59.2750   30.6840   49.0280 O   0  0  0  0  0  0  0  0  0  0  0  0
   59.4190   30.6800   46.3830 N   0  0  0  0  0  0  0  0  0  0  0  0
   59.2060   29.5090   45.5430 C   0  0  0  0  0  0  0  0  0  0  0  0
   57.8360   28.9310   45.8340 C   0  0  0  0  0  0  0  0  0  0  0  0
   56.7270   29.7240   45.2110 C   0  0  0  0  0  0  0  0  0  0  0  0
   55.6900   29.1050   44.8530 O   0  0  0  0  0  0  0  0  0  0  0  0
   56.7530   31.1480   45.0360 N   0  0  0  0  0  0  0  0  0  0  0  0
   57.7270   32.1760   45.2960 C   0  0  0  0  0  0  0  0  0  0  0  0
   57.3720   33.4710   44.8860 C   0  0  0  0  0  0  0  0  0  0  0  0
   58.2210   34.5550   45.1010 C   0  0  0  0  0  0  0  0  0  0  0  0
   59.4450   34.3630   45.7340 C   0  0  0  0  0  0  0  0  0  0  0  0
   59.8200   33.0870   46.1520 C   0  0  0  0  0  0  0  0  0  0  0  0
   58.9750   31.9770   45.9490 C   0  0  0  0  0  0  0  0  0  0  0  0
   59.6195   34.0175   51.2784 H   0  0  0  0  0  0  0  0  0  0  0  0
   60.2183   34.7599   49.7563 H   0  0  0  0  0  0  0  0  0  0  0  0
   58.6858   33.8229   49.7563 H   0  0  0  0  0  0  0  0  0  0  0  0
   62.5781   34.3429   49.9071 H   0  0  0  0  0  0  0  0  0  0  0  0
   64.5297   34.1728   48.3694 H   0  0  0  0  0  0  0  0  0  0  0  0
   64.6064   32.3842   46.6346 H   0  0  0  0  0  0  0  0  0  0  0  0
   62.7268   30.7591   46.4314 H   0  0  0  0  0  0  0  0  0  0  0  0
   59.2653   29.8000   44.4839 H   0  0  0  0  0  0  0  0  0  0  0  0
   59.9784   28.7554   45.7560 H   0  0  0  0  0  0  0  0  0  0  0  0
   57.7972   27.9041   45.4417 H   0  0  0  0  0  0  0  0  0  0  0  0
   57.6901   28.9571   46.9240 H   0  0  0  0  0  0  0  0  0  0  0  0
   56.4058   33.6330   44.3858 H   0  0  0  0  0  0  0  0  0  0  0  0
   57.9238   35.5612   44.7706 H   0  0  0  0  0  0  0  0  0  0  0  0
   60.1164   35.2175   45.9045 H   0  0  0  0  0  0  0  0  0  0  0  0
   60.7912   32.9440   46.6484 H   0  0  0  0  0  0  0  0  0  0  0  0
  1  2  1  0
  2  3  1  0
  3  4  2  0
  4  5  1  0
  5  6  2  0
  6  7  1  0
  7  8  2  0
  8  9  1  0
  9 10  2  0
  9 11  2  0
  9 12  1  0
 12 13  1  0
 13 14  1  0
 14 15  1  0
 15 16  2  0
 15 17  1  0
 17 18  1  0
 18 19  2  0
 19 20  1  0
 20 21  2  0
 21 22  1  0
 22 23  2  0
  8  3  1  0
 23 12  1  0
 23 18  1  0
  1 24  1  0
  1 25  1  0
  1 26  1  0
  4 27  1  0
  5 28  1  0
  6 29  1  0
  7 30  1  0
 13 31  1  0
 13 32  1  0
 14 33  1  0
 14 34  1  0
 19 35  1  0
 20 36  1  0
 21 37  1  0
 22 38  1  0
M  CHG  1  17  -1
M  END
>  <UniqueID>  (62) 
54

>  <SMILES>  (62) 
COc1ccccc1S(=O)(=O)N1CCC(=O)[N-]c2ccccc21

>  <Energy>  (62) 
52.68850818754099

>  <Genealogy>  (62) 
COc1ccccc1S(=O)(=O)N1CCC(=O)[N-]c2ccccc21 (protonated)
COc1ccccc1S(=O)(=O)N1CCC(=O)[N-]c2ccccc21 (3D coordinates assigned)
COc1ccccc1S(=O)(=O)N1CCC(=O)[N-]c2ccccc21 (nonaromatic ring conformer: 52.68850818754099 kcal/mol)

>  <smiles>  (62) 
COc1ccccc1S(=O)(=O)N1CCC(=O)Nc2ccccc21

>  <score_type>  (62) 
oracle

>  <origin>  (62) 
adg

>  <m_score__min__energy>  (62) 
-7.5499999999999998

>  <m_primary>  (62) 
energy

$$$$
62:0
     RDKit          3D

 40 42  0  0  0  0  0  0  0  0999 V2000
   59.2840   29.0970   48.5870 C   0  0  0  0  0  0  0  0  0  0  0  0
   58.5030   28.5700   47.4240 C   0  0  0  0  0  0  0  0  0  0  0  0
   58.5540   27.2130   47.0780 C   0  0  0  0  0  0  0  0  0  0  0  0
   57.8240   26.7620   45.9780 C   0  0  0  0  0  0  0  0  0  0  0  0
   57.0650   27.6620   45.2290 C   0  0  0  0  0  0  0  0  0  0  0  0
   57.0530   29.0170   45.5820 C   0  0  0  0  0  0  0  0  0  0  0  0
   56.3340   29.8450   44.8770 N   0  0  0  0  0  0  0  0  0  0  0  0
   56.7500   30.8910   43.9780 C   0  0  0  0  0  0  0  0  0  0  0  0
   56.6090   30.6970   42.7420 O   0  0  0  0  0  0  0  0  0  0  0  0
   57.3950   32.1810   44.4300 C   0  0  0  0  0  0  0  0  0  0  0  0
   57.5820   32.2150   45.8990 N   0  0  2  0  0  0  0  0  0  0  0  0
   57.2060   33.5220   46.4940 C   0  0  0  0  0  0  0  0  0  0  0  0
   58.4930   34.2350   46.9430 C   0  0  0  0  0  0  0  0  0  0  0  0
   59.5270   33.2260   46.8670 N   0  0  0  0  0  0  0  0  0  0  0  0
   60.9040   33.4480   47.2210 C   0  0  0  0  0  0  0  0  0  0  0  0
   61.3110   33.5440   48.5640 C   0  0  0  0  0  0  0  0  0  0  0  0
   62.6560   33.7750   48.8580 C   0  0  0  0  0  0  0  0  0  0  0  0
   63.5810   33.9190   47.8230 C   0  0  0  0  0  0  0  0  0  0  0  0
   63.1430   33.8370   46.5010 C   0  0  0  0  0  0  0  0  0  0  0  0
   61.8280   33.6100   46.2330 N   0  0  0  0  0  0  0  0  0  0  0  0
   58.9690   32.0960   46.2210 C   0  0  0  0  0  0  0  0  0  0  0  0
   59.6450   31.0730   45.9240 O   0  0  0  0  0  0  0  0  0  0  0  0
   57.7700   29.4310   46.6650 N   0  0  0  0  0  0  0  0  0  0  0  0
   58.8073   28.7754   49.5247 H   0  0  0  0  0  0  0  0  0  0  0  0
   60.3117   28.7070   48.5455 H   0  0  0  0  0  0  0  0  0  0  0  0
   59.3069   30.1960   48.5455 H   0  0  0  0  0  0  0  0  0  0  0  0
   59.1628   26.5113   47.6671 H   0  0  0  0  0  0  0  0  0  0  0  0
   57.8467   25.6976   45.7013 H   0  0  0  0  0  0  0  0  0  0  0  0
   56.4799   27.3093   44.3669 H   0  0  0  0  0  0  0  0  0  0  0  0
   58.3767   32.2783   43.9434 H   0  0  0  0  0  0  0  0  0  0  0  0
   56.7317   33.0125   44.1495 H   0  0  0  0  0  0  0  0  0  0  0  0
   57.0580   31.4390   46.3690 H   0  0  0  0  0  0  0  0  0  0  0  0
   56.6827   34.1350   45.7454 H   0  0  0  0  0  0  0  0  0  0  0  0
   56.5371   33.3692   47.3538 H   0  0  0  0  0  0  0  0  0  0  0  0
   58.7233   35.0757   46.2720 H   0  0  0  0  0  0  0  0  0  0  0  0
   58.4003   34.6557   47.9551 H   0  0  0  0  0  0  0  0  0  0  0  0
   60.5759   33.4380   49.3755 H   0  0  0  0  0  0  0  0  0  0  0  0
   62.9865   33.8435   49.9049 H   0  0  0  0  0  0  0  0  0  0  0  0
   64.6434   34.0952   48.0470 H   0  0  0  0  0  0  0  0  0  0  0  0
   63.8602   33.9558   45.6754 H   0  0  0  0  0  0  0  0  0  0  0  0
  1  2  1  0
  2  3  2  0
  3  4  1  0
  4  5  2  0
  5  6  1  0
  6  7  2  3
  7  8  1  0
  8  9  2  0
  8 10  1  0
 10 11  1  0
 11 12  1  0
 12 13  1  0
 13 14  1  0
 14 15  1  0
 15 16  2  0
 16 17  1  0
 17 18  2  0
 18 19  1  0
 19 20  2  0
 14 21  1  0
 21 22  2  0
  6 23  1  0
 23  2  1  0
 21 11  1  0
 20 15  1  0
  1 24  1  0
  1 25  1  0
  1 26  1  0
  3 27  1  0
  4 28  1  0
  5 29  1  0
 10 30  1  0
 10 31  1  0
 11 32  1  1
 12 33  1  0
 12 34  1  0
 13 35  1  0
 13 36  1  0
 16 37  1  0
 17 38  1  0
 18 39  1  0
 19 40  1  0
M  CHG  2  11   1  23  -1
M  END
>  <UniqueID>  (63) 
55

>  <SMILES>  (63) 
Cc1cccc(=NC(=O)C[N@@H+]2CCN(c3ccccn3)C2=O)[n-]1

>  <Energy>  (63) 
59.86426387616869

>  <Genealogy>  (63) 
Cc1cccc(=NC(=O)C[NH+]2CCN(c3ccccn3)C2=O)[n-]1 (protonated)
Cc1cccc(=NC(=O)C[N@@H+]2CCN(c3ccccn3)C2=O)[n-]1 (chirality)
Cc1cccc(=NC(=O)C[N@@H+]2CCN(c3ccccn3)C2=O)[n-]1 (3D coordinates assigned)
Cc1cccc(=NC(=O)C[N@@H+]2CCN(c3ccccn3)C2=O)[n-]1 (nonaromatic ring conformer: 59.86426387616869 kcal/mol)

>  <smiles>  (63) 
Cc1cccc(=NC(=O)CN2CCN(c3ccccn3)C2=O)[nH]1

>  <score_type>  (63) 
oracle

>  <origin>  (63) 
adg

>  <m_score__min__energy>  (63) 
-8.0700000000000003

>  <m_primary>  (63) 
energy

$$$$
63:0
     RDKit          3D

 53 56  0  0  0  0  0  0  0  0999 V2000
   57.0080   33.6190   45.3610 O   0  0  0  0  0  0  0  0  0  0  0  0
   57.6520   32.5500   45.5510 C   0  0  0  0  0  0  0  0  0  0  0  0
   59.0390   32.6260   46.1200 C   0  0  0  0  0  0  0  0  0  0  0  0
   59.1170   31.9550   47.4310 N   0  0  0  0  0  0  0  0  0  0  0  0
   58.4990   32.6810   48.5670 C   0  0  0  0  0  0  0  0  0  0  0  0
   59.1270   32.3990   49.8740 N   0  0  2  0  0  0  0  0  0  0  0  0
   60.4770   32.9920   50.0730 C   0  0  0  0  0  0  0  0  0  0  0  0
   61.4090   32.8860   48.8850 C   0  0  0  0  0  0  0  0  0  0  0  0
   61.4430   33.8920   47.9030 C   0  0  0  0  0  0  0  0  0  0  0  0
   62.3610   33.8250   46.8530 C   0  0  0  0  0  0  0  0  0  0  0  0
   63.2250   32.7350   46.7500 C   0  0  0  0  0  0  0  0  0  0  0  0
   63.1570   31.6980   47.6830 C   0  0  0  0  0  0  0  0  0  0  0  0
   62.2430   31.7660   48.7380 C   0  0  0  0  0  0  0  0  0  0  0  0
   59.0440   30.6990   50.2050 S   0  0  0  0  0  0  0  0  0  0  0  0
   57.6270   30.3160   50.5310 O   0  0  0  0  0  0  0  0  0  0  0  0
   59.9350   30.3410   51.3670 O   0  0  0  0  0  0  0  0  0  0  0  0
   59.5420   29.8740   48.7590 C   0  0  0  0  0  0  0  0  0  0  0  0
   59.9660   28.5410   48.8460 C   0  0  0  0  0  0  0  0  0  0  0  0
   60.4090   27.8690   47.7060 C   0  0  0  0  0  0  0  0  0  0  0  0
   60.8370   26.5850   47.7990 F   0  0  0  0  0  0  0  0  0  0  0  0
   60.4210   28.5250   46.4780 C   0  0  0  0  0  0  0  0  0  0  0  0
   59.9920   29.8500   46.3800 C   0  0  0  0  0  0  0  0  0  0  0  0
   59.5420   30.5560   47.5220 C   0  0  0  0  0  0  0  0  0  0  0  0
   57.0830   31.3080   45.2440 O   0  0  0  0  0  0  0  0  0  0  0  0
   57.4040   30.5670   44.0720 C   0  0  0  0  0  0  0  0  0  0  0  0
   57.4880   29.0980   44.3870 C   0  0  0  0  0  0  0  0  0  0  0  0
   57.0350   28.6200   45.6290 C   0  0  0  0  0  0  0  0  0  0  0  0
   57.1360   27.2610   45.9410 C   0  0  0  0  0  0  0  0  0  0  0  0
   57.6800   26.3680   45.0120 C   0  0  0  0  0  0  0  0  0  0  0  0
   58.1210   26.8330   43.7710 C   0  0  0  0  0  0  0  0  0  0  0  0
   58.0280   28.1940   43.4570 C   0  0  0  0  0  0  0  0  0  0  0  0
   59.7387   32.1381   45.4254 H   0  0  0  0  0  0  0  0  0  0  0  0
   59.3014   33.6856   46.2557 H   0  0  0  0  0  0  0  0  0  0  0  0
   58.5777   33.7606   48.3713 H   0  0  0  0  0  0  0  0  0  0  0  0
   57.4562   32.3373   48.6345 H   0  0  0  0  0  0  0  0  0  0  0  0
   58.5100   32.8480   50.5930 H   0  0  0  0  0  0  0  0  0  0  0  0
   60.3486   34.0583   50.3107 H   0  0  0  0  0  0  0  0  0  0  0  0
   60.9476   32.4149   50.8826 H   0  0  0  0  0  0  0  0  0  0  0  0
   60.7417   34.7374   47.9624 H   0  0  0  0  0  0  0  0  0  0  0  0
   62.4028   34.6321   46.1068 H   0  0  0  0  0  0  0  0  0  0  0  0
   63.9606   32.6921   45.9333 H   0  0  0  0  0  0  0  0  0  0  0  0
   63.8229   30.8277   47.5874 H   0  0  0  0  0  0  0  0  0  0  0  0
   62.1765   30.9369   49.4578 H   0  0  0  0  0  0  0  0  0  0  0  0
   59.9495   28.0227   49.8161 H   0  0  0  0  0  0  0  0  0  0  0  0
   60.7707   27.9959   45.5792 H   0  0  0  0  0  0  0  0  0  0  0  0
   60.0037   30.3527   45.4017 H   0  0  0  0  0  0  0  0  0  0  0  0
   56.6237   30.7312   43.3143 H   0  0  0  0  0  0  0  0  0  0  0  0
   58.3784   30.9065   43.6908 H   0  0  0  0  0  0  0  0  0  0  0  0
   56.5991   29.3184   46.3586 H   0  0  0  0  0  0  0  0  0  0  0  0
   56.7875   26.8938   46.9176 H   0  0  0  0  0  0  0  0  0  0  0  0
   57.7605   25.2991   45.2589 H   0  0  0  0  0  0  0  0  0  0  0  0
   58.5422   26.1283   43.0389 H   0  0  0  0  0  0  0  0  0  0  0  0
   58.3787   28.5566   42.4795 H   0  0  0  0  0  0  0  0  0  0  0  0
  1  2  2  0
  2  3  1  0
  3  4  1  0
  4  5  1  0
  5  6  1  0
  6  7  1  0
  7  8  1  0
  8  9  2  0
  9 10  1  0
 10 11  2  0
 11 12  1  0
 12 13  2  0
  6 14  1  0
 14 15  2  0
 14 16  2  0
 14 17  1  0
 17 18  2  0
 18 19  1  0
 19 20  1  0
 19 21  2  0
 21 22  1  0
 22 23  2  0
  2 24  1  0
 24 25  1  0
 25 26  1  0
 26 27  2  0
 27 28  1  0
 28 29  2  0
 29 30  1  0
 30 31  2  0
 23  4  1  0
 31 26  1  0
 13  8  1  0
 23 17  1  0
  3 32  1  0
  3 33  1  0
  5 34  1  0
  5 35  1  0
  6 36  1  1
  7 37  1  0
  7 38  1  0
  9 39  1  0
 10 40  1  0
 11 41  1  0
 12 42  1  0
 13 43  1  0
 18 44  1  0
 21 45  1  0
 22 46  1  0
 25 47  1  0
 25 48  1  0
 27 49  1  0
 28 50  1  0
 29 51  1  0
 30 52  1  0
 31 53  1  0
M  CHG  1   6   1
M  END
>  <UniqueID>  (64) 
56

>  <SMILES>  (64) 
O=C(CN1C[N@H+](Cc2ccccc2)S(=O)(=O)c2cc(F)ccc21)OCc1ccccc1

>  <Energy>  (64) 
61.65231618273023

>  <Genealogy>  (64) 
O=C(CN1C[NH+](Cc2ccccc2)S(=O)(=O)c2cc(F)ccc21)OCc1ccccc1 (protonated)
O=C(CN1C[N@H+](Cc2ccccc2)S(=O)(=O)c2cc(F)ccc21)OCc1ccccc1 (chirality)
O=C(CN1C[N@H+](Cc2ccccc2)S(=O)(=O)c2cc(F)ccc21)OCc1ccccc1 (3D coordinates assigned)
O=C(CN1C[N@H+](Cc2ccccc2)S(=O)(=O)c2cc(F)ccc21)OCc1ccccc1 (nonaromatic ring conformer: 61.65231618273023 kcal/mol)

>  <smiles>  (64) 
O=C(CN1CN(Cc2ccccc2)S(=O)(=O)c2cc(F)ccc21)OCc1ccccc1

>  <score_type>  (64) 
oracle

>  <origin>  (64) 
adg

>  <m_score__min__energy>  (64) 
-7.5199999999999996

>  <m_primary>  (64) 
energy

$$$$
64:0
     RDKit          3D

 27 28  0  0  0  0  0  0  0  0999 V2000
   56.6730   30.4490   43.3510 C   0  0  0  0  0  0  0  0  0  0  0  0
   56.4390   31.2120   44.5300 O   0  0  0  0  0  0  0  0  0  0  0  0
   57.3950   32.0360   45.1420 C   0  0  0  0  0  0  0  0  0  0  0  0
   58.3010   31.4530   46.0370 C   0  0  0  0  0  0  0  0  0  0  0  0
   59.2700   32.2320   46.6740 C   0  0  0  0  0  0  0  0  0  0  0  0
   59.3400   33.6150   46.4320 C   0  0  0  0  0  0  0  0  0  0  0  0
   60.3080   34.4280   47.0380 O   0  0  0  0  0  0  0  0  0  0  0  0
   61.5300   33.9820   47.5660 C   0  0  0  0  0  0  0  0  0  0  0  0
   61.8050   34.0190   48.9450 C   0  0  0  0  0  0  0  0  0  0  0  0
   63.0420   33.5810   49.4290 C   0  0  0  0  0  0  0  0  0  0  0  0
   64.0160   33.1150   48.5400 C   0  0  0  0  0  0  0  0  0  0  0  0
   63.7560   33.0940   47.1680 C   0  0  0  0  0  0  0  0  0  0  0  0
   62.5190   33.5320   46.6810 C   0  0  0  0  0  0  0  0  0  0  0  0
   58.4480   34.1950   45.5230 C   0  0  0  0  0  0  0  0  0  0  0  0
   57.4770   33.4170   44.8860 C   0  0  0  0  0  0  0  0  0  0  0  0
   56.9851   29.4314   43.6287 H   0  0  0  0  0  0  0  0  0  0  0  0
   55.7487   30.3997   42.7567 H   0  0  0  0  0  0  0  0  0  0  0  0
   57.4660   30.9264   42.7567 H   0  0  0  0  0  0  0  0  0  0  0  0
   58.2491   30.3731   46.2399 H   0  0  0  0  0  0  0  0  0  0  0  0
   59.9815   31.7610   47.3682 H   0  0  0  0  0  0  0  0  0  0  0  0
   61.0442   34.3939   49.6455 H   0  0  0  0  0  0  0  0  0  0  0  0
   63.2489   33.6030   50.5091 H   0  0  0  0  0  0  0  0  0  0  0  0
   64.9866   32.7651   48.9214 H   0  0  0  0  0  0  0  0  0  0  0  0
   64.5246   32.7327   46.4689 H   0  0  0  0  0  0  0  0  0  0  0  0
   62.3223   33.5230   45.5988 H   0  0  0  0  0  0  0  0  0  0  0  0
   58.5115   35.2719   45.3080 H   0  0  0  0  0  0  0  0  0  0  0  0
   56.7742   33.8863   44.1818 H   0  0  0  0  0  0  0  0  0  0  0  0
  1  2  1  0
  2  3  1  0
  3  4  2  0
  4  5  1  0
  5  6  2  0
  6  7  1  0
  7  8  1  0
  8  9  2  0
  9 10  1  0
 10 11  2  0
 11 12  1  0
 12 13  2  0
  6 14  1  0
 14 15  2  0
 15  3  1  0
 13  8  1  0
  1 16  1  0
  1 17  1  0
  1 18  1  0
  4 19  1  0
  5 20  1  0
  9 21  1  0
 10 22  1  0
 11 23  1  0
 12 24  1  0
 13 25  1  0
 14 26  1  0
 15 27  1  0
M  END
>  <UniqueID>  (65) 
57

>  <SMILES>  (65) 
COc1ccc(Oc2ccccc2)cc1

>  <Energy>  (65) 
33.44494750379189

>  <Genealogy>  (65) 
COc1ccc(Oc2ccccc2)cc1 (3D coordinates assigned)
COc1ccc(Oc2ccccc2)cc1 (optimized conformer: 33.44494750379189 kcal/mol)

>  <smiles>  (65) 
COc1ccc(Oc2ccccc2)cc1

>  <score_type>  (65) 
oracle

>  <origin>  (65) 
adg

>  <m_score__min__energy>  (65) 
-5.6699999999999999

>  <m_primary>  (65) 
energy

$$$$
65:0
     RDKit          3D

 47 49  0  0  0  0  0  0  0  0999 V2000
   60.8340   27.8960   50.8680 C   0  0  0  0  0  0  0  0  0  0  0  0
   59.9480   28.4940   49.8810 N   0  0  0  0  0  0  0  0  0  0  0  0
   59.8160   27.7710   48.6230 C   0  0  0  0  0  0  0  0  0  0  0  0
   59.6960   28.7190   47.4510 C   0  0  0  0  0  0  0  0  0  0  0  0
   58.8660   28.0230   46.3950 C   0  0  0  0  0  0  0  0  0  0  0  0
   57.5380   28.6480   46.3130 N   0  0  0  0  0  0  0  0  0  0  0  0
   57.2490   29.2650   45.2180 C   0  0  0  0  0  0  0  0  0  0  0  0
   57.2890   30.6060   45.2470 N   0  0  0  0  0  0  0  0  0  0  0  0
   57.0100   31.3730   44.1840 C   0  0  0  0  0  0  0  0  0  0  0  0
   56.6600   30.7560   42.9920 C   0  0  0  0  0  0  0  0  0  0  0  0
   56.6190   29.3850   42.9670 C   0  0  0  0  0  0  0  0  0  0  0  0
   56.9130   28.6730   44.0760 N   0  0  0  0  0  0  0  0  0  0  0  0
   59.2280   29.6970   50.1100 C   0  0  0  0  0  0  0  0  0  0  0  0
   59.5630   30.8960   49.5660 C   0  0  0  0  0  0  0  0  0  0  0  0
   58.8920   32.0820   49.7720 C   0  0  0  0  0  0  0  0  0  0  0  0
   59.2680   33.3210   49.1410 C   0  0  0  0  0  0  0  0  0  0  0  0
   59.6640   34.2560   49.9200 O   0  0  0  0  0  0  0  0  0  0  0  0
   59.2490   33.6150   47.7250 C   0  0  0  0  0  0  0  0  0  0  0  0
   57.9750   33.5960   47.1210 C   0  0  0  0  0  0  0  0  0  0  0  0
   56.8580   33.3630   47.8330 F   0  0  0  0  0  0  0  0  0  0  0  0
   57.9390   33.8320   45.7650 C   0  0  0  0  0  0  0  0  0  0  0  0
   59.0290   34.0780   44.9820 C   0  0  0  0  0  0  0  0  0  0  0  0
   60.2920   34.0960   45.5770 C   0  0  0  0  0  0  0  0  0  0  0  0
   60.3410   33.8580   46.9490 C   0  0  0  0  0  0  0  0  0  0  0  0
   61.9630   33.8220   47.6400 Cl  0  0  0  0  0  0  0  0  0  0  0  0
   57.7800   32.0040   50.6190 C   0  0  0  0  0  0  0  0  0  0  0  0
   57.4270   30.7730   51.1850 C   0  0  0  0  0  0  0  0  0  0  0  0
   56.0300   30.7360   52.2290 Cl  0  0  0  0  0  0  0  0  0  0  0  0
   58.1470   29.6600   50.9230 N   0  0  0  0  0  0  0  0  0  0  0  0
   60.4741   28.1389   51.8787 H   0  0  0  0  0  0  0  0  0  0  0  0
   60.8464   26.8040   50.7358 H   0  0  0  0  0  0  0  0  0  0  0  0
   61.8513   28.2929   50.7358 H   0  0  0  0  0  0  0  0  0  0  0  0
   60.7030   27.1363   48.4804 H   0  0  0  0  0  0  0  0  0  0  0  0
   58.9021   27.1606   48.6691 H   0  0  0  0  0  0  0  0  0  0  0  0
   59.2004   29.6486   47.7676 H   0  0  0  0  0  0  0  0  0  0  0  0
   60.6893   28.9802   47.0571 H   0  0  0  0  0  0  0  0  0  0  0  0
   59.3698   28.1069   45.4207 H   0  0  0  0  0  0  0  0  0  0  0  0
   58.7521   26.9624   46.6635 H   0  0  0  0  0  0  0  0  0  0  0  0
   57.0576   32.4697   44.2553 H   0  0  0  0  0  0  0  0  0  0  0  0
   56.4228   31.3473   42.0952 H   0  0  0  0  0  0  0  0  0  0  0  0
   56.3451   28.8628   42.0384 H   0  0  0  0  0  0  0  0  0  0  0  0
   56.8640   27.6480   43.9880 H   0  0  0  0  0  0  0  0  0  0  0  0
   60.4429   30.9223   48.9064 H   0  0  0  0  0  0  0  0  0  0  0  0
   56.9545   33.8214   45.2745 H   0  0  0  0  0  0  0  0  0  0  0  0
   58.9149   34.2586   43.9029 H   0  0  0  0  0  0  0  0  0  0  0  0
   61.2032   34.2885   44.9916 H   0  0  0  0  0  0  0  0  0  0  0  0
   57.1873   32.9043   50.8385 H   0  0  0  0  0  0  0  0  0  0  0  0
  1  2  1  0
  2  3  1  0
  3  4  1  0
  4  5  1  0
  5  6  1  0
  6  7  2  3
  7  8  1  0
  8  9  2  0
  9 10  1  0
 10 11  2  0
 11 12  1  0
  2 13  1  0
 13 14  2  0
 14 15  1  0
 15 16  1  0
 16 17  2  0
 16 18  1  0
 18 19  2  0
 19 20  1  0
 19 21  1  0
 21 22  2  0
 22 23  1  0
 23 24  2  0
 24 25  1  0
 15 26  2  0
 26 27  1  0
 27 28  1  0
 27 29  2  0
 12  7  1  0
 29 13  1  0
 24 18  1  0
  1 30  1  0
  1 31  1  0
  1 32  1  0
  3 33  1  0
  3 34  1  0
  4 35  1  0
  4 36  1  0
  5 37  1  0
  5 38  1  0
  9 39  1  0
 10 40  1  0
 11 41  1  0
 12 42  1  0
 14 43  1  0
 21 44  1  0
 22 45  1  0
 23 46  1  0
 26 47  1  0
M  END
>  <smiles>  (66) 
CN(CCCN=c1nccc[nH]1)c1cc(C(=O)c2c(F)cccc2Cl)cc(Cl)n1

>  <score_type>  (66) 
oracle

>  <origin>  (66) 
adg

>  <m_score__min__energy>  (66) 
-8.6400000000000006

>  <m_primary>  (66) 
energy

$$$$
66:0
     RDKit          3D

 35 37  0  0  0  0  0  0  0  0999 V2000
   55.9610   30.7200   44.3330 O   0  0  0  0  0  0  0  0  0  0  0  0
   56.9240   30.1070   44.8710 C   0  0  0  0  0  0  0  0  0  0  0  0
   56.9440   28.7460   44.8550 N   0  0  0  0  0  0  0  0  0  0  0  0
   57.9660   28.0450   45.4250 C   0  0  0  0  0  0  0  0  0  0  0  0
   57.9640   26.5360   45.3920 C   0  0  0  0  0  0  0  0  0  0  0  0
   59.4810   25.8430   46.0370 Cl  0  0  0  0  0  0  0  0  0  0  0  0
   57.7680   25.9710   43.7130 Cl  0  0  0  0  0  0  0  0  0  0  0  0
   56.6120   25.9150   46.3730 Cl  0  0  0  0  0  0  0  0  0  0  0  0
   58.9880   28.7170   46.0220 N   0  0  0  0  0  0  0  0  0  0  0  0
   59.0150   30.0730   46.0670 C   0  0  0  0  0  0  0  0  0  0  0  0
   60.0820   30.7290   46.6820 C   0  0  0  0  0  0  0  0  0  0  0  0
   60.1250   32.1310   46.7310 C   0  0  0  0  0  0  0  0  0  0  0  0
   61.2820   32.7700   47.2950 N   0  0  0  0  0  0  0  0  0  0  0  0
   61.9470   33.8660   46.5880 C   0  0  0  0  0  0  0  0  0  0  0  0
   63.4260   33.5080   46.3990 C   0  0  0  0  0  0  0  0  0  0  0  0
   64.0210   33.1640   47.6380 O   0  0  0  0  0  0  0  0  0  0  0  0
   63.4240   31.9870   48.1560 C   0  0  0  0  0  0  0  0  0  0  0  0
   61.9460   32.2250   48.4800 C   0  0  0  0  0  0  0  0  0  0  0  0
   59.0700   32.8870   46.1660 C   0  0  0  0  0  0  0  0  0  0  0  0
   59.0480   34.3230   46.2480 N   0  0  0  0  0  0  0  0  0  0  0  0
   58.8480   34.8950   47.3390 O   0  0  0  0  0  0  0  0  0  0  0  0
   59.0890   35.0820   45.1010 O   0  0  0  0  0  0  0  0  0  0  0  0
   58.0070   32.2170   45.5340 C   0  0  0  0  0  0  0  0  0  0  0  0
   57.9720   30.8140   45.4830 C   0  0  0  0  0  0  0  0  0  0  0  0
   56.1570   28.2330   44.3950 H   0  0  0  0  0  0  0  0  0  0  0  0
   60.8963   30.1424   47.1322 H   0  0  0  0  0  0  0  0  0  0  0  0
   61.4740   34.0131   45.6059 H   0  0  0  0  0  0  0  0  0  0  0  0
   61.8592   34.7944   47.1715 H   0  0  0  0  0  0  0  0  0  0  0  0
   63.5055   32.6535   45.7108 H   0  0  0  0  0  0  0  0  0  0  0  0
   63.9510   34.3817   45.9854 H   0  0  0  0  0  0  0  0  0  0  0  0
   63.5048   31.1830   47.4097 H   0  0  0  0  0  0  0  0  0  0  0  0
   63.9470   31.7039   49.0814 H   0  0  0  0  0  0  0  0  0  0  0  0
   61.4724   31.2735   48.7637 H   0  0  0  0  0  0  0  0  0  0  0  0
   61.8576   32.9346   49.3159 H   0  0  0  0  0  0  0  0  0  0  0  0
   57.1940   32.7984   45.0746 H   0  0  0  0  0  0  0  0  0  0  0  0
  1  2  2  0
  2  3  1  0
  3  4  1  0
  4  5  1  0
  5  6  1  0
  5  7  1  0
  5  8  1  0
  4  9  2  0
  9 10  1  0
 10 11  2  0
 11 12  1  0
 12 13  1  0
 13 14  1  0
 14 15  1  0
 15 16  1  0
 16 17  1  0
 17 18  1  0
 12 19  2  0
 19 20  1  0
 20 21  2  0
 20 22  1  0
 19 23  1  0
 23 24  2  0
 24  2  1  0
 24 10  1  0
 18 13  1  0
  3 25  1  0
 11 26  1  0
 14 27  1  0
 14 28  1  0
 15 29  1  0
 15 30  1  0
 17 31  1  0
 17 32  1  0
 18 33  1  0
 18 34  1  0
 23 35  1  0
M  CHG  2  20   1  22  -1
M  END
>  <UniqueID>  (67) 
58

>  <SMILES>  (67) 
O=c1[nH]c(C(Cl)(Cl)Cl)nc2cc(N3CCOCC3)c([N+](=O)[O-])cc12

>  <Energy>  (67) 
51.90803045830572

>  <Genealogy>  (67) 
O=c1[nH]c(C(Cl)(Cl)Cl)nc2cc(N3CCOCC3)c([N+](=O)[O-])cc12 (3D coordinates assigned)
O=c1[nH]c(C(Cl)(Cl)Cl)nc2cc(N3CCOCC3)c([N+](=O)[O-])cc12 (nonaromatic ring conformer: 51.90803045830572 kcal/mol)

>  <smiles>  (67) 
O=c1[nH]c(C(Cl)(Cl)Cl)nc2cc(N3CCOCC3)c([N+](=O)[O-])cc12

>  <score_type>  (67) 
oracle

>  <origin>  (67) 
adg

>  <m_score__min__energy>  (67) 
-8.0700000000000003

>  <m_primary>  (67) 
energy

$$$$
67:0
     RDKit          3D

 34 35  0  0  0  0  0  0  0  0999 V2000
   59.6450   35.3230   46.1070 C   0  0  0  0  0  0  0  0  0  0  0  0
   59.5320   33.9390   46.6090 N   0  0  1  0  0  0  0  0  0  0  0  0
   58.8280   33.0730   45.6880 C   0  0  0  0  0  0  0  0  0  0  0  0
   58.1070   33.5880   44.7920 O   0  0  0  0  0  0  0  0  0  0  0  0
   58.9340   31.6380   45.7710 N   0  0  0  0  0  0  0  0  0  0  0  0
   57.9110   30.7460   45.3040 C   0  0  0  0  0  0  0  0  0  0  0  0
   56.8170   31.2120   44.8790 O   0  0  0  0  0  0  0  0  0  0  0  0
   58.1130   29.2770   45.3170 C   0  0  0  0  0  0  0  0  0  0  0  0
   59.4220   28.7520   45.3110 C   0  0  0  0  0  0  0  0  0  0  0  0
   60.5010   29.5770   45.3370 F   0  0  0  0  0  0  0  0  0  0  0  0
   59.6290   27.3700   45.2920 C   0  0  0  0  0  0  0  0  0  0  0  0
   58.5420   26.4980   45.2760 C   0  0  0  0  0  0  0  0  0  0  0  0
   57.2410   27.0040   45.2680 C   0  0  0  0  0  0  0  0  0  0  0  0
   57.0190   28.3850   45.2870 C   0  0  0  0  0  0  0  0  0  0  0  0
   55.7410   28.8370   45.2160 F   0  0  0  0  0  0  0  0  0  0  0  0
   60.8170   33.3630   46.9780 C   0  0  0  0  0  0  0  0  0  0  0  0
   62.0000   33.8560   46.3860 C   0  0  0  0  0  0  0  0  0  0  0  0
   63.2490   33.3450   46.7520 C   0  0  0  0  0  0  0  0  0  0  0  0
   63.3410   32.3470   47.7240 C   0  0  0  0  0  0  0  0  0  0  0  0
   62.1830   31.8520   48.3270 C   0  0  0  0  0  0  0  0  0  0  0  0
   62.2750   30.8880   49.2770 F   0  0  0  0  0  0  0  0  0  0  0  0
   60.9310   32.3540   47.9620 C   0  0  0  0  0  0  0  0  0  0  0  0
   59.7018   36.0181   46.9577 H   0  0  0  0  0  0  0  0  0  0  0  0
   60.5539   35.4179   45.4947 H   0  0  0  0  0  0  0  0  0  0  0  0
   58.7635   35.5641   45.4947 H   0  0  0  0  0  0  0  0  0  0  0  0
   58.9440   34.0150   47.4750 H   0  0  0  0  0  0  0  0  0  0  0  0
   59.8040   31.2260   46.1780 H   0  0  0  0  0  0  0  0  0  0  0  0
   60.6534   26.9692   45.2897 H   0  0  0  0  0  0  0  0  0  0  0  0
   58.7092   25.4108   45.2697 H   0  0  0  0  0  0  0  0  0  0  0  0
   56.3855   26.3128   45.2466 H   0  0  0  0  0  0  0  0  0  0  0  0
   61.9385   34.6511   45.6283 H   0  0  0  0  0  0  0  0  0  0  0  0
   64.1612   33.7302   46.2730 H   0  0  0  0  0  0  0  0  0  0  0  0
   64.3252   31.9509   48.0146 H   0  0  0  0  0  0  0  0  0  0  0  0
   60.0247   31.9601   48.4452 H   0  0  0  0  0  0  0  0  0  0  0  0
  1  2  1  0
  2  3  1  0
  3  4  2  0
  3  5  1  0
  5  6  1  0
  6  7  2  0
  6  8  1  0
  8  9  2  0
  9 10  1  0
  9 11  1  0
 11 12  2  0
 12 13  1  0
 13 14  2  0
 14 15  1  0
  2 16  1  0
 16 17  2  0
 17 18  1  0
 18 19  2  0
 19 20  1  0
 20 21  1  0
 20 22  2  0
 14  8  1  0
 22 16  1  0
  1 23  1  0
  1 24  1  0
  1 25  1  0
  2 26  1  1
  5 27  1  0
 11 28  1  0
 12 29  1  0
 13 30  1  0
 17 31  1  0
 18 32  1  0
 19 33  1  0
 22 34  1  0
M  CHG  1   2   1
M  END
>  <UniqueID>  (68) 
59

>  <SMILES>  (68) 
C[N@@H+](C(=O)NC(=O)c1c(F)cccc1F)c1cccc(F)c1

>  <Energy>  (68) 
47.1985035724169

>  <Genealogy>  (68) 
C[NH+](C(=O)NC(=O)c1c(F)cccc1F)c1cccc(F)c1 (protonated)
C[N@@H+](C(=O)NC(=O)c1c(F)cccc1F)c1cccc(F)c1 (chirality)
C[N@@H+](C(=O)NC(=O)c1c(F)cccc1F)c1cccc(F)c1 (3D coordinates assigned)
C[N@@H+](C(=O)NC(=O)c1c(F)cccc1F)c1cccc(F)c1 (optimized conformer: 47.1985035724169 kcal/mol)

>  <smiles>  (68) 
CN(C(=O)NC(=O)c1c(F)cccc1F)c1cccc(F)c1

>  <score_type>  (68) 
oracle

>  <origin>  (68) 
adg

>  <m_score__min__energy>  (68) 
-5.4100000000000001

>  <m_primary>  (68) 
energy

$$$$
68:0
     RDKit          3D

 50 52  0  0  0  0  0  0  0  0999 V2000
   55.7700   29.2800   45.0430 O   0  0  0  0  0  0  0  0  0  0  0  0
   56.8260   29.1810   44.4290 C   0  0  0  0  0  0  0  0  0  0  0  0
   57.3740   30.4170   43.7500 C   0  0  0  0  0  0  0  0  0  0  0  0
   56.9230   31.7150   44.4410 C   0  0  0  0  0  0  0  0  0  0  0  0
   57.7720   32.9270   44.0350 C   0  0  0  0  0  0  0  0  0  0  0  0
   58.3510   33.6000   45.2500 C   0  0  0  0  0  0  0  0  0  0  0  0
   57.9850   33.1720   46.5370 C   0  0  0  0  0  0  0  0  0  0  0  0
   58.5010   33.8160   47.6660 C   0  0  0  0  0  0  0  0  0  0  0  0
   59.3760   34.8960   47.5180 C   0  0  0  0  0  0  0  0  0  0  0  0
   59.7340   35.3350   46.2400 C   0  0  0  0  0  0  0  0  0  0  0  0
   59.2220   34.6940   45.1080 C   0  0  0  0  0  0  0  0  0  0  0  0
   57.5020   27.8930   44.3040 N   0  0  0  0  0  0  0  0  0  0  0  0
   57.1490   26.9450   45.3880 C   0  0  0  0  0  0  0  0  0  0  0  0
   57.7680   27.3400   46.7520 C   0  0  0  0  0  0  0  0  0  0  0  0
   58.6990   28.4730   46.6110 N   0  0  0  0  0  0  0  0  0  0  0  0
   59.5130   28.7810   48.1230 S   0  0  0  0  0  0  0  0  0  0  0  0
   58.5130   29.0210   49.2200 O   0  0  0  0  0  0  0  0  0  0  0  0
   60.3620   27.5970   48.4950 O   0  0  0  0  0  0  0  0  0  0  0  0
   60.5620   30.1800   47.9470 C   0  0  0  0  0  0  0  0  0  0  0  0
   60.4070   31.0600   46.8690 C   0  0  0  0  0  0  0  0  0  0  0  0
   61.2720   32.1500   46.7470 C   0  0  0  0  0  0  0  0  0  0  0  0
   62.2790   32.3470   47.6960 C   0  0  0  0  0  0  0  0  0  0  0  0
   63.3750   33.7100   47.5560 Cl  0  0  0  0  0  0  0  0  0  0  0  0
   62.4050   31.4450   48.7560 C   0  0  0  0  0  0  0  0  0  0  0  0
   61.5520   30.3900   48.8550 N   0  0  0  0  0  0  0  0  0  0  0  0
   59.6800   28.1920   45.5560 C   0  0  0  0  0  0  0  0  0  0  0  0
   58.9760   28.0300   44.1920 C   0  0  0  0  0  0  0  0  0  0  0  0
   58.4729   30.3714   43.7669 H   0  0  0  0  0  0  0  0  0  0  0  0
   56.9868   30.4334   42.7205 H   0  0  0  0  0  0  0  0  0  0  0  0
   55.8753   31.9124   44.1700 H   0  0  0  0  0  0  0  0  0  0  0  0
   57.0426   31.5734   45.5253 H   0  0  0  0  0  0  0  0  0  0  0  0
   58.5917   32.5917   43.3825 H   0  0  0  0  0  0  0  0  0  0  0  0
   57.1315   33.6460   43.5032 H   0  0  0  0  0  0  0  0  0  0  0  0
   57.2903   32.3276   46.6571 H   0  0  0  0  0  0  0  0  0  0  0  0
   58.2179   33.4722   48.6718 H   0  0  0  0  0  0  0  0  0  0  0  0
   59.7828   35.4003   48.4069 H   0  0  0  0  0  0  0  0  0  0  0  0
   60.4203   36.1869   46.1248 H   0  0  0  0  0  0  0  0  0  0  0  0
   59.5013   35.0465   44.1042 H   0  0  0  0  0  0  0  0  0  0  0  0
   57.1580   27.4680   43.4100 H   0  0  0  0  0  0  0  0  0  0  0  0
   56.0542   26.9210   45.4920 H   0  0  0  0  0  0  0  0  0  0  0  0
   57.5528   25.9596   45.1125 H   0  0  0  0  0  0  0  0  0  0  0  0
   56.9605   27.6240   47.4428 H   0  0  0  0  0  0  0  0  0  0  0  0
   58.3286   26.4772   47.1410 H   0  0  0  0  0  0  0  0  0  0  0  0
   59.6127   30.8948   46.1262 H   0  0  0  0  0  0  0  0  0  0  0  0
   61.1610   32.8511   45.9067 H   0  0  0  0  0  0  0  0  0  0  0  0
   63.1933   31.5880   49.5097 H   0  0  0  0  0  0  0  0  0  0  0  0
   60.3964   29.0246   45.4969 H   0  0  0  0  0  0  0  0  0  0  0  0
   60.2050   27.2563   45.7986 H   0  0  0  0  0  0  0  0  0  0  0  0
   59.1986   28.9145   43.5771 H   0  0  0  0  0  0  0  0  0  0  0  0
   59.3556   27.1029   43.7378 H   0  0  0  0  0  0  0  0  0  0  0  0
  1  2  2  0
  2  3  1  0
  3  4  1  0
  4  5  1  0
  5  6  1  0
  6  7  2  0
  7  8  1  0
  8  9  2  0
  9 10  1  0
 10 11  2  0
  2 12  1  0
 12 13  1  0
 13 14  1  0
 14 15  1  0
 15 16  1  0
 16 17  2  0
 16 18  2  0
 16 19  1  0
 19 20  2  0
 20 21  1  0
 21 22  2  0
 22 23  1  0
 22 24  1  0
 24 25  2  0
 15 26  1  0
 26 27  1  0
 11  6  1  0
 27 12  1  0
 25 19  1  0
  3 28  1  0
  3 29  1  0
  4 30  1  0
  4 31  1  0
  5 32  1  0
  5 33  1  0
  7 34  1  0
  8 35  1  0
  9 36  1  0
 10 37  1  0
 11 38  1  0
 12 39  1  0
 13 40  1  0
 13 41  1  0
 14 42  1  0
 14 43  1  0
 20 44  1  0
 21 45  1  0
 24 46  1  0
 26 47  1  0
 26 48  1  0
 27 49  1  0
 27 50  1  0
M  CHG  1  12   1
M  END
>  <UniqueID>  (69) 
60

>  <SMILES>  (69) 
O=C(CCCc1ccccc1)[NH+]1CCN(S(=O)(=O)c2ccc(Cl)cn2)CC1

>  <Energy>  (69) 
56.83894372533304

>  <Genealogy>  (69) 
O=C(CCCc1ccccc1)[NH+]1CCN(S(=O)(=O)c2ccc(Cl)cn2)CC1 (protonated)
O=C(CCCc1ccccc1)[NH+]1CCN(S(=O)(=O)c2ccc(Cl)cn2)CC1 (3D coordinates assigned)
O=C(CCCc1ccccc1)[NH+]1CCN(S(=O)(=O)c2ccc(Cl)cn2)CC1 (nonaromatic ring conformer: 56.83894372533304 kcal/mol)

>  <smiles>  (69) 
O=C(CCCc1ccccc1)N1CCN(S(=O)(=O)c2ccc(Cl)cn2)CC1

>  <score_type>  (69) 
oracle

>  <origin>  (69) 
adg

>  <m_score__min__energy>  (69) 
-7.6699999999999999

>  <m_primary>  (69) 
energy

$$$$
69:0
     RDKit          3D

 37 37  0  0  0  0  0  0  0  0999 V2000
   56.3160   29.8320   42.6170 C   0  0  0  0  0  0  0  0  0  0  0  0
   55.8990   30.2460   44.0370 C   0  0  0  0  0  0  0  0  0  0  0  0
   56.9860   30.8270   44.8680 N   0  0  0  0  0  0  0  0  0  0  0  0
   57.6790   32.0180   44.3300 C   0  0  0  0  0  0  0  0  0  0  0  0
   57.4190   33.2400   45.2060 C   0  0  0  0  0  0  0  0  0  0  0  0
   57.8850   29.8360   45.5000 C   0  0  0  0  0  0  0  0  0  0  0  0
   57.4750   28.3780   45.2310 C   0  0  0  0  0  0  0  0  0  0  0  0
   57.6550   27.4860   46.4660 C   0  0  0  0  0  0  0  0  0  0  0  0
   57.1460   26.1310   46.2260 N   0  0  0  0  0  0  0  0  0  0  0  0
   57.8470   24.9780   46.1220 C   0  0  0  0  0  0  0  0  0  0  0  0
   59.2310   24.8650   46.2460 O   0  0  0  0  0  0  0  0  0  0  0  0
   57.0090   23.9120   45.8520 C   0  0  0  0  0  0  0  0  0  0  0  0
   55.7330   24.4400   45.7930 C   0  0  0  0  0  0  0  0  0  0  0  0
   54.4830   23.7020   45.4390 C   0  0  0  0  0  0  0  0  0  0  0  0
   55.8580   25.7980   46.0100 C   0  0  0  0  0  0  0  0  0  0  0  0
   54.8090   26.7110   45.9980 O   0  0  0  0  0  0  0  0  0  0  0  0
   57.0955   29.0581   42.6747 H   0  0  0  0  0  0  0  0  0  0  0  0
   55.4427   29.4334   42.0799 H   0  0  0  0  0  0  0  0  0  0  0  0
   56.7083   30.7082   42.0799 H   0  0  0  0  0  0  0  0  0  0  0  0
   55.0973   30.9944   43.9524 H   0  0  0  0  0  0  0  0  0  0  0  0
   55.5838   29.3230   44.5457 H   0  0  0  0  0  0  0  0  0  0  0  0
   58.7608   31.8215   44.2976 H   0  0  0  0  0  0  0  0  0  0  0  0
   57.2956   32.2216   43.3193 H   0  0  0  0  0  0  0  0  0  0  0  0
   57.4804   32.9513   46.2657 H   0  0  0  0  0  0  0  0  0  0  0  0
   58.1730   34.0117   44.9919 H   0  0  0  0  0  0  0  0  0  0  0  0
   56.4161   33.6379   44.9919 H   0  0  0  0  0  0  0  0  0  0  0  0
   58.9020   29.9896   45.1099 H   0  0  0  0  0  0  0  0  0  0  0  0
   57.8277   29.9934   46.5872 H   0  0  0  0  0  0  0  0  0  0  0  0
   56.4169   28.3576   44.9309 H   0  0  0  0  0  0  0  0  0  0  0  0
   58.1256   27.9865   44.4351 H   0  0  0  0  0  0  0  0  0  0  0  0
   58.7254   27.4278   46.7126 H   0  0  0  0  0  0  0  0  0  0  0  0
   57.0864   27.9273   47.2978 H   0  0  0  0  0  0  0  0  0  0  0  0
   59.8680   25.2000   45.5350 H   0  0  0  0  0  0  0  0  0  0  0  0
   57.2983   22.8599   45.7128 H   0  0  0  0  0  0  0  0  0  0  0  0
   53.9647   23.3960   46.3597 H   0  0  0  0  0  0  0  0  0  0  0  0
   53.8254   24.3568   44.8483 H   0  0  0  0  0  0  0  0  0  0  0  0
   54.7387   22.8099   44.8483 H   0  0  0  0  0  0  0  0  0  0  0  0
  1  2  1  0
  2  3  1  0
  3  4  1  0
  4  5  1  0
  3  6  1  0
  6  7  1  0
  7  8  1  0
  8  9  1  0
  9 10  1  0
 10 11  1  0
 10 12  2  0
 12 13  1  0
 13 14  1  0
 13 15  2  0
 15 16  1  0
 15  9  1  0
  1 17  1  0
  1 18  1  0
  1 19  1  0
  2 20  1  0
  2 21  1  0
  4 22  1  0
  4 23  1  0
  5 24  1  0
  5 25  1  0
  5 26  1  0
  6 27  1  0
  6 28  1  0
  7 29  1  0
  7 30  1  0
  8 31  1  0
  8 32  1  0
 11 33  1  0
 12 34  1  0
 14 35  1  0
 14 36  1  0
 14 37  1  0
M  CHG  1  16  -1
M  END
>  <UniqueID>  (70) 
61

>  <SMILES>  (70) 
CCN(CC)CCCn1c(O)cc(C)c1[O-]

>  <Energy>  (70) 
63.04772027969384

>  <Genealogy>  (70) 
CCN(CC)CCCn1c(O)cc(C)c1[O-] (protonated)
CCN(CC)CCCn1c(O)cc(C)c1[O-] (3D coordinates assigned)
CCN(CC)CCCn1c(O)cc(C)c1[O-] (optimized conformer: 63.04772027969384 kcal/mol)

>  <smiles>  (70) 
CCN(CC)CCCn1c(O)cc(C)c1O

>  <score_type>  (70) 
oracle

>  <origin>  (70) 
adg

>  <m_score__min__energy>  (70) 
-8.9600000000000009

>  <m_primary>  (70) 
energy

$$$$
70:0
     RDKit          3D

 53 55  0  0  0  0  0  0  0  0999 V2000
   57.7500   30.4530   50.6090 O   0  0  0  0  0  0  0  0  0  0  0  0
   58.6200   31.3020   50.7240 C   0  0  0  0  0  0  0  0  0  0  0  0
   59.5150   31.6390   49.5570 C   0  0  1  0  0  0  0  0  0  0  0  0
   60.2610   32.9760   49.7560 C   0  0  0  0  0  0  0  0  0  0  0  0
   61.4970   33.0760   48.8960 C   0  0  0  0  0  0  0  0  0  0  0  0
   61.3970   33.4160   47.5390 C   0  0  0  0  0  0  0  0  0  0  0  0
   62.5460   33.5020   46.7460 C   0  0  0  0  0  0  0  0  0  0  0  0
   63.8010   33.2470   47.3030 C   0  0  0  0  0  0  0  0  0  0  0  0
   63.9100   32.9010   48.6520 C   0  0  0  0  0  0  0  0  0  0  0  0
   62.7640   32.8090   49.4470 C   0  0  0  0  0  0  0  0  0  0  0  0
   60.4710   30.5560   49.3170 N   0  0  0  0  0  0  0  0  0  0  0  0
   60.4820   29.7020   48.1660 C   0  0  0  0  0  0  0  0  0  0  0  0
   60.7380   28.4710   48.2820 O   0  0  0  0  0  0  0  0  0  0  0  0
   60.2900   30.2960   46.8040 C   0  0  0  0  0  0  0  0  0  0  0  0
   59.1070   29.6250   46.0820 C   0  0  2  0  0  0  0  0  0  0  0  0
   59.4700   28.2190   45.5730 C   0  0  0  0  0  0  0  0  0  0  0  0
   58.4520   27.1870   45.9900 C   0  0  0  0  0  0  0  0  0  0  0  0
   58.8730   25.9650   46.5360 C   0  0  0  0  0  0  0  0  0  0  0  0
   57.9330   24.9990   46.9120 C   0  0  0  0  0  0  0  0  0  0  0  0
   56.5660   25.2400   46.7400 C   0  0  0  0  0  0  0  0  0  0  0  0
   55.6480   24.2620   47.1250 O   0  0  0  0  0  0  0  0  0  0  0  0
   56.1380   26.4580   46.1830 C   0  0  0  0  0  0  0  0  0  0  0  0
   54.7830   26.7120   45.9950 O   0  0  0  0  0  0  0  0  0  0  0  0
   57.0780   27.4240   45.8090 C   0  0  0  0  0  0  0  0  0  0  0  0
   58.7060   30.4530   44.9460 N   0  0  0  0  0  0  0  0  0  0  0  0
   57.7830   31.5430   45.0290 C   0  0  0  0  0  0  0  0  0  0  0  0
   56.5660   31.3740   44.7510 O   0  0  0  0  0  0  0  0  0  0  0  0
   58.2600   32.8600   45.4690 C   0  0  0  0  0  0  0  0  0  0  0  0
   58.9140   33.8010   44.6830 C   0  0  0  0  0  0  0  0  0  0  0  0
   59.2250   34.9780   45.3790 C   0  0  0  0  0  0  0  0  0  0  0  0
   58.8180   34.9660   46.7070 C   0  0  0  0  0  0  0  0  0  0  0  0
   58.0690   33.4930   47.0160 S   0  0  0  0  0  0  0  0  0  0  0  0
   58.7519   31.8238   51.6833 H   0  0  0  0  0  0  0  0  0  0  0  0
   58.8671   31.7547   48.6756 H   0  0  0  0  0  0  0  0  0  0  0  0
   59.5821   33.8018   49.4969 H   0  0  0  0  0  0  0  0  0  0  0  0
   60.5778   33.0312   50.8080 H   0  0  0  0  0  0  0  0  0  0  0  0
   60.4101   33.6160   47.0962 H   0  0  0  0  0  0  0  0  0  0  0  0
   62.4610   33.7707   45.6827 H   0  0  0  0  0  0  0  0  0  0  0  0
   64.7041   33.3186   46.6792 H   0  0  0  0  0  0  0  0  0  0  0  0
   64.8992   32.7006   49.0893 H   0  0  0  0  0  0  0  0  0  0  0  0
   62.8528   32.5270   50.5065 H   0  0  0  0  0  0  0  0  0  0  0  0
   60.0886   31.3727   46.9043 H   0  0  0  0  0  0  0  0  0  0  0  0
   61.2040   30.1332   46.2140 H   0  0  0  0  0  0  0  0  0  0  0  0
   58.2828   29.5251   46.8036 H   0  0  0  0  0  0  0  0  0  0  0  0
   59.5233   28.2417   44.4745 H   0  0  0  0  0  0  0  0  0  0  0  0
   60.4384   27.9380   46.0125 H   0  0  0  0  0  0  0  0  0  0  0  0
   59.9465   25.7655   46.6691 H   0  0  0  0  0  0  0  0  0  0  0  0
   58.2707   24.0458   47.3448 H   0  0  0  0  0  0  0  0  0  0  0  0
   54.6550   24.4520   47.1870 H   0  0  0  0  0  0  0  0  0  0  0  0
   56.7402   28.3747   45.3707 H   0  0  0  0  0  0  0  0  0  0  0  0
   59.1623   33.6392   43.6237 H   0  0  0  0  0  0  0  0  0  0  0  0
   59.7429   35.8311   44.9165 H   0  0  0  0  0  0  0  0  0  0  0  0
   58.9612   35.7806   47.4322 H   0  0  0  0  0  0  0  0  0  0  0  0
  1  2  2  0
  2  3  1  0
  3  4  1  0
  4  5  1  0
  5  6  2  0
  6  7  1  0
  7  8  2  0
  8  9  1  0
  9 10  2  0
  3 11  1  0
 11 12  1  0
 12 13  2  0
 12 14  1  0
 14 15  1  0
 15 16  1  0
 16 17  1  0
 17 18  2  0
 18 19  1  0
 19 20  2  0
 20 21  1  0
 20 22  1  0
 22 23  1  0
 22 24  2  0
 15 25  1  0
 25 26  1  0
 26 27  2  0
 26 28  1  0
 28 29  2  0
 29 30  1  0
 30 31  2  0
 31 32  1  0
 10  5  1  0
 24 17  1  0
 32 28  1  0
  2 33  1  0
  3 34  1  6
  4 35  1  0
  4 36  1  0
  6 37  1  0
  7 38  1  0
  8 39  1  0
  9 40  1  0
 10 41  1  0
 14 42  1  0
 14 43  1  0
 15 44  1  1
 16 45  1  0
 16 46  1  0
 18 47  1  0
 19 48  1  0
 21 49  1  0
 24 50  1  0
 29 51  1  0
 30 52  1  0
 31 53  1  0
M  CHG  3  11  -1  23  -1  25  -1
M  END
>  <UniqueID>  (71) 
62

>  <SMILES>  (71) 
O=C[C@@H](Cc1ccccc1)[N-]C(=O)C[C@H](Cc1ccc(O)c([O-])c1)[N-]C(=O)c1cccs1

>  <Energy>  (71) 
71.59392323835127

>  <Genealogy>  (71) 
O=CC(Cc1ccccc1)[N-]C(=O)CC(Cc1ccc(O)c([O-])c1)[N-]C(=O)c1cccs1 (protonated)
O=C[C@@H](Cc1ccccc1)[N-]C(=O)C[C@H](Cc1ccc(O)c([O-])c1)[N-]C(=O)c1cccs1 (chirality)
O=C[C@@H](Cc1ccccc1)[N-]C(=O)C[C@H](Cc1ccc(O)c([O-])c1)[N-]C(=O)c1cccs1 (3D coordinates assigned)
O=C[C@@H](Cc1ccccc1)[N-]C(=O)C[C@H](Cc1ccc(O)c([O-])c1)[N-]C(=O)c1cccs1 (optimized conformer: 71.59392323835127 kcal/mol)

>  <smiles>  (71) 
O=CC(Cc1ccccc1)NC(=O)CC(Cc1ccc(O)c(O)c1)NC(=O)c1cccs1

>  <score_type>  (71) 
oracle

>  <origin>  (71) 
adg

>  <m_score__min__energy>  (71) 
-15.44

>  <m_primary>  (71) 
energy

$$$$
71:0
     RDKit          3D

 38 40  0  0  0  0  0  0  0  0999 V2000
   52.5260   24.0890   44.9510 C   0  0  0  0  0  0  0  0  0  0  0  0
   53.5900   23.7480   45.9870 C   0  0  0  0  0  0  0  0  0  0  0  0
   54.8960   24.2230   45.5440 N   0  0  0  0  0  0  0  0  0  0  0  0
   55.6560   23.6660   44.5810 C   0  0  0  0  0  0  0  0  0  0  0  0
   56.7840   24.4400   44.4150 C   0  0  0  0  0  0  0  0  0  0  0  0
   56.6310   25.4770   45.3230 C   0  0  0  0  0  0  0  0  0  0  0  0
   57.5620   26.5950   45.5590 C   0  0  0  0  0  0  0  0  0  0  0  0
   58.6020   26.6820   44.8510 O   0  0  0  0  0  0  0  0  0  0  0  0
   57.3050   27.5780   46.5720 N   0  0  0  0  0  0  0  0  0  0  0  0
   58.1740   28.7400   46.7390 C   0  0  0  0  0  0  0  0  0  0  0  0
   57.6680   29.9020   45.9360 C   0  0  0  0  0  0  0  0  0  0  0  0
   56.5400   29.8550   45.1990 N   0  0  0  0  0  0  0  0  0  0  0  0
   56.3990   31.0420   44.6240 N   0  0  0  0  0  0  0  0  0  0  0  0
   57.4430   31.7920   45.0200 C   0  0  0  0  0  0  0  0  0  0  0  0
   57.6950   33.3230   44.4940 S   0  0  0  0  0  0  0  0  0  0  0  0
   58.2700   31.1070   45.8370 N   0  0  0  0  0  0  0  0  0  0  0  0
   59.4860   31.5530   46.4600 C   0  0  0  0  0  0  0  0  0  0  0  0
   59.5850   32.8560   46.9740 C   0  0  0  0  0  0  0  0  0  0  0  0
   60.7720   33.2890   47.5730 C   0  0  0  0  0  0  0  0  0  0  0  0
   61.8670   32.4240   47.6650 C   0  0  0  0  0  0  0  0  0  0  0  0
   63.4880   33.0180   48.4820 Br  0  0  0  0  0  0  0  0  0  0  0  0
   61.7750   31.1250   47.1580 C   0  0  0  0  0  0  0  0  0  0  0  0
   60.5880   30.6890   46.5590 C   0  0  0  0  0  0  0  0  0  0  0  0
   55.4720   25.3260   45.9940 N   0  0  0  0  0  0  0  0  0  0  0  0
   51.5985   24.3863   45.4622 H   0  0  0  0  0  0  0  0  0  0  0  0
   52.8798   24.9187   44.3215 H   0  0  0  0  0  0  0  0  0  0  0  0
   52.3316   23.2082   44.3215 H   0  0  0  0  0  0  0  0  0  0  0  0
   53.3337   24.2287   46.9426 H   0  0  0  0  0  0  0  0  0  0  0  0
   53.6298   22.6561   46.1142 H   0  0  0  0  0  0  0  0  0  0  0  0
   55.4167   22.7492   44.0222 H   0  0  0  0  0  0  0  0  0  0  0  0
   57.6187   24.2728   43.7184 H   0  0  0  0  0  0  0  0  0  0  0  0
   56.4780   27.4640   47.2020 H   0  0  0  0  0  0  0  0  0  0  0  0
   58.2010   29.0206   47.8023 H   0  0  0  0  0  0  0  0  0  0  0  0
   59.1830   28.4799   46.3865 H   0  0  0  0  0  0  0  0  0  0  0  0
   58.7253   33.5388   46.9052 H   0  0  0  0  0  0  0  0  0  0  0  0
   60.8446   34.3114   47.9724 H   0  0  0  0  0  0  0  0  0  0  0  0
   62.6364   30.4447   47.2299 H   0  0  0  0  0  0  0  0  0  0  0  0
   60.5181   29.6648   46.1640 H   0  0  0  0  0  0  0  0  0  0  0  0
  1  2  1  0
  2  3  1  0
  3  4  1  0
  4  5  2  0
  5  6  1  0
  6  7  1  0
  7  8  2  0
  7  9  1  0
  9 10  1  0
 10 11  1  0
 11 12  2  0
 12 13  1  0
 13 14  1  0
 14 15  2  0
 14 16  1  0
 16 17  1  0
 17 18  2  0
 18 19  1  0
 19 20  2  0
 20 21  1  0
 20 22  1  0
 22 23  2  0
  6 24  2  0
 24  3  1  0
 16 11  1  0
 23 17  1  0
  1 25  1  0
  1 26  1  0
  1 27  1  0
  2 28  1  0
  2 29  1  0
  4 30  1  0
  5 31  1  0
  9 32  1  0
 10 33  1  0
 10 34  1  0
 18 35  1  0
 19 36  1  0
 22 37  1  0
 23 38  1  0
M  CHG  1  13  -1
M  END
>  <UniqueID>  (72) 
63

>  <SMILES>  (72) 
CCn1ccc(C(=O)NCc2n[n-]c(=S)n2-c2ccc(Br)cc2)n1

>  <Energy>  (72) 
104.32348591358841

>  <Genealogy>  (72) 
CCn1ccc(C(=O)NCc2n[n-]c(=S)n2-c2ccc(Br)cc2)n1 (protonated)
CCn1ccc(C(=O)NCc2n[n-]c(=S)n2-c2ccc(Br)cc2)n1 (3D coordinates assigned)
CCn1ccc(C(=O)NCc2n[n-]c(=S)n2-c2ccc(Br)cc2)n1 (optimized conformer: 104.32348591358841 kcal/mol)

>  <smiles>  (72) 
CCn1ccc(C(=O)NCc2n[nH]c(=S)n2-c2ccc(Br)cc2)n1

>  <score_type>  (72) 
oracle

>  <origin>  (72) 
adg

>  <m_score__min__energy>  (72) 
-9.3800000000000008

>  <m_primary>  (72) 
energy

$$$$
72:0
     RDKit          3D

 35 37  0  0  1  0  0  0  0  0999 V2000
   59.2730   32.9330   50.4990 C   0  0  0  0  0  0  0  0  0  0  0  0
   59.5520   34.0150   49.6230 O   0  0  0  0  0  0  0  0  0  0  0  0
   59.2910   33.9130   48.2620 C   0  0  0  0  0  0  0  0  0  0  0  0
   59.6880   34.9390   47.4340 C   0  0  0  0  0  0  0  0  0  0  0  0
   59.4580   34.9040   46.0540 C   0  0  0  0  0  0  0  0  0  0  0  0
   58.8150   33.8110   45.4860 C   0  0  0  0  0  0  0  0  0  0  0  0
   58.5630   33.7230   44.1310 C   0  0  0  0  0  0  0  0  0  0  0  0
   57.9160   32.6220   43.5700 C   0  0  0  0  0  0  0  0  0  0  0  0
   57.5370   31.6150   44.4410 C   0  0  0  0  0  0  0  0  0  0  0  0
   56.7100   30.1630   43.8660 S   0  0  0  0  0  0  0  0  0  0  0  0
   55.3710   30.0870   44.5520 O   0  0  0  0  0  0  0  0  0  0  0  0
   56.4430   30.2890   42.3870 O   0  0  0  0  0  0  0  0  0  0  0  0
   57.6330   28.7600   44.2130 N   0  0  0  0  0  0  0  0  0  0  0  0
   58.4980   28.7350   45.1680 C   0  0  0  0  0  0  0  0  0  0  0  0
   59.8120   29.0040   44.8560 C   0  0  0  0  0  0  0  0  0  0  0  0
   60.7290   28.9750   45.8860 C   0  0  0  0  0  0  0  0  0  0  0  0
   60.3320   28.6910   47.1480 N   0  0  0  0  0  0  0  0  0  0  0  0
   59.0460   28.4300   47.4410 C   0  0  0  0  0  0  0  0  0  0  0  0
   58.1120   28.4500   46.4450 N   0  0  0  0  0  0  0  0  0  0  0  0
   57.7740   31.6750   45.8010 C   0  0  0  0  0  0  0  0  0  0  0  0
   58.4170   32.7770   46.3290 C   0  0  0  0  0  0  0  0  0  0  0  0
   58.6580   32.8410   47.6860 C   0  0  0  0  0  0  0  0  0  0  0  0
   59.3607   33.2732   51.5414 H   0  0  0  0  0  0  0  0  0  0  0  0
   58.2514   32.5680   50.3171 H   0  0  0  0  0  0  0  0  0  0  0  0
   59.9908   32.1195   50.3171 H   0  0  0  0  0  0  0  0  0  0  0  0
   60.1999   35.8100   47.8691 H   0  0  0  0  0  0  0  0  0  0  0  0
   59.7859   35.7408   45.4197 H   0  0  0  0  0  0  0  0  0  0  0  0
   58.8821   34.5459   43.4745 H   0  0  0  0  0  0  0  0  0  0  0  0
   57.7170   32.5572   42.4901 H   0  0  0  0  0  0  0  0  0  0  0  0
   60.1186   29.2332   43.8248 H   0  0  0  0  0  0  0  0  0  0  0  0
   61.7892   29.1840   45.6803 H   0  0  0  0  0  0  0  0  0  0  0  0
   61.0990   28.6900   47.8730 H   0  0  0  0  0  0  0  0  0  0  0  0
   58.7485   28.2021   48.4752 H   0  0  0  0  0  0  0  0  0  0  0  0
   57.4533   30.8523   46.4571 H   0  0  0  0  0  0  0  0  0  0  0  0
   58.3327   32.0071   48.3254 H   0  0  0  0  0  0  0  0  0  0  0  0
  1  2  1  0
  2  3  1  0
  3  4  2  0
  4  5  1  0
  5  6  2  0
  6  7  1  0
  7  8  2  0
  8  9  1  0
  9 10  1  0
 10 11  2  0
 10 12  2  0
 10 13  1  0
 13 14  2  0
 14 15  1  0
 15 16  2  0
 16 17  1  0
 17 18  1  0
 18 19  2  0
  9 20  2  0
 20 21  1  0
 21 22  2  0
 22  3  1  0
 21  6  1  0
 19 14  1  0
  1 23  1  0
  1 24  1  0
  1 25  1  0
  4 26  1  0
  5 27  1  0
  7 28  1  0
  8 29  1  0
 15 30  1  0
 16 31  1  0
 17 32  1  0
 18 33  1  0
 20 34  1  0
 22 35  1  0
M  END
>  <smiles>  (73) 
COc1ccc2ccc(S(=O)(=O)N=c3cc[nH]cn3)cc2c1

>  <score_type>  (73) 
oracle

>  <origin>  (73) 
adg

>  <m_score__min__energy>  (73) 
-7.7800000000000002

>  <m_primary>  (73) 
energy

$$$$
73:0
     RDKit          3D

 52 57  0  0  0  0  0  0  0  0999 V2000
   58.4080   29.4740   47.7470 O   0  0  0  0  0  0  0  0  0  0  0  0
   58.5130   29.0890   46.5520 C   0  0  0  0  0  0  0  0  0  0  0  0
   58.7200   27.6500   46.2620 C   0  0  0  0  0  0  0  0  0  0  0  0
   59.9690   27.0460   46.4920 C   0  0  0  0  0  0  0  0  0  0  0  0
   60.1650   25.6890   46.2250 C   0  0  0  0  0  0  0  0  0  0  0  0
   59.1100   24.9060   45.7290 C   0  0  0  0  0  0  0  0  0  0  0  0
   59.2600   23.5340   45.4440 C   0  0  0  0  0  0  0  0  0  0  0  0
   60.3690   22.9620   45.6290 O   0  0  0  0  0  0  0  0  0  0  0  0
   58.1890   22.8290   44.9650 N   0  0  0  0  0  0  0  0  0  0  0  0
   56.9910   23.4430   44.7660 C   0  0  0  0  0  0  0  0  0  0  0  0
   56.8160   24.7610   45.0310 N   0  0  0  0  0  0  0  0  0  0  0  0
   57.8480   25.5050   45.5070 C   0  0  0  0  0  0  0  0  0  0  0  0
   57.6600   26.8650   45.7770 C   0  0  0  0  0  0  0  0  0  0  0  0
   55.9140   22.5450   44.2390 C   0  0  1  0  0  0  0  0  0  0  0  0
   56.4750   21.9450   42.9300 C   0  0  0  0  0  0  0  0  0  0  0  0
   57.8670   21.2910   43.2120 C   0  0  0  0  0  0  0  0  0  0  0  0
   58.2340   21.4390   44.6460 N   0  0  2  0  0  0  0  0  0  0  0  0
   57.2120   20.7490   45.4770 C   0  0  0  0  0  0  0  0  0  0  0  0
   55.8020   21.3880   45.2580 C   0  0  0  0  0  0  0  0  0  0  0  0
   58.4100   30.0560   45.4890 N   0  0  0  0  0  0  0  0  0  0  0  0
   58.0400   29.6000   44.1440 C   0  0  0  0  0  0  0  0  0  0  0  0
   56.9480   30.5010   43.5700 C   0  0  0  0  0  0  0  0  0  0  0  0
   57.4370   31.9510   43.5040 C   0  0  0  0  0  0  0  0  0  0  0  0
   58.0390   32.4090   44.8110 C   0  0  0  0  0  0  0  0  0  0  0  0
   58.1760   33.7840   45.0550 C   0  0  0  0  0  0  0  0  0  0  0  0
   58.7930   34.2350   46.2240 C   0  0  0  0  0  0  0  0  0  0  0  0
   59.2950   33.3190   47.1480 C   0  0  0  0  0  0  0  0  0  0  0  0
   59.1770   31.9480   46.9120 C   0  0  0  0  0  0  0  0  0  0  0  0
   58.5420   31.4740   45.7460 C   0  0  0  0  0  0  0  0  0  0  0  0
   60.8005   27.6486   46.8864 H   0  0  0  0  0  0  0  0  0  0  0  0
   61.1494   25.2320   46.4039 H   0  0  0  0  0  0  0  0  0  0  0  0
   56.6744   27.3235   45.6083 H   0  0  0  0  0  0  0  0  0  0  0  0
   54.9528   23.0566   44.0829 H   0  0  0  0  0  0  0  0  0  0  0  0
   56.5893   22.7421   42.1806 H   0  0  0  0  0  0  0  0  0  0  0  0
   55.7810   21.1812   42.5494 H   0  0  0  0  0  0  0  0  0  0  0  0
   58.6301   21.7829   42.5909 H   0  0  0  0  0  0  0  0  0  0  0  0
   57.8113   20.2197   42.9689 H   0  0  0  0  0  0  0  0  0  0  0  0
   59.1800   21.0280   44.8220 H   0  0  0  0  0  0  0  0  0  0  0  0
   57.4885   20.8381   46.5380 H   0  0  0  0  0  0  0  0  0  0  0  0
   57.1712   19.6900   45.1821 H   0  0  0  0  0  0  0  0  0  0  0  0
   55.4231   21.7771   46.2146 H   0  0  0  0  0  0  0  0  0  0  0  0
   55.1093   20.6253   44.8726 H   0  0  0  0  0  0  0  0  0  0  0  0
   58.9241   29.6372   43.4905 H   0  0  0  0  0  0  0  0  0  0  0  0
   57.6634   28.5682   44.2029 H   0  0  0  0  0  0  0  0  0  0  0  0
   56.6899   30.1584   42.5571 H   0  0  0  0  0  0  0  0  0  0  0  0
   56.0629   30.4507   44.2212 H   0  0  0  0  0  0  0  0  0  0  0  0
   58.1991   32.0325   42.7149 H   0  0  0  0  0  0  0  0  0  0  0  0
   56.5687   32.5912   43.2889 H   0  0  0  0  0  0  0  0  0  0  0  0
   57.7955   34.5104   44.3218 H   0  0  0  0  0  0  0  0  0  0  0  0
   58.8831   35.3143   46.4162 H   0  0  0  0  0  0  0  0  0  0  0  0
   59.7852   33.6776   48.0651 H   0  0  0  0  0  0  0  0  0  0  0  0
   59.5828   31.2319   47.6417 H   0  0  0  0  0  0  0  0  0  0  0  0
  1  2  2  0
  2  3  1  0
  3  4  2  0
  4  5  1  0
  5  6  2  0
  6  7  1  0
  7  8  2  0
  7  9  1  0
  9 10  1  0
 10 11  2  0
 11 12  1  0
 12 13  2  0
 10 14  1  0
 14 15  1  0
 15 16  1  0
 16 17  1  0
 17 18  1  0
 18 19  1  0
  2 20  1  0
 20 21  1  0
 21 22  1  0
 22 23  1  0
 23 24  1  0
 24 25  2  0
 25 26  1  0
 26 27  2  0
 27 28  1  0
 28 29  2  0
 13  3  1  0
 19 14  1  0
 29 20  1  0
 12  6  1  0
 29 24  1  0
 17  9  1  0
  4 30  1  0
  5 31  1  0
 13 32  1  0
 14 33  1  6
 15 34  1  0
 15 35  1  0
 16 36  1  0
 16 37  1  0
 17 38  1  6
 18 39  1  0
 18 40  1  0
 19 41  1  0
 19 42  1  0
 21 43  1  0
 21 44  1  0
 22 45  1  0
 22 46  1  0
 23 47  1  0
 23 48  1  0
 25 49  1  0
 26 50  1  0
 27 51  1  0
 28 52  1  0
M  CHG  1  17   1
M  END
>  <UniqueID>  (74) 
64

>  <SMILES>  (74) 
O=C(c1ccc2c(=O)n3c(nc2c1)C1CC[NH+]3CC1)N1CCCc2ccccc21

>  <Energy>  (74) 
93.59493436262638

>  <Genealogy>  (74) 
O=C(c1ccc2c(=O)n3c(nc2c1)C1CC[NH+]3CC1)N1CCCc2ccccc21 (protonated)
O=C(c1ccc2c(=O)n3c(nc2c1)C1CC[NH+]3CC1)N1CCCc2ccccc21 (3D coordinates assigned)
O=C(c1ccc2c(=O)n3c(nc2c1)C1CC[NH+]3CC1)N1CCCc2ccccc21 (nonaromatic ring conformer: 93.59493436262638 kcal/mol)

>  <smiles>  (74) 
O=C(c1ccc2c(=O)n3c(nc2c1)C1CCN3CC1)N1CCCc2ccccc21

>  <score_type>  (74) 
oracle

>  <origin>  (74) 
adg

>  <m_score__min__energy>  (74) 
-8.4800000000000004

>  <m_primary>  (74) 
energy

$$$$
74:0
     RDKit          3D

 51 54  0  0  0  0  0  0  0  0999 V2000
   56.3350   30.3120   42.8500 C   0  0  0  0  0  0  0  0  0  0  0  0
   56.8930   29.4530   43.9310 C   0  0  0  0  0  0  0  0  0  0  0  0
   56.7390   29.7150   45.2470 N   0  0  0  0  0  0  0  0  0  0  0  0
   57.4070   28.8210   46.0240 C   0  0  0  0  0  0  0  0  0  0  0  0
   58.1300   27.8610   45.3220 C   0  0  0  0  0  0  0  0  0  0  0  0
   58.9310   26.7410   45.9260 C   0  0  0  0  0  0  0  0  0  0  0  0
   60.2810   27.1410   46.3830 N   0  0  0  0  0  0  0  0  0  0  0  0
   60.6230   26.7740   47.7790 C   0  0  0  0  0  0  0  0  0  0  0  0
   60.1140   27.7850   48.8290 C   0  0  0  0  0  0  0  0  0  0  0  0
   60.1760   29.1480   48.3180 N   0  0  0  0  0  0  0  0  0  0  0  0
   59.9160   30.2900   48.9780 C   0  0  0  0  0  0  0  0  0  0  0  0
   60.0140   31.3290   48.0700 C   0  0  0  0  0  0  0  0  0  0  0  0
   59.8210   32.7930   48.3660 C   0  0  0  0  0  0  0  0  0  0  0  0
   59.1130   33.5270   47.2940 N   0  0  0  0  0  0  0  0  0  0  0  0
   57.8980   32.8300   46.8360 C   0  0  0  0  0  0  0  0  0  0  0  0
   57.1250   33.7270   45.8570 C   0  0  0  0  0  0  0  0  0  0  0  0
   57.9600   34.1720   44.7210 N   0  0  0  0  0  0  0  0  0  0  0  0
   58.1520   33.1130   43.7150 C   0  0  0  0  0  0  0  0  0  0  0  0
   59.2400   34.7620   45.1690 C   0  0  0  0  0  0  0  0  0  0  0  0
   59.9890   33.8540   46.1560 C   0  0  0  0  0  0  0  0  0  0  0  0
   60.3240   30.8300   46.8550 N   0  0  0  0  0  0  0  0  0  0  0  0
   60.3990   29.4990   47.0420 C   0  0  0  0  0  0  0  0  0  0  0  0
   60.7140   28.4960   45.9800 C   0  0  0  0  0  0  0  0  0  0  0  0
   57.8830   28.1180   43.6740 S   0  0  0  0  0  0  0  0  0  0  0  0
   55.7875   31.1548   43.2972 H   0  0  0  0  0  0  0  0  0  0  0  0
   57.1558   30.6971   42.2272 H   0  0  0  0  0  0  0  0  0  0  0  0
   55.6495   29.7186   42.2272 H   0  0  0  0  0  0  0  0  0  0  0  0
   57.3782   28.8540   47.1231 H   0  0  0  0  0  0  0  0  0  0  0  0
   58.3765   26.3469   46.7904 H   0  0  0  0  0  0  0  0  0  0  0  0
   59.0737   25.9906   45.1345 H   0  0  0  0  0  0  0  0  0  0  0  0
   60.1788   25.7919   47.9986 H   0  0  0  0  0  0  0  0  0  0  0  0
   61.7207   26.7633   47.8488 H   0  0  0  0  0  0  0  0  0  0  0  0
   59.0714   27.5440   49.0839 H   0  0  0  0  0  0  0  0  0  0  0  0
   60.7556   27.7164   49.7198 H   0  0  0  0  0  0  0  0  0  0  0  0
   59.6700   30.3816   50.0462 H   0  0  0  0  0  0  0  0  0  0  0  0
   59.2382   32.8860   49.2943 H   0  0  0  0  0  0  0  0  0  0  0  0
   60.8229   33.2386   48.4539 H   0  0  0  0  0  0  0  0  0  0  0  0
   58.1813   31.8953   46.3299 H   0  0  0  0  0  0  0  0  0  0  0  0
   57.2601   32.6018   47.7026 H   0  0  0  0  0  0  0  0  0  0  0  0
   56.2659   33.1633   45.4644 H   0  0  0  0  0  0  0  0  0  0  0  0
   56.8017   34.6231   46.4069 H   0  0  0  0  0  0  0  0  0  0  0  0
   58.3261   32.1526   44.2223 H   0  0  0  0  0  0  0  0  0  0  0  0
   57.2529   33.0376   43.0858 H   0  0  0  0  0  0  0  0  0  0  0  0
   59.0204   33.3581   43.0858 H   0  0  0  0  0  0  0  0  0  0  0  0
   59.8786   34.9303   44.2893 H   0  0  0  0  0  0  0  0  0  0  0  0
   59.0117   35.7050   45.6874 H   0  0  0  0  0  0  0  0  0  0  0  0
   60.2866   32.9262   45.6454 H   0  0  0  0  0  0  0  0  0  0  0  0
   60.8840   34.3769   46.5242 H   0  0  0  0  0  0  0  0  0  0  0  0
   60.4610   31.3570   45.9640 H   0  0  0  0  0  0  0  0  0  0  0  0
   60.1936   28.7787   45.0530 H   0  0  0  0  0  0  0  0  0  0  0  0
   61.8027   28.4829   45.8233 H   0  0  0  0  0  0  0  0  0  0  0  0
  1  2  1  0
  2  3  2  0
  3  4  1  0
  4  5  2  0
  5  6  1  0
  6  7  1  0
  7  8  1  0
  8  9  1  0
  9 10  1  0
 10 11  1  0
 11 12  2  0
 12 13  1  0
 13 14  1  0
 14 15  1  0
 15 16  1  0
 16 17  1  0
 17 18  1  0
 17 19  1  0
 19 20  1  0
 12 21  1  0
 21 22  2  0
 22 23  1  0
  5 24  1  0
 24  2  1  0
 23  7  1  0
 22 10  1  0
 20 14  1  0
  1 25  1  0
  1 26  1  0
  1 27  1  0
  4 28  1  0
  6 29  1  0
  6 30  1  0
  8 31  1  0
  8 32  1  0
  9 33  1  0
  9 34  1  0
 11 35  1  0
 13 36  1  0
 13 37  1  0
 15 38  1  0
 15 39  1  0
 16 40  1  0
 16 41  1  0
 18 42  1  0
 18 43  1  0
 18 44  1  0
 19 45  1  0
 19 46  1  0
 20 47  1  0
 20 48  1  0
 21 49  1  0
 23 50  1  0
 23 51  1  0
M  CHG  1  21   1
M  END
>  <UniqueID>  (75) 
65

>  <SMILES>  (75) 
Cc1ncc(CN2CCn3cc(CN4CCN(C)CC4)[nH+]c3C2)s1

>  <Energy>  (75) 
123.51969331034239

>  <Genealogy>  (75) 
Cc1ncc(CN2CCn3cc(CN4CCN(C)CC4)[nH+]c3C2)s1 (protonated)
Cc1ncc(CN2CCn3cc(CN4CCN(C)CC4)[nH+]c3C2)s1 (3D coordinates assigned)
Cc1ncc(CN2CCn3cc(CN4CCN(C)CC4)[nH+]c3C2)s1 (nonaromatic ring conformer: 123.51969331034239 kcal/mol)

>  <smiles>  (75) 
Cc1ncc(CN2CCn3cc(CN4CCN(C)CC4)nc3C2)s1

>  <score_type>  (75) 
oracle

>  <origin>  (75) 
adg

>  <m_score__min__energy>  (75) 
-5.7599999999999998

>  <m_primary>  (75) 
energy

$$$$
75:0
     RDKit          3D

 66 66  0  0  0  0  0  0  0  0999 V2000
   57.8170   32.3570   41.6140 C   0  0  0  0  0  0  0  0  0  0  0  0
   57.5660   31.5320   42.8750 C   0  0  0  0  0  0  0  0  0  0  0  0
   56.5400   30.4090   42.6530 C   0  0  0  0  0  0  0  0  0  0  0  0
   55.9630   29.8670   43.9770 C   0  0  0  0  0  0  0  0  0  0  0  0
   57.0170   29.1590   44.8470 C   0  0  0  0  0  0  0  0  0  0  0  0
   57.9170   28.1810   44.0540 C   0  0  0  0  0  0  0  0  0  0  0  0
   57.9400   26.7450   44.6150 C   0  0  0  0  0  0  0  0  0  0  0  0
   57.9210   26.6430   46.1510 C   0  0  0  0  0  0  0  0  0  0  0  0
   59.2460   27.0770   46.8010 C   0  0  0  0  0  0  0  0  0  0  0  0
   59.1000   28.4400   47.5010 C   0  0  0  0  0  0  0  0  0  0  0  0
   60.4060   29.2630   47.5280 C   0  0  0  0  0  0  0  0  0  0  0  0
   60.2220   30.7730   47.2880 C   0  0  0  0  0  0  0  0  0  0  0  0
   58.9220   31.1840   46.5740 C   0  0  0  0  0  0  0  0  0  0  0  0
   59.1040   32.3950   45.6190 C   0  0  0  0  0  0  0  0  0  0  0  0
   58.4270   33.6730   46.0340 N   0  0  0  0  0  0  0  0  0  0  0  0
   57.4430   33.4680   47.1280 C   0  0  0  0  0  0  0  0  0  0  0  0
   57.6640   34.1700   44.8560 C   0  0  0  0  0  0  0  0  0  0  0  0
   59.4120   34.7470   46.3880 C   0  0  0  0  0  0  0  0  0  0  0  0
   60.6510   34.2740   47.1200 C   0  0  0  0  0  0  0  0  0  0  0  0
   61.7970   33.8850   46.4050 C   0  0  0  0  0  0  0  0  0  0  0  0
   62.9360   33.4430   47.0830 C   0  0  0  0  0  0  0  0  0  0  0  0
   62.9400   33.3780   48.4800 C   0  0  0  0  0  0  0  0  0  0  0  0
   64.3670   32.8190   49.3300 Cl  0  0  0  0  0  0  0  0  0  0  0  0
   61.7970   33.7420   49.1970 C   0  0  0  0  0  0  0  0  0  0  0  0
   60.6540   34.1770   48.5220 C   0  0  0  0  0  0  0  0  0  0  0  0
   58.1264   33.3740   41.8968 H   0  0  0  0  0  0  0  0  0  0  0  0
   58.6119   31.8841   41.0186 H   0  0  0  0  0  0  0  0  0  0  0  0
   56.8934   32.4069   41.0186 H   0  0  0  0  0  0  0  0  0  0  0  0
   58.5168   31.0819   43.1964 H   0  0  0  0  0  0  0  0  0  0  0  0
   57.1582   32.2090   43.6400 H   0  0  0  0  0  0  0  0  0  0  0  0
   55.7136   30.8016   42.0424 H   0  0  0  0  0  0  0  0  0  0  0  0
   57.0563   29.5790   42.1484 H   0  0  0  0  0  0  0  0  0  0  0  0
   55.5453   30.7092   44.5482 H   0  0  0  0  0  0  0  0  0  0  0  0
   55.1941   29.1232   43.7209 H   0  0  0  0  0  0  0  0  0  0  0  0
   57.6576   29.9243   45.3095 H   0  0  0  0  0  0  0  0  0  0  0  0
   56.4722   28.5634   45.5943 H   0  0  0  0  0  0  0  0  0  0  0  0
   57.5519   28.1402   43.0172 H   0  0  0  0  0  0  0  0  0  0  0  0
   58.9447   28.5659   44.1299 H   0  0  0  0  0  0  0  0  0  0  0  0
   57.0583   26.2137   44.2274 H   0  0  0  0  0  0  0  0  0  0  0  0
   58.8946   26.3050   44.2908 H   0  0  0  0  0  0  0  0  0  0  0  0
   57.1156   27.2865   46.5347 H   0  0  0  0  0  0  0  0  0  0  0  0
   57.7607   25.5854   46.4075 H   0  0  0  0  0  0  0  0  0  0  0  0
   59.5461   26.3225   47.5430 H   0  0  0  0  0  0  0  0  0  0  0  0
   60.0079   27.1690   46.0129 H   0  0  0  0  0  0  0  0  0  0  0  0
   58.3323   29.0229   46.9710 H   0  0  0  0  0  0  0  0  0  0  0  0
   58.8237   28.2382   48.5464 H   0  0  0  0  0  0  0  0  0  0  0  0
   60.8756   29.1277   48.5135 H   0  0  0  0  0  0  0  0  0  0  0  0
   61.0244   28.8903   46.6982 H   0  0  0  0  0  0  0  0  0  0  0  0
   60.2431   31.2753   48.2664 H   0  0  0  0  0  0  0  0  0  0  0  0
   61.0395   31.0704   46.6148 H   0  0  0  0  0  0  0  0  0  0  0  0
   58.5600   30.3272   45.9868 H   0  0  0  0  0  0  0  0  0  0  0  0
   58.2042   31.4859   47.3509 H   0  0  0  0  0  0  0  0  0  0  0  0
   60.1819   32.5977   45.5349 H   0  0  0  0  0  0  0  0  0  0  0  0
   58.6249   32.1004   44.6737 H   0  0  0  0  0  0  0  0  0  0  0  0
   57.9478   33.5732   48.0997 H   0  0  0  0  0  0  0  0  0  0  0  0
   56.6431   34.2188   47.0472 H   0  0  0  0  0  0  0  0  0  0  0  0
   57.0095   32.4603   47.0472 H   0  0  0  0  0  0  0  0  0  0  0  0
   56.7886   34.7402   45.2002 H   0  0  0  0  0  0  0  0  0  0  0  0
   58.3101   34.8210   44.2488 H   0  0  0  0  0  0  0  0  0  0  0  0
   57.3297   33.3159   44.2488 H   0  0  0  0  0  0  0  0  0  0  0  0
   59.7334   35.2339   45.4555 H   0  0  0  0  0  0  0  0  0  0  0  0
   58.8890   35.4227   47.0808 H   0  0  0  0  0  0  0  0  0  0  0  0
   61.7971   33.9288   45.3059 H   0  0  0  0  0  0  0  0  0  0  0  0
   63.8311   33.1456   46.5170 H   0  0  0  0  0  0  0  0  0  0  0  0
   61.7974   33.6858   50.2956 H   0  0  0  0  0  0  0  0  0  0  0  0
   59.7515   34.4450   49.0909 H   0  0  0  0  0  0  0  0  0  0  0  0
  1  2  1  0
  2  3  1  0
  3  4  1  0
  4  5  1  0
  5  6  1  0
  6  7  1  0
  7  8  1  0
  8  9  1  0
  9 10  1  0
 10 11  1  0
 11 12  1  0
 12 13  1  0
 13 14  1  0
 14 15  1  0
 15 16  1  0
 15 17  1  0
 15 18  1  0
 18 19  1  0
 19 20  2  0
 20 21  1  0
 21 22  2  0
 22 23  1  0
 22 24  1  0
 24 25  2  0
 25 19  1  0
  1 26  1  0
  1 27  1  0
  1 28  1  0
  2 29  1  0
  2 30  1  0
  3 31  1  0
  3 32  1  0
  4 33  1  0
  4 34  1  0
  5 35  1  0
  5 36  1  0
  6 37  1  0
  6 38  1  0
  7 39  1  0
  7 40  1  0
  8 41  1  0
  8 42  1  0
  9 43  1  0
  9 44  1  0
 10 45  1  0
 10 46  1  0
 11 47  1  0
 11 48  1  0
 12 49  1  0
 12 50  1  0
 13 51  1  0
 13 52  1  0
 14 53  1  0
 14 54  1  0
 16 55  1  0
 16 56  1  0
 16 57  1  0
 17 58  1  0
 17 59  1  0
 17 60  1  0
 18 61  1  0
 18 62  1  0
 20 63  1  0
 21 64  1  0
 24 65  1  0
 25 66  1  0
M  CHG  1  15   1
M  END
>  <UniqueID>  (76) 
66

>  <SMILES>  (76) 
CCCCCCCCCCCCCC[N+](C)(C)Cc1ccc(Cl)cc1

>  <Energy>  (76) 
60.71962076273651

>  <Genealogy>  (76) 
CCCCCCCCCCCCCC[N+](C)(C)Cc1ccc(Cl)cc1 (3D coordinates assigned)
CCCCCCCCCCCCCC[N+](C)(C)Cc1ccc(Cl)cc1 (optimized conformer: 60.71962076273651 kcal/mol)

>  <smiles>  (76) 
CCCCCCCCCCCCCC[N+](C)(C)Cc1ccc(Cl)cc1

>  <score_type>  (76) 
oracle

>  <origin>  (76) 
adg

>  <m_score__min__energy>  (76) 
-5.5

>  <m_primary>  (76) 
energy

$$$$
76:0
     RDKit          3D

 29 32  0  0  0  0  0  0  0  0999 V2000
   60.2240   31.0520   48.4640 O   0  0  0  0  0  0  0  0  0  0  0  0
   60.1390   32.1360   47.8260 C   0  0  0  0  0  0  0  0  0  0  0  0
   59.1590   32.4220   46.8090 C   0  0  0  0  0  0  0  0  0  0  0  0
   58.1310   31.6220   46.3150 C   0  0  0  0  0  0  0  0  0  0  0  0
   57.3240   32.1270   45.3380 N   0  0  0  0  0  0  0  0  0  0  0  0
   57.5000   33.3880   44.8400 C   0  0  0  0  0  0  0  0  0  0  0  0
   58.5310   34.2060   45.3280 C   0  0  0  0  0  0  0  0  0  0  0  0
   59.3580   33.6910   46.3280 C   0  0  0  0  0  0  0  0  0  0  0  0
   60.5110   34.3790   46.9920 C   0  0  0  0  0  0  0  0  0  0  0  0
   61.0390   33.3210   48.0070 C   0  0  0  0  0  0  0  0  0  0  0  0
   61.0500   33.8160   49.4310 C   0  0  0  0  0  0  0  0  0  0  0  0
   60.0390   34.2180   50.0660 O   0  0  0  0  0  0  0  0  0  0  0  0
   62.4010   33.7570   49.9730 C   0  0  0  0  0  0  0  0  0  0  0  0
   62.8640   34.1150   51.2390 C   0  0  0  0  0  0  0  0  0  0  0  0
   64.2330   33.9560   51.5170 C   0  0  0  0  0  0  0  0  0  0  0  0
   65.1040   33.4450   50.5330 C   0  0  0  0  0  0  0  0  0  0  0  0
   64.6130   33.0900   49.2660 C   0  0  0  0  0  0  0  0  0  0  0  0
   63.2510   33.2590   49.0140 C   0  0  0  0  0  0  0  0  0  0  0  0
   62.4910   32.9720   47.8040 C   0  0  0  0  0  0  0  0  0  0  0  0
   62.9790   32.4940   46.7460 O   0  0  0  0  0  0  0  0  0  0  0  0
   57.9735   30.6053   46.7043 H   0  0  0  0  0  0  0  0  0  0  0  0
   56.8300   33.7636   44.0526 H   0  0  0  0  0  0  0  0  0  0  0  0
   58.6828   35.2219   44.9345 H   0  0  0  0  0  0  0  0  0  0  0  0
   61.2876   34.6397   46.2579 H   0  0  0  0  0  0  0  0  0  0  0  0
   60.2224   35.3247   47.4740 H   0  0  0  0  0  0  0  0  0  0  0  0
   62.1759   34.5115   52.0002 H   0  0  0  0  0  0  0  0  0  0  0  0
   64.6263   34.2315   52.5066 H   0  0  0  0  0  0  0  0  0  0  0  0
   66.1737   33.3237   50.7589 H   0  0  0  0  0  0  0  0  0  0  0  0
   65.2846   32.6892   48.4925 H   0  0  0  0  0  0  0  0  0  0  0  0
  1  2  2  0
  2  3  1  0
  3  4  2  0
  4  5  1  0
  5  6  2  0
  6  7  1  0
  7  8  2  0
  8  9  1  0
  9 10  1  0
 10 11  1  0
 11 12  2  0
 11 13  1  0
 13 14  2  0
 14 15  1  0
 15 16  2  0
 16 17  1  0
 17 18  2  0
 18 19  1  0
 19 20  2  0
 10  2  1  0
 18 13  1  0
  8  3  1  0
 19 10  1  0
  4 21  1  0
  6 22  1  0
  7 23  1  0
  9 24  1  0
  9 25  1  0
 14 26  1  0
 15 27  1  0
 16 28  1  0
 17 29  1  0
M  END
>  <UniqueID>  (77) 
67

>  <SMILES>  (77) 
O=C1c2cnccc2CC12C(=O)c1ccccc1C2=O

>  <Energy>  (77) 
70.65405402358374

>  <Genealogy>  (77) 
O=C1c2cnccc2CC12C(=O)c1ccccc1C2=O (3D coordinates assigned)
O=C1c2cnccc2CC12C(=O)c1ccccc1C2=O (nonaromatic ring conformer: 70.65405402358374 kcal/mol)

>  <smiles>  (77) 
O=C1c2cnccc2CC12C(=O)c1ccccc1C2=O

>  <score_type>  (77) 
oracle

>  <origin>  (77) 
adg

>  <m_score__min__energy>  (77) 
-6.9100000000000001

>  <m_primary>  (77) 
energy

$$$$
77:0
     RDKit          3D

 36 38  0  0  0  0  0  0  0  0999 V2000
   56.4040   22.0880   49.4980 C   0  0  0  0  0  0  0  0  0  0  0  0
   57.1440   22.7210   48.4610 O   0  0  0  0  0  0  0  0  0  0  0  0
   56.8830   22.5770   47.0890 C   0  0  0  0  0  0  0  0  0  0  0  0
   56.7880   21.3070   46.4840 C   0  0  0  0  0  0  0  0  0  0  0  0
   56.5940   21.1910   45.1050 C   0  0  0  0  0  0  0  0  0  0  0  0
   56.4990   22.3360   44.3130 C   0  0  0  0  0  0  0  0  0  0  0  0
   56.2750   22.1870   42.5790 Cl  0  0  0  0  0  0  0  0  0  0  0  0
   56.5800   23.6000   44.9020 C   0  0  0  0  0  0  0  0  0  0  0  0
   56.7410   23.7310   46.2870 C   0  0  0  0  0  0  0  0  0  0  0  0
   56.8210   25.0520   46.8420 N   0  0  0  0  0  0  0  0  0  0  0  0
   56.3260   26.2420   46.2190 C   0  0  0  0  0  0  0  0  0  0  0  0
   55.0880   26.4090   46.0530 O   0  0  0  0  0  0  0  0  0  0  0  0
   57.2720   27.2530   45.7280 C   0  0  0  0  0  0  0  0  0  0  0  0
   57.0230   28.6150   45.6070 C   0  0  0  0  0  0  0  0  0  0  0  0
   58.1240   29.3440   45.1160 C   0  0  0  0  0  0  0  0  0  0  0  0
   58.1040   30.8140   44.8980 C   0  0  0  0  0  0  0  0  0  0  0  0
   57.7920   31.3470   43.6330 C   0  0  0  0  0  0  0  0  0  0  0  0
   57.7750   32.7290   43.4300 C   0  0  0  0  0  0  0  0  0  0  0  0
   58.0680   33.5970   44.4850 C   0  0  0  0  0  0  0  0  0  0  0  0
   58.3800   33.0830   45.7460 C   0  0  0  0  0  0  0  0  0  0  0  0
   58.7440   34.1730   47.0710 Cl  0  0  0  0  0  0  0  0  0  0  0  0
   58.4000   31.6990   45.9530 C   0  0  0  0  0  0  0  0  0  0  0  0
   59.2360   28.5410   44.8560 C   0  0  0  0  0  0  0  0  0  0  0  0
   58.8470   26.9490   45.2300 S   0  0  0  0  0  0  0  0  0  0  0  0
   56.7878   22.4163   50.4752 H   0  0  0  0  0  0  0  0  0  0  0  0
   55.3422   22.3616   49.4103 H   0  0  0  0  0  0  0  0  0  0  0  0
   56.5098   20.9966   49.4103 H   0  0  0  0  0  0  0  0  0  0  0  0
   56.8672   20.4006   47.1022 H   0  0  0  0  0  0  0  0  0  0  0  0
   56.5161   20.1957   44.6431 H   0  0  0  0  0  0  0  0  0  0  0  0
   56.5168   24.5000   44.2727 H   0  0  0  0  0  0  0  0  0  0  0  0
   56.0604   29.0784   45.8690 H   0  0  0  0  0  0  0  0  0  0  0  0
   57.5598   30.6699   42.7978 H   0  0  0  0  0  0  0  0  0  0  0  0
   57.5304   33.1348   42.4373 H   0  0  0  0  0  0  0  0  0  0  0  0
   58.0530   34.6849   44.3227 H   0  0  0  0  0  0  0  0  0  0  0  0
   58.6488   31.2993   46.9472 H   0  0  0  0  0  0  0  0  0  0  0  0
   60.2049   28.8915   44.4708 H   0  0  0  0  0  0  0  0  0  0  0  0
  1  2  1  0
  2  3  1  0
  3  4  2  0
  4  5  1  0
  5  6  2  0
  6  7  1  0
  6  8  1  0
  8  9  2  0
  9 10  1  0
 10 11  1  0
 11 12  2  0
 11 13  1  0
 13 14  2  0
 14 15  1  0
 15 16  1  0
 16 17  2  0
 17 18  1  0
 18 19  2  0
 19 20  1  0
 20 21  1  0
 20 22  2  0
 15 23  2  0
 23 24  1  0
  9  3  1  0
 24 13  1  0
 22 16  1  0
  1 25  1  0
  1 26  1  0
  1 27  1  0
  4 28  1  0
  5 29  1  0
  8 30  1  0
 14 31  1  0
 17 32  1  0
 18 33  1  0
 19 34  1  0
 22 35  1  0
 23 36  1  0
M  CHG  1  10  -1
M  END
>  <UniqueID>  (78) 
68

>  <SMILES>  (78) 
COc1ccc(Cl)cc1[N-]C(=O)c1cc(-c2cccc(Cl)c2)cs1

>  <Energy>  (78) 
72.0521570916986

>  <Genealogy>  (78) 
COc1ccc(Cl)cc1[N-]C(=O)c1cc(-c2cccc(Cl)c2)cs1 (protonated)
COc1ccc(Cl)cc1[N-]C(=O)c1cc(-c2cccc(Cl)c2)cs1 (3D coordinates assigned)
COc1ccc(Cl)cc1[N-]C(=O)c1cc(-c2cccc(Cl)c2)cs1 (optimized conformer: 72.0521570916986 kcal/mol)

>  <smiles>  (78) 
COc1ccc(Cl)cc1NC(=O)c1cc(-c2cccc(Cl)c2)cs1

>  <score_type>  (78) 
oracle

>  <origin>  (78) 
adg

>  <m_score__min__energy>  (78) 
-11.52

>  <m_primary>  (78) 
energy

$$$$
78:0
     RDKit          3D

 26 27  0  0  0  0  0  0  0  0999 V2000
   60.5470   30.4960   46.6620 C   0  0  0  0  0  0  0  0  0  0  0  0
   59.8760   29.4710   46.1290 C   0  0  0  0  0  0  0  0  0  0  0  0
   59.3180   29.5250   44.7350 C   0  0  0  0  0  0  0  0  0  0  0  0
   57.8690   29.7350   44.7860 N   0  0  0  0  0  0  0  0  0  0  0  0
   57.1570   30.7960   44.3370 C   0  0  0  0  0  0  0  0  0  0  0  0
   57.7410   32.0570   43.7740 C   0  0  0  0  0  0  0  0  0  0  0  0
   58.2010   32.9580   44.8770 C   0  0  0  0  0  0  0  0  0  0  0  0
   59.0360   34.0590   44.7380 C   0  0  0  0  0  0  0  0  0  0  0  0
   59.2930   34.7110   45.9490 C   0  0  0  0  0  0  0  0  0  0  0  0
   58.6620   34.1280   47.0420 C   0  0  0  0  0  0  0  0  0  0  0  0
   57.7830   32.8010   46.4990 S   0  0  0  0  0  0  0  0  0  0  0  0
   55.8290   30.6070   44.4940 N   0  0  0  0  0  0  0  0  0  0  0  0
   55.6870   29.4040   45.0290 N   0  0  0  0  0  0  0  0  0  0  0  0
   56.9120   28.8780   45.1950 C   0  0  0  0  0  0  0  0  0  0  0  0
   57.1810   27.3780   45.7980 S   0  0  0  0  0  0  0  0  0  0  0  0
   60.9418   30.4219   47.6860 H   0  0  0  0  0  0  0  0  0  0  0  0
   60.7046   31.4140   46.0768 H   0  0  0  0  0  0  0  0  0  0  0  0
   59.7277   28.5607   46.7284 H   0  0  0  0  0  0  0  0  0  0  0  0
   59.7877   30.3544   44.1859 H   0  0  0  0  0  0  0  0  0  0  0  0
   59.5285   28.5742   44.2235 H   0  0  0  0  0  0  0  0  0  0  0  0
   58.5975   31.8043   43.1317 H   0  0  0  0  0  0  0  0  0  0  0  0
   56.9687   32.5767   43.1879 H   0  0  0  0  0  0  0  0  0  0  0  0
   59.4530   34.3853   43.7738 H   0  0  0  0  0  0  0  0  0  0  0  0
   59.9341   35.6013   46.0287 H   0  0  0  0  0  0  0  0  0  0  0  0
   58.7266   34.4752   48.0838 H   0  0  0  0  0  0  0  0  0  0  0  0
   54.7710   28.9620   45.2630 H   0  0  0  0  0  0  0  0  0  0  0  0
  1  2  2  0
  2  3  1  0
  3  4  1  0
  4  5  1  0
  5  6  1  0
  6  7  1  0
  7  8  2  0
  8  9  1  0
  9 10  2  0
 10 11  1  0
  5 12  2  0
 12 13  1  0
 13 14  1  0
 14 15  2  0
 14  4  1  0
 11  7  1  0
  1 16  1  0
  1 17  1  0
  2 18  1  0
  3 19  1  0
  3 20  1  0
  6 21  1  0
  6 22  1  0
  8 23  1  0
  9 24  1  0
 10 25  1  0
 13 26  1  0
M  END
>  <UniqueID>  (79) 
69

>  <SMILES>  (79) 
C=CCn1c(Cc2cccs2)n[nH]c1=S

>  <Energy>  (79) 
82.99120685216538

>  <Genealogy>  (79) 
C=CCn1c(Cc2cccs2)n[nH]c1=S (3D coordinates assigned)
C=CCn1c(Cc2cccs2)n[nH]c1=S (optimized conformer: 82.99120685216538 kcal/mol)

>  <smiles>  (79) 
C=CCn1c(Cc2cccs2)n[nH]c1=S

>  <score_type>  (79) 
oracle

>  <origin>  (79) 
adg

>  <m_score__min__energy>  (79) 
-6.8300000000000001

>  <m_primary>  (79) 
energy

$$$$
79:0
     RDKit          3D

 45 49  0  0  0  0  0  0  0  0999 V2000
   62.5080   31.5420   49.0170 C   0  0  0  0  0  0  0  0  0  0  0  0
   61.7440   31.9730   47.9980 C   0  0  0  0  0  0  0  0  0  0  0  0
   60.8130   31.1090   47.2560 C   0  0  0  0  0  0  0  0  0  0  0  0
   59.9650   31.5590   46.3070 N   0  0  0  0  0  0  0  0  0  0  0  0
   59.3240   30.4450   45.9020 C   0  0  0  0  0  0  0  0  0  0  0  0
   58.3570   30.4430   44.7840 C   0  0  0  0  0  0  0  0  0  0  0  0
   57.5290   29.3330   44.5430 C   0  0  0  0  0  0  0  0  0  0  0  0
   56.6340   29.3400   43.4690 C   0  0  0  0  0  0  0  0  0  0  0  0
   56.5700   30.4460   42.6180 C   0  0  0  0  0  0  0  0  0  0  0  0
   57.4060   31.5450   42.8360 C   0  0  0  0  0  0  0  0  0  0  0  0
   58.3010   31.5420   43.9100 C   0  0  0  0  0  0  0  0  0  0  0  0
   59.7980   29.3640   46.6340 C   0  0  0  0  0  0  0  0  0  0  0  0
   59.3680   27.9510   46.5950 C   0  0  0  0  0  0  0  0  0  0  0  0
   60.2360   26.9780   46.0750 C   0  0  0  0  0  0  0  0  0  0  0  0
   59.8550   25.6340   46.0500 C   0  0  0  0  0  0  0  0  0  0  0  0
   58.6120   25.2470   46.5590 C   0  0  0  0  0  0  0  0  0  0  0  0
   57.7520   26.2060   47.1020 C   0  0  0  0  0  0  0  0  0  0  0  0
   58.1300   27.5520   47.1300 C   0  0  0  0  0  0  0  0  0  0  0  0
   60.7210   29.8130   47.4470 O   0  0  0  0  0  0  0  0  0  0  0  0
   61.9410   33.4560   47.6880 C   0  0  0  0  0  0  0  0  0  0  0  0
   63.4610   33.6520   47.3910 C   0  0  0  0  0  0  0  0  0  0  0  0
   64.2910   33.0830   48.5890 C   0  0  0  0  0  0  0  0  0  0  0  0
   63.3420   32.5640   49.5940 N   0  0  0  0  0  0  0  0  0  0  0  0
   62.5140   33.6470   50.1600 C   0  0  0  0  0  0  0  0  0  0  0  0
   61.6320   34.2320   49.0070 C   0  0  0  0  0  0  0  0  0  0  0  0
   62.4969   30.5027   49.3772 H   0  0  0  0  0  0  0  0  0  0  0  0
   57.5855   28.4546   45.2026 H   0  0  0  0  0  0  0  0  0  0  0  0
   55.9794   28.4735   43.2938 H   0  0  0  0  0  0  0  0  0  0  0  0
   55.8618   30.4521   41.7764 H   0  0  0  0  0  0  0  0  0  0  0  0
   57.3596   32.4130   42.1618 H   0  0  0  0  0  0  0  0  0  0  0  0
   58.9647   32.4042   44.0717 H   0  0  0  0  0  0  0  0  0  0  0  0
   61.2208   27.2751   45.6853 H   0  0  0  0  0  0  0  0  0  0  0  0
   60.5348   24.8787   45.6288 H   0  0  0  0  0  0  0  0  0  0  0  0
   58.3110   24.1893   46.5323 H   0  0  0  0  0  0  0  0  0  0  0  0
   56.7761   25.9013   47.5080 H   0  0  0  0  0  0  0  0  0  0  0  0
   57.4568   28.3013   47.5720 H   0  0  0  0  0  0  0  0  0  0  0  0
   61.3109   33.7951   46.8526 H   0  0  0  0  0  0  0  0  0  0  0  0
   63.7289   33.1155   46.4688 H   0  0  0  0  0  0  0  0  0  0  0  0
   63.6797   34.7223   47.2621 H   0  0  0  0  0  0  0  0  0  0  0  0
   64.9448   32.2709   48.2382 H   0  0  0  0  0  0  0  0  0  0  0  0
   64.9198   33.8717   49.0278 H   0  0  0  0  0  0  0  0  0  0  0  0
   61.8699   33.2472   50.9570 H   0  0  0  0  0  0  0  0  0  0  0  0
   63.1528   34.4327   50.5896 H   0  0  0  0  0  0  0  0  0  0  0  0
   60.5681   34.1174   49.2619 H   0  0  0  0  0  0  0  0  0  0  0  0
   61.8574   35.3001   48.8716 H   0  0  0  0  0  0  0  0  0  0  0  0
  1  2  2  0
  2  3  1  0
  3  4  2  0
  4  5  1  0
  5  6  1  0
  6  7  2  0
  7  8  1  0
  8  9  2  0
  9 10  1  0
 10 11  2  0
  5 12  2  0
 12 13  1  0
 13 14  2  0
 14 15  1  0
 15 16  2  0
 16 17  1  0
 17 18  2  0
 12 19  1  0
  2 20  1  0
 20 21  1  0
 21 22  1  0
 22 23  1  0
 23 24  1  0
 24 25  1  0
 23  1  1  0
 19  3  1  0
 25 20  1  0
 11  6  1  0
 18 13  1  0
  1 26  1  0
  7 27  1  0
  8 28  1  0
  9 29  1  0
 10 30  1  0
 11 31  1  0
 14 32  1  0
 15 33  1  0
 16 34  1  0
 17 35  1  0
 18 36  1  0
 20 37  1  0
 21 38  1  0
 21 39  1  0
 22 40  1  0
 22 41  1  0
 24 42  1  0
 24 43  1  0
 25 44  1  0
 25 45  1  0
M  END
>  <UniqueID>  (80) 
70

>  <SMILES>  (80) 
C1=C(c2nc(-c3ccccc3)c(-c3ccccc3)o2)C2CCN1CC2

>  <Energy>  (80) 
125.57418884325702

>  <Genealogy>  (80) 
C1=C(c2nc(-c3ccccc3)c(-c3ccccc3)o2)C2CCN1CC2 (3D coordinates assigned)
C1=C(c2nc(-c3ccccc3)c(-c3ccccc3)o2)C2CCN1CC2 (nonaromatic ring conformer: 125.57418884325702 kcal/mol)

>  <smiles>  (80) 
C1=C(c2nc(-c3ccccc3)c(-c3ccccc3)o2)C2CCN1CC2

>  <score_type>  (80) 
oracle

>  <origin>  (80) 
adg

>  <m_score__min__energy>  (80) 
-7.7000000000000002

>  <m_primary>  (80) 
energy

$$$$
80:0
     RDKit          3D

 41 44  0  0  0  0  0  0  0  0999 V2000
   54.3720   26.7080   46.7740 H   0  0  0  0  0  0  0  0  0  0  0  0
   54.9810   26.4860   45.9940 O   0  0  0  0  0  0  0  0  0  0  0  0
   56.2860   26.9620   45.9570 C   0  0  0  0  0  0  0  0  0  0  0  0
   57.3550   26.3410   46.5280 N   0  0  0  0  0  0  0  0  0  0  0  0
   58.4540   27.0670   46.2970 N   0  0  0  0  0  0  0  0  0  0  0  0
   58.0230   28.1230   45.5900 C   0  0  0  0  0  0  0  0  0  0  0  0
   56.7300   28.1080   45.3570 C   0  0  0  0  0  0  0  0  0  0  0  0
   56.4040   29.2150   44.6170 C   0  0  0  0  0  0  0  0  0  0  0  0
   55.4175   29.5224   44.2398 H   0  0  0  0  0  0  0  0  0  0  0  0
   57.6490   29.8630   44.4590 C   0  0  0  0  0  0  0  0  0  0  0  0
   57.8700   31.1330   43.6820 C   0  0  2  0  0  0  0  0  0  0  0  0
   58.9377   31.2010   43.4264 H   0  0  0  0  0  0  0  0  0  0  0  0
   57.4960   32.3020   44.4850 N   0  0  0  0  0  0  0  0  0  0  0  0
   58.0860   32.7320   45.5650 C   0  0  0  0  0  0  0  0  0  0  0  0
   58.5420   34.3530   45.6580 S   0  0  0  0  0  0  0  0  0  0  0  0
   59.2870   34.7290   47.1250 C   0  0  0  0  0  0  0  0  0  0  0  0
   59.6295   35.7531   47.3345 H   0  0  0  0  0  0  0  0  0  0  0  0
   59.4600   33.7100   48.0700 C   0  0  0  0  0  0  0  0  0  0  0  0
   60.1150   34.0430   49.3590 C   0  0  0  0  0  0  0  0  0  0  0  0
   59.5370   33.7450   50.4370 O   0  0  0  0  0  0  0  0  0  0  0  0
   61.4180   34.6480   49.4240 N   0  0  0  0  0  0  0  0  0  0  0  0
   62.5410   34.0310   49.6520 C   0  0  0  0  0  0  0  0  0  0  0  0
   63.3670   34.4190   50.6670 N   0  0  0  0  0  0  0  0  0  0  0  0
   64.5380   33.7800   50.9280 C   0  0  0  0  0  0  0  0  0  0  0  0
   65.1814   34.1245   51.7510 H   0  0  0  0  0  0  0  0  0  0  0  0
   64.9240   32.6850   50.1500 C   0  0  0  0  0  0  0  0  0  0  0  0
   66.4330   31.8520   50.4770 Cl  0  0  0  0  0  0  0  0  0  0  0  0
   64.0920   32.2590   49.1120 C   0  0  0  0  0  0  0  0  0  0  0  0
   64.3802   31.3966   48.4930 H   0  0  0  0  0  0  0  0  0  0  0  0
   62.8930   32.9310   48.8620 C   0  0  0  0  0  0  0  0  0  0  0  0
   62.2303   32.5977   48.0498 H   0  0  0  0  0  0  0  0  0  0  0  0
   59.0000   32.3870   47.8460 C   0  0  0  0  0  0  0  0  0  0  0  0
   59.1528   31.6600   48.6573 H   0  0  0  0  0  0  0  0  0  0  0  0
   58.3650   31.9200   46.6780 C   0  0  0  0  0  0  0  0  0  0  0  0
   58.0712   30.8608   46.6348 H   0  0  0  0  0  0  0  0  0  0  0  0
   57.0340   31.1120   42.4060 C   0  0  0  0  0  0  0  0  0  0  0  0
   55.9659   31.0852   42.6678 H   0  0  0  0  0  0  0  0  0  0  0  0
   57.2441   32.0157   41.8151 H   0  0  0  0  0  0  0  0  0  0  0  0
   57.2892   30.2200   41.8151 H   0  0  0  0  0  0  0  0  0  0  0  0
   58.6590   29.1710   45.0630 N   0  0  0  0  0  0  0  0  0  0  0  0
   59.6770   29.3990   45.0980 H   0  0  0  0  0  0  0  0  0  0  0  0
  1  2  1  0
  2  3  1  0
  3  4  1  0
  4  5  1  0
  5  6  2  0
  6  7  1  0
  7  8  1  0
  8  9  1  0
  8 10  2  0
 10 11  1  0
 11 12  1  6
 11 13  1  0
 13 14  2  3
 14 15  1  0
 15 16  1  0
 16 17  1  0
 16 18  2  0
 18 19  1  0
 19 20  2  0
 19 21  1  0
 21 22  2  0
 22 23  1  0
 23 24  1  0
 24 25  1  0
 24 26  2  0
 26 27  1  0
 26 28  1  0
 28 29  1  0
 28 30  2  0
 30 31  1  0
 18 32  1  0
 32 33  1  0
 32 34  2  0
 34 35  1  0
 11 36  1  0
 36 37  1  0
 36 38  1  0
 36 39  1  0
 10 40  1  0
 40 41  1  0
  7  3  2  0
 34 14  1  0
 40  6  1  0
 30 22  1  0
M  CHG  2   4  -1  23  -1
M  END
>  <UniqueID>  (81) 
71

>  <SMILES>  (81) 
C[C@@H](N=c1ccc(C(=O)/N=c2/ccc(Cl)c[n-]2)cs1)c1cc2c(O)[n-]nc2[nH]1

>  <Energy>  (81) 
143.51117326297498

>  <Genealogy>  (81) 
CC(N=c1ccc(C(=O)N=c2ccc(Cl)c[n-]2)cs1)c1cc2c(O)[n-]nc2[nH]1 (protonated)
C[C@@H](N=c1ccc(C(=O)N=c2ccc(Cl)c[n-]2)cs1)c1cc2c(O)[n-]nc2[nH]1 (chirality)
C[C@@H](N=c1ccc(C(=O)/N=c2/ccc(Cl)c[n-]2)cs1)c1cc2c(O)[n-]nc2[nH]1 (cis-trans isomerization)
C[C@@H](N=c1ccc(C(=O)/N=c2/ccc(Cl)c[n-]2)cs1)c1cc2c(O)[n-]nc2[nH]1 (3D coordinates assigned)
C[C@@H](N=c1ccc(C(=O)/N=c2/ccc(Cl)c[n-]2)cs1)c1cc2c(O)[n-]nc2[nH]1 (optimized conformer: 143.51117326297498 kcal/mol)

>  <smiles>  (81) 
CC(N=c1ccc(C(=O)N=c2ccc(Cl)c[nH]2)cs1)c1cc2c(O)[nH]nc2[nH]1

>  <score_type>  (81) 
oracle

>  <origin>  (81) 
adg

>  <m_score__min__energy>  (81) 
-12.81

>  <m_primary>  (81) 
energy

$$$$
81:0
     RDKit          3D

 63 66  0  0  0  0  0  0  0  0999 V2000
   60.4375   36.0146   47.7639 H   0  0  0  0  0  0  0  0  0  0  0  0
   60.3440   34.9190   47.7330 C   0  0  0  0  0  0  0  0  0  0  0  0
   59.1310   34.4030   47.5020 C   0  0  0  0  0  0  0  0  0  0  0  0
   58.2658   35.0814   47.5351 H   0  0  0  0  0  0  0  0  0  0  0  0
   58.8840   32.9760   47.2050 C   0  0  0  0  0  0  0  0  0  0  0  0
   59.6380   31.9990   47.7610 N   0  0  0  0  0  0  0  0  0  0  0  0
   59.1760   30.8860   47.1640 C   0  0  0  0  0  0  0  0  0  0  0  0
   58.1920   31.1810   46.2880 C   0  0  0  0  0  0  0  0  0  0  0  0
   57.6130   30.1830   45.5180 C   0  0  0  0  0  0  0  0  0  0  0  0
   56.7340   30.4610   44.6590 O   0  0  0  0  0  0  0  0  0  0  0  0
   58.0410   28.8880   45.7020 N   0  0  0  0  0  0  0  0  0  0  0  0
   57.4850   27.8090   44.8670 C   0  0  0  0  0  0  0  0  0  0  0  0
   56.5770   28.1713   44.3628 H   0  0  0  0  0  0  0  0  0  0  0  0
   57.2416   26.9490   45.5081 H   0  0  0  0  0  0  0  0  0  0  0  0
   58.5120   27.3710   43.8100 C   0  0  0  0  0  0  0  0  0  0  0  0
   59.1917   26.6298   44.2557 H   0  0  0  0  0  0  0  0  0  0  0  0
   59.0701   28.2588   43.4779 H   0  0  0  0  0  0  0  0  0  0  0  0
   57.8280   26.7530   42.6020 C   0  0  0  0  0  0  0  0  0  0  0  0
   57.0512   26.0512   42.9397 H   0  0  0  0  0  0  0  0  0  0  0  0
   57.3667   27.5467   41.9959 H   0  0  0  0  0  0  0  0  0  0  0  0
   58.5709   26.2138   41.9959 H   0  0  0  0  0  0  0  0  0  0  0  0
   59.0390   28.6090   46.6240 C   0  0  0  0  0  0  0  0  0  0  0  0
   59.4160   27.4110   46.7970 O   0  0  0  0  0  0  0  0  0  0  0  0
   59.6230   29.6160   47.3580 N   0  0  0  0  0  0  0  0  0  0  0  0
   60.7000   29.3480   48.3300 C   0  0  0  0  0  0  0  0  0  0  0  0
   61.4975   28.7762   47.8330 H   0  0  0  0  0  0  0  0  0  0  0  0
   61.0840   30.3109   48.6980 H   0  0  0  0  0  0  0  0  0  0  0  0
   60.1790   28.5420   49.5300 C   0  0  0  0  0  0  0  0  0  0  0  0
   59.1844   28.9211   49.8075 H   0  0  0  0  0  0  0  0  0  0  0  0
   60.1331   27.4835   49.2342 H   0  0  0  0  0  0  0  0  0  0  0  0
   61.1040   28.6540   50.7390 C   0  0  0  0  0  0  0  0  0  0  0  0
   60.5107   28.5822   51.6625 H   0  0  0  0  0  0  0  0  0  0  0  0
   61.8419   27.8386   50.7129 H   0  0  0  0  0  0  0  0  0  0  0  0
   61.6260   29.6219   50.7129 H   0  0  0  0  0  0  0  0  0  0  0  0
   57.9710   32.5060   46.3070 N   0  0  0  0  0  0  0  0  0  0  0  0
   56.9340   33.2390   45.5910 C   0  0  0  0  0  0  0  0  0  0  0  0
   56.2572   33.7174   46.3143 H   0  0  0  0  0  0  0  0  0  0  0  0
   57.3996   34.0098   44.9592 H   0  0  0  0  0  0  0  0  0  0  0  0
   56.3627   32.5429   44.9592 H   0  0  0  0  0  0  0  0  0  0  0  0
   61.5700   34.1150   47.9500 C   0  0  0  0  0  0  0  0  0  0  0  0
   62.3480   33.6820   46.8570 C   0  0  0  0  0  0  0  0  0  0  0  0
   62.0374   33.9352   45.8326 H   0  0  0  0  0  0  0  0  0  0  0  0
   63.5040   32.9380   47.0620 C   0  0  0  0  0  0  0  0  0  0  0  0
   64.1156   32.6204   46.2046 H   0  0  0  0  0  0  0  0  0  0  0  0
   63.8840   32.5970   48.3540 C   0  0  0  0  0  0  0  0  0  0  0  0
   64.7920   31.9980   48.5176 H   0  0  0  0  0  0  0  0  0  0  0  0
   63.1170   33.0120   49.4480 C   0  0  0  0  0  0  0  0  0  0  0  0
   63.4197   32.7273   50.4665 H   0  0  0  0  0  0  0  0  0  0  0  0
   61.9670   33.7870   49.2560 C   0  0  0  0  0  0  0  0  0  0  0  0
   61.2190   34.2400   50.3500 O   0  0  0  0  0  0  0  0  0  0  0  0
   60.9050   33.4330   51.4430 C   0  0  0  0  0  0  0  0  0  0  0  0
   61.7390   33.2840   52.3760 O   0  0  0  0  0  0  0  0  0  0  0  0
   59.5770   32.7900   51.5390 C   0  0  0  0  0  0  0  0  0  0  0  0
   59.3200   31.5940   50.8310 C   0  0  0  0  0  0  0  0  0  0  0  0
   60.1181   31.1370   50.2276 H   0  0  0  0  0  0  0  0  0  0  0  0
   58.0640   30.9860   50.8890 C   0  0  0  0  0  0  0  0  0  0  0  0
   57.8813   30.0470   50.3459 H   0  0  0  0  0  0  0  0  0  0  0  0
   57.0390   31.5720   51.6380 C   0  0  0  0  0  0  0  0  0  0  0  0
   56.0459   31.1005   51.6767 H   0  0  0  0  0  0  0  0  0  0  0  0
   57.2790   32.7590   52.3380 C   0  0  0  0  0  0  0  0  0  0  0  0
   56.4677   33.2223   52.9186 H   0  0  0  0  0  0  0  0  0  0  0  0
   58.5450   33.3650   52.3070 C   0  0  0  0  0  0  0  0  0  0  0  0
   58.7400   34.5270   52.9910 F   0  0  0  0  0  0  0  0  0  0  0  0
  1  2  1  0
  2  3  2  0
  3  4  1  0
  3  5  1  0
  5  6  2  0
  6  7  1  0
  7  8  2  0
  8  9  1  0
  9 10  2  0
  9 11  1  0
 11 12  1  0
 12 13  1  0
 12 14  1  0
 12 15  1  0
 15 16  1  0
 15 17  1  0
 15 18  1  0
 18 19  1  0
 18 20  1  0
 18 21  1  0
 11 22  1  0
 22 23  2  0
 22 24  1  0
 24 25  1  0
 25 26  1  0
 25 27  1  0
 25 28  1  0
 28 29  1  0
 28 30  1  0
 28 31  1  0
 31 32  1  0
 31 33  1  0
 31 34  1  0
  8 35  1  0
 35 36  1  0
 36 37  1  0
 36 38  1  0
 36 39  1  0
  2 40  1  0
 40 41  2  0
 41 42  1  0
 41 43  1  0
 43 44  1  0
 43 45  2  0
 45 46  1  0
 45 47  1  0
 47 48  1  0
 47 49  2  0
 49 50  1  0
 50 51  1  0
 51 52  2  0
 51 53  1  0
 53 54  2  0
 54 55  1  0
 54 56  1  0
 56 57  1  0
 56 58  2  0
 58 59  1  0
 58 60  1  0
 60 61  1  0
 60 62  2  0
 62 63  1  0
 35  5  1  0
 49 40  1  0
 62 53  1  0
 24  7  1  0
M  END
>  <UniqueID>  (82) 
72

>  <SMILES>  (82) 
CCCn1c(=O)c2c(nc(/C=C\c3ccccc3OC(=O)c3ccccc3F)n2C)n(CCC)c1=O

>  <Energy>  (82) 
120.45188043433622

>  <Genealogy>  (82) 
CCCn1c(=O)c2c(nc(/C=C\c3ccccc3OC(=O)c3ccccc3F)n2C)n(CCC)c1=O (cis-trans isomerization)
CCCn1c(=O)c2c(nc(/C=C\c3ccccc3OC(=O)c3ccccc3F)n2C)n(CCC)c1=O (3D coordinates assigned)
CCCn1c(=O)c2c(nc(/C=C\c3ccccc3OC(=O)c3ccccc3F)n2C)n(CCC)c1=O (optimized conformer: 120.45188043433622 kcal/mol)

>  <smiles>  (82) 
CCCn1c(=O)c2c(nc(C=Cc3ccccc3OC(=O)c3ccccc3F)n2C)n(CCC)c1=O

>  <score_type>  (82) 
oracle

>  <origin>  (82) 
adg

>  <m_score__min__energy>  (82) 
-8.7599999999999998

>  <m_primary>  (82) 
energy

$$$$
82:0
     RDKit          3D

 31 33  0  0  0  0  0  0  0  0999 V2000
   58.0390   22.9470   45.9870 C   0  0  0  0  0  0  0  0  0  0  0  0
   57.7250   24.4000   45.7870 C   0  0  0  0  0  0  0  0  0  0  0  0
   58.6970   25.2680   45.2710 C   0  0  0  0  0  0  0  0  0  0  0  0
   58.3960   26.6130   45.0500 C   0  0  0  0  0  0  0  0  0  0  0  0
   57.1160   27.1170   45.3380 C   0  0  0  0  0  0  0  0  0  0  0  0
   56.8470   28.5540   45.0980 C   0  0  0  0  0  0  0  0  0  0  0  0
   55.6770   29.0810   44.6900 N   0  0  0  0  0  0  0  0  0  0  0  0
   55.8340   30.3920   44.6180 N   0  0  0  0  0  0  0  0  0  0  0  0
   57.1100   30.6250   44.9890 C   0  0  0  0  0  0  0  0  0  0  0  0
   57.7290   31.9630   45.0570 C   0  0  0  0  0  0  0  0  0  0  0  0
   58.2810   32.5440   43.9030 C   0  0  0  0  0  0  0  0  0  0  0  0
   58.8700   33.8110   43.9620 C   0  0  0  0  0  0  0  0  0  0  0  0
   58.9100   34.5090   45.1710 C   0  0  0  0  0  0  0  0  0  0  0  0
   58.3630   33.9400   46.3250 C   0  0  0  0  0  0  0  0  0  0  0  0
   57.7740   32.6720   46.2700 C   0  0  0  0  0  0  0  0  0  0  0  0
   57.7310   29.5040   45.2880 O   0  0  0  0  0  0  0  0  0  0  0  0
   56.1250   26.2320   45.8160 C   0  0  0  0  0  0  0  0  0  0  0  0
   54.8240   26.6630   46.0430 O   0  0  0  0  0  0  0  0  0  0  0  0
   56.4350   24.8860   46.0400 C   0  0  0  0  0  0  0  0  0  0  0  0
   58.0866   22.7270   47.0637 H   0  0  0  0  0  0  0  0  0  0  0  0
   57.2525   22.3345   45.5220 H   0  0  0  0  0  0  0  0  0  0  0  0
   59.0082   22.7139   45.5220 H   0  0  0  0  0  0  0  0  0  0  0  0
   59.7026   24.8872   45.0389 H   0  0  0  0  0  0  0  0  0  0  0  0
   59.1679   27.2848   44.6466 H   0  0  0  0  0  0  0  0  0  0  0  0
   54.7760   28.5900   44.5030 H   0  0  0  0  0  0  0  0  0  0  0  0
   58.2497   31.9993   42.9478 H   0  0  0  0  0  0  0  0  0  0  0  0
   59.3024   34.2585   43.0549 H   0  0  0  0  0  0  0  0  0  0  0  0
   59.3718   35.5064   45.2153 H   0  0  0  0  0  0  0  0  0  0  0  0
   58.3957   34.4898   47.2772 H   0  0  0  0  0  0  0  0  0  0  0  0
   57.3442   32.2280   47.1800 H   0  0  0  0  0  0  0  0  0  0  0  0
   55.6596   24.2034   46.4179 H   0  0  0  0  0  0  0  0  0  0  0  0
  1  2  1  0
  2  3  2  0
  3  4  1  0
  4  5  2  0
  5  6  1  0
  6  7  2  0
  7  8  1  0
  8  9  2  0
  9 10  1  0
 10 11  2  0
 11 12  1  0
 12 13  2  0
 13 14  1  0
 14 15  2  0
  9 16  1  0
  5 17  1  0
 17 18  1  0
 17 19  2  0
 19  2  1  0
 16  6  1  0
 15 10  1  0
  1 20  1  0
  1 21  1  0
  1 22  1  0
  3 23  1  0
  4 24  1  0
  7 25  1  0
 11 26  1  0
 12 27  1  0
 13 28  1  0
 14 29  1  0
 15 30  1  0
 19 31  1  0
M  CHG  2   7   1  18  -1
M  END
>  <UniqueID>  (83) 
73

>  <SMILES>  (83) 
Cc1ccc(-c2[nH+]nc(-c3ccccc3)o2)c([O-])c1

>  <Energy>  (83) 
72.00275148168365

>  <Genealogy>  (83) 
Cc1ccc(-c2[nH+]nc(-c3ccccc3)o2)c([O-])c1 (protonated)
Cc1ccc(-c2[nH+]nc(-c3ccccc3)o2)c([O-])c1 (3D coordinates assigned)
Cc1ccc(-c2[nH+]nc(-c3ccccc3)o2)c([O-])c1 (optimized conformer: 72.00275148168365 kcal/mol)

>  <smiles>  (83) 
Cc1ccc(-c2nnc(-c3ccccc3)o2)c(O)c1

>  <score_type>  (83) 
oracle

>  <origin>  (83) 
adg

>  <m_score__min__energy>  (83) 
-10.140000000000001

>  <m_primary>  (83) 
energy

$$$$
83:0
     RDKit          3D

 46 49  0  0  0  0  0  0  0  0999 V2000
   60.9390   30.0440   48.0160 F   0  0  0  0  0  0  0  0  0  0  0  0
   60.2000   29.2110   47.2440 C   0  0  0  0  0  0  0  0  0  0  0  0
   60.7170   28.7410   46.0340 C   0  0  0  0  0  0  0  0  0  0  0  0
   59.9500   27.8970   45.2250 C   0  0  0  0  0  0  0  0  0  0  0  0
   58.6580   27.5130   45.6250 C   0  0  0  0  0  0  0  0  0  0  0  0
   57.8370   26.5900   44.7640 C   0  0  0  0  0  0  0  0  0  0  0  0
   57.8880   27.0870   43.0050 S   0  0  0  0  0  0  0  0  0  0  0  0
   57.3920   28.7790   43.3170 C   0  0  0  0  0  0  0  0  0  0  0  0
   56.2630   29.3430   42.8620 N   0  0  0  0  0  0  0  0  0  0  0  0
   56.2170   30.5750   43.3400 N   0  0  0  0  0  0  0  0  0  0  0  0
   57.3440   30.7200   44.0710 C   0  0  0  0  0  0  0  0  0  0  0  0
   57.7130   31.9440   44.8030 C   0  0  0  0  0  0  0  0  0  0  0  0
   57.6800   33.1960   44.1680 C   0  0  0  0  0  0  0  0  0  0  0  0
   58.0080   34.3530   44.8790 C   0  0  0  0  0  0  0  0  0  0  0  0
   58.3800   34.2690   46.2220 C   0  0  0  0  0  0  0  0  0  0  0  0
   58.4360   33.0300   46.8690 C   0  0  0  0  0  0  0  0  0  0  0  0
   58.8440   33.0010   48.2120 O   0  0  0  0  0  0  0  0  0  0  0  0
   59.8840   33.8000   48.7780 C   0  0  0  0  0  0  0  0  0  0  0  0
   61.2160   33.4840   48.1500 C   0  0  0  0  0  0  0  0  0  0  0  0
   62.1270   32.6410   48.8110 C   0  0  0  0  0  0  0  0  0  0  0  0
   63.3810   32.3840   48.2510 C   0  0  0  0  0  0  0  0  0  0  0  0
   63.7400   32.9720   47.0350 C   0  0  0  0  0  0  0  0  0  0  0  0
   62.8420   33.8140   46.3730 C   0  0  0  0  0  0  0  0  0  0  0  0
   61.5860   34.0740   46.9300 C   0  0  0  0  0  0  0  0  0  0  0  0
   58.0930   31.8660   46.1540 C   0  0  0  0  0  0  0  0  0  0  0  0
   58.0690   29.6220   44.0560 O   0  0  0  0  0  0  0  0  0  0  0  0
   58.1520   27.9760   46.8500 C   0  0  0  0  0  0  0  0  0  0  0  0
   58.9190   28.8270   47.6530 C   0  0  0  0  0  0  0  0  0  0  0  0
   61.7285   29.0353   45.7175 H   0  0  0  0  0  0  0  0  0  0  0  0
   60.3592   27.5319   44.2715 H   0  0  0  0  0  0  0  0  0  0  0  0
   58.2329   25.5680   44.8578 H   0  0  0  0  0  0  0  0  0  0  0  0
   56.7925   26.6396   45.1053 H   0  0  0  0  0  0  0  0  0  0  0  0
   55.5300   28.9030   42.2630 H   0  0  0  0  0  0  0  0  0  0  0  0
   57.3951   33.2660   43.1078 H   0  0  0  0  0  0  0  0  0  0  0  0
   57.9731   35.3324   44.3795 H   0  0  0  0  0  0  0  0  0  0  0  0
   58.6313   35.1853   46.7763 H   0  0  0  0  0  0  0  0  0  0  0  0
   59.6516   34.8622   48.6113 H   0  0  0  0  0  0  0  0  0  0  0  0
   59.9453   33.5809   49.8542 H   0  0  0  0  0  0  0  0  0  0  0  0
   61.8514   32.1824   49.7721 H   0  0  0  0  0  0  0  0  0  0  0  0
   64.0870   31.7176   48.7682 H   0  0  0  0  0  0  0  0  0  0  0  0
   64.7298   32.7720   46.5987 H   0  0  0  0  0  0  0  0  0  0  0  0
   63.1234   34.2723   45.4134 H   0  0  0  0  0  0  0  0  0  0  0  0
   60.8846   34.7435   46.4105 H   0  0  0  0  0  0  0  0  0  0  0  0
   58.1227   30.8881   46.6569 H   0  0  0  0  0  0  0  0  0  0  0  0
   57.1486   27.6685   47.1797 H   0  0  0  0  0  0  0  0  0  0  0  0
   58.5139   29.1946   48.6074 H   0  0  0  0  0  0  0  0  0  0  0  0
  1  2  1  0
  2  3  2  0
  3  4  1  0
  4  5  2  0
  5  6  1  0
  6  7  1  0
  7  8  1  0
  8  9  2  0
  9 10  1  0
 10 11  2  0
 11 12  1  0
 12 13  2  0
 13 14  1  0
 14 15  2  0
 15 16  1  0
 16 17  1  0
 17 18  1  0
 18 19  1  0
 19 20  2  0
 20 21  1  0
 21 22  2  0
 22 23  1  0
 23 24  2  0
 16 25  2  0
 11 26  1  0
  5 27  1  0
 27 28  2  0
 28  2  1  0
 26  8  1  0
 25 12  1  0
 24 19  1  0
  3 29  1  0
  4 30  1  0
  6 31  1  0
  6 32  1  0
  9 33  1  0
 13 34  1  0
 14 35  1  0
 15 36  1  0
 18 37  1  0
 18 38  1  0
 20 39  1  0
 21 40  1  0
 22 41  1  0
 23 42  1  0
 24 43  1  0
 25 44  1  0
 27 45  1  0
 28 46  1  0
M  CHG  1   9   1
M  END
>  <UniqueID>  (84) 
74

>  <SMILES>  (84) 
Fc1ccc(CSc2[nH+]nc(-c3cccc(OCc4ccccc4)c3)o2)cc1

>  <Energy>  (84) 
78.54362426035519

>  <Genealogy>  (84) 
Fc1ccc(CSc2[nH+]nc(-c3cccc(OCc4ccccc4)c3)o2)cc1 (protonated)
Fc1ccc(CSc2[nH+]nc(-c3cccc(OCc4ccccc4)c3)o2)cc1 (3D coordinates assigned)
Fc1ccc(CSc2[nH+]nc(-c3cccc(OCc4ccccc4)c3)o2)cc1 (optimized conformer: 78.54362426035519 kcal/mol)

>  <smiles>  (84) 
Fc1ccc(CSc2nnc(-c3cccc(OCc4ccccc4)c3)o2)cc1

>  <score_type>  (84) 
oracle

>  <origin>  (84) 
adg

>  <m_score__min__energy>  (84) 
-7.5099999999999998

>  <m_primary>  (84) 
energy

$$$$
84:0
     RDKit          3D

 46 48  0  0  0  0  0  0  0  0999 V2000
   55.1420   30.3850   44.7260 O   0  0  0  0  0  0  0  0  0  0  0  0
   55.9320   29.4330   44.4790 C   0  0  0  0  0  0  0  0  0  0  0  0
   56.9070   29.5570   43.3400 C   0  0  0  0  0  0  0  0  0  0  0  0
   58.1060   30.3430   43.7110 N   0  0  0  0  0  0  0  0  0  0  0  0
   58.2160   30.4050   45.1880 C   0  0  0  0  0  0  0  0  0  0  0  0
   59.3010   31.4070   45.6200 C   0  0  0  0  0  0  0  0  0  0  0  0
   59.0920   32.7690   45.0660 N   0  0  0  0  0  0  0  0  0  0  0  0
   58.7960   33.9290   46.3400 S   0  0  0  0  0  0  0  0  0  0  0  0
   57.4210   33.7060   46.9180 O   0  0  0  0  0  0  0  0  0  0  0  0
   58.8720   35.3320   45.7930 O   0  0  0  0  0  0  0  0  0  0  0  0
   60.0250   33.7420   47.5910 C   0  0  0  0  0  0  0  0  0  0  0  0
   59.6550   33.6080   48.9380 C   0  0  0  0  0  0  0  0  0  0  0  0
   60.6360   33.4500   49.9230 C   0  0  0  0  0  0  0  0  0  0  0  0
   61.9880   33.4230   49.5700 C   0  0  0  0  0  0  0  0  0  0  0  0
   62.3630   33.5540   48.2300 C   0  0  0  0  0  0  0  0  0  0  0  0
   61.3860   33.7120   47.2410 C   0  0  0  0  0  0  0  0  0  0  0  0
   61.7670   33.8330   45.9450 F   0  0  0  0  0  0  0  0  0  0  0  0
   58.0090   32.8490   44.0680 C   0  0  0  0  0  0  0  0  0  0  0  0
   58.1130   31.6920   43.0640 C   0  0  0  0  0  0  0  0  0  0  0  0
   55.8950   28.2270   45.2550 N   0  0  0  0  0  0  0  0  0  0  0  0
   57.0230   27.4220   45.6260 C   0  0  0  0  0  0  0  0  0  0  0  0
   57.7490   27.7690   46.7750 C   0  0  0  0  0  0  0  0  0  0  0  0
   58.8360   26.9920   47.1860 C   0  0  0  0  0  0  0  0  0  0  0  0
   59.1920   25.8480   46.4640 C   0  0  0  0  0  0  0  0  0  0  0  0
   58.4590   25.4800   45.3300 C   0  0  0  0  0  0  0  0  0  0  0  0
   57.3740   26.2600   44.9150 C   0  0  0  0  0  0  0  0  0  0  0  0
   57.2250   28.5491   43.0349 H   0  0  0  0  0  0  0  0  0  0  0  0
   56.3999   30.0836   42.5181 H   0  0  0  0  0  0  0  0  0  0  0  0
   58.9510   29.8190   43.3750 H   0  0  0  0  0  0  0  0  0  0  0  0
   57.2489   30.7192   45.6076 H   0  0  0  0  0  0  0  0  0  0  0  0
   58.4926   29.4076   45.5604 H   0  0  0  0  0  0  0  0  0  0  0  0
   59.2998   31.4720   46.7181 H   0  0  0  0  0  0  0  0  0  0  0  0
   60.2611   31.0385   45.2295 H   0  0  0  0  0  0  0  0  0  0  0  0
   58.5919   33.6272   49.2199 H   0  0  0  0  0  0  0  0  0  0  0  0
   60.3424   33.3468   50.9780 H   0  0  0  0  0  0  0  0  0  0  0  0
   62.7569   33.2987   50.3467 H   0  0  0  0  0  0  0  0  0  0  0  0
   63.4272   33.5329   47.9526 H   0  0  0  0  0  0  0  0  0  0  0  0
   57.0383   32.7949   44.5827 H   0  0  0  0  0  0  0  0  0  0  0  0
   58.0982   33.8005   43.5232 H   0  0  0  0  0  0  0  0  0  0  0  0
   57.2593   31.7519   42.3729 H   0  0  0  0  0  0  0  0  0  0  0  0
   59.0764   31.7983   42.5439 H   0  0  0  0  0  0  0  0  0  0  0  0
   57.4613   28.6577   47.3560 H   0  0  0  0  0  0  0  0  0  0  0  0
   59.4118   27.2804   48.0778 H   0  0  0  0  0  0  0  0  0  0  0  0
   60.0480   25.2377   46.7875 H   0  0  0  0  0  0  0  0  0  0  0  0
   58.7358   24.5777   44.7650 H   0  0  0  0  0  0  0  0  0  0  0  0
   56.7931   25.9634   44.0292 H   0  0  0  0  0  0  0  0  0  0  0  0
  1  2  2  0
  2  3  1  0
  3  4  1  0
  4  5  1  0
  5  6  1  0
  6  7  1  0
  7  8  1  0
  8  9  2  0
  8 10  2  0
  8 11  1  0
 11 12  2  0
 12 13  1  0
 13 14  2  0
 14 15  1  0
 15 16  2  0
 16 17  1  0
  7 18  1  0
 18 19  1  0
  2 20  1  0
 20 21  1  0
 21 22  2  0
 22 23  1  0
 23 24  2  0
 24 25  1  0
 25 26  2  0
 19  4  1  0
 26 21  1  0
 16 11  1  0
  3 27  1  0
  3 28  1  0
  4 29  1  0
  5 30  1  0
  5 31  1  0
  6 32  1  0
  6 33  1  0
 12 34  1  0
 13 35  1  0
 14 36  1  0
 15 37  1  0
 18 38  1  0
 18 39  1  0
 19 40  1  0
 19 41  1  0
 22 42  1  0
 23 43  1  0
 24 44  1  0
 25 45  1  0
 26 46  1  0
M  CHG  2   4   1  20  -1
M  END
>  <UniqueID>  (85) 
75

>  <SMILES>  (85) 
O=C(C[NH+]1CCN(S(=O)(=O)c2ccccc2F)CC1)[N-]c1ccccc1

>  <Energy>  (85) 
63.41137318440788

>  <Genealogy>  (85) 
O=C(C[NH+]1CCN(S(=O)(=O)c2ccccc2F)CC1)[N-]c1ccccc1 (protonated)
O=C(C[NH+]1CCN(S(=O)(=O)c2ccccc2F)CC1)[N-]c1ccccc1 (3D coordinates assigned)
O=C(C[NH+]1CCN(S(=O)(=O)c2ccccc2F)CC1)[N-]c1ccccc1 (nonaromatic ring conformer: 63.41137318440788 kcal/mol)

>  <smiles>  (85) 
O=C(CN1CCN(S(=O)(=O)c2ccccc2F)CC1)Nc1ccccc1

>  <score_type>  (85) 
oracle

>  <origin>  (85) 
adg

>  <m_score__min__energy>  (85) 
-9.3900000000000006

>  <m_primary>  (85) 
energy

$$$$
85:0
     RDKit          3D

 61 64  0  0  0  0  0  0  0  0999 V2000
   57.0210   24.6680   43.3300 C   0  0  0  0  0  0  0  0  0  0  0  0
   56.1000   23.4410   43.3630 C   0  0  0  0  0  0  0  0  0  0  0  0
   54.8500   23.7000   44.2090 C   0  0  0  0  0  0  0  0  0  0  0  0
   56.8190   22.2490   43.8430 N   0  0  0  0  0  0  0  0  0  0  0  0
   57.0250   21.0710   42.9970 C   0  0  0  0  0  0  0  0  0  0  0  0
   57.4170   22.2450   45.1470 C   0  0  0  0  0  0  0  0  0  0  0  0
   57.7590   21.1520   45.6710 O   0  0  0  0  0  0  0  0  0  0  0  0
   57.7490   23.4780   45.7960 N   0  0  0  0  0  0  0  0  0  0  0  0
   59.1600   23.8810   45.8630 C   0  0  0  0  0  0  0  0  0  0  0  0
   59.2850   25.4050   45.7200 C   0  0  0  0  0  0  0  0  0  0  0  0
   58.2400   26.1130   46.4790 N   0  0  0  0  0  0  0  0  0  0  0  0
   57.9840   27.5020   46.1890 C   0  0  0  0  0  0  0  0  0  0  0  0
   58.3560   28.4960   47.1090 C   0  0  0  0  0  0  0  0  0  0  0  0
   58.1620   29.8470   46.8110 C   0  0  0  0  0  0  0  0  0  0  0  0
   57.6010   30.2270   45.5800 C   0  0  0  0  0  0  0  0  0  0  0  0
   57.3980   31.6060   45.2470 N   0  0  0  0  0  0  0  0  0  0  0  0
   57.6760   32.7080   46.1150 C   0  0  0  0  0  0  0  0  0  0  0  0
   56.8180   33.6220   46.2340 O   0  0  0  0  0  0  0  0  0  0  0  0
   58.9330   32.8160   46.8040 N   0  0  0  0  0  0  0  0  0  0  0  0
   60.1430   32.0790   46.4270 C   0  0  0  0  0  0  0  0  0  0  0  0
   61.2020   32.7370   47.2290 C   0  0  0  0  0  0  0  0  0  0  0  0
   62.5620   32.4240   47.2720 C   0  0  0  0  0  0  0  0  0  0  0  0
   63.3970   33.1730   48.1190 C   0  0  0  0  0  0  0  0  0  0  0  0
   62.8600   34.2100   48.9070 C   0  0  0  0  0  0  0  0  0  0  0  0
   61.4880   34.5040   48.8500 C   0  0  0  0  0  0  0  0  0  0  0  0
   60.6780   33.7480   47.9990 C   0  0  0  0  0  0  0  0  0  0  0  0
   59.2170   33.8760   47.7770 C   0  0  0  0  0  0  0  0  0  0  0  0
   57.2020   29.2400   44.6740 C   0  0  0  0  0  0  0  0  0  0  0  0
   57.4040   27.8880   44.9660 C   0  0  0  0  0  0  0  0  0  0  0  0
   57.3590   25.3460   47.3720 C   0  0  0  0  0  0  0  0  0  0  0  0
   56.7330   24.1890   46.5860 C   0  0  0  0  0  0  0  0  0  0  0  0
   57.2544   24.9790   44.3590 H   0  0  0  0  0  0  0  0  0  0  0  0
   57.9527   24.4131   42.8037 H   0  0  0  0  0  0  0  0  0  0  0  0
   56.5161   25.4914   42.8037 H   0  0  0  0  0  0  0  0  0  0  0  0
   55.7720   23.2492   42.3307 H   0  0  0  0  0  0  0  0  0  0  0  0
   55.1117   23.6458   45.2760 H   0  0  0  0  0  0  0  0  0  0  0  0
   54.4524   24.6996   43.9793 H   0  0  0  0  0  0  0  0  0  0  0  0
   54.0880   22.9407   43.9793 H   0  0  0  0  0  0  0  0  0  0  0  0
   57.1797   20.1861   43.6319 H   0  0  0  0  0  0  0  0  0  0  0  0
   56.1403   20.9164   42.3619 H   0  0  0  0  0  0  0  0  0  0  0  0
   57.9097   21.2258   42.3619 H   0  0  0  0  0  0  0  0  0  0  0  0
   59.5805   23.5714   46.8312 H   0  0  0  0  0  0  0  0  0  0  0  0
   59.7101   23.3977   45.0422 H   0  0  0  0  0  0  0  0  0  0  0  0
   60.2708   25.7181   46.0943 H   0  0  0  0  0  0  0  0  0  0  0  0
   59.1669   25.6595   44.6564 H   0  0  0  0  0  0  0  0  0  0  0  0
   58.8036   28.2084   48.0718 H   0  0  0  0  0  0  0  0  0  0  0  0
   58.4495   30.6163   47.5428 H   0  0  0  0  0  0  0  0  0  0  0  0
   60.0541   31.0142   46.6883 H   0  0  0  0  0  0  0  0  0  0  0  0
   60.3432   32.1014   45.3456 H   0  0  0  0  0  0  0  0  0  0  0  0
   62.9710   31.6092   46.6566 H   0  0  0  0  0  0  0  0  0  0  0  0
   64.4729   32.9488   48.1667 H   0  0  0  0  0  0  0  0  0  0  0  0
   63.5179   34.7916   49.5695 H   0  0  0  0  0  0  0  0  0  0  0  0
   61.0604   35.3119   49.4620 H   0  0  0  0  0  0  0  0  0  0  0  0
   58.6601   33.7134   48.7116 H   0  0  0  0  0  0  0  0  0  0  0  0
   58.9194   34.8752   47.4263 H   0  0  0  0  0  0  0  0  0  0  0  0
   56.7261   29.5291   43.7254 H   0  0  0  0  0  0  0  0  0  0  0  0
   57.1078   27.1209   44.2354 H   0  0  0  0  0  0  0  0  0  0  0  0
   57.9447   24.9459   48.2127 H   0  0  0  0  0  0  0  0  0  0  0  0
   56.5660   26.0008   47.7624 H   0  0  0  0  0  0  0  0  0  0  0  0
   56.2682   23.4847   47.2916 H   0  0  0  0  0  0  0  0  0  0  0  0
   55.9789   24.5999   45.8986 H   0  0  0  0  0  0  0  0  0  0  0  0
  1  2  1  0
  2  3  1  0
  2  4  1  0
  4  5  1  0
  4  6  1  0
  6  7  2  0
  6  8  1  0
  8  9  1  0
  9 10  1  0
 10 11  1  0
 11 12  1  0
 12 13  2  0
 13 14  1  0
 14 15  2  0
 15 16  1  0
 16 17  1  0
 17 18  2  0
 17 19  1  0
 19 20  1  0
 20 21  1  0
 21 22  2  0
 22 23  1  0
 23 24  2  0
 24 25  1  0
 25 26  2  0
 26 27  1  0
 15 28  1  0
 28 29  2  0
 11 30  1  0
 30 31  1  0
 31  8  1  0
 29 12  1  0
 27 19  1  0
 26 21  1  0
  1 32  1  0
  1 33  1  0
  1 34  1  0
  2 35  1  0
  3 36  1  0
  3 37  1  0
  3 38  1  0
  5 39  1  0
  5 40  1  0
  5 41  1  0
  9 42  1  0
  9 43  1  0
 10 44  1  0
 10 45  1  0
 13 46  1  0
 14 47  1  0
 20 48  1  0
 20 49  1  0
 22 50  1  0
 23 51  1  0
 24 52  1  0
 25 53  1  0
 27 54  1  0
 27 55  1  0
 28 56  1  0
 29 57  1  0
 30 58  1  0
 30 59  1  0
 31 60  1  0
 31 61  1  0
M  CHG  1  16  -1
M  END
>  <UniqueID>  (86) 
76

>  <SMILES>  (86) 
CC(C)N(C)C(=O)N1CCN(c2ccc([N-]C(=O)N3Cc4ccccc4C3)cc2)CC1

>  <Energy>  (86) 
88.78304878669398

>  <Genealogy>  (86) 
CC(C)N(C)C(=O)N1CCN(c2ccc([N-]C(=O)N3Cc4ccccc4C3)cc2)CC1 (protonated)
CC(C)N(C)C(=O)N1CCN(c2ccc([N-]C(=O)N3Cc4ccccc4C3)cc2)CC1 (3D coordinates assigned)
CC(C)N(C)C(=O)N1CCN(c2ccc([N-]C(=O)N3Cc4ccccc4C3)cc2)CC1 (nonaromatic ring conformer: 88.78304878669398 kcal/mol)

>  <smiles>  (86) 
CC(C)N(C)C(=O)N1CCN(c2ccc(NC(=O)N3Cc4ccccc4C3)cc2)CC1

>  <score_type>  (86) 
oracle

>  <origin>  (86) 
adg

>  <m_score__min__energy>  (86) 
-9.9700000000000006

>  <m_primary>  (86) 
energy

$$$$
86:0
     RDKit          3D

 38 40  0  0  0  0  0  0  0  0999 V2000
   57.0990   34.1980   45.2660 C   0  0  0  0  0  0  0  0  0  0  0  0
   57.4910   33.0700   44.3180 C   0  0  0  0  0  0  0  0  0  0  0  0
   58.5900   32.3310   44.8440 O   0  0  0  0  0  0  0  0  0  0  0  0
   58.8300   32.1680   46.2140 C   0  0  0  0  0  0  0  0  0  0  0  0
   57.8780   31.8750   46.9860 O   0  0  0  0  0  0  0  0  0  0  0  0
   60.2030   32.3480   46.7480 C   0  0  0  0  0  0  0  0  0  0  0  0
   60.8800   33.5910   46.8610 C   0  0  0  0  0  0  0  0  0  0  0  0
   60.3050   34.9190   46.4650 C   0  0  0  0  0  0  0  0  0  0  0  0
   62.1680   33.4800   47.3810 C   0  0  0  0  0  0  0  0  0  0  0  0
   62.4830   31.8650   47.7080 S   0  0  0  0  0  0  0  0  0  0  0  0
   60.9830   31.2860   47.2140 C   0  0  0  0  0  0  0  0  0  0  0  0
   60.6120   29.9030   47.1530 N   0  0  0  0  0  0  0  0  0  0  0  0
   60.2780   29.1850   45.9590 C   0  0  0  0  0  0  0  0  0  0  0  0
   61.1790   28.9860   45.1030 O   0  0  0  0  0  0  0  0  0  0  0  0
   58.8920   28.7620   45.6730 C   0  0  0  0  0  0  0  0  0  0  0  0
   58.0340   29.5190   44.8720 C   0  0  0  0  0  0  0  0  0  0  0  0
   56.5300   28.7620   44.8030 S   0  0  0  0  0  0  0  0  0  0  0  0
   56.9650   27.4630   45.7710 C   0  0  0  0  0  0  0  0  0  0  0  0
   58.2890   27.5840   46.1620 C   0  0  0  0  0  0  0  0  0  0  0  0
   58.8710   26.6270   47.1810 C   0  0  0  0  0  0  0  0  0  0  0  0
   58.1970   25.2400   47.0990 C   0  0  0  0  0  0  0  0  0  0  0  0
   56.7360   25.3480   47.0320 N   0  0  0  0  0  0  0  0  0  0  0  0
   56.1220   26.3690   46.2430 C   0  0  0  0  0  0  0  0  0  0  0  0
   54.8880   26.3380   45.9990 O   0  0  0  0  0  0  0  0  0  0  0  0
   57.2164   33.8602   46.3062 H   0  0  0  0  0  0  0  0  0  0  0  0
   57.7473   35.0686   45.0878 H   0  0  0  0  0  0  0  0  0  0  0  0
   56.0505   34.4790   45.0878 H   0  0  0  0  0  0  0  0  0  0  0  0
   56.6325   32.3953   44.1847 H   0  0  0  0  0  0  0  0  0  0  0  0
   57.7867   33.5056   43.3522 H   0  0  0  0  0  0  0  0  0  0  0  0
   60.0557   35.4947   47.3685 H   0  0  0  0  0  0  0  0  0  0  0  0
   61.0431   35.4748   45.8681 H   0  0  0  0  0  0  0  0  0  0  0  0
   59.3947   34.7611   45.8681 H   0  0  0  0  0  0  0  0  0  0  0  0
   62.8643   34.3147   47.5495 H   0  0  0  0  0  0  0  0  0  0  0  0
   58.2980   30.4597   44.3666 H   0  0  0  0  0  0  0  0  0  0  0  0
   59.9485   26.5133   46.9910 H   0  0  0  0  0  0  0  0  0  0  0  0
   58.6937   27.0398   48.1851 H   0  0  0  0  0  0  0  0  0  0  0  0
   58.5575   24.7216   46.1983 H   0  0  0  0  0  0  0  0  0  0  0  0
   58.4572   24.6789   48.0087 H   0  0  0  0  0  0  0  0  0  0  0  0
  1  2  1  0
  2  3  1  0
  3  4  1  0
  4  5  2  0
  4  6  1  0
  6  7  1  0
  7  8  1  0
  7  9  2  0
  9 10  1  0
 10 11  1  0
 11 12  1  0
 12 13  1  0
 13 14  2  0
 13 15  1  0
 15 16  2  0
 16 17  1  0
 17 18  1  0
 18 19  2  0
 19 20  1  0
 20 21  1  0
 21 22  1  0
 22 23  1  0
 23 24  2  0
 11  6  2  0
 19 15  1  0
 23 18  1  0
  1 25  1  0
  1 26  1  0
  1 27  1  0
  2 28  1  0
  2 29  1  0
  8 30  1  0
  8 31  1  0
  8 32  1  0
  9 33  1  0
 16 34  1  0
 20 35  1  0
 20 36  1  0
 21 37  1  0
 21 38  1  0
M  CHG  2  12  -1  22  -1
M  END
>  <UniqueID>  (87) 
77

>  <SMILES>  (87) 
CCOC(=O)c1c(C)csc1[N-]C(=O)c1csc2c1CC[N-]C2=O

>  <Energy>  (87) 
97.50987833294785

>  <Genealogy>  (87) 
CCOC(=O)c1c(C)csc1[N-]C(=O)c1csc2c1CC[N-]C2=O (protonated)
CCOC(=O)c1c(C)csc1[N-]C(=O)c1csc2c1CC[N-]C2=O (3D coordinates assigned)
CCOC(=O)c1c(C)csc1[N-]C(=O)c1csc2c1CC[N-]C2=O (nonaromatic ring conformer: 97.50987833294785 kcal/mol)

>  <smiles>  (87) 
CCOC(=O)c1c(C)csc1NC(=O)c1csc2c1CCNC2=O

>  <score_type>  (87) 
oracle

>  <origin>  (87) 
adg

>  <m_score__min__energy>  (87) 
-11.35

>  <m_primary>  (87) 
energy

$$$$
87:0
     RDKit          3D

 58 60  0  0  0  0  0  0  0  0999 V2000
   66.3450   31.6500   50.5450 C   0  0  0  0  0  0  0  0  0  0  0  0
   65.9530   32.7490   49.7280 O   0  0  0  0  0  0  0  0  0  0  0  0
   64.6220   33.1070   49.4620 C   0  0  0  0  0  0  0  0  0  0  0  0
   64.0360   32.9150   48.1970 C   0  0  0  0  0  0  0  0  0  0  0  0
   62.7090   33.2820   47.9700 C   0  0  0  0  0  0  0  0  0  0  0  0
   61.9480   33.8540   48.9960 C   0  0  0  0  0  0  0  0  0  0  0  0
   60.5330   34.2890   48.7250 C   0  0  0  0  0  0  0  0  0  0  0  0
   59.5910   33.4970   49.5100 N   0  0  0  0  0  0  0  0  0  0  0  0
   58.6910   32.5130   48.9840 C   0  0  0  0  0  0  0  0  0  0  0  0
   58.6190   31.3970   49.5620 O   0  0  0  0  0  0  0  0  0  0  0  0
   57.9070   32.7570   47.7200 C   0  0  0  0  0  0  0  0  0  0  0  0
   58.8160   32.9830   46.5610 N   0  0  0  0  0  0  0  0  0  0  0  0
   58.6180   34.3240   45.9790 C   0  0  0  0  0  0  0  0  0  0  0  0
   57.5890   34.2040   44.8520 C   0  0  0  0  0  0  0  0  0  0  0  0
   57.3800   32.7120   44.6520 C   0  0  0  0  0  0  0  0  0  0  0  0
   58.5400   32.0870   45.4200 C   0  0  2  0  0  0  0  0  0  0  0  0
   58.4220   30.6140   45.7900 C   0  0  0  0  0  0  0  0  0  0  0  0
   59.4100   29.8560   46.4070 C   0  0  0  0  0  0  0  0  0  0  0  0
   60.7940   30.3040   46.7580 C   0  0  0  0  0  0  0  0  0  0  0  0
   59.0080   28.5760   46.5150 N   0  0  0  0  0  0  0  0  0  0  0  0
   57.7940   28.4820   45.9980 N   0  0  0  0  0  0  0  0  0  0  0  0
   57.0420   27.2340   46.0010 C   0  0  0  0  0  0  0  0  0  0  0  0
   57.4120   29.6960   45.5310 C   0  0  0  0  0  0  0  0  0  0  0  0
   56.2120   29.9920   44.8680 O   0  0  0  0  0  0  0  0  0  0  0  0
   55.9790   29.8060   43.4790 C   0  0  0  0  0  0  0  0  0  0  0  0
   62.5270   34.0470   50.2590 C   0  0  0  0  0  0  0  0  0  0  0  0
   63.8610   33.6660   50.5000 C   0  0  0  0  0  0  0  0  0  0  0  0
   64.4640   33.8220   51.7580 O   0  0  0  0  0  0  0  0  0  0  0  0
   65.4160   34.8330   52.0760 C   0  0  0  0  0  0  0  0  0  0  0  0
   66.2461   31.9274   51.6048 H   0  0  0  0  0  0  0  0  0  0  0  0
   65.6999   30.7852   50.3305 H   0  0  0  0  0  0  0  0  0  0  0  0
   67.3918   31.3887   50.3305 H   0  0  0  0  0  0  0  0  0  0  0  0
   64.6278   32.4728   47.3820 H   0  0  0  0  0  0  0  0  0  0  0  0
   62.2586   33.1209   46.9794 H   0  0  0  0  0  0  0  0  0  0  0  0
   60.4238   35.3503   48.9930 H   0  0  0  0  0  0  0  0  0  0  0  0
   60.3157   34.1411   47.6569 H   0  0  0  0  0  0  0  0  0  0  0  0
   57.2741   31.8810   47.5149 H   0  0  0  0  0  0  0  0  0  0  0  0
   57.2887   33.6559   47.8600 H   0  0  0  0  0  0  0  0  0  0  0  0
   58.2474   35.0147   46.7507 H   0  0  0  0  0  0  0  0  0  0  0  0
   59.5690   34.7147   45.5878 H   0  0  0  0  0  0  0  0  0  0  0  0
   56.6448   34.6895   45.1399 H   0  0  0  0  0  0  0  0  0  0  0  0
   57.9334   34.6956   43.9302 H   0  0  0  0  0  0  0  0  0  0  0  0
   56.4138   32.3906   45.0680 H   0  0  0  0  0  0  0  0  0  0  0  0
   57.3594   32.4194   43.5918 H   0  0  0  0  0  0  0  0  0  0  0  0
   59.4032   32.0213   44.7413 H   0  0  0  0  0  0  0  0  0  0  0  0
   60.9017   30.3389   47.8522 H   0  0  0  0  0  0  0  0  0  0  0  0
   61.5254   29.5967   46.3399 H   0  0  0  0  0  0  0  0  0  0  0  0
   60.9722   31.3057   46.3399 H   0  0  0  0  0  0  0  0  0  0  0  0
   56.8539   26.9218   47.0388 H   0  0  0  0  0  0  0  0  0  0  0  0
   56.0829   27.3826   45.4832 H   0  0  0  0  0  0  0  0  0  0  0  0
   57.6215   26.4555   45.4832 H   0  0  0  0  0  0  0  0  0  0  0  0
   55.1264   29.1254   43.3381 H   0  0  0  0  0  0  0  0  0  0  0  0
   55.7548   30.7762   43.0117 H   0  0  0  0  0  0  0  0  0  0  0  0
   56.8754   29.3724   43.0117 H   0  0  0  0  0  0  0  0  0  0  0  0
   61.9342   34.4996   51.0676 H   0  0  0  0  0  0  0  0  0  0  0  0
   65.5023   34.9247   53.1688 H   0  0  0  0  0  0  0  0  0  0  0  0
   66.3943   34.5618   51.6524 H   0  0  0  0  0  0  0  0  0  0  0  0
   65.0865   35.7932   51.6524 H   0  0  0  0  0  0  0  0  0  0  0  0
  1  2  1  0
  2  3  1  0
  3  4  2  0
  4  5  1  0
  5  6  2  0
  6  7  1  0
  7  8  1  0
  8  9  1  0
  9 10  2  0
  9 11  1  0
 11 12  1  0
 12 13  1  0
 13 14  1  0
 14 15  1  0
 15 16  1  0
 16 17  1  0
 17 18  1  0
 18 19  1  0
 18 20  2  0
 20 21  1  0
 21 22  1  0
 21 23  1  0
 23 24  1  0
 24 25  1  0
  6 26  1  0
 26 27  2  0
 27 28  1  0
 28 29  1  0
 27  3  1  0
 16 12  1  0
 23 17  2  0
  1 30  1  0
  1 31  1  0
  1 32  1  0
  4 33  1  0
  5 34  1  0
  7 35  1  0
  7 36  1  0
 11 37  1  0
 11 38  1  0
 13 39  1  0
 13 40  1  0
 14 41  1  0
 14 42  1  0
 15 43  1  0
 15 44  1  0
 16 45  1  6
 19 46  1  0
 19 47  1  0
 19 48  1  0
 22 49  1  0
 22 50  1  0
 22 51  1  0
 25 52  1  0
 25 53  1  0
 25 54  1  0
 26 55  1  0
 29 56  1  0
 29 57  1  0
 29 58  1  0
M  CHG  1   8  -1
M  END
>  <UniqueID>  (88) 
78

>  <SMILES>  (88) 
COc1ccc(C[N-]C(=O)CN2CCC[C@@H]2c2c(C)nn(C)c2OC)cc1OC

>  <Energy>  (88) 
93.49735502066952

>  <Genealogy>  (88) 
COc1ccc(C[N-]C(=O)CN2CCCC2c2c(C)nn(C)c2OC)cc1OC (protonated)
COc1ccc(C[N-]C(=O)CN2CCC[C@@H]2c2c(C)nn(C)c2OC)cc1OC (chirality)
COc1ccc(C[N-]C(=O)CN2CCC[C@@H]2c2c(C)nn(C)c2OC)cc1OC (3D coordinates assigned)
COc1ccc(C[N-]C(=O)CN2CCC[C@@H]2c2c(C)nn(C)c2OC)cc1OC (nonaromatic ring conformer: 93.49735502066952 kcal/mol)

>  <smiles>  (88) 
COc1ccc(CNC(=O)CN2CCCC2c2c(C)nn(C)c2OC)cc1OC

>  <score_type>  (88) 
oracle

>  <origin>  (88) 
adg

>  <m_score__min__energy>  (88) 
-9.7100000000000009

>  <m_primary>  (88) 
energy

$$$$
88:0
     RDKit          3D

 46 49  0  0  0  0  0  0  0  0999 V2000
   57.7970   24.6770   46.5970 O   0  0  0  0  0  0  0  0  0  0  0  0
   57.5810   24.7500   45.3560 C   0  0  0  0  0  0  0  0  0  0  0  0
   57.5800   26.0340   44.7090 N   0  0  0  0  0  0  0  0  0  0  0  0
   58.2380   27.1970   45.2400 C   0  0  0  0  0  0  0  0  0  0  0  0
   57.5070   28.3110   45.6900 C   0  0  0  0  0  0  0  0  0  0  0  0
   58.1680   29.4220   46.2230 C   0  0  0  0  0  0  0  0  0  0  0  0
   59.5670   29.4300   46.3390 C   0  0  0  0  0  0  0  0  0  0  0  0
   60.2600   30.6130   46.8940 C   0  0  0  0  0  0  0  0  0  0  0  0
   61.5140   30.5830   47.0280 O   0  0  0  0  0  0  0  0  0  0  0  0
   59.5410   31.7980   47.2870 N   0  0  0  0  0  0  0  0  0  0  0  0
   59.2820   32.0640   48.7150 C   0  0  0  0  0  0  0  0  0  0  0  0
   60.1190   33.2180   49.2980 C   0  0  0  0  0  0  0  0  0  0  0  0
   59.6460   34.5990   48.8330 C   0  0  0  0  0  0  0  0  0  0  0  0
   59.9990   34.8110   47.4320 N   0  0  0  0  0  0  0  0  0  0  0  0
   59.3580   34.1110   46.3590 C   0  0  0  0  0  0  0  0  0  0  0  0
   58.6890   34.8520   45.0090 S   0  0  0  0  0  0  0  0  0  0  0  0
   58.1340   33.4350   44.2880 C   0  0  0  0  0  0  0  0  0  0  0  0
   58.4640   32.3620   45.1070 C   0  0  0  0  0  0  0  0  0  0  0  0
   59.1630   32.7370   46.2650 C   0  0  0  0  0  0  0  0  0  0  0  0
   60.2960   28.3160   45.8920 C   0  0  0  0  0  0  0  0  0  0  0  0
   59.6350   27.2050   45.3590 C   0  0  0  0  0  0  0  0  0  0  0  0
   57.2820   23.5130   44.5940 C   0  0  0  0  0  0  0  0  0  0  0  0
   56.5450   23.5810   43.3950 C   0  0  0  0  0  0  0  0  0  0  0  0
   56.2550   22.4180   42.6760 C   0  0  0  0  0  0  0  0  0  0  0  0
   56.6890   21.1760   43.1450 C   0  0  0  0  0  0  0  0  0  0  0  0
   57.4110   21.0950   44.3370 C   0  0  0  0  0  0  0  0  0  0  0  0
   57.7050   22.2550   45.0610 C   0  0  0  0  0  0  0  0  0  0  0  0
   56.9750   26.1580   43.8660 H   0  0  0  0  0  0  0  0  0  0  0  0
   56.4091   28.3083   45.6223 H   0  0  0  0  0  0  0  0  0  0  0  0
   57.5876   30.2959   46.5537 H   0  0  0  0  0  0  0  0  0  0  0  0
   58.2174   32.3147   48.8328 H   0  0  0  0  0  0  0  0  0  0  0  0
   59.5659   31.1548   49.2652 H   0  0  0  0  0  0  0  0  0  0  0  0
   60.0548   33.1773   50.3954 H   0  0  0  0  0  0  0  0  0  0  0  0
   61.1510   33.0875   48.9404 H   0  0  0  0  0  0  0  0  0  0  0  0
   58.5538   34.6654   48.9460 H   0  0  0  0  0  0  0  0  0  0  0  0
   60.1361   35.3699   49.4458 H   0  0  0  0  0  0  0  0  0  0  0  0
   60.8080   35.4330   47.2070 H   0  0  0  0  0  0  0  0  0  0  0  0
   57.5995   33.3697   43.3288 H   0  0  0  0  0  0  0  0  0  0  0  0
   58.2028   31.3199   44.8707 H   0  0  0  0  0  0  0  0  0  0  0  0
   61.3938   28.3174   45.9616 H   0  0  0  0  0  0  0  0  0  0  0  0
   60.2156   26.3304   45.0305 H   0  0  0  0  0  0  0  0  0  0  0  0
   56.1957   24.5553   43.0225 H   0  0  0  0  0  0  0  0  0  0  0  0
   55.6834   22.4810   41.7383 H   0  0  0  0  0  0  0  0  0  0  0  0
   56.4621   20.2626   42.5756 H   0  0  0  0  0  0  0  0  0  0  0  0
   57.7496   20.1163   44.7078 H   0  0  0  0  0  0  0  0  0  0  0  0
   58.2707   22.1833   46.0017 H   0  0  0  0  0  0  0  0  0  0  0  0
  1  2  2  0
  2  3  1  0
  3  4  1  0
  4  5  2  0
  5  6  1  0
  6  7  2  0
  7  8  1  0
  8  9  2  0
  8 10  1  0
 10 11  1  0
 11 12  1  0
 12 13  1  0
 13 14  1  0
 14 15  1  0
 15 16  1  0
 16 17  1  0
 17 18  2  0
 18 19  1  0
  7 20  1  0
 20 21  2  0
  2 22  1  0
 22 23  2  0
 23 24  1  0
 24 25  2  0
 25 26  1  0
 26 27  2  0
 21  4  1  0
 27 22  1  0
 19 10  1  0
 19 15  2  0
  3 28  1  0
  5 29  1  0
  6 30  1  0
 11 31  1  0
 11 32  1  0
 12 33  1  0
 12 34  1  0
 13 35  1  0
 13 36  1  0
 14 37  1  0
 17 38  1  0
 18 39  1  0
 20 40  1  0
 21 41  1  0
 23 42  1  0
 24 43  1  0
 25 44  1  0
 26 45  1  0
 27 46  1  0
M  END
>  <UniqueID>  (89) 
79

>  <SMILES>  (89) 
O=C(Nc1ccc(C(=O)N2CCCNc3sccc32)cc1)c1ccccc1

>  <Energy>  (89) 
94.8020773408119

>  <Genealogy>  (89) 
O=C(Nc1ccc(C(=O)N2CCCNc3sccc32)cc1)c1ccccc1 (3D coordinates assigned)
O=C(Nc1ccc(C(=O)N2CCCNc3sccc32)cc1)c1ccccc1 (nonaromatic ring conformer: 94.8020773408119 kcal/mol)

>  <smiles>  (89) 
O=C(Nc1ccc(C(=O)N2CCCNc3sccc32)cc1)c1ccccc1

>  <score_type>  (89) 
oracle

>  <origin>  (89) 
adg

>  <m_score__min__energy>  (89) 
-6.5300000000000002

>  <m_primary>  (89) 
energy

$$$$
89:0
     RDKit          3D

 44 47  0  0  0  0  0  0  0  0999 V2000
   55.0030   29.5400   44.1910 N   0  0  0  0  0  0  0  0  0  0  0  0
   56.2840   30.0980   44.5060 C   0  0  0  0  0  0  0  0  0  0  0  0
   56.4380   31.4460   44.4610 N   0  0  0  0  0  0  0  0  0  0  0  0
   57.6260   32.0330   44.7450 C   0  0  0  0  0  0  0  0  0  0  0  0
   57.7290   33.2880   44.6990 O   0  0  0  0  0  0  0  0  0  0  0  0
   58.7000   31.2720   45.0820 N   0  0  0  0  0  0  0  0  0  0  0  0
   58.6150   29.9120   45.1360 C   0  0  0  0  0  0  0  0  0  0  0  0
   60.0390   28.9900   45.6520 S   0  0  0  0  0  0  0  0  0  0  0  0
   60.6240   28.2350   44.4920 O   0  0  0  0  0  0  0  0  0  0  0  0
   61.0880   29.9310   46.1740 O   0  0  0  0  0  0  0  0  0  0  0  0
   59.5900   27.8460   46.9480 C   0  0  0  0  0  0  0  0  0  0  0  0
   59.6440   28.5290   48.2890 C   0  0  0  0  0  0  0  0  0  0  0  0
   58.9160   29.7130   48.4990 C   0  0  0  0  0  0  0  0  0  0  0  0
   58.9190   30.3300   49.7530 C   0  0  0  0  0  0  0  0  0  0  0  0
   59.6400   29.7680   50.8090 C   0  0  0  0  0  0  0  0  0  0  0  0
   60.3620   28.5880   50.6140 C   0  0  0  0  0  0  0  0  0  0  0  0
   60.3650   27.9660   49.3600 C   0  0  0  0  0  0  0  0  0  0  0  0
   61.0660   26.8160   49.1960 F   0  0  0  0  0  0  0  0  0  0  0  0
   57.3810   29.2840   44.8510 C   0  0  0  0  0  0  0  0  0  0  0  0
   57.2260   27.8230   44.9290 C   0  0  0  0  0  0  0  0  0  0  0  0
   58.1060   27.0800   44.4120 O   0  0  0  0  0  0  0  0  0  0  0  0
   56.1000   27.2710   45.6280 N   0  0  0  0  0  0  0  0  0  0  0  0
   55.9800   26.0420   46.0320 C   0  0  0  0  0  0  0  0  0  0  0  0
   54.8710   25.2850   45.8430 N   0  0  0  0  0  0  0  0  0  0  0  0
   55.0370   24.0520   46.3880 C   0  0  0  0  0  0  0  0  0  0  0  0
   54.0750   23.0420   46.3610 C   0  0  0  0  0  0  0  0  0  0  0  0
   54.3730   21.8090   46.9680 C   0  0  0  0  0  0  0  0  0  0  0  0
   55.6210   21.6030   47.5890 C   0  0  0  0  0  0  0  0  0  0  0  0
   56.5820   22.6250   47.6080 C   0  0  0  0  0  0  0  0  0  0  0  0
   56.2630   23.8380   47.0020 C   0  0  0  0  0  0  0  0  0  0  0  0
   57.1980   25.2260   46.8750 S   0  0  0  0  0  0  0  0  0  0  0  0
   54.2750   30.0770   43.6700 H   0  0  0  0  0  0  0  0  0  0  0  0
   54.7690   28.5700   44.4990 H   0  0  0  0  0  0  0  0  0  0  0  0
   59.6000   31.7480   45.3160 H   0  0  0  0  0  0  0  0  0  0  0  0
   58.5691   27.4774   46.7692 H   0  0  0  0  0  0  0  0  0  0  0  0
   60.2996   27.0055   46.9454 H   0  0  0  0  0  0  0  0  0  0  0  0
   58.3412   30.1560   47.6724 H   0  0  0  0  0  0  0  0  0  0  0  0
   58.3525   31.2600   49.9086 H   0  0  0  0  0  0  0  0  0  0  0  0
   59.6393   30.2550   51.7953 H   0  0  0  0  0  0  0  0  0  0  0  0
   60.9290   28.1470   51.4471 H   0  0  0  0  0  0  0  0  0  0  0  0
   53.1024   23.2069   45.8744 H   0  0  0  0  0  0  0  0  0  0  0  0
   53.6273   21.0004   46.9580 H   0  0  0  0  0  0  0  0  0  0  0  0
   55.8431   20.6349   48.0618 H   0  0  0  0  0  0  0  0  0  0  0  0
   57.5600   22.4727   48.0880 H   0  0  0  0  0  0  0  0  0  0  0  0
  1  2  1  0
  2  3  2  0
  3  4  1  0
  4  5  2  0
  4  6  1  0
  6  7  1  0
  7  8  1  0
  8  9  2  0
  8 10  2  0
  8 11  1  0
 11 12  1  0
 12 13  2  0
 13 14  1  0
 14 15  2  0
 15 16  1  0
 16 17  2  0
 17 18  1  0
  7 19  2  0
 19 20  1  0
 20 21  2  0
 20 22  1  0
 22 23  2  3
 23 24  1  0
 24 25  1  0
 25 26  2  0
 26 27  1  0
 27 28  2  0
 28 29  1  0
 29 30  2  0
 30 31  1  0
 19  2  1  0
 31 23  1  0
 17 12  1  0
 30 25  1  0
  1 32  1  0
  1 33  1  0
  6 34  1  0
 11 35  1  0
 11 36  1  0
 13 37  1  0
 14 38  1  0
 15 39  1  0
 16 40  1  0
 26 41  1  0
 27 42  1  0
 28 43  1  0
 29 44  1  0
M  CHG  1  24  -1
M  END
>  <UniqueID>  (90) 
80

>  <SMILES>  (90) 
Nc1nc(=O)[nH]c(S(=O)(=O)Cc2ccccc2F)c1C(=O)N=c1[n-]c2ccccc2s1

>  <Energy>  (90) 
90.65287066681292

>  <Genealogy>  (90) 
Nc1nc(=O)[nH]c(S(=O)(=O)Cc2ccccc2F)c1C(=O)N=c1[n-]c2ccccc2s1 (protonated)
Nc1nc(=O)[nH]c(S(=O)(=O)Cc2ccccc2F)c1C(=O)N=c1[n-]c2ccccc2s1 (3D coordinates assigned)
Nc1nc(=O)[nH]c(S(=O)(=O)Cc2ccccc2F)c1C(=O)N=c1[n-]c2ccccc2s1 (optimized conformer: 90.65287066681292 kcal/mol)

>  <smiles>  (90) 
Nc1nc(=O)[nH]c(S(=O)(=O)Cc2ccccc2F)c1C(=O)N=c1[nH]c2ccccc2s1

>  <score_type>  (90) 
oracle

>  <origin>  (90) 
adg

>  <m_score__min__energy>  (90) 
-10.32

>  <m_primary>  (90) 
energy

$$$$
90:0
     RDKit          3D

 66 69  0  0  0  0  0  0  0  0999 V2000
   56.3560   31.1640   44.5520 O   0  0  0  0  0  0  0  0  0  0  0  0
   56.2230   29.9110   44.5340 C   0  0  0  0  0  0  0  0  0  0  0  0
   55.0010   29.3470   44.8850 O   0  0  0  0  0  0  0  0  0  0  0  0
   57.3830   29.0320   44.1780 C   0  0  0  0  0  0  0  0  0  0  0  0
   57.7380   28.1520   45.3040 N   0  0  0  0  0  0  0  0  0  0  0  0
   57.4800   26.7070   45.1750 C   0  0  0  0  0  0  0  0  0  0  0  0
   56.4300   26.2620   46.1460 C   0  0  0  0  0  0  0  0  0  0  0  0
   56.7330   25.5000   47.1050 O   0  0  0  0  0  0  0  0  0  0  0  0
   55.1130   26.6770   45.9860 O   0  0  0  0  0  0  0  0  0  0  0  0
   58.3590   28.6970   46.4980 C   0  0  0  0  0  0  0  0  0  0  0  0
   58.8190   27.8470   47.5230 C   0  0  0  0  0  0  0  0  0  0  0  0
   59.3830   28.3750   48.6870 C   0  0  0  0  0  0  0  0  0  0  0  0
   59.5140   29.7610   48.8460 C   0  0  0  0  0  0  0  0  0  0  0  0
   60.0560   30.3330   50.1280 C   0  0  0  0  0  0  0  0  0  0  0  0
   60.4500   31.7270   49.9210 N   0  0  0  0  0  0  0  0  0  0  0  0
   61.8330   32.0700   49.7760 C   0  0  0  0  0  0  0  0  0  0  0  0
   62.4540   31.9740   48.5240 C   0  0  0  0  0  0  0  0  0  0  0  0
   63.8010   32.3180   48.3790 C   0  0  0  0  0  0  0  0  0  0  0  0
   64.5360   32.7840   49.4840 C   0  0  0  0  0  0  0  0  0  0  0  0
   65.8930   33.1280   49.3850 O   0  0  0  0  0  0  0  0  0  0  0  0
   66.8710   32.8740   50.3570 C   0  0  0  0  0  0  0  0  0  0  0  0
   67.9090   33.7990   50.5260 C   0  0  0  0  0  0  0  0  0  0  0  0
   68.9130   33.5700   51.4730 C   0  0  0  0  0  0  0  0  0  0  0  0
   68.8920   32.4070   52.2480 C   0  0  0  0  0  0  0  0  0  0  0  0
   67.8720   31.4680   52.0720 C   0  0  0  0  0  0  0  0  0  0  0  0
   66.8650   31.6960   51.1270 C   0  0  0  0  0  0  0  0  0  0  0  0
   63.9140   32.8610   50.7370 C   0  0  0  0  0  0  0  0  0  0  0  0
   62.5690   32.5080   50.8830 C   0  0  0  0  0  0  0  0  0  0  0  0
   59.2540   32.9850   49.9370 S   0  0  0  0  0  0  0  0  0  0  0  0
   59.1010   33.5170   51.3340 O   0  0  0  0  0  0  0  0  0  0  0  0
   57.9320   32.4340   49.4810 O   0  0  0  0  0  0  0  0  0  0  0  0
   59.7690   34.2880   48.8340 C   0  0  0  0  0  0  0  0  0  0  0  0
   59.2450   34.0400   47.4490 C   0  0  0  0  0  0  0  0  0  0  0  0
   57.8730   33.8090   47.2400 C   0  0  0  0  0  0  0  0  0  0  0  0
   57.3820   33.6070   45.9460 C   0  0  0  0  0  0  0  0  0  0  0  0
   58.2520   33.6410   44.8540 C   0  0  0  0  0  0  0  0  0  0  0  0
   59.6150   33.8820   45.0510 C   0  0  0  0  0  0  0  0  0  0  0  0
   60.1120   34.0850   46.3440 C   0  0  0  0  0  0  0  0  0  0  0  0
   59.0660   30.6140   47.8280 C   0  0  0  0  0  0  0  0  0  0  0  0
   58.4940   30.0870   46.6660 C   0  0  0  0  0  0  0  0  0  0  0  0
   57.1137   28.4142   43.3086 H   0  0  0  0  0  0  0  0  0  0  0  0
   58.2483   29.6689   43.9423 H   0  0  0  0  0  0  0  0  0  0  0  0
   57.1383   26.4923   44.1517 H   0  0  0  0  0  0  0  0  0  0  0  0
   58.4114   26.1633   45.3914 H   0  0  0  0  0  0  0  0  0  0  0  0
   58.7332   26.7566   47.4056 H   0  0  0  0  0  0  0  0  0  0  0  0
   59.7263   27.6985   49.4836 H   0  0  0  0  0  0  0  0  0  0  0  0
   59.2802   30.2845   50.9063 H   0  0  0  0  0  0  0  0  0  0  0  0
   60.9341   29.7503   50.4432 H   0  0  0  0  0  0  0  0  0  0  0  0
   61.8798   31.6268   47.6523 H   0  0  0  0  0  0  0  0  0  0  0  0
   64.2880   32.2239   47.3972 H   0  0  0  0  0  0  0  0  0  0  0  0
   67.9350   34.7105   49.9108 H   0  0  0  0  0  0  0  0  0  0  0  0
   69.7195   34.3058   51.6078 H   0  0  0  0  0  0  0  0  0  0  0  0
   69.6785   32.2308   52.9966 H   0  0  0  0  0  0  0  0  0  0  0  0
   67.8606   30.5491   52.6766 H   0  0  0  0  0  0  0  0  0  0  0  0
   66.0668   30.9524   50.9858 H   0  0  0  0  0  0  0  0  0  0  0  0
   64.4876   33.2014   51.6117 H   0  0  0  0  0  0  0  0  0  0  0  0
   62.0882   32.5747   51.8701 H   0  0  0  0  0  0  0  0  0  0  0  0
   59.3800   35.2489   49.2019 H   0  0  0  0  0  0  0  0  0  0  0  0
   60.8682   34.3127   48.8002 H   0  0  0  0  0  0  0  0  0  0  0  0
   57.1841   33.7872   48.0973 H   0  0  0  0  0  0  0  0  0  0  0  0
   56.3094   33.4211   45.7882 H   0  0  0  0  0  0  0  0  0  0  0  0
   57.8643   33.4779   43.8376 H   0  0  0  0  0  0  0  0  0  0  0  0
   60.2977   33.9122   44.1890 H   0  0  0  0  0  0  0  0  0  0  0  0
   61.1839   34.2802   46.4953 H   0  0  0  0  0  0  0  0  0  0  0  0
   59.1649   31.7034   47.9438 H   0  0  0  0  0  0  0  0  0  0  0  0
   58.1457   30.7669   45.8745 H   0  0  0  0  0  0  0  0  0  0  0  0
  1  2  2  0
  2  3  1  0
  2  4  1  0
  4  5  1  0
  5  6  1  0
  6  7  1  0
  7  8  2  0
  7  9  1  0
  5 10  1  0
 10 11  2  0
 11 12  1  0
 12 13  2  0
 13 14  1  0
 14 15  1  0
 15 16  1  0
 16 17  2  0
 17 18  1  0
 18 19  2  0
 19 20  1  0
 20 21  1  0
 21 22  2  0
 22 23  1  0
 23 24  2  0
 24 25  1  0
 25 26  2  0
 19 27  1  0
 27 28  2  0
 15 29  1  0
 29 30  2  0
 29 31  2  0
 29 32  1  0
 32 33  1  0
 33 34  2  0
 34 35  1  0
 35 36  2  0
 36 37  1  0
 37 38  2  0
 13 39  1  0
 39 40  2  0
 40 10  1  0
 28 16  1  0
 38 33  1  0
 26 21  1  0
  4 41  1  0
  4 42  1  0
  6 43  1  0
  6 44  1  0
 11 45  1  0
 12 46  1  0
 14 47  1  0
 14 48  1  0
 17 49  1  0
 18 50  1  0
 22 51  1  0
 23 52  1  0
 24 53  1  0
 25 54  1  0
 26 55  1  0
 27 56  1  0
 28 57  1  0
 32 58  1  0
 32 59  1  0
 34 60  1  0
 35 61  1  0
 36 62  1  0
 37 63  1  0
 38 64  1  0
 39 65  1  0
 40 66  1  0
M  CHG  2   3  -1   9  -1
M  END
>  <UniqueID>  (91) 
81

>  <SMILES>  (91) 
O=C([O-])CN(CC(=O)[O-])c1ccc(CN(c2ccc(Oc3ccccc3)cc2)S(=O)(=O)Cc2ccccc2)cc1

>  <Energy>  (91) 
77.51272507382977

>  <Genealogy>  (91) 
O=C([O-])CN(CC(=O)[O-])c1ccc(CN(c2ccc(Oc3ccccc3)cc2)S(=O)(=O)Cc2ccccc2)cc1 (protonated)
O=C([O-])CN(CC(=O)[O-])c1ccc(CN(c2ccc(Oc3ccccc3)cc2)S(=O)(=O)Cc2ccccc2)cc1 (3D coordinates assigned)
O=C([O-])CN(CC(=O)[O-])c1ccc(CN(c2ccc(Oc3ccccc3)cc2)S(=O)(=O)Cc2ccccc2)cc1 (optimized conformer: 77.51272507382977 kcal/mol)

>  <smiles>  (91) 
O=C(O)CN(CC(=O)O)c1ccc(CN(c2ccc(Oc3ccccc3)cc2)S(=O)(=O)Cc2ccccc2)cc1

>  <score_type>  (91) 
oracle

>  <origin>  (91) 
adg

>  <m_score__min__energy>  (91) 
-16.18

>  <m_primary>  (91) 
energy

$$$$
91:0
     RDKit          3D

 29 31  0  0  0  0  0  0  0  0999 V2000
   62.9020   32.3850   51.5980 F   0  0  0  0  0  0  0  0  0  0  0  0
   62.4660   33.5530   50.9980 C   0  0  0  0  0  0  0  0  0  0  0  0
   61.1770   33.8250   51.4250 F   0  0  0  0  0  0  0  0  0  0  0  0
   63.2830   34.5970   51.3970 F   0  0  0  0  0  0  0  0  0  0  0  0
   62.5050   33.3860   49.5010 C   0  0  0  0  0  0  0  0  0  0  0  0
   63.7100   33.0890   48.8450 C   0  0  0  0  0  0  0  0  0  0  0  0
   63.7300   32.8890   47.4980 N   0  0  0  0  0  0  0  0  0  0  0  0
   62.5960   32.9560   46.7510 C   0  0  0  0  0  0  0  0  0  0  0  0
   61.3650   33.2380   47.3570 C   0  0  0  0  0  0  0  0  0  0  0  0
   60.1190   33.2730   46.5580 C   0  0  0  0  0  0  0  0  0  0  0  0
   59.6720   34.5120   46.0700 C   0  0  0  0  0  0  0  0  0  0  0  0
   58.4810   34.5890   45.3480 C   0  0  0  0  0  0  0  0  0  0  0  0
   57.7520   33.4680   45.1100 N   0  0  0  0  0  0  0  0  0  0  0  0
   58.1520   32.2470   45.5500 C   0  0  0  0  0  0  0  0  0  0  0  0
   57.3940   31.1540   45.2720 N   0  0  0  0  0  0  0  0  0  0  0  0
   57.7600   29.9080   45.6710 C   0  0  0  0  0  0  0  0  0  0  0  0
   58.9480   29.7200   46.3780 C   0  0  0  0  0  0  0  0  0  0  0  0
   59.7500   30.8210   46.6800 C   0  0  0  0  0  0  0  0  0  0  0  0
   59.3560   32.1130   46.2830 C   0  0  0  0  0  0  0  0  0  0  0  0
   61.3240   33.4320   48.7440 C   0  0  0  0  0  0  0  0  0  0  0  0
   64.6436   33.0174   49.4223 H   0  0  0  0  0  0  0  0  0  0  0  0
   64.6370   32.6700   47.0290 H   0  0  0  0  0  0  0  0  0  0  0  0
   62.6455   32.7879   45.6650 H   0  0  0  0  0  0  0  0  0  0  0  0
   60.2613   35.4218   46.2573 H   0  0  0  0  0  0  0  0  0  0  0  0
   58.1310   35.5609   44.9701 H   0  0  0  0  0  0  0  0  0  0  0  0
   57.1185   29.0458   45.4362 H   0  0  0  0  0  0  0  0  0  0  0  0
   59.2502   28.7110   46.6950 H   0  0  0  0  0  0  0  0  0  0  0  0
   60.6923   30.6793   47.2295 H   0  0  0  0  0  0  0  0  0  0  0  0
   60.3616   33.6213   49.2420 H   0  0  0  0  0  0  0  0  0  0  0  0
  1  2  1  0
  2  3  1  0
  2  4  1  0
  2  5  1  0
  5  6  2  0
  6  7  1  0
  7  8  2  0
  8  9  1  0
  9 10  1  0
 10 11  2  0
 11 12  1  0
 12 13  2  0
 13 14  1  0
 14 15  2  0
 15 16  1  0
 16 17  2  0
 17 18  1  0
 18 19  2  0
  9 20  2  0
 20  5  1  0
 19 10  1  0
 19 14  1  0
  6 21  1  0
  7 22  1  0
  8 23  1  0
 11 24  1  0
 12 25  1  0
 16 26  1  0
 17 27  1  0
 18 28  1  0
 20 29  1  0
M  CHG  1   7   1
M  END
>  <UniqueID>  (92) 
82

>  <SMILES>  (92) 
FC(F)(F)c1c[nH+]cc(-c2ccnc3ncccc23)c1

>  <Energy>  (92) 
44.78149324511678

>  <Genealogy>  (92) 
FC(F)(F)c1c[nH+]cc(-c2ccnc3ncccc23)c1 (protonated)
FC(F)(F)c1c[nH+]cc(-c2ccnc3ncccc23)c1 (3D coordinates assigned)
FC(F)(F)c1c[nH+]cc(-c2ccnc3ncccc23)c1 (optimized conformer: 44.78149324511678 kcal/mol)

>  <smiles>  (92) 
FC(F)(F)c1cncc(-c2ccnc3ncccc23)c1

>  <score_type>  (92) 
oracle

>  <origin>  (92) 
adg

>  <m_score__min__energy>  (92) 
-5.2000000000000002

>  <m_primary>  (92) 
energy

$$$$
92:0
     RDKit          3D

 29 31  0  0  0  0  0  0  0  0999 V2000
   59.1360   30.4880   44.8440 C   0  0  0  0  0  0  0  0  0  0  0  0
   57.9010   29.7030   45.0490 C   0  0  0  0  0  0  0  0  0  0  0  0
   56.6160   30.0890   44.9240 N   0  0  0  0  0  0  0  0  0  0  0  0
   55.8070   29.0580   45.2060 N   0  0  0  0  0  0  0  0  0  0  0  0
   56.5570   27.9770   45.5200 C   0  0  0  0  0  0  0  0  0  0  0  0
   56.2360   26.6950   45.8780 C   0  0  0  0  0  0  0  0  0  0  0  0
   54.9080   26.2610   45.9840 O   0  0  0  0  0  0  0  0  0  0  0  0
   57.2210   25.8250   46.1350 N   0  0  0  0  0  0  0  0  0  0  0  0
   56.9730   24.4730   46.5140 C   0  0  0  0  0  0  0  0  0  0  0  0
   56.8820   24.2390   47.8880 C   0  0  0  0  0  0  0  0  0  0  0  0
   56.6460   22.9790   48.3700 C   0  0  0  0  0  0  0  0  0  0  0  0
   56.5010   21.9420   47.4710 C   0  0  0  0  0  0  0  0  0  0  0  0
   56.2000   20.3420   48.1290 Cl  0  0  0  0  0  0  0  0  0  0  0  0
   56.5920   22.1830   46.1240 C   0  0  0  0  0  0  0  0  0  0  0  0
   56.8310   23.4510   45.5980 C   0  0  0  0  0  0  0  0  0  0  0  0
   56.9230   23.7030   44.2900 F   0  0  0  0  0  0  0  0  0  0  0  0
   58.5340   26.1780   46.0520 C   0  0  0  0  0  0  0  0  0  0  0  0
   59.4460   25.3520   46.2970 O   0  0  0  0  0  0  0  0  0  0  0  0
   58.8760   27.4670   45.6930 C   0  0  0  0  0  0  0  0  0  0  0  0
   57.8670   28.3780   45.4230 C   0  0  0  0  0  0  0  0  0  0  0  0
   59.5639   30.7600   45.8202 H   0  0  0  0  0  0  0  0  0  0  0  0
   59.8635   29.8862   44.2796 H   0  0  0  0  0  0  0  0  0  0  0  0
   58.8999   31.4022   44.2796 H   0  0  0  0  0  0  0  0  0  0  0  0
   54.7630   29.0660   45.1900 H   0  0  0  0  0  0  0  0  0  0  0  0
   54.3830   26.7000   46.7540 H   0  0  0  0  0  0  0  0  0  0  0  0
   57.0013   25.0765   48.5911 H   0  0  0  0  0  0  0  0  0  0  0  0
   56.5734   22.7971   49.4524 H   0  0  0  0  0  0  0  0  0  0  0  0
   56.4711   21.3390   45.4289 H   0  0  0  0  0  0  0  0  0  0  0  0
   59.9323   27.7658   45.6225 H   0  0  0  0  0  0  0  0  0  0  0  0
  1  2  1  0
  2  3  2  0
  3  4  1  0
  4  5  1  0
  5  6  2  0
  6  7  1  0
  6  8  1  0
  8  9  1  0
  9 10  2  0
 10 11  1  0
 11 12  2  0
 12 13  1  0
 12 14  1  0
 14 15  2  0
 15 16  1  0
  8 17  1  0
 17 18  2  0
 17 19  1  0
 19 20  2  0
 20  2  1  0
 20  5  1  0
 15  9  1  0
  1 21  1  0
  1 22  1  0
  1 23  1  0
  4 24  1  0
  7 25  1  0
 10 26  1  0
 11 27  1  0
 14 28  1  0
 19 29  1  0
M  END
>  <smiles>  (93) 
Cc1n[nH]c2c(O)n(-c3ccc(Cl)cc3F)c(=O)cc12

>  <score_type>  (93) 
oracle

>  <origin>  (93) 
adg

>  <m_score__min__energy>  (93) 
-7.8099999999999996

>  <m_primary>  (93) 
energy

$$$$
93:0
     RDKit          3D

 42 44  0  0  0  0  0  0  0  0999 V2000
   55.0350   25.2090   45.6230 C   0  0  0  0  0  0  0  0  0  0  0  0
   55.3770   26.5550   45.9330 O   0  0  0  0  0  0  0  0  0  0  0  0
   56.6420   27.0880   45.6760 C   0  0  0  0  0  0  0  0  0  0  0  0
   57.6570   26.3390   45.6260 O   0  0  0  0  0  0  0  0  0  0  0  0
   56.7860   28.5320   45.4620 C   0  0  0  0  0  0  0  0  0  0  0  0
   57.8340   29.3300   45.8670 C   0  0  0  0  0  0  0  0  0  0  0  0
   57.5320   30.5730   45.4540 N   0  0  0  0  0  0  0  0  0  0  0  0
   58.3130   31.7870   45.7030 C   0  0  0  0  0  0  0  0  0  0  0  0
   57.4500   33.0360   45.4950 C   0  0  0  0  0  0  0  0  0  0  0  0
   58.2820   34.3190   45.7000 C   0  0  0  0  0  0  0  0  0  0  0  0
   59.2970   34.2220   46.7850 N   0  0  0  0  0  0  0  0  0  0  0  0
   60.6840   34.1650   46.2680 C   0  0  0  0  0  0  0  0  0  0  0  0
   61.6470   33.7500   47.3500 C   0  0  0  0  0  0  0  0  0  0  0  0
   62.6000   32.7440   47.1120 C   0  0  0  0  0  0  0  0  0  0  0  0
   63.4780   32.3530   48.1280 C   0  0  0  0  0  0  0  0  0  0  0  0
   63.4110   32.9600   49.3850 C   0  0  0  0  0  0  0  0  0  0  0  0
   62.4640   33.9590   49.6290 C   0  0  0  0  0  0  0  0  0  0  0  0
   61.5830   34.3530   48.6170 C   0  0  0  0  0  0  0  0  0  0  0  0
   58.9980   33.1550   47.7670 C   0  0  0  0  0  0  0  0  0  0  0  0
   58.9150   31.7560   47.1240 C   0  0  0  0  0  0  0  0  0  0  0  0
   56.3560   30.5390   44.8440 N   0  0  0  0  0  0  0  0  0  0  0  0
   55.8800   29.3030   44.8280 N   0  0  0  0  0  0  0  0  0  0  0  0
   54.8912   24.6432   46.5553 H   0  0  0  0  0  0  0  0  0  0  0  0
   54.1042   25.1928   45.0370 H   0  0  0  0  0  0  0  0  0  0  0  0
   55.8452   24.7505   45.0370 H   0  0  0  0  0  0  0  0  0  0  0  0
   58.7335   29.0144   46.4159 H   0  0  0  0  0  0  0  0  0  0  0  0
   59.1422   31.8266   44.9812 H   0  0  0  0  0  0  0  0  0  0  0  0
   57.0456   33.0283   44.4721 H   0  0  0  0  0  0  0  0  0  0  0  0
   56.6324   33.0254   46.2308 H   0  0  0  0  0  0  0  0  0  0  0  0
   58.8040   34.5456   44.7587 H   0  0  0  0  0  0  0  0  0  0  0  0
   57.5765   35.1089   45.9972 H   0  0  0  0  0  0  0  0  0  0  0  0
   60.7316   33.4364   45.4453 H   0  0  0  0  0  0  0  0  0  0  0  0
   60.9669   35.1668   45.9125 H   0  0  0  0  0  0  0  0  0  0  0  0
   62.6552   32.2632   46.1242 H   0  0  0  0  0  0  0  0  0  0  0  0
   64.2227   31.5662   47.9373 H   0  0  0  0  0  0  0  0  0  0  0  0
   64.1033   32.6518   50.1823 H   0  0  0  0  0  0  0  0  0  0  0  0
   62.4118   34.4360   50.6188 H   0  0  0  0  0  0  0  0  0  0  0  0
   60.8376   35.1376   48.8138 H   0  0  0  0  0  0  0  0  0  0  0  0
   59.7923   33.1453   48.5279 H   0  0  0  0  0  0  0  0  0  0  0  0
   58.0140   33.3760   48.2063 H   0  0  0  0  0  0  0  0  0  0  0  0
   59.9294   31.3343   47.0671 H   0  0  0  0  0  0  0  0  0  0  0  0
   58.2529   31.1413   47.7515 H   0  0  0  0  0  0  0  0  0  0  0  0
  1  2  1  0
  2  3  1  0
  3  4  2  0
  3  5  1  0
  5  6  2  0
  6  7  1  0
  7  8  1  0
  8  9  1  0
  9 10  1  0
 10 11  1  0
 11 12  1  0
 12 13  1  0
 13 14  2  0
 14 15  1  0
 15 16  2  0
 16 17  1  0
 17 18  2  0
 11 19  1  0
 19 20  1  0
  7 21  1  0
 21 22  2  0
 22  5  1  0
 20  8  1  0
 18 13  1  0
  1 23  1  0
  1 24  1  0
  1 25  1  0
  6 26  1  0
  8 27  1  0
  9 28  1  0
  9 29  1  0
 10 30  1  0
 10 31  1  0
 12 32  1  0
 12 33  1  0
 14 34  1  0
 15 35  1  0
 16 36  1  0
 17 37  1  0
 18 38  1  0
 19 39  1  0
 19 40  1  0
 20 41  1  0
 20 42  1  0
M  END
>  <UniqueID>  (94) 
83

>  <SMILES>  (94) 
COC(=O)c1cn(C2CCN(Cc3ccccc3)CC2)nn1

>  <Energy>  (94) 
83.69581962001138

>  <Genealogy>  (94) 
COC(=O)c1cn(C2CCN(Cc3ccccc3)CC2)nn1 (3D coordinates assigned)
COC(=O)c1cn(C2CCN(Cc3ccccc3)CC2)nn1 (nonaromatic ring conformer: 83.69581962001138 kcal/mol)

>  <smiles>  (94) 
COC(=O)c1cn(C2CCN(Cc3ccccc3)CC2)nn1

>  <score_type>  (94) 
oracle

>  <origin>  (94) 
adg

>  <m_score__min__energy>  (94) 
-8.2300000000000004

>  <m_primary>  (94) 
energy

$$$$
94:0
     RDKit          3D

 49 51  0  0  0  0  0  0  0  0999 V2000
   60.6070   34.4600   48.9990 C   0  0  0  0  0  0  0  0  0  0  0  0
   60.5750   33.8170   47.6870 N   0  0  0  0  0  0  0  0  0  0  0  0
   61.7050   32.9960   47.2430 C   0  0  0  0  0  0  0  0  0  0  0  0
   62.3160   32.2780   48.4180 C   0  0  0  0  0  0  0  0  0  0  0  0
   63.5830   32.6610   48.8910 C   0  0  0  0  0  0  0  0  0  0  0  0
   64.2040   31.9560   49.9360 C   0  0  0  0  0  0  0  0  0  0  0  0
   65.5490   32.3900   50.4640 C   0  0  0  0  0  0  0  0  0  0  0  0
   66.2320   33.0660   49.4680 F   0  0  0  0  0  0  0  0  0  0  0  0
   66.3020   31.2990   50.8630 F   0  0  0  0  0  0  0  0  0  0  0  0
   65.3910   33.2270   51.5570 F   0  0  0  0  0  0  0  0  0  0  0  0
   63.5240   30.8820   50.5330 C   0  0  0  0  0  0  0  0  0  0  0  0
   62.2630   30.4970   50.0720 C   0  0  0  0  0  0  0  0  0  0  0  0
   61.6550   31.1890   49.0170 C   0  0  0  0  0  0  0  0  0  0  0  0
   60.4040   30.7860   48.5440 O   0  0  0  0  0  0  0  0  0  0  0  0
   60.1720   29.4820   48.0220 C   0  0  0  0  0  0  0  0  0  0  0  0
   59.3110   29.5460   46.7880 C   0  0  0  0  0  0  0  0  0  0  0  0
   59.3040   30.7130   46.0060 C   0  0  0  0  0  0  0  0  0  0  0  0
   58.5040   30.7930   44.8630 C   0  0  0  0  0  0  0  0  0  0  0  0
   57.7020   29.7120   44.4930 C   0  0  0  0  0  0  0  0  0  0  0  0
   57.6950   28.5490   45.2670 C   0  0  0  0  0  0  0  0  0  0  0  0
   58.4920   28.4580   46.4130 C   0  0  0  0  0  0  0  0  0  0  0  0
   58.4360   26.9740   47.3600 Cl  0  0  0  0  0  0  0  0  0  0  0  0
   59.3860   33.8960   46.8900 C   0  0  0  0  0  0  0  0  0  0  0  0
   59.4340   34.5400   45.6470 C   0  0  0  0  0  0  0  0  0  0  0  0
   58.2950   34.6140   44.8420 C   0  0  0  0  0  0  0  0  0  0  0  0
   57.0950   34.0570   45.2800 C   0  0  0  0  0  0  0  0  0  0  0  0
   57.0300   33.4240   46.5250 C   0  0  0  0  0  0  0  0  0  0  0  0
   58.1700   33.3380   47.3400 C   0  0  0  0  0  0  0  0  0  0  0  0
   58.0760   32.7000   48.6190 N   0  0  0  0  0  0  0  0  0  0  0  0
   60.5688   33.6914   49.7850 H   0  0  0  0  0  0  0  0  0  0  0  0
   61.5352   35.0416   49.0997 H   0  0  0  0  0  0  0  0  0  0  0  0
   59.7411   35.1309   49.0997 H   0  0  0  0  0  0  0  0  0  0  0  0
   61.3516   32.2571   46.5087 H   0  0  0  0  0  0  0  0  0  0  0  0
   62.4642   33.6462   46.7838 H   0  0  0  0  0  0  0  0  0  0  0  0
   64.0945   33.5229   48.4377 H   0  0  0  0  0  0  0  0  0  0  0  0
   63.9880   30.3398   51.3701 H   0  0  0  0  0  0  0  0  0  0  0  0
   61.7452   29.6466   50.5396 H   0  0  0  0  0  0  0  0  0  0  0  0
   61.1364   29.0193   47.7654 H   0  0  0  0  0  0  0  0  0  0  0  0
   59.6517   28.8840   48.7847 H   0  0  0  0  0  0  0  0  0  0  0  0
   59.9318   31.5687   46.2950 H   0  0  0  0  0  0  0  0  0  0  0  0
   58.5063   31.7090   44.2540 H   0  0  0  0  0  0  0  0  0  0  0  0
   57.0751   29.7759   43.5914 H   0  0  0  0  0  0  0  0  0  0  0  0
   57.0595   27.7004   44.9737 H   0  0  0  0  0  0  0  0  0  0  0  0
   60.3762   34.9910   45.3021 H   0  0  0  0  0  0  0  0  0  0  0  0
   58.3452   35.1119   43.8624 H   0  0  0  0  0  0  0  0  0  0  0  0
   56.1982   34.1154   44.6457 H   0  0  0  0  0  0  0  0  0  0  0  0
   56.0791   32.9904   46.8683 H   0  0  0  0  0  0  0  0  0  0  0  0
   58.8890   32.2000   49.0440 H   0  0  0  0  0  0  0  0  0  0  0  0
   57.1830   32.7240   49.1590 H   0  0  0  0  0  0  0  0  0  0  0  0
  1  2  1  0
  2  3  1  0
  3  4  1  0
  4  5  2  0
  5  6  1  0
  6  7  1  0
  7  8  1  0
  7  9  1  0
  7 10  1  0
  6 11  2  0
 11 12  1  0
 12 13  2  0
 13 14  1  0
 14 15  1  0
 15 16  1  0
 16 17  2  0
 17 18  1  0
 18 19  2  0
 19 20  1  0
 20 21  2  0
 21 22  1  0
  2 23  1  0
 23 24  2  0
 24 25  1  0
 25 26  2  0
 26 27  1  0
 27 28  2  0
 28 29  1  0
 13  4  1  0
 21 16  1  0
 28 23  1  0
  1 30  1  0
  1 31  1  0
  1 32  1  0
  3 33  1  0
  3 34  1  0
  5 35  1  0
 11 36  1  0
 12 37  1  0
 15 38  1  0
 15 39  1  0
 17 40  1  0
 18 41  1  0
 19 42  1  0
 20 43  1  0
 24 44  1  0
 25 45  1  0
 26 46  1  0
 27 47  1  0
 29 48  1  0
 29 49  1  0
M  END
>  <UniqueID>  (95) 
84

>  <SMILES>  (95) 
CN(Cc1cc(C(F)(F)F)ccc1OCc1ccccc1Cl)c1ccccc1N

>  <Energy>  (95) 
60.902276456063966

>  <Genealogy>  (95) 
CN(Cc1cc(C(F)(F)F)ccc1OCc1ccccc1Cl)c1ccccc1N (3D coordinates assigned)
CN(Cc1cc(C(F)(F)F)ccc1OCc1ccccc1Cl)c1ccccc1N (optimized conformer: 60.902276456063966 kcal/mol)

>  <smiles>  (95) 
CN(Cc1cc(C(F)(F)F)ccc1OCc1ccccc1Cl)c1ccccc1N

>  <score_type>  (95) 
oracle

>  <origin>  (95) 
adg

>  <m_score__min__energy>  (95) 
-7.3499999999999996

>  <m_primary>  (95) 
energy

$$$$
95:0
     RDKit          3D

 27 27  0  0  0  0  0  0  0  0999 V2000
   58.4240   27.4830   44.0940 C   0  0  0  0  0  0  0  0  0  0  0  0
   57.4620   28.1240   43.1960 N   0  0  0  0  0  0  0  0  0  0  0  0
   56.9790   29.3410   43.7850 C   0  0  0  0  0  0  0  0  0  0  0  0
   55.9510   29.3130   44.5170 O   0  0  0  0  0  0  0  0  0  0  0  0
   57.6920   30.5720   43.5750 N   0  0  0  0  0  0  0  0  0  0  0  0
   57.3130   31.8310   44.1510 C   0  0  0  0  0  0  0  0  0  0  0  0
   56.2820   31.9290   44.8710 O   0  0  0  0  0  0  0  0  0  0  0  0
   58.1730   33.0400   43.9380 C   0  0  0  0  0  0  0  0  0  0  0  0
   58.6590   33.5660   45.2600 C   0  0  0  0  0  0  0  0  0  0  0  0
   59.2510   34.8380   45.3410 C   0  0  0  0  0  0  0  0  0  0  0  0
   59.6710   35.3420   46.5750 C   0  0  0  0  0  0  0  0  0  0  0  0
   59.4950   34.5860   47.7380 C   0  0  0  0  0  0  0  0  0  0  0  0
   58.8960   33.3250   47.6670 C   0  0  0  0  0  0  0  0  0  0  0  0
   58.4740   32.8170   46.4340 C   0  0  0  0  0  0  0  0  0  0  0  0
   58.1355   27.6752   45.1379 H   0  0  0  0  0  0  0  0  0  0  0  0
   58.4317   26.3986   43.9094 H   0  0  0  0  0  0  0  0  0  0  0  0
   59.4277   27.8935   43.9094 H   0  0  0  0  0  0  0  0  0  0  0  0
   57.9250   28.3360   42.2830 H   0  0  0  0  0  0  0  0  0  0  0  0
   56.6620   27.4710   43.0240 H   0  0  0  0  0  0  0  0  0  0  0  0
   58.5500   30.5410   42.9790 H   0  0  0  0  0  0  0  0  0  0  0  0
   59.0373   32.7668   43.3149 H   0  0  0  0  0  0  0  0  0  0  0  0
   57.5815   33.8193   43.4352 H   0  0  0  0  0  0  0  0  0  0  0  0
   59.3843   35.4393   44.4296 H   0  0  0  0  0  0  0  0  0  0  0  0
   60.1408   36.3350   46.6314 H   0  0  0  0  0  0  0  0  0  0  0  0
   59.8277   34.9833   48.7083 H   0  0  0  0  0  0  0  0  0  0  0  0
   58.7563   32.7312   48.5823 H   0  0  0  0  0  0  0  0  0  0  0  0
   57.9957   31.8277   46.3834 H   0  0  0  0  0  0  0  0  0  0  0  0
  1  2  1  0
  2  3  1  0
  3  4  2  0
  3  5  1  0
  5  6  1  0
  6  7  2  0
  6  8  1  0
  8  9  1  0
  9 10  2  0
 10 11  1  0
 11 12  2  0
 12 13  1  0
 13 14  2  0
 14  9  1  0
  1 15  1  0
  1 16  1  0
  1 17  1  0
  2 18  1  0
  2 19  1  0
  5 20  1  0
  8 21  1  0
  8 22  1  0
 10 23  1  0
 11 24  1  0
 12 25  1  0
 13 26  1  0
 14 27  1  0
M  CHG  1   2   1
M  END
>  <UniqueID>  (96) 
85

>  <SMILES>  (96) 
C[NH2+]C(=O)NC(=O)Cc1ccccc1

>  <Energy>  (96) 
21.17452702253577

>  <Genealogy>  (96) 
C[NH2+]C(=O)NC(=O)Cc1ccccc1 (protonated)
C[NH2+]C(=O)NC(=O)Cc1ccccc1 (3D coordinates assigned)
C[NH2+]C(=O)NC(=O)Cc1ccccc1 (optimized conformer: 21.17452702253577 kcal/mol)

>  <smiles>  (96) 
CNC(=O)NC(=O)Cc1ccccc1

>  <score_type>  (96) 
oracle

>  <origin>  (96) 
adg

>  <m_score__min__energy>  (96) 
-6.0599999999999996

>  <m_primary>  (96) 
energy

$$$$
