0:0
     RDKit          3D

 42 44  0  0  0  0  0  0  0  0999 V2000
   55.3910   22.9540   48.1720 C   0  0  0  0  0  0  0  0  0  0  0  0
   56.9850   23.7270   47.7510 S   0  0  0  0  0  0  0  0  0  0  0  0
   56.7780   23.4810   45.9780 C   0  0  0  0  0  0  0  0  0  0  0  0
   57.5140   22.4470   45.3810 C   0  0  0  0  0  0  0  0  0  0  0  0
   57.4390   22.2240   44.0060 C   0  0  0  0  0  0  0  0  0  0  0  0
   56.6350   23.0380   43.2120 C   0  0  0  0  0  0  0  0  0  0  0  0
   55.9010   24.0760   43.7880 C   0  0  0  0  0  0  0  0  0  0  0  0
   55.9550   24.3160   45.1760 C   0  0  0  0  0  0  0  0  0  0  0  0
   55.1630   25.4420   45.7340 C   0  0  0  0  0  0  0  0  0  0  0  0
   53.9100   25.4660   45.6100 O   0  0  0  0  0  0  0  0  0  0  0  0
   55.8400   26.5470   46.3530 N   0  0  0  0  0  0  0  0  0  0  0  0
   57.0930   27.1160   45.9460 C   0  0  0  0  0  0  0  0  0  0  0  0
   58.2710   26.6090   46.5040 C   0  0  0  0  0  0  0  0  0  0  0  0
   59.5100   27.1530   46.1560 C   0  0  0  0  0  0  0  0  0  0  0  0
   59.5800   28.2200   45.2590 C   0  0  0  0  0  0  0  0  0  0  0  0
   58.4060   28.7570   44.7000 C   0  0  0  0  0  0  0  0  0  0  0  0
   58.4740   29.8920   43.8150 N   0  0  0  0  0  0  0  0  0  0  0  0
   58.2290   31.1010   44.5610 C   0  0  0  0  0  0  0  0  0  0  0  0
   57.7670   32.2600   43.9100 C   0  0  0  0  0  0  0  0  0  0  0  0
   57.5000   33.4220   44.6410 C   0  0  0  0  0  0  0  0  0  0  0  0
   57.6850   33.4370   46.0260 C   0  0  0  0  0  0  0  0  0  0  0  0
   58.1350   32.2890   46.6830 C   0  0  0  0  0  0  0  0  0  0  0  0
   58.4030   31.1250   45.9570 C   0  0  0  0  0  0  0  0  0  0  0  0
   57.1630   28.2070   45.0610 C   0  0  0  0  0  0  0  0  0  0  0  0
   55.2858   22.9030   49.2658 H   0  0  0  0  0  0  0  0  0  0  0  0
   54.5702   23.5542   47.7523 H   0  0  0  0  0  0  0  0  0  0  0  0
   55.3540   21.9379   47.7523 H   0  0  0  0  0  0  0  0  0  0  0  0
   58.1563   21.8060   46.0028 H   0  0  0  0  0  0  0  0  0  0  0  0
   58.0147   21.4056   43.5491 H   0  0  0  0  0  0  0  0  0  0  0  0
   56.5783   22.8623   42.1276 H   0  0  0  0  0  0  0  0  0  0  0  0
   55.2722   24.7151   43.1506 H   0  0  0  0  0  0  0  0  0  0  0  0
   58.2217   25.7766   47.2214 H   0  0  0  0  0  0  0  0  0  0  0  0
   60.4323   26.7394   46.5899 H   0  0  0  0  0  0  0  0  0  0  0  0
   60.5584   28.6433   44.9877 H   0  0  0  0  0  0  0  0  0  0  0  0
   57.7670   29.7920   43.0480 H   0  0  0  0  0  0  0  0  0  0  0  0
   59.4130   29.9380   43.3550 H   0  0  0  0  0  0  0  0  0  0  0  0
   57.6151   32.2519   42.8206 H   0  0  0  0  0  0  0  0  0  0  0  0
   57.1438   34.3257   44.1248 H   0  0  0  0  0  0  0  0  0  0  0  0
   57.4764   34.3525   46.5989 H   0  0  0  0  0  0  0  0  0  0  0  0
   58.2786   32.3012   47.7735 H   0  0  0  0  0  0  0  0  0  0  0  0
   58.7520   30.2225   46.4801 H   0  0  0  0  0  0  0  0  0  0  0  0
   56.2373   28.6338   44.6476 H   0  0  0  0  0  0  0  0  0  0  0  0
  1  2  1  0
  2  3  1  0
  3  4  2  0
  4  5  1  0
  5  6  2  0
  6  7  1  0
  7  8  2  0
  8  9  1  0
  9 10  2  0
  9 11  1  0
 11 12  1  0
 12 13  2  0
 13 14  1  0
 14 15  2  0
 15 16  1  0
 16 17  1  0
 17 18  1  0
 18 19  2  0
 19 20  1  0
 20 21  2  0
 21 22  1  0
 22 23  2  0
 16 24  2  0
  8  3  1  0
 24 12  1  0
 23 18  1  0
  1 25  1  0
  1 26  1  0
  1 27  1  0
  4 28  1  0
  5 29  1  0
  6 30  1  0
  7 31  1  0
 13 32  1  0
 14 33  1  0
 15 34  1  0
 17 35  1  0
 17 36  1  0
 19 37  1  0
 20 38  1  0
 21 39  1  0
 22 40  1  0
 23 41  1  0
 24 42  1  0
M  CHG  2  11  -1  17   1
M  END
>  <UniqueID>  (1) 
1

>  <SMILES>  (1) 
CSc1ccccc1C(=O)[N-]c1cccc([NH2+]c2ccccc2)c1

>  <Energy>  (1) 
50.469406386298196

>  <Genealogy>  (1) 
CSc1ccccc1C(=O)[N-]c1cccc([NH2+]c2ccccc2)c1 (protonated)
CSc1ccccc1C(=O)[N-]c1cccc([NH2+]c2ccccc2)c1 (3D coordinates assigned)
CSc1ccccc1C(=O)[N-]c1cccc([NH2+]c2ccccc2)c1 (optimized conformer: 50.469406386298196 kcal/mol)

>  <smiles>  (1) 
CSc1ccccc1C(=O)Nc1cccc(Nc2ccccc2)c1

>  <score_type>  (1) 
oracle

>  <origin>  (1) 
adg

>  <m_score__min__energy>  (1) 
-8.9199999999999999

>  <m_primary>  (1) 
energy

$$$$
1:0
     RDKit          3D

 31 32  0  0  0  0  0  0  0  0999 V2000
   54.7460   26.2820   45.9890 N   0  0  0  0  0  0  0  0  0  0  0  0
   56.2620   25.4820   46.2190 S   0  0  0  0  0  0  0  0  0  0  0  0
   56.3980   24.3820   45.2050 O   0  0  0  0  0  0  0  0  0  0  0  0
   56.2890   24.8950   47.6030 O   0  0  0  0  0  0  0  0  0  0  0  0
   57.5950   26.6200   46.0280 C   0  0  0  0  0  0  0  0  0  0  0  0
   57.4970   27.6740   45.1090 C   0  0  0  0  0  0  0  0  0  0  0  0
   58.5510   28.5880   44.9460 C   0  0  0  0  0  0  0  0  0  0  0  0
   58.4080   29.6630   44.0010 N   0  0  0  0  0  0  0  0  0  0  0  0
   57.4330   31.0730   44.2760 S   0  0  0  0  0  0  0  0  0  0  0  0
   56.0520   30.6490   44.6870 O   0  0  0  0  0  0  0  0  0  0  0  0
   57.3430   31.8630   43.0000 O   0  0  0  0  0  0  0  0  0  0  0  0
   58.1330   32.0470   45.5650 C   0  0  0  0  0  0  0  0  0  0  0  0
   58.2820   33.4300   45.3950 C   0  0  0  0  0  0  0  0  0  0  0  0
   58.8270   34.2090   46.4190 C   0  0  0  0  0  0  0  0  0  0  0  0
   59.2300   33.6100   47.6180 C   0  0  0  0  0  0  0  0  0  0  0  0
   59.9120   34.5890   48.9030 Cl  0  0  0  0  0  0  0  0  0  0  0  0
   59.0880   32.2290   47.7890 C   0  0  0  0  0  0  0  0  0  0  0  0
   58.5430   31.4480   46.7650 C   0  0  0  0  0  0  0  0  0  0  0  0
   59.7220   28.4210   45.7100 C   0  0  0  0  0  0  0  0  0  0  0  0
   59.8260   27.3660   46.6210 C   0  0  0  0  0  0  0  0  0  0  0  0
   58.7700   26.4660   46.7810 C   0  0  0  0  0  0  0  0  0  0  0  0
   58.8980   25.4430   47.6620 F   0  0  0  0  0  0  0  0  0  0  0  0
   54.7740   26.7250   45.0430 H   0  0  0  0  0  0  0  0  0  0  0  0
   56.5828   27.7867   44.5077 H   0  0  0  0  0  0  0  0  0  0  0  0
   58.8470   29.5710   43.0580 H   0  0  0  0  0  0  0  0  0  0  0  0
   57.9691   33.9037   44.4528 H   0  0  0  0  0  0  0  0  0  0  0  0
   58.9395   35.2947   46.2826 H   0  0  0  0  0  0  0  0  0  0  0  0
   59.4055   31.7566   48.7303 H   0  0  0  0  0  0  0  0  0  0  0  0
   58.4357   30.3617   46.9010 H   0  0  0  0  0  0  0  0  0  0  0  0
   60.5591   29.1243   45.5893 H   0  0  0  0  0  0  0  0  0  0  0  0
   60.7439   27.2440   47.2148 H   0  0  0  0  0  0  0  0  0  0  0  0
  1  2  1  0
  2  3  2  0
  2  4  2  0
  2  5  1  0
  5  6  2  0
  6  7  1  0
  7  8  1  0
  8  9  1  0
  9 10  2  0
  9 11  2  0
  9 12  1  0
 12 13  2  0
 13 14  1  0
 14 15  2  0
 15 16  1  0
 15 17  1  0
 17 18  2  0
  7 19  2  0
 19 20  1  0
 20 21  2  0
 21 22  1  0
 21  5  1  0
 18 12  1  0
  1 23  1  0
  6 24  1  0
  8 25  1  0
 13 26  1  0
 14 27  1  0
 17 28  1  0
 18 29  1  0
 19 30  1  0
 20 31  1  0
M  CHG  1   1  -1
M  END
>  <UniqueID>  (2) 
2

>  <SMILES>  (2) 
[NH-]S(=O)(=O)c1cc(NS(=O)(=O)c2ccc(Cl)cc2)ccc1F

>  <Energy>  (2) 
34.56185876458308

>  <Genealogy>  (2) 
[NH-]S(=O)(=O)c1cc(NS(=O)(=O)c2ccc(Cl)cc2)ccc1F (protonated)
[NH-]S(=O)(=O)c1cc(NS(=O)(=O)c2ccc(Cl)cc2)ccc1F (3D coordinates assigned)
[NH-]S(=O)(=O)c1cc(NS(=O)(=O)c2ccc(Cl)cc2)ccc1F (optimized conformer: 34.56185876458308 kcal/mol)

>  <smiles>  (2) 
NS(=O)(=O)c1cc(NS(=O)(=O)c2ccc(Cl)cc2)ccc1F

>  <score_type>  (2) 
oracle

>  <origin>  (2) 
adg

>  <m_score__min__energy>  (2) 
-12.140000000000001

>  <m_primary>  (2) 
energy

$$$$
2:0
     RDKit          3D

 49 52  0  0  0  0  0  0  0  0999 V2000
   51.2350   19.2200   47.4060 C   0  0  0  0  0  0  0  0  0  0  0  0
   52.7230   19.4100   47.3130 C   0  0  0  0  0  0  0  0  0  0  0  0
   53.4880   19.5630   48.4780 C   0  0  0  0  0  0  0  0  0  0  0  0
   54.8730   19.7010   48.3800 C   0  0  0  0  0  0  0  0  0  0  0  0
   55.4770   19.6800   47.1620 N   0  0  0  0  0  0  0  0  0  0  0  0
   54.7690   19.5320   46.0090 C   0  0  0  0  0  0  0  0  0  0  0  0
   55.5070   19.4760   44.7020 C   0  0  0  0  0  0  0  0  0  0  0  0
   56.2980   20.7340   44.5060 C   0  0  0  0  0  0  0  0  0  0  0  0
   56.3810   21.2370   43.3530 O   0  0  0  0  0  0  0  0  0  0  0  0
   56.9510   21.3570   45.6240 N   0  0  0  0  0  0  0  0  0  0  0  0
   57.3830   22.7270   45.6320 C   0  0  0  0  0  0  0  0  0  0  0  0
   58.7570   23.0140   45.5950 C   0  0  0  0  0  0  0  0  0  0  0  0
   59.2080   24.3350   45.6330 C   0  0  0  0  0  0  0  0  0  0  0  0
   58.2940   25.3870   45.7300 C   0  0  0  0  0  0  0  0  0  0  0  0
   58.7350   26.6700   45.7780 N   0  0  0  0  0  0  0  0  0  0  0  0
   57.8670   27.7130   45.8780 C   0  0  0  0  0  0  0  0  0  0  0  0
   58.3880   29.0970   45.9700 C   0  0  0  0  0  0  0  0  0  0  0  0
   59.4010   29.3600   46.9120 C   0  0  0  0  0  0  0  0  0  0  0  0
   59.9060   30.6490   47.0790 C   0  0  0  0  0  0  0  0  0  0  0  0
   59.4100   31.6970   46.3080 C   0  0  0  0  0  0  0  0  0  0  0  0
   58.4190   31.4570   45.3540 C   0  0  0  0  0  0  0  0  0  0  0  0
   57.9040   30.1630   45.1620 C   0  0  0  0  0  0  0  0  0  0  0  0
   56.7070   29.9240   43.8780 S   0  0  0  0  0  0  0  0  0  0  0  0
   55.1490   29.6020   44.5600 N   0  0  0  0  0  0  0  0  0  0  0  0
   57.1130   28.7560   43.0220 O   0  0  0  0  0  0  0  0  0  0  0  0
   56.6030   31.1630   43.0320 O   0  0  0  0  0  0  0  0  0  0  0  0
   56.5310   27.4680   45.9600 N   0  0  0  0  0  0  0  0  0  0  0  0
   56.0330   26.2060   45.9130 C   0  0  0  0  0  0  0  0  0  0  0  0
   54.7870   26.0320   45.9810 O   0  0  0  0  0  0  0  0  0  0  0  0
   56.9110   25.1160   45.7920 C   0  0  0  0  0  0  0  0  0  0  0  0
   56.4610   23.7840   45.7460 C   0  0  0  0  0  0  0  0  0  0  0  0
   53.3710   19.3820   46.0650 C   0  0  0  0  0  0  0  0  0  0  0  0
   52.6350   19.2010   44.8970 O   0  0  0  0  0  0  0  0  0  0  0  0
   50.9356   19.1818   48.4638 H   0  0  0  0  0  0  0  0  0  0  0  0
   50.7264   20.0605   46.9111 H   0  0  0  0  0  0  0  0  0  0  0  0
   50.9539   18.2787   46.9111 H   0  0  0  0  0  0  0  0  0  0  0  0
   52.9992   19.5742   49.4634 H   0  0  0  0  0  0  0  0  0  0  0  0
   55.4776   19.8271   49.2902 H   0  0  0  0  0  0  0  0  0  0  0  0
   56.1895   18.6133   44.7056 H   0  0  0  0  0  0  0  0  0  0  0  0
   54.7814   19.3740   43.8816 H   0  0  0  0  0  0  0  0  0  0  0  0
   57.1660   20.7680   46.4600 H   0  0  0  0  0  0  0  0  0  0  0  0
   59.4845   22.1910   45.5356 H   0  0  0  0  0  0  0  0  0  0  0  0
   60.2862   24.5479   45.5864 H   0  0  0  0  0  0  0  0  0  0  0  0
   59.7993   28.5376   47.5244 H   0  0  0  0  0  0  0  0  0  0  0  0
   60.6966   30.8380   47.8202 H   0  0  0  0  0  0  0  0  0  0  0  0
   59.7995   32.7158   46.4507 H   0  0  0  0  0  0  0  0  0  0  0  0
   58.0369   32.2900   44.7457 H   0  0  0  0  0  0  0  0  0  0  0  0
   55.1500   28.6020   44.8650 H   0  0  0  0  0  0  0  0  0  0  0  0
   55.3838   23.5677   45.7994 H   0  0  0  0  0  0  0  0  0  0  0  0
  1  2  1  0
  2  3  2  0
  3  4  1  0
  4  5  2  0
  5  6  1  0
  6  7  1  0
  7  8  1  0
  8  9  2  0
  8 10  1  0
 10 11  1  0
 11 12  2  0
 12 13  1  0
 13 14  2  0
 14 15  1  0
 15 16  2  0
 16 17  1  0
 17 18  2  0
 18 19  1  0
 19 20  2  0
 20 21  1  0
 21 22  2  0
 22 23  1  0
 23 24  1  0
 23 25  2  0
 23 26  2  0
 16 27  1  0
 27 28  1  0
 28 29  2  0
 28 30  1  0
 30 31  2  0
  6 32  2  0
 32 33  1  0
 32  2  1  0
 31 11  1  0
 30 14  1  0
 22 17  1  0
  1 34  1  0
  1 35  1  0
  1 36  1  0
  3 37  1  0
  4 38  1  0
  7 39  1  0
  7 40  1  0
 10 41  1  0
 12 42  1  0
 13 43  1  0
 18 44  1  0
 19 45  1  0
 20 46  1  0
 21 47  1  0
 24 48  1  0
 31 49  1  0
M  CHG  3  24  -1  27  -1  33  -1
M  END
>  <UniqueID>  (3) 
3

>  <SMILES>  (3) 
Cc1ccnc(CC(=O)Nc2ccc3nc(-c4ccccc4S([NH-])(=O)=O)[n-]c(=O)c3c2)c1[O-]

>  <Energy>  (3) 
67.55406492457814

>  <Genealogy>  (3) 
Cc1ccnc(CC(=O)Nc2ccc3nc(-c4ccccc4S([NH-])(=O)=O)[n-]c(=O)c3c2)c1[O-] (protonated)
Cc1ccnc(CC(=O)Nc2ccc3nc(-c4ccccc4S([NH-])(=O)=O)[n-]c(=O)c3c2)c1[O-] (3D coordinates assigned)
Cc1ccnc(CC(=O)Nc2ccc3nc(-c4ccccc4S([NH-])(=O)=O)[n-]c(=O)c3c2)c1[O-] (optimized conformer: 67.55406492457814 kcal/mol)

>  <smiles>  (3) 
Cc1ccnc(CC(=O)Nc2ccc3nc(-c4ccccc4S(N)(=O)=O)[nH]c(=O)c3c2)c1O

>  <score_type>  (3) 
oracle

>  <origin>  (3) 
adg

>  <m_score__min__energy>  (3) 
-14.27

>  <m_primary>  (3) 
energy

$$$$
3:0
     RDKit          3D

 43 44  0  0  0  0  0  0  0  0999 V2000
   60.1720   33.8830   46.4380 C   0  0  0  0  0  0  0  0  0  0  0  0
   61.4840   34.2500   46.8490 O   0  0  0  0  0  0  0  0  0  0  0  0
   62.2900   33.4170   47.6300 C   0  0  0  0  0  0  0  0  0  0  0  0
   63.2840   32.8360   47.1120 O   0  0  0  0  0  0  0  0  0  0  0  0
   62.0000   33.2690   49.0780 C   0  0  0  0  0  0  0  0  0  0  0  0
   62.7280   32.1920   49.8380 C   0  0  0  0  0  0  0  0  0  0  0  0
   61.0250   33.9570   49.7090 C   0  0  0  0  0  0  0  0  0  0  0  0
   59.8380   33.3550   50.3540 C   0  0  0  0  0  0  0  0  0  0  0  0
   59.1490   32.2850   49.7610 C   0  0  0  0  0  0  0  0  0  0  0  0
   58.0110   31.7510   50.3710 C   0  0  0  0  0  0  0  0  0  0  0  0
   57.5320   32.2890   51.5800 C   0  0  0  0  0  0  0  0  0  0  0  0
   56.3740   31.7510   52.2460 N   0  0  0  0  0  0  0  0  0  0  0  0
   55.9710   30.3440   52.1940 C   0  0  0  0  0  0  0  0  0  0  0  0
   54.4710   30.2170   52.2540 C   0  0  0  0  0  0  0  0  0  0  0  0
   53.8740   29.0520   52.7570 C   0  0  0  0  0  0  0  0  0  0  0  0
   52.4840   28.9420   52.8140 C   0  0  0  0  0  0  0  0  0  0  0  0
   51.6770   29.9890   52.3620 C   0  0  0  0  0  0  0  0  0  0  0  0
   52.2550   31.1610   51.8420 C   0  0  0  0  0  0  0  0  0  0  0  0
   51.3970   32.2700   51.3610 C   0  0  0  0  0  0  0  0  0  0  0  0
   50.9880   32.3300   49.9950 N   0  0  0  0  0  0  0  0  0  0  0  0
   51.0190   33.1740   52.1530 O   0  0  0  0  0  0  0  0  0  0  0  0
   53.6570   31.2630   51.7870 C   0  0  0  0  0  0  0  0  0  0  0  0
   58.2000   33.3870   52.1460 C   0  0  0  0  0  0  0  0  0  0  0  0
   59.3370   33.9210   51.5340 C   0  0  0  0  0  0  0  0  0  0  0  0
   59.5455   33.7077   47.3250 H   0  0  0  0  0  0  0  0  0  0  0  0
   59.7362   34.6937   45.8357 H   0  0  0  0  0  0  0  0  0  0  0  0
   60.2201   32.9638   45.8357 H   0  0  0  0  0  0  0  0  0  0  0  0
   62.6121   32.3634   50.9184 H   0  0  0  0  0  0  0  0  0  0  0  0
   62.3077   31.2100   49.5754 H   0  0  0  0  0  0  0  0  0  0  0  0
   63.7959   32.2159   49.5754 H   0  0  0  0  0  0  0  0  0  0  0  0
   61.1209   35.0522   49.7464 H   0  0  0  0  0  0  0  0  0  0  0  0
   59.5075   31.8643   48.8099 H   0  0  0  0  0  0  0  0  0  0  0  0
   57.4863   30.9049   49.9034 H   0  0  0  0  0  0  0  0  0  0  0  0
   55.8150   32.3840   52.8630 H   0  0  0  0  0  0  0  0  0  0  0  0
   56.3338   29.8989   51.2558 H   0  0  0  0  0  0  0  0  0  0  0  0
   56.4051   29.8197   53.0581 H   0  0  0  0  0  0  0  0  0  0  0  0
   54.5040   28.2214   53.1081 H   0  0  0  0  0  0  0  0  0  0  0  0
   52.0223   28.0281   53.2161 H   0  0  0  0  0  0  0  0  0  0  0  0
   50.5821   29.8961   52.4132 H   0  0  0  0  0  0  0  0  0  0  0  0
   49.9770   32.3090   49.7360 H   0  0  0  0  0  0  0  0  0  0  0  0
   54.1209   32.1709   51.3742 H   0  0  0  0  0  0  0  0  0  0  0  0
   57.8246   33.8308   53.0799 H   0  0  0  0  0  0  0  0  0  0  0  0
   59.8415   34.7903   51.9809 H   0  0  0  0  0  0  0  0  0  0  0  0
  1  2  1  0
  2  3  1  0
  3  4  2  0
  3  5  1  0
  5  6  1  0
  5  7  2  3
  7  8  1  0
  8  9  2  0
  9 10  1  0
 10 11  2  0
 11 12  1  0
 12 13  1  0
 13 14  1  0
 14 15  2  0
 15 16  1  0
 16 17  2  0
 17 18  1  0
 18 19  1  0
 19 20  1  0
 19 21  2  0
 18 22  2  0
 11 23  1  0
 23 24  2  0
 24  8  1  0
 22 14  1  0
  1 25  1  0
  1 26  1  0
  1 27  1  0
  6 28  1  0
  6 29  1  0
  6 30  1  0
  7 31  1  0
  9 32  1  0
 10 33  1  0
 12 34  1  0
 13 35  1  0
 13 36  1  0
 15 37  1  0
 16 38  1  0
 17 39  1  0
 20 40  1  0
 22 41  1  0
 23 42  1  0
 24 43  1  0
M  CHG  1  20  -1
M  END
>  <UniqueID>  (4) 
4

>  <SMILES>  (4) 
COC(=O)C(C)=Cc1ccc(NCc2cccc(C([NH-])=O)c2)cc1

>  <Energy>  (4) 
48.08075846015406

>  <Genealogy>  (4) 
COC(=O)C(C)=Cc1ccc(NCc2cccc(C([NH-])=O)c2)cc1 (protonated)
COC(=O)C(C)=Cc1ccc(NCc2cccc(C([NH-])=O)c2)cc1 (3D coordinates assigned)
COC(=O)C(C)=Cc1ccc(NCc2cccc(C([NH-])=O)c2)cc1 (optimized conformer: 48.08075846015406 kcal/mol)

>  <smiles>  (4) 
COC(=O)C(C)=Cc1ccc(NCc2cccc(C(N)=O)c2)cc1

>  <score_type>  (4) 
oracle

>  <origin>  (4) 
adg

>  <m_score__min__energy>  (4) 
-10.77

>  <m_primary>  (4) 
energy

$$$$
4:0
     RDKit          3D

 42 46  0  0  0  0  0  0  0  0999 V2000
   57.9610   26.4850   42.3320 O   0  0  0  0  0  0  0  0  0  0  0  0
   58.4560   26.7250   43.4510 N   0  0  0  0  0  0  0  0  0  0  0  0
   57.7720   26.4060   44.6660 C   0  0  0  0  0  0  0  0  0  0  0  0
   57.1820   27.3230   45.5330 C   0  0  0  0  0  0  0  0  0  0  0  0
   57.0940   28.7820   45.3320 C   0  0  0  0  0  0  0  0  0  0  0  0
   56.0020   29.5100   44.8670 C   0  0  0  0  0  0  0  0  0  0  0  0
   54.7780   28.9730   44.4900 O   0  0  0  0  0  0  0  0  0  0  0  0
   56.2610   30.8360   44.8580 N   0  0  0  0  0  0  0  0  0  0  0  0
   57.5160   30.9590   45.3240 C   0  0  0  0  0  0  0  0  0  0  0  0
   58.2380   32.1380   45.4920 C   0  0  0  0  0  0  0  0  0  0  0  0
   59.5520   32.0410   45.9820 C   0  0  0  0  0  0  0  0  0  0  0  0
   60.1190   30.7840   46.2940 C   0  0  0  0  0  0  0  0  0  0  0  0
   61.4410   30.7410   46.7610 O   0  0  0  0  0  0  0  0  0  0  0  0
   62.0820   31.7590   47.4830 C   0  0  0  0  0  0  0  0  0  0  0  0
   61.4360   32.4570   48.5210 C   0  0  0  0  0  0  0  0  0  0  0  0
   62.1070   33.4710   49.2110 C   0  0  0  0  0  0  0  0  0  0  0  0
   63.4170   33.8060   48.8620 C   0  0  0  0  0  0  0  0  0  0  0  0
   64.0560   33.1320   47.8180 C   0  0  0  0  0  0  0  0  0  0  0  0
   63.3890   32.1170   47.1260 C   0  0  0  0  0  0  0  0  0  0  0  0
   59.3660   29.6050   46.0890 C   0  0  0  0  0  0  0  0  0  0  0  0
   58.0560   29.7330   45.6250 C   0  0  0  0  0  0  0  0  0  0  0  0
   56.6850   26.6830   46.6180 N   0  0  0  0  0  0  0  0  0  0  0  0
   56.9580   25.3780   46.4420 C   0  0  0  0  0  0  0  0  0  0  0  0
   56.6390   24.3320   47.3050 C   0  0  0  0  0  0  0  0  0  0  0  0
   57.0250   23.0320   46.9340 C   0  0  0  0  0  0  0  0  0  0  0  0
   57.7150   22.8080   45.7230 C   0  0  0  0  0  0  0  0  0  0  0  0
   58.0240   23.8820   44.8680 C   0  0  0  0  0  0  0  0  0  0  0  0
   57.6260   25.1630   45.2590 C   0  0  0  0  0  0  0  0  0  0  0  0
   55.6150   31.6020   44.5610 H   0  0  0  0  0  0  0  0  0  0  0  0
   57.7939   33.1146   45.2489 H   0  0  0  0  0  0  0  0  0  0  0  0
   60.1469   32.9552   46.1246 H   0  0  0  0  0  0  0  0  0  0  0  0
   60.3999   32.2037   48.7900 H   0  0  0  0  0  0  0  0  0  0  0  0
   61.6026   34.0054   50.0295 H   0  0  0  0  0  0  0  0  0  0  0  0
   63.9459   34.6005   49.4089 H   0  0  0  0  0  0  0  0  0  0  0  0
   65.0859   33.4007   47.5402 H   0  0  0  0  0  0  0  0  0  0  0  0
   63.8923   31.5970   46.2976 H   0  0  0  0  0  0  0  0  0  0  0  0
   59.8005   28.6146   46.2896 H   0  0  0  0  0  0  0  0  0  0  0  0
   56.1670   27.1080   47.4210 H   0  0  0  0  0  0  0  0  0  0  0  0
   56.1020   24.5173   48.2470 H   0  0  0  0  0  0  0  0  0  0  0  0
   56.7876   22.1832   47.5922 H   0  0  0  0  0  0  0  0  0  0  0  0
   58.0133   21.7862   45.4457 H   0  0  0  0  0  0  0  0  0  0  0  0
   58.5615   23.7184   43.9223 H   0  0  0  0  0  0  0  0  0  0  0  0
  1  2  2  0
  2  3  1  0
  3  4  2  0
  4  5  1  0
  5  6  2  0
  6  7  1  0
  6  8  1  0
  8  9  1  0
  9 10  2  0
 10 11  1  0
 11 12  2  0
 12 13  1  0
 13 14  1  0
 14 15  2  0
 15 16  1  0
 16 17  2  0
 17 18  1  0
 18 19  2  0
 12 20  1  0
 20 21  2  0
  4 22  1  0
 22 23  1  0
 23 24  2  0
 24 25  1  0
 25 26  2  0
 26 27  1  0
 27 28  2  0
 28  3  1  0
 21  5  1  0
 28 23  1  0
 21  9  1  0
 19 14  1  0
  8 29  1  0
 10 30  1  0
 11 31  1  0
 15 32  1  0
 16 33  1  0
 17 34  1  0
 18 35  1  0
 19 36  1  0
 20 37  1  0
 22 38  1  0
 24 39  1  0
 25 40  1  0
 26 41  1  0
 27 42  1  0
M  CHG  1   7  -1
M  END
>  <UniqueID>  (5) 
5

>  <SMILES>  (5) 
O=Nc1c(-c2c([O-])[nH]c3ccc(Oc4ccccc4)cc23)[nH]c2ccccc12

>  <Energy>  (5) 
128.49006709616467

>  <Genealogy>  (5) 
O=Nc1c(-c2c([O-])[nH]c3ccc(Oc4ccccc4)cc23)[nH]c2ccccc12 (protonated)
O=Nc1c(-c2c([O-])[nH]c3ccc(Oc4ccccc4)cc23)[nH]c2ccccc12 (3D coordinates assigned)
O=Nc1c(-c2c([O-])[nH]c3ccc(Oc4ccccc4)cc23)[nH]c2ccccc12 (optimized conformer: 128.49006709616467 kcal/mol)

>  <smiles>  (5) 
O=Nc1c(-c2c(O)[nH]c3ccc(Oc4ccccc4)cc23)[nH]c2ccccc12

>  <score_type>  (5) 
oracle

>  <origin>  (5) 
adg

>  <m_score__min__energy>  (5) 
-11.449999999999999

>  <m_primary>  (5) 
energy

$$$$
5:0
     RDKit          3D

 46 48  0  0  0  0  0  0  0  0999 V2000
   57.0430   34.2540   44.8650 C   0  0  0  0  0  0  0  0  0  0  0  0
   57.7980   33.3150   45.7590 C   0  0  0  0  0  0  0  0  0  0  0  0
   57.7380   33.4630   47.1530 C   0  0  0  0  0  0  0  0  0  0  0  0
   58.4120   32.5650   47.9850 C   0  0  0  0  0  0  0  0  0  0  0  0
   59.1400   31.5080   47.4340 C   0  0  0  0  0  0  0  0  0  0  0  0
   59.1940   31.3390   46.0390 C   0  0  0  0  0  0  0  0  0  0  0  0
   59.9230   30.2620   45.4400 N   0  0  0  0  0  0  0  0  0  0  0  0
   59.3410   29.2870   44.8630 N   0  0  0  0  0  0  0  0  0  0  0  0
   58.6460   28.2590   45.5850 C   0  0  0  0  0  0  0  0  0  0  0  0
   59.4060   27.4550   46.4430 C   0  0  0  0  0  0  0  0  0  0  0  0
   58.8280   26.3780   47.1110 C   0  0  0  0  0  0  0  0  0  0  0  0
   57.4740   26.0950   46.9430 C   0  0  0  0  0  0  0  0  0  0  0  0
   56.9220   24.9970   47.5940 O   0  0  0  0  0  0  0  0  0  0  0  0
   56.6780   26.9100   46.1250 C   0  0  0  0  0  0  0  0  0  0  0  0
   55.2750   26.6480   46.0190 N   0  0  0  0  0  0  0  0  0  0  0  0
   54.6850   25.0780   45.5920 S   0  0  0  0  0  0  0  0  0  0  0  0
   53.2240   25.1570   45.2460 O   0  0  0  0  0  0  0  0  0  0  0  0
   54.8670   24.1540   46.7640 O   0  0  0  0  0  0  0  0  0  0  0  0
   55.6180   24.4550   44.2010 C   0  0  0  0  0  0  0  0  0  0  0  0
   56.6160   23.4290   44.6560 C   0  0  0  0  0  0  0  0  0  0  0  0
   57.9810   23.7530   44.7350 C   0  0  0  0  0  0  0  0  0  0  0  0
   58.9120   22.7890   45.1330 C   0  0  0  0  0  0  0  0  0  0  0  0
   58.4890   21.4940   45.4490 C   0  0  0  0  0  0  0  0  0  0  0  0
   57.1340   21.1600   45.3620 C   0  0  0  0  0  0  0  0  0  0  0  0
   56.1990   22.1220   44.9630 C   0  0  0  0  0  0  0  0  0  0  0  0
   57.2530   28.0090   45.4420 C   0  0  0  0  0  0  0  0  0  0  0  0
   56.3770   28.9280   44.6810 C   0  0  0  0  0  0  0  0  0  0  0  0
   56.7250   29.3490   43.5470 O   0  0  0  0  0  0  0  0  0  0  0  0
   55.1410   29.3030   45.1950 O   0  0  0  0  0  0  0  0  0  0  0  0
   58.5160   32.2410   45.2090 C   0  0  0  0  0  0  0  0  0  0  0  0
   56.4713   34.9651   45.4794 H   0  0  0  0  0  0  0  0  0  0  0  0
   57.7520   34.8055   44.2301 H   0  0  0  0  0  0  0  0  0  0  0  0
   56.3521   33.6799   44.2301 H   0  0  0  0  0  0  0  0  0  0  0  0
   57.1586   34.2884   47.5923 H   0  0  0  0  0  0  0  0  0  0  0  0
   58.3691   32.6909   49.0769 H   0  0  0  0  0  0  0  0  0  0  0  0
   59.6723   30.8061   48.0928 H   0  0  0  0  0  0  0  0  0  0  0  0
   60.4732   27.6767   46.5915 H   0  0  0  0  0  0  0  0  0  0  0  0
   59.4419   25.7494   47.7728 H   0  0  0  0  0  0  0  0  0  0  0  0
   54.9278   23.9938   43.4792 H   0  0  0  0  0  0  0  0  0  0  0  0
   56.1558   25.2908   43.7296 H   0  0  0  0  0  0  0  0  0  0  0  0
   58.3184   24.7691   44.4827 H   0  0  0  0  0  0  0  0  0  0  0  0
   59.9788   23.0495   45.1977 H   0  0  0  0  0  0  0  0  0  0  0  0
   59.2224   20.7380   45.7661 H   0  0  0  0  0  0  0  0  0  0  0  0
   56.8026   20.1402   45.6074 H   0  0  0  0  0  0  0  0  0  0  0  0
   55.1345   21.8546   44.8894 H   0  0  0  0  0  0  0  0  0  0  0  0
   58.5463   32.1069   44.1176 H   0  0  0  0  0  0  0  0  0  0  0  0
  1  2  1  0
  2  3  2  0
  3  4  1  0
  4  5  2  0
  5  6  1  0
  6  7  1  0
  7  8  2  3
  8  9  1  0
  9 10  2  0
 10 11  1  0
 11 12  2  0
 12 13  1  0
 12 14  1  0
 14 15  1  0
 15 16  1  0
 16 17  2  0
 16 18  2  0
 16 19  1  0
 19 20  1  0
 20 21  2  0
 21 22  1  0
 22 23  2  0
 23 24  1  0
 24 25  2  0
 14 26  2  0
 26 27  1  0
 27 28  2  0
 27 29  1  0
  6 30  2  0
 30  2  1  0
 26  9  1  0
 25 20  1  0
  1 31  1  0
  1 32  1  0
  1 33  1  0
  3 34  1  0
  4 35  1  0
  5 36  1  0
 10 37  1  0
 11 38  1  0
 19 39  1  0
 19 40  1  0
 21 41  1  0
 22 42  1  0
 23 43  1  0
 24 44  1  0
 25 45  1  0
 30 46  1  0
M  CHG  3  13  -1  15  -1  29  -1
M  END
>  <UniqueID>  (6) 
6

>  <SMILES>  (6) 
Cc1cccc(N=Nc2ccc([O-])c([N-]S(=O)(=O)Cc3ccccc3)c2C(=O)[O-])c1

>  <Energy>  (6) 
62.5241621793357

>  <Genealogy>  (6) 
Cc1cccc(N=Nc2ccc([O-])c([N-]S(=O)(=O)Cc3ccccc3)c2C(=O)[O-])c1 (protonated)
Cc1cccc(N=Nc2ccc([O-])c([N-]S(=O)(=O)Cc3ccccc3)c2C(=O)[O-])c1 (3D coordinates assigned)
Cc1cccc(N=Nc2ccc([O-])c([N-]S(=O)(=O)Cc3ccccc3)c2C(=O)[O-])c1 (optimized conformer: 62.5241621793357 kcal/mol)

>  <smiles>  (6) 
Cc1cccc(N=Nc2ccc(O)c(NS(=O)(=O)Cc3ccccc3)c2C(=O)O)c1

>  <score_type>  (6) 
oracle

>  <origin>  (6) 
adg

>  <m_score__min__energy>  (6) 
-15.51

>  <m_primary>  (6) 
energy

$$$$
6:0
     RDKit          3D

 45 47  0  0  0  0  0  0  0  0999 V2000
   56.0850   25.8530   46.0270 C   0  0  0  0  0  0  0  0  0  0  0  0
   56.3900   27.2410   45.9600 O   0  0  0  0  0  0  0  0  0  0  0  0
   57.6790   27.7670   45.7820 C   0  0  0  0  0  0  0  0  0  0  0  0
   58.8140   27.1340   46.3290 C   0  0  0  0  0  0  0  0  0  0  0  0
   60.0870   27.6760   46.1420 C   0  0  0  0  0  0  0  0  0  0  0  0
   60.2460   28.8540   45.4120 C   0  0  0  0  0  0  0  0  0  0  0  0
   59.1330   29.4920   44.8660 C   0  0  0  0  0  0  0  0  0  0  0  0
   57.8470   28.9600   45.0430 C   0  0  0  0  0  0  0  0  0  0  0  0
   56.4780   29.8460   44.3600 S   0  0  0  0  0  0  0  0  0  0  0  0
   56.5120   29.7060   42.8650 O   0  0  0  0  0  0  0  0  0  0  0  0
   55.1590   29.3230   44.8570 O   0  0  0  0  0  0  0  0  0  0  0  0
   56.6090   31.5240   44.7730 N   0  0  0  0  0  0  0  0  0  0  0  0
   57.6460   32.3860   44.2910 C   0  0  0  0  0  0  0  0  0  0  0  0
   57.8900   32.4240   43.0560 O   0  0  0  0  0  0  0  0  0  0  0  0
   58.4270   33.2350   45.2020 C   0  0  0  0  0  0  0  0  0  0  0  0
   58.7770   34.5370   44.8250 C   0  0  0  0  0  0  0  0  0  0  0  0
   59.5450   35.3320   45.6790 C   0  0  0  0  0  0  0  0  0  0  0  0
   59.9510   34.8370   46.9200 C   0  0  0  0  0  0  0  0  0  0  0  0
   59.5850   33.5420   47.3200 C   0  0  0  0  0  0  0  0  0  0  0  0
   60.0310   33.0050   48.6510 C   0  0  0  0  0  0  0  0  0  0  0  0
   61.5320   33.0300   48.7540 C   0  0  0  0  0  0  0  0  0  0  0  0
   62.3200   32.4460   47.7480 C   0  0  0  0  0  0  0  0  0  0  0  0
   63.7160   32.4740   47.8400 C   0  0  0  0  0  0  0  0  0  0  0  0
   64.3330   33.0870   48.9330 C   0  0  0  0  0  0  0  0  0  0  0  0
   63.5580   33.6830   49.9320 C   0  0  0  0  0  0  0  0  0  0  0  0
   62.1620   33.6630   49.8390 C   0  0  0  0  0  0  0  0  0  0  0  0
   58.8280   32.7410   46.4490 C   0  0  0  0  0  0  0  0  0  0  0  0
   56.0169   25.5430   47.0802 H   0  0  0  0  0  0  0  0  0  0  0  0
   55.1239   25.6642   45.5263 H   0  0  0  0  0  0  0  0  0  0  0  0
   56.8784   25.2787   45.5263 H   0  0  0  0  0  0  0  0  0  0  0  0
   58.6956   26.2060   46.9075 H   0  0  0  0  0  0  0  0  0  0  0  0
   60.9662   27.1732   46.5711 H   0  0  0  0  0  0  0  0  0  0  0  0
   61.2499   29.2797   45.2671 H   0  0  0  0  0  0  0  0  0  0  0  0
   59.2644   30.4207   44.2914 H   0  0  0  0  0  0  0  0  0  0  0  0
   58.4465   34.9348   43.8542 H   0  0  0  0  0  0  0  0  0  0  0  0
   59.8304   36.3495   45.3735 H   0  0  0  0  0  0  0  0  0  0  0  0
   60.5603   35.4645   47.5871 H   0  0  0  0  0  0  0  0  0  0  0  0
   59.6029   33.6244   49.4529 H   0  0  0  0  0  0  0  0  0  0  0  0
   59.6853   31.9653   48.7488 H   0  0  0  0  0  0  0  0  0  0  0  0
   61.8375   31.9648   46.8845 H   0  0  0  0  0  0  0  0  0  0  0  0
   64.3281   32.0129   47.0509 H   0  0  0  0  0  0  0  0  0  0  0  0
   65.4304   33.1007   49.0077 H   0  0  0  0  0  0  0  0  0  0  0  0
   64.0454   34.1675   50.7909 H   0  0  0  0  0  0  0  0  0  0  0  0
   61.5546   34.1452   50.6191 H   0  0  0  0  0  0  0  0  0  0  0  0
   58.5488   31.7200   46.7484 H   0  0  0  0  0  0  0  0  0  0  0  0
  1  2  1  0
  2  3  1  0
  3  4  2  0
  4  5  1  0
  5  6  2  0
  6  7  1  0
  7  8  2  0
  8  9  1  0
  9 10  2  0
  9 11  2  0
  9 12  1  0
 12 13  1  0
 13 14  2  0
 13 15  1  0
 15 16  2  0
 16 17  1  0
 17 18  2  0
 18 19  1  0
 19 20  1  0
 20 21  1  0
 21 22  2  0
 22 23  1  0
 23 24  2  0
 24 25  1  0
 25 26  2  0
 19 27  2  0
  8  3  1  0
 27 15  1  0
 26 21  1  0
  1 28  1  0
  1 29  1  0
  1 30  1  0
  4 31  1  0
  5 32  1  0
  6 33  1  0
  7 34  1  0
 16 35  1  0
 17 36  1  0
 18 37  1  0
 20 38  1  0
 20 39  1  0
 22 40  1  0
 23 41  1  0
 24 42  1  0
 25 43  1  0
 26 44  1  0
 27 45  1  0
M  CHG  1  12  -1
M  END
>  <UniqueID>  (7) 
7

>  <SMILES>  (7) 
COc1ccccc1S(=O)(=O)[N-]C(=O)c1cccc(Cc2ccccc2)c1

>  <Energy>  (7) 
50.84506939607468

>  <Genealogy>  (7) 
COc1ccccc1S(=O)(=O)[N-]C(=O)c1cccc(Cc2ccccc2)c1 (protonated)
COc1ccccc1S(=O)(=O)[N-]C(=O)c1cccc(Cc2ccccc2)c1 (3D coordinates assigned)
COc1ccccc1S(=O)(=O)[N-]C(=O)c1cccc(Cc2ccccc2)c1 (optimized conformer: 50.84506939607468 kcal/mol)

>  <smiles>  (7) 
COc1ccccc1S(=O)(=O)NC(=O)c1cccc(Cc2ccccc2)c1

>  <score_type>  (7) 
oracle

>  <origin>  (7) 
adg

>  <m_score__min__energy>  (7) 
-11.58

>  <m_primary>  (7) 
energy

$$$$
7:0
     RDKit          3D

 37 39  0  0  0  0  0  0  0  0999 V2000
   55.9570   24.8910   47.1190 O   0  0  0  0  0  0  0  0  0  0  0  0
   56.1960   25.8840   46.3840 C   0  0  0  0  0  0  0  0  0  0  0  0
   55.1550   26.7160   45.9910 O   0  0  0  0  0  0  0  0  0  0  0  0
   57.5970   26.1740   45.9380 C   0  0  0  0  0  0  0  0  0  0  0  0
   57.6510   27.3000   44.8900 C   0  0  0  0  0  0  0  0  0  0  0  0
   58.4010   28.5680   45.3670 C   0  0  0  0  0  0  0  0  0  0  0  0
   57.4850   29.7690   45.2660 C   0  0  0  0  0  0  0  0  0  0  0  0
   57.8070   31.0600   45.0340 C   0  0  0  0  0  0  0  0  0  0  0  0
   57.7020   31.6330   43.6460 C   0  0  0  0  0  0  0  0  0  0  0  0
   58.1810   33.0390   43.8100 C   0  0  0  0  0  0  0  0  0  0  0  0
   58.5170   33.2960   45.0640 C   0  0  0  0  0  0  0  0  0  0  0  0
   59.0220   34.5700   45.5910 C   0  0  0  0  0  0  0  0  0  0  0  0
   59.1730   35.5630   44.8300 O   0  0  0  0  0  0  0  0  0  0  0  0
   59.3700   34.6880   47.0500 C   0  0  0  0  0  0  0  0  0  0  0  0
   59.0760   33.4350   47.8480 C   0  0  0  0  0  0  0  0  0  0  0  0
   59.2810   33.4490   49.0900 O   0  0  0  0  0  0  0  0  0  0  0  0
   58.5700   32.1910   47.2240 C   0  0  0  0  0  0  0  0  0  0  0  0
   58.3180   32.1400   45.9100 C   0  0  0  0  0  0  0  0  0  0  0  0
   58.8640   28.4310   46.6920 O   0  0  0  0  0  0  0  0  0  0  0  0
   60.1500   28.9600   46.7040 C   0  0  0  0  0  0  0  0  0  0  0  0
   60.6260   28.9150   45.2850 C   0  0  0  0  0  0  0  0  0  0  0  0
   59.4910   28.7810   44.4880 O   0  0  0  0  0  0  0  0  0  0  0  0
   58.1923   26.4750   46.8127 H   0  0  0  0  0  0  0  0  0  0  0  0
   58.0002   25.2613   45.4749 H   0  0  0  0  0  0  0  0  0  0  0  0
   58.1587   26.9143   43.9936 H   0  0  0  0  0  0  0  0  0  0  0  0
   56.6116   27.6005   44.6914 H   0  0  0  0  0  0  0  0  0  0  0  0
   56.4128   29.5625   45.3995 H   0  0  0  0  0  0  0  0  0  0  0  0
   58.3418   31.0794   42.9430 H   0  0  0  0  0  0  0  0  0  0  0  0
   56.6836   31.5733   43.2345 H   0  0  0  0  0  0  0  0  0  0  0  0
   58.2462   33.7696   42.9902 H   0  0  0  0  0  0  0  0  0  0  0  0
   60.4442   34.9096   47.1342 H   0  0  0  0  0  0  0  0  0  0  0  0
   58.7428   35.4898   47.4668 H   0  0  0  0  0  0  0  0  0  0  0  0
   58.3995   31.3000   47.8462 H   0  0  0  0  0  0  0  0  0  0  0  0
   60.1335   29.9975   47.0692 H   0  0  0  0  0  0  0  0  0  0  0  0
   60.8144   28.3909   47.3709 H   0  0  0  0  0  0  0  0  0  0  0  0
   61.1586   29.8441   45.0338 H   0  0  0  0  0  0  0  0  0  0  0  0
   61.3226   28.0785   45.1268 H   0  0  0  0  0  0  0  0  0  0  0  0
  1  2  2  0
  2  3  1  0
  2  4  1  0
  4  5  1  0
  5  6  1  0
  6  7  1  0
  7  8  2  3
  8  9  1  0
  9 10  1  0
 10 11  2  0
 11 12  1  0
 12 13  2  0
 12 14  1  0
 14 15  1  0
 15 16  2  0
 15 17  1  0
 17 18  2  0
  6 19  1  0
 19 20  1  0
 20 21  1  0
 21 22  1  0
 22  6  1  0
 18  8  1  0
 18 11  1  0
  4 23  1  0
  4 24  1  0
  5 25  1  0
  5 26  1  0
  7 27  1  0
  9 28  1  0
  9 29  1  0
 10 30  1  0
 14 31  1  0
 14 32  1  0
 17 33  1  0
 20 34  1  0
 20 35  1  0
 21 36  1  0
 21 37  1  0
M  CHG  1   3  -1
M  END
>  <UniqueID>  (8) 
8

>  <SMILES>  (8) 
O=C([O-])CCC1(C=C2CC=C3C(=O)CC(=O)C=C23)OCCO1

>  <Energy>  (8) 
54.267423703959885

>  <Genealogy>  (8) 
O=C([O-])CCC1(C=C2CC=C3C(=O)CC(=O)C=C23)OCCO1 (protonated)
O=C([O-])CCC1(C=C2CC=C3C(=O)CC(=O)C=C23)OCCO1 (3D coordinates assigned)
O=C([O-])CCC1(C=C2CC=C3C(=O)CC(=O)C=C23)OCCO1 (nonaromatic ring conformer: 54.267423703959885 kcal/mol)

>  <smiles>  (8) 
O=C(O)CCC1(C=C2CC=C3C(=O)CC(=O)C=C23)OCCO1

>  <score_type>  (8) 
oracle

>  <origin>  (8) 
adg

>  <m_score__min__energy>  (8) 
-11.4

>  <m_primary>  (8) 
energy

$$$$
8:0
     RDKit          3D

 63 67  0  0  0  0  0  0  0  0999 V2000
   60.2640   29.1640   45.6130 O   0  0  0  0  0  0  0  0  0  0  0  0
   59.0290   28.8910   45.5870 C   0  0  0  0  0  0  0  0  0  0  0  0
   58.5140   27.8450   44.6340 C   0  0  0  0  0  0  0  0  0  0  0  0
   57.5570   26.9050   45.3070 C   0  0  0  0  0  0  0  0  0  0  0  0
   57.9360   25.3630   45.8830 S   0  0  0  0  0  0  0  0  0  0  0  0
   56.4000   25.1240   46.5280 C   0  0  0  0  0  0  0  0  0  0  0  0
   55.9780   23.9580   47.2430 N   0  0  0  0  0  0  0  0  0  0  0  0
   54.6920   23.3100   47.0400 C   0  0  0  0  0  0  0  0  0  0  0  0
   54.6760   22.1220   47.9950 C   0  0  0  0  0  0  0  0  0  0  0  0
   55.8860   22.2920   48.9280 C   0  0  0  0  0  0  0  0  0  0  0  0
   56.7700   23.3610   48.3020 C   0  0  0  0  0  0  0  0  0  0  0  0
   55.5880   26.1890   46.3100 N   0  0  0  0  0  0  0  0  0  0  0  0
   56.2250   27.1700   45.6220 C   0  0  0  0  0  0  0  0  0  0  0  0
   55.5770   28.3480   45.2620 O   0  0  0  0  0  0  0  0  0  0  0  0
   58.1340   29.5220   46.5210 N   0  0  0  0  0  0  0  0  0  0  0  0
   58.6170   30.3680   47.5770 C   0  0  0  0  0  0  0  0  0  0  0  0
   58.5230   29.9190   48.8990 C   0  0  0  0  0  0  0  0  0  0  0  0
   58.8720   30.7650   49.9610 C   0  0  0  0  0  0  0  0  0  0  0  0
   58.7480   30.2090   51.6270 S   0  0  0  0  0  0  0  0  0  0  0  0
   59.6630   29.0270   51.8070 O   0  0  0  0  0  0  0  0  0  0  0  0
   59.1800   31.2980   52.5730 O   0  0  0  0  0  0  0  0  0  0  0  0
   57.1000   29.7370   51.9610 N   0  0  0  0  0  0  0  0  0  0  0  0
   56.2270   30.9280   51.9570 C   0  0  0  0  0  0  0  0  0  0  0  0
   54.8320   30.5860   52.5170 C   0  0  0  0  0  0  0  0  0  0  0  0
   54.6490   29.1850   52.6070 O   0  0  0  0  0  0  0  0  0  0  0  0
   55.5670   28.6300   53.5400 C   0  0  0  0  0  0  0  0  0  0  0  0
   57.0230   29.0620   53.2630 C   0  0  0  0  0  0  0  0  0  0  0  0
   59.3320   32.0600   49.6970 C   0  0  0  0  0  0  0  0  0  0  0  0
   59.4580   32.5060   48.3810 C   0  0  0  0  0  0  0  0  0  0  0  0
   59.1310   31.6630   47.3130 C   0  0  0  0  0  0  0  0  0  0  0  0
   59.3150   32.1430   46.0110 O   0  0  0  0  0  0  0  0  0  0  0  0
   58.3170   32.7780   45.2620 C   0  0  0  0  0  0  0  0  0  0  0  0
   57.9140   33.9280   45.5900 O   0  0  0  0  0  0  0  0  0  0  0  0
   57.7320   32.0990   44.0920 C   0  0  0  0  0  0  0  0  0  0  0  0
   57.9700   32.4980   42.7610 C   0  0  0  0  0  0  0  0  0  0  0  0
   57.3930   31.6540   41.8240 C   0  0  0  0  0  0  0  0  0  0  0  0
   56.5730   30.4350   42.6480 S   0  0  0  0  0  0  0  0  0  0  0  0
   56.9420   30.9580   44.1980 C   0  0  0  0  0  0  0  0  0  0  0  0
   57.9970   28.3446   43.8015 H   0  0  0  0  0  0  0  0  0  0  0  0
   59.3716   27.2597   44.2706 H   0  0  0  0  0  0  0  0  0  0  0  0
   53.8712   24.0033   47.2759 H   0  0  0  0  0  0  0  0  0  0  0  0
   54.5560   22.9940   45.9952 H   0  0  0  0  0  0  0  0  0  0  0  0
   53.7440   22.1172   48.5792 H   0  0  0  0  0  0  0  0  0  0  0  0
   54.7294   21.1706   47.4455 H   0  0  0  0  0  0  0  0  0  0  0  0
   55.5534   22.6113   49.9267 H   0  0  0  0  0  0  0  0  0  0  0  0
   56.4322   21.3445   49.0465 H   0  0  0  0  0  0  0  0  0  0  0  0
   57.0425   24.1195   49.0506 H   0  0  0  0  0  0  0  0  0  0  0  0
   57.7080   22.9357   47.9156 H   0  0  0  0  0  0  0  0  0  0  0  0
   57.1170   29.5680   46.2800 H   0  0  0  0  0  0  0  0  0  0  0  0
   58.1734   28.8968   49.1060 H   0  0  0  0  0  0  0  0  0  0  0  0
   56.6833   31.7117   52.5795 H   0  0  0  0  0  0  0  0  0  0  0  0
   56.1145   31.2793   50.9207 H   0  0  0  0  0  0  0  0  0  0  0  0
   54.7292   31.0270   53.5195 H   0  0  0  0  0  0  0  0  0  0  0  0
   54.0717   30.9949   51.8353 H   0  0  0  0  0  0  0  0  0  0  0  0
   55.2867   28.9613   54.5508 H   0  0  0  0  0  0  0  0  0  0  0  0
   55.5190   27.5351   53.4462 H   0  0  0  0  0  0  0  0  0  0  0  0
   57.3563   29.7515   54.0526 H   0  0  0  0  0  0  0  0  0  0  0  0
   57.6707   28.1730   53.2512 H   0  0  0  0  0  0  0  0  0  0  0  0
   59.5952   32.7286   50.5299 H   0  0  0  0  0  0  0  0  0  0  0  0
   59.8166   33.5266   48.1817 H   0  0  0  0  0  0  0  0  0  0  0  0
   58.5551   33.3899   42.4924 H   0  0  0  0  0  0  0  0  0  0  0  0
   57.4594   31.7620   40.7313 H   0  0  0  0  0  0  0  0  0  0  0  0
   56.6165   30.4823   45.1349 H   0  0  0  0  0  0  0  0  0  0  0  0
  1  2  2  0
  2  3  1  0
  3  4  1  0
  4  5  1  0
  5  6  1  0
  6  7  1  0
  7  8  1  0
  8  9  1  0
  9 10  1  0
 10 11  1  0
  6 12  2  0
 12 13  1  0
 13 14  1  0
  2 15  1  0
 15 16  1  0
 16 17  2  0
 17 18  1  0
 18 19  1  0
 19 20  2  0
 19 21  2  0
 19 22  1  0
 22 23  1  0
 23 24  1  0
 24 25  1  0
 25 26  1  0
 26 27  1  0
 18 28  2  0
 28 29  1  0
 29 30  2  0
 30 31  1  0
 31 32  1  0
 32 33  2  0
 32 34  1  0
 34 35  1  0
 35 36  2  0
 36 37  1  0
 37 38  1  0
 13  4  2  0
 30 16  1  0
 38 34  2  0
 11  7  1  0
 27 22  1  0
  3 39  1  0
  3 40  1  0
  8 41  1  0
  8 42  1  0
  9 43  1  0
  9 44  1  0
 10 45  1  0
 10 46  1  0
 11 47  1  0
 11 48  1  0
 15 49  1  0
 17 50  1  0
 23 51  1  0
 23 52  1  0
 24 53  1  0
 24 54  1  0
 26 55  1  0
 26 56  1  0
 27 57  1  0
 27 58  1  0
 28 59  1  0
 29 60  1  0
 35 61  1  0
 36 62  1  0
 38 63  1  0
M  CHG  1  14  -1
M  END
>  <UniqueID>  (9) 
9

>  <SMILES>  (9) 
O=C(Cc1sc(N2CCCC2)nc1[O-])Nc1cc(S(=O)(=O)N2CCOCC2)ccc1OC(=O)c1ccsc1

>  <Energy>  (9) 
139.60635056137892

>  <Genealogy>  (9) 
O=C(Cc1sc(N2CCCC2)nc1[O-])Nc1cc(S(=O)(=O)N2CCOCC2)ccc1OC(=O)c1ccsc1 (protonated)
O=C(Cc1sc(N2CCCC2)nc1[O-])Nc1cc(S(=O)(=O)N2CCOCC2)ccc1OC(=O)c1ccsc1 (3D coordinates assigned)
O=C(Cc1sc(N2CCCC2)nc1[O-])Nc1cc(S(=O)(=O)N2CCOCC2)ccc1OC(=O)c1ccsc1 (nonaromatic ring conformer: 139.60635056137892 kcal/mol)

>  <smiles>  (9) 
O=C(Cc1sc(N2CCCC2)nc1O)Nc1cc(S(=O)(=O)N2CCOCC2)ccc1OC(=O)c1ccsc1

>  <score_type>  (9) 
oracle

>  <origin>  (9) 
adg

>  <m_score__min__energy>  (9) 
-12.550000000000001

>  <m_primary>  (9) 
energy

$$$$
9:0
     RDKit          3D

 61 65  0  0  0  0  0  0  0  0999 V2000
   57.7300   30.6260   51.9410 C   0  0  0  0  0  0  0  0  0  0  0  0
   58.7160   29.6910   51.5070 O   0  0  0  0  0  0  0  0  0  0  0  0
   59.8080   30.0020   50.6840 C   0  0  0  0  0  0  0  0  0  0  0  0
   61.0130   30.5050   51.2200 C   0  0  0  0  0  0  0  0  0  0  0  0
   62.0660   30.8630   50.3770 C   0  0  0  0  0  0  0  0  0  0  0  0
   61.9350   30.7280   48.9960 C   0  0  0  0  0  0  0  0  0  0  0  0
   60.7540   30.2180   48.4530 C   0  0  0  0  0  0  0  0  0  0  0  0
   59.6920   29.8290   49.2860 C   0  0  0  0  0  0  0  0  0  0  0  0
   58.5010   29.3000   48.6790 N   0  0  0  0  0  0  0  0  0  0  0  0
   58.5180   28.3280   47.2400 S   0  0  0  0  0  0  0  0  0  0  0  0
   59.9400   28.0040   46.8840 O   0  0  0  0  0  0  0  0  0  0  0  0
   57.7790   27.0470   47.5100 O   0  0  0  0  0  0  0  0  0  0  0  0
   57.7710   29.2050   45.8990 C   0  0  0  0  0  0  0  0  0  0  0  0
   58.3140   30.4350   45.4990 C   0  0  0  0  0  0  0  0  0  0  0  0
   57.7360   31.1630   44.4480 C   0  0  0  0  0  0  0  0  0  0  0  0
   58.2560   32.4400   44.0480 N   0  0  0  0  0  0  0  0  0  0  0  0
   58.8550   33.2970   44.8200 C   0  0  0  0  0  0  0  0  0  0  0  0
   59.8830   32.9470   45.6200 N   0  0  0  0  0  0  0  0  0  0  0  0
   60.3200   33.9900   46.3820 C   0  0  0  0  0  0  0  0  0  0  0  0
   61.4570   33.8390   47.3250 C   0  0  0  0  0  0  0  0  0  0  0  0
   61.2990   34.1920   48.6780 C   0  0  0  0  0  0  0  0  0  0  0  0
   62.3590   34.0480   49.5780 C   0  0  0  0  0  0  0  0  0  0  0  0
   63.5920   33.5590   49.1380 C   0  0  0  0  0  0  0  0  0  0  0  0
   64.9210   33.3790   50.2690 Cl  0  0  0  0  0  0  0  0  0  0  0  0
   63.7650   33.2140   47.7950 C   0  0  0  0  0  0  0  0  0  0  0  0
   62.7060   33.3530   46.8930 C   0  0  0  0  0  0  0  0  0  0  0  0
   59.6220   35.1850   46.1850 C   0  0  0  0  0  0  0  0  0  0  0  0
   58.4290   34.9150   45.0300 S   0  0  0  0  0  0  0  0  0  0  0  0
   56.5720   30.6850   43.8410 C   0  0  0  0  0  0  0  0  0  0  0  0
   56.0330   29.4530   44.2180 C   0  0  0  0  0  0  0  0  0  0  0  0
   56.6430   28.6870   45.2270 C   0  0  0  0  0  0  0  0  0  0  0  0
   56.1000   27.4200   45.6230 N   0  0  0  0  0  0  0  0  0  0  0  0
   56.6320   26.1290   45.2970 C   0  0  0  0  0  0  0  0  0  0  0  0
   57.6350   26.0350   44.5370 O   0  0  0  0  0  0  0  0  0  0  0  0
   56.0420   24.9110   45.8960 C   0  0  0  0  0  0  0  0  0  0  0  0
   56.7180   24.2120   46.9140 C   0  0  0  0  0  0  0  0  0  0  0  0
   56.1540   23.0640   47.4800 C   0  0  0  0  0  0  0  0  0  0  0  0
   54.9160   22.5990   47.0340 C   0  0  0  0  0  0  0  0  0  0  0  0
   54.2350   23.2820   46.0240 C   0  0  0  0  0  0  0  0  0  0  0  0
   54.7920   24.4310   45.4560 C   0  0  0  0  0  0  0  0  0  0  0  0
   57.7055   30.6492   53.0405 H   0  0  0  0  0  0  0  0  0  0  0  0
   57.9801   31.6266   51.5586 H   0  0  0  0  0  0  0  0  0  0  0  0
   56.7441   30.3232   51.5586 H   0  0  0  0  0  0  0  0  0  0  0  0
   61.1228   30.6155   52.3089 H   0  0  0  0  0  0  0  0  0  0  0  0
   63.0020   31.2528   50.8037 H   0  0  0  0  0  0  0  0  0  0  0  0
   62.7621   31.0233   48.3337 H   0  0  0  0  0  0  0  0  0  0  0  0
   60.6543   30.1199   47.3619 H   0  0  0  0  0  0  0  0  0  0  0  0
   57.5790   29.7060   48.9530 H   0  0  0  0  0  0  0  0  0  0  0  0
   59.2010   30.8324   46.0140 H   0  0  0  0  0  0  0  0  0  0  0  0
   60.3337   34.5844   49.0303 H   0  0  0  0  0  0  0  0  0  0  0  0
   62.2222   34.3202   50.6350 H   0  0  0  0  0  0  0  0  0  0  0  0
   64.7362   32.8324   47.4469 H   0  0  0  0  0  0  0  0  0  0  0  0
   62.8496   33.0805   45.8370 H   0  0  0  0  0  0  0  0  0  0  0  0
   59.8190   36.1383   46.6973 H   0  0  0  0  0  0  0  0  0  0  0  0
   56.0770   31.2827   43.0614 H   0  0  0  0  0  0  0  0  0  0  0  0
   55.1250   29.0793   43.7221 H   0  0  0  0  0  0  0  0  0  0  0  0
   57.6961   24.5710   47.2666 H   0  0  0  0  0  0  0  0  0  0  0  0
   56.6872   22.5267   48.2781 H   0  0  0  0  0  0  0  0  0  0  0  0
   54.4763   21.6939   47.4783 H   0  0  0  0  0  0  0  0  0  0  0  0
   53.2586   22.9150   45.6750 H   0  0  0  0  0  0  0  0  0  0  0  0
   54.2513   24.9643   44.6603 H   0  0  0  0  0  0  0  0  0  0  0  0
  1  2  1  0
  2  3  1  0
  3  4  2  0
  4  5  1  0
  5  6  2  0
  6  7  1  0
  7  8  2  0
  8  9  1  0
  9 10  1  0
 10 11  2  0
 10 12  2  0
 10 13  1  0
 13 14  2  0
 14 15  1  0
 15 16  1  0
 16 17  2  3
 17 18  1  0
 18 19  1  0
 19 20  1  0
 20 21  2  0
 21 22  1  0
 22 23  2  0
 23 24  1  0
 23 25  1  0
 25 26  2  0
 19 27  2  0
 27 28  1  0
 15 29  2  0
 29 30  1  0
 30 31  2  0
 31 32  1  0
 32 33  1  0
 33 34  2  0
 33 35  1  0
 35 36  2  0
 36 37  1  0
 37 38  2  0
 38 39  1  0
 39 40  2  0
  8  3  1  0
 31 13  1  0
 40 35  1  0
 28 17  1  0
 26 20  1  0
  1 41  1  0
  1 42  1  0
  1 43  1  0
  4 44  1  0
  5 45  1  0
  6 46  1  0
  7 47  1  0
  9 48  1  0
 14 49  1  0
 21 50  1  0
 22 51  1  0
 25 52  1  0
 26 53  1  0
 27 54  1  0
 29 55  1  0
 30 56  1  0
 36 57  1  0
 37 58  1  0
 38 59  1  0
 39 60  1  0
 40 61  1  0
M  CHG  2  18  -1  32  -1
M  END
>  <UniqueID>  (10) 
10

>  <SMILES>  (10) 
COc1ccccc1NS(=O)(=O)c1cc(N=c2[n-]c(-c3ccc(Cl)cc3)cs2)ccc1[N-]C(=O)c1ccccc1

>  <Energy>  (10) 
116.74808838519606

>  <Genealogy>  (10) 
COc1ccccc1NS(=O)(=O)c1cc(N=c2[n-]c(-c3ccc(Cl)cc3)cs2)ccc1[N-]C(=O)c1ccccc1 (protonated)
COc1ccccc1NS(=O)(=O)c1cc(N=c2[n-]c(-c3ccc(Cl)cc3)cs2)ccc1[N-]C(=O)c1ccccc1 (3D coordinates assigned)
COc1ccccc1NS(=O)(=O)c1cc(N=c2[n-]c(-c3ccc(Cl)cc3)cs2)ccc1[N-]C(=O)c1ccccc1 (optimized conformer: 116.74808838519606 kcal/mol)

>  <smiles>  (10) 
COc1ccccc1NS(=O)(=O)c1cc(N=c2[nH]c(-c3ccc(Cl)cc3)cs2)ccc1NC(=O)c1ccccc1

>  <score_type>  (10) 
oracle

>  <origin>  (10) 
adg

>  <m_score__min__energy>  (10) 
-13.390000000000001

>  <m_primary>  (10) 
energy

$$$$
10:0
     RDKit          3D

 52 54  0  0  0  0  0  0  0  0999 V2000
   57.8740   29.2270   44.6150 C   0  0  0  0  0  0  0  0  0  0  0  0
   56.3440   30.0730   44.2620 S   0  0  0  0  0  0  0  0  0  0  0  0
   55.1830   29.3380   44.8790 O   0  0  0  0  0  0  0  0  0  0  0  0
   56.1550   30.1110   42.7710 O   0  0  0  0  0  0  0  0  0  0  0  0
   56.3900   31.7030   44.8530 N   0  0  0  0  0  0  0  0  0  0  0  0
   57.4800   32.3150   45.5560 C   0  0  0  0  0  0  0  0  0  0  0  0
   57.8900   33.5970   45.1640 C   0  0  0  0  0  0  0  0  0  0  0  0
   58.9710   34.2110   45.8020 C   0  0  0  0  0  0  0  0  0  0  0  0
   59.6520   33.5550   46.8380 C   0  0  0  0  0  0  0  0  0  0  0  0
   59.2290   32.2880   47.2600 C   0  0  0  0  0  0  0  0  0  0  0  0
   59.9160   31.5590   48.2900 N   0  0  0  0  0  0  0  0  0  0  0  0
   59.5690   31.4730   49.6810 C   0  0  0  0  0  0  0  0  0  0  0  0
   58.4300   31.0560   50.0210 O   0  0  0  0  0  0  0  0  0  0  0  0
   60.5820   31.8300   50.7100 C   0  0  0  0  0  0  0  0  0  0  0  0
   61.9450   31.8380   50.3530 C   0  0  0  0  0  0  0  0  0  0  0  0
   62.9320   32.1290   51.3000 C   0  0  0  0  0  0  0  0  0  0  0  0
   62.5760   32.4190   52.6170 C   0  0  0  0  0  0  0  0  0  0  0  0
   61.2310   32.4200   52.9900 C   0  0  0  0  0  0  0  0  0  0  0  0
   60.2300   32.1280   52.0500 C   0  0  0  0  0  0  0  0  0  0  0  0
   58.8680   32.1170   52.4730 N   0  0  0  0  0  0  0  0  0  0  0  0
   58.2010   30.7610   53.3140 S   0  0  0  0  0  0  0  0  0  0  0  0
   58.8290   29.4820   52.8290 O   0  0  0  0  0  0  0  0  0  0  0  0
   58.4860   30.9040   54.7850 O   0  0  0  0  0  0  0  0  0  0  0  0
   56.4660   30.7230   53.0220 C   0  0  0  0  0  0  0  0  0  0  0  0
   55.6210   30.1100   53.9550 C   0  0  0  0  0  0  0  0  0  0  0  0
   54.2460   30.0390   53.7230 C   0  0  0  0  0  0  0  0  0  0  0  0
   53.6970   30.5750   52.5420 C   0  0  0  0  0  0  0  0  0  0  0  0
   52.3220   30.5300   52.2550 O   0  0  0  0  0  0  0  0  0  0  0  0
   51.7520   30.6280   50.9470 C   0  0  0  0  0  0  0  0  0  0  0  0
   51.1000   31.9600   50.7410 C   0  0  0  0  0  0  0  0  0  0  0  0
   51.0180   32.7750   51.6980 O   0  0  0  0  0  0  0  0  0  0  0  0
   50.6470   32.3300   49.4790 O   0  0  0  0  0  0  0  0  0  0  0  0
   54.5490   31.1800   51.6110 C   0  0  0  0  0  0  0  0  0  0  0  0
   55.9240   31.2580   51.8460 C   0  0  0  0  0  0  0  0  0  0  0  0
   58.1500   31.6700   46.6150 C   0  0  0  0  0  0  0  0  0  0  0  0
   58.0089   29.1524   45.7041 H   0  0  0  0  0  0  0  0  0  0  0  0
   57.8437   28.2174   44.1793 H   0  0  0  0  0  0  0  0  0  0  0  0
   58.7130   29.7894   44.1793 H   0  0  0  0  0  0  0  0  0  0  0  0
   57.3605   34.1198   44.3539 H   0  0  0  0  0  0  0  0  0  0  0  0
   59.2902   35.2162   45.4895 H   0  0  0  0  0  0  0  0  0  0  0  0
   60.5173   34.0349   47.3186 H   0  0  0  0  0  0  0  0  0  0  0  0
   62.2363   31.6125   49.3165 H   0  0  0  0  0  0  0  0  0  0  0  0
   63.9918   32.1292   51.0055 H   0  0  0  0  0  0  0  0  0  0  0  0
   63.3540   32.6466   53.3606 H   0  0  0  0  0  0  0  0  0  0  0  0
   60.9531   32.6514   54.0288 H   0  0  0  0  0  0  0  0  0  0  0  0
   56.0429   29.6818   54.8762 H   0  0  0  0  0  0  0  0  0  0  0  0
   53.5890   29.5626   54.4655 H   0  0  0  0  0  0  0  0  0  0  0  0
   52.5470   30.4976   50.1981 H   0  0  0  0  0  0  0  0  0  0  0  0
   50.9873   29.8446   50.8398 H   0  0  0  0  0  0  0  0  0  0  0  0
   54.1313   31.5989   50.6836 H   0  0  0  0  0  0  0  0  0  0  0  0
   56.5814   31.7397   51.1073 H   0  0  0  0  0  0  0  0  0  0  0  0
   57.8222   30.6710   46.9384 H   0  0  0  0  0  0  0  0  0  0  0  0
  1  2  1  0
  2  3  2  0
  2  4  2  0
  2  5  1  0
  5  6  1  0
  6  7  2  0
  7  8  1  0
  8  9  2  0
  9 10  1  0
 10 11  1  0
 11 12  1  0
 12 13  2  0
 12 14  1  0
 14 15  2  0
 15 16  1  0
 16 17  2  0
 17 18  1  0
 18 19  2  0
 19 20  1  0
 20 21  1  0
 21 22  2  0
 21 23  2  0
 21 24  1  0
 24 25  2  0
 25 26  1  0
 26 27  2  0
 27 28  1  0
 28 29  1  0
 29 30  1  0
 30 31  2  0
 30 32  1  0
 27 33  1  0
 33 34  2  0
 10 35  2  0
 35  6  1  0
 19 14  1  0
 34 24  1  0
  1 36  1  0
  1 37  1  0
  1 38  1  0
  7 39  1  0
  8 40  1  0
  9 41  1  0
 15 42  1  0
 16 43  1  0
 17 44  1  0
 18 45  1  0
 25 46  1  0
 26 47  1  0
 29 48  1  0
 29 49  1  0
 33 50  1  0
 34 51  1  0
 35 52  1  0
M  CHG  4   5  -1  11  -1  20  -1  32  -1
M  END
>  <UniqueID>  (11) 
11

>  <SMILES>  (11) 
CS(=O)(=O)[N-]c1cccc([N-]C(=O)c2ccccc2[N-]S(=O)(=O)c2ccc(OCC(=O)[O-])cc2)c1

>  <Energy>  (11) 
66.5158519719508

>  <Genealogy>  (11) 
CS(=O)(=O)[N-]c1cccc([N-]C(=O)c2ccccc2[N-]S(=O)(=O)c2ccc(OCC(=O)[O-])cc2)c1 (protonated)
CS(=O)(=O)[N-]c1cccc([N-]C(=O)c2ccccc2[N-]S(=O)(=O)c2ccc(OCC(=O)[O-])cc2)c1 (3D coordinates assigned)
CS(=O)(=O)[N-]c1cccc([N-]C(=O)c2ccccc2[N-]S(=O)(=O)c2ccc(OCC(=O)[O-])cc2)c1 (optimized conformer: 66.5158519719508 kcal/mol)

>  <smiles>  (11) 
CS(=O)(=O)Nc1cccc(NC(=O)c2ccccc2NS(=O)(=O)c2ccc(OCC(=O)O)cc2)c1

>  <score_type>  (11) 
oracle

>  <origin>  (11) 
adg

>  <m_score__min__energy>  (11) 
-15.26

>  <m_primary>  (11) 
energy

$$$$
11:0
     RDKit          3D

 53 56  0  0  0  0  0  0  0  0999 V2000
   57.0350   28.5780   42.8260 N   0  0  0  0  0  0  0  0  0  0  0  0
   56.4930   29.7840   43.9390 S   0  0  0  0  0  0  0  0  0  0  0  0
   55.1820   29.3590   44.5390 O   0  0  0  0  0  0  0  0  0  0  0  0
   56.2890   31.0830   43.2090 O   0  0  0  0  0  0  0  0  0  0  0  0
   57.6900   29.9970   45.2110 C   0  0  0  0  0  0  0  0  0  0  0  0
   58.4670   31.1610   45.2630 C   0  0  0  0  0  0  0  0  0  0  0  0
   59.4280   31.3230   46.2660 C   0  0  0  0  0  0  0  0  0  0  0  0
   59.6180   30.3240   47.2350 C   0  0  0  0  0  0  0  0  0  0  0  0
   60.6410   30.5020   48.2870 C   0  0  0  0  0  0  0  0  0  0  0  0
   61.9370   30.7680   48.0230 N   0  0  0  0  0  0  0  0  0  0  0  0
   62.5570   30.9010   49.1870 N   0  0  0  0  0  0  0  0  0  0  0  0
   61.6310   30.7080   50.1450 C   0  0  0  0  0  0  0  0  0  0  0  0
   61.9550   30.9460   51.8950 S   0  0  0  0  0  0  0  0  0  0  0  0
   60.9660   32.4730   52.0270 C   0  0  0  0  0  0  0  0  0  0  0  0
   61.6800   33.6100   51.3710 C   0  0  0  0  0  0  0  0  0  0  0  0
   62.7760   34.0180   51.8440 O   0  0  0  0  0  0  0  0  0  0  0  0
   61.1480   34.1820   50.1720 N   0  0  0  0  0  0  0  0  0  0  0  0
   61.7440   34.0420   48.8760 C   0  0  0  0  0  0  0  0  0  0  0  0
   63.1210   33.8020   48.7950 C   0  0  0  0  0  0  0  0  0  0  0  0
   63.7430   33.6600   47.5520 C   0  0  0  0  0  0  0  0  0  0  0  0
   62.9880   33.7360   46.3790 C   0  0  0  0  0  0  0  0  0  0  0  0
   61.6070   33.9420   46.4500 C   0  0  0  0  0  0  0  0  0  0  0  0
   60.9760   34.0860   47.6910 C   0  0  0  0  0  0  0  0  0  0  0  0
   59.2210   34.2260   47.7240 Cl  0  0  0  0  0  0  0  0  0  0  0  0
   60.4240   30.4400   49.6160 N   0  0  0  0  0  0  0  0  0  0  0  0
   59.1910   30.5460   50.2880 N   0  0  0  0  0  0  0  0  0  0  0  0
   58.3270   31.7100   50.0860 C   0  0  0  0  0  0  0  0  0  0  0  0
   57.7330   32.1320   51.4340 C   0  0  0  0  0  0  0  0  0  0  0  0
   57.1140   31.0310   52.0780 O   0  0  0  0  0  0  0  0  0  0  0  0
   58.0830   30.0520   52.4040 C   0  0  0  0  0  0  0  0  0  0  0  0
   58.7060   29.4600   51.1360 C   0  0  0  0  0  0  0  0  0  0  0  0
   58.8570   29.1460   47.1620 C   0  0  0  0  0  0  0  0  0  0  0  0
   57.8970   28.9850   46.1580 C   0  0  0  0  0  0  0  0  0  0  0  0
   56.9140   27.6520   43.2960 H   0  0  0  0  0  0  0  0  0  0  0  0
   58.0630   28.7190   42.7010 H   0  0  0  0  0  0  0  0  0  0  0  0
   58.3208   31.9511   44.5118 H   0  0  0  0  0  0  0  0  0  0  0  0
   60.0384   32.2376   46.2962 H   0  0  0  0  0  0  0  0  0  0  0  0
   59.9950   32.3206   51.5331 H   0  0  0  0  0  0  0  0  0  0  0  0
   60.8140   32.7108   53.0902 H   0  0  0  0  0  0  0  0  0  0  0  0
   63.7172   33.7247   49.7162 H   0  0  0  0  0  0  0  0  0  0  0  0
   64.8281   33.4882   47.4969 H   0  0  0  0  0  0  0  0  0  0  0  0
   63.4797   33.6338   45.4003 H   0  0  0  0  0  0  0  0  0  0  0  0
   61.0131   33.9912   45.5254 H   0  0  0  0  0  0  0  0  0  0  0  0
   58.9170   32.5388   49.6676 H   0  0  0  0  0  0  0  0  0  0  0  0
   57.5169   31.4540   49.3873 H   0  0  0  0  0  0  0  0  0  0  0  0
   58.5369   32.5204   52.0766 H   0  0  0  0  0  0  0  0  0  0  0  0
   56.9748   32.9092   51.2575 H   0  0  0  0  0  0  0  0  0  0  0  0
   58.8739   30.5158   53.0117 H   0  0  0  0  0  0  0  0  0  0  0  0
   57.5924   29.2438   52.9662 H   0  0  0  0  0  0  0  0  0  0  0  0
   59.5454   28.8040   51.4100 H   0  0  0  0  0  0  0  0  0  0  0  0
   57.9506   28.8745   50.5914 H   0  0  0  0  0  0  0  0  0  0  0  0
   59.0170   28.3452   47.8989 H   0  0  0  0  0  0  0  0  0  0  0  0
   57.3023   28.0608   46.1114 H   0  0  0  0  0  0  0  0  0  0  0  0
  1  2  1  0
  2  3  2  0
  2  4  2  0
  2  5  1  0
  5  6  2  0
  6  7  1  0
  7  8  2  0
  8  9  1  0
  9 10  2  0
 10 11  1  0
 11 12  2  0
 12 13  1  0
 13 14  1  0
 14 15  1  0
 15 16  2  0
 15 17  1  0
 17 18  1  0
 18 19  2  0
 19 20  1  0
 20 21  2  0
 21 22  1  0
 22 23  2  0
 23 24  1  0
 12 25  1  0
 25 26  1  0
 26 27  1  0
 27 28  1  0
 28 29  1  0
 29 30  1  0
 30 31  1  0
  8 32  1  0
 32 33  2  0
 33  5  1  0
 25  9  1  0
 31 26  1  0
 23 18  1  0
  1 34  1  0
  1 35  1  0
  6 36  1  0
  7 37  1  0
 14 38  1  0
 14 39  1  0
 19 40  1  0
 20 41  1  0
 21 42  1  0
 22 43  1  0
 27 44  1  0
 27 45  1  0
 28 46  1  0
 28 47  1  0
 30 48  1  0
 30 49  1  0
 31 50  1  0
 31 51  1  0
 32 52  1  0
 33 53  1  0
M  CHG  1  17  -1
M  END
>  <UniqueID>  (12) 
12

>  <SMILES>  (12) 
NS(=O)(=O)c1ccc(-c2nnc(SCC(=O)[N-]c3ccccc3Cl)n2N2CCOCC2)cc1

>  <Energy>  (12) 
101.72627948141482

>  <Genealogy>  (12) 
NS(=O)(=O)c1ccc(-c2nnc(SCC(=O)[N-]c3ccccc3Cl)n2N2CCOCC2)cc1 (protonated)
NS(=O)(=O)c1ccc(-c2nnc(SCC(=O)[N-]c3ccccc3Cl)n2N2CCOCC2)cc1 (3D coordinates assigned)
NS(=O)(=O)c1ccc(-c2nnc(SCC(=O)[N-]c3ccccc3Cl)n2N2CCOCC2)cc1 (nonaromatic ring conformer: 101.72627948141482 kcal/mol)

>  <smiles>  (12) 
NS(=O)(=O)c1ccc(-c2nnc(SCC(=O)Nc3ccccc3Cl)n2N2CCOCC2)cc1

>  <score_type>  (12) 
oracle

>  <origin>  (12) 
adg

>  <m_score__min__energy>  (12) 
-10.56

>  <m_primary>  (12) 
energy

$$$$
12:0
     RDKit          3D

 65 69  0  0  0  0  0  0  0  0999 V2000
   60.3530   27.8480   44.3770 O   0  0  0  0  0  0  0  0  0  0  0  0
   59.6030   28.2980   45.2860 C   0  0  0  0  0  0  0  0  0  0  0  0
   58.5570   29.2830   44.9350 C   0  0  0  0  0  0  0  0  0  0  0  0
   57.4570   28.8990   44.1510 C   0  0  0  0  0  0  0  0  0  0  0  0
   56.4640   29.8280   43.8250 C   0  0  0  0  0  0  0  0  0  0  0  0
   56.5580   31.1440   44.2800 C   0  0  0  0  0  0  0  0  0  0  0  0
   57.6460   31.5410   45.0680 C   0  0  0  0  0  0  0  0  0  0  0  0
   57.7370   33.1960   45.6580 S   0  0  0  0  0  0  0  0  0  0  0  0
   57.7210   34.1590   44.5030 O   0  0  0  0  0  0  0  0  0  0  0  0
   56.5380   33.4660   46.5250 O   0  0  0  0  0  0  0  0  0  0  0  0
   59.1990   33.4000   46.5880 N   0  0  0  0  0  0  0  0  0  0  0  0
   60.1500   34.2480   45.8530 C   0  0  0  0  0  0  0  0  0  0  0  0
   61.5140   34.1820   46.5470 C   0  0  0  0  0  0  0  0  0  0  0  0
   61.3530   34.1280   48.0070 N   0  0  0  0  0  0  0  0  0  0  0  0
   62.4450   33.6870   48.8390 C   0  0  0  0  0  0  0  0  0  0  0  0
   63.3920   32.7690   48.3490 C   0  0  0  0  0  0  0  0  0  0  0  0
   64.4420   32.3350   49.1620 C   0  0  0  0  0  0  0  0  0  0  0  0
   64.5540   32.8060   50.4730 C   0  0  0  0  0  0  0  0  0  0  0  0
   63.6130   33.7110   50.9730 C   0  0  0  0  0  0  0  0  0  0  0  0
   62.5610   34.1480   50.1620 C   0  0  0  0  0  0  0  0  0  0  0  0
   60.1010   34.6120   48.6020 C   0  0  0  0  0  0  0  0  0  0  0  0
   58.8770   33.9730   47.9140 C   0  0  0  0  0  0  0  0  0  0  0  0
   58.6370   30.6070   45.4030 C   0  0  0  0  0  0  0  0  0  0  0  0
   59.7870   27.8590   46.6470 N   0  0  0  0  0  0  0  0  0  0  0  0
   59.6640   26.4270   46.9610 C   0  0  0  0  0  0  0  0  0  0  0  0
   58.3830   25.8820   46.3890 C   0  0  0  0  0  0  0  0  0  0  0  0
   57.1590   26.5200   46.6530 C   0  0  0  0  0  0  0  0  0  0  0  0
   55.9670   25.9880   46.1530 C   0  0  0  0  0  0  0  0  0  0  0  0
   55.9870   24.8100   45.3990 C   0  0  0  0  0  0  0  0  0  0  0  0
   57.2000   24.1620   45.1460 C   0  0  0  0  0  0  0  0  0  0  0  0
   58.3950   24.6930   45.6430 C   0  0  0  0  0  0  0  0  0  0  0  0
   59.8220   28.8240   47.7160 C   0  0  0  0  0  0  0  0  0  0  0  0
   60.8080   29.8250   47.7420 C   0  0  0  0  0  0  0  0  0  0  0  0
   60.8210   30.7500   48.7880 C   0  0  0  0  0  0  0  0  0  0  0  0
   59.8560   30.6780   49.7910 C   0  0  0  0  0  0  0  0  0  0  0  0
   58.8800   29.6810   49.7300 C   0  0  0  0  0  0  0  0  0  0  0  0
   58.8850   28.7880   48.7050 N   0  0  0  0  0  0  0  0  0  0  0  0
   57.3761   27.8625   43.7916 H   0  0  0  0  0  0  0  0  0  0  0  0
   55.6065   29.5207   43.2083 H   0  0  0  0  0  0  0  0  0  0  0  0
   55.7754   31.8717   44.0191 H   0  0  0  0  0  0  0  0  0  0  0  0
   60.2443   33.8859   44.8186 H   0  0  0  0  0  0  0  0  0  0  0  0
   59.7890   35.2870   45.8395 H   0  0  0  0  0  0  0  0  0  0  0  0
   62.0476   33.2814   46.2092 H   0  0  0  0  0  0  0  0  0  0  0  0
   62.0863   35.0850   46.2879 H   0  0  0  0  0  0  0  0  0  0  0  0
   63.3051   32.3908   47.3197 H   0  0  0  0  0  0  0  0  0  0  0  0
   65.1816   31.6215   48.7697 H   0  0  0  0  0  0  0  0  0  0  0  0
   65.3823   32.4647   51.1113 H   0  0  0  0  0  0  0  0  0  0  0  0
   63.7003   34.0798   52.0057 H   0  0  0  0  0  0  0  0  0  0  0  0
   61.8202   34.8563   50.5614 H   0  0  0  0  0  0  0  0  0  0  0  0
   60.0878   34.3539   49.6712 H   0  0  0  0  0  0  0  0  0  0  0  0
   60.0483   35.7025   48.4674 H   0  0  0  0  0  0  0  0  0  0  0  0
   58.4903   33.1704   48.5592 H   0  0  0  0  0  0  0  0  0  0  0  0
   58.1316   34.7671   47.7596 H   0  0  0  0  0  0  0  0  0  0  0  0
   59.4830   30.9120   46.0364 H   0  0  0  0  0  0  0  0  0  0  0  0
   60.5166   25.8844   46.5266 H   0  0  0  0  0  0  0  0  0  0  0  0
   59.6556   26.2966   48.0532 H   0  0  0  0  0  0  0  0  0  0  0  0
   57.1389   27.4406   47.2548 H   0  0  0  0  0  0  0  0  0  0  0  0
   55.0121   26.4963   46.3527 H   0  0  0  0  0  0  0  0  0  0  0  0
   55.0483   24.3933   45.0050 H   0  0  0  0  0  0  0  0  0  0  0  0
   57.2146   23.2339   44.5557 H   0  0  0  0  0  0  0  0  0  0  0  0
   59.3469   24.1772   45.4486 H   0  0  0  0  0  0  0  0  0  0  0  0
   61.5637   29.8794   46.9445 H   0  0  0  0  0  0  0  0  0  0  0  0
   61.5917   31.5342   48.8203 H   0  0  0  0  0  0  0  0  0  0  0  0
   59.8630   31.3988   50.6219 H   0  0  0  0  0  0  0  0  0  0  0  0
   58.1077   29.6183   50.5108 H   0  0  0  0  0  0  0  0  0  0  0  0
  1  2  2  0
  2  3  1  0
  3  4  2  0
  4  5  1  0
  5  6  2  0
  6  7  1  0
  7  8  1  0
  8  9  2  0
  8 10  2  0
  8 11  1  0
 11 12  1  0
 12 13  1  0
 13 14  1  0
 14 15  1  0
 15 16  2  0
 16 17  1  0
 17 18  2  0
 18 19  1  0
 19 20  2  0
 14 21  1  0
 21 22  1  0
  7 23  2  0
  2 24  1  0
 24 25  1  0
 25 26  1  0
 26 27  2  0
 27 28  1  0
 28 29  2  0
 29 30  1  0
 30 31  2  0
 24 32  1  0
 32 33  2  0
 33 34  1  0
 34 35  2  0
 35 36  1  0
 36 37  2  0
 23  3  1  0
 31 26  1  0
 37 32  1  0
 22 11  1  0
 20 15  1  0
  4 38  1  0
  5 39  1  0
  6 40  1  0
 12 41  1  0
 12 42  1  0
 13 43  1  0
 13 44  1  0
 16 45  1  0
 17 46  1  0
 18 47  1  0
 19 48  1  0
 20 49  1  0
 21 50  1  0
 21 51  1  0
 22 52  1  0
 22 53  1  0
 23 54  1  0
 25 55  1  0
 25 56  1  0
 27 57  1  0
 28 58  1  0
 29 59  1  0
 30 60  1  0
 31 61  1  0
 33 62  1  0
 34 63  1  0
 35 64  1  0
 36 65  1  0
M  END
>  <UniqueID>  (13) 
13

>  <SMILES>  (13) 
O=C(c1cccc(S(=O)(=O)N2CCN(c3ccccc3)CC2)c1)N(Cc1ccccc1)c1ccccn1

>  <Energy>  (13) 
88.3269187755823

>  <Genealogy>  (13) 
O=C(c1cccc(S(=O)(=O)N2CCN(c3ccccc3)CC2)c1)N(Cc1ccccc1)c1ccccn1 (3D coordinates assigned)
O=C(c1cccc(S(=O)(=O)N2CCN(c3ccccc3)CC2)c1)N(Cc1ccccc1)c1ccccn1 (nonaromatic ring conformer: 88.3269187755823 kcal/mol)

>  <smiles>  (13) 
O=C(c1cccc(S(=O)(=O)N2CCN(c3ccccc3)CC2)c1)N(Cc1ccccc1)c1ccccn1

>  <score_type>  (13) 
oracle

>  <origin>  (13) 
adg

>  <m_score__min__energy>  (13) 
-10.199999999999999

>  <m_primary>  (13) 
energy

$$$$
13:0
     RDKit          3D

 34 35  0  0  0  0  0  0  0  0999 V2000
   55.5270   28.9740   44.8680 N   0  0  0  0  0  0  0  0  0  0  0  0
   56.6170   30.2830   44.5740 S   0  0  0  0  0  0  0  0  0  0  0  0
   57.0760   30.2520   43.1430 O   0  0  0  0  0  0  0  0  0  0  0  0
   55.8930   31.5760   44.8280 O   0  0  0  0  0  0  0  0  0  0  0  0
   58.0160   30.1450   45.6450 C   0  0  0  0  0  0  0  0  0  0  0  0
   58.5340   31.3010   46.2510 C   0  0  0  0  0  0  0  0  0  0  0  0
   59.6230   31.2190   47.1210 C   0  0  0  0  0  0  0  0  0  0  0  0
   60.2100   29.9840   47.3920 C   0  0  0  0  0  0  0  0  0  0  0  0
   59.7100   28.8260   46.7930 C   0  0  0  0  0  0  0  0  0  0  0  0
   58.6070   28.8890   45.9230 C   0  0  0  0  0  0  0  0  0  0  0  0
   58.1300   27.6930   45.2820 N   0  0  0  0  0  0  0  0  0  0  0  0
   58.5340   26.3730   45.6740 C   0  0  0  0  0  0  0  0  0  0  0  0
   59.2190   26.2060   46.7200 O   0  0  0  0  0  0  0  0  0  0  0  0
   58.1130   25.2430   44.8950 N   0  0  0  0  0  0  0  0  0  0  0  0
   58.5390   23.8930   45.1510 C   0  0  0  0  0  0  0  0  0  0  0  0
   59.5280   23.6790   45.9060 O   0  0  0  0  0  0  0  0  0  0  0  0
   57.8510   22.7420   44.5160 C   0  0  0  0  0  0  0  0  0  0  0  0
   56.9960   22.9190   43.4150 C   0  0  0  0  0  0  0  0  0  0  0  0
   56.3570   21.8190   42.8420 C   0  0  0  0  0  0  0  0  0  0  0  0
   56.5690   20.5480   43.3750 C   0  0  0  0  0  0  0  0  0  0  0  0
   57.3880   20.3860   44.4480 N   0  0  0  0  0  0  0  0  0  0  0  0
   58.0230   21.4420   45.0250 C   0  0  0  0  0  0  0  0  0  0  0  0
   54.6430   29.3910   45.2390 H   0  0  0  0  0  0  0  0  0  0  0  0
   58.0781   32.2793   46.0385 H   0  0  0  0  0  0  0  0  0  0  0  0
   60.0184   32.1304   47.5933 H   0  0  0  0  0  0  0  0  0  0  0  0
   61.0675   29.9217   48.0781 H   0  0  0  0  0  0  0  0  0  0  0  0
   60.1832   27.8556   47.0036 H   0  0  0  0  0  0  0  0  0  0  0  0
   57.4140   27.7800   44.5260 H   0  0  0  0  0  0  0  0  0  0  0  0
   57.4950   25.4280   44.0730 H   0  0  0  0  0  0  0  0  0  0  0  0
   56.8303   23.9260   43.0044 H   0  0  0  0  0  0  0  0  0  0  0  0
   55.6913   21.9533   41.9767 H   0  0  0  0  0  0  0  0  0  0  0  0
   56.0727   19.6748   42.9265 H   0  0  0  0  0  0  0  0  0  0  0  0
   57.5340   19.4280   44.8380 H   0  0  0  0  0  0  0  0  0  0  0  0
   58.6753   21.2780   45.8954 H   0  0  0  0  0  0  0  0  0  0  0  0
  1  2  1  0
  2  3  2  0
  2  4  2  0
  2  5  1  0
  5  6  2  0
  6  7  1  0
  7  8  2  0
  8  9  1  0
  9 10  2  0
 10 11  1  0
 11 12  1  0
 12 13  2  0
 12 14  1  0
 14 15  1  0
 15 16  2  0
 15 17  1  0
 17 18  2  0
 18 19  1  0
 19 20  2  0
 20 21  1  0
 21 22  2  0
 10  5  1  0
 22 17  1  0
  1 23  1  0
  6 24  1  0
  7 25  1  0
  8 26  1  0
  9 27  1  0
 11 28  1  0
 14 29  1  0
 18 30  1  0
 19 31  1  0
 20 32  1  0
 21 33  1  0
 22 34  1  0
M  CHG  2   1  -1  21   1
M  END
>  <UniqueID>  (14) 
14

>  <SMILES>  (14) 
[NH-]S(=O)(=O)c1ccccc1NC(=O)NC(=O)c1ccc[nH+]c1

>  <Energy>  (14) 
41.916190754610504

>  <Genealogy>  (14) 
[NH-]S(=O)(=O)c1ccccc1NC(=O)NC(=O)c1ccc[nH+]c1 (protonated)
[NH-]S(=O)(=O)c1ccccc1NC(=O)NC(=O)c1ccc[nH+]c1 (3D coordinates assigned)
[NH-]S(=O)(=O)c1ccccc1NC(=O)NC(=O)c1ccc[nH+]c1 (optimized conformer: 41.916190754610504 kcal/mol)

>  <smiles>  (14) 
NS(=O)(=O)c1ccccc1NC(=O)NC(=O)c1cccnc1

>  <score_type>  (14) 
oracle

>  <origin>  (14) 
adg

>  <m_score__min__energy>  (14) 
-9.3200000000000003

>  <m_primary>  (14) 
energy

$$$$
14:0
     RDKit          3D

 58 63  0  0  0  0  0  0  0  0999 V2000
   62.4600   33.8220   46.8670 C   0  0  0  0  0  0  0  0  0  0  0  0
   61.7050   33.7370   48.1630 C   0  0  0  0  0  0  0  0  0  0  0  0
   62.3830   33.3970   49.3440 C   0  0  0  0  0  0  0  0  0  0  0  0
   61.6980   33.3520   50.5630 C   0  0  0  0  0  0  0  0  0  0  0  0
   60.3270   33.6550   50.6190 C   0  0  0  0  0  0  0  0  0  0  0  0
   59.4560   33.5590   52.1520 S   0  0  0  0  0  0  0  0  0  0  0  0
   58.2100   34.3970   52.0700 O   0  0  0  0  0  0  0  0  0  0  0  0
   60.3060   34.0980   53.2720 O   0  0  0  0  0  0  0  0  0  0  0  0
   59.0060   31.9080   52.4510 N   0  0  0  0  0  0  0  0  0  0  0  0
   59.7320   30.7770   51.9550 C   0  0  0  0  0  0  0  0  0  0  0  0
   60.3670   29.8720   52.8220 C   0  0  0  0  0  0  0  0  0  0  0  0
   61.1150   28.8130   52.3060 C   0  0  0  0  0  0  0  0  0  0  0  0
   61.2230   28.6380   50.9250 C   0  0  0  0  0  0  0  0  0  0  0  0
   60.5440   29.5010   50.0420 C   0  0  0  0  0  0  0  0  0  0  0  0
   60.6910   29.3930   48.6140 N   0  0  0  0  0  0  0  0  0  0  0  0
   59.7970   29.6840   47.7120 C   0  0  0  0  0  0  0  0  0  0  0  0
   59.3380   28.6960   46.8930 N   0  0  0  0  0  0  0  0  0  0  0  0
   58.3920   29.0090   45.9750 C   0  0  0  0  0  0  0  0  0  0  0  0
   57.7560   28.1770   45.0830 C   0  0  0  0  0  0  0  0  0  0  0  0
   57.9320   26.8570   44.9350 C   0  0  0  0  0  0  0  0  0  0  0  0
   57.3330   25.8500   45.8280 C   0  0  0  0  0  0  0  0  0  0  0  0
   57.9880   24.7490   46.2360 N   0  0  0  0  0  0  0  0  0  0  0  0
   57.0690   24.0920   46.9770 C   0  0  0  0  0  0  0  0  0  0  0  0
   57.3150   22.9990   47.5510 O   0  0  0  0  0  0  0  0  0  0  0  0
   55.8620   24.6940   47.0460 N   0  0  0  0  0  0  0  0  0  0  0  0
   56.0350   25.8000   46.3040 C   0  0  0  0  0  0  0  0  0  0  0  0
   55.0080   26.7020   46.0340 O   0  0  0  0  0  0  0  0  0  0  0  0
   56.8550   29.0220   44.4350 C   0  0  0  0  0  0  0  0  0  0  0  0
   56.9740   30.2810   44.9230 N   0  0  0  0  0  0  0  0  0  0  0  0
   57.9120   30.2510   45.8560 N   0  0  0  0  0  0  0  0  0  0  0  0
   58.3680   31.2620   46.6510 C   0  0  0  0  0  0  0  0  0  0  0  0
   57.9180   32.4840   46.5850 N   0  0  0  0  0  0  0  0  0  0  0  0
   58.3770   33.5330   45.6830 C   0  0  0  0  0  0  0  0  0  0  0  0
   58.1380   33.2330   44.2140 C   0  0  0  0  0  0  0  0  0  0  0  0
   57.2290   34.2040   44.9530 C   0  0  0  0  0  0  0  0  0  0  0  0
   59.3210   30.9610   47.5740 N   0  0  0  0  0  0  0  0  0  0  0  0
   59.8110   30.5740   50.5680 C   0  0  0  0  0  0  0  0  0  0  0  0
   59.6500   34.0030   49.4420 C   0  0  0  0  0  0  0  0  0  0  0  0
   60.3360   34.0540   48.2220 C   0  0  0  0  0  0  0  0  0  0  0  0
   63.5333   33.9428   47.0752 H   0  0  0  0  0  0  0  0  0  0  0  0
   62.3002   32.9002   46.2884 H   0  0  0  0  0  0  0  0  0  0  0  0
   62.0993   34.6852   46.2884 H   0  0  0  0  0  0  0  0  0  0  0  0
   63.4577   33.1649   49.3109 H   0  0  0  0  0  0  0  0  0  0  0  0
   62.2356   33.0779   51.4827 H   0  0  0  0  0  0  0  0  0  0  0  0
   60.2743   29.9986   53.9107 H   0  0  0  0  0  0  0  0  0  0  0  0
   61.6207   28.1145   52.9888 H   0  0  0  0  0  0  0  0  0  0  0  0
   61.8417   27.8217   50.5240 H   0  0  0  0  0  0  0  0  0  0  0  0
   58.5579   26.5061   44.1013 H   0  0  0  0  0  0  0  0  0  0  0  0
   55.1470   27.5020   45.4330 H   0  0  0  0  0  0  0  0  0  0  0  0
   56.1532   28.7130   43.6463 H   0  0  0  0  0  0  0  0  0  0  0  0
   59.2452   33.8685   46.2693 H   0  0  0  0  0  0  0  0  0  0  0  0
   58.8408   33.6064   43.4546 H   0  0  0  0  0  0  0  0  0  0  0  0
   57.9834   32.3195   43.6210 H   0  0  0  0  0  0  0  0  0  0  0  0
   57.2741   35.2797   44.7277 H   0  0  0  0  0  0  0  0  0  0  0  0
   56.1440   34.2837   45.1157 H   0  0  0  0  0  0  0  0  0  0  0  0
   59.2921   31.2644   49.8867 H   0  0  0  0  0  0  0  0  0  0  0  0
   58.5757   34.2370   49.4767 H   0  0  0  0  0  0  0  0  0  0  0  0
   59.8013   34.3435   47.3053 H   0  0  0  0  0  0  0  0  0  0  0  0
  1  2  1  0
  2  3  2  0
  3  4  1  0
  4  5  2  0
  5  6  1  0
  6  7  2  0
  6  8  2  0
  6  9  1  0
  9 10  1  0
 10 11  2  0
 11 12  1  0
 12 13  2  0
 13 14  1  0
 14 15  1  0
 15 16  2  3
 16 17  1  0
 17 18  2  0
 18 19  1  0
 19 20  2  3
 20 21  1  0
 21 22  1  0
 22 23  1  0
 23 24  2  0
 23 25  1  0
 25 26  1  0
 26 27  1  0
 19 28  1  0
 28 29  2  0
 29 30  1  0
 30 31  1  0
 31 32  2  3
 32 33  1  0
 33 34  1  0
 34 35  1  0
 31 36  1  0
 14 37  2  0
  5 38  1  0
 38 39  2  0
 39  2  1  0
 37 10  1  0
 36 16  1  0
 30 18  1  0
 35 33  1  0
 26 21  2  0
  1 40  1  0
  1 41  1  0
  1 42  1  0
  3 43  1  0
  4 44  1  0
 11 45  1  0
 12 46  1  0
 13 47  1  0
 20 48  1  0
 27 49  1  0
 28 50  1  0
 33 51  1  0
 34 52  1  0
 34 53  1  0
 35 54  1  0
 35 55  1  0
 37 56  1  0
 38 57  1  0
 39 58  1  0
M  CHG  4   9  -1  22  -1  25  -1  36  -1
M  END
>  <UniqueID>  (15) 
15

>  <SMILES>  (15) 
Cc1ccc(S(=O)(=O)[N-]c2cccc(N=c3nc4c(=Cc5[n-]c(=O)[n-]c5O)cnn4c(=NC4CC4)[n-]3)c2)cc1

>  <Energy>  (15) 
418.10921571463206

>  <Genealogy>  (15) 
Cc1ccc(S(=O)(=O)[N-]c2cccc(N=c3nc4c(=Cc5[n-]c(=O)[n-]c5O)cnn4c(=NC4CC4)[n-]3)c2)cc1 (protonated)
Cc1ccc(S(=O)(=O)[N-]c2cccc(N=c3nc4c(=Cc5[n-]c(=O)[n-]c5O)cnn4c(=NC4CC4)[n-]3)c2)cc1 (3D coordinates assigned)
Cc1ccc(S(=O)(=O)[N-]c2cccc(N=c3nc4c(=Cc5[n-]c(=O)[n-]c5O)cnn4c(=NC4CC4)[n-]3)c2)cc1 (nonaromatic ring conformer: 418.10921571463206 kcal/mol)

>  <smiles>  (15) 
Cc1ccc(S(=O)(=O)Nc2cccc(N=c3nc4c(=Cc5[nH]c(=O)[nH]c5O)cnn4c(=NC4CC4)[nH]3)c2)cc1

>  <score_type>  (15) 
oracle

>  <origin>  (15) 
adg

>  <m_score__min__energy>  (15) 
-17.460000000000001

>  <m_primary>  (15) 
energy

$$$$
15:0
     RDKit          3D

 78 81  0  0  0  0  0  0  0  0999 V2000
   60.7640   29.9420   52.3280 C   0  0  0  0  0  0  0  0  0  0  0  0
   60.2320   28.8150   51.6380 O   0  0  0  0  0  0  0  0  0  0  0  0
   60.0630   28.7420   50.2470 C   0  0  0  0  0  0  0  0  0  0  0  0
   60.8030   27.8490   49.4500 C   0  0  0  0  0  0  0  0  0  0  0  0
   60.6090   27.8060   48.0680 C   0  0  0  0  0  0  0  0  0  0  0  0
   59.6640   28.6420   47.4610 C   0  0  0  0  0  0  0  0  0  0  0  0
   59.4870   28.6320   45.9660 C   0  0  0  0  0  0  0  0  0  0  0  0
   58.0600   28.2120   45.6040 C   0  0  0  0  0  0  0  0  0  0  0  0
   57.1000   29.2590   45.9650 N   0  0  0  0  0  0  0  0  0  0  0  0
   56.9980   30.4920   44.7390 S   0  0  0  0  0  0  0  0  0  0  0  0
   57.5790   29.9580   43.4610 O   0  0  0  0  0  0  0  0  0  0  0  0
   55.5580   30.8450   44.4930 O   0  0  0  0  0  0  0  0  0  0  0  0
   57.9040   31.9280   45.2120 C   0  0  0  0  0  0  0  0  0  0  0  0
   57.4460   33.2090   44.8760 C   0  0  0  0  0  0  0  0  0  0  0  0
   58.1630   34.3390   45.2770 C   0  0  0  0  0  0  0  0  0  0  0  0
   59.3380   34.1960   46.0200 C   0  0  0  0  0  0  0  0  0  0  0  0
   59.7970   32.9200   46.3730 C   0  0  0  0  0  0  0  0  0  0  0  0
   61.2800   32.7430   47.3080 S   0  0  0  0  0  0  0  0  0  0  0  0
   62.3190   33.7110   46.8080 O   0  0  0  0  0  0  0  0  0  0  0  0
   61.8090   31.3480   47.1340 O   0  0  0  0  0  0  0  0  0  0  0  0
   60.9790   33.0310   48.9940 N   0  0  0  0  0  0  0  0  0  0  0  0
   61.8680   34.0820   49.4880 C   0  0  0  0  0  0  0  0  0  0  0  0
   63.1130   33.4520   50.1360 C   0  0  0  0  0  0  0  0  0  0  0  0
   64.1770   33.1460   49.0670 C   0  0  0  0  0  0  0  0  0  0  0  0
   65.4350   32.5670   49.7260 C   0  0  0  0  0  0  0  0  0  0  0  0
   65.1090   31.4910   50.6740 N   0  0  0  0  0  0  0  0  0  0  0  0
   66.1770   30.8160   51.3650 C   0  0  0  0  0  0  0  0  0  0  0  0
   67.3640   31.2300   51.2500 O   0  0  0  0  0  0  0  0  0  0  0  0
   65.9020   29.7000   52.1620 O   0  0  0  0  0  0  0  0  0  0  0  0
   65.6010   28.4180   51.6210 C   0  0  0  0  0  0  0  0  0  0  0  0
   66.8820   27.7230   51.2650 C   0  0  0  0  0  0  0  0  0  0  0  0
   67.3190   26.6190   52.0160 C   0  0  0  0  0  0  0  0  0  0  0  0
   68.4880   25.9430   51.6570 C   0  0  0  0  0  0  0  0  0  0  0  0
   69.2210   26.3550   50.5400 C   0  0  0  0  0  0  0  0  0  0  0  0
   68.7840   27.4420   49.7790 C   0  0  0  0  0  0  0  0  0  0  0  0
   67.6150   28.1220   50.1350 C   0  0  0  0  0  0  0  0  0  0  0  0
   63.7230   31.0160   50.7960 C   0  0  0  0  0  0  0  0  0  0  0  0
   62.7470   32.1920   50.9710 C   0  0  0  0  0  0  0  0  0  0  0  0
   59.0800   31.7870   45.9620 C   0  0  0  0  0  0  0  0  0  0  0  0
   58.9310   29.5420   48.2490 C   0  0  0  0  0  0  0  0  0  0  0  0
   59.1240   29.5940   49.6430 C   0  0  0  0  0  0  0  0  0  0  0  0
   58.4060   30.4820   50.4600 O   0  0  0  0  0  0  0  0  0  0  0  0
   58.4560   31.9010   50.3500 C   0  0  0  0  0  0  0  0  0  0  0  0
   60.6865   29.7778   53.4129 H   0  0  0  0  0  0  0  0  0  0  0  0
   61.8204   30.0758   52.0519 H   0  0  0  0  0  0  0  0  0  0  0  0
   60.1960   30.8426   52.0519 H   0  0  0  0  0  0  0  0  0  0  0  0
   61.5395   27.1801   49.9191 H   0  0  0  0  0  0  0  0  0  0  0  0
   61.2013   27.1122   47.4533 H   0  0  0  0  0  0  0  0  0  0  0  0
   59.6801   29.6402   45.5707 H   0  0  0  0  0  0  0  0  0  0  0  0
   60.1945   27.9136   45.5262 H   0  0  0  0  0  0  0  0  0  0  0  0
   58.0023   28.0282   44.5210 H   0  0  0  0  0  0  0  0  0  0  0  0
   57.8100   27.2978   46.1623 H   0  0  0  0  0  0  0  0  0  0  0  0
   56.5193   33.3252   44.2949 H   0  0  0  0  0  0  0  0  0  0  0  0
   57.8022   35.3426   45.0076 H   0  0  0  0  0  0  0  0  0  0  0  0
   59.9039   35.0874   46.3285 H   0  0  0  0  0  0  0  0  0  0  0  0
   62.1778   34.7221   48.6488 H   0  0  0  0  0  0  0  0  0  0  0  0
   61.3349   34.6848   50.2379 H   0  0  0  0  0  0  0  0  0  0  0  0
   63.5423   34.1805   50.8395 H   0  0  0  0  0  0  0  0  0  0  0  0
   63.7730   32.4160   48.3501 H   0  0  0  0  0  0  0  0  0  0  0  0
   64.4405   34.0774   48.5444 H   0  0  0  0  0  0  0  0  0  0  0  0
   66.0939   32.1640   48.9428 H   0  0  0  0  0  0  0  0  0  0  0  0
   65.9317   33.3749   50.2834 H   0  0  0  0  0  0  0  0  0  0  0  0
   65.0537   27.8227   52.3667 H   0  0  0  0  0  0  0  0  0  0  0  0
   64.9785   28.5320   50.7213 H   0  0  0  0  0  0  0  0  0  0  0  0
   66.7391   26.2858   52.8893 H   0  0  0  0  0  0  0  0  0  0  0  0
   68.8320   25.0855   52.2540 H   0  0  0  0  0  0  0  0  0  0  0  0
   70.1423   25.8230   50.2602 H   0  0  0  0  0  0  0  0  0  0  0  0
   69.3601   27.7634   48.8988 H   0  0  0  0  0  0  0  0  0  0  0  0
   67.2685   28.9717   49.5285 H   0  0  0  0  0  0  0  0  0  0  0  0
   63.4534   30.4578   49.8873 H   0  0  0  0  0  0  0  0  0  0  0  0
   63.6526   30.3691   51.6829 H   0  0  0  0  0  0  0  0  0  0  0  0
   61.7442   31.8564   50.6681 H   0  0  0  0  0  0  0  0  0  0  0  0
   62.7948   32.4885   52.0292 H   0  0  0  0  0  0  0  0  0  0  0  0
   59.4419   30.7832   46.2293 H   0  0  0  0  0  0  0  0  0  0  0  0
   58.1996   30.2125   47.7741 H   0  0  0  0  0  0  0  0  0  0  0  0
   58.4717   32.3464   51.3557 H   0  0  0  0  0  0  0  0  0  0  0  0
   59.3651   32.1947   49.8047 H   0  0  0  0  0  0  0  0  0  0  0  0
   57.5699   32.2579   49.8047 H   0  0  0  0  0  0  0  0  0  0  0  0
  1  2  1  0
  2  3  1  0
  3  4  2  0
  4  5  1  0
  5  6  2  0
  6  7  1  0
  7  8  1  0
  8  9  1  0
  9 10  1  0
 10 11  2  0
 10 12  2  0
 10 13  1  0
 13 14  2  0
 14 15  1  0
 15 16  2  0
 16 17  1  0
 17 18  1  0
 18 19  2  0
 18 20  2  0
 18 21  1  0
 21 22  1  0
 22 23  1  0
 23 24  1  0
 24 25  1  0
 25 26  1  0
 26 27  1  0
 27 28  2  0
 27 29  1  0
 29 30  1  0
 30 31  1  0
 31 32  2  0
 32 33  1  0
 33 34  2  0
 34 35  1  0
 35 36  2  0
 26 37  1  0
 37 38  1  0
 17 39  2  0
  6 40  1  0
 40 41  2  0
 41 42  1  0
 42 43  1  0
 41  3  1  0
 39 13  1  0
 38 23  1  0
 36 31  1  0
  1 44  1  0
  1 45  1  0
  1 46  1  0
  4 47  1  0
  5 48  1  0
  7 49  1  0
  7 50  1  0
  8 51  1  0
  8 52  1  0
 14 53  1  0
 15 54  1  0
 16 55  1  0
 22 56  1  0
 22 57  1  0
 23 58  1  0
 24 59  1  0
 24 60  1  0
 25 61  1  0
 25 62  1  0
 30 63  1  0
 30 64  1  0
 32 65  1  0
 33 66  1  0
 34 67  1  0
 35 68  1  0
 36 69  1  0
 37 70  1  0
 37 71  1  0
 38 72  1  0
 38 73  1  0
 39 74  1  0
 40 75  1  0
 43 76  1  0
 43 77  1  0
 43 78  1  0
M  CHG  2   9  -1  21  -1
M  END
>  <UniqueID>  (16) 
16

>  <SMILES>  (16) 
COc1ccc(CC[N-]S(=O)(=O)c2cccc(S(=O)(=O)[N-]CC3CCN(C(=O)OCc4ccccc4)CC3)c2)cc1OC

>  <Energy>  (16) 
71.91985657123539

>  <Genealogy>  (16) 
COc1ccc(CC[N-]S(=O)(=O)c2cccc(S(=O)(=O)[N-]CC3CCN(C(=O)OCc4ccccc4)CC3)c2)cc1OC (protonated)
COc1ccc(CC[N-]S(=O)(=O)c2cccc(S(=O)(=O)[N-]CC3CCN(C(=O)OCc4ccccc4)CC3)c2)cc1OC (3D coordinates assigned)
COc1ccc(CC[N-]S(=O)(=O)c2cccc(S(=O)(=O)[N-]CC3CCN(C(=O)OCc4ccccc4)CC3)c2)cc1OC (nonaromatic ring conformer: 71.91985657123539 kcal/mol)

>  <smiles>  (16) 
COc1ccc(CCNS(=O)(=O)c2cccc(S(=O)(=O)NCC3CCN(C(=O)OCc4ccccc4)CC3)c2)cc1OC

>  <score_type>  (16) 
oracle

>  <origin>  (16) 
adg

>  <m_score__min__energy>  (16) 
-13.33

>  <m_primary>  (16) 
energy

$$$$
16:0
     RDKit          3D

 58 60  0  0  1  0  0  0  0  0999 V2000
   61.1160   29.0810   50.6360 C   0  0  0  0  0  0  0  0  0  0  0  0
   60.9590   29.4810   49.3880 C   0  0  0  0  0  0  0  0  0  0  0  0
   59.8840   29.0000   48.5320 C   0  0  0  0  0  0  0  0  0  0  0  0
   58.7790   29.6200   48.4080 O   0  0  0  0  0  0  0  0  0  0  0  0
   59.9880   27.7940   47.7690 N   0  0  0  0  0  0  0  0  0  0  0  0
   58.9430   27.3210   46.9340 C   0  0  0  0  0  0  0  0  0  0  0  0
   58.0900   26.3540   47.4460 C   0  0  0  0  0  0  0  0  0  0  0  0
   57.0790   25.9060   46.6180 C   0  0  0  0  0  0  0  0  0  0  0  0
   56.2310   24.9390   47.1410 O   0  0  0  0  0  0  0  0  0  0  0  0
   55.9230   23.7340   46.5440 C   0  0  0  0  0  0  0  0  0  0  0  0
   57.0220   22.7320   46.6490 C   0  0  0  0  0  0  0  0  0  0  0  0
   57.3400   22.2160   47.8500 O   0  0  0  0  0  0  0  0  0  0  0  0
   56.3670   22.2780   48.8090 C   0  0  0  0  0  0  0  0  0  0  0  0
   56.8900   26.3730   45.3350 C   0  0  0  0  0  0  0  0  0  0  0  0
   61.6970   33.5520   46.4710 C   0  0  0  0  0  0  0  0  0  0  0  0
   60.7380   33.3030   47.4370 C   0  0  0  0  0  0  0  0  0  0  0  0
   59.7020   28.8000   45.2110 N   0  0  0  0  0  0  0  0  0  0  0  0
   59.3100   30.0240   45.1900 C   0  0  0  0  0  0  0  0  0  0  0  0
   58.5930   30.4280   44.1080 N   0  0  0  0  0  0  0  0  0  0  0  0
   58.1310   31.6710   43.9670 C   0  0  0  0  0  0  0  0  0  0  0  0
   58.4030   32.5780   44.9850 C   0  0  0  0  0  0  0  0  0  0  0  0
   57.8520   34.2400   44.9220 Cl  0  0  0  0  0  0  0  0  0  0  0  0
   59.1290   32.1840   46.0930 C   0  0  0  0  0  0  0  0  0  0  0  0
   59.3850   33.0260   47.0400 N   0  0  0  0  0  0  0  0  0  0  0  0
   58.7740   27.8100   45.6410 C   0  0  0  0  0  0  0  0  0  0  0  0
   57.7520   27.3360   44.8480 C   0  0  0  0  0  0  0  0  0  0  0  0
   63.0120   33.8230   46.7790 C   0  0  0  0  0  0  0  0  0  0  0  0
   63.3700   33.8420   48.1230 C   0  0  0  0  0  0  0  0  0  0  0  0
   62.4260   33.5950   49.1060 C   0  0  0  0  0  0  0  0  0  0  0  0
   61.1120   33.3250   48.7670 C   0  0  0  0  0  0  0  0  0  0  0  0
   59.9070   33.0100   50.0200 S   0  0  0  0  0  0  0  0  0  0  0  0
   58.7050   31.9780   49.3260 N   0  0  0  0  0  0  0  0  0  0  0  0
   59.2730   34.2770   50.5120 O   0  0  0  0  0  0  0  0  0  0  0  0
   60.5780   32.3540   51.1820 O   0  0  0  0  0  0  0  0  0  0  0  0
   59.5640   30.9130   46.1640 N   0  0  0  0  0  0  0  0  0  0  0  0
   61.9461   29.4763   51.2400 H   0  0  0  0  0  0  0  0  0  0  0  0
   60.4168   28.3524   51.0721 H   0  0  0  0  0  0  0  0  0  0  0  0
   61.6722   30.2103   48.9763 H   0  0  0  0  0  0  0  0  0  0  0  0
   60.8560   27.2200   47.8080 H   0  0  0  0  0  0  0  0  0  0  0  0
   58.2133   25.9614   48.4661 H   0  0  0  0  0  0  0  0  0  0  0  0
   55.0259   23.3220   47.0293 H   0  0  0  0  0  0  0  0  0  0  0  0
   55.7589   23.9302   45.4742 H   0  0  0  0  0  0  0  0  0  0  0  0
   56.7462   21.8867   46.0014 H   0  0  0  0  0  0  0  0  0  0  0  0
   57.9188   23.3047   46.3703 H   0  0  0  0  0  0  0  0  0  0  0  0
   56.8319   22.2484   49.8055 H   0  0  0  0  0  0  0  0  0  0  0  0
   55.8003   23.2141   48.6964 H   0  0  0  0  0  0  0  0  0  0  0  0
   55.6861   21.4214   48.6964 H   0  0  0  0  0  0  0  0  0  0  0  0
   56.0698   25.9868   44.7120 H   0  0  0  0  0  0  0  0  0  0  0  0
   61.3967   33.5327   45.4130 H   0  0  0  0  0  0  0  0  0  0  0  0
   58.3910   29.7430   43.3440 H   0  0  0  0  0  0  0  0  0  0  0  0
   57.5557   31.9679   43.0777 H   0  0  0  0  0  0  0  0  0  0  0  0
   57.6225   27.7245   43.8271 H   0  0  0  0  0  0  0  0  0  0  0  0
   63.7531   34.0176   45.9897 H   0  0  0  0  0  0  0  0  0  0  0  0
   64.4111   34.0549   48.4074 H   0  0  0  0  0  0  0  0  0  0  0  0
   62.7234   33.6136   50.1649 H   0  0  0  0  0  0  0  0  0  0  0  0
   58.5480   31.1460   49.9100 H   0  0  0  0  0  0  0  0  0  0  0  0
   58.9360   31.7660   48.3320 H   0  0  0  0  0  0  0  0  0  0  0  0
   60.1130   30.6120   47.0010 H   0  0  0  0  0  0  0  0  0  0  0  0
  1  2  2  0
  2  3  1  0
  3  4  2  0
  3  5  1  0
  5  6  1  0
  6  7  2  0
  7  8  1  0
  8  9  1  0
  9 10  1  0
 10 11  1  0
 11 12  1  0
 12 13  1  0
  8 14  2  0
 14 15  1  0
 15 16  2  0
 16 17  1  0
 17 18  2  0
 18 19  1  0
 19 20  1  0
 20 21  2  0
 21 22  1  0
 21 23  1  0
 23 24  2  0
 24 25  1  0
 25 26  2  0
 26 27  1  0
 27 28  2  0
 28 29  1  0
 29 30  2  0
 30 31  1  0
 31 32  1  0
 31 33  2  0
 31 34  2  0
 23 35  1  0
 16  6  1  0
 35 18  1  0
 30 25  1  0
  1 36  1  0
  1 37  1  0
  2 38  1  0
  5 39  1  0
  7 40  1  0
 10 41  1  0
 10 42  1  0
 11 43  1  0
 11 44  1  0
 13 45  1  0
 13 46  1  0
 13 47  1  0
 14 48  1  0
 15 49  1  0
 19 50  1  0
 20 51  1  0
 26 52  1  0
 27 53  1  0
 28 54  1  0
 29 55  1  0
 32 56  1  0
 32 57  1  0
 35 58  1  0
M  END
>  <smiles>  (17) 
C=CC(=O)Nc1cc(OCCOC)ccc1N=c1[nH]cc(Cl)c(=Nc2ccccc2S(N)(=O)=O)[nH]1

>  <score_type>  (17) 
oracle

>  <origin>  (17) 
adg

>  <m_score__min__energy>  (17) 
-9.8599999999999994

>  <m_primary>  (17) 
energy

$$$$
17:0
     RDKit          3D

 51 53  0  0  0  0  0  0  0  0999 V2000
   55.8330   24.1600   44.4770 C   0  0  0  0  0  0  0  0  0  0  0  0
   55.1810   24.8210   45.6530 C   0  0  0  0  0  0  0  0  0  0  0  0
   54.3730   24.1590   46.3540 O   0  0  0  0  0  0  0  0  0  0  0  0
   55.4810   26.1730   46.0270 N   0  0  0  0  0  0  0  0  0  0  0  0
   56.6410   26.9260   45.6490 C   0  0  0  0  0  0  0  0  0  0  0  0
   57.9130   26.3430   45.6040 C   0  0  0  0  0  0  0  0  0  0  0  0
   59.0150   27.0950   45.2010 C   0  0  0  0  0  0  0  0  0  0  0  0
   58.8700   28.4320   44.8130 C   0  0  0  0  0  0  0  0  0  0  0  0
   60.0240   29.1080   44.4130 O   0  0  0  0  0  0  0  0  0  0  0  0
   57.5810   29.0290   44.8310 C   0  0  0  0  0  0  0  0  0  0  0  0
   57.2730   30.7180   44.3640 S   0  0  0  0  0  0  0  0  0  0  0  0
   55.8880   30.8790   43.8050 O   0  0  0  0  0  0  0  0  0  0  0  0
   58.2340   31.0940   43.2680 O   0  0  0  0  0  0  0  0  0  0  0  0
   57.5070   31.8120   45.7090 N   0  0  0  0  0  0  0  0  0  0  0  0
   58.1320   33.0880   45.2750 C   0  0  0  0  0  0  0  0  0  0  0  0
   59.5470   33.3100   45.8310 C   0  0  0  0  0  0  0  0  0  0  0  0
   59.5500   33.1220   47.2860 N   0  0  0  0  0  0  0  0  0  0  0  0
   60.4550   33.8550   48.1330 C   0  0  0  0  0  0  0  0  0  0  0  0
   60.1050   34.1530   49.3070 O   0  0  0  0  0  0  0  0  0  0  0  0
   61.8470   34.2060   47.6830 C   0  0  0  0  0  0  0  0  0  0  0  0
   62.8430   33.7550   48.7220 C   0  0  0  0  0  0  0  0  0  0  0  0
   62.9070   34.4180   49.9610 C   0  0  0  0  0  0  0  0  0  0  0  0
   63.8530   34.0350   50.9180 C   0  0  0  0  0  0  0  0  0  0  0  0
   63.9100   34.6800   52.1090 F   0  0  0  0  0  0  0  0  0  0  0  0
   64.7460   32.9930   50.6420 C   0  0  0  0  0  0  0  0  0  0  0  0
   64.6970   32.3380   49.4080 C   0  0  0  0  0  0  0  0  0  0  0  0
   63.7550   32.7180   48.4460 C   0  0  0  0  0  0  0  0  0  0  0  0
   63.7370   32.0780   47.2480 F   0  0  0  0  0  0  0  0  0  0  0  0
   58.6540   32.1280   47.8850 C   0  0  0  0  0  0  0  0  0  0  0  0
   58.1970   31.1290   46.8200 C   0  0  0  0  0  0  0  0  0  0  0  0
   56.4810   28.2550   45.2410 C   0  0  0  0  0  0  0  0  0  0  0  0
   56.5642   23.4187   44.8319 H   0  0  0  0  0  0  0  0  0  0  0  0
   55.0673   23.6573   43.8679 H   0  0  0  0  0  0  0  0  0  0  0  0
   56.3462   24.9187   43.8679 H   0  0  0  0  0  0  0  0  0  0  0  0
   58.0431   25.2882   45.8876 H   0  0  0  0  0  0  0  0  0  0  0  0
   60.0125   26.6314   45.1877 H   0  0  0  0  0  0  0  0  0  0  0  0
   60.0330   29.9170   43.8100 H   0  0  0  0  0  0  0  0  0  0  0  0
   58.1875   33.0902   44.1764 H   0  0  0  0  0  0  0  0  0  0  0  0
   57.5037   33.9008   45.6683 H   0  0  0  0  0  0  0  0  0  0  0  0
   60.2371   32.5886   45.3691 H   0  0  0  0  0  0  0  0  0  0  0  0
   59.8691   34.3359   45.5990 H   0  0  0  0  0  0  0  0  0  0  0  0
   62.0609   33.7033   46.7282 H   0  0  0  0  0  0  0  0  0  0  0  0
   61.9246   35.2953   47.5509 H   0  0  0  0  0  0  0  0  0  0  0  0
   62.2103   35.2410   50.1784 H   0  0  0  0  0  0  0  0  0  0  0  0
   65.4867   32.6894   51.3965 H   0  0  0  0  0  0  0  0  0  0  0  0
   65.4015   31.5211   49.1927 H   0  0  0  0  0  0  0  0  0  0  0  0
   59.1868   31.5912   48.6837 H   0  0  0  0  0  0  0  0  0  0  0  0
   57.7742   32.6392   48.3029 H   0  0  0  0  0  0  0  0  0  0  0  0
   59.0760   30.5988   46.4247 H   0  0  0  0  0  0  0  0  0  0  0  0
   57.4940   30.4219   47.2845 H   0  0  0  0  0  0  0  0  0  0  0  0
   55.4761   28.7024   45.2410 H   0  0  0  0  0  0  0  0  0  0  0  0
  1  2  1  0
  2  3  2  0
  2  4  1  0
  4  5  1  0
  5  6  2  0
  6  7  1  0
  7  8  2  0
  8  9  1  0
  8 10  1  0
 10 11  1  0
 11 12  2  0
 11 13  2  0
 11 14  1  0
 14 15  1  0
 15 16  1  0
 16 17  1  0
 17 18  1  0
 18 19  2  0
 18 20  1  0
 20 21  1  0
 21 22  2  0
 22 23  1  0
 23 24  1  0
 23 25  2  0
 25 26  1  0
 26 27  2  0
 27 28  1  0
 17 29  1  0
 29 30  1  0
 10 31  2  0
 31  5  1  0
 30 14  1  0
 27 21  1  0
  1 32  1  0
  1 33  1  0
  1 34  1  0
  6 35  1  0
  7 36  1  0
  9 37  1  0
 15 38  1  0
 15 39  1  0
 16 40  1  0
 16 41  1  0
 20 42  1  0
 20 43  1  0
 22 44  1  0
 25 45  1  0
 26 46  1  0
 29 47  1  0
 29 48  1  0
 30 49  1  0
 30 50  1  0
 31 51  1  0
M  CHG  1   4  -1
M  END
>  <UniqueID>  (18) 
17

>  <SMILES>  (18) 
CC(=O)[N-]c1ccc(O)c(S(=O)(=O)N2CCN(C(=O)Cc3cc(F)ccc3F)CC2)c1

>  <Energy>  (18) 
64.77511937834208

>  <Genealogy>  (18) 
CC(=O)[N-]c1ccc(O)c(S(=O)(=O)N2CCN(C(=O)Cc3cc(F)ccc3F)CC2)c1 (protonated)
CC(=O)[N-]c1ccc(O)c(S(=O)(=O)N2CCN(C(=O)Cc3cc(F)ccc3F)CC2)c1 (3D coordinates assigned)
CC(=O)[N-]c1ccc(O)c(S(=O)(=O)N2CCN(C(=O)Cc3cc(F)ccc3F)CC2)c1 (nonaromatic ring conformer: 64.77511937834208 kcal/mol)

>  <smiles>  (18) 
CC(=O)Nc1ccc(O)c(S(=O)(=O)N2CCN(C(=O)Cc3cc(F)ccc3F)CC2)c1

>  <score_type>  (18) 
oracle

>  <origin>  (18) 
adg

>  <m_score__min__energy>  (18) 
-10.34

>  <m_primary>  (18) 
energy

$$$$
18:0
     RDKit          3D

 52 56  0  0  0  0  0  0  0  0999 V2000
   59.6750   35.6027   48.4919 H   0  0  0  0  0  0  0  0  0  0  0  0
   59.9420   34.5970   48.1350 C   0  0  0  0  0  0  0  0  0  0  0  0
   59.8770   33.5060   49.0080 C   0  0  0  0  0  0  0  0  0  0  0  0
   59.5437   33.6510   50.0462 H   0  0  0  0  0  0  0  0  0  0  0  0
   60.2360   32.2310   48.5600 C   0  0  0  0  0  0  0  0  0  0  0  0
   60.1645   31.3700   49.2409 H   0  0  0  0  0  0  0  0  0  0  0  0
   60.6870   32.0470   47.2450 C   0  0  0  0  0  0  0  0  0  0  0  0
   60.9590   30.7270   46.7730 N   0  0  0  0  0  0  0  0  0  0  0  0
   60.1740   29.6840   46.7370 C   0  0  0  0  0  0  0  0  0  0  0  0
   60.6970   28.4380   46.8530 N   0  0  0  0  0  0  0  0  0  0  0  0
   59.6280   27.6390   46.7290 C   0  0  0  0  0  0  0  0  0  0  0  0
   59.6120   26.2490   46.7570 C   0  0  0  0  0  0  0  0  0  0  0  0
   60.5366   25.6749   46.9169 H   0  0  0  0  0  0  0  0  0  0  0  0
   58.3800   25.6000   46.5750 C   0  0  0  0  0  0  0  0  0  0  0  0
   58.3358   24.5011   46.5946 H   0  0  0  0  0  0  0  0  0  0  0  0
   57.1910   26.3470   46.3660 C   0  0  0  0  0  0  0  0  0  0  0  0
   55.8960   25.6520   46.1750 C   0  0  0  0  0  0  0  0  0  0  0  0
   54.8430   26.3220   45.9870 O   0  0  0  0  0  0  0  0  0  0  0  0
   55.8480   24.2180   46.1530 N   0  0  0  0  0  0  0  0  0  0  0  0
   56.3240   23.3640   45.1020 C   0  0  0  0  0  0  0  0  0  0  0  0
   55.8130   23.4420   43.7930 C   0  0  0  0  0  0  0  0  0  0  0  0
   55.0394   24.1852   43.5498 H   0  0  0  0  0  0  0  0  0  0  0  0
   56.2860   22.5770   42.8000 C   0  0  0  0  0  0  0  0  0  0  0  0
   55.8951   22.6516   41.7745 H   0  0  0  0  0  0  0  0  0  0  0  0
   57.2550   21.6180   43.1100 C   0  0  0  0  0  0  0  0  0  0  0  0
   57.6286   20.9411   42.3275 H   0  0  0  0  0  0  0  0  0  0  0  0
   57.7490   21.5190   44.4130 C   0  0  0  0  0  0  0  0  0  0  0  0
   58.5079   20.7606   44.6558 H   0  0  0  0  0  0  0  0  0  0  0  0
   57.2810   22.3820   45.4100 C   0  0  0  0  0  0  0  0  0  0  0  0
   57.7770   22.2820   46.6700 F   0  0  0  0  0  0  0  0  0  0  0  0
   57.2530   27.7620   46.3440 C   0  0  0  0  0  0  0  0  0  0  0  0
   56.3470   28.3635   46.1787 H   0  0  0  0  0  0  0  0  0  0  0  0
   58.4970   28.3760   46.5380 C   0  0  0  0  0  0  0  0  0  0  0  0
   58.8140   29.6910   46.5450 N   0  0  0  0  0  0  0  0  0  0  0  0
   57.8780   30.8080   46.3240 C   0  0  0  0  0  0  0  0  0  0  0  0
   56.9354   30.5876   46.8464 H   0  0  0  0  0  0  0  0  0  0  0  0
   58.3497   31.7227   46.7124 H   0  0  0  0  0  0  0  0  0  0  0  0
   57.5810   31.0290   44.8600 C   0  0  0  0  0  0  0  0  0  0  0  0
   56.8290   30.0710   44.1570 C   0  0  0  0  0  0  0  0  0  0  0  0
   56.4525   29.1799   44.6807 H   0  0  0  0  0  0  0  0  0  0  0  0
   56.5570   30.2440   42.7970 C   0  0  0  0  0  0  0  0  0  0  0  0
   55.9512   29.5002   42.2586 H   0  0  0  0  0  0  0  0  0  0  0  0
   57.0540   31.3610   42.1210 C   0  0  0  0  0  0  0  0  0  0  0  0
   56.8286   31.5034   41.0538 H   0  0  0  0  0  0  0  0  0  0  0  0
   57.8380   32.2980   42.8010 C   0  0  0  0  0  0  0  0  0  0  0  0
   58.2406   33.1698   42.2644 H   0  0  0  0  0  0  0  0  0  0  0  0
   58.1110   32.1290   44.1610 C   0  0  0  0  0  0  0  0  0  0  0  0
   58.7431   32.8593   44.6874 H   0  0  0  0  0  0  0  0  0  0  0  0
   60.7000   33.1350   46.3580 C   0  0  0  0  0  0  0  0  0  0  0  0
   60.9888   32.9840   45.3074 H   0  0  0  0  0  0  0  0  0  0  0  0
   60.3460   34.4110   46.8090 C   0  0  0  0  0  0  0  0  0  0  0  0
   60.3854   35.2681   46.1207 H   0  0  0  0  0  0  0  0  0  0  0  0
  1  2  1  0
  2  3  2  0
  3  4  1  0
  3  5  1  0
  5  6  1  0
  5  7  2  0
  7  8  1  0
  8  9  2  0
  9 10  1  0
 10 11  1  0
 11 12  2  0
 12 13  1  0
 12 14  1  0
 14 15  1  0
 14 16  2  0
 16 17  1  0
 17 18  2  0
 17 19  1  0
 19 20  1  0
 20 21  2  0
 21 22  1  0
 21 23  1  0
 23 24  1  0
 23 25  2  0
 25 26  1  0
 25 27  1  0
 27 28  1  0
 27 29  2  0
 29 30  1  0
 16 31  1  0
 31 32  1  0
 31 33  2  0
 33 34  1  0
 34 35  1  0
 35 36  1  0
 35 37  1  0
 35 38  1  0
 38 39  2  0
 39 40  1  0
 39 41  1  0
 41 42  1  0
 41 43  2  0
 43 44  1  0
 43 45  1  0
 45 46  1  0
 45 47  2  0
 47 48  1  0
  7 49  1  0
 49 50  1  0
 49 51  2  0
 51 52  1  0
 51  2  1  0
 34  9  1  0
 47 38  1  0
 33 11  1  0
 29 20  1  0
M  CHG  2  10  -1  19  -1
M  END
>  <UniqueID>  (19) 
18

>  <SMILES>  (19) 
O=C([N-]c1ccccc1F)c1ccc2[n-]/c(=N/c3ccccc3)n(Cc3ccccc3)c2c1

>  <Energy>  (19) 
114.16291454528438

>  <Genealogy>  (19) 
O=C([N-]c1ccccc1F)c1ccc2[n-]c(=Nc3ccccc3)n(Cc3ccccc3)c2c1 (protonated)
O=C([N-]c1ccccc1F)c1ccc2[n-]/c(=N/c3ccccc3)n(Cc3ccccc3)c2c1 (cis-trans isomerization)
O=C([N-]c1ccccc1F)c1ccc2[n-]/c(=N/c3ccccc3)n(Cc3ccccc3)c2c1 (3D coordinates assigned)
O=C([N-]c1ccccc1F)c1ccc2[n-]/c(=N/c3ccccc3)n(Cc3ccccc3)c2c1 (optimized conformer: 114.16291454528438 kcal/mol)

>  <smiles>  (19) 
O=C(Nc1ccccc1F)c1ccc2[nH]c(=Nc3ccccc3)n(Cc3ccccc3)c2c1

>  <score_type>  (19) 
oracle

>  <origin>  (19) 
adg

>  <m_score__min__energy>  (19) 
-12.550000000000001

>  <m_primary>  (19) 
energy

$$$$
19:0
     RDKit          3D

 73 77  0  0  0  0  0  0  0  0999 V2000
   66.3610   35.2040   52.5700 H   0  0  0  0  0  0  0  0  0  0  0  0
   65.3900   35.4170   52.2490 N   0  0  0  0  0  0  0  0  0  0  0  0
   64.7050   34.5650   51.5540 C   0  0  0  0  0  0  0  0  0  0  0  0
   63.4420   34.8780   51.1570 N   0  0  0  0  0  0  0  0  0  0  0  0
   62.6810   34.0210   50.4300 C   0  0  0  0  0  0  0  0  0  0  0  0
   61.6606   34.3085   50.1366 H   0  0  0  0  0  0  0  0  0  0  0  0
   63.1910   32.7690   50.0510 C   0  0  0  0  0  0  0  0  0  0  0  0
   62.3700   31.8240   49.2540 C   0  0  0  0  0  0  0  0  0  0  0  0
   62.3750   31.8760   47.8520 C   0  0  0  0  0  0  0  0  0  0  0  0
   63.0020   32.6159   47.3329 H   0  0  0  0  0  0  0  0  0  0  0  0
   61.5880   30.9930   47.1150 C   0  0  0  0  0  0  0  0  0  0  0  0
   61.5930   31.0356   46.0158 H   0  0  0  0  0  0  0  0  0  0  0  0
   60.7880   30.0480   47.7800 C   0  0  0  0  0  0  0  0  0  0  0  0
   59.9170   29.0810   46.9990 C   0  0  2  0  0  0  0  0  0  0  0  0
   58.8907   29.1541   47.3880 H   0  0  0  0  0  0  0  0  0  0  0  0
   60.3780   27.6270   47.2140 C   0  0  0  0  0  0  0  0  0  0  0  0
   61.3925   27.5076   46.8059 H   0  0  0  0  0  0  0  0  0  0  0  0
   60.3680   27.4129   48.2929 H   0  0  0  0  0  0  0  0  0  0  0  0
   59.4330   26.6370   46.5100 C   0  0  0  0  0  0  0  0  0  0  0  0
   59.9292   25.6564   46.4638 H   0  0  0  0  0  0  0  0  0  0  0  0
   58.5023   26.6092   47.0956 H   0  0  0  0  0  0  0  0  0  0  0  0
   59.0470   27.0620   45.0610 C   0  0  1  0  0  0  0  0  0  0  0  0
   59.2860   26.1944   44.4284 H   0  0  0  0  0  0  0  0  0  0  0  0
   57.5630   27.3510   44.9210 C   0  0  0  0  0  0  0  0  0  0  0  0
   56.7260   26.4830   45.2920 O   0  0  0  0  0  0  0  0  0  0  0  0
   57.0880   28.6130   44.4160 N   0  0  0  0  0  0  0  0  0  0  0  0
   57.0230   28.9740   43.0090 C   0  0  0  0  0  0  0  0  0  0  0  0
   57.9857   28.7734   42.5160 H   0  0  0  0  0  0  0  0  0  0  0  0
   56.2601   28.3901   42.4732 H   0  0  0  0  0  0  0  0  0  0  0  0
   56.7130   30.4650   42.9840 C   0  0  0  0  0  0  0  0  0  0  0  0
   57.6319   31.0457   42.8156 H   0  0  0  0  0  0  0  0  0  0  0  0
   56.0170   30.7230   42.1723 H   0  0  0  0  0  0  0  0  0  0  0  0
   56.1240   30.7840   44.3580 C   0  0  2  0  0  0  0  0  0  0  0  0
   55.0241   30.7942   44.3520 H   0  0  0  0  0  0  0  0  0  0  0  0
   56.5410   32.0720   44.7780 O   0  0  0  0  0  0  0  0  0  0  0  0
   57.9180   32.2710   44.5180 C   0  0  0  0  0  0  0  0  0  0  0  0
   58.4153   31.2939   44.4292 H   0  0  0  0  0  0  0  0  0  0  0  0
   58.0269   32.8361   43.5806 H   0  0  0  0  0  0  0  0  0  0  0  0
   58.5540   33.0520   45.6370 C   0  0  0  0  0  0  0  0  0  0  0  0
   59.2350   34.2500   45.3580 C   0  0  0  0  0  0  0  0  0  0  0  0
   59.3304   34.5973   44.3186 H   0  0  0  0  0  0  0  0  0  0  0  0
   59.7920   35.0020   46.3990 C   0  0  0  0  0  0  0  0  0  0  0  0
   60.3294   35.9355   46.1758 H   0  0  0  0  0  0  0  0  0  0  0  0
   59.6660   34.5680   47.7220 C   0  0  0  0  0  0  0  0  0  0  0  0
   60.1013   35.1616   48.5394 H   0  0  0  0  0  0  0  0  0  0  0  0
   58.9870   33.3800   48.0060 C   0  0  0  0  0  0  0  0  0  0  0  0
   58.8886   33.0393   49.0473 H   0  0  0  0  0  0  0  0  0  0  0  0
   58.4320   32.6230   46.9680 C   0  0  0  0  0  0  0  0  0  0  0  0
   57.8983   31.6885   47.1959 H   0  0  0  0  0  0  0  0  0  0  0  0
   56.6680   29.6990   45.2880 C   0  0  0  0  0  0  0  0  0  0  0  0
   57.5230   30.0809   45.8652 H   0  0  0  0  0  0  0  0  0  0  0  0
   55.9117   29.3686   46.0152 H   0  0  0  0  0  0  0  0  0  0  0  0
   59.8790   28.2540   44.5460 C   0  0  0  0  0  0  0  0  0  0  0  0
   60.9232   27.9283   44.4294 H   0  0  0  0  0  0  0  0  0  0  0  0
   59.4393   28.5734   43.5896 H   0  0  0  0  0  0  0  0  0  0  0  0
   59.8460   29.4660   45.4960 C   0  0  0  0  0  0  0  0  0  0  0  0
   60.7034   30.1143   45.2623 H   0  0  0  0  0  0  0  0  0  0  0  0
   58.8826   29.9729   45.3383 H   0  0  0  0  0  0  0  0  0  0  0  0
   60.8000   30.0090   49.1460 N   0  0  0  0  0  0  0  0  0  0  0  0
   60.2130   29.3110   49.6550 H   0  0  0  0  0  0  0  0  0  0  0  0
   61.5610   30.8630   49.8820 C   0  0  0  0  0  0  0  0  0  0  0  0
   61.5426   30.8003   50.9801 H   0  0  0  0  0  0  0  0  0  0  0  0
   64.4940   32.4290   50.4490 C   0  0  0  0  0  0  0  0  0  0  0  0
   64.9173   31.4563   50.1580 H   0  0  0  0  0  0  0  0  0  0  0  0
   65.2630   33.3240   51.2180 C   0  0  0  0  0  0  0  0  0  0  0  0
   66.5650   33.0220   51.6560 O   0  0  0  0  0  0  0  0  0  0  0  0
   67.7090   32.8560   50.8180 C   0  0  0  0  0  0  0  0  0  0  0  0
   68.4376   32.2075   51.3265 H   0  0  0  0  0  0  0  0  0  0  0  0
   67.3884   32.4008   49.8693 H   0  0  0  0  0  0  0  0  0  0  0  0
   68.3610   34.2030   50.5190 C   0  0  0  0  0  0  0  0  0  0  0  0
   68.6062   34.7095   51.4642 H   0  0  0  0  0  0  0  0  0  0  0  0
   69.2818   34.0439   49.9387 H   0  0  0  0  0  0  0  0  0  0  0  0
   67.6650   34.8265   49.9387 H   0  0  0  0  0  0  0  0  0  0  0  0
  1  2  1  0
  2  3  2  0
  3  4  1  0
  4  5  1  0
  5  6  1  0
  5  7  2  0
  7  8  1  0
  8  9  2  0
  9 10  1  0
  9 11  1  0
 11 12  1  0
 11 13  2  0
 13 14  1  0
 14 15  1  1
 14 16  1  0
 16 17  1  0
 16 18  1  0
 16 19  1  0
 19 20  1  0
 19 21  1  0
 19 22  1  0
 22 23  1  6
 22 24  1  0
 24 25  2  0
 24 26  1  0
 26 27  1  0
 27 28  1  0
 27 29  1  0
 27 30  1  0
 30 31  1  0
 30 32  1  0
 30 33  1  0
 33 34  1  6
 33 35  1  0
 35 36  1  0
 36 37  1  0
 36 38  1  0
 36 39  1  0
 39 40  2  0
 40 41  1  0
 40 42  1  0
 42 43  1  0
 42 44  2  0
 44 45  1  0
 44 46  1  0
 46 47  1  0
 46 48  2  0
 48 49  1  0
 33 50  1  0
 50 51  1  0
 50 52  1  0
 22 53  1  0
 53 54  1  0
 53 55  1  0
 53 56  1  0
 56 57  1  0
 56 58  1  0
 13 59  1  0
 59 60  1  0
 59 61  2  0
 61 62  1  0
  7 63  1  0
 63 64  1  0
 63 65  2  0
 65 66  1  0
 66 67  1  0
 67 68  1  0
 67 69  1  0
 67 70  1  0
 70 71  1  0
 70 72  1  0
 70 73  1  0
 65  3  1  0
 61  8  1  0
 56 14  1  0
 50 26  1  0
 48 39  1  0
M  CHG  2   4  -1  59   1
M  END
>  <UniqueID>  (20) 
19

>  <SMILES>  (20) 
[H]/N=c1\[n-]cc(-c2ccc(C3CCC(C(=O)N4CC[C@H](OCc5ccccc5)C4)CC3)[nH+]c2)cc1OCC

>  <Energy>  (20) 
88.90311845784548

>  <Genealogy>  (20) 
CCOc1cc(-c2ccc(C3CCC(C(=O)N4CCC(OCc5ccccc5)C4)CC3)[nH+]c2)c[n-]c1=N (protonated)
CCOc1cc(-c2ccc(C3CCC(C(=O)N4CC[C@H](OCc5ccccc5)C4)CC3)[nH+]c2)c[n-]c1=N (chirality)
[H]/N=c1\[n-]cc(-c2ccc(C3CCC(C(=O)N4CC[C@H](OCc5ccccc5)C4)CC3)[nH+]c2)cc1OCC (cis-trans isomerization)
[H]/N=c1\[n-]cc(-c2ccc(C3CCC(C(=O)N4CC[C@H](OCc5ccccc5)C4)CC3)[nH+]c2)cc1OCC (3D coordinates assigned)
[H]/N=c1\[n-]cc(-c2ccc(C3CCC(C(=O)N4CC[C@H](OCc5ccccc5)C4)CC3)[nH+]c2)cc1OCC (nonaromatic ring conformer: 88.90311845784548 kcal/mol)

>  <smiles>  (20) 
CCOc1cc(-c2ccc(C3CCC(C(=O)N4CCC(OCc5ccccc5)C4)CC3)nc2)c[nH]c1=N

>  <score_type>  (20) 
oracle

>  <origin>  (20) 
adg

>  <m_score__min__energy>  (20) 
-10.01

>  <m_primary>  (20) 
energy

$$$$
20:0
     RDKit          3D

 53 56  0  0  0  0  0  0  0  0999 V2000
   60.3170   31.3890   49.6650 O   0  0  0  0  0  0  0  0  0  0  0  0
   59.6680   31.2800   48.5910 C   0  0  0  0  0  0  0  0  0  0  0  0
   58.6720   32.2650   48.2840 N   0  0  0  0  0  0  0  0  0  0  0  0
   58.6100   33.0690   47.0950 C   0  0  0  0  0  0  0  0  0  0  0  0
   57.6620   32.7420   46.1220 C   0  0  0  0  0  0  0  0  0  0  0  0
   57.5520   33.4980   44.9550 C   0  0  0  0  0  0  0  0  0  0  0  0
   58.3830   34.5990   44.7540 C   0  0  0  0  0  0  0  0  0  0  0  0
   59.3160   34.9560   45.7280 C   0  0  0  0  0  0  0  0  0  0  0  0
   59.4210   34.2140   46.9190 C   0  0  0  0  0  0  0  0  0  0  0  0
   60.3400   34.5770   47.9150 O   0  0  0  0  0  0  0  0  0  0  0  0
   61.6050   34.0060   48.1080 C   0  0  0  0  0  0  0  0  0  0  0  0
   62.2020   33.9370   49.3800 C   0  0  0  0  0  0  0  0  0  0  0  0
   63.4530   33.3320   49.5380 C   0  0  0  0  0  0  0  0  0  0  0  0
   64.1120   32.7870   48.4300 C   0  0  0  0  0  0  0  0  0  0  0  0
   63.5180   32.8420   47.1650 C   0  0  0  0  0  0  0  0  0  0  0  0
   62.2650   33.4430   47.0080 C   0  0  0  0  0  0  0  0  0  0  0  0
   59.9250   30.1250   47.7020 C   0  0  0  0  0  0  0  0  0  0  0  0
   60.4880   30.3110   46.4290 C   0  0  0  0  0  0  0  0  0  0  0  0
   60.7300   29.2130   45.5980 C   0  0  0  0  0  0  0  0  0  0  0  0
   60.4130   27.9230   46.0290 C   0  0  0  0  0  0  0  0  0  0  0  0
   59.8530   27.7190   47.3000 C   0  0  0  0  0  0  0  0  0  0  0  0
   59.5220   26.3260   47.7600 C   0  0  0  0  0  0  0  0  0  0  0  0
   58.0710   26.1340   47.8170 N   0  0  0  0  0  0  0  0  0  0  0  0
   57.4300   25.7030   46.2590 S   0  0  0  0  0  0  0  0  0  0  0  0
   56.0210   25.2070   46.4300 O   0  0  0  0  0  0  0  0  0  0  0  0
   58.2460   24.5970   45.6470 O   0  0  0  0  0  0  0  0  0  0  0  0
   57.4180   27.1080   45.1950 C   0  0  0  0  0  0  0  0  0  0  0  0
   57.8040   26.9700   43.8520 C   0  0  0  0  0  0  0  0  0  0  0  0
   57.7920   28.0800   42.9980 C   0  0  0  0  0  0  0  0  0  0  0  0
   57.3860   29.3290   43.4790 C   0  0  0  0  0  0  0  0  0  0  0  0
   56.9910   29.4700   44.8140 C   0  0  0  0  0  0  0  0  0  0  0  0
   57.0060   28.3630   45.6720 C   0  0  0  0  0  0  0  0  0  0  0  0
   59.6030   28.8250   48.1290 C   0  0  0  0  0  0  0  0  0  0  0  0
   56.9962   31.8803   46.2778 H   0  0  0  0  0  0  0  0  0  0  0  0
   56.8082   33.2249   44.1920 H   0  0  0  0  0  0  0  0  0  0  0  0
   58.3032   35.1864   43.8274 H   0  0  0  0  0  0  0  0  0  0  0  0
   59.9734   35.8226   45.5639 H   0  0  0  0  0  0  0  0  0  0  0  0
   61.6833   34.3601   50.2529 H   0  0  0  0  0  0  0  0  0  0  0  0
   63.9191   33.2845   50.5332 H   0  0  0  0  0  0  0  0  0  0  0  0
   65.0978   32.3151   48.5542 H   0  0  0  0  0  0  0  0  0  0  0  0
   64.0358   32.4130   46.2945 H   0  0  0  0  0  0  0  0  0  0  0  0
   61.7945   33.4739   46.0142 H   0  0  0  0  0  0  0  0  0  0  0  0
   60.7396   31.3248   46.0842 H   0  0  0  0  0  0  0  0  0  0  0  0
   61.1713   29.3656   44.6020 H   0  0  0  0  0  0  0  0  0  0  0  0
   60.6029   27.0632   45.3698 H   0  0  0  0  0  0  0  0  0  0  0  0
   59.9555   25.6001   47.0563 H   0  0  0  0  0  0  0  0  0  0  0  0
   59.9398   26.1758   48.7664 H   0  0  0  0  0  0  0  0  0  0  0  0
   58.1167   25.9872   43.4695 H   0  0  0  0  0  0  0  0  0  0  0  0
   58.1020   27.9694   41.9484 H   0  0  0  0  0  0  0  0  0  0  0  0
   57.3772   30.2005   42.8079 H   0  0  0  0  0  0  0  0  0  0  0  0
   56.6682   30.4519   45.1903 H   0  0  0  0  0  0  0  0  0  0  0  0
   56.6947   28.4768   46.7209 H   0  0  0  0  0  0  0  0  0  0  0  0
   59.1516   28.6726   49.1205 H   0  0  0  0  0  0  0  0  0  0  0  0
  1  2  2  0
  2  3  1  0
  3  4  1  0
  4  5  2  0
  5  6  1  0
  6  7  2  0
  7  8  1  0
  8  9  2  0
  9 10  1  0
 10 11  1  0
 11 12  2  0
 12 13  1  0
 13 14  2  0
 14 15  1  0
 15 16  2  0
  2 17  1  0
 17 18  2  0
 18 19  1  0
 19 20  2  0
 20 21  1  0
 21 22  1  0
 22 23  1  0
 23 24  1  0
 24 25  2  0
 24 26  2  0
 24 27  1  0
 27 28  2  0
 28 29  1  0
 29 30  2  0
 30 31  1  0
 31 32  2  0
 21 33  2  0
  9  4  1  0
 16 11  1  0
 33 17  1  0
 32 27  1  0
  5 34  1  0
  6 35  1  0
  7 36  1  0
  8 37  1  0
 12 38  1  0
 13 39  1  0
 14 40  1  0
 15 41  1  0
 16 42  1  0
 18 43  1  0
 19 44  1  0
 20 45  1  0
 22 46  1  0
 22 47  1  0
 28 48  1  0
 29 49  1  0
 30 50  1  0
 31 51  1  0
 32 52  1  0
 33 53  1  0
M  CHG  2   3  -1  23  -1
M  END
>  <UniqueID>  (21) 
20

>  <SMILES>  (21) 
O=C([N-]c1ccccc1Oc1ccccc1)c1cccc(C[N-]S(=O)(=O)c2ccccc2)c1

>  <Energy>  (21) 
69.81456415045405

>  <Genealogy>  (21) 
O=C([N-]c1ccccc1Oc1ccccc1)c1cccc(C[N-]S(=O)(=O)c2ccccc2)c1 (protonated)
O=C([N-]c1ccccc1Oc1ccccc1)c1cccc(C[N-]S(=O)(=O)c2ccccc2)c1 (3D coordinates assigned)
O=C([N-]c1ccccc1Oc1ccccc1)c1cccc(C[N-]S(=O)(=O)c2ccccc2)c1 (optimized conformer: 69.81456415045405 kcal/mol)

>  <smiles>  (21) 
O=C(Nc1ccccc1Oc1ccccc1)c1cccc(CNS(=O)(=O)c2ccccc2)c1

>  <score_type>  (21) 
oracle

>  <origin>  (21) 
adg

>  <m_score__min__energy>  (21) 
-13.029999999999999

>  <m_primary>  (21) 
energy

$$$$
21:0
     RDKit          3D

 38 39  0  0  0  0  0  0  0  0999 V2000
   60.0910   26.8010   48.3440 C   0  0  0  0  0  0  0  0  0  0  0  0
   59.2960   26.7330   47.1640 O   0  0  0  0  0  0  0  0  0  0  0  0
   58.6760   27.8360   46.5560 C   0  0  0  0  0  0  0  0  0  0  0  0
   59.2850   29.1070   46.5280 C   0  0  0  0  0  0  0  0  0  0  0  0
   58.6430   30.1830   45.9150 C   0  0  0  0  0  0  0  0  0  0  0  0
   57.3770   30.0190   45.3400 C   0  0  0  0  0  0  0  0  0  0  0  0
   56.7170   31.1100   44.6910 N   0  0  0  0  0  0  0  0  0  0  0  0
   57.2770   32.4160   44.4990 C   0  0  0  0  0  0  0  0  0  0  0  0
   57.7890   32.6990   43.3840 O   0  0  0  0  0  0  0  0  0  0  0  0
   57.1710   33.4870   45.5540 C   0  0  0  0  0  0  0  0  0  0  0  0
   58.4600   33.6650   46.3170 C   0  0  0  0  0  0  0  0  0  0  0  0
   59.6240   34.0830   45.6540 C   0  0  0  0  0  0  0  0  0  0  0  0
   60.8230   34.2400   46.3550 C   0  0  0  0  0  0  0  0  0  0  0  0
   60.8860   33.9630   47.7320 C   0  0  0  0  0  0  0  0  0  0  0  0
   62.1220   34.1250   48.4520 N   0  0  0  0  0  0  0  0  0  0  0  0
   63.2120   33.8280   47.9210 O   0  0  0  0  0  0  0  0  0  0  0  0
   62.1220   34.6090   49.7400 O   0  0  0  0  0  0  0  0  0  0  0  0
   59.7240   33.5220   48.3900 C   0  0  0  0  0  0  0  0  0  0  0  0
   58.5260   33.3680   47.6880 C   0  0  0  0  0  0  0  0  0  0  0  0
   56.7840   28.7530   45.3310 C   0  0  0  0  0  0  0  0  0  0  0  0
   57.4160   27.6640   45.9500 C   0  0  0  0  0  0  0  0  0  0  0  0
   56.6350   26.0800   45.9440 S   0  0  0  0  0  0  0  0  0  0  0  0
   54.9190   26.2800   45.9930 N   0  0  0  0  0  0  0  0  0  0  0  0
   57.0220   25.3290   44.7000 O   0  0  0  0  0  0  0  0  0  0  0  0
   57.0690   25.2820   47.1410 O   0  0  0  0  0  0  0  0  0  0  0  0
   59.4396   26.7453   49.2287 H   0  0  0  0  0  0  0  0  0  0  0  0
   60.8002   25.9602   48.3573 H   0  0  0  0  0  0  0  0  0  0  0  0
   60.6471   27.7500   48.3573 H   0  0  0  0  0  0  0  0  0  0  0  0
   60.2719   29.2511   46.9921 H   0  0  0  0  0  0  0  0  0  0  0  0
   59.1345   31.1666   45.8831 H   0  0  0  0  0  0  0  0  0  0  0  0
   56.9130   34.4392   45.0674 H   0  0  0  0  0  0  0  0  0  0  0  0
   56.3945   33.1799   46.2700 H   0  0  0  0  0  0  0  0  0  0  0  0
   59.5926   34.2888   44.5739 H   0  0  0  0  0  0  0  0  0  0  0  0
   61.7241   34.5829   45.8254 H   0  0  0  0  0  0  0  0  0  0  0  0
   59.7586   33.2965   49.4661 H   0  0  0  0  0  0  0  0  0  0  0  0
   57.6276   33.0114   48.2131 H   0  0  0  0  0  0  0  0  0  0  0  0
   55.8132   28.6094   44.8341 H   0  0  0  0  0  0  0  0  0  0  0  0
   54.7210   27.0870   46.6260 H   0  0  0  0  0  0  0  0  0  0  0  0
  1  2  1  0
  2  3  1  0
  3  4  2  0
  4  5  1  0
  5  6  2  0
  6  7  1  0
  7  8  1  0
  8  9  2  0
  8 10  1  0
 10 11  1  0
 11 12  2  0
 12 13  1  0
 13 14  2  0
 14 15  1  0
 15 16  2  0
 15 17  1  0
 14 18  1  0
 18 19  2  0
  6 20  1  0
 20 21  2  0
 21 22  1  0
 22 23  1  0
 22 24  2  0
 22 25  2  0
 21  3  1  0
 19 11  1  0
  1 26  1  0
  1 27  1  0
  1 28  1  0
  4 29  1  0
  5 30  1  0
 10 31  1  0
 10 32  1  0
 12 33  1  0
 13 34  1  0
 18 35  1  0
 19 36  1  0
 20 37  1  0
 23 38  1  0
M  CHG  4   7  -1  15   1  17  -1  23  -1
M  END
>  <UniqueID>  (22) 
21

>  <SMILES>  (22) 
COc1ccc([N-]C(=O)Cc2ccc([N+](=O)[O-])cc2)cc1S([NH-])(=O)=O

>  <Energy>  (22) 
43.90153189338966

>  <Genealogy>  (22) 
COc1ccc([N-]C(=O)Cc2ccc([N+](=O)[O-])cc2)cc1S([NH-])(=O)=O (protonated)
COc1ccc([N-]C(=O)Cc2ccc([N+](=O)[O-])cc2)cc1S([NH-])(=O)=O (3D coordinates assigned)
COc1ccc([N-]C(=O)Cc2ccc([N+](=O)[O-])cc2)cc1S([NH-])(=O)=O (optimized conformer: 43.90153189338966 kcal/mol)

>  <smiles>  (22) 
COc1ccc(NC(=O)Cc2ccc([N+](=O)[O-])cc2)cc1S(N)(=O)=O

>  <score_type>  (22) 
oracle

>  <origin>  (22) 
adg

>  <m_score__min__energy>  (22) 
-12.08

>  <m_primary>  (22) 
energy

$$$$
22:0
     RDKit          3D

 29 30  0  0  0  0  0  0  0  0999 V2000
   54.7580   27.4640   46.3570 H   0  0  0  0  0  0  0  0  0  0  0  0
   54.7780   26.5140   46.0070 O   0  0  0  0  0  0  0  0  0  0  0  0
   55.9650   25.7850   45.9420 C   0  0  0  0  0  0  0  0  0  0  0  0
   55.9360   24.3930   45.7880 C   0  0  0  0  0  0  0  0  0  0  0  0
   54.9725   23.8671   45.7168 H   0  0  0  0  0  0  0  0  0  0  0  0
   57.1300   23.6740   45.7250 C   0  0  0  0  0  0  0  0  0  0  0  0
   57.1150   22.5806   45.6057 H   0  0  0  0  0  0  0  0  0  0  0  0
   58.3430   24.3570   45.8150 C   0  0  0  0  0  0  0  0  0  0  0  0
   59.2913   23.8016   45.7670 H   0  0  0  0  0  0  0  0  0  0  0  0
   58.3540   25.7090   45.9620 N   0  0  0  0  0  0  0  0  0  0  0  0
   57.2040   26.4400   46.0280 C   0  0  0  0  0  0  0  0  0  0  0  0
   57.2350   27.7350   46.1710 N   0  0  0  0  0  0  0  0  0  0  0  0
   56.8040   28.7220   45.2210 C   0  0  0  0  0  0  0  0  0  0  0  0
   55.6120   29.1370   45.2140 O   0  0  0  0  0  0  0  0  0  0  0  0
   57.8050   29.2930   44.3000 C   0  0  0  0  0  0  0  0  0  0  0  0
   58.6124   28.6276   43.9605 H   0  0  0  0  0  0  0  0  0  0  0  0
   57.8160   30.5550   43.8400 C   0  0  0  0  0  0  0  0  0  0  0  0
   57.8055   30.6942   42.7489 H   0  0  0  0  0  0  0  0  0  0  0  0
   57.8410   31.7720   44.6780 C   0  0  0  0  0  0  0  0  0  0  0  0
   58.0990   31.6540   46.0520 C   0  0  0  0  0  0  0  0  0  0  0  0
   58.2421   30.6592   46.4991 H   0  0  0  0  0  0  0  0  0  0  0  0
   58.1750   32.7970   46.8560 C   0  0  0  0  0  0  0  0  0  0  0  0
   58.3626   32.6978   47.9353 H   0  0  0  0  0  0  0  0  0  0  0  0
   58.0130   34.0630   46.2900 C   0  0  0  0  0  0  0  0  0  0  0  0
   58.0639   34.9598   46.9249 H   0  0  0  0  0  0  0  0  0  0  0  0
   57.7860   34.1910   44.9160 C   0  0  0  0  0  0  0  0  0  0  0  0
   57.6664   35.1891   44.4694 H   0  0  0  0  0  0  0  0  0  0  0  0
   57.7110   33.0520   44.1100 C   0  0  0  0  0  0  0  0  0  0  0  0
   57.5496   33.1569   43.0270 H   0  0  0  0  0  0  0  0  0  0  0  0
  1  2  1  0
  2  3  1  0
  3  4  2  0
  4  5  1  0
  4  6  1  0
  6  7  1  0
  6  8  2  0
  8  9  1  0
  8 10  1  0
 10 11  1  0
 11 12  2  0
 12 13  1  0
 13 14  2  0
 13 15  1  0
 15 16  1  0
 15 17  2  3
 17 18  1  0
 17 19  1  0
 19 20  2  0
 20 21  1  0
 20 22  1  0
 22 23  1  0
 22 24  2  0
 24 25  1  0
 24 26  1  0
 26 27  1  0
 26 28  2  0
 28 29  1  0
 11  3  1  0
 28 19  1  0
M  CHG  1  10  -1
M  END
>  <UniqueID>  (23) 
22

>  <SMILES>  (23) 
O=C(C=Cc1ccccc1)/N=c1\[n-]cccc1O

>  <Energy>  (23) 
40.490977056772074

>  <Genealogy>  (23) 
O=C(C=Cc1ccccc1)N=c1[n-]cccc1O (protonated)
O=C(C=Cc1ccccc1)/N=c1\[n-]cccc1O (cis-trans isomerization)
O=C(C=Cc1ccccc1)/N=c1\[n-]cccc1O (3D coordinates assigned)
O=C(C=Cc1ccccc1)/N=c1\[n-]cccc1O (optimized conformer: 40.490977056772074 kcal/mol)

>  <smiles>  (23) 
O=C(C=Cc1ccccc1)N=c1[nH]cccc1O

>  <score_type>  (23) 
oracle

>  <origin>  (23) 
adg

>  <m_score__min__energy>  (23) 
-9.7300000000000004

>  <m_primary>  (23) 
energy

$$$$
23:0
     RDKit          3D

 45 47  0  0  0  0  0  0  0  0999 V2000
   59.7000   29.0890   45.7940 C   0  0  0  0  0  0  0  0  0  0  0  0
   58.3750   28.8320   46.5010 C   0  0  0  0  0  0  0  0  0  0  0  0
   57.6110   30.0350   46.5860 O   0  0  0  0  0  0  0  0  0  0  0  0
   57.8480   31.1530   45.7760 C   0  0  0  0  0  0  0  0  0  0  0  0
   58.5150   32.2990   46.2780 C   0  0  0  0  0  0  0  0  0  0  0  0
   58.8510   32.4460   47.7120 C   0  0  0  0  0  0  0  0  0  0  0  0
   58.9120   33.6010   48.2180 O   0  0  0  0  0  0  0  0  0  0  0  0
   59.0710   31.2910   48.5370 N   0  0  0  0  0  0  0  0  0  0  0  0
   59.5100   31.3960   49.9270 C   0  0  0  0  0  0  0  0  0  0  0  0
   58.3260   31.4590   50.8380 C   0  0  0  0  0  0  0  0  0  0  0  0
   58.0630   32.4510   51.7530 C   0  0  0  0  0  0  0  0  0  0  0  0
   56.9440   32.1340   52.4260 N   0  0  0  0  0  0  0  0  0  0  0  0
   56.5640   30.9480   51.8980 C   0  0  0  0  0  0  0  0  0  0  0  0
   55.3650   30.2070   52.3480 C   0  0  0  0  0  0  0  0  0  0  0  0
   55.4790   29.1550   53.2710 C   0  0  0  0  0  0  0  0  0  0  0  0
   54.3340   28.4700   53.6840 C   0  0  0  0  0  0  0  0  0  0  0  0
   53.1160   28.8190   53.1940 N   0  0  0  0  0  0  0  0  0  0  0  0
   52.9730   29.8320   52.2990 C   0  0  0  0  0  0  0  0  0  0  0  0
   54.0910   30.5440   51.8600 C   0  0  0  0  0  0  0  0  0  0  0  0
   57.3890   30.5000   50.9270 N   0  0  0  0  0  0  0  0  0  0  0  0
   58.8300   33.3500   45.4030 C   0  0  0  0  0  0  0  0  0  0  0  0
   58.4470   33.2950   44.0640 C   0  0  0  0  0  0  0  0  0  0  0  0
   57.7340   32.1990   43.5830 C   0  0  0  0  0  0  0  0  0  0  0  0
   57.4170   31.1310   44.4320 C   0  0  0  0  0  0  0  0  0  0  0  0
   56.5280   29.7530   43.7760 S   0  0  0  0  0  0  0  0  0  0  0  0
   55.2220   29.3400   44.8310 N   0  0  0  0  0  0  0  0  0  0  0  0
   57.4320   28.5580   43.6510 O   0  0  0  0  0  0  0  0  0  0  0  0
   55.9780   30.1080   42.4250 O   0  0  0  0  0  0  0  0  0  0  0  0
   60.4913   29.2425   46.5425 H   0  0  0  0  0  0  0  0  0  0  0  0
   59.9537   28.2233   45.1645 H   0  0  0  0  0  0  0  0  0  0  0  0
   59.6116   29.9867   45.1645 H   0  0  0  0  0  0  0  0  0  0  0  0
   57.8039   28.0798   45.9370 H   0  0  0  0  0  0  0  0  0  0  0  0
   58.5800   28.4686   47.5188 H   0  0  0  0  0  0  0  0  0  0  0  0
   58.8880   30.3390   48.1510 H   0  0  0  0  0  0  0  0  0  0  0  0
   60.1194   30.5168   50.1832 H   0  0  0  0  0  0  0  0  0  0  0  0
   60.1054   32.3131   50.0475 H   0  0  0  0  0  0  0  0  0  0  0  0
   58.6691   33.3557   51.9086 H   0  0  0  0  0  0  0  0  0  0  0  0
   56.4654   28.8717   53.6669 H   0  0  0  0  0  0  0  0  0  0  0  0
   54.4187   27.6460   54.4077 H   0  0  0  0  0  0  0  0  0  0  0  0
   51.9737   30.0916   51.9195 H   0  0  0  0  0  0  0  0  0  0  0  0
   53.9752   31.3642   51.1362 H   0  0  0  0  0  0  0  0  0  0  0  0
   59.3835   34.2240   45.7768 H   0  0  0  0  0  0  0  0  0  0  0  0
   58.7086   34.1197   43.3847 H   0  0  0  0  0  0  0  0  0  0  0  0
   57.4180   32.1722   42.5297 H   0  0  0  0  0  0  0  0  0  0  0  0
   55.6190   29.2630   45.7930 H   0  0  0  0  0  0  0  0  0  0  0  0
  1  2  1  0
  2  3  1  0
  3  4  1  0
  4  5  2  0
  5  6  1  0
  6  7  2  0
  6  8  1  0
  8  9  1  0
  9 10  1  0
 10 11  2  0
 11 12  1  0
 12 13  1  0
 13 14  1  0
 14 15  2  0
 15 16  1  0
 16 17  2  0
 17 18  1  0
 18 19  2  0
 13 20  2  0
  5 21  1  0
 21 22  2  0
 22 23  1  0
 23 24  2  0
 24 25  1  0
 25 26  1  0
 25 27  2  0
 25 28  2  0
 24  4  1  0
 20 10  1  0
 19 14  1  0
  1 29  1  0
  1 30  1  0
  1 31  1  0
  2 32  1  0
  2 33  1  0
  8 34  1  0
  9 35  1  0
  9 36  1  0
 11 37  1  0
 15 38  1  0
 16 39  1  0
 18 40  1  0
 19 41  1  0
 21 42  1  0
 22 43  1  0
 23 44  1  0
 26 45  1  0
M  CHG  2  12  -1  26  -1
M  END
>  <UniqueID>  (24) 
23

>  <SMILES>  (24) 
CCOc1c(C(=O)NCc2c[n-]c(-c3ccncc3)n2)cccc1S([NH-])(=O)=O

>  <Energy>  (24) 
80.38564719126826

>  <Genealogy>  (24) 
CCOc1c(C(=O)NCc2c[n-]c(-c3ccncc3)n2)cccc1S([NH-])(=O)=O (protonated)
CCOc1c(C(=O)NCc2c[n-]c(-c3ccncc3)n2)cccc1S([NH-])(=O)=O (3D coordinates assigned)
CCOc1c(C(=O)NCc2c[n-]c(-c3ccncc3)n2)cccc1S([NH-])(=O)=O (optimized conformer: 80.38564719126826 kcal/mol)

>  <smiles>  (24) 
CCOc1c(C(=O)NCc2c[nH]c(-c3ccncc3)n2)cccc1S(N)(=O)=O

>  <score_type>  (24) 
oracle

>  <origin>  (24) 
adg

>  <m_score__min__energy>  (24) 
-11.82

>  <m_primary>  (24) 
energy

$$$$
24:0
     RDKit          3D

 51 55  0  0  0  0  0  0  0  0999 V2000
   54.6587   22.7872   46.9707 H   0  0  0  0  0  0  0  0  0  0  0  0
   55.6010   23.1920   46.5730 C   0  0  0  0  0  0  0  0  0  0  0  0
   56.1430   24.2380   47.2190 C   0  0  0  0  0  0  0  0  0  0  0  0
   56.4412   24.0879   48.2671 H   0  0  0  0  0  0  0  0  0  0  0  0
   56.3690   25.5710   46.6320 C   0  0  0  0  0  0  0  0  0  0  0  0
   55.4130   26.2590   45.9650 N   0  0  0  0  0  0  0  0  0  0  0  0
   55.8920   27.4520   45.6230 N   0  0  0  0  0  0  0  0  0  0  0  0
   57.1600   27.5150   46.0630 C   0  0  0  0  0  0  0  0  0  0  0  0
   58.0370   28.5940   45.9830 C   0  0  0  0  0  0  0  0  0  0  0  0
   57.7447   29.5292   45.4830 H   0  0  0  0  0  0  0  0  0  0  0  0
   59.3120   28.4460   46.5650 C   0  0  0  0  0  0  0  0  0  0  0  0
   60.4280   29.8450   46.6450 S   0  0  0  0  0  0  0  0  0  0  0  0
   59.4940   30.6090   47.9860 C   0  0  0  0  0  0  0  0  0  0  0  0
   59.2150   29.8180   49.1100 C   0  0  0  0  0  0  0  0  0  0  0  0
   59.4934   28.7538   49.1115 H   0  0  0  0  0  0  0  0  0  0  0  0
   58.5870   30.3710   50.2260 C   0  0  0  0  0  0  0  0  0  0  0  0
   58.3738   29.7426   51.1033 H   0  0  0  0  0  0  0  0  0  0  0  0
   58.2290   31.7180   50.2320 C   0  0  0  0  0  0  0  0  0  0  0  0
   57.7428   32.1535   51.1174 H   0  0  0  0  0  0  0  0  0  0  0  0
   58.4870   32.5150   49.1150 C   0  0  0  0  0  0  0  0  0  0  0  0
   58.2019   33.5773   49.1278 H   0  0  0  0  0  0  0  0  0  0  0  0
   59.1080   31.9750   47.9720 C   0  0  0  0  0  0  0  0  0  0  0  0
   59.3410   32.8570   46.8040 C   0  0  0  0  0  0  0  0  0  0  0  0
   58.4250   33.0430   45.9610 O   0  0  0  0  0  0  0  0  0  0  0  0
   60.5780   33.5860   46.7100 N   0  0  0  0  0  0  0  0  0  0  0  0
   61.6610   33.4700   47.4270 C   0  0  0  0  0  0  0  0  0  0  0  0
   61.7730   34.2410   48.5440 N   0  0  0  0  0  0  0  0  0  0  0  0
   62.8500   34.1740   49.3710 C   0  0  0  0  0  0  0  0  0  0  0  0
   62.9014   34.8195   50.2602 H   0  0  0  0  0  0  0  0  0  0  0  0
   63.8910   33.2860   49.0920 C   0  0  0  0  0  0  0  0  0  0  0  0
   65.2810   33.1840   50.1580 Cl  0  0  0  0  0  0  0  0  0  0  0  0
   63.8070   32.4730   47.9620 C   0  0  0  0  0  0  0  0  0  0  0  0
   64.6174   31.7657   47.7317 H   0  0  0  0  0  0  0  0  0  0  0  0
   62.6940   32.5570   47.1230 C   0  0  0  0  0  0  0  0  0  0  0  0
   62.6226   31.9164   46.2316 H   0  0  0  0  0  0  0  0  0  0  0  0
   59.6930   27.2110   47.1420 C   0  0  0  0  0  0  0  0  0  0  0  0
   60.7067   27.0901   47.5516 H   0  0  0  0  0  0  0  0  0  0  0  0
   58.7880   26.1390   47.1960 C   0  0  0  0  0  0  0  0  0  0  0  0
   59.0776   25.1697   47.6278 H   0  0  0  0  0  0  0  0  0  0  0  0
   57.5080   26.3480   46.6820 C   0  0  0  0  0  0  0  0  0  0  0  0
   56.1660   22.5390   45.3710 C   0  0  0  0  0  0  0  0  0  0  0  0
   56.1470   23.2210   44.1470 C   0  0  0  0  0  0  0  0  0  0  0  0
   55.6906   24.2197   44.0815 H   0  0  0  0  0  0  0  0  0  0  0  0
   56.7060   22.6350   43.0120 C   0  0  0  0  0  0  0  0  0  0  0  0
   56.7028   23.1712   42.0516 H   0  0  0  0  0  0  0  0  0  0  0  0
   57.2700   21.3610   43.1060 C   0  0  0  0  0  0  0  0  0  0  0  0
   57.7298   20.8976   42.2206 H   0  0  0  0  0  0  0  0  0  0  0  0
   57.2520   20.6920   44.2900 N   0  0  0  0  0  0  0  0  0  0  0  0
   57.6660   19.7340   44.3410 H   0  0  0  0  0  0  0  0  0  0  0  0
   56.7030   21.2400   45.4090 C   0  0  0  0  0  0  0  0  0  0  0  0
   56.6795   20.6645   46.3461 H   0  0  0  0  0  0  0  0  0  0  0  0
  1  2  1  0
  2  3  2  0
  3  4  1  0
  3  5  1  0
  5  6  1  0
  6  7  1  0
  7  8  2  0
  8  9  1  0
  9 10  1  0
  9 11  2  0
 11 12  1  0
 12 13  1  0
 13 14  2  0
 14 15  1  0
 14 16  1  0
 16 17  1  0
 16 18  2  0
 18 19  1  0
 18 20  1  0
 20 21  1  0
 20 22  2  0
 22 23  1  0
 23 24  2  0
 23 25  1  0
 25 26  2  3
 26 27  1  0
 27 28  1  0
 28 29  1  0
 28 30  2  0
 30 31  1  0
 30 32  1  0
 32 33  1  0
 32 34  2  0
 34 35  1  0
 11 36  1  0
 36 37  1  0
 36 38  2  0
 38 39  1  0
 38 40  1  0
  2 41  1  0
 41 42  2  0
 42 43  1  0
 42 44  1  0
 44 45  1  0
 44 46  2  0
 46 47  1  0
 46 48  1  0
 48 49  1  0
 48 50  2  0
 50 51  1  0
 40  5  2  0
 50 41  1  0
 40  8  1  0
 22 13  1  0
 34 26  1  0
M  CHG  3   6  -1  27  -1  48   1
M  END
>  <UniqueID>  (25) 
24

>  <SMILES>  (25) 
O=C(N=c1ccc(Cl)c[n-]1)c1ccccc1Sc1ccc2c(/C=C\c3ccc[nH+]c3)[n-]nc2c1

>  <Energy>  (25) 
108.9442662596336

>  <Genealogy>  (25) 
O=C(N=c1ccc(Cl)c[n-]1)c1ccccc1Sc1ccc2c(C=Cc3ccc[nH+]c3)[n-]nc2c1 (protonated)
O=C(N=c1ccc(Cl)c[n-]1)c1ccccc1Sc1ccc2c(/C=C\c3ccc[nH+]c3)[n-]nc2c1 (cis-trans isomerization)
O=C(N=c1ccc(Cl)c[n-]1)c1ccccc1Sc1ccc2c(/C=C\c3ccc[nH+]c3)[n-]nc2c1 (3D coordinates assigned)
O=C(N=c1ccc(Cl)c[n-]1)c1ccccc1Sc1ccc2c(/C=C\c3ccc[nH+]c3)[n-]nc2c1 (optimized conformer: 108.9442662596336 kcal/mol)

>  <smiles>  (25) 
O=C(N=c1ccc(Cl)c[nH]1)c1ccccc1Sc1ccc2c(C=Cc3cccnc3)[nH]nc2c1

>  <score_type>  (25) 
oracle

>  <origin>  (25) 
adg

>  <m_score__min__energy>  (25) 
-12.75

>  <m_primary>  (25) 
energy

$$$$
25:0
     RDKit          3D

 48 51  0  0  0  0  0  0  0  0999 V2000
   61.0130   33.8180   50.8460 C   0  0  0  0  0  0  0  0  0  0  0  0
   60.3890   34.5870   49.8210 O   0  0  0  0  0  0  0  0  0  0  0  0
   59.7520   34.0430   48.6980 C   0  0  0  0  0  0  0  0  0  0  0  0
   60.0050   34.6180   47.4450 C   0  0  0  0  0  0  0  0  0  0  0  0
   59.4070   34.1020   46.2920 C   0  0  0  0  0  0  0  0  0  0  0  0
   58.5410   32.9950   46.3770 C   0  0  0  0  0  0  0  0  0  0  0  0
   57.9550   32.3970   45.1610 C   0  0  0  0  0  0  0  0  0  0  0  0
   58.2070   32.8160   43.9000 N   0  0  0  0  0  0  0  0  0  0  0  0
   57.5560   31.9940   43.0950 N   0  0  0  0  0  0  0  0  0  0  0  0
   56.9310   31.1060   43.8970 C   0  0  0  0  0  0  0  0  0  0  0  0
   55.9650   29.7100   43.3180 S   0  0  0  0  0  0  0  0  0  0  0  0
   57.3860   28.5580   43.2080 C   0  0  0  0  0  0  0  0  0  0  0  0
   58.1790   28.5320   44.4900 C   0  0  0  0  0  0  0  0  0  0  0  0
   57.5720   28.1280   45.6880 C   0  0  0  0  0  0  0  0  0  0  0  0
   58.2640   28.2180   46.9000 C   0  0  0  0  0  0  0  0  0  0  0  0
   59.5840   28.7060   46.9360 C   0  0  0  0  0  0  0  0  0  0  0  0
   60.3110   28.8680   48.2240 C   0  0  0  0  0  0  0  0  0  0  0  0
   60.8340   27.8660   48.7780 O   0  0  0  0  0  0  0  0  0  0  0  0
   60.4810   30.1470   48.8400 N   0  0  0  0  0  0  0  0  0  0  0  0
   61.5880   31.0370   48.6310 C   0  0  0  0  0  0  0  0  0  0  0  0
   61.7120   31.6750   47.3880 C   0  0  0  0  0  0  0  0  0  0  0  0
   62.8020   32.5140   47.1210 C   0  0  0  0  0  0  0  0  0  0  0  0
   63.7890   32.6970   48.0920 C   0  0  0  0  0  0  0  0  0  0  0  0
   63.6810   32.0660   49.3320 C   0  0  0  0  0  0  0  0  0  0  0  0
   62.5860   31.2380   49.6080 C   0  0  0  0  0  0  0  0  0  0  0  0
   62.5310   30.6120   50.8100 F   0  0  0  0  0  0  0  0  0  0  0  0
   60.1940   29.0970   45.7300 C   0  0  0  0  0  0  0  0  0  0  0  0
   59.4970   29.0150   44.5210 C   0  0  0  0  0  0  0  0  0  0  0  0
   57.1580   31.3570   45.1630 O   0  0  0  0  0  0  0  0  0  0  0  0
   58.2780   32.4240   47.6310 C   0  0  0  0  0  0  0  0  0  0  0  0
   58.8770   32.9410   48.7840 C   0  0  0  0  0  0  0  0  0  0  0  0
   60.7036   34.1993   51.8303 H   0  0  0  0  0  0  0  0  0  0  0  0
   60.7111   32.7647   50.7494 H   0  0  0  0  0  0  0  0  0  0  0  0
   62.1059   33.8965   50.7494 H   0  0  0  0  0  0  0  0  0  0  0  0
   60.6802   35.4830   47.3685 H   0  0  0  0  0  0  0  0  0  0  0  0
   59.6136   34.5624   45.3146 H   0  0  0  0  0  0  0  0  0  0  0  0
   57.0096   27.5455   43.0003 H   0  0  0  0  0  0  0  0  0  0  0  0
   58.0480   28.9039   42.4005 H   0  0  0  0  0  0  0  0  0  0  0  0
   56.5438   27.7374   45.6743 H   0  0  0  0  0  0  0  0  0  0  0  0
   57.7727   27.9048   47.8330 H   0  0  0  0  0  0  0  0  0  0  0  0
   60.9458   31.5151   46.6151 H   0  0  0  0  0  0  0  0  0  0  0  0
   62.8800   33.0263   46.1507 H   0  0  0  0  0  0  0  0  0  0  0  0
   64.6549   33.3410   47.8785 H   0  0  0  0  0  0  0  0  0  0  0  0
   64.4584   32.2195   50.0949 H   0  0  0  0  0  0  0  0  0  0  0  0
   61.2286   29.4706   45.7385 H   0  0  0  0  0  0  0  0  0  0  0  0
   59.9847   29.3312   43.5871 H   0  0  0  0  0  0  0  0  0  0  0  0
   57.5963   31.5641   47.7079 H   0  0  0  0  0  0  0  0  0  0  0  0
   58.6645   32.4857   49.7626 H   0  0  0  0  0  0  0  0  0  0  0  0
  1  2  1  0
  2  3  1  0
  3  4  2  0
  4  5  1  0
  5  6  2  0
  6  7  1  0
  7  8  2  0
  8  9  1  0
  9 10  2  0
 10 11  1  0
 11 12  1  0
 12 13  1  0
 13 14  2  0
 14 15  1  0
 15 16  2  0
 16 17  1  0
 17 18  2  0
 17 19  1  0
 19 20  1  0
 20 21  2  0
 21 22  1  0
 22 23  2  0
 23 24  1  0
 24 25  2  0
 25 26  1  0
 16 27  1  0
 27 28  2  0
 10 29  1  0
  6 30  1  0
 30 31  2  0
 31  3  1  0
 29  7  1  0
 28 13  1  0
 25 20  1  0
  1 32  1  0
  1 33  1  0
  1 34  1  0
  4 35  1  0
  5 36  1  0
 12 37  1  0
 12 38  1  0
 14 39  1  0
 15 40  1  0
 21 41  1  0
 22 42  1  0
 23 43  1  0
 24 44  1  0
 27 45  1  0
 28 46  1  0
 30 47  1  0
 31 48  1  0
M  CHG  1  19  -1
M  END
>  <UniqueID>  (26) 
25

>  <SMILES>  (26) 
COc1ccc(-c2nnc(SCc3ccc(C(=O)[N-]c4ccccc4F)cc3)o2)cc1

>  <Energy>  (26) 
90.89049820368196

>  <Genealogy>  (26) 
COc1ccc(-c2nnc(SCc3ccc(C(=O)[N-]c4ccccc4F)cc3)o2)cc1 (protonated)
COc1ccc(-c2nnc(SCc3ccc(C(=O)[N-]c4ccccc4F)cc3)o2)cc1 (3D coordinates assigned)
COc1ccc(-c2nnc(SCc3ccc(C(=O)[N-]c4ccccc4F)cc3)o2)cc1 (optimized conformer: 90.89049820368196 kcal/mol)

>  <smiles>  (26) 
COc1ccc(-c2nnc(SCc3ccc(C(=O)Nc4ccccc4F)cc3)o2)cc1

>  <score_type>  (26) 
oracle

>  <origin>  (26) 
adg

>  <m_score__min__energy>  (26) 
-10.91

>  <m_primary>  (26) 
energy

$$$$
26:0
     RDKit          3D

 53 57  0  0  1  0  0  0  0  0999 V2000
   58.5600   26.5440   46.6080 O   0  0  0  0  0  0  0  0  0  0  0  0
   58.3590   27.7950   46.4310 C   0  0  0  0  0  0  0  0  0  0  0  0
   57.1440   28.1680   45.7760 N   0  0  0  0  0  0  0  0  0  0  0  0
   57.1710   28.9630   44.7390 C   0  0  0  0  0  0  0  0  0  0  0  0
   56.9070   28.5860   43.4660 N   0  0  0  0  0  0  0  0  0  0  0  0
   57.0340   29.6550   42.6700 N   0  0  0  0  0  0  0  0  0  0  0  0
   57.3760   30.7100   43.4290 C   0  0  0  0  0  0  0  0  0  0  0  0
   57.6400   32.0370   43.1730 C   0  0  0  0  0  0  0  0  0  0  0  0
   57.9860   32.9430   44.1760 C   0  0  0  0  0  0  0  0  0  0  0  0
   58.0760   32.5200   45.4840 C   0  0  0  0  0  0  0  0  0  0  0  0
   58.4440   33.4170   46.5260 N   0  0  0  0  0  0  0  0  0  0  0  0
   58.8510   34.7890   46.2920 C   0  0  0  0  0  0  0  0  0  0  0  0
   60.3050   34.9070   46.7080 C   0  0  0  0  0  0  0  0  0  0  0  0
   60.5250   34.2420   47.9690 N   0  0  0  0  0  0  0  0  0  0  0  0
   59.2910   33.9890   48.6850 C   0  0  0  0  0  0  0  0  0  0  0  0
   58.4110   32.9970   47.9330 C   0  0  0  0  0  0  0  0  0  0  0  0
   57.8160   31.2040   45.7430 C   0  0  0  0  0  0  0  0  0  0  0  0
   57.4710   30.3050   44.7430 C   0  0  0  0  0  0  0  0  0  0  0  0
   59.3470   28.7470   46.8920 C   0  0  0  0  0  0  0  0  0  0  0  0
   60.2970   29.1970   46.0030 C   0  0  0  0  0  0  0  0  0  0  0  0
   61.2700   30.1030   46.3680 C   0  0  0  0  0  0  0  0  0  0  0  0
   61.2940   30.5780   47.6670 C   0  0  0  0  0  0  0  0  0  0  0  0
   62.3030   31.5450   48.1130 C   0  0  0  0  0  0  0  0  0  0  0  0
   62.9350   32.3450   47.1610 C   0  0  0  0  0  0  0  0  0  0  0  0
   63.8840   33.2540   47.5870 C   0  0  0  0  0  0  0  0  0  0  0  0
   64.2030   33.3760   48.9130 C   0  0  0  0  0  0  0  0  0  0  0  0
   63.5580   32.5680   49.8270 C   0  0  0  0  0  0  0  0  0  0  0  0
   63.8270   32.6340   51.1750 F   0  0  0  0  0  0  0  0  0  0  0  0
   62.5950   31.6360   49.4540 C   0  0  0  0  0  0  0  0  0  0  0  0
   60.3300   30.1170   48.5590 C   0  0  0  0  0  0  0  0  0  0  0  0
   59.3550   29.2060   48.1850 C   0  0  0  0  0  0  0  0  0  0  0  0
   56.6570   27.6140   43.2130 H   0  0  0  0  0  0  0  0  0  0  0  0
   56.8840   29.6330   41.6400 H   0  0  0  0  0  0  0  0  0  0  0  0
   57.5755   32.3973   42.1357 H   0  0  0  0  0  0  0  0  0  0  0  0
   58.1868   33.9944   43.9225 H   0  0  0  0  0  0  0  0  0  0  0  0
   58.7436   35.0366   45.2256 H   0  0  0  0  0  0  0  0  0  0  0  0
   58.2238   35.4844   46.8691 H   0  0  0  0  0  0  0  0  0  0  0  0
   60.9404   34.4438   45.9387 H   0  0  0  0  0  0  0  0  0  0  0  0
   60.5583   35.9717   46.8182 H   0  0  0  0  0  0  0  0  0  0  0  0
   60.9910   33.3240   47.8070 H   0  0  0  0  0  0  0  0  0  0  0  0
   59.5295   33.5771   49.6767 H   0  0  0  0  0  0  0  0  0  0  0  0
   58.7430   34.9379   48.7808 H   0  0  0  0  0  0  0  0  0  0  0  0
   58.8088   31.9768   48.0373 H   0  0  0  0  0  0  0  0  0  0  0  0
   57.3844   32.9872   48.3279 H   0  0  0  0  0  0  0  0  0  0  0  0
   57.8824   30.8441   46.7803 H   0  0  0  0  0  0  0  0  0  0  0  0
   60.2792   28.8219   44.9691 H   0  0  0  0  0  0  0  0  0  0  0  0
   62.0172   30.4436   45.6361 H   0  0  0  0  0  0  0  0  0  0  0  0
   62.6832   32.2540   46.0941 H   0  0  0  0  0  0  0  0  0  0  0  0
   64.3923   33.8909   46.8481 H   0  0  0  0  0  0  0  0  0  0  0  0
   64.9587   34.1039   49.2432 H   0  0  0  0  0  0  0  0  0  0  0  0
   62.0904   31.0011   50.1972 H   0  0  0  0  0  0  0  0  0  0  0  0
   60.3425   30.4879   49.5945 H   0  0  0  0  0  0  0  0  0  0  0  0
   58.6036   28.8583   48.9092 H   0  0  0  0  0  0  0  0  0  0  0  0
  1  2  2  0
  2  3  1  0
  3  4  2  0
  4  5  1  0
  5  6  1  0
  6  7  1  0
  7  8  2  0
  8  9  1  0
  9 10  2  0
 10 11  1  0
 11 12  1  0
 12 13  1  0
 13 14  1  0
 14 15  1  0
 15 16  1  0
 10 17  1  0
 17 18  2  0
  2 19  1  0
 19 20  2  0
 20 21  1  0
 21 22  2  0
 22 23  1  0
 23 24  2  0
 24 25  1  0
 25 26  2  0
 26 27  1  0
 27 28  1  0
 27 29  2  0
 22 30  1  0
 30 31  2  0
 18  4  1  0
 31 19  1  0
 18  7  1  0
 29 23  1  0
 16 11  1  0
  5 32  1  0
  6 33  1  0
  8 34  1  0
  9 35  1  0
 12 36  1  0
 12 37  1  0
 13 38  1  0
 13 39  1  0
 14 40  1  0
 15 41  1  0
 15 42  1  0
 16 43  1  0
 16 44  1  0
 17 45  1  0
 20 46  1  0
 21 47  1  0
 24 48  1  0
 25 49  1  0
 26 50  1  0
 29 51  1  0
 30 52  1  0
 31 53  1  0
M  END
>  <smiles>  (27) 
O=C(N=c1[nH][nH]c2ccc(N3CCNCC3)cc12)c1ccc(-c2cccc(F)c2)cc1

>  <score_type>  (27) 
oracle

>  <origin>  (27) 
adg

>  <m_score__min__energy>  (27) 
-9.7799999999999994

>  <m_primary>  (27) 
energy

$$$$
27:0
     RDKit          3D

 38 39  0  0  0  0  0  0  0  0999 V2000
   55.1450   29.3510   44.8880 N   0  0  0  0  0  0  0  0  0  0  0  0
   56.6550   30.0810   44.4780 S   0  0  0  0  0  0  0  0  0  0  0  0
   56.8960   29.9470   43.0000 O   0  0  0  0  0  0  0  0  0  0  0  0
   56.6140   31.5410   44.8300 O   0  0  0  0  0  0  0  0  0  0  0  0
   57.9530   29.2840   45.3620 C   0  0  0  0  0  0  0  0  0  0  0  0
   58.3470   27.9820   45.0270 C   0  0  0  0  0  0  0  0  0  0  0  0
   59.3860   27.3620   45.7250 C   0  0  0  0  0  0  0  0  0  0  0  0
   60.0280   28.0330   46.7700 C   0  0  0  0  0  0  0  0  0  0  0  0
   59.6270   29.3320   47.1300 C   0  0  0  0  0  0  0  0  0  0  0  0
   60.2670   30.0470   48.2010 N   0  0  0  0  0  0  0  0  0  0  0  0
   61.4560   30.8400   48.0430 C   0  0  0  0  0  0  0  0  0  0  0  0
   62.0080   30.9560   46.9150 O   0  0  0  0  0  0  0  0  0  0  0  0
   62.0910   31.4940   49.2340 C   0  0  0  0  0  0  0  0  0  0  0  0
   62.7370   32.7570   48.8390 N   0  0  0  0  0  0  0  0  0  0  0  0
   61.8400   33.9160   48.9720 C   0  0  0  0  0  0  0  0  0  0  0  0
   60.7180   33.8670   47.9630 C   0  0  0  0  0  0  0  0  0  0  0  0
   59.3870   33.7660   48.4050 C   0  0  0  0  0  0  0  0  0  0  0  0
   58.3390   33.7130   47.4820 C   0  0  0  0  0  0  0  0  0  0  0  0
   58.6070   33.7830   46.1130 C   0  0  0  0  0  0  0  0  0  0  0  0
   59.9230   33.9100   45.6650 C   0  0  0  0  0  0  0  0  0  0  0  0
   60.9790   33.9490   46.5810 C   0  0  0  0  0  0  0  0  0  0  0  0
   62.2500   34.0580   46.1180 F   0  0  0  0  0  0  0  0  0  0  0  0
   58.6100   29.9610   46.3970 C   0  0  0  0  0  0  0  0  0  0  0  0
   55.1600   28.3800   44.5020 H   0  0  0  0  0  0  0  0  0  0  0  0
   57.8370   27.4468   44.2125 H   0  0  0  0  0  0  0  0  0  0  0  0
   59.6997   26.3437   45.4519 H   0  0  0  0  0  0  0  0  0  0  0  0
   60.8499   27.5431   47.3127 H   0  0  0  0  0  0  0  0  0  0  0  0
   59.9420   29.8510   49.1750 H   0  0  0  0  0  0  0  0  0  0  0  0
   61.3183   31.7021   49.9888 H   0  0  0  0  0  0  0  0  0  0  0  0
   62.8519   30.8176   49.6506 H   0  0  0  0  0  0  0  0  0  0  0  0
   62.9860   32.6760   47.8250 H   0  0  0  0  0  0  0  0  0  0  0  0
   61.4100   33.9207   49.9845 H   0  0  0  0  0  0  0  0  0  0  0  0
   62.4268   34.8287   48.7911 H   0  0  0  0  0  0  0  0  0  0  0  0
   59.1696   33.7285   49.4826 H   0  0  0  0  0  0  0  0  0  0  0  0
   57.3014   33.6160   47.8342 H   0  0  0  0  0  0  0  0  0  0  0  0
   57.7811   33.7381   45.3879 H   0  0  0  0  0  0  0  0  0  0  0  0
   60.1302   33.9797   44.5870 H   0  0  0  0  0  0  0  0  0  0  0  0
   58.3257   30.9961   46.6374 H   0  0  0  0  0  0  0  0  0  0  0  0
  1  2  1  0
  2  3  2  0
  2  4  2  0
  2  5  1  0
  5  6  2  0
  6  7  1  0
  7  8  2  0
  8  9  1  0
  9 10  1  0
 10 11  1  0
 11 12  2  0
 11 13  1  0
 13 14  1  0
 14 15  1  0
 15 16  1  0
 16 17  2  0
 17 18  1  0
 18 19  2  0
 19 20  1  0
 20 21  2  0
 21 22  1  0
  9 23  2  0
 23  5  1  0
 21 16  1  0
  1 24  1  0
  6 25  1  0
  7 26  1  0
  8 27  1  0
 10 28  1  0
 13 29  1  0
 13 30  1  0
 14 31  1  0
 15 32  1  0
 15 33  1  0
 17 34  1  0
 18 35  1  0
 19 36  1  0
 20 37  1  0
 23 38  1  0
M  CHG  1   1  -1
M  END
>  <UniqueID>  (28) 
26

>  <SMILES>  (28) 
[NH-]S(=O)(=O)c1cccc(NC(=O)CNCc2ccccc2F)c1

>  <Energy>  (28) 
37.72725623399253

>  <Genealogy>  (28) 
[NH-]S(=O)(=O)c1cccc(NC(=O)CNCc2ccccc2F)c1 (protonated)
[NH-]S(=O)(=O)c1cccc(NC(=O)CNCc2ccccc2F)c1 (3D coordinates assigned)
[NH-]S(=O)(=O)c1cccc(NC(=O)CNCc2ccccc2F)c1 (optimized conformer: 37.72725623399253 kcal/mol)

>  <smiles>  (28) 
NS(=O)(=O)c1cccc(NC(=O)CNCc2ccccc2F)c1

>  <score_type>  (28) 
oracle

>  <origin>  (28) 
adg

>  <m_score__min__energy>  (28) 
-11.4

>  <m_primary>  (28) 
energy

$$$$
28:0
     RDKit          3D

 42 44  0  0  0  0  0  0  0  0999 V2000
   58.2680   26.5730   46.8690 O   0  0  0  0  0  0  0  0  0  0  0  0
   57.6700   26.5260   45.7600 C   0  0  0  0  0  0  0  0  0  0  0  0
   57.9290   27.5300   44.7690 N   0  0  0  0  0  0  0  0  0  0  0  0
   57.8640   28.9520   44.9560 C   0  0  0  0  0  0  0  0  0  0  0  0
   56.8630   29.7390   44.3600 C   0  0  0  0  0  0  0  0  0  0  0  0
   56.8470   31.1230   44.5510 C   0  0  0  0  0  0  0  0  0  0  0  0
   57.8390   31.7400   45.3220 C   0  0  0  0  0  0  0  0  0  0  0  0
   57.7860   33.4830   45.5730 S   0  0  0  0  0  0  0  0  0  0  0  0
   57.0990   34.1600   44.4180 O   0  0  0  0  0  0  0  0  0  0  0  0
   57.0140   33.7730   46.8280 O   0  0  0  0  0  0  0  0  0  0  0  0
   59.4000   34.1030   45.7350 N   0  0  0  0  0  0  0  0  0  0  0  0
   59.6660   34.4290   47.1340 C   0  0  0  0  0  0  0  0  0  0  0  0
   61.0850   34.0620   47.4660 C   0  0  0  0  0  0  0  0  0  0  0  0
   62.0150   33.8450   46.4330 C   0  0  0  0  0  0  0  0  0  0  0  0
   63.3420   33.5260   46.7340 C   0  0  0  0  0  0  0  0  0  0  0  0
   63.7570   33.4330   48.0640 C   0  0  0  0  0  0  0  0  0  0  0  0
   62.8460   33.6650   49.0990 C   0  0  0  0  0  0  0  0  0  0  0  0
   61.5150   33.9860   48.8070 C   0  0  0  0  0  0  0  0  0  0  0  0
   60.6280   34.2300   49.8500 O   0  0  0  0  0  0  0  0  0  0  0  0
   58.8510   30.9620   45.9000 C   0  0  0  0  0  0  0  0  0  0  0  0
   58.8670   29.5770   45.7080 C   0  0  0  0  0  0  0  0  0  0  0  0
   56.7400   25.4050   45.4540 C   0  0  0  0  0  0  0  0  0  0  0  0
   57.2540   24.1830   44.9760 C   0  0  0  0  0  0  0  0  0  0  0  0
   56.4000   23.1170   44.6800 C   0  0  0  0  0  0  0  0  0  0  0  0
   55.0240   23.2530   44.8520 C   0  0  0  0  0  0  0  0  0  0  0  0
   54.4960   24.4560   45.3230 C   0  0  0  0  0  0  0  0  0  0  0  0
   55.3390   25.5300   45.6250 C   0  0  0  0  0  0  0  0  0  0  0  0
   54.7720   26.7100   46.0940 O   0  0  0  0  0  0  0  0  0  0  0  0
   56.0888   29.2629   43.7404 H   0  0  0  0  0  0  0  0  0  0  0  0
   56.0518   31.7300   44.0937 H   0  0  0  0  0  0  0  0  0  0  0  0
   59.5175   35.5069   47.2952 H   0  0  0  0  0  0  0  0  0  0  0  0
   58.9776   33.8664   47.7818 H   0  0  0  0  0  0  0  0  0  0  0  0
   61.6962   33.9268   45.3834 H   0  0  0  0  0  0  0  0  0  0  0  0
   64.0613   33.3477   45.9211 H   0  0  0  0  0  0  0  0  0  0  0  0
   64.8010   33.1771   48.2976 H   0  0  0  0  0  0  0  0  0  0  0  0
   63.1761   33.5951   50.1460 H   0  0  0  0  0  0  0  0  0  0  0  0
   59.6341   31.4415   46.5057 H   0  0  0  0  0  0  0  0  0  0  0  0
   59.6733   28.9738   46.1508 H   0  0  0  0  0  0  0  0  0  0  0  0
   58.3387   24.0670   44.8344 H   0  0  0  0  0  0  0  0  0  0  0  0
   56.8153   22.1679   44.3102 H   0  0  0  0  0  0  0  0  0  0  0  0
   54.3543   22.4127   44.6167 H   0  0  0  0  0  0  0  0  0  0  0  0
   53.4092   24.5600   45.4576 H   0  0  0  0  0  0  0  0  0  0  0  0
  1  2  2  0
  2  3  1  0
  3  4  1  0
  4  5  2  0
  5  6  1  0
  6  7  2  0
  7  8  1  0
  8  9  2  0
  8 10  2  0
  8 11  1  0
 11 12  1  0
 12 13  1  0
 13 14  2  0
 14 15  1  0
 15 16  2  0
 16 17  1  0
 17 18  2  0
 18 19  1  0
  7 20  1  0
 20 21  2  0
  2 22  1  0
 22 23  2  0
 23 24  1  0
 24 25  2  0
 25 26  1  0
 26 27  2  0
 27 28  1  0
 21  4  1  0
 27 22  1  0
 18 13  1  0
  5 29  1  0
  6 30  1  0
 12 31  1  0
 12 32  1  0
 14 33  1  0
 15 34  1  0
 16 35  1  0
 17 36  1  0
 20 37  1  0
 21 38  1  0
 23 39  1  0
 24 40  1  0
 25 41  1  0
 26 42  1  0
M  CHG  4   3  -1  11  -1  19  -1  28  -1
M  END
>  <UniqueID>  (29) 
27

>  <SMILES>  (29) 
O=C([N-]c1ccc(S(=O)(=O)[N-]Cc2ccccc2[O-])cc1)c1ccccc1[O-]

>  <Energy>  (29) 
49.34651978051201

>  <Genealogy>  (29) 
O=C([N-]c1ccc(S(=O)(=O)[N-]Cc2ccccc2[O-])cc1)c1ccccc1[O-] (protonated)
O=C([N-]c1ccc(S(=O)(=O)[N-]Cc2ccccc2[O-])cc1)c1ccccc1[O-] (3D coordinates assigned)
O=C([N-]c1ccc(S(=O)(=O)[N-]Cc2ccccc2[O-])cc1)c1ccccc1[O-] (optimized conformer: 49.34651978051201 kcal/mol)

>  <smiles>  (29) 
O=C(Nc1ccc(S(=O)(=O)NCc2ccccc2O)cc1)c1ccccc1O

>  <score_type>  (29) 
oracle

>  <origin>  (29) 
adg

>  <m_score__min__energy>  (29) 
-15.720000000000001

>  <m_primary>  (29) 
energy

$$$$
29:0
     RDKit          3D

 64 68  0  0  0  0  0  0  0  0999 V2000
   61.1240   30.5960   47.3530 C   0  0  0  0  0  0  0  0  0  0  0  0
   61.0420   29.9720   48.7190 C   0  0  0  0  0  0  0  0  0  0  0  0
   61.5710   30.6650   49.8230 C   0  0  0  0  0  0  0  0  0  0  0  0
   61.5280   30.1000   51.1010 C   0  0  0  0  0  0  0  0  0  0  0  0
   60.9430   28.8480   51.2930 C   0  0  0  0  0  0  0  0  0  0  0  0
   60.3930   28.1590   50.2100 C   0  0  0  0  0  0  0  0  0  0  0  0
   60.4280   28.7140   48.9210 C   0  0  0  0  0  0  0  0  0  0  0  0
   59.8440   27.9840   47.8270 N   0  0  0  0  0  0  0  0  0  0  0  0
   60.6320   26.9660   47.1280 C   0  0  0  0  0  0  0  0  0  0  0  0
   59.9660   26.6150   45.7920 C   0  0  0  0  0  0  0  0  0  0  0  0
   58.5590   26.1490   45.9530 N   0  0  0  0  0  0  0  0  0  0  0  0
   57.7860   26.3390   44.7000 C   0  0  0  0  0  0  0  0  0  0  0  0
   58.4310   27.3710   43.7550 C   0  0  0  0  0  0  0  0  0  0  0  0
   57.9650   28.7620   44.0930 C   0  0  0  0  0  0  0  0  0  0  0  0
   56.6420   29.1670   43.7720 C   0  0  0  0  0  0  0  0  0  0  0  0
   56.1830   30.4530   44.1200 C   0  0  0  0  0  0  0  0  0  0  0  0
   57.0650   31.2970   44.7860 C   0  0  0  0  0  0  0  0  0  0  0  0
   56.8360   32.5440   45.2210 N   0  0  0  0  0  0  0  0  0  0  0  0
   58.0220   32.8740   45.7980 C   0  0  0  0  0  0  0  0  0  0  0  0
   58.2600   34.1990   46.4540 C   0  0  0  0  0  0  0  0  0  0  0  0
   59.6000   34.7930   46.0040 C   0  0  0  0  0  0  0  0  0  0  0  0
   60.7090   34.3530   46.9210 C   0  0  0  0  0  0  0  0  0  0  0  0
   61.9060   33.8380   46.3920 C   0  0  0  0  0  0  0  0  0  0  0  0
   62.9280   33.4130   47.2480 C   0  0  0  0  0  0  0  0  0  0  0  0
   62.7590   33.4910   48.6340 C   0  0  0  0  0  0  0  0  0  0  0  0
   61.5650   33.9870   49.1670 C   0  0  0  0  0  0  0  0  0  0  0  0
   60.5400   34.4130   48.3150 C   0  0  0  0  0  0  0  0  0  0  0  0
   58.9680   31.9010   45.7450 N   0  0  0  0  0  0  0  0  0  0  0  0
   58.3320   30.9140   45.0990 C   0  0  0  0  0  0  0  0  0  0  0  0
   58.8230   29.6510   44.7790 C   0  0  0  0  0  0  0  0  0  0  0  0
   57.8440   26.7740   47.1080 C   0  0  0  0  0  0  0  0  0  0  0  0
   58.4230   28.1380   47.5060 C   0  0  0  0  0  0  0  0  0  0  0  0
   61.2667   31.6820   47.4540 H   0  0  0  0  0  0  0  0  0  0  0  0
   61.9731   30.1642   46.8030 H   0  0  0  0  0  0  0  0  0  0  0  0
   60.1921   30.3982   46.8030 H   0  0  0  0  0  0  0  0  0  0  0  0
   62.0215   31.6582   49.6797 H   0  0  0  0  0  0  0  0  0  0  0  0
   61.9560   30.6433   51.9564 H   0  0  0  0  0  0  0  0  0  0  0  0
   60.9150   28.4031   52.2986 H   0  0  0  0  0  0  0  0  0  0  0  0
   59.9290   27.1743   50.3681 H   0  0  0  0  0  0  0  0  0  0  0  0
   61.6440   27.3539   46.9400 H   0  0  0  0  0  0  0  0  0  0  0  0
   60.6897   26.0619   47.7519 H   0  0  0  0  0  0  0  0  0  0  0  0
   59.9689   27.5097   45.1520 H   0  0  0  0  0  0  0  0  0  0  0  0
   60.5388   25.7903   45.3428 H   0  0  0  0  0  0  0  0  0  0  0  0
   58.5910   25.1170   46.1440 H   0  0  0  0  0  0  0  0  0  0  0  0
   57.7218   25.3739   44.1762 H   0  0  0  0  0  0  0  0  0  0  0  0
   56.7912   26.7180   44.9771 H   0  0  0  0  0  0  0  0  0  0  0  0
   59.5251   27.3212   43.8578 H   0  0  0  0  0  0  0  0  0  0  0  0
   58.1352   27.1391   42.7212 H   0  0  0  0  0  0  0  0  0  0  0  0
   55.9704   28.4713   43.2476 H   0  0  0  0  0  0  0  0  0  0  0  0
   55.1616   30.7783   43.8732 H   0  0  0  0  0  0  0  0  0  0  0  0
   57.4486   34.8890   46.1792 H   0  0  0  0  0  0  0  0  0  0  0  0
   58.2851   34.0547   47.5442 H   0  0  0  0  0  0  0  0  0  0  0  0
   59.8206   34.4537   44.9812 H   0  0  0  0  0  0  0  0  0  0  0  0
   59.5294   35.8903   46.0339 H   0  0  0  0  0  0  0  0  0  0  0  0
   62.0392   33.7691   45.3023 H   0  0  0  0  0  0  0  0  0  0  0  0
   63.8654   33.0171   46.8303 H   0  0  0  0  0  0  0  0  0  0  0  0
   63.5658   33.1620   49.3054 H   0  0  0  0  0  0  0  0  0  0  0  0
   61.4314   34.0423   50.2575 H   0  0  0  0  0  0  0  0  0  0  0  0
   59.5993   34.7959   48.7374 H   0  0  0  0  0  0  0  0  0  0  0  0
   59.8466   29.3545   45.0516 H   0  0  0  0  0  0  0  0  0  0  0  0
   56.7871   26.9084   46.8345 H   0  0  0  0  0  0  0  0  0  0  0  0
   57.9633   26.1021   47.9707 H   0  0  0  0  0  0  0  0  0  0  0  0
   58.3092   28.8439   46.6701 H   0  0  0  0  0  0  0  0  0  0  0  0
   57.8859   28.5249   48.3845 H   0  0  0  0  0  0  0  0  0  0  0  0
  1  2  1  0
  2  3  2  0
  3  4  1  0
  4  5  2  0
  5  6  1  0
  6  7  2  0
  7  8  1  0
  8  9  1  0
  9 10  1  0
 10 11  1  0
 11 12  1  0
 12 13  1  0
 13 14  1  0
 14 15  2  0
 15 16  1  0
 16 17  2  0
 17 18  1  0
 18 19  2  0
 19 20  1  0
 20 21  1  0
 21 22  1  0
 22 23  2  0
 23 24  1  0
 24 25  2  0
 25 26  1  0
 26 27  2  0
 19 28  1  0
 28 29  1  0
 29 30  2  0
 11 31  1  0
 31 32  1  0
  7  2  1  0
 32  8  1  0
 30 14  1  0
 29 17  1  0
 27 22  1  0
  1 33  1  0
  1 34  1  0
  1 35  1  0
  3 36  1  0
  4 37  1  0
  5 38  1  0
  6 39  1  0
  9 40  1  0
  9 41  1  0
 10 42  1  0
 10 43  1  0
 11 44  1  0
 12 45  1  0
 12 46  1  0
 13 47  1  0
 13 48  1  0
 15 49  1  0
 16 50  1  0
 20 51  1  0
 20 52  1  0
 21 53  1  0
 21 54  1  0
 23 55  1  0
 24 56  1  0
 25 57  1  0
 26 58  1  0
 27 59  1  0
 30 60  1  0
 31 61  1  0
 31 62  1  0
 32 63  1  0
 32 64  1  0
M  CHG  2  11   1  28  -1
M  END
>  <UniqueID>  (30) 
28

>  <SMILES>  (30) 
Cc1ccccc1N1CC[NH+](CCc2ccc3nc(CCc4ccccc4)[n-]c3c2)CC1

>  <Energy>  (30) 
111.72450877586942

>  <Genealogy>  (30) 
Cc1ccccc1N1CC[NH+](CCc2ccc3nc(CCc4ccccc4)[n-]c3c2)CC1 (protonated)
Cc1ccccc1N1CC[NH+](CCc2ccc3nc(CCc4ccccc4)[n-]c3c2)CC1 (3D coordinates assigned)
Cc1ccccc1N1CC[NH+](CCc2ccc3nc(CCc4ccccc4)[n-]c3c2)CC1 (nonaromatic ring conformer: 111.72450877586942 kcal/mol)

>  <smiles>  (30) 
Cc1ccccc1N1CCN(CCc2ccc3nc(CCc4ccccc4)[nH]c3c2)CC1

>  <score_type>  (30) 
oracle

>  <origin>  (30) 
adg

>  <m_score__min__energy>  (30) 
-9.9100000000000001

>  <m_primary>  (30) 
energy

$$$$
30:0
     RDKit          3D

 43 45  0  0  0  0  0  0  0  0999 V2000
   55.1510   28.9660   44.5520 N   0  0  0  0  0  0  0  0  0  0  0  0
   56.4100   30.0600   44.0950 S   0  0  0  0  0  0  0  0  0  0  0  0
   56.0390   31.4560   44.5110 O   0  0  0  0  0  0  0  0  0  0  0  0
   56.5810   30.0310   42.6020 O   0  0  0  0  0  0  0  0  0  0  0  0
   57.9140   29.5830   44.8760 C   0  0  0  0  0  0  0  0  0  0  0  0
   58.7510   28.6340   44.2740 C   0  0  0  0  0  0  0  0  0  0  0  0
   59.9370   28.2450   44.9040 C   0  0  0  0  0  0  0  0  0  0  0  0
   60.2920   28.8010   46.1360 C   0  0  0  0  0  0  0  0  0  0  0  0
   59.4580   29.7470   46.7460 C   0  0  0  0  0  0  0  0  0  0  0  0
   59.9060   30.4500   48.2970 S   0  0  0  0  0  0  0  0  0  0  0  0
   61.4010   30.5380   48.4250 O   0  0  0  0  0  0  0  0  0  0  0  0
   59.3720   29.5790   49.3990 O   0  0  0  0  0  0  0  0  0  0  0  0
   59.2270   32.0400   48.4520 N   0  0  0  0  0  0  0  0  0  0  0  0
   59.0720   32.9640   47.3550 C   0  0  0  0  0  0  0  0  0  0  0  0
   57.8290   33.1390   46.7130 C   0  0  0  0  0  0  0  0  0  0  0  0
   57.6820   34.0740   45.6860 C   0  0  0  0  0  0  0  0  0  0  0  0
   58.7690   34.8500   45.2850 C   0  0  0  0  0  0  0  0  0  0  0  0
   60.0080   34.6880   45.9030 C   0  0  0  0  0  0  0  0  0  0  0  0
   60.1700   33.7480   46.9300 C   0  0  0  0  0  0  0  0  0  0  0  0
   61.4620   33.5840   47.5250 N   0  0  0  0  0  0  0  0  0  0  0  0
   61.7230   33.8100   48.9320 C   0  0  0  0  0  0  0  0  0  0  0  0
   63.2400   33.7670   49.0750 C   0  0  0  0  0  0  0  0  0  0  0  0
   63.7660   33.1340   47.7870 C   0  0  0  0  0  0  0  0  0  0  0  0
   62.6570   33.2950   46.7550 C   0  0  0  0  0  0  0  0  0  0  0  0
   58.2640   30.1290   46.1190 C   0  0  0  0  0  0  0  0  0  0  0  0
   54.6840   29.3730   45.3930 H   0  0  0  0  0  0  0  0  0  0  0  0
   58.4745   28.1944   43.3043 H   0  0  0  0  0  0  0  0  0  0  0  0
   60.5920   27.4998   44.4290 H   0  0  0  0  0  0  0  0  0  0  0  0
   61.2275   28.4954   46.6274 H   0  0  0  0  0  0  0  0  0  0  0  0
   58.8930   32.3050   49.4050 H   0  0  0  0  0  0  0  0  0  0  0  0
   56.9657   32.5326   47.0244 H   0  0  0  0  0  0  0  0  0  0  0  0
   56.7068   34.1985   45.1925 H   0  0  0  0  0  0  0  0  0  0  0  0
   58.6487   35.5905   44.4805 H   0  0  0  0  0  0  0  0  0  0  0  0
   60.8632   35.3013   45.5829 H   0  0  0  0  0  0  0  0  0  0  0  0
   61.3349   34.7913   49.2425 H   0  0  0  0  0  0  0  0  0  0  0  0
   61.2312   33.0568   49.5651 H   0  0  0  0  0  0  0  0  0  0  0  0
   63.6419   34.7841   49.1930 H   0  0  0  0  0  0  0  0  0  0  0  0
   63.5453   33.1912   49.9612 H   0  0  0  0  0  0  0  0  0  0  0  0
   64.6775   33.6507   47.4520 H   0  0  0  0  0  0  0  0  0  0  0  0
   64.0264   32.0757   47.9360 H   0  0  0  0  0  0  0  0  0  0  0  0
   62.8848   34.1249   46.0698 H   0  0  0  0  0  0  0  0  0  0  0  0
   62.5389   32.3950   46.1337 H   0  0  0  0  0  0  0  0  0  0  0  0
   57.5995   30.8594   46.6037 H   0  0  0  0  0  0  0  0  0  0  0  0
  1  2  1  0
  2  3  2  0
  2  4  2  0
  2  5  1  0
  5  6  2  0
  6  7  1  0
  7  8  2  0
  8  9  1  0
  9 10  1  0
 10 11  2  0
 10 12  2  0
 10 13  1  0
 13 14  1  0
 14 15  2  0
 15 16  1  0
 16 17  2  0
 17 18  1  0
 18 19  2  0
 19 20  1  0
 20 21  1  0
 21 22  1  0
 22 23  1  0
 23 24  1  0
  9 25  2  0
 25  5  1  0
 19 14  1  0
 24 20  1  0
  1 26  1  0
  6 27  1  0
  7 28  1  0
  8 29  1  0
 13 30  1  0
 15 31  1  0
 16 32  1  0
 17 33  1  0
 18 34  1  0
 21 35  1  0
 21 36  1  0
 22 37  1  0
 22 38  1  0
 23 39  1  0
 23 40  1  0
 24 41  1  0
 24 42  1  0
 25 43  1  0
M  CHG  1   1  -1
M  END
>  <UniqueID>  (31) 
29

>  <SMILES>  (31) 
[NH-]S(=O)(=O)c1cccc(S(=O)(=O)Nc2ccccc2N2CCCC2)c1

>  <Energy>  (31) 
52.47951033715707

>  <Genealogy>  (31) 
[NH-]S(=O)(=O)c1cccc(S(=O)(=O)Nc2ccccc2N2CCCC2)c1 (protonated)
[NH-]S(=O)(=O)c1cccc(S(=O)(=O)Nc2ccccc2N2CCCC2)c1 (3D coordinates assigned)
[NH-]S(=O)(=O)c1cccc(S(=O)(=O)Nc2ccccc2N2CCCC2)c1 (nonaromatic ring conformer: 52.47951033715707 kcal/mol)

>  <smiles>  (31) 
NS(=O)(=O)c1cccc(S(=O)(=O)Nc2ccccc2N2CCCC2)c1

>  <score_type>  (31) 
oracle

>  <origin>  (31) 
adg

>  <m_score__min__energy>  (31) 
-11.789999999999999

>  <m_primary>  (31) 
energy

$$$$
31:0
     RDKit          3D

 57 60  0  0  0  0  0  0  0  0999 V2000
   58.1800   31.4970   51.5300 C   0  0  0  0  0  0  0  0  0  0  0  0
   59.0750   31.2750   50.3460 C   0  0  0  0  0  0  0  0  0  0  0  0
   59.0700   30.0420   49.6860 C   0  0  0  0  0  0  0  0  0  0  0  0
   59.8730   29.8390   48.5640 C   0  0  0  0  0  0  0  0  0  0  0  0
   60.6950   30.8680   48.0750 C   0  0  0  0  0  0  0  0  0  0  0  0
   61.5280   30.6080   46.8450 C   0  0  0  0  0  0  0  0  0  0  0  0
   60.6740   32.1320   48.7130 C   0  0  0  0  0  0  0  0  0  0  0  0
   61.6200   33.5020   48.1020 S   0  0  0  0  0  0  0  0  0  0  0  0
   62.0430   34.3880   49.2410 O   0  0  0  0  0  0  0  0  0  0  0  0
   62.8520   32.9760   47.4180 O   0  0  0  0  0  0  0  0  0  0  0  0
   60.6610   34.4330   46.9760 N   0  0  0  0  0  0  0  0  0  0  0  0
   59.4180   34.9330   47.6100 C   0  0  0  0  0  0  0  0  0  0  0  0
   58.1590   34.2200   47.1000 C   0  0  0  0  0  0  0  0  0  0  0  0
   58.0210   34.3550   45.6300 N   0  0  0  0  0  0  0  0  0  0  0  0
   57.0270   33.4010   45.0960 C   0  0  0  0  0  0  0  0  0  0  0  0
   57.6700   32.0750   44.8090 C   0  0  0  0  0  0  0  0  0  0  0  0
   57.8570   31.1160   45.7350 N   0  0  0  0  0  0  0  0  0  0  0  0
   58.3540   30.0840   45.0180 C   0  0  0  0  0  0  0  0  0  0  0  0
   58.7090   28.7760   45.6020 C   0  0  0  0  0  0  0  0  0  0  0  0
   60.0040   28.2500   45.4490 C   0  0  0  0  0  0  0  0  0  0  0  0
   60.3380   27.0220   46.0310 C   0  0  0  0  0  0  0  0  0  0  0  0
   59.3860   26.3110   46.7670 C   0  0  0  0  0  0  0  0  0  0  0  0
   58.0970   26.8260   46.9220 C   0  0  0  0  0  0  0  0  0  0  0  0
   57.7560   28.0530   46.3420 C   0  0  0  0  0  0  0  0  0  0  0  0
   58.4660   30.3650   43.7370 O   0  0  0  0  0  0  0  0  0  0  0  0
   58.0360   31.5880   43.5730 C   0  0  0  0  0  0  0  0  0  0  0  0
   57.9930   32.3010   42.2620 C   0  0  0  0  0  0  0  0  0  0  0  0
   59.3160   34.2750   44.9040 C   0  0  0  0  0  0  0  0  0  0  0  0
   60.4300   33.6470   45.7490 C   0  0  0  0  0  0  0  0  0  0  0  0
   59.8630   32.3190   49.8460 C   0  0  0  0  0  0  0  0  0  0  0  0
   58.7555   31.3543   52.4565 H   0  0  0  0  0  0  0  0  0  0  0  0
   57.7805   32.5215   51.5007 H   0  0  0  0  0  0  0  0  0  0  0  0
   57.3480   30.7780   51.5007 H   0  0  0  0  0  0  0  0  0  0  0  0
   58.4289   29.2275   50.0541 H   0  0  0  0  0  0  0  0  0  0  0  0
   59.8626   28.8631   48.0566 H   0  0  0  0  0  0  0  0  0  0  0  0
   62.5380   30.2928   47.1460 H   0  0  0  0  0  0  0  0  0  0  0  0
   61.0592   29.8134   46.2459 H   0  0  0  0  0  0  0  0  0  0  0  0
   61.5944   31.5281   46.2459 H   0  0  0  0  0  0  0  0  0  0  0  0
   59.4922   34.7798   48.6968 H   0  0  0  0  0  0  0  0  0  0  0  0
   59.3214   35.9980   47.3523 H   0  0  0  0  0  0  0  0  0  0  0  0
   58.2229   33.1524   47.3573 H   0  0  0  0  0  0  0  0  0  0  0  0
   57.2815   34.6832   47.5749 H   0  0  0  0  0  0  0  0  0  0  0  0
   56.2254   33.2616   45.8363 H   0  0  0  0  0  0  0  0  0  0  0  0
   56.6138   33.8053   44.1601 H   0  0  0  0  0  0  0  0  0  0  0  0
   60.7567   28.8054   44.8702 H   0  0  0  0  0  0  0  0  0  0  0  0
   61.3527   26.6151   45.9089 H   0  0  0  0  0  0  0  0  0  0  0  0
   59.6518   25.3463   47.2239 H   0  0  0  0  0  0  0  0  0  0  0  0
   57.3482   26.2659   47.5013 H   0  0  0  0  0  0  0  0  0  0  0  0
   56.7390   28.4536   46.4652 H   0  0  0  0  0  0  0  0  0  0  0  0
   57.9276   33.3851   42.4362 H   0  0  0  0  0  0  0  0  0  0  0  0
   58.9064   32.0757   41.6919 H   0  0  0  0  0  0  0  0  0  0  0  0
   57.1133   31.9675   41.6919 H   0  0  0  0  0  0  0  0  0  0  0  0
   59.1750   33.6660   43.9989 H   0  0  0  0  0  0  0  0  0  0  0  0
   59.6237   35.3023   44.6592 H   0  0  0  0  0  0  0  0  0  0  0  0
   60.1393   32.6228   46.0258 H   0  0  0  0  0  0  0  0  0  0  0  0
   61.3575   33.6343   45.1577 H   0  0  0  0  0  0  0  0  0  0  0  0
   59.8472   33.2985   50.3464 H   0  0  0  0  0  0  0  0  0  0  0  0
  1  2  1  0
  2  3  2  0
  3  4  1  0
  4  5  2  0
  5  6  1  0
  5  7  1  0
  7  8  1  0
  8  9  2  0
  8 10  2  0
  8 11  1  0
 11 12  1  0
 12 13  1  0
 13 14  1  0
 14 15  1  0
 15 16  1  0
 16 17  1  0
 17 18  2  0
 18 19  1  0
 19 20  2  0
 20 21  1  0
 21 22  2  0
 22 23  1  0
 23 24  2  0
 18 25  1  0
 25 26  1  0
 26 27  1  0
 14 28  1  0
 28 29  1  0
  7 30  2  0
 30  2  1  0
 29 11  1  0
 26 16  2  0
 24 19  1  0
  1 31  1  0
  1 32  1  0
  1 33  1  0
  3 34  1  0
  4 35  1  0
  6 36  1  0
  6 37  1  0
  6 38  1  0
 12 39  1  0
 12 40  1  0
 13 41  1  0
 13 42  1  0
 15 43  1  0
 15 44  1  0
 20 45  1  0
 21 46  1  0
 22 47  1  0
 23 48  1  0
 24 49  1  0
 27 50  1  0
 27 51  1  0
 27 52  1  0
 28 53  1  0
 28 54  1  0
 29 55  1  0
 29 56  1  0
 30 57  1  0
M  END
>  <UniqueID>  (32) 
30

>  <SMILES>  (32) 
Cc1ccc(C)c(S(=O)(=O)N2CCN(Cc3nc(-c4ccccc4)oc3C)CC2)c1

>  <Energy>  (32) 
99.54766425051388

>  <Genealogy>  (32) 
Cc1ccc(C)c(S(=O)(=O)N2CCN(Cc3nc(-c4ccccc4)oc3C)CC2)c1 (3D coordinates assigned)
Cc1ccc(C)c(S(=O)(=O)N2CCN(Cc3nc(-c4ccccc4)oc3C)CC2)c1 (nonaromatic ring conformer: 99.54766425051388 kcal/mol)

>  <smiles>  (32) 
Cc1ccc(C)c(S(=O)(=O)N2CCN(Cc3nc(-c4ccccc4)oc3C)CC2)c1

>  <score_type>  (32) 
oracle

>  <origin>  (32) 
adg

>  <m_score__min__energy>  (32) 
-9.5399999999999991

>  <m_primary>  (32) 
energy

$$$$
32:0
     RDKit          3D

 29 30  0  0  0  0  0  0  0  0999 V2000
   54.7730   29.7880   43.9990 N   0  0  0  0  0  0  0  0  0  0  0  0
   56.4690   30.1130   44.0400 S   0  0  0  0  0  0  0  0  0  0  0  0
   56.9610   30.3810   42.6460 O   0  0  0  0  0  0  0  0  0  0  0  0
   56.7280   31.3290   44.8860 O   0  0  0  0  0  0  0  0  0  0  0  0
   57.3170   28.7260   44.7160 C   0  0  0  0  0  0  0  0  0  0  0  0
   57.4450   28.5870   46.1050 C   0  0  0  0  0  0  0  0  0  0  0  0
   58.1050   27.4790   46.6420 C   0  0  0  0  0  0  0  0  0  0  0  0
   58.6430   26.4950   45.7970 C   0  0  0  0  0  0  0  0  0  0  0  0
   59.3300   25.2910   46.3860 C   0  0  0  0  0  0  0  0  0  0  0  0
   58.3580   24.2420   46.6950 N   0  0  0  0  0  0  0  0  0  0  0  0
   57.2440   24.0500   46.0530 C   0  0  0  0  0  0  0  0  0  0  0  0
   57.1490   23.0130   45.1800 N   0  0  0  0  0  0  0  0  0  0  0  0
   56.0000   22.7770   44.4910 C   0  0  0  0  0  0  0  0  0  0  0  0
   55.9240   21.7090   43.6030 O   0  0  0  0  0  0  0  0  0  0  0  0
   54.8950   23.6090   44.6780 C   0  0  0  0  0  0  0  0  0  0  0  0
   55.0070   24.6700   45.5770 C   0  0  0  0  0  0  0  0  0  0  0  0
   54.0330   25.4420   45.7710 O   0  0  0  0  0  0  0  0  0  0  0  0
   56.1730   24.8720   46.2430 N   0  0  0  0  0  0  0  0  0  0  0  0
   58.5040   26.6310   44.4070 C   0  0  0  0  0  0  0  0  0  0  0  0
   57.8430   27.7400   43.8700 C   0  0  0  0  0  0  0  0  0  0  0  0
   54.5230   29.3540   44.9160 H   0  0  0  0  0  0  0  0  0  0  0  0
   57.0246   29.3524   46.7739 H   0  0  0  0  0  0  0  0  0  0  0  0
   58.2038   27.3768   47.7328 H   0  0  0  0  0  0  0  0  0  0  0  0
   60.0625   24.9032   45.6628 H   0  0  0  0  0  0  0  0  0  0  0  0
   59.8349   25.5911   47.3161 H   0  0  0  0  0  0  0  0  0  0  0  0
   55.5110   21.8250   42.6850 H   0  0  0  0  0  0  0  0  0  0  0  0
   53.9580   23.4323   44.1295 H   0  0  0  0  0  0  0  0  0  0  0  0
   58.9167   25.8621   43.7374 H   0  0  0  0  0  0  0  0  0  0  0  0
   57.7354   27.8390   42.7798 H   0  0  0  0  0  0  0  0  0  0  0  0
  1  2  1  0
  2  3  2  0
  2  4  2  0
  2  5  1  0
  5  6  2  0
  6  7  1  0
  7  8  2  0
  8  9  1  0
  9 10  1  0
 10 11  2  3
 11 12  1  0
 12 13  1  0
 13 14  1  0
 13 15  2  0
 15 16  1  0
 16 17  2  0
 16 18  1  0
  8 19  1  0
 19 20  2  0
 20  5  1  0
 18 11  1  0
  1 21  1  0
  6 22  1  0
  7 23  1  0
  9 24  1  0
  9 25  1  0
 14 26  1  0
 15 27  1  0
 19 28  1  0
 20 29  1  0
M  CHG  3   1  -1  12  -1  18  -1
M  END
>  <UniqueID>  (33) 
31

>  <SMILES>  (33) 
[NH-]S(=O)(=O)c1ccc(CN=c2[n-]c(O)cc(=O)[n-]2)cc1

>  <Energy>  (33) 
28.861128828317355

>  <Genealogy>  (33) 
[NH-]S(=O)(=O)c1ccc(CN=c2[n-]c(O)cc(=O)[n-]2)cc1 (protonated)
[NH-]S(=O)(=O)c1ccc(CN=c2[n-]c(O)cc(=O)[n-]2)cc1 (3D coordinates assigned)
[NH-]S(=O)(=O)c1ccc(CN=c2[n-]c(O)cc(=O)[n-]2)cc1 (optimized conformer: 28.861128828317355 kcal/mol)

>  <smiles>  (33) 
NS(=O)(=O)c1ccc(CN=c2[nH]c(O)cc(=O)[nH]2)cc1

>  <score_type>  (33) 
oracle

>  <origin>  (33) 
adg

>  <m_score__min__energy>  (33) 
-12.9

>  <m_primary>  (33) 
energy

$$$$
33:0
     RDKit          3D

 48 50  0  0  0  0  0  0  0  0999 V2000
   57.5840   28.4940   45.9720 C   0  0  0  0  0  0  0  0  0  0  0  0
   56.9050   29.6990   45.6320 O   0  0  0  0  0  0  0  0  0  0  0  0
   57.1020   30.4180   44.4430 C   0  0  0  0  0  0  0  0  0  0  0  0
   56.4440   30.0680   43.2460 C   0  0  0  0  0  0  0  0  0  0  0  0
   56.6370   30.8240   42.0870 C   0  0  0  0  0  0  0  0  0  0  0  0
   57.4830   31.9320   42.1070 C   0  0  0  0  0  0  0  0  0  0  0  0
   58.1450   32.2850   43.2830 C   0  0  0  0  0  0  0  0  0  0  0  0
   57.9680   31.5300   44.4550 C   0  0  0  0  0  0  0  0  0  0  0  0
   58.6680   31.9010   45.6540 N   0  0  0  0  0  0  0  0  0  0  0  0
   59.7640   31.0540   46.1430 C   0  0  0  0  0  0  0  0  0  0  0  0
   60.8270   31.9120   46.8370 C   0  0  0  0  0  0  0  0  0  0  0  0
   60.2240   32.8740   47.7730 N   0  0  0  0  0  0  0  0  0  0  0  0
   61.0710   33.7610   48.5240 C   0  0  0  0  0  0  0  0  0  0  0  0
   60.7300   34.9630   48.6940 O   0  0  0  0  0  0  0  0  0  0  0  0
   62.3580   33.2960   49.0810 C   0  0  0  0  0  0  0  0  0  0  0  0
   62.4120   32.8570   50.4080 C   0  0  0  0  0  0  0  0  0  0  0  0
   63.5910   32.4570   50.9460 N   0  0  0  0  0  0  0  0  0  0  0  0
   64.7320   32.4660   50.2140 C   0  0  0  0  0  0  0  0  0  0  0  0
   66.2710   31.9420   50.9690 S   0  0  0  0  0  0  0  0  0  0  0  0
   67.1390   33.4810   50.5350 C   0  0  0  0  0  0  0  0  0  0  0  0
   64.7080   32.8630   48.9130 N   0  0  0  0  0  0  0  0  0  0  0  0
   63.5450   33.2610   48.3180 C   0  0  0  0  0  0  0  0  0  0  0  0
   63.5610   33.6520   46.8630 C   0  0  0  0  0  0  0  0  0  0  0  0
   58.7620   32.9710   47.8910 C   0  0  0  0  0  0  0  0  0  0  0  0
   58.1230   32.9750   46.5000 C   0  0  0  0  0  0  0  0  0  0  0  0
   57.6373   28.3995   47.0666 H   0  0  0  0  0  0  0  0  0  0  0  0
   57.0371   27.6350   45.5560 H   0  0  0  0  0  0  0  0  0  0  0  0
   58.6020   28.5169   45.5560 H   0  0  0  0  0  0  0  0  0  0  0  0
   55.7751   29.1950   43.2246 H   0  0  0  0  0  0  0  0  0  0  0  0
   56.1205   30.5445   41.1569 H   0  0  0  0  0  0  0  0  0  0  0  0
   57.6286   32.5285   41.1943 H   0  0  0  0  0  0  0  0  0  0  0  0
   58.8105   33.1608   43.2931 H   0  0  0  0  0  0  0  0  0  0  0  0
   59.3647   30.3207   46.8591 H   0  0  0  0  0  0  0  0  0  0  0  0
   60.2237   30.5339   45.2897 H   0  0  0  0  0  0  0  0  0  0  0  0
   61.5094   31.2529   47.3937 H   0  0  0  0  0  0  0  0  0  0  0  0
   61.3684   32.4782   46.0648 H   0  0  0  0  0  0  0  0  0  0  0  0
   61.4960   32.8361   51.0167 H   0  0  0  0  0  0  0  0  0  0  0  0
   67.4355   34.0066   51.4547 H   0  0  0  0  0  0  0  0  0  0  0  0
   68.0355   33.2422   49.9440 H   0  0  0  0  0  0  0  0  0  0  0  0
   66.4709   34.1246   49.9440 H   0  0  0  0  0  0  0  0  0  0  0  0
   65.5980   32.8530   48.3650 H   0  0  0  0  0  0  0  0  0  0  0  0
   63.6058   34.7478   46.7783 H   0  0  0  0  0  0  0  0  0  0  0  0
   64.4418   33.2101   46.3742 H   0  0  0  0  0  0  0  0  0  0  0  0
   62.6470   33.2835   46.3742 H   0  0  0  0  0  0  0  0  0  0  0  0
   58.3849   32.1101   48.4625 H   0  0  0  0  0  0  0  0  0  0  0  0
   58.5031   33.9058   48.4097 H   0  0  0  0  0  0  0  0  0  0  0  0
   57.0374   32.8317   46.6047 H   0  0  0  0  0  0  0  0  0  0  0  0
   58.3457   33.9395   46.0202 H   0  0  0  0  0  0  0  0  0  0  0  0
  1  2  1  0
  2  3  1  0
  3  4  2  0
  4  5  1  0
  5  6  2  0
  6  7  1  0
  7  8  2  0
  8  9  1  0
  9 10  1  0
 10 11  1  0
 11 12  1  0
 12 13  1  0
 13 14  2  0
 13 15  1  0
 15 16  2  0
 16 17  1  0
 17 18  2  0
 18 19  1  0
 19 20  1  0
 18 21  1  0
 21 22  2  0
 22 23  1  0
 12 24  1  0
 24 25  1  0
  8  3  1  0
 25  9  1  0
 22 15  1  0
  1 26  1  0
  1 27  1  0
  1 28  1  0
  4 29  1  0
  5 30  1  0
  6 31  1  0
  7 32  1  0
 10 33  1  0
 10 34  1  0
 11 35  1  0
 11 36  1  0
 16 37  1  0
 20 38  1  0
 20 39  1  0
 20 40  1  0
 21 41  1  0
 23 42  1  0
 23 43  1  0
 23 44  1  0
 24 45  1  0
 24 46  1  0
 25 47  1  0
 25 48  1  0
M  CHG  1  21   1
M  END
>  <UniqueID>  (34) 
32

>  <SMILES>  (34) 
COc1ccccc1N1CCN(C(=O)c2cnc(SC)[nH+]c2C)CC1

>  <Energy>  (34) 
56.81346704361861

>  <Genealogy>  (34) 
COc1ccccc1N1CCN(C(=O)c2cnc(SC)[nH+]c2C)CC1 (protonated)
COc1ccccc1N1CCN(C(=O)c2cnc(SC)[nH+]c2C)CC1 (3D coordinates assigned)
COc1ccccc1N1CCN(C(=O)c2cnc(SC)[nH+]c2C)CC1 (nonaromatic ring conformer: 56.81346704361861 kcal/mol)

>  <smiles>  (34) 
COc1ccccc1N1CCN(C(=O)c2cnc(SC)nc2C)CC1

>  <score_type>  (34) 
oracle

>  <origin>  (34) 
adg

>  <m_score__min__energy>  (34) 
-6.6100000000000003

>  <m_primary>  (34) 
energy

$$$$
34:0
     RDKit          3D

 52 54  0  0  0  0  0  0  0  0999 V2000
   56.3990   29.7960   42.2660 C   0  0  0  0  0  0  0  0  0  0  0  0
   57.0490   30.8150   43.1650 C   0  0  0  0  0  0  0  0  0  0  0  0
   57.5370   31.9960   42.5770 C   0  0  0  0  0  0  0  0  0  0  0  0
   58.1500   32.9800   43.3470 C   0  0  0  0  0  0  0  0  0  0  0  0
   58.3000   32.8030   44.7220 C   0  0  0  0  0  0  0  0  0  0  0  0
   59.0240   34.0700   45.7080 S   0  0  0  0  0  0  0  0  0  0  0  0
   58.1060   34.4090   46.8480 O   0  0  0  0  0  0  0  0  0  0  0  0
   59.2220   35.3040   44.8730 O   0  0  0  0  0  0  0  0  0  0  0  0
   60.5940   33.5190   46.3630 C   0  0  0  0  0  0  0  0  0  0  0  0
   60.4100   32.3350   47.2800 C   0  0  0  0  0  0  0  0  0  0  0  0
   60.6110   31.0380   46.7720 C   0  0  0  0  0  0  0  0  0  0  0  0
   60.4870   29.9220   47.6010 C   0  0  0  0  0  0  0  0  0  0  0  0
   60.1650   30.0850   48.9480 C   0  0  0  0  0  0  0  0  0  0  0  0
   59.9760   31.3650   49.4720 C   0  0  0  0  0  0  0  0  0  0  0  0
   60.0950   32.4930   48.6490 C   0  0  0  0  0  0  0  0  0  0  0  0
   59.8370   34.0780   49.3710 Cl  0  0  0  0  0  0  0  0  0  0  0  0
   57.8140   31.6390   45.3280 C   0  0  0  0  0  0  0  0  0  0  0  0
   57.1750   30.6330   44.5750 C   0  0  0  0  0  0  0  0  0  0  0  0
   56.6400   29.4430   45.3020 C   0  0  0  0  0  0  0  0  0  0  0  0
   55.5190   28.9510   45.0060 O   0  0  0  0  0  0  0  0  0  0  0  0
   57.3970   28.8550   46.3710 N   0  0  0  0  0  0  0  0  0  0  0  0
   58.3060   27.7260   46.1930 C   0  0  0  0  0  0  0  0  0  0  0  0
   57.6330   26.6100   45.3920 C   0  0  0  0  0  0  0  0  0  0  0  0
   56.5090   26.0600   46.1360 N   0  0  0  0  0  0  0  0  0  0  0  0
   55.5850   25.1180   45.5830 C   0  0  0  0  0  0  0  0  0  0  0  0
   54.3450   25.3050   45.7180 O   0  0  0  0  0  0  0  0  0  0  0  0
   56.0840   23.9400   44.8390 C   0  0  0  0  0  0  0  0  0  0  0  0
   57.3050   23.3350   45.1840 C   0  0  0  0  0  0  0  0  0  0  0  0
   57.7760   22.2400   44.4570 C   0  0  0  0  0  0  0  0  0  0  0  0
   57.0230   21.7530   43.3900 C   0  0  0  0  0  0  0  0  0  0  0  0
   55.8430   22.3440   43.0640 N   0  0  0  0  0  0  0  0  0  0  0  0
   55.3630   23.4140   43.7530 C   0  0  0  0  0  0  0  0  0  0  0  0
   55.9079   29.0261   42.8793 H   0  0  0  0  0  0  0  0  0  0  0  0
   55.6500   30.2919   41.6311 H   0  0  0  0  0  0  0  0  0  0  0  0
   57.1644   29.3259   41.6311 H   0  0  0  0  0  0  0  0  0  0  0  0
   57.4325   32.1441   41.4920 H   0  0  0  0  0  0  0  0  0  0  0  0
   58.5174   33.9003   42.8694 H   0  0  0  0  0  0  0  0  0  0  0  0
   61.2505   33.2299   45.5291 H   0  0  0  0  0  0  0  0  0  0  0  0
   61.0428   34.3422   46.9382 H   0  0  0  0  0  0  0  0  0  0  0  0
   60.8684   30.9025   45.7112 H   0  0  0  0  0  0  0  0  0  0  0  0
   60.6434   28.9131   47.1915 H   0  0  0  0  0  0  0  0  0  0  0  0
   60.0598   29.2040   49.5983 H   0  0  0  0  0  0  0  0  0  0  0  0
   59.7322   31.4890   50.5374 H   0  0  0  0  0  0  0  0  0  0  0  0
   57.9329   31.5064   46.4135 H   0  0  0  0  0  0  0  0  0  0  0  0
   59.2030   28.0662   45.6547 H   0  0  0  0  0  0  0  0  0  0  0  0
   58.5805   27.3339   47.1834 H   0  0  0  0  0  0  0  0  0  0  0  0
   57.2710   27.0171   44.4363 H   0  0  0  0  0  0  0  0  0  0  0  0
   58.3656   25.8103   45.2082 H   0  0  0  0  0  0  0  0  0  0  0  0
   57.8910   23.7253   46.0291 H   0  0  0  0  0  0  0  0  0  0  0  0
   58.7322   21.7662   44.7238 H   0  0  0  0  0  0  0  0  0  0  0  0
   57.3838   20.8899   42.8113 H   0  0  0  0  0  0  0  0  0  0  0  0
   54.4061   23.8699   43.4590 H   0  0  0  0  0  0  0  0  0  0  0  0
  1  2  1  0
  2  3  2  0
  3  4  1  0
  4  5  2  0
  5  6  1  0
  6  7  2  0
  6  8  2  0
  6  9  1  0
  9 10  1  0
 10 11  2  0
 11 12  1  0
 12 13  2  0
 13 14  1  0
 14 15  2  0
 15 16  1  0
  5 17  1  0
 17 18  2  0
 18 19  1  0
 19 20  2  0
 19 21  1  0
 21 22  1  0
 22 23  1  0
 23 24  1  0
 24 25  1  0
 25 26  2  0
 25 27  1  0
 27 28  2  0
 28 29  1  0
 29 30  2  0
 30 31  1  0
 31 32  2  0
 18  2  1  0
 32 27  1  0
 15 10  1  0
  1 33  1  0
  1 34  1  0
  1 35  1  0
  3 36  1  0
  4 37  1  0
  9 38  1  0
  9 39  1  0
 11 40  1  0
 12 41  1  0
 13 42  1  0
 14 43  1  0
 17 44  1  0
 22 45  1  0
 22 46  1  0
 23 47  1  0
 23 48  1  0
 28 49  1  0
 29 50  1  0
 30 51  1  0
 32 52  1  0
M  CHG  2  21  -1  24  -1
M  END
>  <UniqueID>  (35) 
33

>  <SMILES>  (35) 
Cc1ccc(S(=O)(=O)Cc2ccccc2Cl)cc1C(=O)[N-]CC[N-]C(=O)c1cccnc1

>  <Energy>  (35) 
46.778000429658874

>  <Genealogy>  (35) 
Cc1ccc(S(=O)(=O)Cc2ccccc2Cl)cc1C(=O)[N-]CC[N-]C(=O)c1cccnc1 (protonated)
Cc1ccc(S(=O)(=O)Cc2ccccc2Cl)cc1C(=O)[N-]CC[N-]C(=O)c1cccnc1 (3D coordinates assigned)
Cc1ccc(S(=O)(=O)Cc2ccccc2Cl)cc1C(=O)[N-]CC[N-]C(=O)c1cccnc1 (optimized conformer: 46.778000429658874 kcal/mol)

>  <smiles>  (35) 
Cc1ccc(S(=O)(=O)Cc2ccccc2Cl)cc1C(=O)NCCNC(=O)c1cccnc1

>  <score_type>  (35) 
oracle

>  <origin>  (35) 
adg

>  <m_score__min__energy>  (35) 
-13.94

>  <m_primary>  (35) 
energy

$$$$
35:0
     RDKit          3D

 32 34  0  0  0  0  0  0  0  0999 V2000
   55.8320   27.2120   45.6440 O   0  0  0  0  0  0  0  0  0  0  0  0
   56.2720   28.3140   45.2200 C   0  0  0  0  0  0  0  0  0  0  0  0
   57.6280   28.6230   45.3590 C   0  0  0  0  0  0  0  0  0  0  0  0
   58.1050   29.8450   44.8830 C   0  0  0  0  0  0  0  0  0  0  0  0
   57.2260   30.7530   44.2800 C   0  0  0  0  0  0  0  0  0  0  0  0
   57.7370   32.0530   43.7130 C   0  0  0  0  0  0  0  0  0  0  0  0
   57.2110   33.2630   44.4970 C   0  0  0  0  0  0  0  0  0  0  0  0
   58.1140   33.6150   45.6510 C   0  0  0  0  0  0  0  0  0  0  0  0
   59.1220   34.6010   45.4880 C   0  0  0  0  0  0  0  0  0  0  0  0
   60.0070   34.9000   46.5400 C   0  0  0  0  0  0  0  0  0  0  0  0
   59.8650   34.1950   47.7320 C   0  0  0  0  0  0  0  0  0  0  0  0
   60.6060   34.3160   48.8470 N   0  0  0  0  0  0  0  0  0  0  0  0
   60.1000   33.4200   49.7250 C   0  0  0  0  0  0  0  0  0  0  0  0
   59.0320   32.7260   49.1640 C   0  0  0  0  0  0  0  0  0  0  0  0
   58.8990   33.2390   47.8920 C   0  0  0  0  0  0  0  0  0  0  0  0
   58.0040   32.9190   46.8750 C   0  0  0  0  0  0  0  0  0  0  0  0
   55.8720   30.4000   44.1550 C   0  0  0  0  0  0  0  0  0  0  0  0
   55.4280   29.2030   44.6250 N   0  0  0  0  0  0  0  0  0  0  0  0
   58.3132   27.9091   45.8394 H   0  0  0  0  0  0  0  0  0  0  0  0
   59.1717   30.0950   44.9815 H   0  0  0  0  0  0  0  0  0  0  0  0
   58.8362   32.0521   43.7550 H   0  0  0  0  0  0  0  0  0  0  0  0
   57.3809   32.1369   42.6756 H   0  0  0  0  0  0  0  0  0  0  0  0
   57.1464   34.1265   43.8187 H   0  0  0  0  0  0  0  0  0  0  0  0
   56.2214   33.0051   44.9023 H   0  0  0  0  0  0  0  0  0  0  0  0
   59.2120   35.1359   44.5310 H   0  0  0  0  0  0  0  0  0  0  0  0
   60.7869   35.6670   46.4243 H   0  0  0  0  0  0  0  0  0  0  0  0
   61.4090   34.9640   49.0050 H   0  0  0  0  0  0  0  0  0  0  0  0
   60.4811   33.2613   50.7446 H   0  0  0  0  0  0  0  0  0  0  0  0
   58.4252   31.9382   49.6343 H   0  0  0  0  0  0  0  0  0  0  0  0
   57.2340   32.1470   47.0203 H   0  0  0  0  0  0  0  0  0  0  0  0
   55.1673   31.0948   43.6747 H   0  0  0  0  0  0  0  0  0  0  0  0
   54.4160   28.9620   44.5180 H   0  0  0  0  0  0  0  0  0  0  0  0
  1  2  2  0
  2  3  1  0
  3  4  2  0
  4  5  1  0
  5  6  1  0
  6  7  1  0
  7  8  1  0
  8  9  2  0
  9 10  1  0
 10 11  2  0
 11 12  1  0
 12 13  1  0
 13 14  2  0
 14 15  1  0
 15 16  2  0
  5 17  2  0
 17 18  1  0
 18  2  1  0
 16  8  1  0
 15 11  1  0
  3 19  1  0
  4 20  1  0
  6 21  1  0
  6 22  1  0
  7 23  1  0
  7 24  1  0
  9 25  1  0
 10 26  1  0
 12 27  1  0
 13 28  1  0
 14 29  1  0
 16 30  1  0
 17 31  1  0
 18 32  1  0
M  END
>  <UniqueID>  (36) 
34

>  <SMILES>  (36) 
O=c1ccc(CCc2ccc3[nH]ccc3c2)c[nH]1

>  <Energy>  (36) 
63.09619334620341

>  <Genealogy>  (36) 
O=c1ccc(CCc2ccc3[nH]ccc3c2)c[nH]1 (3D coordinates assigned)
O=c1ccc(CCc2ccc3[nH]ccc3c2)c[nH]1 (optimized conformer: 63.09619334620341 kcal/mol)

>  <smiles>  (36) 
O=c1ccc(CCc2ccc3[nH]ccc3c2)c[nH]1

>  <score_type>  (36) 
oracle

>  <origin>  (36) 
adg

>  <m_score__min__energy>  (36) 
-7.4400000000000004

>  <m_primary>  (36) 
energy

$$$$
36:0
     RDKit          3D

 46 48  0  0  0  0  0  0  0  0999 V2000
   57.2580   29.9900   51.6130 N   0  0  0  0  0  0  0  0  0  0  0  0
   58.3560   31.1420   50.9400 S   0  0  0  0  0  0  0  0  0  0  0  0
   59.3560   31.5550   51.9840 O   0  0  0  0  0  0  0  0  0  0  0  0
   57.5930   32.3560   50.4900 O   0  0  0  0  0  0  0  0  0  0  0  0
   59.1920   30.4210   49.5690 C   0  0  0  0  0  0  0  0  0  0  0  0
   60.5120   30.7930   49.2790 C   0  0  0  0  0  0  0  0  0  0  0  0
   61.1870   30.2010   48.2070 C   0  0  0  0  0  0  0  0  0  0  0  0
   60.5440   29.2450   47.4150 C   0  0  0  0  0  0  0  0  0  0  0  0
   59.2160   28.8890   47.6780 C   0  0  0  0  0  0  0  0  0  0  0  0
   58.5790   27.8990   46.8640 N   0  0  0  0  0  0  0  0  0  0  0  0
   58.0620   28.1250   45.5460 C   0  0  0  0  0  0  0  0  0  0  0  0
   58.8480   28.5100   44.6410 O   0  0  0  0  0  0  0  0  0  0  0  0
   56.5920   28.0460   45.2550 C   0  0  0  0  0  0  0  0  0  0  0  0
   56.0330   29.3930   45.2470 N   0  0  0  0  0  0  0  0  0  0  0  0
   56.5490   30.4790   44.4690 C   0  0  0  0  0  0  0  0  0  0  0  0
   56.2760   30.5280   43.2410 O   0  0  0  0  0  0  0  0  0  0  0  0
   57.4140   31.5210   45.0580 C   0  0  0  0  0  0  0  0  0  0  0  0
   56.9390   32.8310   45.2220 C   0  0  0  0  0  0  0  0  0  0  0  0
   57.7490   33.8090   45.8070 C   0  0  0  0  0  0  0  0  0  0  0  0
   59.0450   33.4850   46.2460 C   0  0  0  0  0  0  0  0  0  0  0  0
   59.8760   34.4350   46.8570 O   0  0  0  0  0  0  0  0  0  0  0  0
   61.0460   34.1430   47.5720 C   0  0  0  0  0  0  0  0  0  0  0  0
   61.0940   34.2150   48.9760 C   0  0  0  0  0  0  0  0  0  0  0  0
   62.2820   33.9300   49.6560 C   0  0  0  0  0  0  0  0  0  0  0  0
   63.4310   33.5830   48.9400 C   0  0  0  0  0  0  0  0  0  0  0  0
   63.3960   33.5300   47.5440 C   0  0  0  0  0  0  0  0  0  0  0  0
   62.2080   33.8170   46.8620 C   0  0  0  0  0  0  0  0  0  0  0  0
   59.5020   32.1700   46.1190 C   0  0  0  0  0  0  0  0  0  0  0  0
   58.6940   31.1920   45.5300 C   0  0  0  0  0  0  0  0  0  0  0  0
   58.5530   29.4580   48.7780 C   0  0  0  0  0  0  0  0  0  0  0  0
   57.6130   29.0430   51.3520 H   0  0  0  0  0  0  0  0  0  0  0  0
   61.0173   31.5513   49.8952 H   0  0  0  0  0  0  0  0  0  0  0  0
   62.2257   30.4880   47.9864 H   0  0  0  0  0  0  0  0  0  0  0  0
   61.0837   28.7708   46.5820 H   0  0  0  0  0  0  0  0  0  0  0  0
   56.4359   27.5768   44.2724 H   0  0  0  0  0  0  0  0  0  0  0  0
   56.0935   27.4430   46.0282 H   0  0  0  0  0  0  0  0  0  0  0  0
   55.9233   33.0901   44.8884 H   0  0  0  0  0  0  0  0  0  0  0  0
   57.3712   34.8354   45.9242 H   0  0  0  0  0  0  0  0  0  0  0  0
   60.1933   34.4966   49.5412 H   0  0  0  0  0  0  0  0  0  0  0  0
   62.3123   33.9789   50.7545 H   0  0  0  0  0  0  0  0  0  0  0  0
   64.3635   33.3515   49.4756 H   0  0  0  0  0  0  0  0  0  0  0  0
   64.3024   33.2626   46.9810 H   0  0  0  0  0  0  0  0  0  0  0  0
   62.1870   33.7863   45.7626 H   0  0  0  0  0  0  0  0  0  0  0  0
   60.5043   31.9025   46.4849 H   0  0  0  0  0  0  0  0  0  0  0  0
   59.0636   30.1602   45.4363 H   0  0  0  0  0  0  0  0  0  0  0  0
   57.5263   29.1455   49.0194 H   0  0  0  0  0  0  0  0  0  0  0  0
  1  2  1  0
  2  3  2  0
  2  4  2  0
  2  5  1  0
  5  6  2  0
  6  7  1  0
  7  8  2  0
  8  9  1  0
  9 10  1  0
 10 11  1  0
 11 12  2  0
 11 13  1  0
 13 14  1  0
 14 15  1  0
 15 16  2  0
 15 17  1  0
 17 18  2  0
 18 19  1  0
 19 20  2  0
 20 21  1  0
 21 22  1  0
 22 23  2  0
 23 24  1  0
 24 25  2  0
 25 26  1  0
 26 27  2  0
 20 28  1  0
 28 29  2  0
  9 30  2  0
 30  5  1  0
 29 17  1  0
 27 22  1  0
  1 31  1  0
  6 32  1  0
  7 33  1  0
  8 34  1  0
 13 35  1  0
 13 36  1  0
 18 37  1  0
 19 38  1  0
 23 39  1  0
 24 40  1  0
 25 41  1  0
 26 42  1  0
 27 43  1  0
 28 44  1  0
 29 45  1  0
 30 46  1  0
M  CHG  3   1  -1  10  -1  14  -1
M  END
>  <UniqueID>  (37) 
35

>  <SMILES>  (37) 
[NH-]S(=O)(=O)c1cccc([N-]C(=O)C[N-]C(=O)c2ccc(Oc3ccccc3)cc2)c1

>  <Energy>  (37) 
59.89744830679271

>  <Genealogy>  (37) 
[NH-]S(=O)(=O)c1cccc([N-]C(=O)C[N-]C(=O)c2ccc(Oc3ccccc3)cc2)c1 (protonated)
[NH-]S(=O)(=O)c1cccc([N-]C(=O)C[N-]C(=O)c2ccc(Oc3ccccc3)cc2)c1 (3D coordinates assigned)
[NH-]S(=O)(=O)c1cccc([N-]C(=O)C[N-]C(=O)c2ccc(Oc3ccccc3)cc2)c1 (optimized conformer: 59.89744830679271 kcal/mol)

>  <smiles>  (37) 
NS(=O)(=O)c1cccc(NC(=O)CNC(=O)c2ccc(Oc3ccccc3)cc2)c1

>  <score_type>  (37) 
oracle

>  <origin>  (37) 
adg

>  <m_score__min__energy>  (37) 
-14.210000000000001

>  <m_primary>  (37) 
energy

$$$$
37:0
     RDKit          3D

 48 50  0  0  0  0  0  0  0  0999 V2000
   65.3050   32.6930   49.7220 C   0  0  0  0  0  0  0  0  0  0  0  0
   64.0770   33.0850   48.9560 C   0  0  0  0  0  0  0  0  0  0  0  0
   64.1180   33.2040   47.5570 C   0  0  0  0  0  0  0  0  0  0  0  0
   62.9540   33.5080   46.8460 C   0  0  0  0  0  0  0  0  0  0  0  0
   61.7410   33.6750   47.5200 C   0  0  0  0  0  0  0  0  0  0  0  0
   61.6850   33.5580   48.9190 C   0  0  0  0  0  0  0  0  0  0  0  0
   60.3620   33.6310   49.6380 C   0  0  0  0  0  0  0  0  0  0  0  0
   59.5230   32.4370   49.2890 C   0  0  0  0  0  0  0  0  0  0  0  0
   58.2640   32.5260   49.2690 O   0  0  0  0  0  0  0  0  0  0  0  0
   60.1530   31.1910   48.9790 N   0  0  0  0  0  0  0  0  0  0  0  0
   59.7540   30.3500   47.8870 C   0  0  0  0  0  0  0  0  0  0  0  0
   58.8270   29.3260   48.1240 C   0  0  0  0  0  0  0  0  0  0  0  0
   58.3550   28.5390   47.0680 C   0  0  0  0  0  0  0  0  0  0  0  0
   58.8030   28.7750   45.7610 C   0  0  0  0  0  0  0  0  0  0  0  0
   58.1490   27.8620   44.4050 S   0  0  0  0  0  0  0  0  0  0  0  0
   57.4400   26.6260   44.8840 O   0  0  0  0  0  0  0  0  0  0  0  0
   59.2790   27.4520   43.5030 O   0  0  0  0  0  0  0  0  0  0  0  0
   57.0360   28.8520   43.5200 N   0  0  0  0  0  0  0  0  0  0  0  0
   56.1580   29.7820   44.1550 C   0  0  0  0  0  0  0  0  0  0  0  0
   54.9520   29.8100   43.8000 O   0  0  0  0  0  0  0  0  0  0  0  0
   56.6600   30.6270   45.2090 N   0  0  0  0  0  0  0  0  0  0  0  0
   57.3540   31.7330   45.1800 C   0  0  0  0  0  0  0  0  0  0  0  0
   57.7510   32.2220   43.9270 C   0  0  0  0  0  0  0  0  0  0  0  0
   58.5180   33.3830   43.8430 C   0  0  0  0  0  0  0  0  0  0  0  0
   58.8800   34.0580   45.0040 C   0  0  0  0  0  0  0  0  0  0  0  0
   58.4580   33.5650   46.2390 C   0  0  0  0  0  0  0  0  0  0  0  0
   57.7120   32.4250   46.3100 N   0  0  0  0  0  0  0  0  0  0  0  0
   59.7380   29.7900   45.5220 C   0  0  0  0  0  0  0  0  0  0  0  0
   60.2170   30.5700   46.5770 C   0  0  0  0  0  0  0  0  0  0  0  0
   62.8580   33.2590   49.6310 C   0  0  0  0  0  0  0  0  0  0  0  0
   65.1006   32.7583   50.8009 H   0  0  0  0  0  0  0  0  0  0  0  0
   65.5845   31.6610   49.4635 H   0  0  0  0  0  0  0  0  0  0  0  0
   66.1308   33.3722   49.4635 H   0  0  0  0  0  0  0  0  0  0  0  0
   65.0672   33.0578   47.0206 H   0  0  0  0  0  0  0  0  0  0  0  0
   62.9925   33.6162   45.7520 H   0  0  0  0  0  0  0  0  0  0  0  0
   60.8258   33.8991   46.9524 H   0  0  0  0  0  0  0  0  0  0  0  0
   60.5377   33.6482   50.7237 H   0  0  0  0  0  0  0  0  0  0  0  0
   59.8339   34.5460   49.3315 H   0  0  0  0  0  0  0  0  0  0  0  0
   58.4682   29.1398   49.1470 H   0  0  0  0  0  0  0  0  0  0  0  0
   57.6314   27.7340   47.2637 H   0  0  0  0  0  0  0  0  0  0  0  0
   57.4572   31.6894   43.0105 H   0  0  0  0  0  0  0  0  0  0  0  0
   58.8360   33.7642   42.8614 H   0  0  0  0  0  0  0  0  0  0  0  0
   59.4921   34.9703   44.9491 H   0  0  0  0  0  0  0  0  0  0  0  0
   58.7286   34.0991   47.1618 H   0  0  0  0  0  0  0  0  0  0  0  0
   57.4160   32.1310   47.2620 H   0  0  0  0  0  0  0  0  0  0  0  0
   60.0968   29.9738   44.4985 H   0  0  0  0  0  0  0  0  0  0  0  0
   60.9587   31.3588   46.3829 H   0  0  0  0  0  0  0  0  0  0  0  0
   62.8216   33.1603   50.7260 H   0  0  0  0  0  0  0  0  0  0  0  0
  1  2  1  0
  2  3  2  0
  3  4  1  0
  4  5  2  0
  5  6  1  0
  6  7  1  0
  7  8  1  0
  8  9  2  0
  8 10  1  0
 10 11  1  0
 11 12  2  0
 12 13  1  0
 13 14  2  0
 14 15  1  0
 15 16  2  0
 15 17  2  0
 15 18  1  0
 18 19  1  0
 19 20  2  0
 19 21  1  0
 21 22  2  3
 22 23  1  0
 23 24  2  0
 24 25  1  0
 25 26  2  0
 26 27  1  0
 14 28  1  0
 28 29  2  0
  6 30  2  0
 30  2  1  0
 29 11  1  0
 27 22  1  0
  1 31  1  0
  1 32  1  0
  1 33  1  0
  3 34  1  0
  4 35  1  0
  5 36  1  0
  7 37  1  0
  7 38  1  0
 12 39  1  0
 13 40  1  0
 23 41  1  0
 24 42  1  0
 25 43  1  0
 26 44  1  0
 27 45  1  0
 28 46  1  0
 29 47  1  0
 30 48  1  0
M  CHG  2  10  -1  18  -1
M  END
>  <UniqueID>  (38) 
36

>  <SMILES>  (38) 
Cc1cccc(CC(=O)[N-]c2ccc(S(=O)(=O)[N-]C(=O)N=c3cccc[nH]3)cc2)c1

>  <Energy>  (38) 
59.233553633675534

>  <Genealogy>  (38) 
Cc1cccc(CC(=O)[N-]c2ccc(S(=O)(=O)[N-]C(=O)N=c3cccc[nH]3)cc2)c1 (protonated)
Cc1cccc(CC(=O)[N-]c2ccc(S(=O)(=O)[N-]C(=O)N=c3cccc[nH]3)cc2)c1 (3D coordinates assigned)
Cc1cccc(CC(=O)[N-]c2ccc(S(=O)(=O)[N-]C(=O)N=c3cccc[nH]3)cc2)c1 (optimized conformer: 59.233553633675534 kcal/mol)

>  <smiles>  (38) 
Cc1cccc(CC(=O)Nc2ccc(S(=O)(=O)NC(=O)N=c3cccc[nH]3)cc2)c1

>  <score_type>  (38) 
oracle

>  <origin>  (38) 
adg

>  <m_score__min__energy>  (38) 
-11.720000000000001

>  <m_primary>  (38) 
energy

$$$$
38:0
     RDKit          3D

 50 52  0  0  0  0  0  0  0  0999 V2000
   56.9700   21.0960   43.0010 C   0  0  0  0  0  0  0  0  0  0  0  0
   55.9040   21.9250   43.4550 O   0  0  0  0  0  0  0  0  0  0  0  0
   56.0800   23.1340   44.1470 C   0  0  0  0  0  0  0  0  0  0  0  0
   57.3000   23.8360   44.1250 C   0  0  0  0  0  0  0  0  0  0  0  0
   57.4430   25.0260   44.8380 C   0  0  0  0  0  0  0  0  0  0  0  0
   56.3750   25.5310   45.5950 C   0  0  0  0  0  0  0  0  0  0  0  0
   56.5040   26.7370   46.3640 N   0  0  0  0  0  0  0  0  0  0  0  0
   56.8200   28.0350   45.8390 C   0  0  0  0  0  0  0  0  0  0  0  0
   55.9890   28.5950   45.0750 O   0  0  0  0  0  0  0  0  0  0  0  0
   58.0700   28.7470   46.2040 C   0  0  0  0  0  0  0  0  0  0  0  0
   58.4950   28.8150   47.5420 C   0  0  0  0  0  0  0  0  0  0  0  0
   59.6930   29.4500   47.8710 C   0  0  0  0  0  0  0  0  0  0  0  0
   60.4600   30.0790   46.8830 C   0  0  0  0  0  0  0  0  0  0  0  0
   61.7130   30.7040   47.1960 N   0  0  0  0  0  0  0  0  0  0  0  0
   61.9330   31.7570   48.1470 C   0  0  0  0  0  0  0  0  0  0  0  0
   62.3600   31.4530   49.2920 O   0  0  0  0  0  0  0  0  0  0  0  0
   61.8520   33.2100   47.7570 C   0  0  0  0  0  0  0  0  0  0  0  0
   60.4260   34.0490   48.5390 S   0  0  0  0  0  0  0  0  0  0  0  0
   59.3540   33.9300   47.0990 C   0  0  0  0  0  0  0  0  0  0  0  0
   59.7480   34.5310   45.9000 C   0  0  0  0  0  0  0  0  0  0  0  0
   58.9120   34.4530   44.7840 C   0  0  0  0  0  0  0  0  0  0  0  0
   57.6970   33.7750   44.8770 C   0  0  0  0  0  0  0  0  0  0  0  0
   57.3400   33.1720   46.0850 C   0  0  0  0  0  0  0  0  0  0  0  0
   58.1670   33.2540   47.1660 N   0  0  0  0  0  0  0  0  0  0  0  0
   57.7830   32.6510   48.3430 O   0  0  0  0  0  0  0  0  0  0  0  0
   60.0410   30.0170   45.5490 C   0  0  0  0  0  0  0  0  0  0  0  0
   58.8490   29.3680   45.2120 C   0  0  0  0  0  0  0  0  0  0  0  0
   55.1500   24.8570   45.5890 C   0  0  0  0  0  0  0  0  0  0  0  0
   54.9980   23.6490   44.8770 C   0  0  0  0  0  0  0  0  0  0  0  0
   53.7890   22.9340   44.8750 O   0  0  0  0  0  0  0  0  0  0  0  0
   52.5250   23.4840   45.2310 C   0  0  0  0  0  0  0  0  0  0  0  0
   57.5052   20.6798   43.8672 H   0  0  0  0  0  0  0  0  0  0  0  0
   56.5626   20.2751   42.3926 H   0  0  0  0  0  0  0  0  0  0  0  0
   57.6653   21.6931   42.3926 H   0  0  0  0  0  0  0  0  0  0  0  0
   58.1459   23.4434   43.5417 H   0  0  0  0  0  0  0  0  0  0  0  0
   58.3978   25.5714   44.8068 H   0  0  0  0  0  0  0  0  0  0  0  0
   57.8793   28.3648   48.3346 H   0  0  0  0  0  0  0  0  0  0  0  0
   60.0378   29.4565   48.9155 H   0  0  0  0  0  0  0  0  0  0  0  0
   62.7775   33.7146   48.0714 H   0  0  0  0  0  0  0  0  0  0  0  0
   61.7219   33.2630   46.6660 H   0  0  0  0  0  0  0  0  0  0  0  0
   60.7095   35.0615   45.8360 H   0  0  0  0  0  0  0  0  0  0  0  0
   59.2106   34.9242   43.8360 H   0  0  0  0  0  0  0  0  0  0  0  0
   57.0262   33.7157   44.0072 H   0  0  0  0  0  0  0  0  0  0  0  0
   56.3871   32.6283   46.1648 H   0  0  0  0  0  0  0  0  0  0  0  0
   60.6526   30.4813   44.7614 H   0  0  0  0  0  0  0  0  0  0  0  0
   58.5185   29.3432   44.1631 H   0  0  0  0  0  0  0  0  0  0  0  0
   54.2967   25.2728   46.1449 H   0  0  0  0  0  0  0  0  0  0  0  0
   52.4373   23.5222   46.3268 H   0  0  0  0  0  0  0  0  0  0  0  0
   52.4389   24.5009   44.8206 H   0  0  0  0  0  0  0  0  0  0  0  0
   51.7222   22.8538   44.8206 H   0  0  0  0  0  0  0  0  0  0  0  0
  1  2  1  0
  2  3  1  0
  3  4  2  0
  4  5  1  0
  5  6  2  0
  6  7  1  0
  7  8  1  0
  8  9  2  0
  8 10  1  0
 10 11  2  0
 11 12  1  0
 12 13  2  0
 13 14  1  0
 14 15  1  0
 15 16  2  0
 15 17  1  0
 17 18  1  0
 18 19  1  0
 19 20  2  0
 20 21  1  0
 21 22  2  0
 22 23  1  0
 23 24  2  0
 24 25  1  0
 13 26  1  0
 26 27  2  0
  6 28  1  0
 28 29  2  0
 29 30  1  0
 30 31  1  0
 29  3  1  0
 27 10  1  0
 24 19  1  0
  1 32  1  0
  1 33  1  0
  1 34  1  0
  4 35  1  0
  5 36  1  0
 11 37  1  0
 12 38  1  0
 17 39  1  0
 17 40  1  0
 20 41  1  0
 21 42  1  0
 22 43  1  0
 23 44  1  0
 26 45  1  0
 27 46  1  0
 28 47  1  0
 31 48  1  0
 31 49  1  0
 31 50  1  0
M  CHG  4   7  -1  14  -1  24   1  25  -1
M  END
>  <UniqueID>  (39) 
37

>  <SMILES>  (39) 
COc1ccc([N-]C(=O)c2ccc([N-]C(=O)CSc3cccc[n+]3[O-])cc2)cc1OC

>  <Energy>  (39) 
58.414239253665386

>  <Genealogy>  (39) 
COc1ccc([N-]C(=O)c2ccc([N-]C(=O)CSc3cccc[n+]3[O-])cc2)cc1OC (protonated)
COc1ccc([N-]C(=O)c2ccc([N-]C(=O)CSc3cccc[n+]3[O-])cc2)cc1OC (3D coordinates assigned)
COc1ccc([N-]C(=O)c2ccc([N-]C(=O)CSc3cccc[n+]3[O-])cc2)cc1OC (optimized conformer: 58.414239253665386 kcal/mol)

>  <smiles>  (39) 
COc1ccc(NC(=O)c2ccc(NC(=O)CSc3cccc[n+]3[O-])cc2)cc1OC

>  <score_type>  (39) 
oracle

>  <origin>  (39) 
adg

>  <m_score__min__energy>  (39) 
-12.630000000000001

>  <m_primary>  (39) 
energy

$$$$
39:0
     RDKit          3D

 61 63  0  0  0  0  0  0  0  0999 V2000
   63.3770   33.9240   46.3700 C   0  0  0  0  0  0  0  0  0  0  0  0
   62.5470   34.0530   47.5200 O   0  0  0  0  0  0  0  0  0  0  0  0
   61.8110   33.0030   48.0920 C   0  0  0  0  0  0  0  0  0  0  0  0
   62.3650   31.7280   48.3020 C   0  0  0  0  0  0  0  0  0  0  0  0
   61.5950   30.7110   48.8650 C   0  0  0  0  0  0  0  0  0  0  0  0
   60.2740   30.9540   49.2370 C   0  0  0  0  0  0  0  0  0  0  0  0
   59.7010   32.2260   49.0440 C   0  0  0  0  0  0  0  0  0  0  0  0
   58.3910   32.5130   49.4580 O   0  0  0  0  0  0  0  0  0  0  0  0
   57.7990   32.0380   50.6630 C   0  0  0  0  0  0  0  0  0  0  0  0
   60.4730   33.2450   48.4480 C   0  0  0  0  0  0  0  0  0  0  0  0
   59.9490   34.5230   48.2060 O   0  0  0  0  0  0  0  0  0  0  0  0
   59.7720   35.0870   46.9050 C   0  0  0  0  0  0  0  0  0  0  0  0
   59.3250   34.0230   45.8930 C   0  0  0  0  0  0  0  0  0  0  0  0
   58.3200   33.1210   46.4730 N   0  0  0  0  0  0  0  0  0  0  0  0
   57.0220   33.1850   45.7770 C   0  0  0  0  0  0  0  0  0  0  0  0
   57.0670   32.2930   44.5360 C   0  0  0  0  0  0  0  0  0  0  0  0
   56.6860   30.9560   44.8630 O   0  0  0  0  0  0  0  0  0  0  0  0
   57.5330   29.9710   45.3980 C   0  0  0  0  0  0  0  0  0  0  0  0
   58.7950   30.2660   45.9500 C   0  0  0  0  0  0  0  0  0  0  0  0
   59.5840   29.2440   46.4820 C   0  0  0  0  0  0  0  0  0  0  0  0
   59.1350   27.9230   46.4580 C   0  0  0  0  0  0  0  0  0  0  0  0
   57.8960   27.6060   45.8850 C   0  0  0  0  0  0  0  0  0  0  0  0
   57.4420   26.2420   45.9010 N   0  0  0  0  0  0  0  0  0  0  0  0
   56.0610   25.8500   46.0130 C   0  0  0  0  0  0  0  0  0  0  0  0
   55.1480   26.7180   46.0250 O   0  0  0  0  0  0  0  0  0  0  0  0
   55.6960   24.4710   46.1470 N   0  0  0  0  0  0  0  0  0  0  0  0
   56.0400   23.4220   45.2320 C   0  0  0  0  0  0  0  0  0  0  0  0
   56.2120   23.6740   43.8580 C   0  0  0  0  0  0  0  0  0  0  0  0
   56.4950   22.6220   42.9800 C   0  0  0  0  0  0  0  0  0  0  0  0
   56.5990   21.3150   43.4650 C   0  0  0  0  0  0  0  0  0  0  0  0
   56.8680   20.2960   42.6140 F   0  0  0  0  0  0  0  0  0  0  0  0
   56.4110   21.0570   44.8270 C   0  0  0  0  0  0  0  0  0  0  0  0
   56.1210   22.1050   45.7040 C   0  0  0  0  0  0  0  0  0  0  0  0
   57.0930   28.6420   45.3720 C   0  0  0  0  0  0  0  0  0  0  0  0
   64.4182   33.7622   46.6856 H   0  0  0  0  0  0  0  0  0  0  0  0
   63.0390   33.0676   45.7681 H   0  0  0  0  0  0  0  0  0  0  0  0
   63.3149   34.8426   45.7681 H   0  0  0  0  0  0  0  0  0  0  0  0
   63.4103   31.5319   48.0210 H   0  0  0  0  0  0  0  0  0  0  0  0
   62.0319   29.7129   49.0162 H   0  0  0  0  0  0  0  0  0  0  0  0
   59.6750   30.1470   49.6843 H   0  0  0  0  0  0  0  0  0  0  0  0
   58.3310   32.4649   51.5260 H   0  0  0  0  0  0  0  0  0  0  0  0
   56.7423   32.3416   50.6969 H   0  0  0  0  0  0  0  0  0  0  0  0
   57.8664   30.9406   50.6969 H   0  0  0  0  0  0  0  0  0  0  0  0
   59.0071   35.8758   46.9573 H   0  0  0  0  0  0  0  0  0  0  0  0
   60.7351   35.5009   46.5716 H   0  0  0  0  0  0  0  0  0  0  0  0
   58.8921   34.5239   45.0146 H   0  0  0  0  0  0  0  0  0  0  0  0
   60.2034   33.4255   45.6077 H   0  0  0  0  0  0  0  0  0  0  0  0
   58.1740   33.4080   47.4700 H   0  0  0  0  0  0  0  0  0  0  0  0
   56.2263   32.8357   46.4514 H   0  0  0  0  0  0  0  0  0  0  0  0
   56.8170   34.2230   45.4763 H   0  0  0  0  0  0  0  0  0  0  0  0
   56.3749   32.6912   43.7795 H   0  0  0  0  0  0  0  0  0  0  0  0
   58.0948   32.2827   44.1441 H   0  0  0  0  0  0  0  0  0  0  0  0
   59.1598   31.3037   45.9620 H   0  0  0  0  0  0  0  0  0  0  0  0
   60.5639   29.4813   46.9220 H   0  0  0  0  0  0  0  0  0  0  0  0
   59.7571   27.1260   46.8913 H   0  0  0  0  0  0  0  0  0  0  0  0
   58.1640   25.4960   45.7950 H   0  0  0  0  0  0  0  0  0  0  0  0
   56.1237   24.7008   43.4734 H   0  0  0  0  0  0  0  0  0  0  0  0
   56.6357   22.8234   41.9078 H   0  0  0  0  0  0  0  0  0  0  0  0
   56.4916   20.0281   45.2077 H   0  0  0  0  0  0  0  0  0  0  0  0
   55.9553   21.8953   46.7710 H   0  0  0  0  0  0  0  0  0  0  0  0
   56.1073   28.4045   44.9453 H   0  0  0  0  0  0  0  0  0  0  0  0
  1  2  1  0
  2  3  1  0
  3  4  2  0
  4  5  1  0
  5  6  2  0
  6  7  1  0
  7  8  1  0
  8  9  1  0
  7 10  2  0
 10 11  1  0
 11 12  1  0
 12 13  1  0
 13 14  1  0
 14 15  1  0
 15 16  1  0
 16 17  1  0
 17 18  1  0
 18 19  2  0
 19 20  1  0
 20 21  2  0
 21 22  1  0
 22 23  1  0
 23 24  1  0
 24 25  2  0
 24 26  1  0
 26 27  1  0
 27 28  2  0
 28 29  1  0
 29 30  2  0
 30 31  1  0
 30 32  1  0
 32 33  2  0
 22 34  2  0
 10  3  1  0
 34 18  1  0
 33 27  1  0
  1 35  1  0
  1 36  1  0
  1 37  1  0
  4 38  1  0
  5 39  1  0
  6 40  1  0
  9 41  1  0
  9 42  1  0
  9 43  1  0
 12 44  1  0
 12 45  1  0
 13 46  1  0
 13 47  1  0
 14 48  1  0
 15 49  1  0
 15 50  1  0
 16 51  1  0
 16 52  1  0
 19 53  1  0
 20 54  1  0
 21 55  1  0
 23 56  1  0
 28 57  1  0
 29 58  1  0
 32 59  1  0
 33 60  1  0
 34 61  1  0
M  CHG  1  26  -1
M  END
>  <UniqueID>  (40) 
38

>  <SMILES>  (40) 
COc1cccc(OC)c1OCCNCCOc1cccc(NC(=O)[N-]c2ccc(F)cc2)c1

>  <Energy>  (40) 
72.76180338561535

>  <Genealogy>  (40) 
COc1cccc(OC)c1OCCNCCOc1cccc(NC(=O)[N-]c2ccc(F)cc2)c1 (protonated)
COc1cccc(OC)c1OCCNCCOc1cccc(NC(=O)[N-]c2ccc(F)cc2)c1 (3D coordinates assigned)
COc1cccc(OC)c1OCCNCCOc1cccc(NC(=O)[N-]c2ccc(F)cc2)c1 (optimized conformer: 72.76180338561535 kcal/mol)

>  <smiles>  (40) 
COc1cccc(OC)c1OCCNCCOc1cccc(NC(=O)Nc2ccc(F)cc2)c1

>  <score_type>  (40) 
oracle

>  <origin>  (40) 
adg

>  <m_score__min__energy>  (40) 
-8.9100000000000001

>  <m_primary>  (40) 
energy

$$$$
40:0
     RDKit          3D

 66 69  0  0  0  0  0  0  0  0999 V2000
   61.8580   30.6190   46.8000 O   0  0  0  0  0  0  0  0  0  0  0  0
   60.9690   31.1890   47.4860 C   0  0  0  0  0  0  0  0  0  0  0  0
   59.6210   30.5470   47.6370 C   0  0  0  0  0  0  0  0  0  0  0  0
   59.4230   29.4420   46.6170 C   0  0  0  0  0  0  0  0  0  0  0  0
   60.0900   28.2230   46.8290 C   0  0  0  0  0  0  0  0  0  0  0  0
   59.8960   27.1390   45.9730 C   0  0  0  0  0  0  0  0  0  0  0  0
   59.0180   27.2410   44.8980 C   0  0  0  0  0  0  0  0  0  0  0  0
   58.3180   28.4340   44.6680 C   0  0  0  0  0  0  0  0  0  0  0  0
   57.3980   28.5090   43.6100 C   0  0  0  0  0  0  0  0  0  0  0  0
   56.6710   29.6780   43.3910 C   0  0  0  0  0  0  0  0  0  0  0  0
   56.8610   30.7850   44.2180 C   0  0  0  0  0  0  0  0  0  0  0  0
   57.7780   30.7310   45.2710 C   0  0  0  0  0  0  0  0  0  0  0  0
   58.5180   29.5540   45.5210 C   0  0  0  0  0  0  0  0  0  0  0  0
   61.2110   32.4700   48.0810 N   0  0  0  0  0  0  0  0  0  0  0  0
   61.8050   33.6640   47.4770 C   0  0  2  0  0  0  0  0  0  0  0  0
   61.3250   33.8550   46.0270 C   0  0  0  0  0  0  0  0  0  0  0  0
   59.8180   33.9030   45.9640 C   0  0  0  0  0  0  0  0  0  0  0  0
   59.0600   33.8240   47.1450 C   0  0  0  0  0  0  0  0  0  0  0  0
   57.6630   33.7950   47.0850 C   0  0  0  0  0  0  0  0  0  0  0  0
   57.0140   33.8390   45.8470 C   0  0  0  0  0  0  0  0  0  0  0  0
   57.7610   33.9120   44.6690 C   0  0  0  0  0  0  0  0  0  0  0  0
   59.1580   33.9430   44.7240 C   0  0  0  0  0  0  0  0  0  0  0  0
   63.3490   33.6870   47.6110 C   0  0  2  0  0  0  0  0  0  0  0  0
   63.9340   32.9300   46.5810 O   0  0  0  0  0  0  0  0  0  0  0  0
   63.8550   33.1630   48.9820 C   0  0  0  0  0  0  0  0  0  0  0  0
   63.7830   31.6870   49.1070 N   0  0  0  0  0  0  0  0  0  0  0  0
   63.5020   31.2710   50.4910 C   0  0  0  0  0  0  0  0  0  0  0  0
   62.0560   30.8860   50.6590 C   0  0  0  0  0  0  0  0  0  0  0  0
   61.6660   29.5440   50.5400 C   0  0  0  0  0  0  0  0  0  0  0  0
   60.3240   29.1870   50.6780 C   0  0  0  0  0  0  0  0  0  0  0  0
   59.3590   30.1660   50.9290 C   0  0  0  0  0  0  0  0  0  0  0  0
   59.7320   31.5150   51.0630 C   0  0  0  0  0  0  0  0  0  0  0  0
   58.6880   32.5810   51.2820 C   0  0  0  0  0  0  0  0  0  0  0  0
   57.5570   32.2660   50.5520 F   0  0  0  0  0  0  0  0  0  0  0  0
   59.1610   33.8150   50.8720 F   0  0  0  0  0  0  0  0  0  0  0  0
   58.3500   32.6710   52.6220 F   0  0  0  0  0  0  0  0  0  0  0  0
   61.0840   31.8700   50.8990 C   0  0  0  0  0  0  0  0  0  0  0  0
   59.5373   30.1215   48.6479 H   0  0  0  0  0  0  0  0  0  0  0  0
   58.8495   31.3140   47.4742 H   0  0  0  0  0  0  0  0  0  0  0  0
   60.7756   28.1224   47.6833 H   0  0  0  0  0  0  0  0  0  0  0  0
   60.4396   26.1989   46.1484 H   0  0  0  0  0  0  0  0  0  0  0  0
   58.8726   26.3823   44.2261 H   0  0  0  0  0  0  0  0  0  0  0  0
   57.2502   27.6410   42.9507 H   0  0  0  0  0  0  0  0  0  0  0  0
   55.9465   29.7275   42.5648 H   0  0  0  0  0  0  0  0  0  0  0  0
   56.2858   31.7056   44.0403 H   0  0  0  0  0  0  0  0  0  0  0  0
   57.9250   31.6133   45.9113 H   0  0  0  0  0  0  0  0  0  0  0  0
   61.4468   34.5342   48.0467 H   0  0  0  0  0  0  0  0  0  0  0  0
   61.7327   34.7977   45.6332 H   0  0  0  0  0  0  0  0  0  0  0  0
   61.6765   33.0047   45.4241 H   0  0  0  0  0  0  0  0  0  0  0  0
   59.5675   33.7848   48.1202 H   0  0  0  0  0  0  0  0  0  0  0  0
   57.0742   33.7375   48.0124 H   0  0  0  0  0  0  0  0  0  0  0  0
   55.9152   33.8161   45.8009 H   0  0  0  0  0  0  0  0  0  0  0  0
   57.2493   33.9452   43.6959 H   0  0  0  0  0  0  0  0  0  0  0  0
   59.7422   33.9989   43.7936 H   0  0  0  0  0  0  0  0  0  0  0  0
   63.6500   34.7423   47.5353 H   0  0  0  0  0  0  0  0  0  0  0  0
   63.3380   32.1530   46.4180 H   0  0  0  0  0  0  0  0  0  0  0  0
   64.9024   33.4738   49.1099 H   0  0  0  0  0  0  0  0  0  0  0  0
   63.1997   33.5886   49.7562 H   0  0  0  0  0  0  0  0  0  0  0  0
   63.0030   31.3360   48.5020 H   0  0  0  0  0  0  0  0  0  0  0  0
   64.6620   31.2340   48.7640 H   0  0  0  0  0  0  0  0  0  0  0  0
   64.1351   30.4072   50.7419 H   0  0  0  0  0  0  0  0  0  0  0  0
   63.7182   32.1167   51.1604 H   0  0  0  0  0  0  0  0  0  0  0  0
   62.4208   28.7700   50.3371 H   0  0  0  0  0  0  0  0  0  0  0  0
   60.0250   28.1322   50.5890 H   0  0  0  0  0  0  0  0  0  0  0  0
   58.3011   29.8795   51.0223 H   0  0  0  0  0  0  0  0  0  0  0  0
   61.3815   32.9273   50.9594 H   0  0  0  0  0  0  0  0  0  0  0  0
  1  2  2  0
  2  3  1  0
  3  4  1  0
  4  5  2  0
  5  6  1  0
  6  7  2  0
  7  8  1  0
  8  9  2  0
  9 10  1  0
 10 11  2  0
 11 12  1  0
 12 13  2  0
  2 14  1  0
 14 15  1  0
 15 16  1  0
 16 17  1  0
 17 18  2  0
 18 19  1  0
 19 20  2  0
 20 21  1  0
 21 22  2  0
 15 23  1  0
 23 24  1  0
 23 25  1  0
 25 26  1  0
 26 27  1  0
 27 28  1  0
 28 29  2  0
 29 30  1  0
 30 31  2  0
 31 32  1  0
 32 33  1  0
 33 34  1  0
 33 35  1  0
 33 36  1  0
 32 37  2  0
 13  4  1  0
 22 17  1  0
 37 28  1  0
 13  8  1  0
  3 38  1  0
  3 39  1  0
  5 40  1  0
  6 41  1  0
  7 42  1  0
  9 43  1  0
 10 44  1  0
 11 45  1  0
 12 46  1  0
 15 47  1  1
 16 48  1  0
 16 49  1  0
 18 50  1  0
 19 51  1  0
 20 52  1  0
 21 53  1  0
 22 54  1  0
 23 55  1  6
 24 56  1  0
 25 57  1  0
 25 58  1  0
 26 59  1  0
 26 60  1  0
 27 61  1  0
 27 62  1  0
 29 63  1  0
 30 64  1  0
 31 65  1  0
 37 66  1  0
M  CHG  2  14  -1  26   1
M  END
>  <UniqueID>  (41) 
39

>  <SMILES>  (41) 
O=C(Cc1cccc2ccccc12)[N-][C@H](Cc1ccccc1)[C@H](O)C[NH2+]Cc1cccc(C(F)(F)F)c1

>  <Energy>  (41) 
66.92261034600081

>  <Genealogy>  (41) 
O=C(Cc1cccc2ccccc12)[N-]C(Cc1ccccc1)C(O)C[NH2+]Cc1cccc(C(F)(F)F)c1 (protonated)
O=C(Cc1cccc2ccccc12)[N-][C@H](Cc1ccccc1)[C@H](O)C[NH2+]Cc1cccc(C(F)(F)F)c1 (chirality)
O=C(Cc1cccc2ccccc12)[N-][C@H](Cc1ccccc1)[C@H](O)C[NH2+]Cc1cccc(C(F)(F)F)c1 (3D coordinates assigned)
O=C(Cc1cccc2ccccc12)[N-][C@H](Cc1ccccc1)[C@H](O)C[NH2+]Cc1cccc(C(F)(F)F)c1 (optimized conformer: 66.92261034600081 kcal/mol)

>  <smiles>  (41) 
O=C(Cc1cccc2ccccc12)NC(Cc1ccccc1)C(O)CNCc1cccc(C(F)(F)F)c1

>  <score_type>  (41) 
oracle

>  <origin>  (41) 
adg

>  <m_score__min__energy>  (41) 
-10.08

>  <m_primary>  (41) 
energy

$$$$
41:0
     RDKit          3D

 77 80  0  0  0  0  0  0  0  0999 V2000
   60.0150   34.0590   49.0520 C   0  0  0  0  0  0  0  0  0  0  0  0
   58.7790   33.8140   48.3840 O   0  0  0  0  0  0  0  0  0  0  0  0
   58.6380   33.7320   46.9870 C   0  0  0  0  0  0  0  0  0  0  0  0
   57.9020   32.7010   46.3730 C   0  0  0  0  0  0  0  0  0  0  0  0
   57.7820   32.6370   44.9770 C   0  0  0  0  0  0  0  0  0  0  0  0
   57.0350   31.5000   44.3340 C   0  0  0  0  0  0  0  0  0  0  0  0
   56.8990   30.3620   45.2420 N   0  0  0  0  0  0  0  0  0  0  0  0
   56.6030   29.0210   44.8320 C   0  0  0  0  0  0  0  0  0  0  0  0
   55.5330   28.4870   45.2310 O   0  0  0  0  0  0  0  0  0  0  0  0
   57.5350   28.2650   43.9200 C   0  0  0  0  0  0  0  0  0  0  0  0
   58.4590   27.2730   44.6760 C   0  0  2  0  0  0  0  0  0  0  0  0
   57.7340   26.3530   45.6660 C   0  0  0  0  0  0  0  0  0  0  0  0
   56.4450   25.8480   45.3900 C   0  0  0  0  0  0  0  0  0  0  0  0
   55.8120   24.9510   46.2690 C   0  0  0  0  0  0  0  0  0  0  0  0
   54.5250   24.4470   46.0250 O   0  0  0  0  0  0  0  0  0  0  0  0
   54.1170   23.8050   44.8180 C   0  0  0  0  0  0  0  0  0  0  0  0
   56.4770   24.5250   47.4250 C   0  0  0  0  0  0  0  0  0  0  0  0
   55.8220   23.6150   48.2740 O   0  0  0  0  0  0  0  0  0  0  0  0
   55.5180   22.2630   47.9300 C   0  0  0  0  0  0  0  0  0  0  0  0
   57.7680   25.0040   47.7030 C   0  0  0  0  0  0  0  0  0  0  0  0
   58.4050   25.8980   46.8360 C   0  0  0  0  0  0  0  0  0  0  0  0
   59.7720   26.4080   47.2400 C   0  0  0  0  0  0  0  0  0  0  0  0
   60.5100   27.0660   46.0840 C   0  0  0  0  0  0  0  0  0  0  0  0
   59.5850   27.9410   45.3710 N   0  0  0  0  0  0  0  0  0  0  0  0
   59.6870   29.3640   45.6000 C   0  0  0  0  0  0  0  0  0  0  0  0
   59.6450   30.1430   44.6050 O   0  0  0  0  0  0  0  0  0  0  0  0
   59.9230   29.9330   46.9470 C   0  0  0  0  0  0  0  0  0  0  0  0
   61.0950   30.6400   47.2560 C   0  0  0  0  0  0  0  0  0  0  0  0
   61.3890   31.0150   48.5750 C   0  0  0  0  0  0  0  0  0  0  0  0
   62.6310   31.6280   48.8070 O   0  0  0  0  0  0  0  0  0  0  0  0
   63.2570   32.5620   47.9310 C   0  0  0  0  0  0  0  0  0  0  0  0
   60.4490   30.7510   49.6070 C   0  0  0  0  0  0  0  0  0  0  0  0
   60.7110   31.1950   50.9100 O   0  0  0  0  0  0  0  0  0  0  0  0
   61.8060   30.7310   51.6980 C   0  0  0  0  0  0  0  0  0  0  0  0
   59.2370   30.0920   49.2940 C   0  0  0  0  0  0  0  0  0  0  0  0
   58.3000   29.8640   50.3140 O   0  0  0  0  0  0  0  0  0  0  0  0
   57.7750   30.8740   51.1670 C   0  0  0  0  0  0  0  0  0  0  0  0
   58.9940   29.6850   47.9700 C   0  0  0  0  0  0  0  0  0  0  0  0
   58.3930   33.6200   44.1880 C   0  0  0  0  0  0  0  0  0  0  0  0
   59.1260   34.6460   44.7890 C   0  0  0  0  0  0  0  0  0  0  0  0
   59.2560   34.7050   46.1820 C   0  0  0  0  0  0  0  0  0  0  0  0
   59.9910   35.7470   46.7420 O   0  0  0  0  0  0  0  0  0  0  0  0
   59.8563   34.0275   50.1400 H   0  0  0  0  0  0  0  0  0  0  0  0
   60.7457   33.2882   48.7656 H   0  0  0  0  0  0  0  0  0  0  0  0
   60.3964   35.0502   48.7656 H   0  0  0  0  0  0  0  0  0  0  0  0
   57.4150   31.9361   46.9957 H   0  0  0  0  0  0  0  0  0  0  0  0
   56.0322   31.8491   44.0468 H   0  0  0  0  0  0  0  0  0  0  0  0
   57.6041   31.1700   43.4524 H   0  0  0  0  0  0  0  0  0  0  0  0
   56.9317   27.6981   43.1956 H   0  0  0  0  0  0  0  0  0  0  0  0
   58.1831   29.0054   43.4283 H   0  0  0  0  0  0  0  0  0  0  0  0
   58.8564   26.6417   43.8676 H   0  0  0  0  0  0  0  0  0  0  0  0
   55.9268   26.1614   44.4717 H   0  0  0  0  0  0  0  0  0  0  0  0
   53.5415   22.8995   45.0607 H   0  0  0  0  0  0  0  0  0  0  0  0
   53.4894   24.4920   44.2313 H   0  0  0  0  0  0  0  0  0  0  0  0
   55.0055   23.5285   44.2313 H   0  0  0  0  0  0  0  0  0  0  0  0
   55.3851   21.6720   48.8482 H   0  0  0  0  0  0  0  0  0  0  0  0
   54.5911   22.2347   47.3384 H   0  0  0  0  0  0  0  0  0  0  0  0
   56.3436   21.8407   47.3384 H   0  0  0  0  0  0  0  0  0  0  0  0
   58.2852   24.6714   48.6151 H   0  0  0  0  0  0  0  0  0  0  0  0
   59.6497   27.1457   48.0467 H   0  0  0  0  0  0  0  0  0  0  0  0
   60.3680   25.5446   47.5706 H   0  0  0  0  0  0  0  0  0  0  0  0
   61.3527   27.6569   46.4722 H   0  0  0  0  0  0  0  0  0  0  0  0
   60.8963   26.2952   45.4008 H   0  0  0  0  0  0  0  0  0  0  0  0
   61.7951   30.9046   46.4499 H   0  0  0  0  0  0  0  0  0  0  0  0
   63.7729   33.3317   48.5238 H   0  0  0  0  0  0  0  0  0  0  0  0
   63.9867   32.0375   47.2966 H   0  0  0  0  0  0  0  0  0  0  0  0
   62.4945   33.0376   47.2966 H   0  0  0  0  0  0  0  0  0  0  0  0
   61.5600   30.8352   52.7651 H   0  0  0  0  0  0  0  0  0  0  0  0
   62.0007   29.6730   51.4683 H   0  0  0  0  0  0  0  0  0  0  0  0
   62.7016   31.3270   51.4683 H   0  0  0  0  0  0  0  0  0  0  0  0
   57.9265   30.5825   52.2168 H   0  0  0  0  0  0  0  0  0  0  0  0
   58.2932   31.8245   50.9719 H   0  0  0  0  0  0  0  0  0  0  0  0
   56.6993   30.9960   50.9719 H   0  0  0  0  0  0  0  0  0  0  0  0
   58.0566   29.1615   47.7309 H   0  0  0  0  0  0  0  0  0  0  0  0
   58.2954   33.5839   43.0929 H   0  0  0  0  0  0  0  0  0  0  0  0
   59.6048   35.4135   44.1632 H   0  0  0  0  0  0  0  0  0  0  0  0
   59.5730   36.3890   47.4140 H   0  0  0  0  0  0  0  0  0  0  0  0
  1  2  1  0
  2  3  1  0
  3  4  2  0
  4  5  1  0
  5  6  1  0
  6  7  1  0
  7  8  1  0
  8  9  2  0
  8 10  1  0
 10 11  1  0
 11 12  1  0
 12 13  2  0
 13 14  1  0
 14 15  1  0
 15 16  1  0
 14 17  2  0
 17 18  1  0
 18 19  1  0
 17 20  1  0
 20 21  2  0
 21 22  1  0
 22 23  1  0
 23 24  1  0
 24 25  1  0
 25 26  2  0
 25 27  1  0
 27 28  2  0
 28 29  1  0
 29 30  1  0
 30 31  1  0
 29 32  2  0
 32 33  1  0
 33 34  1  0
 32 35  1  0
 35 36  1  0
 36 37  1  0
 35 38  2  0
  5 39  2  0
 39 40  1  0
 40 41  2  0
 41 42  1  0
 41  3  1  0
 24 11  1  0
 38 27  1  0
 21 12  1  0
  1 43  1  0
  1 44  1  0
  1 45  1  0
  4 46  1  0
  6 47  1  0
  6 48  1  0
 10 49  1  0
 10 50  1  0
 11 51  1  6
 13 52  1  0
 16 53  1  0
 16 54  1  0
 16 55  1  0
 19 56  1  0
 19 57  1  0
 19 58  1  0
 20 59  1  0
 22 60  1  0
 22 61  1  0
 23 62  1  0
 23 63  1  0
 28 64  1  0
 31 65  1  0
 31 66  1  0
 31 67  1  0
 34 68  1  0
 34 69  1  0
 34 70  1  0
 37 71  1  0
 37 72  1  0
 37 73  1  0
 38 74  1  0
 39 75  1  0
 40 76  1  0
 42 77  1  0
M  CHG  1   7  -1
M  END
>  <UniqueID>  (42) 
40

>  <SMILES>  (42) 
COc1cc(C[N-]C(=O)C[C@@H]2c3cc(OC)c(OC)cc3CCN2C(=O)c2cc(OC)c(OC)c(OC)c2)ccc1O

>  <Energy>  (42) 
102.40543997498246

>  <Genealogy>  (42) 
COc1cc(C[N-]C(=O)CC2c3cc(OC)c(OC)cc3CCN2C(=O)c2cc(OC)c(OC)c(OC)c2)ccc1O (protonated)
COc1cc(C[N-]C(=O)C[C@@H]2c3cc(OC)c(OC)cc3CCN2C(=O)c2cc(OC)c(OC)c(OC)c2)ccc1O (chirality)
COc1cc(C[N-]C(=O)C[C@@H]2c3cc(OC)c(OC)cc3CCN2C(=O)c2cc(OC)c(OC)c(OC)c2)ccc1O (3D coordinates assigned)
COc1cc(C[N-]C(=O)C[C@@H]2c3cc(OC)c(OC)cc3CCN2C(=O)c2cc(OC)c(OC)c(OC)c2)ccc1O (nonaromatic ring conformer: 102.40543997498246 kcal/mol)

>  <smiles>  (42) 
COc1cc(CNC(=O)CC2c3cc(OC)c(OC)cc3CCN2C(=O)c2cc(OC)c(OC)c(OC)c2)ccc1O

>  <score_type>  (42) 
oracle

>  <origin>  (42) 
adg

>  <m_score__min__energy>  (42) 
-9.5600000000000005

>  <m_primary>  (42) 
energy

$$$$
42:0
     RDKit          3D

 60 63  0  0  0  0  0  0  0  0999 V2000
   59.5870   27.2200   46.4040 C   0  0  0  0  0  0  0  0  0  0  0  0
   58.5990   26.1770   45.9550 C   0  0  0  0  0  0  0  0  0  0  0  0
   59.0210   24.8500   45.7700 C   0  0  0  0  0  0  0  0  0  0  0  0
   58.1080   23.8610   45.3800 C   0  0  0  0  0  0  0  0  0  0  0  0
   58.6300   22.1950   45.1400 S   0  0  0  0  0  0  0  0  0  0  0  0
   60.3480   22.0960   45.3020 N   0  0  0  0  0  0  0  0  0  0  0  0
   58.2230   21.7380   43.7680 O   0  0  0  0  0  0  0  0  0  0  0  0
   57.9900   21.2960   46.1620 O   0  0  0  0  0  0  0  0  0  0  0  0
   56.7650   24.1970   45.1900 C   0  0  0  0  0  0  0  0  0  0  0  0
   56.3340   25.5120   45.3770 C   0  0  0  0  0  0  0  0  0  0  0  0
   57.2470   26.5150   45.7460 C   0  0  0  0  0  0  0  0  0  0  0  0
   56.8080   27.8590   45.9950 N   0  0  0  0  0  0  0  0  0  0  0  0
   56.6470   28.8790   45.0060 C   0  0  0  0  0  0  0  0  0  0  0  0
   55.5400   29.4660   44.8650 O   0  0  0  0  0  0  0  0  0  0  0  0
   57.7990   29.2270   44.1130 C   0  0  0  0  0  0  0  0  0  0  0  0
   58.6670   30.1790   44.7350 O   0  0  0  0  0  0  0  0  0  0  0  0
   58.3220   31.5120   45.0240 C   0  0  0  0  0  0  0  0  0  0  0  0
   57.8390   32.3980   44.0290 C   0  0  0  0  0  0  0  0  0  0  0  0
   57.7870   32.0140   42.5770 C   0  0  0  0  0  0  0  0  0  0  0  0
   57.3960   33.6780   44.4010 C   0  0  0  0  0  0  0  0  0  0  0  0
   57.4750   34.0970   45.7270 C   0  0  0  0  0  0  0  0  0  0  0  0
   58.0070   33.2520   46.6980 C   0  0  0  0  0  0  0  0  0  0  0  0
   58.4600   31.9680   46.3570 C   0  0  0  0  0  0  0  0  0  0  0  0
   59.0080   31.0630   47.4400 C   0  0  0  0  0  0  0  0  0  0  0  0
   59.7250   31.8410   48.5140 C   0  0  0  0  0  0  0  0  0  0  0  0
   59.1960   31.8360   49.7680 N   0  0  0  0  0  0  0  0  0  0  0  0
   59.7690   32.4790   50.7820 N   0  0  0  0  0  0  0  0  0  0  0  0
   60.9240   33.1730   50.6240 C   0  0  0  0  0  0  0  0  0  0  0  0
   61.4240   33.7740   51.6100 O   0  0  0  0  0  0  0  0  0  0  0  0
   61.5400   33.2140   49.3650 C   0  0  0  0  0  0  0  0  0  0  0  0
   60.9200   32.5600   48.2800 C   0  0  0  0  0  0  0  0  0  0  0  0
   61.5230   32.6260   46.9730 N   0  0  0  0  0  0  0  0  0  0  0  0
   62.6920   33.4610   46.7060 C   0  0  0  0  0  0  0  0  0  0  0  0
   63.5940   33.5240   47.9380 C   0  0  0  0  0  0  0  0  0  0  0  0
   62.8030   34.0190   49.1520 C   0  0  0  0  0  0  0  0  0  0  0  0
   59.6149   27.2495   47.5032 H   0  0  0  0  0  0  0  0  0  0  0  0
   60.5861   26.9687   46.0184 H   0  0  0  0  0  0  0  0  0  0  0  0
   59.2820   28.2040   46.0184 H   0  0  0  0  0  0  0  0  0  0  0  0
   60.0762   24.5852   45.9325 H   0  0  0  0  0  0  0  0  0  0  0  0
   60.6060   21.0850   45.2340 H   0  0  0  0  0  0  0  0  0  0  0  0
   60.7640   22.5730   44.4710 H   0  0  0  0  0  0  0  0  0  0  0  0
   56.0438   23.4218   44.8917 H   0  0  0  0  0  0  0  0  0  0  0  0
   55.2729   25.7646   45.2346 H   0  0  0  0  0  0  0  0  0  0  0  0
   58.3694   28.3131   43.8907 H   0  0  0  0  0  0  0  0  0  0  0  0
   57.4011   29.6707   43.1884 H   0  0  0  0  0  0  0  0  0  0  0  0
   57.6398   30.9274   42.4902 H   0  0  0  0  0  0  0  0  0  0  0  0
   56.9515   32.5373   42.0890 H   0  0  0  0  0  0  0  0  0  0  0  0
   58.7316   32.2963   42.0890 H   0  0  0  0  0  0  0  0  0  0  0  0
   56.9832   34.3552   43.6387 H   0  0  0  0  0  0  0  0  0  0  0  0
   57.1162   35.0981   46.0081 H   0  0  0  0  0  0  0  0  0  0  0  0
   58.0727   33.5939   47.7414 H   0  0  0  0  0  0  0  0  0  0  0  0
   58.1739   30.5109   47.8977 H   0  0  0  0  0  0  0  0  0  0  0  0
   59.7314   30.3763   46.9763 H   0  0  0  0  0  0  0  0  0  0  0  0
   61.0550   32.1960   46.1460 H   0  0  0  0  0  0  0  0  0  0  0  0
   63.2574   33.0346   45.8642 H   0  0  0  0  0  0  0  0  0  0  0  0
   62.3549   34.4783   46.4581 H   0  0  0  0  0  0  0  0  0  0  0  0
   63.9910   32.5200   48.1486 H   0  0  0  0  0  0  0  0  0  0  0  0
   64.4204   34.2227   47.7407 H   0  0  0  0  0  0  0  0  0  0  0  0
   63.4353   33.9335   50.0481 H   0  0  0  0  0  0  0  0  0  0  0  0
   62.5155   35.0650   48.9698 H   0  0  0  0  0  0  0  0  0  0  0  0
  1  2  1  0
  2  3  2  0
  3  4  1  0
  4  5  1  0
  5  6  1  0
  5  7  2  0
  5  8  2  0
  4  9  2  0
  9 10  1  0
 10 11  2  0
 11 12  1  0
 12 13  1  0
 13 14  2  0
 13 15  1  0
 15 16  1  0
 16 17  1  0
 17 18  2  0
 18 19  1  0
 18 20  1  0
 20 21  2  0
 21 22  1  0
 22 23  2  0
 23 24  1  0
 24 25  1  0
 25 26  2  0
 26 27  1  0
 27 28  1  0
 28 29  2  0
 28 30  1  0
 30 31  2  0
 31 32  1  0
 32 33  1  0
 33 34  1  0
 34 35  1  0
 11  2  1  0
 23 17  1  0
 31 25  1  0
 35 30  1  0
  1 36  1  0
  1 37  1  0
  1 38  1  0
  3 39  1  0
  6 40  1  0
  6 41  1  0
  9 42  1  0
 10 43  1  0
 15 44  1  0
 15 45  1  0
 19 46  1  0
 19 47  1  0
 19 48  1  0
 20 49  1  0
 21 50  1  0
 22 51  1  0
 24 52  1  0
 24 53  1  0
 32 54  1  0
 33 55  1  0
 33 56  1  0
 34 57  1  0
 34 58  1  0
 35 59  1  0
 35 60  1  0
M  CHG  2  12  -1  27  -1
M  END
>  <UniqueID>  (43) 
41

>  <SMILES>  (43) 
Cc1cc(S(N)(=O)=O)ccc1[N-]C(=O)COc1c(C)cccc1Cc1n[n-]c(=O)c2c1NCCC2

>  <Energy>  (43) 
70.98058364325956

>  <Genealogy>  (43) 
Cc1cc(S(N)(=O)=O)ccc1[N-]C(=O)COc1c(C)cccc1Cc1n[n-]c(=O)c2c1NCCC2 (protonated)
Cc1cc(S(N)(=O)=O)ccc1[N-]C(=O)COc1c(C)cccc1Cc1n[n-]c(=O)c2c1NCCC2 (3D coordinates assigned)
Cc1cc(S(N)(=O)=O)ccc1[N-]C(=O)COc1c(C)cccc1Cc1n[n-]c(=O)c2c1NCCC2 (nonaromatic ring conformer: 70.98058364325956 kcal/mol)

>  <smiles>  (43) 
Cc1cc(S(N)(=O)=O)ccc1NC(=O)COc1c(C)cccc1Cc1n[nH]c(=O)c2c1NCCC2

>  <score_type>  (43) 
oracle

>  <origin>  (43) 
adg

>  <m_score__min__energy>  (43) 
-12.869999999999999

>  <m_primary>  (43) 
energy

$$$$
43:0
     RDKit          3D

 47 49  0  0  0  0  0  0  0  0999 V2000
   60.3060   29.4400   48.1980 O   0  0  0  0  0  0  0  0  0  0  0  0
   59.5410   30.4280   48.0320 C   0  0  0  0  0  0  0  0  0  0  0  0
   58.3180   30.2900   47.1680 C   0  0  0  0  0  0  0  0  0  0  0  0
   58.4940   30.8230   45.7910 N   0  0  0  0  0  0  0  0  0  0  0  0
   57.6300   31.9910   45.5130 C   0  0  0  0  0  0  0  0  0  0  0  0
   58.3460   33.2790   45.8280 C   0  0  0  0  0  0  0  0  0  0  0  0
   58.8550   34.0710   44.7860 C   0  0  0  0  0  0  0  0  0  0  0  0
   59.5350   35.2590   45.0730 C   0  0  0  0  0  0  0  0  0  0  0  0
   59.7120   35.6620   46.4000 C   0  0  0  0  0  0  0  0  0  0  0  0
   59.2090   34.8780   47.4410 C   0  0  0  0  0  0  0  0  0  0  0  0
   58.5290   33.6900   47.1590 C   0  0  0  0  0  0  0  0  0  0  0  0
   58.3380   29.7900   44.7390 C   0  0  0  0  0  0  0  0  0  0  0  0
   57.9310   28.4550   45.3240 C   0  0  0  0  0  0  0  0  0  0  0  0
   58.9250   27.5590   45.7510 C   0  0  0  0  0  0  0  0  0  0  0  0
   58.5780   26.3200   46.2930 C   0  0  0  0  0  0  0  0  0  0  0  0
   57.2360   25.9550   46.3990 C   0  0  0  0  0  0  0  0  0  0  0  0
   56.2340   26.8230   45.9550 C   0  0  0  0  0  0  0  0  0  0  0  0
   54.9030   26.4360   46.0590 O   0  0  0  0  0  0  0  0  0  0  0  0
   56.5740   28.0720   45.4070 C   0  0  0  0  0  0  0  0  0  0  0  0
   55.5750   28.9300   44.9390 O   0  0  0  0  0  0  0  0  0  0  0  0
   59.7950   31.6690   48.7000 N   0  0  0  0  0  0  0  0  0  0  0  0
   59.1850   32.1260   49.9150 C   0  0  0  0  0  0  0  0  0  0  0  0
   58.1650   31.3970   50.5550 C   0  0  0  0  0  0  0  0  0  0  0  0
   57.6180   31.8600   51.7570 C   0  0  0  0  0  0  0  0  0  0  0  0
   58.0920   33.0410   52.3340 C   0  0  0  0  0  0  0  0  0  0  0  0
   59.1230   33.7540   51.7180 C   0  0  0  0  0  0  0  0  0  0  0  0
   59.6730   33.2960   50.5160 C   0  0  0  0  0  0  0  0  0  0  0  0
   60.6800   33.9930   49.9340 F   0  0  0  0  0  0  0  0  0  0  0  0
   58.0620   29.2226   47.0968 H   0  0  0  0  0  0  0  0  0  0  0  0
   57.5217   30.8826   47.6421 H   0  0  0  0  0  0  0  0  0  0  0  0
   57.3496   31.9861   44.4494 H   0  0  0  0  0  0  0  0  0  0  0  0
   56.7342   31.9235   46.1478 H   0  0  0  0  0  0  0  0  0  0  0  0
   58.7185   33.7561   43.7409 H   0  0  0  0  0  0  0  0  0  0  0  0
   59.9310   35.8770   44.2537 H   0  0  0  0  0  0  0  0  0  0  0  0
   60.2473   36.5964   46.6243 H   0  0  0  0  0  0  0  0  0  0  0  0
   59.3484   35.1963   48.4847 H   0  0  0  0  0  0  0  0  0  0  0  0
   58.1358   33.0748   47.9817 H   0  0  0  0  0  0  0  0  0  0  0  0
   57.5655   30.1185   44.0281 H   0  0  0  0  0  0  0  0  0  0  0  0
   59.3076   29.6633   44.2353 H   0  0  0  0  0  0  0  0  0  0  0  0
   59.9855   27.8358   45.6576 H   0  0  0  0  0  0  0  0  0  0  0  0
   59.3637   25.6311   46.6367 H   0  0  0  0  0  0  0  0  0  0  0  0
   56.9652   24.9813   46.8332 H   0  0  0  0  0  0  0  0  0  0  0  0
   54.7200   28.5870   44.5180 H   0  0  0  0  0  0  0  0  0  0  0  0
   57.7970   30.4611   50.1092 H   0  0  0  0  0  0  0  0  0  0  0  0
   56.8135   31.2932   52.2484 H   0  0  0  0  0  0  0  0  0  0  0  0
   57.6533   33.4091   53.2732 H   0  0  0  0  0  0  0  0  0  0  0  0
   59.5033   34.6775   52.1789 H   0  0  0  0  0  0  0  0  0  0  0  0
  1  2  2  0
  2  3  1  0
  3  4  1  0
  4  5  1  0
  5  6  1  0
  6  7  2  0
  7  8  1  0
  8  9  2  0
  9 10  1  0
 10 11  2  0
  4 12  1  0
 12 13  1  0
 13 14  2  0
 14 15  1  0
 15 16  2  0
 16 17  1  0
 17 18  1  0
 17 19  2  0
 19 20  1  0
  2 21  1  0
 21 22  1  0
 22 23  2  0
 23 24  1  0
 24 25  2  0
 25 26  1  0
 26 27  2  0
 27 28  1  0
 11  6  1  0
 19 13  1  0
 27 22  1  0
  3 29  1  0
  3 30  1  0
  5 31  1  0
  5 32  1  0
  7 33  1  0
  8 34  1  0
  9 35  1  0
 10 36  1  0
 11 37  1  0
 12 38  1  0
 12 39  1  0
 14 40  1  0
 15 41  1  0
 16 42  1  0
 20 43  1  0
 23 44  1  0
 24 45  1  0
 25 46  1  0
 26 47  1  0
M  CHG  2  18  -1  21  -1
M  END
>  <UniqueID>  (44) 
42

>  <SMILES>  (44) 
O=C(CN(Cc1ccccc1)Cc1cccc([O-])c1O)[N-]c1ccccc1F

>  <Energy>  (44) 
56.43544862412872

>  <Genealogy>  (44) 
O=C(CN(Cc1ccccc1)Cc1cccc([O-])c1O)[N-]c1ccccc1F (protonated)
O=C(CN(Cc1ccccc1)Cc1cccc([O-])c1O)[N-]c1ccccc1F (3D coordinates assigned)
O=C(CN(Cc1ccccc1)Cc1cccc([O-])c1O)[N-]c1ccccc1F (optimized conformer: 56.43544862412872 kcal/mol)

>  <smiles>  (44) 
O=C(CN(Cc1ccccc1)Cc1cccc(O)c1O)Nc1ccccc1F

>  <score_type>  (44) 
oracle

>  <origin>  (44) 
adg

>  <m_score__min__energy>  (44) 
-13.4

>  <m_primary>  (44) 
energy

$$$$
44:0
     RDKit          3D

 47 49  0  0  0  0  0  0  0  0999 V2000
   63.4820   27.9700   52.2230 C   0  0  0  0  0  0  0  0  0  0  0  0
   64.2500   29.2220   52.0950 N   0  0  0  0  0  0  0  0  0  0  0  0
   63.4880   30.3310   52.6910 C   0  0  0  0  0  0  0  0  0  0  0  0
   65.5780   29.1010   52.7370 C   0  0  0  0  0  0  0  0  0  0  0  0
   66.6190   29.9540   52.0010 C   0  0  0  0  0  0  0  0  0  0  0  0
   65.9860   30.7290   50.9360 N   0  0  0  0  0  0  0  0  0  0  0  0
   66.5050   31.9920   50.4960 C   0  0  0  0  0  0  0  0  0  0  0  0
   67.7310   32.2470   50.6280 O   0  0  0  0  0  0  0  0  0  0  0  0
   65.6570   32.9610   49.8640 N   0  0  0  0  0  0  0  0  0  0  0  0
   64.5390   32.6930   49.2570 C   0  0  0  0  0  0  0  0  0  0  0  0
   63.7070   31.6840   49.6130 N   0  0  0  0  0  0  0  0  0  0  0  0
   62.5970   31.6800   48.8330 C   0  0  0  0  0  0  0  0  0  0  0  0
   61.5530   30.7670   48.9570 C   0  0  0  0  0  0  0  0  0  0  0  0
   60.4520   30.8780   48.0920 C   0  0  0  0  0  0  0  0  0  0  0  0
   60.3970   31.9000   47.1090 C   0  0  0  0  0  0  0  0  0  0  0  0
   59.2270   32.0080   46.2010 C   0  0  0  0  0  0  0  0  0  0  0  0
   58.7230   33.2680   45.8330 C   0  0  0  0  0  0  0  0  0  0  0  0
   57.6260   33.3690   44.9740 C   0  0  0  0  0  0  0  0  0  0  0  0
   57.0160   32.2150   44.4760 C   0  0  0  0  0  0  0  0  0  0  0  0
   57.4980   30.9510   44.8420 C   0  0  0  0  0  0  0  0  0  0  0  0
   56.7390   29.4940   44.2100 S   0  0  0  0  0  0  0  0  0  0  0  0
   55.1470   29.3440   44.8610 N   0  0  0  0  0  0  0  0  0  0  0  0
   56.6660   29.5700   42.7110 O   0  0  0  0  0  0  0  0  0  0  0  0
   57.5490   28.2870   44.5930 O   0  0  0  0  0  0  0  0  0  0  0  0
   58.6050   30.8520   45.6970 C   0  0  0  0  0  0  0  0  0  0  0  0
   61.4690   32.8150   47.0050 C   0  0  0  0  0  0  0  0  0  0  0  0
   62.5460   32.6790   47.8750 C   0  0  0  0  0  0  0  0  0  0  0  0
   63.9310   33.6250   47.9840 S   0  0  0  0  0  0  0  0  0  0  0  0
   63.3381   27.7354   53.2880 H   0  0  0  0  0  0  0  0  0  0  0  0
   62.5019   28.0899   51.7382 H   0  0  0  0  0  0  0  0  0  0  0  0
   64.0330   27.1506   51.7382 H   0  0  0  0  0  0  0  0  0  0  0  0
   63.5360   30.2611   53.7877 H   0  0  0  0  0  0  0  0  0  0  0  0
   63.9195   31.2890   52.3654 H   0  0  0  0  0  0  0  0  0  0  0  0
   62.4390   30.2718   52.3654 H   0  0  0  0  0  0  0  0  0  0  0  0
   65.5062   29.4408   53.7807 H   0  0  0  0  0  0  0  0  0  0  0  0
   65.8938   28.0480   52.6978 H   0  0  0  0  0  0  0  0  0  0  0  0
   67.0940   30.6420   52.7159 H   0  0  0  0  0  0  0  0  0  0  0  0
   67.3735   29.2886   51.5561 H   0  0  0  0  0  0  0  0  0  0  0  0
   65.1230   30.3470   50.4900 H   0  0  0  0  0  0  0  0  0  0  0  0
   61.5898   29.9737   49.7181 H   0  0  0  0  0  0  0  0  0  0  0  0
   59.6207   30.1627   48.1777 H   0  0  0  0  0  0  0  0  0  0  0  0
   59.1959   34.1808   46.2243 H   0  0  0  0  0  0  0  0  0  0  0  0
   57.2416   34.3595   44.6890 H   0  0  0  0  0  0  0  0  0  0  0  0
   56.1559   32.2987   43.7954 H   0  0  0  0  0  0  0  0  0  0  0  0
   55.1940   28.6250   45.6190 H   0  0  0  0  0  0  0  0  0  0  0  0
   58.9906   29.8603   45.9762 H   0  0  0  0  0  0  0  0  0  0  0  0
   61.4522   33.6172   46.2526 H   0  0  0  0  0  0  0  0  0  0  0  0
  1  2  1  0
  2  3  1  0
  2  4  1  0
  4  5  1  0
  5  6  1  0
  6  7  1  0
  7  8  2  0
  7  9  1  0
  9 10  2  3
 10 11  1  0
 11 12  1  0
 12 13  2  0
 13 14  1  0
 14 15  2  0
 15 16  1  0
 16 17  2  0
 17 18  1  0
 18 19  2  0
 19 20  1  0
 20 21  1  0
 21 22  1  0
 21 23  2  0
 21 24  2  0
 20 25  2  0
 15 26  1  0
 26 27  2  0
 27 28  1  0
 28 10  1  0
 27 12  1  0
 25 16  1  0
  1 29  1  0
  1 30  1  0
  1 31  1  0
  3 32  1  0
  3 33  1  0
  3 34  1  0
  4 35  1  0
  4 36  1  0
  5 37  1  0
  5 38  1  0
  6 39  1  0
 13 40  1  0
 14 41  1  0
 17 42  1  0
 18 43  1  0
 19 44  1  0
 22 45  1  0
 25 46  1  0
 26 47  1  0
M  CHG  2  11  -1  22  -1
M  END
>  <UniqueID>  (45) 
43

>  <SMILES>  (45) 
CN(C)CCNC(=O)N=c1[n-]c2ccc(-c3cccc(S([NH-])(=O)=O)c3)cc2s1

>  <Energy>  (45) 
87.46389802908139

>  <Genealogy>  (45) 
CN(C)CCNC(=O)N=c1[n-]c2ccc(-c3cccc(S([NH-])(=O)=O)c3)cc2s1 (protonated)
CN(C)CCNC(=O)N=c1[n-]c2ccc(-c3cccc(S([NH-])(=O)=O)c3)cc2s1 (3D coordinates assigned)
CN(C)CCNC(=O)N=c1[n-]c2ccc(-c3cccc(S([NH-])(=O)=O)c3)cc2s1 (optimized conformer: 87.46389802908139 kcal/mol)

>  <smiles>  (45) 
CN(C)CCNC(=O)N=c1[nH]c2ccc(-c3cccc(S(N)(=O)=O)c3)cc2s1

>  <score_type>  (45) 
oracle

>  <origin>  (45) 
adg

>  <m_score__min__energy>  (45) 
-11.109999999999999

>  <m_primary>  (45) 
energy

$$$$
45:0
     RDKit          3D

 68 71  0  0  0  0  0  0  0  0999 V2000
   64.7760   26.1210   52.5570 C   0  0  0  0  0  0  0  0  0  0  0  0
   64.3570   27.2570   53.4890 C   0  0  0  0  0  0  0  0  0  0  0  0
   63.5260   28.2440   52.7660 N   0  0  0  0  0  0  0  0  0  0  0  0
   64.1840   29.1700   52.0050 C   0  0  0  0  0  0  0  0  0  0  0  0
   63.5000   30.1630   51.2920 C   0  0  0  0  0  0  0  0  0  0  0  0
   64.2860   31.1560   50.5160 C   0  0  0  0  0  0  0  0  0  0  0  0
   65.5450   31.1200   50.5710 O   0  0  0  0  0  0  0  0  0  0  0  0
   63.6430   32.1440   49.6950 N   0  0  0  0  0  0  0  0  0  0  0  0
   64.4250   33.2050   49.0560 C   0  0  0  0  0  0  0  0  0  0  0  0
   63.6770   33.8490   47.8790 C   0  0  0  0  0  0  0  0  0  0  0  0
   62.1880   34.0850   48.1710 C   0  0  0  0  0  0  0  0  0  0  0  0
   61.3650   33.3040   47.2570 N   0  0  0  0  0  0  0  0  0  0  0  0
   61.2940   31.8750   47.3160 C   0  0  0  0  0  0  0  0  0  0  0  0
   62.2280   31.2240   47.8610 O   0  0  0  0  0  0  0  0  0  0  0  0
   60.1110   31.1660   46.7770 C   0  0  0  0  0  0  0  0  0  0  0  0
   59.1920   31.8410   45.9530 C   0  0  0  0  0  0  0  0  0  0  0  0
   58.1280   31.1530   45.3660 C   0  0  0  0  0  0  0  0  0  0  0  0
   57.9490   29.7840   45.6120 C   0  0  0  0  0  0  0  0  0  0  0  0
   56.6310   28.8980   44.8480 S   0  0  0  0  0  0  0  0  0  0  0  0
   55.1890   29.8520   44.8730 N   0  0  0  0  0  0  0  0  0  0  0  0
   56.9760   28.5770   43.4220 O   0  0  0  0  0  0  0  0  0  0  0  0
   56.3980   27.6130   45.5940 O   0  0  0  0  0  0  0  0  0  0  0  0
   58.8470   29.1110   46.4520 C   0  0  0  0  0  0  0  0  0  0  0  0
   59.9210   29.7940   47.0290 C   0  0  0  0  0  0  0  0  0  0  0  0
   62.1010   30.2280   51.3980 C   0  0  0  0  0  0  0  0  0  0  0  0
   61.4630   31.1400   50.7980 O   0  0  0  0  0  0  0  0  0  0  0  0
   61.4140   29.2960   52.1990 C   0  0  0  0  0  0  0  0  0  0  0  0
   60.0140   29.3710   52.3540 C   0  0  0  0  0  0  0  0  0  0  0  0
   59.3400   28.4720   53.1880 C   0  0  0  0  0  0  0  0  0  0  0  0
   57.6000   28.5980   53.4330 S   0  0  0  0  0  0  0  0  0  0  0  0
   57.0370   27.2180   53.6270 O   0  0  0  0  0  0  0  0  0  0  0  0
   57.3060   29.4050   54.6690 O   0  0  0  0  0  0  0  0  0  0  0  0
   56.8500   29.3230   52.0370 N   0  0  0  0  0  0  0  0  0  0  0  0
   56.6830   30.7650   52.2200 C   0  0  0  0  0  0  0  0  0  0  0  0
   57.6730   31.5090   51.3840 C   0  0  0  0  0  0  0  0  0  0  0  0
   58.3200   32.6760   51.7410 C   0  0  0  0  0  0  0  0  0  0  0  0
   59.1090   33.0040   50.6600 C   0  0  0  0  0  0  0  0  0  0  0  0
   58.9010   32.0160   49.7190 C   0  0  0  0  0  0  0  0  0  0  0  0
   58.0380   31.1410   50.1780 O   0  0  0  0  0  0  0  0  0  0  0  0
   60.0530   27.4720   53.8450 C   0  0  0  0  0  0  0  0  0  0  0  0
   61.4360   27.3770   53.7000 C   0  0  0  0  0  0  0  0  0  0  0  0
   62.1500   28.2920   52.8880 C   0  0  0  0  0  0  0  0  0  0  0  0
   65.0955   25.2549   53.1552 H   0  0  0  0  0  0  0  0  0  0  0  0
   63.9244   25.8343   51.9224 H   0  0  0  0  0  0  0  0  0  0  0  0
   65.6098   26.4559   51.9224 H   0  0  0  0  0  0  0  0  0  0  0  0
   63.7781   26.8420   54.3273 H   0  0  0  0  0  0  0  0  0  0  0  0
   65.2607   27.7605   53.8629 H   0  0  0  0  0  0  0  0  0  0  0  0
   65.2821   29.1342   51.9511 H   0  0  0  0  0  0  0  0  0  0  0  0
   62.6270   32.0420   49.4790 H   0  0  0  0  0  0  0  0  0  0  0  0
   64.6453   33.9816   49.8032 H   0  0  0  0  0  0  0  0  0  0  0  0
   65.3481   32.7540   48.6631 H   0  0  0  0  0  0  0  0  0  0  0  0
   64.1474   34.8171   47.6523 H   0  0  0  0  0  0  0  0  0  0  0  0
   63.7393   33.1531   47.0294 H   0  0  0  0  0  0  0  0  0  0  0  0
   61.9685   33.7829   49.2057 H   0  0  0  0  0  0  0  0  0  0  0  0
   61.9608   35.1526   48.0347 H   0  0  0  0  0  0  0  0  0  0  0  0
   59.3125   32.9189   45.7697 H   0  0  0  0  0  0  0  0  0  0  0  0
   57.4271   31.6872   44.7077 H   0  0  0  0  0  0  0  0  0  0  0  0
   54.4960   29.3490   45.4720 H   0  0  0  0  0  0  0  0  0  0  0  0
   58.7056   28.0398   46.6580 H   0  0  0  0  0  0  0  0  0  0  0  0
   60.6222   29.2563   47.6841 H   0  0  0  0  0  0  0  0  0  0  0  0
   59.4467   30.1435   51.8142 H   0  0  0  0  0  0  0  0  0  0  0  0
   55.6647   31.0538   51.9206 H   0  0  0  0  0  0  0  0  0  0  0  0
   56.8479   31.0141   53.2787 H   0  0  0  0  0  0  0  0  0  0  0  0
   58.2254   33.2271   52.6883 H   0  0  0  0  0  0  0  0  0  0  0  0
   59.7712   33.8773   50.5660 H   0  0  0  0  0  0  0  0  0  0  0  0
   59.3858   31.9693   48.7327 H   0  0  0  0  0  0  0  0  0  0  0  0
   59.5205   26.7516   54.4833 H   0  0  0  0  0  0  0  0  0  0  0  0
   61.9817   26.5788   54.2245 H   0  0  0  0  0  0  0  0  0  0  0  0
  1  2  1  0
  2  3  1  0
  3  4  1  0
  4  5  2  0
  5  6  1  0
  6  7  2  0
  6  8  1  0
  8  9  1  0
  9 10  1  0
 10 11  1  0
 11 12  1  0
 12 13  1  0
 13 14  2  0
 13 15  1  0
 15 16  2  0
 16 17  1  0
 17 18  2  0
 18 19  1  0
 19 20  1  0
 19 21  2  0
 19 22  2  0
 18 23  1  0
 23 24  2  0
  5 25  1  0
 25 26  2  0
 25 27  1  0
 27 28  2  0
 28 29  1  0
 29 30  1  0
 30 31  2  0
 30 32  2  0
 30 33  1  0
 33 34  1  0
 34 35  1  0
 35 36  2  0
 36 37  1  0
 37 38  2  0
 38 39  1  0
 29 40  2  0
 40 41  1  0
 41 42  2  0
 42  3  1  0
 24 15  1  0
 42 27  1  0
 39 35  1  0
  1 43  1  0
  1 44  1  0
  1 45  1  0
  2 46  1  0
  2 47  1  0
  4 48  1  0
  8 49  1  0
  9 50  1  0
  9 51  1  0
 10 52  1  0
 10 53  1  0
 11 54  1  0
 11 55  1  0
 16 56  1  0
 17 57  1  0
 20 58  1  0
 23 59  1  0
 24 60  1  0
 28 61  1  0
 34 62  1  0
 34 63  1  0
 36 64  1  0
 37 65  1  0
 38 66  1  0
 40 67  1  0
 41 68  1  0
M  CHG  3  12  -1  20  -1  33  -1
M  END
>  <UniqueID>  (46) 
44

>  <SMILES>  (46) 
CCn1cc(C(=O)NCCC[N-]C(=O)c2ccc(S([NH-])(=O)=O)cc2)c(=O)c2cc(S(=O)(=O)[N-]Cc3ccco3)ccc21

>  <Energy>  (46) 
97.1421812965313

>  <Genealogy>  (46) 
CCn1cc(C(=O)NCCC[N-]C(=O)c2ccc(S([NH-])(=O)=O)cc2)c(=O)c2cc(S(=O)(=O)[N-]Cc3ccco3)ccc21 (protonated)
CCn1cc(C(=O)NCCC[N-]C(=O)c2ccc(S([NH-])(=O)=O)cc2)c(=O)c2cc(S(=O)(=O)[N-]Cc3ccco3)ccc21 (3D coordinates assigned)
CCn1cc(C(=O)NCCC[N-]C(=O)c2ccc(S([NH-])(=O)=O)cc2)c(=O)c2cc(S(=O)(=O)[N-]Cc3ccco3)ccc21 (optimized conformer: 97.1421812965313 kcal/mol)

>  <smiles>  (46) 
CCn1cc(C(=O)NCCCNC(=O)c2ccc(S(N)(=O)=O)cc2)c(=O)c2cc(S(=O)(=O)NCc3ccco3)ccc21

>  <score_type>  (46) 
oracle

>  <origin>  (46) 
adg

>  <m_score__min__energy>  (46) 
-13.52

>  <m_primary>  (46) 
energy

$$$$
46:0
     RDKit          3D

 40 41  0  0  0  0  0  0  0  0999 V2000
   54.2410   24.7830   45.6100 C   0  0  0  0  0  0  0  0  0  0  0  0
   54.7620   26.0560   45.9790 O   0  0  0  0  0  0  0  0  0  0  0  0
   56.1270   26.3840   45.9900 C   0  0  0  0  0  0  0  0  0  0  0  0
   57.1170   25.4490   46.3440 C   0  0  0  0  0  0  0  0  0  0  0  0
   58.4630   25.8120   46.3290 C   0  0  0  0  0  0  0  0  0  0  0  0
   58.8360   27.1110   45.9840 C   0  0  0  0  0  0  0  0  0  0  0  0
   57.8640   28.0670   45.6490 C   0  0  0  0  0  0  0  0  0  0  0  0
   58.2980   29.4450   45.3260 C   0  0  0  0  0  0  0  0  0  0  0  0
   59.3360   29.9050   45.8770 O   0  0  0  0  0  0  0  0  0  0  0  0
   57.5240   30.2820   44.4520 N   0  0  0  0  0  0  0  0  0  0  0  0
   57.7920   31.7100   44.2960 C   0  0  0  0  0  0  0  0  0  0  0  0
   56.9370   32.5460   45.2540 C   0  0  0  0  0  0  0  0  0  0  0  0
   57.6370   34.2160   45.5340 S   0  0  0  0  0  0  0  0  0  0  0  0
   59.1370   33.6720   46.3620 C   0  0  0  0  0  0  0  0  0  0  0  0
   59.0850   32.6500   47.3190 C   0  0  0  0  0  0  0  0  0  0  0  0
   60.2570   32.2100   47.9420 C   0  0  0  0  0  0  0  0  0  0  0  0
   61.4930   32.7860   47.6090 C   0  0  0  0  0  0  0  0  0  0  0  0
   62.7550   32.2810   48.2440 C   0  0  0  0  0  0  0  0  0  0  0  0
   61.5460   33.7870   46.6270 C   0  0  0  0  0  0  0  0  0  0  0  0
   60.3720   34.2270   46.0060 C   0  0  0  0  0  0  0  0  0  0  0  0
   56.5050   27.6860   45.6270 C   0  0  0  0  0  0  0  0  0  0  0  0
   55.5230   28.5820   45.2180 O   0  0  0  0  0  0  0  0  0  0  0  0
   54.0051   24.2066   46.5167 H   0  0  0  0  0  0  0  0  0  0  0  0
   53.3265   24.9198   45.0142 H   0  0  0  0  0  0  0  0  0  0  0  0
   54.9890   24.2394   45.0142 H   0  0  0  0  0  0  0  0  0  0  0  0
   56.8280   24.4279   46.6336 H   0  0  0  0  0  0  0  0  0  0  0  0
   59.2334   25.0715   46.5901 H   0  0  0  0  0  0  0  0  0  0  0  0
   59.9003   27.3886   45.9743 H   0  0  0  0  0  0  0  0  0  0  0  0
   56.7120   29.8860   43.9300 H   0  0  0  0  0  0  0  0  0  0  0  0
   58.8549   31.8999   44.5061 H   0  0  0  0  0  0  0  0  0  0  0  0
   57.5408   31.9993   43.2649 H   0  0  0  0  0  0  0  0  0  0  0  0
   55.9287   32.6521   44.8272 H   0  0  0  0  0  0  0  0  0  0  0  0
   56.9106   32.0255   46.2227 H   0  0  0  0  0  0  0  0  0  0  0  0
   58.1196   32.1925   47.5810 H   0  0  0  0  0  0  0  0  0  0  0  0
   60.2102   31.4099   48.6955 H   0  0  0  0  0  0  0  0  0  0  0  0
   62.6559   32.3207   49.3388 H   0  0  0  0  0  0  0  0  0  0  0  0
   62.9335   31.2422   47.9294 H   0  0  0  0  0  0  0  0  0  0  0  0
   63.6009   32.9099   47.9294 H   0  0  0  0  0  0  0  0  0  0  0  0
   62.5137   34.2272   46.3445 H   0  0  0  0  0  0  0  0  0  0  0  0
   60.4195   35.0111   45.2360 H   0  0  0  0  0  0  0  0  0  0  0  0
  1  2  1  0
  2  3  1  0
  3  4  2  0
  4  5  1  0
  5  6  2  0
  6  7  1  0
  7  8  1  0
  8  9  2  0
  8 10  1  0
 10 11  1  0
 11 12  1  0
 12 13  1  0
 13 14  1  0
 14 15  2  0
 15 16  1  0
 16 17  2  0
 17 18  1  0
 17 19  1  0
 19 20  2  0
  7 21  2  0
 21 22  1  0
 21  3  1  0
 20 14  1  0
  1 23  1  0
  1 24  1  0
  1 25  1  0
  4 26  1  0
  5 27  1  0
  6 28  1  0
 10 29  1  0
 11 30  1  0
 11 31  1  0
 12 32  1  0
 12 33  1  0
 15 34  1  0
 16 35  1  0
 18 36  1  0
 18 37  1  0
 18 38  1  0
 19 39  1  0
 20 40  1  0
M  CHG  1  22  -1
M  END
>  <UniqueID>  (47) 
45

>  <SMILES>  (47) 
COc1cccc(C(=O)NCCSc2ccc(C)cc2)c1[O-]

>  <Energy>  (47) 
32.69058266111851

>  <Genealogy>  (47) 
COc1cccc(C(=O)NCCSc2ccc(C)cc2)c1[O-] (protonated)
COc1cccc(C(=O)NCCSc2ccc(C)cc2)c1[O-] (3D coordinates assigned)
COc1cccc(C(=O)NCCSc2ccc(C)cc2)c1[O-] (optimized conformer: 32.69058266111851 kcal/mol)

>  <smiles>  (47) 
COc1cccc(C(=O)NCCSc2ccc(C)cc2)c1O

>  <score_type>  (47) 
oracle

>  <origin>  (47) 
adg

>  <m_score__min__energy>  (47) 
-12.42

>  <m_primary>  (47) 
energy

$$$$
48:0
     RDKit          3D

 38 40  0  0  0  0  0  0  0  0999 V2000
   55.6220   30.8530   44.8250 O   0  0  0  0  0  0  0  0  0  0  0  0
   56.8200   30.9670   44.4560 C   0  0  0  0  0  0  0  0  0  0  0  0
   57.4420   29.8750   43.7720 N   0  0  0  0  0  0  0  0  0  0  0  0
   57.3460   28.4980   44.1550 C   0  0  0  0  0  0  0  0  0  0  0  0
   58.1780   27.3910   43.2780 S   0  0  0  0  0  0  0  0  0  0  0  0
   56.5510   28.1000   45.2870 N   0  0  0  0  0  0  0  0  0  0  0  0
   56.7850   26.9120   46.0630 C   0  0  0  0  0  0  0  0  0  0  0  0
   55.8940   25.8260   45.9970 C   0  0  0  0  0  0  0  0  0  0  0  0
   56.1660   24.6450   46.6900 C   0  0  0  0  0  0  0  0  0  0  0  0
   57.3370   24.5270   47.4410 C   0  0  0  0  0  0  0  0  0  0  0  0
   58.2380   25.5920   47.5000 C   0  0  0  0  0  0  0  0  0  0  0  0
   57.9690   26.7840   46.8160 C   0  0  0  0  0  0  0  0  0  0  0  0
   58.8900   27.8760   46.9130 N   0  0  0  0  0  0  0  0  0  0  0  0
   58.7240   28.9750   47.8420 C   0  0  0  0  0  0  0  0  0  0  0  0
   60.0040   29.7920   47.7240 C   0  0  0  0  0  0  0  0  0  0  0  0
   60.6680   29.3510   46.4200 C   0  0  0  0  0  0  0  0  0  0  0  0
   60.0670   27.9930   46.0770 C   0  0  0  0  0  0  0  0  0  0  0  0
   57.5720   32.1860   44.8010 C   0  0  0  0  0  0  0  0  0  0  0  0
   58.1780   33.0510   43.8960 C   0  0  0  0  0  0  0  0  0  0  0  0
   58.7900   34.1520   44.5090 C   0  0  0  0  0  0  0  0  0  0  0  0
   58.6600   34.1670   45.8900 C   0  0  0  0  0  0  0  0  0  0  0  0
   57.7830   32.8080   46.3510 S   0  0  0  0  0  0  0  0  0  0  0  0
   55.7730   28.7210   45.5990 H   0  0  0  0  0  0  0  0  0  0  0  0
   54.9767   25.9076   45.3954 H   0  0  0  0  0  0  0  0  0  0  0  0
   55.4563   23.8058   46.6442 H   0  0  0  0  0  0  0  0  0  0  0  0
   57.5497   23.5955   47.9860 H   0  0  0  0  0  0  0  0  0  0  0  0
   59.1635   25.4943   48.0865 H   0  0  0  0  0  0  0  0  0  0  0  0
   57.8504   29.5843   47.5671 H   0  0  0  0  0  0  0  0  0  0  0  0
   58.5533   28.6230   48.8701 H   0  0  0  0  0  0  0  0  0  0  0  0
   59.7697   30.8662   47.6891 H   0  0  0  0  0  0  0  0  0  0  0  0
   60.6659   29.6299   48.5875 H   0  0  0  0  0  0  0  0  0  0  0  0
   60.4559   30.0753   45.6198 H   0  0  0  0  0  0  0  0  0  0  0  0
   61.7612   29.2910   46.5263 H   0  0  0  0  0  0  0  0  0  0  0  0
   59.7901   27.9514   45.0132 H   0  0  0  0  0  0  0  0  0  0  0  0
   60.7786   27.1726   46.2521 H   0  0  0  0  0  0  0  0  0  0  0  0
   58.1768   32.8871   42.8083 H   0  0  0  0  0  0  0  0  0  0  0  0
   59.3242   34.9324   43.9472 H   0  0  0  0  0  0  0  0  0  0  0  0
   59.0614   34.9355   46.5670 H   0  0  0  0  0  0  0  0  0  0  0  0
  1  2  2  0
  2  3  1  0
  3  4  1  0
  4  5  2  0
  4  6  1  0
  6  7  1  0
  7  8  2  0
  8  9  1  0
  9 10  2  0
 10 11  1  0
 11 12  2  0
 12 13  1  0
 13 14  1  0
 14 15  1  0
 15 16  1  0
 16 17  1  0
  2 18  1  0
 18 19  2  0
 19 20  1  0
 20 21  2  0
 21 22  1  0
 12  7  1  0
 17 13  1  0
 22 18  1  0
  6 23  1  0
  8 24  1  0
  9 25  1  0
 10 26  1  0
 11 27  1  0
 14 28  1  0
 14 29  1  0
 15 30  1  0
 15 31  1  0
 16 32  1  0
 16 33  1  0
 17 34  1  0
 17 35  1  0
 19 36  1  0
 20 37  1  0
 21 38  1  0
M  CHG  1   3  -1
M  END
>  <UniqueID>  (48) 
46

>  <SMILES>  (48) 
O=C([N-]C(=S)Nc1ccccc1N1CCCC1)c1cccs1

>  <Energy>  (48) 
78.30498746939087

>  <Genealogy>  (48) 
O=C([N-]C(=S)Nc1ccccc1N1CCCC1)c1cccs1 (protonated)
O=C([N-]C(=S)Nc1ccccc1N1CCCC1)c1cccs1 (3D coordinates assigned)
O=C([N-]C(=S)Nc1ccccc1N1CCCC1)c1cccs1 (nonaromatic ring conformer: 78.30498746939087 kcal/mol)

>  <smiles>  (48) 
O=C(NC(=S)Nc1ccccc1N1CCCC1)c1cccs1

>  <score_type>  (48) 
oracle

>  <origin>  (48) 
adg

>  <m_score__min__energy>  (48) 
-9.5500000000000007

>  <m_primary>  (48) 
energy

$$$$
49:0
     RDKit          3D

 69 73  0  0  0  0  0  0  0  0999 V2000
   57.1742   34.8896   45.0337 H   0  0  0  0  0  0  0  0  0  0  0  0
   57.9900   34.2110   44.7440 C   0  0  0  0  0  0  0  0  0  0  0  0
   57.6260   32.9460   44.0800 C   0  0  0  0  0  0  0  0  0  0  0  0
   57.8860   32.7740   42.8570 O   0  0  0  0  0  0  0  0  0  0  0  0
   57.0320   31.8970   44.8570 N   0  0  0  0  0  0  0  0  0  0  0  0
   57.6600   30.8890   45.3930 C   0  0  0  0  0  0  0  0  0  0  0  0
   58.1280   30.9280   46.6600 N   0  0  0  0  0  0  0  0  0  0  0  0
   58.7130   29.7540   47.0210 C   0  0  0  0  0  0  0  0  0  0  0  0
   59.1502   29.5910   48.0171 H   0  0  0  0  0  0  0  0  0  0  0  0
   58.7150   28.7750   46.0310 C   0  0  0  0  0  0  0  0  0  0  0  0
   59.2020   27.3700   46.1850 C   0  0  0  0  0  0  0  0  0  0  0  0
   59.7461   27.0707   45.2770 H   0  0  0  0  0  0  0  0  0  0  0  0
   59.8722   27.3116   47.0553 H   0  0  0  0  0  0  0  0  0  0  0  0
   58.0340   26.4450   46.3950 C   0  0  0  0  0  0  0  0  0  0  0  0
   58.2310   25.1690   46.9480 C   0  0  0  0  0  0  0  0  0  0  0  0
   59.2348   24.8659   47.2806 H   0  0  0  0  0  0  0  0  0  0  0  0
   57.1580   24.2820   47.0780 C   0  0  0  0  0  0  0  0  0  0  0  0
   57.3179   23.2903   47.5263 H   0  0  0  0  0  0  0  0  0  0  0  0
   55.8760   24.6530   46.6380 C   0  0  0  0  0  0  0  0  0  0  0  0
   54.7550   23.7620   46.7470 N   0  0  0  0  0  0  0  0  0  0  0  0
   53.7400   23.5750   45.7560 C   0  0  0  0  0  0  0  0  0  0  0  0
   52.5700   23.9800   45.9950 O   0  0  0  0  0  0  0  0  0  0  0  0
   54.0540   23.0010   44.5210 O   0  0  0  0  0  0  0  0  0  0  0  0
   55.1530   23.4210   43.7160 C   0  0  0  0  0  0  0  0  0  0  0  0
   54.9769   23.1193   42.6730 H   0  0  0  0  0  0  0  0  0  0  0  0
   55.2479   24.5152   43.7768 H   0  0  0  0  0  0  0  0  0  0  0  0
   56.4240   22.7870   44.2100 C   0  0  0  0  0  0  0  0  0  0  0  0
   57.6660   23.4120   44.0070 C   0  0  0  0  0  0  0  0  0  0  0  0
   57.7195   24.3557   43.4444 H   0  0  0  0  0  0  0  0  0  0  0  0
   58.8340   22.8380   44.5180 C   0  0  0  0  0  0  0  0  0  0  0  0
   59.8046   23.3288   44.3537 H   0  0  0  0  0  0  0  0  0  0  0  0
   58.7700   21.6420   45.2370 C   0  0  0  0  0  0  0  0  0  0  0  0
   59.6904   21.1919   45.6375 H   0  0  0  0  0  0  0  0  0  0  0  0
   57.5390   21.0170   45.4480 C   0  0  0  0  0  0  0  0  0  0  0  0
   57.4906   20.0751   46.0141 H   0  0  0  0  0  0  0  0  0  0  0  0
   56.3680   21.5880   44.9400 C   0  0  0  0  0  0  0  0  0  0  0  0
   55.3992   21.0964   45.1126 H   0  0  0  0  0  0  0  0  0  0  0  0
   55.6750   25.9360   46.1060 C   0  0  0  0  0  0  0  0  0  0  0  0
   54.4080   26.3300   45.6900 O   0  0  0  0  0  0  0  0  0  0  0  0
   56.7490   26.8220   45.9740 C   0  0  0  0  0  0  0  0  0  0  0  0
   56.5861   27.8188   45.5383 H   0  0  0  0  0  0  0  0  0  0  0  0
   57.9400   29.3870   44.6690 S   0  0  0  0  0  0  0  0  0  0  0  0
   59.2470   34.5930   45.0200 C   0  0  0  0  0  0  0  0  0  0  0  0
   59.8097   35.1023   44.2237 H   0  0  0  0  0  0  0  0  0  0  0  0
   59.9340   34.3810   46.3150 C   0  0  0  0  0  0  0  0  0  0  0  0
   59.3050   34.7790   47.5030 C   0  0  0  0  0  0  0  0  0  0  0  0
   58.3090   35.2445   47.4666 H   0  0  0  0  0  0  0  0  0  0  0  0
   59.9400   34.5860   48.7350 C   0  0  0  0  0  0  0  0  0  0  0  0
   59.4321   34.8888   49.6626 H   0  0  0  0  0  0  0  0  0  0  0  0
   61.2140   34.0120   48.7990 C   0  0  0  0  0  0  0  0  0  0  0  0
   61.7970   33.8170   50.0610 O   0  0  0  0  0  0  0  0  0  0  0  0
   61.1050   33.3800   51.2320 C   0  0  0  0  0  0  0  0  0  0  0  0
   61.8401   33.0675   51.9882 H   0  0  0  0  0  0  0  0  0  0  0  0
   60.4939   34.2136   51.6085 H   0  0  0  0  0  0  0  0  0  0  0  0
   60.1940   32.2200   50.9220 C   0  0  0  0  0  0  0  0  0  0  0  0
   60.7270   31.0120   50.4430 C   0  0  0  0  0  0  0  0  0  0  0  0
   61.8126   30.9117   50.2970 H   0  0  0  0  0  0  0  0  0  0  0  0
   59.8820   29.9360   50.1510 C   0  0  0  0  0  0  0  0  0  0  0  0
   60.3032   28.9940   49.7699 H   0  0  0  0  0  0  0  0  0  0  0  0
   58.5040   30.0570   50.3430 C   0  0  0  0  0  0  0  0  0  0  0  0
   57.8405   29.2117   50.1081 H   0  0  0  0  0  0  0  0  0  0  0  0
   57.9670   31.2500   50.8330 C   0  0  0  0  0  0  0  0  0  0  0  0
   56.8813   31.3428   50.9837 H   0  0  0  0  0  0  0  0  0  0  0  0
   58.8080   32.3260   51.1320 C   0  0  0  0  0  0  0  0  0  0  0  0
   58.3839   33.2585   51.5328 H   0  0  0  0  0  0  0  0  0  0  0  0
   61.8630   33.6510   47.6030 C   0  0  0  0  0  0  0  0  0  0  0  0
   62.8688   33.2070   47.6381 H   0  0  0  0  0  0  0  0  0  0  0  0
   61.2360   33.8540   46.3740 C   0  0  0  0  0  0  0  0  0  0  0  0
   61.7644   33.5997   45.4433 H   0  0  0  0  0  0  0  0  0  0  0  0
  1  2  1  0
  2  3  1  0
  3  4  2  0
  3  5  1  0
  5  6  2  0
  6  7  1  0
  7  8  1  0
  8  9  1  0
  8 10  2  0
 10 11  1  0
 11 12  1  0
 11 13  1  0
 11 14  1  0
 14 15  2  0
 15 16  1  0
 15 17  1  0
 17 18  1  0
 17 19  2  0
 19 20  1  0
 20 21  1  0
 21 22  2  0
 21 23  1  0
 23 24  1  0
 24 25  1  0
 24 26  1  0
 24 27  1  0
 27 28  2  0
 28 29  1  0
 28 30  1  0
 30 31  1  0
 30 32  2  0
 32 33  1  0
 32 34  1  0
 34 35  1  0
 34 36  2  0
 36 37  1  0
 19 38  1  0
 38 39  1  0
 38 40  2  0
 40 41  1  0
 10 42  1  0
  2 43  2  3
 43 44  1  0
 43 45  1  0
 45 46  2  0
 46 47  1  0
 46 48  1  0
 48 49  1  0
 48 50  2  0
 50 51  1  0
 51 52  1  0
 52 53  1  0
 52 54  1  0
 52 55  1  0
 55 56  2  0
 56 57  1  0
 56 58  1  0
 58 59  1  0
 58 60  2  0
 60 61  1  0
 60 62  1  0
 62 63  1  0
 62 64  2  0
 64 65  1  0
 50 66  1  0
 66 67  1  0
 66 68  2  0
 68 69  1  0
 42  6  1  0
 68 45  1  0
 40 14  1  0
 64 55  1  0
 36 27  1  0
M  CHG  3   7  -1  20  -1  39  -1
M  END
>  <UniqueID>  (49) 
47

>  <SMILES>  (49) 
O=C(C=Cc1ccc(OCc2ccccc2)cc1)/N=c1/[n-]cc(Cc2ccc([N-]C(=O)OCc3ccccc3)c([O-])c2)s1

>  <Energy>  (49) 
115.42657486356256

>  <Genealogy>  (49) 
O=C(C=Cc1ccc(OCc2ccccc2)cc1)N=c1[n-]cc(Cc2ccc([N-]C(=O)OCc3ccccc3)c([O-])c2)s1 (protonated)
O=C(C=Cc1ccc(OCc2ccccc2)cc1)/N=c1/[n-]cc(Cc2ccc([N-]C(=O)OCc3ccccc3)c([O-])c2)s1 (cis-trans isomerization)
O=C(C=Cc1ccc(OCc2ccccc2)cc1)/N=c1/[n-]cc(Cc2ccc([N-]C(=O)OCc3ccccc3)c([O-])c2)s1 (3D coordinates assigned)
O=C(C=Cc1ccc(OCc2ccccc2)cc1)/N=c1/[n-]cc(Cc2ccc([N-]C(=O)OCc3ccccc3)c([O-])c2)s1 (optimized conformer: 115.42657486356256 kcal/mol)

>  <smiles>  (49) 
O=C(C=Cc1ccc(OCc2ccccc2)cc1)N=c1[nH]cc(Cc2ccc(NC(=O)OCc3ccccc3)c(O)c2)s1

>  <score_type>  (49) 
oracle

>  <origin>  (49) 
adg

>  <m_score__min__energy>  (49) 
-18.18

>  <m_primary>  (49) 
energy

$$$$
50:0
     RDKit          3D

 58 61  0  0  0  0  0  0  0  0999 V2000
   55.5180   28.9160   44.9350 N   0  0  0  0  0  0  0  0  0  0  0  0
   57.1340   29.5100   45.0770 S   0  0  0  0  0  0  0  0  0  0  0  0
   57.3480   30.0620   46.4570 O   0  0  0  0  0  0  0  0  0  0  0  0
   58.0940   28.3730   44.8660 O   0  0  0  0  0  0  0  0  0  0  0  0
   57.4170   30.7720   43.8640 C   0  0  0  0  0  0  0  0  0  0  0  0
   56.7860   30.6610   42.6150 C   0  0  0  0  0  0  0  0  0  0  0  0
   57.0140   31.6090   41.6160 C   0  0  0  0  0  0  0  0  0  0  0  0
   57.8760   32.6800   41.8510 C   0  0  0  0  0  0  0  0  0  0  0  0
   58.5040   32.8120   43.0910 C   0  0  0  0  0  0  0  0  0  0  0  0
   58.2740   31.8730   44.1110 C   0  0  0  0  0  0  0  0  0  0  0  0
   58.9380   32.0760   45.4130 C   0  0  0  0  0  0  0  0  0  0  0  0
   59.7590   31.0750   45.9530 C   0  0  0  0  0  0  0  0  0  0  0  0
   60.3840   31.2690   47.1870 C   0  0  0  0  0  0  0  0  0  0  0  0
   60.1910   32.4600   47.9010 C   0  0  0  0  0  0  0  0  0  0  0  0
   60.8440   32.6480   49.1700 N   0  0  0  0  0  0  0  0  0  0  0  0
   62.2650   32.2970   49.2930 C   0  0  0  0  0  0  0  0  0  0  0  0
   62.9590   33.1640   50.3420 C   0  0  0  0  0  0  0  0  0  0  0  0
   62.2590   33.0060   51.6890 C   0  0  0  0  0  0  0  0  0  0  0  0
   60.7880   33.4580   51.6150 C   0  0  2  0  0  0  0  0  0  0  0  0
   60.0300   33.0530   52.8140 N   0  0  0  0  0  0  0  0  0  0  0  0
   59.9590   31.3350   53.1500 S   0  0  0  0  0  0  0  0  0  0  0  0
   58.7350   31.0060   53.9570 O   0  0  0  0  0  0  0  0  0  0  0  0
   61.1580   30.9740   53.9790 O   0  0  0  0  0  0  0  0  0  0  0  0
   59.9970   30.3440   51.6930 C   0  0  0  0  0  0  0  0  0  0  0  0
   58.8720   30.2800   50.8630 C   0  0  0  0  0  0  0  0  0  0  0  0
   58.8800   29.4730   49.7220 C   0  0  0  0  0  0  0  0  0  0  0  0
   60.0220   28.7210   49.3890 C   0  0  0  0  0  0  0  0  0  0  0  0
   60.0470   27.8500   48.1880 C   0  0  0  0  0  0  0  0  0  0  0  0
   59.1280   28.0370   47.1090 N   0  0  0  0  0  0  0  0  0  0  0  0
   60.9040   26.9290   48.1030 O   0  0  0  0  0  0  0  0  0  0  0  0
   61.1450   28.7840   50.2340 C   0  0  0  0  0  0  0  0  0  0  0  0
   61.1340   29.5930   51.3730 C   0  0  0  0  0  0  0  0  0  0  0  0
   60.0970   33.1270   50.3100 C   0  0  0  0  0  0  0  0  0  0  0  0
   58.8790   33.4270   50.1790 O   0  0  0  0  0  0  0  0  0  0  0  0
   59.3560   33.4570   47.3660 C   0  0  0  0  0  0  0  0  0  0  0  0
   59.1390   34.6110   48.0430 F   0  0  0  0  0  0  0  0  0  0  0  0
   58.7300   33.2610   46.1310 C   0  0  0  0  0  0  0  0  0  0  0  0
   54.9330   29.4580   45.6100 H   0  0  0  0  0  0  0  0  0  0  0  0
   56.1053   29.8189   42.4216 H   0  0  0  0  0  0  0  0  0  0  0  0
   56.5129   31.5112   40.6417 H   0  0  0  0  0  0  0  0  0  0  0  0
   58.0611   33.4208   41.0592 H   0  0  0  0  0  0  0  0  0  0  0  0
   59.1841   33.6576   43.2710 H   0  0  0  0  0  0  0  0  0  0  0  0
   59.9111   30.1345   45.4031 H   0  0  0  0  0  0  0  0  0  0  0  0
   61.0317   30.4823   47.6012 H   0  0  0  0  0  0  0  0  0  0  0  0
   62.3495   31.2406   49.5876 H   0  0  0  0  0  0  0  0  0  0  0  0
   62.7517   32.4687   48.3216 H   0  0  0  0  0  0  0  0  0  0  0  0
   64.0093   32.8512   50.4374 H   0  0  0  0  0  0  0  0  0  0  0  0
   62.9128   34.2179   50.0302 H   0  0  0  0  0  0  0  0  0  0  0  0
   62.2936   31.9481   51.9883 H   0  0  0  0  0  0  0  0  0  0  0  0
   62.7784   33.6373   52.4250 H   0  0  0  0  0  0  0  0  0  0  0  0
   60.8099   34.5578   51.6172 H   0  0  0  0  0  0  0  0  0  0  0  0
   57.9761   30.8684   51.1102 H   0  0  0  0  0  0  0  0  0  0  0  0
   57.9880   29.4253   49.0801 H   0  0  0  0  0  0  0  0  0  0  0  0
   58.5030   28.8700   47.0560 H   0  0  0  0  0  0  0  0  0  0  0  0
   59.1320   27.3750   46.3020 H   0  0  0  0  0  0  0  0  0  0  0  0
   62.0401   28.1907   49.9957 H   0  0  0  0  0  0  0  0  0  0  0  0
   62.0220   29.6399   52.0205 H   0  0  0  0  0  0  0  0  0  0  0  0
   58.0712   34.0408   45.7213 H   0  0  0  0  0  0  0  0  0  0  0  0
  1  2  1  0
  2  3  2  0
  2  4  2  0
  2  5  1  0
  5  6  2  0
  6  7  1  0
  7  8  2  0
  8  9  1  0
  9 10  2  0
 10 11  1  0
 11 12  2  0
 12 13  1  0
 13 14  2  0
 14 15  1  0
 15 16  1  0
 16 17  1  0
 17 18  1  0
 18 19  1  0
 19 20  1  0
 20 21  1  0
 21 22  2  0
 21 23  2  0
 21 24  1  0
 24 25  2  0
 25 26  1  0
 26 27  2  0
 27 28  1  0
 28 29  1  0
 28 30  2  0
 27 31  1  0
 31 32  2  0
 19 33  1  0
 33 34  2  0
 14 35  1  0
 35 36  1  0
 35 37  2  0
 10  5  1  0
 37 11  1  0
 33 15  1  0
 32 24  1  0
  1 38  1  0
  6 39  1  0
  7 40  1  0
  8 41  1  0
  9 42  1  0
 12 43  1  0
 13 44  1  0
 16 45  1  0
 16 46  1  0
 17 47  1  0
 17 48  1  0
 18 49  1  0
 18 50  1  0
 19 51  1  1
 25 52  1  0
 26 53  1  0
 29 54  1  0
 29 55  1  0
 31 56  1  0
 32 57  1  0
 37 58  1  0
M  CHG  2   1  -1  20  -1
M  END
>  <UniqueID>  (50) 
48

>  <SMILES>  (50) 
[NH-]S(=O)(=O)c1ccccc1-c1ccc(N2CCC[C@H]([N-]S(=O)(=O)c3ccc(C(N)=O)cc3)C2=O)c(F)c1

>  <Energy>  (50) 
80.98950892930935

>  <Genealogy>  (50) 
[NH-]S(=O)(=O)c1ccccc1-c1ccc(N2CCCC([N-]S(=O)(=O)c3ccc(C(N)=O)cc3)C2=O)c(F)c1 (protonated)
[NH-]S(=O)(=O)c1ccccc1-c1ccc(N2CCC[C@H]([N-]S(=O)(=O)c3ccc(C(N)=O)cc3)C2=O)c(F)c1 (chirality)
[NH-]S(=O)(=O)c1ccccc1-c1ccc(N2CCC[C@H]([N-]S(=O)(=O)c3ccc(C(N)=O)cc3)C2=O)c(F)c1 (3D coordinates assigned)
[NH-]S(=O)(=O)c1ccccc1-c1ccc(N2CCC[C@H]([N-]S(=O)(=O)c3ccc(C(N)=O)cc3)C2=O)c(F)c1 (nonaromatic ring conformer: 80.98950892930935 kcal/mol)

>  <smiles>  (50) 
NC(=O)c1ccc(S(=O)(=O)NC2CCCN(c3ccc(-c4ccccc4S(N)(=O)=O)cc3F)C2=O)cc1

>  <score_type>  (50) 
oracle

>  <origin>  (50) 
adg

>  <m_score__min__energy>  (50) 
-13.16

>  <m_primary>  (50) 
energy

$$$$
51:0
     RDKit          3D

 41 42  0  0  0  0  0  0  0  0999 V2000
   59.4250   34.8010   46.3440 C   0  0  0  0  0  0  0  0  0  0  0  0
   58.8780   33.6790   45.4990 C   0  0  0  0  0  0  0  0  0  0  0  0
   58.9130   33.8070   44.1010 C   0  0  0  0  0  0  0  0  0  0  0  0
   58.4060   32.8010   43.2820 C   0  0  0  0  0  0  0  0  0  0  0  0
   57.8720   31.6440   43.8460 C   0  0  0  0  0  0  0  0  0  0  0  0
   57.8350   31.4820   45.2360 C   0  0  0  0  0  0  0  0  0  0  0  0
   57.3040   30.2580   45.7650 N   0  0  0  0  0  0  0  0  0  0  0  0
   56.3800   29.4430   45.0210 C   0  0  0  0  0  0  0  0  0  0  0  0
   55.9860   29.8180   43.8850 O   0  0  0  0  0  0  0  0  0  0  0  0
   55.8900   28.2020   45.5430 N   0  0  0  0  0  0  0  0  0  0  0  0
   56.6760   26.9830   45.7130 C   0  0  1  0  0  0  0  0  0  0  0  0
   57.6510   27.1460   46.8950 C   0  0  0  0  0  0  0  0  0  0  0  0
   58.8390   27.9960   46.5200 C   0  0  0  0  0  0  0  0  0  0  0  0
   59.3580   27.9590   45.2160 C   0  0  0  0  0  0  0  0  0  0  0  0
   60.4410   28.7720   44.8670 C   0  0  0  0  0  0  0  0  0  0  0  0
   61.0080   29.6290   45.8130 C   0  0  0  0  0  0  0  0  0  0  0  0
   60.4910   29.6780   47.1110 C   0  0  0  0  0  0  0  0  0  0  0  0
   59.4080   28.8670   47.4640 C   0  0  0  0  0  0  0  0  0  0  0  0
   55.7380   25.8360   45.9570 C   0  0  0  0  0  0  0  0  0  0  0  0
   56.1660   24.7650   46.4620 O   0  0  0  0  0  0  0  0  0  0  0  0
   54.3860   25.9630   45.6590 O   0  0  0  0  0  0  0  0  0  0  0  0
   58.2910   32.5260   46.0820 C   0  0  0  0  0  0  0  0  0  0  0  0
   58.1620   32.4090   47.5840 C   0  0  0  0  0  0  0  0  0  0  0  0
   59.3033   34.5513   47.4084 H   0  0  0  0  0  0  0  0  0  0  0  0
   60.4928   34.9416   46.1201 H   0  0  0  0  0  0  0  0  0  0  0  0
   58.8781   35.7288   46.1201 H   0  0  0  0  0  0  0  0  0  0  0  0
   59.3454   34.7113   43.6480 H   0  0  0  0  0  0  0  0  0  0  0  0
   58.4271   32.9199   42.1887 H   0  0  0  0  0  0  0  0  0  0  0  0
   57.4763   30.8516   43.1937 H   0  0  0  0  0  0  0  0  0  0  0  0
   57.4560   30.0720   46.7790 H   0  0  0  0  0  0  0  0  0  0  0  0
   57.2670   26.7860   44.8064 H   0  0  0  0  0  0  0  0  0  0  0  0
   57.1206   27.6230   47.7324 H   0  0  0  0  0  0  0  0  0  0  0  0
   58.0171   26.1486   47.1798 H   0  0  0  0  0  0  0  0  0  0  0  0
   58.9115   27.2887   44.4668 H   0  0  0  0  0  0  0  0  0  0  0  0
   60.8472   28.7365   43.8454 H   0  0  0  0  0  0  0  0  0  0  0  0
   61.8615   30.2655   45.5367 H   0  0  0  0  0  0  0  0  0  0  0  0
   60.9364   30.3549   47.8550 H   0  0  0  0  0  0  0  0  0  0  0  0
   59.0001   28.9112   48.4846 H   0  0  0  0  0  0  0  0  0  0  0  0
   58.8938   33.0727   48.0677 H   0  0  0  0  0  0  0  0  0  0  0  0
   57.1458   32.6999   47.8885 H   0  0  0  0  0  0  0  0  0  0  0  0
   58.3526   31.3693   47.8885 H   0  0  0  0  0  0  0  0  0  0  0  0
  1  2  1  0
  2  3  2  0
  3  4  1  0
  4  5  2  0
  5  6  1  0
  6  7  1  0
  7  8  1  0
  8  9  2  0
  8 10  1  0
 10 11  1  0
 11 12  1  0
 12 13  1  0
 13 14  2  0
 14 15  1  0
 15 16  2  0
 16 17  1  0
 17 18  2  0
 11 19  1  0
 19 20  2  0
 19 21  1  0
  6 22  2  0
 22 23  1  0
 22  2  1  0
 18 13  1  0
  1 24  1  0
  1 25  1  0
  1 26  1  0
  3 27  1  0
  4 28  1  0
  5 29  1  0
  7 30  1  0
 11 31  1  6
 12 32  1  0
 12 33  1  0
 14 34  1  0
 15 35  1  0
 16 36  1  0
 17 37  1  0
 18 38  1  0
 23 39  1  0
 23 40  1  0
 23 41  1  0
M  CHG  2  10  -1  21  -1
M  END
>  <UniqueID>  (51) 
49

>  <SMILES>  (51) 
Cc1cccc(NC(=O)[N-][C@@H](Cc2ccccc2)C(=O)[O-])c1C

>  <Energy>  (51) 
44.51747692971182

>  <Genealogy>  (51) 
Cc1cccc(NC(=O)[N-]C(Cc2ccccc2)C(=O)[O-])c1C (protonated)
Cc1cccc(NC(=O)[N-][C@@H](Cc2ccccc2)C(=O)[O-])c1C (chirality)
Cc1cccc(NC(=O)[N-][C@@H](Cc2ccccc2)C(=O)[O-])c1C (3D coordinates assigned)
Cc1cccc(NC(=O)[N-][C@@H](Cc2ccccc2)C(=O)[O-])c1C (optimized conformer: 44.51747692971182 kcal/mol)

>  <smiles>  (51) 
Cc1cccc(NC(=O)NC(Cc2ccccc2)C(=O)O)c1C

>  <score_type>  (51) 
oracle

>  <origin>  (51) 
adg

>  <m_score__min__energy>  (51) 
-12.15

>  <m_primary>  (51) 
energy

$$$$
52:0
     RDKit          3D

 42 44  0  0  0  0  0  0  0  0999 V2000
   59.3600   33.4320   49.0510 C   0  0  0  0  0  0  0  0  0  0  0  0
   59.2590   33.7810   47.5950 C   0  0  0  0  0  0  0  0  0  0  0  0
   59.7700   34.9980   47.1220 C   0  0  0  0  0  0  0  0  0  0  0  0
   59.6440   35.3350   45.7730 C   0  0  0  0  0  0  0  0  0  0  0  0
   58.9980   34.4690   44.8890 C   0  0  0  0  0  0  0  0  0  0  0  0
   58.4650   33.2510   45.3460 C   0  0  0  0  0  0  0  0  0  0  0  0
   57.7720   32.3320   44.4110 C   0  0  0  0  0  0  0  0  0  0  0  0
   57.7100   32.6140   43.1840 O   0  0  0  0  0  0  0  0  0  0  0  0
   57.1270   31.1530   44.9110 N   0  0  0  0  0  0  0  0  0  0  0  0
   57.7600   29.9250   45.3010 C   0  0  0  0  0  0  0  0  0  0  0  0
   57.8990   28.9090   44.3470 C   0  0  0  0  0  0  0  0  0  0  0  0
   58.4900   27.6900   44.6900 C   0  0  0  0  0  0  0  0  0  0  0  0
   58.9270   27.4580   45.9990 C   0  0  0  0  0  0  0  0  0  0  0  0
   59.5400   26.1990   46.3130 N   0  0  0  0  0  0  0  0  0  0  0  0
   59.0690   24.9050   45.9140 C   0  0  0  0  0  0  0  0  0  0  0  0
   59.9150   24.0000   45.6850 O   0  0  0  0  0  0  0  0  0  0  0  0
   57.6280   24.6190   45.7130 C   0  0  0  0  0  0  0  0  0  0  0  0
   57.2170   23.3490   45.2750 C   0  0  0  0  0  0  0  0  0  0  0  0
   55.8600   23.0720   45.0850 C   0  0  0  0  0  0  0  0  0  0  0  0
   54.8970   24.0570   45.3180 C   0  0  0  0  0  0  0  0  0  0  0  0
   53.5500   23.7530   45.1250 O   0  0  0  0  0  0  0  0  0  0  0  0
   55.3010   25.3360   45.7390 C   0  0  0  0  0  0  0  0  0  0  0  0
   54.3600   26.3340   45.9690 O   0  0  0  0  0  0  0  0  0  0  0  0
   56.6590   25.6140   45.9300 C   0  0  0  0  0  0  0  0  0  0  0  0
   58.7920   28.4760   46.9590 C   0  0  0  0  0  0  0  0  0  0  0  0
   58.1980   29.6950   46.6170 C   0  0  0  0  0  0  0  0  0  0  0  0
   58.5950   32.9180   46.7080 C   0  0  0  0  0  0  0  0  0  0  0  0
   59.1049   34.3133   49.6578 H   0  0  0  0  0  0  0  0  0  0  0  0
   58.6618   32.6138   49.2812 H   0  0  0  0  0  0  0  0  0  0  0  0
   60.3873   33.1131   49.2812 H   0  0  0  0  0  0  0  0  0  0  0  0
   60.2715   35.6890   47.8156 H   0  0  0  0  0  0  0  0  0  0  0  0
   60.0554   36.2866   45.4053 H   0  0  0  0  0  0  0  0  0  0  0  0
   58.9053   34.7415   43.8273 H   0  0  0  0  0  0  0  0  0  0  0  0
   57.5402   29.0718   43.3200 H   0  0  0  0  0  0  0  0  0  0  0  0
   58.6125   26.9079   43.9262 H   0  0  0  0  0  0  0  0  0  0  0  0
   57.9671   22.5683   45.0805 H   0  0  0  0  0  0  0  0  0  0  0  0
   55.5483   22.0718   44.7498 H   0  0  0  0  0  0  0  0  0  0  0  0
   52.8260   24.4590   45.1870 H   0  0  0  0  0  0  0  0  0  0  0  0
   56.9706   26.6185   46.2523 H   0  0  0  0  0  0  0  0  0  0  0  0
   59.1554   28.3129   47.9844 H   0  0  0  0  0  0  0  0  0  0  0  0
   58.0730   30.4769   47.3806 H   0  0  0  0  0  0  0  0  0  0  0  0
   58.1726   31.9732   47.0807 H   0  0  0  0  0  0  0  0  0  0  0  0
  1  2  1  0
  2  3  2  0
  3  4  1  0
  4  5  2  0
  5  6  1  0
  6  7  1  0
  7  8  2  0
  7  9  1  0
  9 10  1  0
 10 11  2  0
 11 12  1  0
 12 13  2  0
 13 14  1  0
 14 15  1  0
 15 16  2  0
 15 17  1  0
 17 18  2  0
 18 19  1  0
 19 20  2  0
 20 21  1  0
 20 22  1  0
 22 23  1  0
 22 24  2  0
 13 25  1  0
 25 26  2  0
  6 27  2  0
 27  2  1  0
 26 10  1  0
 24 17  1  0
  1 28  1  0
  1 29  1  0
  1 30  1  0
  3 31  1  0
  4 32  1  0
  5 33  1  0
 11 34  1  0
 12 35  1  0
 18 36  1  0
 19 37  1  0
 21 38  1  0
 24 39  1  0
 25 40  1  0
 26 41  1  0
 27 42  1  0
M  CHG  3   9  -1  14  -1  23  -1
M  END
>  <UniqueID>  (52) 
50

>  <SMILES>  (52) 
Cc1cccc(C(=O)[N-]c2ccc([N-]C(=O)c3ccc(O)c([O-])c3)cc2)c1

>  <Energy>  (52) 
55.63296958754232

>  <Genealogy>  (52) 
Cc1cccc(C(=O)[N-]c2ccc([N-]C(=O)c3ccc(O)c([O-])c3)cc2)c1 (protonated)
Cc1cccc(C(=O)[N-]c2ccc([N-]C(=O)c3ccc(O)c([O-])c3)cc2)c1 (3D coordinates assigned)
Cc1cccc(C(=O)[N-]c2ccc([N-]C(=O)c3ccc(O)c([O-])c3)cc2)c1 (optimized conformer: 55.63296958754232 kcal/mol)

>  <smiles>  (52) 
Cc1cccc(C(=O)Nc2ccc(NC(=O)c3ccc(O)c(O)c3)cc2)c1

>  <score_type>  (52) 
oracle

>  <origin>  (52) 
adg

>  <m_score__min__energy>  (52) 
-14.35

>  <m_primary>  (52) 
energy

$$$$
53:0
     RDKit          3D

 37 39  0  0  0  0  0  0  0  0999 V2000
   55.2070   29.0200   45.0050 O   0  0  0  0  0  0  0  0  0  0  0  0
   56.1840   29.9460   44.6440 C   0  0  0  0  0  0  0  0  0  0  0  0
   55.9250   31.2150   44.4420 O   0  0  0  0  0  0  0  0  0  0  0  0
   57.0480   31.8300   44.1520 C   0  0  0  0  0  0  0  0  0  0  0  0
   58.0930   30.9280   44.1640 C   0  0  0  0  0  0  0  0  0  0  0  0
   57.5350   29.6970   44.4640 C   0  0  0  0  0  0  0  0  0  0  0  0
   58.2790   28.3950   44.6820 C   0  0  2  0  0  0  0  0  0  0  0  0
   57.8780   27.7820   46.0390 C   0  0  0  0  0  0  0  0  0  0  0  0
   58.6360   28.4600   47.1470 C   0  0  0  0  0  0  0  0  0  0  0  0
   59.9010   28.7070   47.0100 N   0  0  0  0  0  0  0  0  0  0  0  0
   60.6200   29.4360   48.0450 C   0  0  0  0  0  0  0  0  0  0  0  0
   60.8610   30.8560   47.6080 C   0  0  0  0  0  0  0  0  0  0  0  0
   62.1700   31.3610   47.5420 C   0  0  0  0  0  0  0  0  0  0  0  0
   62.3940   32.6900   47.1710 C   0  0  0  0  0  0  0  0  0  0  0  0
   61.3130   33.5250   46.8720 C   0  0  0  0  0  0  0  0  0  0  0  0
   60.0070   33.0340   46.9470 C   0  0  0  0  0  0  0  0  0  0  0  0
   59.7790   31.7040   47.3180 C   0  0  0  0  0  0  0  0  0  0  0  0
   60.6010   28.2250   45.8240 C   0  0  0  0  0  0  0  0  0  0  0  0
   59.8230   28.5820   44.5420 C   0  0  0  0  0  0  0  0  0  0  0  0
   54.3130   28.9680   44.5340 H   0  0  0  0  0  0  0  0  0  0  0  0
   57.1422   32.9037   43.9323 H   0  0  0  0  0  0  0  0  0  0  0  0
   59.1547   31.1438   43.9736 H   0  0  0  0  0  0  0  0  0  0  0  0
   57.9889   27.6854   43.8931 H   0  0  0  0  0  0  0  0  0  0  0  0
   56.7982   27.9198   46.1974 H   0  0  0  0  0  0  0  0  0  0  0  0
   58.1179   26.7085   46.0382 H   0  0  0  0  0  0  0  0  0  0  0  0
   58.1169   28.7462   48.0736 H   0  0  0  0  0  0  0  0  0  0  0  0
   60.0243   29.4365   48.9697 H   0  0  0  0  0  0  0  0  0  0  0  0
   61.5885   28.9457   48.2227 H   0  0  0  0  0  0  0  0  0  0  0  0
   63.0220   30.7083   47.7831 H   0  0  0  0  0  0  0  0  0  0  0  0
   63.4213   33.0792   47.1142 H   0  0  0  0  0  0  0  0  0  0  0  0
   61.4910   34.5698   46.5774 H   0  0  0  0  0  0  0  0  0  0  0  0
   59.1577   33.6932   46.7143 H   0  0  0  0  0  0  0  0  0  0  0  0
   58.7497   31.3214   47.3827 H   0  0  0  0  0  0  0  0  0  0  0  0
   61.5977   28.6884   45.7811 H   0  0  0  0  0  0  0  0  0  0  0  0
   60.6882   27.1304   45.8884 H   0  0  0  0  0  0  0  0  0  0  0  0
   60.0257   29.6340   44.2925 H   0  0  0  0  0  0  0  0  0  0  0  0
   60.1634   27.8949   43.7533 H   0  0  0  0  0  0  0  0  0  0  0  0
  1  2  1  0
  2  3  1  0
  3  4  1  0
  4  5  2  0
  5  6  1  0
  6  7  1  0
  7  8  1  0
  8  9  1  0
  9 10  2  0
 10 11  1  0
 11 12  1  0
 12 13  2  0
 13 14  1  0
 14 15  2  0
 15 16  1  0
 16 17  2  0
 10 18  1  0
 18 19  1  0
  6  2  2  0
 19  7  1  0
 17 12  1  0
  1 20  1  0
  4 21  1  0
  5 22  1  0
  7 23  1  6
  8 24  1  0
  8 25  1  0
  9 26  1  0
 11 27  1  0
 11 28  1  0
 13 29  1  0
 14 30  1  0
 15 31  1  0
 16 32  1  0
 17 33  1  0
 18 34  1  0
 18 35  1  0
 19 36  1  0
 19 37  1  0
M  CHG  1  10   1
M  END
>  <UniqueID>  (53) 
51

>  <SMILES>  (53) 
Oc1occc1[C@@H]1CC=[N+](Cc2ccccc2)CC1

>  <Energy>  (53) 
68.38395430966878

>  <Genealogy>  (53) 
Oc1occc1[C@@H]1CC=[N+](Cc2ccccc2)CC1 (chirality)
Oc1occc1[C@@H]1CC=[N+](Cc2ccccc2)CC1 (3D coordinates assigned)
Oc1occc1[C@@H]1CC=[N+](Cc2ccccc2)CC1 (nonaromatic ring conformer: 68.38395430966878 kcal/mol)

>  <smiles>  (53) 
Oc1occc1C1CC=[N+](Cc2ccccc2)CC1

>  <score_type>  (53) 
oracle

>  <origin>  (53) 
adg

>  <m_score__min__energy>  (53) 
-6.3399999999999999

>  <m_primary>  (53) 
energy

$$$$
54:0
     RDKit          3D

 45 47  0  0  0  0  0  0  0  0999 V2000
   55.8950   30.4400   44.2010 C   0  0  0  0  0  0  0  0  0  0  0  0
   57.1380   30.7550   44.8840 N   0  0  0  0  0  0  0  0  0  0  0  0
   57.6000   32.0720   44.5150 C   0  0  0  0  0  0  0  0  0  0  0  0
   58.1140   32.8160   45.6960 C   0  0  0  0  0  0  0  0  0  0  0  0
   58.4460   34.2630   45.6020 C   0  0  0  0  0  0  0  0  0  0  0  0
   58.9810   34.7220   47.1400 S   0  0  0  0  0  0  0  0  0  0  0  0
   58.7520   32.9580   47.8910 C   0  0  0  0  0  0  0  0  0  0  0  0
   59.0690   32.7530   49.2380 N   0  0  0  0  0  0  0  0  0  0  0  0
   58.1210   32.0550   50.1190 C   0  0  0  0  0  0  0  0  0  0  0  0
   60.3210   33.2070   49.8250 C   0  0  0  0  0  0  0  0  0  0  0  0
   61.4430   33.0680   48.8820 C   0  0  0  0  0  0  0  0  0  0  0  0
   61.7120   31.7960   48.3840 C   0  0  0  0  0  0  0  0  0  0  0  0
   62.7460   31.5660   47.4920 C   0  0  0  0  0  0  0  0  0  0  0  0
   63.5260   32.6240   47.0890 C   0  0  0  0  0  0  0  0  0  0  0  0
   63.2630   33.9030   47.5840 C   0  0  0  0  0  0  0  0  0  0  0  0
   62.2290   34.1360   48.4770 C   0  0  0  0  0  0  0  0  0  0  0  0
   58.3240   32.3580   46.8720 N   0  0  0  0  0  0  0  0  0  0  0  0
   58.1530   29.7730   44.6110 C   0  0  0  0  0  0  0  0  0  0  0  0
   58.7710   29.2070   45.8380 C   0  0  0  0  0  0  0  0  0  0  0  0
   59.7120   28.2070   45.9710 C   0  0  0  0  0  0  0  0  0  0  0  0
   59.9340   28.0770   47.3450 C   0  0  0  0  0  0  0  0  0  0  0  0
   60.7360   27.2570   47.8740 O   0  0  0  0  0  0  0  0  0  0  0  0
   59.1440   28.9740   47.9750 N   0  0  0  0  0  0  0  0  0  0  0  0
   58.4440   29.6550   47.0840 N   0  0  0  0  0  0  0  0  0  0  0  0
   55.1087   30.2407   44.9440 H   0  0  0  0  0  0  0  0  0  0  0  0
   55.5970   31.2910   43.5710 H   0  0  0  0  0  0  0  0  0  0  0  0
   56.0382   29.5498   43.5710 H   0  0  0  0  0  0  0  0  0  0  0  0
   58.4074   31.9739   43.7744 H   0  0  0  0  0  0  0  0  0  0  0  0
   56.7516   32.6320   44.0947 H   0  0  0  0  0  0  0  0  0  0  0  0
   58.3609   34.9047   44.7126 H   0  0  0  0  0  0  0  0  0  0  0  0
   58.3850   32.2494   51.1690 H   0  0  0  0  0  0  0  0  0  0  0  0
   57.1019   32.4200   49.9235 H   0  0  0  0  0  0  0  0  0  0  0  0
   58.1669   30.9735   49.9235 H   0  0  0  0  0  0  0  0  0  0  0  0
   60.2202   34.2656   50.1065 H   0  0  0  0  0  0  0  0  0  0  0  0
   60.5334   32.5847   50.7069 H   0  0  0  0  0  0  0  0  0  0  0  0
   61.0865   30.9511   48.7077 H   0  0  0  0  0  0  0  0  0  0  0  0
   62.9403   30.5523   47.1117 H   0  0  0  0  0  0  0  0  0  0  0  0
   64.3524   32.4640   46.3808 H   0  0  0  0  0  0  0  0  0  0  0  0
   63.8910   34.7451   47.2576 H   0  0  0  0  0  0  0  0  0  0  0  0
   62.0354   35.1498   48.8575 H   0  0  0  0  0  0  0  0  0  0  0  0
   57.6982   28.9511   44.0386 H   0  0  0  0  0  0  0  0  0  0  0  0
   58.9516   30.2788   44.0486 H   0  0  0  0  0  0  0  0  0  0  0  0
   60.1886   27.6316   45.1637 H   0  0  0  0  0  0  0  0  0  0  0  0
   59.0700   29.1360   49.0220 H   0  0  0  0  0  0  0  0  0  0  0  0
   57.7640   30.4040   47.3230 H   0  0  0  0  0  0  0  0  0  0  0  0
  1  2  1  0
  2  3  1  0
  3  4  1  0
  4  5  2  0
  5  6  1  0
  6  7  1  0
  7  8  1  0
  8  9  1  0
  8 10  1  0
 10 11  1  0
 11 12  2  0
 12 13  1  0
 13 14  2  0
 14 15  1  0
 15 16  2  0
  7 17  2  0
  2 18  1  0
 18 19  1  0
 19 20  2  0
 20 21  1  0
 21 22  2  0
 21 23  1  0
 23 24  1  0
 17  4  1  0
 24 19  1  0
 16 11  1  0
  1 25  1  0
  1 26  1  0
  1 27  1  0
  3 28  1  0
  3 29  1  0
  5 30  1  0
  9 31  1  0
  9 32  1  0
  9 33  1  0
 10 34  1  0
 10 35  1  0
 12 36  1  0
 13 37  1  0
 14 38  1  0
 15 39  1  0
 16 40  1  0
 18 41  1  0
 18 42  1  0
 20 43  1  0
 23 44  1  0
 24 45  1  0
M  END
>  <smiles>  (54) 
CN(Cc1csc(N(C)Cc2ccccc2)n1)Cc1cc(=O)[nH][nH]1

>  <score_type>  (54) 
oracle

>  <origin>  (54) 
adg

>  <m_score__min__energy>  (54) 
-7.79

>  <m_primary>  (54) 
energy

$$$$
55:0
     RDKit          3D

 14 13  0  0  0  0  0  0  0  0999 V2000
   55.1430   29.3350   44.8700 N   0  0  0  0  0  0  0  0  0  0  0  0
   56.7830   29.6800   44.4430 S   0  0  0  0  0  0  0  0  0  0  0  0
   56.8560   30.0160   42.9810 O   0  0  0  0  0  0  0  0  0  0  0  0
   57.2750   30.8500   45.2480 O   0  0  0  0  0  0  0  0  0  0  0  0
   57.8020   28.2510   44.7690 C   0  0  0  0  0  0  0  0  0  0  0  0
   57.3940   27.5740   46.0870 C   0  0  0  0  0  0  0  0  0  0  0  0
   56.1800   26.7580   45.9810 N   0  0  0  0  0  0  0  0  0  0  0  0
   56.1520   25.5360   45.6210 C   0  0  0  0  0  0  0  0  0  0  0  0
   56.1170   23.9910   45.1660 S   0  0  0  0  0  0  0  0  0  0  0  0
   55.1700   28.6260   45.6360 H   0  0  0  0  0  0  0  0  0  0  0  0
   57.6877   27.5318   43.9445 H   0  0  0  0  0  0  0  0  0  0  0  0
   58.8489   28.5782   44.8520 H   0  0  0  0  0  0  0  0  0  0  0  0
   58.2203   26.9259   46.4145 H   0  0  0  0  0  0  0  0  0  0  0  0
   57.1789   28.3772   46.8071 H   0  0  0  0  0  0  0  0  0  0  0  0
  1  2  1  0
  2  3  2  0
  2  4  2  0
  2  5  1  0
  5  6  1  0
  6  7  1  0
  7  8  2  0
  8  9  2  0
  1 10  1  0
  5 11  1  0
  5 12  1  0
  6 13  1  0
  6 14  1  0
M  CHG  1   1  -1
M  END
>  <UniqueID>  (55) 
52

>  <SMILES>  (55) 
[NH-]S(=O)(=O)CCN=C=S

>  <Energy>  (55) 
4.256556781545784

>  <Genealogy>  (55) 
[NH-]S(=O)(=O)CCN=C=S (protonated)
[NH-]S(=O)(=O)CCN=C=S (3D coordinates assigned)
[NH-]S(=O)(=O)CCN=C=S (optimized conformer: 4.256556781545784 kcal/mol)

>  <smiles>  (55) 
NS(=O)(=O)CCN=C=S

>  <score_type>  (55) 
oracle

>  <origin>  (55) 
adg

>  <m_score__min__energy>  (55) 
-7.4400000000000004

>  <m_primary>  (55) 
energy

$$$$
56:0
     RDKit          3D

 31 33  0  0  0  0  0  0  0  0999 V2000
   55.1460   28.3000   44.4920 H   0  0  0  0  0  0  0  0  0  0  0  0
   55.1930   29.3340   44.6330 N   0  0  0  0  0  0  0  0  0  0  0  0
   56.6300   29.8850   43.8490 S   0  0  0  0  0  0  0  0  0  0  0  0
   56.2830   30.4540   42.5010 O   0  0  0  0  0  0  0  0  0  0  0  0
   57.5730   28.7300   43.6560 O   0  0  0  0  0  0  0  0  0  0  0  0
   57.3970   31.1220   44.8390 C   0  0  0  0  0  0  0  0  0  0  0  0
   58.3590   30.7660   45.7930 C   0  0  0  0  0  0  0  0  0  0  0  0
   58.6418   29.7105   45.9188 H   0  0  0  0  0  0  0  0  0  0  0  0
   58.9610   31.7480   46.5860 C   0  0  0  0  0  0  0  0  0  0  0  0
   59.7304   31.4626   47.3185 H   0  0  0  0  0  0  0  0  0  0  0  0
   58.5910   33.0930   46.4540 C   0  0  0  0  0  0  0  0  0  0  0  0
   59.2580   34.0740   47.2660 N   0  0  0  0  0  0  0  0  0  0  0  0
   60.2650   33.8740   48.0670 C   0  0  0  0  0  0  0  0  0  0  0  0
   61.5130   33.6100   47.5750 N   0  0  0  0  0  0  0  0  0  0  0  0
   62.5390   33.4290   48.4370 C   0  0  0  0  0  0  0  0  0  0  0  0
   64.1370   33.0930   48.0510 S   0  0  0  0  0  0  0  0  0  0  0  0
   64.6360   33.0460   49.6720 C   0  0  0  0  0  0  0  0  0  0  0  0
   65.9740   32.7900   50.1060 N   0  0  0  0  0  0  0  0  0  0  0  0
   66.3970   31.6180   50.1800 O   0  0  0  0  0  0  0  0  0  0  0  0
   66.8070   33.8300   50.4450 O   0  0  0  0  0  0  0  0  0  0  0  0
   63.5550   33.2950   50.5210 C   0  0  0  0  0  0  0  0  0  0  0  0
   63.6239   33.3192   51.6186 H   0  0  0  0  0  0  0  0  0  0  0  0
   62.3730   33.5100   49.8020 C   0  0  0  0  0  0  0  0  0  0  0  0
   61.1030   33.7910   50.3020 C   0  0  0  0  0  0  0  0  0  0  0  0
   60.9010   33.8780   51.5440 O   0  0  0  0  0  0  0  0  0  0  0  0
   60.0730   33.9700   49.4220 N   0  0  0  0  0  0  0  0  0  0  0  0
   59.1190   34.1840   49.7920 H   0  0  0  0  0  0  0  0  0  0  0  0
   57.6430   33.4510   45.4780 C   0  0  0  0  0  0  0  0  0  0  0  0
   57.3734   34.5082   45.3380 H   0  0  0  0  0  0  0  0  0  0  0  0
   57.0420   32.4680   44.6850 C   0  0  0  0  0  0  0  0  0  0  0  0
   56.2874   32.7533   43.9373 H   0  0  0  0  0  0  0  0  0  0  0  0
  1  2  1  0
  2  3  1  0
  3  4  2  0
  3  5  2  0
  3  6  1  0
  6  7  2  0
  7  8  1  0
  7  9  1  0
  9 10  1  0
  9 11  2  0
 11 12  1  0
 12 13  2  0
 13 14  1  0
 14 15  1  0
 15 16  1  0
 16 17  1  0
 17 18  1  0
 18 19  2  0
 18 20  1  0
 17 21  2  0
 21 22  1  0
 21 23  1  0
 23 24  1  0
 24 25  2  0
 24 26  1  0
 26 27  1  0
 11 28  1  0
 28 29  1  0
 28 30  2  0
 30 31  1  0
 30  6  1  0
 26 13  1  0
 23 15  2  0
M  CHG  4   2  -1  14  -1  18   1  20  -1
M  END
>  <UniqueID>  (56) 
53

>  <SMILES>  (56) 
[NH-]S(=O)(=O)c1ccc(/N=c2\[n-]c3sc([N+](=O)[O-])cc3c(=O)[nH]2)cc1

>  <Energy>  (56) 
73.95887250846324

>  <Genealogy>  (56) 
[NH-]S(=O)(=O)c1ccc(N=c2[n-]c3sc([N+](=O)[O-])cc3c(=O)[nH]2)cc1 (protonated)
[NH-]S(=O)(=O)c1ccc(/N=c2\[n-]c3sc([N+](=O)[O-])cc3c(=O)[nH]2)cc1 (cis-trans isomerization)
[NH-]S(=O)(=O)c1ccc(/N=c2\[n-]c3sc([N+](=O)[O-])cc3c(=O)[nH]2)cc1 (3D coordinates assigned)
[NH-]S(=O)(=O)c1ccc(/N=c2\[n-]c3sc([N+](=O)[O-])cc3c(=O)[nH]2)cc1 (optimized conformer: 73.95887250846324 kcal/mol)

>  <smiles>  (56) 
NS(=O)(=O)c1ccc(N=c2[nH]c(=O)c3cc([N+](=O)[O-])sc3[nH]2)cc1

>  <score_type>  (56) 
oracle

>  <origin>  (56) 
adg

>  <m_score__min__energy>  (56) 
-11.1

>  <m_primary>  (56) 
energy

$$$$
57:0
     RDKit          3D

 63 66  0  0  0  0  0  0  0  0999 V2000
   56.2040   23.4570   43.4170 C   0  0  0  0  0  0  0  0  0  0  0  0
   57.5110   23.8410   44.1120 C   0  0  0  0  0  0  0  0  0  0  0  0
   57.2800   24.7060   45.3610 C   0  0  0  0  0  0  0  0  0  0  0  0
   57.3720   26.1760   45.0570 C   0  0  0  0  0  0  0  0  0  0  0  0
   57.8530   26.6210   43.8170 C   0  0  0  0  0  0  0  0  0  0  0  0
   57.9060   27.9900   43.5530 C   0  0  0  0  0  0  0  0  0  0  0  0
   57.4920   28.9110   44.5290 C   0  0  0  0  0  0  0  0  0  0  0  0
   57.5450   30.3630   44.2780 C   0  0  0  0  0  0  0  0  0  0  0  0
   57.9600   30.9380   43.1320 N   0  0  0  0  0  0  0  0  0  0  0  0
   57.8360   32.2460   43.2730 N   0  0  0  0  0  0  0  0  0  0  0  0
   57.3550   32.4250   44.5200 C   0  0  0  0  0  0  0  0  0  0  0  0
   57.0250   34.0270   45.2410 S   0  0  0  0  0  0  0  0  0  0  0  0
   58.5770   34.0380   46.1350 C   0  0  0  0  0  0  0  0  0  0  0  0
   58.5990   34.2450   47.5180 C   0  0  0  0  0  0  0  0  0  0  0  0
   59.8160   34.2350   48.2070 C   0  0  0  0  0  0  0  0  0  0  0  0
   61.0300   34.0290   47.5220 C   0  0  0  0  0  0  0  0  0  0  0  0
   62.3130   34.0050   48.2790 C   0  0  0  0  0  0  0  0  0  0  0  0
   62.4310   34.7080   49.3170 O   0  0  0  0  0  0  0  0  0  0  0  0
   63.4740   33.1300   47.8850 C   0  0  0  0  0  0  0  0  0  0  0  0
   62.9270   31.4280   47.4860 S   0  0  0  0  0  0  0  0  0  0  0  0
   61.9860   31.2090   49.0070 C   0  0  0  0  0  0  0  0  0  0  0  0
   62.8170   31.0240   50.4080 S   0  0  0  0  0  0  0  0  0  0  0  0
   60.5460   31.1180   48.9750 N   0  0  0  0  0  0  0  0  0  0  0  0
   59.8020   31.1100   50.2410 C   0  0  0  0  0  0  0  0  0  0  0  0
   59.8240   30.9410   47.7050 C   0  0  0  0  0  0  0  0  0  0  0  0
   60.0630   29.5730   47.1200 C   0  0  0  0  0  0  0  0  0  0  0  0
   60.5410   29.4350   45.8070 C   0  0  0  0  0  0  0  0  0  0  0  0
   60.7610   28.1640   45.2670 C   0  0  0  0  0  0  0  0  0  0  0  0
   60.4960   27.0220   46.0300 C   0  0  0  0  0  0  0  0  0  0  0  0
   60.0150   27.1500   47.3350 C   0  0  0  0  0  0  0  0  0  0  0  0
   59.7970   28.4200   47.8790 C   0  0  0  0  0  0  0  0  0  0  0  0
   60.9930   33.8370   46.1270 C   0  0  0  0  0  0  0  0  0  0  0  0
   59.7750   33.8400   45.4440 C   0  0  0  0  0  0  0  0  0  0  0  0
   57.1690   31.2810   45.1390 O   0  0  0  0  0  0  0  0  0  0  0  0
   57.0260   28.4240   45.7600 C   0  0  0  0  0  0  0  0  0  0  0  0
   56.9660   27.0860   45.9870 N   0  0  0  0  0  0  0  0  0  0  0  0
   55.4384   23.2321   44.1742 H   0  0  0  0  0  0  0  0  0  0  0  0
   55.8636   24.2931   42.7885 H   0  0  0  0  0  0  0  0  0  0  0  0
   56.3699   22.5696   42.7885 H   0  0  0  0  0  0  0  0  0  0  0  0
   58.0349   22.9213   44.4115 H   0  0  0  0  0  0  0  0  0  0  0  0
   58.1070   24.4321   43.4011 H   0  0  0  0  0  0  0  0  0  0  0  0
   56.2791   24.4889   45.7624 H   0  0  0  0  0  0  0  0  0  0  0  0
   58.0651   24.4618   46.0917 H   0  0  0  0  0  0  0  0  0  0  0  0
   58.1857   25.8967   43.0589 H   0  0  0  0  0  0  0  0  0  0  0  0
   58.2723   28.3482   42.5796 H   0  0  0  0  0  0  0  0  0  0  0  0
   58.2960   30.4650   42.2650 H   0  0  0  0  0  0  0  0  0  0  0  0
   57.6593   34.4156   48.0637 H   0  0  0  0  0  0  0  0  0  0  0  0
   59.8256   34.3897   49.2960 H   0  0  0  0  0  0  0  0  0  0  0  0
   63.9649   33.5640   47.0015 H   0  0  0  0  0  0  0  0  0  0  0  0
   64.1709   33.0782   48.7345 H   0  0  0  0  0  0  0  0  0  0  0  0
   60.5103   31.1176   51.0826 H   0  0  0  0  0  0  0  0  0  0  0  0
   59.1595   32.0013   50.2944 H   0  0  0  0  0  0  0  0  0  0  0  0
   59.1789   30.2051   50.2944 H   0  0  0  0  0  0  0  0  0  0  0  0
   58.7465   31.0693   47.8855 H   0  0  0  0  0  0  0  0  0  0  0  0
   60.1934   31.6913   46.9905 H   0  0  0  0  0  0  0  0  0  0  0  0
   60.7432   30.3303   45.2007 H   0  0  0  0  0  0  0  0  0  0  0  0
   61.1431   28.0621   44.2405 H   0  0  0  0  0  0  0  0  0  0  0  0
   60.6664   26.0230   45.6022 H   0  0  0  0  0  0  0  0  0  0  0  0
   59.8076   26.2518   47.9351 H   0  0  0  0  0  0  0  0  0  0  0  0
   59.4154   28.5171   48.9061 H   0  0  0  0  0  0  0  0  0  0  0  0
   61.9301   33.6836   45.5718 H   0  0  0  0  0  0  0  0  0  0  0  0
   59.7587   33.6855   44.3550 H   0  0  0  0  0  0  0  0  0  0  0  0
   56.7084   29.1279   46.5434 H   0  0  0  0  0  0  0  0  0  0  0  0
  1  2  1  0
  2  3  1  0
  3  4  1  0
  4  5  2  0
  5  6  1  0
  6  7  2  0
  7  8  1  0
  8  9  2  0
  9 10  1  0
 10 11  2  0
 11 12  1  0
 12 13  1  0
 13 14  2  0
 14 15  1  0
 15 16  2  0
 16 17  1  0
 17 18  2  0
 17 19  1  0
 19 20  1  0
 20 21  1  0
 21 22  2  0
 21 23  1  0
 23 24  1  0
 23 25  1  0
 25 26  1  0
 26 27  2  0
 27 28  1  0
 28 29  2  0
 29 30  1  0
 30 31  2  0
 16 32  1  0
 32 33  2  0
 11 34  1  0
  7 35  1  0
 35 36  2  0
 36  4  1  0
 34  8  1  0
 33 13  1  0
 31 26  1  0
  1 37  1  0
  1 38  1  0
  1 39  1  0
  2 40  1  0
  2 41  1  0
  3 42  1  0
  3 43  1  0
  5 44  1  0
  6 45  1  0
  9 46  1  0
 14 47  1  0
 15 48  1  0
 19 49  1  0
 19 50  1  0
 24 51  1  0
 24 52  1  0
 24 53  1  0
 25 54  1  0
 25 55  1  0
 27 56  1  0
 28 57  1  0
 29 58  1  0
 30 59  1  0
 31 60  1  0
 32 61  1  0
 33 62  1  0
 35 63  1  0
M  CHG  1   9   1
M  END
>  <UniqueID>  (57) 
54

>  <SMILES>  (57) 
CCCc1ccc(-c2[nH+]nc(Sc3ccc(C(=O)CSC(=S)N(C)Cc4ccccc4)cc3)o2)cn1

>  <Energy>  (57) 
92.1917155383398

>  <Genealogy>  (57) 
CCCc1ccc(-c2[nH+]nc(Sc3ccc(C(=O)CSC(=S)N(C)Cc4ccccc4)cc3)o2)cn1 (protonated)
CCCc1ccc(-c2[nH+]nc(Sc3ccc(C(=O)CSC(=S)N(C)Cc4ccccc4)cc3)o2)cn1 (3D coordinates assigned)
CCCc1ccc(-c2[nH+]nc(Sc3ccc(C(=O)CSC(=S)N(C)Cc4ccccc4)cc3)o2)cn1 (optimized conformer: 92.1917155383398 kcal/mol)

>  <smiles>  (57) 
CCCc1ccc(-c2nnc(Sc3ccc(C(=O)CSC(=S)N(C)Cc4ccccc4)cc3)o2)cn1

>  <score_type>  (57) 
oracle

>  <origin>  (57) 
adg

>  <m_score__min__energy>  (57) 
-8.7599999999999998

>  <m_primary>  (57) 
energy

$$$$
58:0
     RDKit          3D

 53 55  0  0  0  0  0  0  0  0999 V2000
   55.8940   28.2220   45.2270 N   0  0  0  0  0  0  0  0  0  0  0  0
   56.3660   29.4540   44.1090 S   0  0  0  0  0  0  0  0  0  0  0  0
   55.2700   29.6510   43.1010 O   0  0  0  0  0  0  0  0  0  0  0  0
   56.5900   30.7420   44.8490 O   0  0  0  0  0  0  0  0  0  0  0  0
   57.8210   28.9780   43.2880 N   0  0  0  0  0  0  0  0  0  0  0  0
   58.3240   27.7300   43.8610 C   0  0  0  0  0  0  0  0  0  0  0  0
   58.8060   27.9740   45.2650 C   0  0  0  0  0  0  0  0  0  0  0  0
   58.9630   26.9020   46.1590 C   0  0  0  0  0  0  0  0  0  0  0  0
   59.4300   27.1320   47.4570 C   0  0  0  0  0  0  0  0  0  0  0  0
   59.7600   28.4300   47.8700 C   0  0  0  0  0  0  0  0  0  0  0  0
   60.2900   28.7020   49.5280 S   0  0  0  0  0  0  0  0  0  0  0  0
   61.5000   29.5950   49.5690 O   0  0  0  0  0  0  0  0  0  0  0  0
   60.6470   27.3800   50.1510 O   0  0  0  0  0  0  0  0  0  0  0  0
   58.9980   29.4300   50.4280 N   0  0  0  0  0  0  0  0  0  0  0  0
   58.5950   30.7980   50.2990 C   0  0  0  0  0  0  0  0  0  0  0  0
   57.5640   31.1860   50.9100 O   0  0  0  0  0  0  0  0  0  0  0  0
   59.3470   31.7290   49.5010 N   0  0  0  0  0  0  0  0  0  0  0  0
   58.9070   33.1070   49.2890 C   0  0  0  0  0  0  0  0  0  0  0  0
   58.7930   33.4230   47.8140 C   0  0  0  0  0  0  0  0  0  0  0  0
   57.6380   33.0420   47.1100 C   0  0  0  0  0  0  0  0  0  0  0  0
   57.5050   33.3420   45.7520 C   0  0  0  0  0  0  0  0  0  0  0  0
   58.5160   34.0330   45.0850 C   0  0  0  0  0  0  0  0  0  0  0  0
   59.6540   34.4460   45.7790 C   0  0  0  0  0  0  0  0  0  0  0  0
   59.7910   34.1700   47.1520 C   0  0  0  0  0  0  0  0  0  0  0  0
   60.9250   34.5980   47.8560 O   0  0  0  0  0  0  0  0  0  0  0  0
   62.0130   33.7870   48.2190 C   0  0  0  0  0  0  0  0  0  0  0  0
   62.7090   33.9670   49.4320 C   0  0  0  0  0  0  0  0  0  0  0  0
   63.7810   33.1290   49.7590 C   0  0  0  0  0  0  0  0  0  0  0  0
   64.1500   32.0930   48.8950 C   0  0  0  0  0  0  0  0  0  0  0  0
   63.4520   31.8970   47.6990 C   0  0  0  0  0  0  0  0  0  0  0  0
   62.3860   32.7390   47.3640 C   0  0  0  0  0  0  0  0  0  0  0  0
   59.6350   29.4980   46.9690 C   0  0  0  0  0  0  0  0  0  0  0  0
   59.1610   29.2710   45.6730 C   0  0  0  0  0  0  0  0  0  0  0  0
   55.1570   28.6360   45.8420 H   0  0  0  0  0  0  0  0  0  0  0  0
   58.5250   29.7280   43.4700 H   0  0  0  0  0  0  0  0  0  0  0  0
   57.5165   26.9832   43.8763 H   0  0  0  0  0  0  0  0  0  0  0  0
   59.1591   27.3589   43.2488 H   0  0  0  0  0  0  0  0  0  0  0  0
   58.7180   25.8790   45.8373 H   0  0  0  0  0  0  0  0  0  0  0  0
   59.5388   26.2904   48.1569 H   0  0  0  0  0  0  0  0  0  0  0  0
   60.2460   31.4330   49.0580 H   0  0  0  0  0  0  0  0  0  0  0  0
   57.9244   33.2471   49.7631 H   0  0  0  0  0  0  0  0  0  0  0  0
   59.6517   33.7833   49.7340 H   0  0  0  0  0  0  0  0  0  0  0  0
   56.8330   32.5038   47.6318 H   0  0  0  0  0  0  0  0  0  0  0  0
   56.6007   33.0324   45.2077 H   0  0  0  0  0  0  0  0  0  0  0  0
   58.4164   34.2525   44.0117 H   0  0  0  0  0  0  0  0  0  0  0  0
   60.4492   34.9909   45.2492 H   0  0  0  0  0  0  0  0  0  0  0  0
   62.4085   34.7683   50.1231 H   0  0  0  0  0  0  0  0  0  0  0  0
   64.3342   33.2854   50.6969 H   0  0  0  0  0  0  0  0  0  0  0  0
   64.9896   31.4320   49.1562 H   0  0  0  0  0  0  0  0  0  0  0  0
   63.7413   31.0803   47.0213 H   0  0  0  0  0  0  0  0  0  0  0  0
   61.8370   32.5783   46.4245 H   0  0  0  0  0  0  0  0  0  0  0  0
   59.9103   30.5158   47.2825 H   0  0  0  0  0  0  0  0  0  0  0  0
   59.0656   30.1115   44.9698 H   0  0  0  0  0  0  0  0  0  0  0  0
  1  2  1  0
  2  3  2  0
  2  4  2  0
  2  5  1  0
  5  6  1  0
  6  7  1  0
  7  8  2  0
  8  9  1  0
  9 10  2  0
 10 11  1  0
 11 12  2  0
 11 13  2  0
 11 14  1  0
 14 15  1  0
 15 16  2  0
 15 17  1  0
 17 18  1  0
 18 19  1  0
 19 20  2  0
 20 21  1  0
 21 22  2  0
 22 23  1  0
 23 24  2  0
 24 25  1  0
 25 26  1  0
 26 27  2  0
 27 28  1  0
 28 29  2  0
 29 30  1  0
 30 31  2  0
 10 32  1  0
 32 33  2  0
 33  7  1  0
 24 19  1  0
 31 26  1  0
  1 34  1  0
  5 35  1  0
  6 36  1  0
  6 37  1  0
  8 38  1  0
  9 39  1  0
 17 40  1  0
 18 41  1  0
 18 42  1  0
 20 43  1  0
 21 44  1  0
 22 45  1  0
 23 46  1  0
 27 47  1  0
 28 48  1  0
 29 49  1  0
 30 50  1  0
 31 51  1  0
 32 52  1  0
 33 53  1  0
M  CHG  2   1  -1  14  -1
M  END
>  <UniqueID>  (58) 
55

>  <SMILES>  (58) 
[NH-]S(=O)(=O)NCc1ccc(S(=O)(=O)[N-]C(=O)NCc2ccccc2Oc2ccccc2)cc1

>  <Energy>  (58) 
57.76500230424844

>  <Genealogy>  (58) 
[NH-]S(=O)(=O)NCc1ccc(S(=O)(=O)[N-]C(=O)NCc2ccccc2Oc2ccccc2)cc1 (protonated)
[NH-]S(=O)(=O)NCc1ccc(S(=O)(=O)[N-]C(=O)NCc2ccccc2Oc2ccccc2)cc1 (3D coordinates assigned)
[NH-]S(=O)(=O)NCc1ccc(S(=O)(=O)[N-]C(=O)NCc2ccccc2Oc2ccccc2)cc1 (optimized conformer: 57.76500230424844 kcal/mol)

>  <smiles>  (58) 
NS(=O)(=O)NCc1ccc(S(=O)(=O)NC(=O)NCc2ccccc2Oc2ccccc2)cc1

>  <score_type>  (58) 
oracle

>  <origin>  (58) 
adg

>  <m_score__min__energy>  (58) 
-13.449999999999999

>  <m_primary>  (58) 
energy

$$$$
59:0
     RDKit          3D

 45 47  0  0  0  0  0  0  0  0999 V2000
   58.6310   34.6220   44.9010 C   0  0  0  0  0  0  0  0  0  0  0  0
   58.7220   33.6940   46.0840 C   0  0  0  0  0  0  0  0  0  0  0  0
   59.1070   34.2200   47.3310 C   0  0  0  0  0  0  0  0  0  0  0  0
   59.1880   33.3920   48.4550 C   0  0  0  0  0  0  0  0  0  0  0  0
   58.9010   32.0330   48.3470 C   0  0  0  0  0  0  0  0  0  0  0  0
   58.5410   31.4890   47.1090 C   0  0  0  0  0  0  0  0  0  0  0  0
   58.4500   32.3060   45.9680 C   0  0  0  0  0  0  0  0  0  0  0  0
   57.9700   31.6910   44.6720 C   0  0  0  0  0  0  0  0  0  0  0  0
   56.6360   31.1290   44.8610 N   0  0  0  0  0  0  0  0  0  0  0  0
   56.3340   29.7280   44.7740 C   0  0  0  0  0  0  0  0  0  0  0  0
   55.1370   29.3500   44.8640 O   0  0  0  0  0  0  0  0  0  0  0  0
   57.3670   28.7490   44.6110 N   0  0  0  0  0  0  0  0  0  0  0  0
   57.4250   27.5150   45.3390 C   0  0  0  0  0  0  0  0  0  0  0  0
   56.2600   26.9100   45.8460 C   0  0  0  0  0  0  0  0  0  0  0  0
   56.3390   25.7040   46.5470 C   0  0  0  0  0  0  0  0  0  0  0  0
   57.5850   25.0900   46.7630 C   0  0  0  0  0  0  0  0  0  0  0  0
   57.6910   23.8420   47.4630 N   0  0  0  0  0  0  0  0  0  0  0  0
   57.3180   22.5580   46.9420 C   0  0  0  0  0  0  0  0  0  0  0  0
   57.0520   21.6320   47.7500 O   0  0  0  0  0  0  0  0  0  0  0  0
   57.1580   22.3280   45.4800 C   0  0  0  0  0  0  0  0  0  0  0  0
   58.1500   21.6340   44.7600 C   0  0  0  0  0  0  0  0  0  0  0  0
   58.0150   21.4280   43.3830 C   0  0  0  0  0  0  0  0  0  0  0  0
   56.8970   21.9210   42.7080 C   0  0  0  0  0  0  0  0  0  0  0  0
   55.9120   22.6220   43.4070 C   0  0  0  0  0  0  0  0  0  0  0  0
   56.0380   22.8270   44.7870 C   0  0  0  0  0  0  0  0  0  0  0  0
   55.0590   23.5010   45.4370 F   0  0  0  0  0  0  0  0  0  0  0  0
   58.7440   25.6970   46.2620 C   0  0  0  0  0  0  0  0  0  0  0  0
   58.6670   26.9110   45.5720 C   0  0  0  0  0  0  0  0  0  0  0  0
   58.5294   35.6585   45.2550 H   0  0  0  0  0  0  0  0  0  0  0  0
   59.5425   34.5302   44.2920 H   0  0  0  0  0  0  0  0  0  0  0  0
   57.7547   34.3549   44.2920 H   0  0  0  0  0  0  0  0  0  0  0  0
   59.3459   35.2899   47.4223 H   0  0  0  0  0  0  0  0  0  0  0  0
   59.4793   33.8151   49.4277 H   0  0  0  0  0  0  0  0  0  0  0  0
   58.9574   31.3871   49.2356 H   0  0  0  0  0  0  0  0  0  0  0  0
   58.3273   30.4130   47.0276 H   0  0  0  0  0  0  0  0  0  0  0  0
   57.9340   32.4647   43.8909 H   0  0  0  0  0  0  0  0  0  0  0  0
   58.6629   30.8927   44.3679 H   0  0  0  0  0  0  0  0  0  0  0  0
   55.2822   27.3890   45.6896 H   0  0  0  0  0  0  0  0  0  0  0  0
   55.4223   25.2330   46.9315 H   0  0  0  0  0  0  0  0  0  0  0  0
   59.0378   21.2510   45.2846 H   0  0  0  0  0  0  0  0  0  0  0  0
   58.7908   20.8768   42.8314 H   0  0  0  0  0  0  0  0  0  0  0  0
   56.7919   21.7573   41.6253 H   0  0  0  0  0  0  0  0  0  0  0  0
   55.0345   23.0144   42.8723 H   0  0  0  0  0  0  0  0  0  0  0  0
   59.7214   25.2153   46.4124 H   0  0  0  0  0  0  0  0  0  0  0  0
   59.5867   27.3940   45.2104 H   0  0  0  0  0  0  0  0  0  0  0  0
  1  2  1  0
  2  3  2  0
  3  4  1  0
  4  5  2  0
  5  6  1  0
  6  7  2  0
  7  8  1  0
  8  9  1  0
  9 10  1  0
 10 11  2  0
 10 12  1  0
 12 13  1  0
 13 14  2  0
 14 15  1  0
 15 16  2  0
 16 17  1  0
 17 18  1  0
 18 19  2  0
 18 20  1  0
 20 21  2  0
 21 22  1  0
 22 23  2  0
 23 24  1  0
 24 25  2  0
 25 26  1  0
 16 27  1  0
 27 28  2  0
  7  2  1  0
 28 13  1  0
 25 20  1  0
  1 29  1  0
  1 30  1  0
  1 31  1  0
  3 32  1  0
  4 33  1  0
  5 34  1  0
  6 35  1  0
  8 36  1  0
  8 37  1  0
 14 38  1  0
 15 39  1  0
 21 40  1  0
 22 41  1  0
 23 42  1  0
 24 43  1  0
 27 44  1  0
 28 45  1  0
M  CHG  3   9  -1  12  -1  17  -1
M  END
>  <UniqueID>  (59) 
56

>  <SMILES>  (59) 
Cc1ccccc1C[N-]C(=O)[N-]c1ccc([N-]C(=O)c2ccccc2F)cc1

>  <Energy>  (59) 
61.75191481765142

>  <Genealogy>  (59) 
Cc1ccccc1C[N-]C(=O)[N-]c1ccc([N-]C(=O)c2ccccc2F)cc1 (protonated)
Cc1ccccc1C[N-]C(=O)[N-]c1ccc([N-]C(=O)c2ccccc2F)cc1 (3D coordinates assigned)
Cc1ccccc1C[N-]C(=O)[N-]c1ccc([N-]C(=O)c2ccccc2F)cc1 (optimized conformer: 61.75191481765142 kcal/mol)

>  <smiles>  (59) 
Cc1ccccc1CNC(=O)Nc1ccc(NC(=O)c2ccccc2F)cc1

>  <score_type>  (59) 
oracle

>  <origin>  (59) 
adg

>  <m_score__min__energy>  (59) 
-12.779999999999999

>  <m_primary>  (59) 
energy

$$$$
60:0
     RDKit          3D

 26 26  0  0  0  0  0  0  0  0999 V2000
   55.4990   29.2350   45.2100 N   0  0  0  0  0  0  0  0  0  0  0  0
   56.6070   30.2800   44.3930 S   0  0  0  0  0  0  0  0  0  0  0  0
   56.3920   31.6930   44.8580 O   0  0  0  0  0  0  0  0  0  0  0  0
   56.3640   30.2050   42.9120 O   0  0  0  0  0  0  0  0  0  0  0  0
   58.2860   29.7900   44.7540 C   0  0  0  0  0  0  0  0  0  0  0  0
   58.3100   28.5710   45.6720 C   0  0  0  0  0  0  0  0  0  0  0  0
   57.6940   27.4400   44.9940 N   0  0  0  0  0  0  0  0  0  0  0  0
   57.9300   26.0800   45.3770 C   0  0  0  0  0  0  0  0  0  0  0  0
   59.0720   25.7480   45.7980 O   0  0  0  0  0  0  0  0  0  0  0  0
   56.8490   25.0600   45.2820 C   0  0  0  0  0  0  0  0  0  0  0  0
   57.1680   23.7580   44.8440 C   0  0  0  0  0  0  0  0  0  0  0  0
   56.1810   22.7740   44.7430 C   0  0  0  0  0  0  0  0  0  0  0  0
   56.6390   21.0170   44.1480 Br  0  0  0  0  0  0  0  0  0  0  0  0
   54.8600   23.0720   45.0760 C   0  0  0  0  0  0  0  0  0  0  0  0
   54.5240   24.3550   45.5110 C   0  0  0  0  0  0  0  0  0  0  0  0
   55.5040   25.3520   45.6180 C   0  0  0  0  0  0  0  0  0  0  0  0
   55.1330   26.6230   46.0570 O   0  0  0  0  0  0  0  0  0  0  0  0
   55.6840   28.2670   44.8670 H   0  0  0  0  0  0  0  0  0  0  0  0
   58.7997   29.5430   43.8132 H   0  0  0  0  0  0  0  0  0  0  0  0
   58.7948   30.6230   45.2611 H   0  0  0  0  0  0  0  0  0  0  0  0
   59.3514   28.3235   45.9255 H   0  0  0  0  0  0  0  0  0  0  0  0
   57.7513   28.7947   46.5928 H   0  0  0  0  0  0  0  0  0  0  0  0
   58.2072   23.5139   44.5784 H   0  0  0  0  0  0  0  0  0  0  0  0
   54.0837   22.2968   44.9959 H   0  0  0  0  0  0  0  0  0  0  0  0
   53.4808   24.5861   45.7723 H   0  0  0  0  0  0  0  0  0  0  0  0
   55.7930   27.3900   46.0900 H   0  0  0  0  0  0  0  0  0  0  0  0
  1  2  1  0
  2  3  2  0
  2  4  2  0
  2  5  1  0
  5  6  1  0
  6  7  1  0
  7  8  1  0
  8  9  2  0
  8 10  1  0
 10 11  2  0
 11 12  1  0
 12 13  1  0
 12 14  2  0
 14 15  1  0
 15 16  2  0
 16 17  1  0
 16 10  1  0
  1 18  1  0
  5 19  1  0
  5 20  1  0
  6 21  1  0
  6 22  1  0
 11 23  1  0
 14 24  1  0
 15 25  1  0
 17 26  1  0
M  CHG  2   1  -1   7  -1
M  END
>  <UniqueID>  (60) 
57

>  <SMILES>  (60) 
[NH-]S(=O)(=O)CC[N-]C(=O)c1cc(Br)ccc1O

>  <Energy>  (60) 
16.79046936597617

>  <Genealogy>  (60) 
[NH-]S(=O)(=O)CC[N-]C(=O)c1cc(Br)ccc1O (protonated)
[NH-]S(=O)(=O)CC[N-]C(=O)c1cc(Br)ccc1O (3D coordinates assigned)
[NH-]S(=O)(=O)CC[N-]C(=O)c1cc(Br)ccc1O (optimized conformer: 16.79046936597617 kcal/mol)

>  <smiles>  (60) 
NS(=O)(=O)CCNC(=O)c1cc(Br)ccc1O

>  <score_type>  (60) 
oracle

>  <origin>  (60) 
adg

>  <m_score__min__energy>  (60) 
-11.92

>  <m_primary>  (60) 
energy

$$$$
61:0
     RDKit          3D

 51 54  0  0  0  0  0  0  0  0999 V2000
   58.2040   32.1110   42.6850 C   0  0  0  0  0  0  0  0  0  0  0  0
   57.5990   32.9280   43.6820 O   0  0  0  0  0  0  0  0  0  0  0  0
   57.8800   32.8460   45.0550 C   0  0  0  0  0  0  0  0  0  0  0  0
   57.8540   33.9730   45.8950 C   0  0  0  0  0  0  0  0  0  0  0  0
   58.1560   33.8500   47.2530 C   0  0  0  0  0  0  0  0  0  0  0  0
   58.5270   32.6070   47.8010 C   0  0  0  0  0  0  0  0  0  0  0  0
   58.8260   32.4620   49.2940 C   0  0  1  0  0  0  0  0  0  0  0  0
   58.6580   31.0540   49.8050 C   0  0  0  0  0  0  0  0  0  0  0  0
   58.1750   30.1760   49.0380 O   0  0  0  0  0  0  0  0  0  0  0  0
   59.0430   30.6770   51.1780 C   0  0  0  0  0  0  0  0  0  0  0  0
   59.3730   29.4810   51.4080 O   0  0  0  0  0  0  0  0  0  0  0  0
   59.1020   31.6660   52.2800 C   0  0  0  0  0  0  0  0  0  0  0  0
   58.4190   31.3670   53.4740 C   0  0  0  0  0  0  0  0  0  0  0  0
   58.4180   32.2650   54.5400 C   0  0  0  0  0  0  0  0  0  0  0  0
   59.0830   33.4830   54.4270 C   0  0  0  0  0  0  0  0  0  0  0  0
   59.7540   33.8060   53.2480 C   0  0  0  0  0  0  0  0  0  0  0  0
   59.7890   32.9050   52.1690 C   0  0  0  0  0  0  0  0  0  0  0  0
   60.4980   33.3480   50.9430 C   0  0  0  0  0  0  0  0  0  0  0  0
   60.2150   32.9300   49.6910 C   0  0  0  0  0  0  0  0  0  0  0  0
   61.2960   32.9280   48.6700 C   0  0  0  0  0  0  0  0  0  0  0  0
   61.3460   33.9260   47.6790 C   0  0  0  0  0  0  0  0  0  0  0  0
   62.3600   33.9170   46.7170 C   0  0  0  0  0  0  0  0  0  0  0  0
   63.3350   32.9170   46.7350 C   0  0  0  0  0  0  0  0  0  0  0  0
   63.2960   31.9210   47.7160 C   0  0  0  0  0  0  0  0  0  0  0  0
   62.2830   31.9240   48.6780 C   0  0  0  0  0  0  0  0  0  0  0  0
   58.5070   31.4760   46.9600 C   0  0  0  0  0  0  0  0  0  0  0  0
   58.1950   31.5950   45.6020 C   0  0  0  0  0  0  0  0  0  0  0  0
   58.2040   30.4590   44.7980 O   0  0  0  0  0  0  0  0  0  0  0  0
   56.7590   29.6200   44.4570 S   0  0  0  0  0  0  0  0  0  0  0  0
   56.8460   28.9310   42.8740 N   0  0  0  0  0  0  0  0  0  0  0  0
   55.6020   30.5760   44.5190 O   0  0  0  0  0  0  0  0  0  0  0  0
   56.5530   28.5270   45.4680 O   0  0  0  0  0  0  0  0  0  0  0  0
   58.7919   31.3170   43.1687 H   0  0  0  0  0  0  0  0  0  0  0  0
   57.4219   31.6579   42.0580 H   0  0  0  0  0  0  0  0  0  0  0  0
   58.8655   32.7269   42.0580 H   0  0  0  0  0  0  0  0  0  0  0  0
   57.5941   34.9580   45.4800 H   0  0  0  0  0  0  0  0  0  0  0  0
   58.1034   34.7358   47.9031 H   0  0  0  0  0  0  0  0  0  0  0  0
   58.0751   33.1183   49.7581 H   0  0  0  0  0  0  0  0  0  0  0  0
   57.8794   30.4129   53.5669 H   0  0  0  0  0  0  0  0  0  0  0  0
   57.8912   32.0111   55.4717 H   0  0  0  0  0  0  0  0  0  0  0  0
   59.0791   34.1913   55.2686 H   0  0  0  0  0  0  0  0  0  0  0  0
   60.2622   34.7777   53.1610 H   0  0  0  0  0  0  0  0  0  0  0  0
   61.3169   34.0725   51.0636 H   0  0  0  0  0  0  0  0  0  0  0  0
   60.5826   34.7178   47.6614 H   0  0  0  0  0  0  0  0  0  0  0  0
   62.3902   34.6991   45.9441 H   0  0  0  0  0  0  0  0  0  0  0  0
   64.1331   32.9129   45.9780 H   0  0  0  0  0  0  0  0  0  0  0  0
   64.0643   31.1339   47.7301 H   0  0  0  0  0  0  0  0  0  0  0  0
   62.2563   31.1372   49.4463 H   0  0  0  0  0  0  0  0  0  0  0  0
   58.7402   30.4855   47.3779 H   0  0  0  0  0  0  0  0  0  0  0  0
   57.0240   27.9080   42.9950 H   0  0  0  0  0  0  0  0  0  0  0  0
   57.6950   29.3310   42.4160 H   0  0  0  0  0  0  0  0  0  0  0  0
  1  2  1  0
  2  3  1  0
  3  4  2  0
  4  5  1  0
  5  6  2  0
  6  7  1  0
  7  8  1  0
  8  9  2  0
  8 10  1  0
 10 11  2  0
 10 12  1  0
 12 13  2  0
 13 14  1  0
 14 15  2  0
 15 16  1  0
 16 17  2  0
 17 18  1  0
 18 19  2  0
 19 20  1  0
 20 21  2  0
 21 22  1  0
 22 23  2  0
 23 24  1  0
 24 25  2  0
  6 26  1  0
 26 27  2  0
 27 28  1  0
 28 29  1  0
 29 30  1  0
 29 31  2  0
 29 32  2  0
 27  3  1  0
 19  7  1  0
 25 20  1  0
 17 12  1  0
  1 33  1  0
  1 34  1  0
  1 35  1  0
  4 36  1  0
  5 37  1  0
  7 38  1  1
 13 39  1  0
 14 40  1  0
 15 41  1  0
 16 42  1  0
 18 43  1  0
 21 44  1  0
 22 45  1  0
 23 46  1  0
 24 47  1  0
 25 48  1  0
 26 49  1  0
 30 50  1  0
 30 51  1  0
M  END
>  <UniqueID>  (61) 
58

>  <SMILES>  (61) 
COc1ccc([C@H]2C(=O)C(=O)c3ccccc3C=C2c2ccccc2)cc1OS(N)(=O)=O

>  <Energy>  (61) 
76.68342063141841

>  <Genealogy>  (61) 
COc1ccc([C@H]2C(=O)C(=O)c3ccccc3C=C2c2ccccc2)cc1OS(N)(=O)=O (chirality)
COc1ccc([C@H]2C(=O)C(=O)c3ccccc3C=C2c2ccccc2)cc1OS(N)(=O)=O (3D coordinates assigned)
COc1ccc([C@H]2C(=O)C(=O)c3ccccc3C=C2c2ccccc2)cc1OS(N)(=O)=O (nonaromatic ring conformer: 76.68342063141841 kcal/mol)

>  <smiles>  (61) 
COc1ccc(C2C(=O)C(=O)c3ccccc3C=C2c2ccccc2)cc1OS(N)(=O)=O

>  <score_type>  (61) 
oracle

>  <origin>  (61) 
adg

>  <m_score__min__energy>  (61) 
-8.1899999999999995

>  <m_primary>  (61) 
energy

$$$$
62:0
     RDKit          3D

 36 38  0  0  0  0  0  0  0  0999 V2000
   55.1320   26.7100   46.0170 O   0  0  0  0  0  0  0  0  0  0  0  0
   56.2830   26.2880   46.3050 C   0  0  0  0  0  0  0  0  0  0  0  0
   56.5330   24.9510   46.6740 N   0  0  0  0  0  0  0  0  0  0  0  0
   57.9730   24.8230   46.8650 C   0  0  0  0  0  0  0  0  0  0  0  0
   58.5880   26.1930   46.4960 C   0  0  0  0  0  0  0  0  0  0  0  0
   57.4570   27.0740   46.2230 N   0  0  0  0  0  0  0  0  0  0  0  0
   57.5460   28.4910   45.9700 C   0  0  0  0  0  0  0  0  0  0  0  0
   56.8200   29.0680   44.9130 C   0  0  0  0  0  0  0  0  0  0  0  0
   56.9110   30.4380   44.6540 C   0  0  0  0  0  0  0  0  0  0  0  0
   57.7380   31.2500   45.4380 C   0  0  0  0  0  0  0  0  0  0  0  0
   57.8730   32.9740   45.1040 S   0  0  0  0  0  0  0  0  0  0  0  0
   57.3930   33.2880   43.7140 O   0  0  0  0  0  0  0  0  0  0  0  0
   57.0300   33.7250   46.0950 O   0  0  0  0  0  0  0  0  0  0  0  0
   59.5270   33.4810   45.2600 N   0  0  0  0  0  0  0  0  0  0  0  0
   60.2240   33.5690   46.5140 C   0  0  0  0  0  0  0  0  0  0  0  0
   59.4910   33.7990   47.6900 C   0  0  0  0  0  0  0  0  0  0  0  0
   60.1370   33.8830   48.9260 C   0  0  0  0  0  0  0  0  0  0  0  0
   61.5250   33.7410   49.0030 C   0  0  0  0  0  0  0  0  0  0  0  0
   62.4080   33.8540   50.6930 Br  0  0  0  0  0  0  0  0  0  0  0  0
   62.2670   33.5200   47.8400 C   0  0  0  0  0  0  0  0  0  0  0  0
   61.6240   33.4360   46.6010 C   0  0  0  0  0  0  0  0  0  0  0  0
   58.4700   30.6830   46.4870 C   0  0  0  0  0  0  0  0  0  0  0  0
   58.3810   29.3130   46.7480 C   0  0  0  0  0  0  0  0  0  0  0  0
   58.1969   24.5758   47.9132 H   0  0  0  0  0  0  0  0  0  0  0  0
   58.3875   24.0191   46.2390 H   0  0  0  0  0  0  0  0  0  0  0  0
   59.1847   26.5835   47.3336 H   0  0  0  0  0  0  0  0  0  0  0  0
   59.2603   26.1155   45.6288 H   0  0  0  0  0  0  0  0  0  0  0  0
   56.1752   28.4357   44.2850 H   0  0  0  0  0  0  0  0  0  0  0  0
   56.3304   30.8798   43.8308 H   0  0  0  0  0  0  0  0  0  0  0  0
   60.0030   33.8100   44.3890 H   0  0  0  0  0  0  0  0  0  0  0  0
   58.3983   33.9140   47.6373 H   0  0  0  0  0  0  0  0  0  0  0  0
   59.5519   34.0613   49.8402 H   0  0  0  0  0  0  0  0  0  0  0  0
   63.3601   33.4118   47.8991 H   0  0  0  0  0  0  0  0  0  0  0  0
   62.2147   33.2651   45.6889 H   0  0  0  0  0  0  0  0  0  0  0  0
   59.1181   31.3181   47.1087 H   0  0  0  0  0  0  0  0  0  0  0  0
   58.9684   28.8742   47.5680 H   0  0  0  0  0  0  0  0  0  0  0  0
  1  2  2  0
  2  3  1  0
  3  4  1  0
  4  5  1  0
  5  6  1  0
  6  7  1  0
  7  8  2  0
  8  9  1  0
  9 10  2  0
 10 11  1  0
 11 12  2  0
 11 13  2  0
 11 14  1  0
 14 15  1  0
 15 16  2  0
 16 17  1  0
 17 18  2  0
 18 19  1  0
 18 20  1  0
 20 21  2  0
 10 22  1  0
 22 23  2  0
  6  2  1  0
 23  7  1  0
 21 15  1  0
  4 24  1  0
  4 25  1  0
  5 26  1  0
  5 27  1  0
  8 28  1  0
  9 29  1  0
 14 30  1  0
 16 31  1  0
 17 32  1  0
 20 33  1  0
 21 34  1  0
 22 35  1  0
 23 36  1  0
M  CHG  1   3  -1
M  END
>  <UniqueID>  (62) 
59

>  <SMILES>  (62) 
O=C1[N-]CCN1c1ccc(S(=O)(=O)Nc2ccc(Br)cc2)cc1

>  <Energy>  (62) 
57.67842176992338

>  <Genealogy>  (62) 
O=C1[N-]CCN1c1ccc(S(=O)(=O)Nc2ccc(Br)cc2)cc1 (protonated)
O=C1[N-]CCN1c1ccc(S(=O)(=O)Nc2ccc(Br)cc2)cc1 (3D coordinates assigned)
O=C1[N-]CCN1c1ccc(S(=O)(=O)Nc2ccc(Br)cc2)cc1 (nonaromatic ring conformer: 57.67842176992338 kcal/mol)

>  <smiles>  (62) 
O=C1NCCN1c1ccc(S(=O)(=O)Nc2ccc(Br)cc2)cc1

>  <score_type>  (62) 
oracle

>  <origin>  (62) 
adg

>  <m_score__min__energy>  (62) 
-9.8800000000000008

>  <m_primary>  (62) 
energy

$$$$
63:0
     RDKit          3D

 50 53  0  0  0  0  0  0  0  0999 V2000
   50.3070   33.0330   52.2650 O   0  0  0  0  0  0  0  0  0  0  0  0
   51.1310   32.3500   51.6000 C   0  0  0  0  0  0  0  0  0  0  0  0
   51.4120   32.7210   50.2900 O   0  0  0  0  0  0  0  0  0  0  0  0
   51.7900   31.1710   52.2050 C   0  0  0  0  0  0  0  0  0  0  0  0
   51.0270   30.1130   52.7280 C   0  0  0  0  0  0  0  0  0  0  0  0
   51.6550   29.0010   53.2940 C   0  0  0  0  0  0  0  0  0  0  0  0
   53.0480   28.9320   53.3470 C   0  0  0  0  0  0  0  0  0  0  0  0
   53.8290   29.9810   52.8360 C   0  0  0  0  0  0  0  0  0  0  0  0
   55.2680   29.9060   52.8850 N   0  0  0  0  0  0  0  0  0  0  0  0
   55.8450   28.7750   53.3890 C   0  0  0  0  0  0  0  0  0  0  0  0
   57.2290   28.6480   53.4440 C   0  0  0  0  0  0  0  0  0  0  0  0
   58.0320   29.6840   52.9800 C   0  0  0  0  0  0  0  0  0  0  0  0
   57.4560   30.8550   52.4640 C   0  0  0  0  0  0  0  0  0  0  0  0
   58.3350   31.9550   51.9790 C   0  0  0  0  0  0  0  0  0  0  0  0
   58.2700   33.1010   52.5000 O   0  0  0  0  0  0  0  0  0  0  0  0
   59.2260   31.7250   50.8770 N   0  0  0  0  0  0  0  0  0  0  0  0
   58.8560   31.5560   49.5010 C   0  0  0  0  0  0  0  0  0  0  0  0
   58.4980   32.6460   48.6850 C   0  0  0  0  0  0  0  0  0  0  0  0
   58.1630   32.4400   47.3440 C   0  0  0  0  0  0  0  0  0  0  0  0
   58.1940   31.1500   46.7980 C   0  0  0  0  0  0  0  0  0  0  0  0
   57.7540   30.8730   45.1160 S   0  0  0  0  0  0  0  0  0  0  0  0
   57.1560   32.1110   44.5080 O   0  0  0  0  0  0  0  0  0  0  0  0
   58.9880   30.4990   44.3440 O   0  0  0  0  0  0  0  0  0  0  0  0
   56.6030   29.5780   45.0180 N   0  0  0  0  0  0  0  0  0  0  0  0
   56.8910   28.3370   45.2700 C   0  0  0  0  0  0  0  0  0  0  0  0
   58.2200   27.9060   45.1780 C   0  0  0  0  0  0  0  0  0  0  0  0
   58.5270   26.5710   45.4560 C   0  0  0  0  0  0  0  0  0  0  0  0
   57.5120   25.6850   45.8180 C   0  0  0  0  0  0  0  0  0  0  0  0
   56.1970   26.1480   45.8980 C   0  0  0  0  0  0  0  0  0  0  0  0
   55.9170   27.4510   45.6250 N   0  0  0  0  0  0  0  0  0  0  0  0
   58.5770   30.0690   47.6020 C   0  0  0  0  0  0  0  0  0  0  0  0
   58.9130   30.2740   48.9430 C   0  0  0  0  0  0  0  0  0  0  0  0
   56.0420   30.9470   52.4320 C   0  0  0  0  0  0  0  0  0  0  0  0
   55.4890   31.9960   51.9990 O   0  0  0  0  0  0  0  0  0  0  0  0
   53.1940   31.0950   52.2620 C   0  0  0  0  0  0  0  0  0  0  0  0
   49.9286   30.1608   52.6914 H   0  0  0  0  0  0  0  0  0  0  0  0
   51.0496   28.1769   53.6993 H   0  0  0  0  0  0  0  0  0  0  0  0
   53.5362   28.0519   53.7911 H   0  0  0  0  0  0  0  0  0  0  0  0
   55.2084   27.9561   53.7552 H   0  0  0  0  0  0  0  0  0  0  0  0
   57.6853   27.7340   53.8519 H   0  0  0  0  0  0  0  0  0  0  0  0
   59.1269   29.5849   53.0177 H   0  0  0  0  0  0  0  0  0  0  0  0
   58.4819   33.6628   49.1043 H   0  0  0  0  0  0  0  0  0  0  0  0
   57.8737   33.2943   46.7144 H   0  0  0  0  0  0  0  0  0  0  0  0
   59.0141   28.6106   44.8900 H   0  0  0  0  0  0  0  0  0  0  0  0
   59.5672   26.2196   45.3895 H   0  0  0  0  0  0  0  0  0  0  0  0
   57.7451   24.6328   46.0381 H   0  0  0  0  0  0  0  0  0  0  0  0
   55.3876   25.4592   46.1817 H   0  0  0  0  0  0  0  0  0  0  0  0
   58.6135   29.0553   47.1766 H   0  0  0  0  0  0  0  0  0  0  0  0
   59.2245   29.4214   49.5643 H   0  0  0  0  0  0  0  0  0  0  0  0
   53.8006   31.9164   51.8529 H   0  0  0  0  0  0  0  0  0  0  0  0
  1  2  2  0
  2  3  1  0
  2  4  1  0
  4  5  2  0
  5  6  1  0
  6  7  2  0
  7  8  1  0
  8  9  1  0
  9 10  1  0
 10 11  2  0
 11 12  1  0
 12 13  2  0
 13 14  1  0
 14 15  2  0
 14 16  1  0
 16 17  1  0
 17 18  2  0
 18 19  1  0
 19 20  2  0
 20 21  1  0
 21 22  2  0
 21 23  2  0
 21 24  1  0
 24 25  2  3
 25 26  1  0
 26 27  2  0
 27 28  1  0
 28 29  2  0
 29 30  1  0
 20 31  1  0
 31 32  2  0
 13 33  1  0
 33 34  2  0
  8 35  2  0
 35  4  1  0
 33  9  1  0
 32 17  1  0
 30 25  1  0
  5 36  1  0
  6 37  1  0
  7 38  1  0
 10 39  1  0
 11 40  1  0
 12 41  1  0
 18 42  1  0
 19 43  1  0
 26 44  1  0
 27 45  1  0
 28 46  1  0
 29 47  1  0
 31 48  1  0
 32 49  1  0
 35 50  1  0
M  CHG  3   3  -1  16  -1  30  -1
M  END
>  <UniqueID>  (63) 
60

>  <SMILES>  (63) 
O=C([O-])c1cccc(-n2cccc(C(=O)[N-]c3ccc(S(=O)(=O)N=c4cccc[n-]4)cc3)c2=O)c1

>  <Energy>  (63) 
74.85965628512373

>  <Genealogy>  (63) 
O=C([O-])c1cccc(-n2cccc(C(=O)[N-]c3ccc(S(=O)(=O)N=c4cccc[n-]4)cc3)c2=O)c1 (protonated)
O=C([O-])c1cccc(-n2cccc(C(=O)[N-]c3ccc(S(=O)(=O)N=c4cccc[n-]4)cc3)c2=O)c1 (3D coordinates assigned)
O=C([O-])c1cccc(-n2cccc(C(=O)[N-]c3ccc(S(=O)(=O)N=c4cccc[n-]4)cc3)c2=O)c1 (optimized conformer: 74.85965628512373 kcal/mol)

>  <smiles>  (63) 
O=C(O)c1cccc(-n2cccc(C(=O)Nc3ccc(S(=O)(=O)N=c4cccc[nH]4)cc3)c2=O)c1

>  <score_type>  (63) 
oracle

>  <origin>  (63) 
adg

>  <m_score__min__energy>  (63) 
-15.66

>  <m_primary>  (63) 
energy

$$$$
64:0
     RDKit          3D

 38 40  0  0  0  0  0  0  0  0999 V2000
   54.1520   25.6350   45.6220 N   0  0  0  0  0  0  0  0  0  0  0  0
   54.2370   23.9140   45.7500 S   0  0  0  0  0  0  0  0  0  0  0  0
   53.8680   23.5110   47.1500 O   0  0  0  0  0  0  0  0  0  0  0  0
   53.2660   23.2850   44.7900 O   0  0  0  0  0  0  0  0  0  0  0  0
   55.8750   23.3780   45.3630 C   0  0  0  0  0  0  0  0  0  0  0  0
   56.0700   22.1580   44.6970 C   0  0  0  0  0  0  0  0  0  0  0  0
   57.3600   21.7250   44.3820 C   0  0  0  0  0  0  0  0  0  0  0  0
   58.4650   22.4980   44.7380 C   0  0  0  0  0  0  0  0  0  0  0  0
   58.2870   23.7140   45.4050 C   0  0  0  0  0  0  0  0  0  0  0  0
   59.4050   24.4420   45.7960 O   0  0  0  0  0  0  0  0  0  0  0  0
   56.9880   24.1780   45.6980 C   0  0  0  0  0  0  0  0  0  0  0  0
   56.7870   25.4170   46.3960 N   0  0  0  0  0  0  0  0  0  0  0  0
   57.0120   26.6010   45.9100 C   0  0  0  0  0  0  0  0  0  0  0  0
   58.2910   27.0050   45.7090 N   0  0  0  0  0  0  0  0  0  0  0  0
   58.5700   28.2420   45.2240 C   0  0  0  0  0  0  0  0  0  0  0  0
   57.5320   29.1350   44.9250 C   0  0  0  0  0  0  0  0  0  0  0  0
   57.8440   30.5200   44.4140 C   0  0  0  0  0  0  0  0  0  0  0  0
   58.2290   31.4360   45.5520 C   0  0  0  0  0  0  0  0  0  0  0  0
   59.4220   31.2170   46.2700 C   0  0  0  0  0  0  0  0  0  0  0  0
   60.2250   30.1640   45.9770 F   0  0  0  0  0  0  0  0  0  0  0  0
   59.7920   32.0850   47.3010 C   0  0  0  0  0  0  0  0  0  0  0  0
   58.9840   33.1760   47.6260 C   0  0  0  0  0  0  0  0  0  0  0  0
   57.8010   33.4040   46.9190 C   0  0  0  0  0  0  0  0  0  0  0  0
   57.4220   32.5420   45.8850 C   0  0  0  0  0  0  0  0  0  0  0  0
   56.2670   32.7870   45.2160 F   0  0  0  0  0  0  0  0  0  0  0  0
   56.2150   28.7010   45.1480 C   0  0  0  0  0  0  0  0  0  0  0  0
   55.1320   29.5290   44.8730 O   0  0  0  0  0  0  0  0  0  0  0  0
   55.9860   27.4540   45.6340 N   0  0  0  0  0  0  0  0  0  0  0  0
   55.0530   25.9560   45.2000 H   0  0  0  0  0  0  0  0  0  0  0  0
   55.2027   21.5399   44.4218 H   0  0  0  0  0  0  0  0  0  0  0  0
   57.5048   20.7721   43.8519 H   0  0  0  0  0  0  0  0  0  0  0  0
   59.4794   22.1501   44.4934 H   0  0  0  0  0  0  0  0  0  0  0  0
   59.6155   28.5447   45.0650 H   0  0  0  0  0  0  0  0  0  0  0  0
   58.6784   30.4616   43.6996 H   0  0  0  0  0  0  0  0  0  0  0  0
   56.9474   30.9253   43.9222 H   0  0  0  0  0  0  0  0  0  0  0  0
   60.7235   31.9078   47.8585 H   0  0  0  0  0  0  0  0  0  0  0  0
   59.2789   33.8561   48.4387 H   0  0  0  0  0  0  0  0  0  0  0  0
   57.1656   34.2642   47.1764 H   0  0  0  0  0  0  0  0  0  0  0  0
  1  2  1  0
  2  3  2  0
  2  4  2  0
  2  5  1  0
  5  6  2  0
  6  7  1  0
  7  8  2  0
  8  9  1  0
  9 10  1  0
  9 11  2  0
 11 12  1  0
 12 13  2  3
 13 14  1  0
 14 15  2  0
 15 16  1  0
 16 17  1  0
 17 18  1  0
 18 19  2  0
 19 20  1  0
 19 21  1  0
 21 22  2  0
 22 23  1  0
 23 24  2  0
 24 25  1  0
 16 26  2  0
 26 27  1  0
 26 28  1  0
 11  5  1  0
 28 13  1  0
 24 18  1  0
  1 29  1  0
  6 30  1  0
  7 31  1  0
  8 32  1  0
 15 33  1  0
 17 34  1  0
 17 35  1  0
 21 36  1  0
 22 37  1  0
 23 38  1  0
M  CHG  4   1  -1  10  -1  27  -1  28  -1
M  END
>  <UniqueID>  (64) 
61

>  <SMILES>  (64) 
[NH-]S(=O)(=O)c1cccc([O-])c1N=c1ncc(Cc2c(F)cccc2F)c([O-])[n-]1

>  <Energy>  (64) 
51.48042874490198

>  <Genealogy>  (64) 
[NH-]S(=O)(=O)c1cccc([O-])c1N=c1ncc(Cc2c(F)cccc2F)c([O-])[n-]1 (protonated)
[NH-]S(=O)(=O)c1cccc([O-])c1N=c1ncc(Cc2c(F)cccc2F)c([O-])[n-]1 (3D coordinates assigned)
[NH-]S(=O)(=O)c1cccc([O-])c1N=c1ncc(Cc2c(F)cccc2F)c([O-])[n-]1 (optimized conformer: 51.48042874490198 kcal/mol)

>  <smiles>  (64) 
NS(=O)(=O)c1cccc(O)c1N=c1ncc(Cc2c(F)cccc2F)c(O)[nH]1

>  <score_type>  (64) 
oracle

>  <origin>  (64) 
adg

>  <m_score__min__energy>  (64) 
-16.449999999999999

>  <m_primary>  (64) 
energy

$$$$
65:0
     RDKit          3D

 56 59  0  0  0  0  0  0  0  0999 V2000
   55.1390   29.3280   44.9500 N   0  0  0  0  0  0  0  0  0  0  0  0
   56.5200   29.4010   43.9150 S   0  0  0  0  0  0  0  0  0  0  0  0
   56.0780   29.1470   42.5010 O   0  0  0  0  0  0  0  0  0  0  0  0
   57.5130   28.3500   44.3240 O   0  0  0  0  0  0  0  0  0  0  0  0
   57.2670   30.9900   44.0380 C   0  0  0  0  0  0  0  0  0  0  0  0
   57.7760   31.6250   42.8970 C   0  0  0  0  0  0  0  0  0  0  0  0
   58.3600   32.8910   43.0000 C   0  0  0  0  0  0  0  0  0  0  0  0
   58.4550   33.5180   44.2440 C   0  0  0  0  0  0  0  0  0  0  0  0
   57.9880   32.8790   45.4000 C   0  0  0  0  0  0  0  0  0  0  0  0
   58.1200   33.5590   46.6580 N   0  0  0  0  0  0  0  0  0  0  0  0
   59.3370   33.8900   47.3390 C   0  0  0  0  0  0  0  0  0  0  0  0
   59.3100   34.3770   48.4990 O   0  0  0  0  0  0  0  0  0  0  0  0
   60.6030   33.5670   46.7550 N   0  0  0  0  0  0  0  0  0  0  0  0
   61.7810   33.1620   47.4710 C   0  0  0  0  0  0  0  0  0  0  0  0
   62.8080   34.0800   47.7520 C   0  0  0  0  0  0  0  0  0  0  0  0
   63.9600   33.6700   48.4280 C   0  0  0  0  0  0  0  0  0  0  0  0
   64.0970   32.3440   48.8360 C   0  0  0  0  0  0  0  0  0  0  0  0
   63.0750   31.4260   48.5860 C   0  0  0  0  0  0  0  0  0  0  0  0
   61.9050   31.8260   47.9190 C   0  0  0  0  0  0  0  0  0  0  0  0
   60.8340   30.8320   47.6770 C   0  0  0  0  0  0  0  0  0  0  0  0
   60.7910   30.1190   46.4710 C   0  0  0  0  0  0  0  0  0  0  0  0
   59.7800   29.1810   46.2400 C   0  0  0  0  0  0  0  0  0  0  0  0
   58.8100   28.9240   47.2190 C   0  0  0  0  0  0  0  0  0  0  0  0
   57.7780   27.9560   46.9500 N   0  0  0  0  0  0  0  0  0  0  0  0
   57.7850   26.5930   47.4820 C   0  0  0  0  0  0  0  0  0  0  0  0
   57.4270   25.6100   46.3970 C   0  0  0  0  0  0  0  0  0  0  0  0
   58.3330   24.5820   46.0810 C   0  0  0  0  0  0  0  0  0  0  0  0
   58.0210   23.6420   45.0970 C   0  0  0  0  0  0  0  0  0  0  0  0
   56.8010   23.7120   44.4230 C   0  0  0  0  0  0  0  0  0  0  0  0
   55.8900   24.7240   44.7290 C   0  0  0  0  0  0  0  0  0  0  0  0
   56.1940   25.6770   45.7140 C   0  0  0  0  0  0  0  0  0  0  0  0
   55.2750   26.6850   46.0080 O   0  0  0  0  0  0  0  0  0  0  0  0
   58.8530   29.6390   48.4270 C   0  0  0  0  0  0  0  0  0  0  0  0
   59.8590   30.5830   48.6550 C   0  0  0  0  0  0  0  0  0  0  0  0
   57.3720   31.6180   45.2870 C   0  0  0  0  0  0  0  0  0  0  0  0
   55.3660   28.6530   45.7150 H   0  0  0  0  0  0  0  0  0  0  0  0
   57.7159   31.1262   41.9184 H   0  0  0  0  0  0  0  0  0  0  0  0
   58.7449   33.3935   42.1004 H   0  0  0  0  0  0  0  0  0  0  0  0
   58.8999   34.5214   44.3169 H   0  0  0  0  0  0  0  0  0  0  0  0
   62.7038   35.1289   47.4373 H   0  0  0  0  0  0  0  0  0  0  0  0
   64.7602   34.3947   48.6386 H   0  0  0  0  0  0  0  0  0  0  0  0
   65.0111   32.0206   49.3554 H   0  0  0  0  0  0  0  0  0  0  0  0
   63.1868   30.3819   48.9137 H   0  0  0  0  0  0  0  0  0  0  0  0
   61.5568   30.2983   45.7020 H   0  0  0  0  0  0  0  0  0  0  0  0
   59.7455   28.6405   45.2826 H   0  0  0  0  0  0  0  0  0  0  0  0
   57.0690   28.1780   46.2170 H   0  0  0  0  0  0  0  0  0  0  0  0
   58.7879   26.3587   47.8684 H   0  0  0  0  0  0  0  0  0  0  0  0
   57.0444   26.5196   48.2920 H   0  0  0  0  0  0  0  0  0  0  0  0
   59.2939   24.5181   46.6126 H   0  0  0  0  0  0  0  0  0  0  0  0
   58.7382   22.8446   44.8525 H   0  0  0  0  0  0  0  0  0  0  0  0
   56.5571   22.9687   43.6497 H   0  0  0  0  0  0  0  0  0  0  0  0
   54.9292   24.7752   44.1959 H   0  0  0  0  0  0  0  0  0  0  0  0
   55.1550   27.4890   45.4030 H   0  0  0  0  0  0  0  0  0  0  0  0
   58.0907   29.4553   49.1984 H   0  0  0  0  0  0  0  0  0  0  0  0
   59.8863   31.1338   49.6068 H   0  0  0  0  0  0  0  0  0  0  0  0
   56.9709   31.1228   46.1836 H   0  0  0  0  0  0  0  0  0  0  0  0
  1  2  1  0
  2  3  2  0
  2  4  2  0
  2  5  1  0
  5  6  2  0
  6  7  1  0
  7  8  2  0
  8  9  1  0
  9 10  1  0
 10 11  1  0
 11 12  2  0
 11 13  1  0
 13 14  1  0
 14 15  2  0
 15 16  1  0
 16 17  2  0
 17 18  1  0
 18 19  2  0
 19 20  1  0
 20 21  2  0
 21 22  1  0
 22 23  2  0
 23 24  1  0
 24 25  1  0
 25 26  1  0
 26 27  2  0
 27 28  1  0
 28 29  2  0
 29 30  1  0
 30 31  2  0
 31 32  1  0
 23 33  1  0
 33 34  2  0
  9 35  2  0
 35  5  1  0
 19 14  1  0
 34 20  1  0
 31 26  1  0
  1 36  1  0
  6 37  1  0
  7 38  1  0
  8 39  1  0
 15 40  1  0
 16 41  1  0
 17 42  1  0
 18 43  1  0
 21 44  1  0
 22 45  1  0
 24 46  1  0
 25 47  1  0
 25 48  1  0
 27 49  1  0
 28 50  1  0
 29 51  1  0
 30 52  1  0
 32 53  1  0
 33 54  1  0
 34 55  1  0
 35 56  1  0
M  CHG  3   1  -1  10  -1  13  -1
M  END
>  <UniqueID>  (65) 
62

>  <SMILES>  (65) 
[NH-]S(=O)(=O)c1cccc([N-]C(=O)[N-]c2ccccc2-c2ccc(NCc3ccccc3O)cc2)c1

>  <Energy>  (65) 
74.84865010301762

>  <Genealogy>  (65) 
[NH-]S(=O)(=O)c1cccc([N-]C(=O)[N-]c2ccccc2-c2ccc(NCc3ccccc3O)cc2)c1 (protonated)
[NH-]S(=O)(=O)c1cccc([N-]C(=O)[N-]c2ccccc2-c2ccc(NCc3ccccc3O)cc2)c1 (3D coordinates assigned)
[NH-]S(=O)(=O)c1cccc([N-]C(=O)[N-]c2ccccc2-c2ccc(NCc3ccccc3O)cc2)c1 (optimized conformer: 74.84865010301762 kcal/mol)

>  <smiles>  (65) 
NS(=O)(=O)c1cccc(NC(=O)Nc2ccccc2-c2ccc(NCc3ccccc3O)cc2)c1

>  <score_type>  (65) 
oracle

>  <origin>  (65) 
adg

>  <m_score__min__energy>  (65) 
-16.039999999999999

>  <m_primary>  (65) 
energy

$$$$
66:0
     RDKit          3D

 49 51  0  0  0  0  0  0  0  0999 V2000
   55.2750   29.7220   43.7220 C   0  0  0  0  0  0  0  0  0  0  0  0
   55.6290   28.9610   44.8720 O   0  0  0  0  0  0  0  0  0  0  0  0
   56.9390   28.6250   45.2420 C   0  0  0  0  0  0  0  0  0  0  0  0
   57.3950   27.2940   45.1660 C   0  0  0  0  0  0  0  0  0  0  0  0
   58.6740   26.9540   45.6010 C   0  0  0  0  0  0  0  0  0  0  0  0
   59.5160   27.9300   46.1270 C   0  0  0  0  0  0  0  0  0  0  0  0
   59.0990   29.2680   46.1960 C   0  0  0  0  0  0  0  0  0  0  0  0
   60.0310   30.2800   46.8220 C   0  0  0  0  0  0  0  0  0  0  0  0
   59.2680   31.2140   47.6510 N   0  0  0  0  0  0  0  0  0  0  0  0
   59.2480   31.1500   49.0820 C   0  0  0  0  0  0  0  0  0  0  0  0
   59.8660   30.2320   49.6900 O   0  0  0  0  0  0  0  0  0  0  0  0
   58.5360   32.2070   49.8740 C   0  0  0  0  0  0  0  0  0  0  0  0
   59.4030   33.4600   50.0500 C   0  0  0  0  0  0  0  0  0  0  0  0
   60.1910   33.7330   48.8420 N   0  0  0  0  0  0  0  0  0  0  0  0
   59.7430   34.1180   47.6160 C   0  0  0  0  0  0  0  0  0  0  0  0
   58.5370   34.3770   47.3630 O   0  0  0  0  0  0  0  0  0  0  0  0
   60.7060   34.2040   46.7120 O   0  0  0  0  0  0  0  0  0  0  0  0
   61.8090   33.8710   47.3430 C   0  0  0  0  0  0  0  0  0  0  0  0
   63.1070   33.7900   46.8370 C   0  0  0  0  0  0  0  0  0  0  0  0
   64.1280   33.4010   47.7260 C   0  0  0  0  0  0  0  0  0  0  0  0
   63.8300   33.1070   49.0810 C   0  0  0  0  0  0  0  0  0  0  0  0
   62.5070   33.2030   49.5610 C   0  0  0  0  0  0  0  0  0  0  0  0
   61.5170   33.5830   48.6510 C   0  0  0  0  0  0  0  0  0  0  0  0
   57.8080   29.6310   45.7360 C   0  0  0  0  0  0  0  0  0  0  0  0
   57.4030   31.0070   45.8530 N   0  0  0  0  0  0  0  0  0  0  0  0
   57.8620   32.3410   44.8420 S   0  0  0  0  0  0  0  0  0  0  0  0
   57.7880   31.8890   43.1200 C   0  0  0  0  0  0  0  0  0  0  0  0
   56.8970   33.4700   45.0790 O   0  0  0  0  0  0  0  0  0  0  0  0
   59.2440   32.8110   45.2090 O   0  0  0  0  0  0  0  0  0  0  0  0
   54.8305   30.6775   44.0372 H   0  0  0  0  0  0  0  0  0  0  0  0
   56.1748   29.9170   43.1201 H   0  0  0  0  0  0  0  0  0  0  0  0
   54.5461   29.1594   43.1201 H   0  0  0  0  0  0  0  0  0  0  0  0
   56.7339   26.5149   44.7587 H   0  0  0  0  0  0  0  0  0  0  0  0
   59.0194   25.9121   45.5287 H   0  0  0  0  0  0  0  0  0  0  0  0
   60.5155   27.6502   46.4912 H   0  0  0  0  0  0  0  0  0  0  0  0
   60.7700   29.7574   47.4471 H   0  0  0  0  0  0  0  0  0  0  0  0
   60.5455   30.8390   46.0265 H   0  0  0  0  0  0  0  0  0  0  0  0
   58.8140   32.0250   47.1810 H   0  0  0  0  0  0  0  0  0  0  0  0
   57.6104   32.4842   49.3483 H   0  0  0  0  0  0  0  0  0  0  0  0
   58.3141   31.7991   50.8712 H   0  0  0  0  0  0  0  0  0  0  0  0
   58.7510   34.3217   50.2557 H   0  0  0  0  0  0  0  0  0  0  0  0
   60.0958   33.2899   50.8873 H   0  0  0  0  0  0  0  0  0  0  0  0
   63.3246   34.0212   45.7838 H   0  0  0  0  0  0  0  0  0  0  0  0
   65.1647   33.3246   47.3664 H   0  0  0  0  0  0  0  0  0  0  0  0
   64.6370   32.8016   49.7632 H   0  0  0  0  0  0  0  0  0  0  0  0
   62.2639   32.9869   50.6118 H   0  0  0  0  0  0  0  0  0  0  0  0
   57.6108   30.8069   43.0322 H   0  0  0  0  0  0  0  0  0  0  0  0
   56.9674   32.4356   42.6324 H   0  0  0  0  0  0  0  0  0  0  0  0
   58.7401   32.1454   42.6324 H   0  0  0  0  0  0  0  0  0  0  0  0
  1  2  1  0
  2  3  1  0
  3  4  2  0
  4  5  1  0
  5  6  2  0
  6  7  1  0
  7  8  1  0
  8  9  1  0
  9 10  1  0
 10 11  2  0
 10 12  1  0
 12 13  1  0
 13 14  1  0
 14 15  1  0
 15 16  2  0
 15 17  1  0
 17 18  1  0
 18 19  2  0
 19 20  1  0
 20 21  2  0
 21 22  1  0
 22 23  2  0
  7 24  2  0
 24 25  1  0
 25 26  1  0
 26 27  1  0
 26 28  2  0
 26 29  2  0
 24  3  1  0
 23 14  1  0
 23 18  1  0
  1 30  1  0
  1 31  1  0
  1 32  1  0
  4 33  1  0
  5 34  1  0
  6 35  1  0
  8 36  1  0
  8 37  1  0
  9 38  1  0
 12 39  1  0
 12 40  1  0
 13 41  1  0
 13 42  1  0
 19 43  1  0
 20 44  1  0
 21 45  1  0
 22 46  1  0
 27 47  1  0
 27 48  1  0
 27 49  1  0
M  CHG  1  25  -1
M  END
>  <UniqueID>  (66) 
63

>  <SMILES>  (66) 
COc1cccc(CNC(=O)CCn2c(=O)oc3ccccc32)c1[N-]S(C)(=O)=O

>  <Energy>  (66) 
86.17371750388179

>  <Genealogy>  (66) 
COc1cccc(CNC(=O)CCn2c(=O)oc3ccccc32)c1[N-]S(C)(=O)=O (protonated)
COc1cccc(CNC(=O)CCn2c(=O)oc3ccccc32)c1[N-]S(C)(=O)=O (3D coordinates assigned)
COc1cccc(CNC(=O)CCn2c(=O)oc3ccccc32)c1[N-]S(C)(=O)=O (optimized conformer: 86.17371750388179 kcal/mol)

>  <smiles>  (66) 
COc1cccc(CNC(=O)CCn2c(=O)oc3ccccc32)c1NS(C)(=O)=O

>  <score_type>  (66) 
oracle

>  <origin>  (66) 
adg

>  <m_score__min__energy>  (66) 
-10.859999999999999

>  <m_primary>  (66) 
energy

$$$$
67:0
     RDKit          3D

 61 63  0  0  0  0  0  0  0  0999 V2000
   56.1517   29.6933   43.2641 H   0  0  0  0  0  0  0  0  0  0  0  0
   56.6140   29.6130   44.2590 C   0  0  0  0  0  0  0  0  0  0  0  0
   56.9860   30.6830   44.8940 N   0  0  0  0  0  0  0  0  0  0  0  0
   57.6510   30.6990   46.1090 O   0  0  0  0  0  0  0  0  0  0  0  0
   58.9960   30.2590   46.2950 C   0  0  0  0  0  0  0  0  0  0  0  0
   59.6618   30.8262   45.6279 H   0  0  0  0  0  0  0  0  0  0  0  0
   59.0641   29.1865   46.0603 H   0  0  0  0  0  0  0  0  0  0  0  0
   59.4200   30.4890   47.7580 C   0  0  0  0  0  0  0  0  0  0  0  0
   58.5264   30.7554   48.3416 H   0  0  0  0  0  0  0  0  0  0  0  0
   60.1712   31.2925   47.7543 H   0  0  0  0  0  0  0  0  0  0  0  0
   60.0780   29.2570   48.4090 C   0  0  0  0  0  0  0  0  0  0  0  0
   61.1472   29.2593   48.1505 H   0  0  0  0  0  0  0  0  0  0  0  0
   59.5495   28.3733   48.0221 H   0  0  0  0  0  0  0  0  0  0  0  0
   59.9510   29.2140   49.9470 C   0  0  0  0  0  0  0  0  0  0  0  0
   60.9289   28.9452   50.3730 H   0  0  0  0  0  0  0  0  0  0  0  0
   59.1795   28.4702   50.1950 H   0  0  0  0  0  0  0  0  0  0  0  0
   59.5130   30.5410   50.5380 C   0  0  0  0  0  0  0  0  0  0  0  0
   58.1340   30.8280   50.5390 C   0  0  0  0  0  0  0  0  0  0  0  0
   57.4339   30.1317   50.0542 H   0  0  0  0  0  0  0  0  0  0  0  0
   57.6460   31.9820   51.1460 C   0  0  0  0  0  0  0  0  0  0  0  0
   56.5658   32.1895   51.1424 H   0  0  0  0  0  0  0  0  0  0  0  0
   58.5220   32.8730   51.7570 C   0  0  0  0  0  0  0  0  0  0  0  0
   58.1310   33.7754   52.2497 H   0  0  0  0  0  0  0  0  0  0  0  0
   59.8940   32.6260   51.7470 C   0  0  0  0  0  0  0  0  0  0  0  0
   60.5769   33.3446   52.2237 H   0  0  0  0  0  0  0  0  0  0  0  0
   60.4220   31.4650   51.1330 C   0  0  0  0  0  0  0  0  0  0  0  0
   61.9250   31.2240   51.0610 C   0  0  0  0  0  0  0  0  0  0  0  0
   62.0934   30.1405   50.9738 H   0  0  0  0  0  0  0  0  0  0  0  0
   62.3511   31.6590   51.9771 H   0  0  0  0  0  0  0  0  0  0  0  0
   62.6190   31.8970   49.9140 C   0  0  0  0  0  0  0  0  0  0  0  0
   63.5180   32.7530   50.1390 O   0  0  0  0  0  0  0  0  0  0  0  0
   62.2750   31.5400   48.5700 N   0  0  0  0  0  0  0  0  0  0  0  0
   61.9210   32.5070   47.5340 C   0  0  2  0  0  0  0  0  0  0  0  0
   61.4903   31.9612   46.6816 H   0  0  0  0  0  0  0  0  0  0  0  0
   63.1400   33.2370   47.0250 C   0  0  0  0  0  0  0  0  0  0  0  0
   63.0330   34.0810   46.0940 O   0  0  0  0  0  0  0  0  0  0  0  0
   64.4280   32.9440   47.5630 N   0  0  0  0  0  0  0  0  0  0  0  0
   65.2730   33.4440   47.2100 H   0  0  0  0  0  0  0  0  0  0  0  0
   64.5390   32.2290   48.3160 H   0  0  0  0  0  0  0  0  0  0  0  0
   60.8640   33.4900   48.0680 C   0  0  0  0  0  0  0  0  0  0  0  0
   60.4711   33.0999   49.0185 H   0  0  0  0  0  0  0  0  0  0  0  0
   61.3568   34.4650   48.1964 H   0  0  0  0  0  0  0  0  0  0  0  0
   59.7080   33.6900   47.1150 C   0  0  0  0  0  0  0  0  0  0  0  0
   58.3910   33.4240   47.5290 C   0  0  0  0  0  0  0  0  0  0  0  0
   58.2017   33.0460   48.5445 H   0  0  0  0  0  0  0  0  0  0  0  0
   57.3210   33.6380   46.6550 C   0  0  0  0  0  0  0  0  0  0  0  0
   56.2929   33.4233   46.9819 H   0  0  0  0  0  0  0  0  0  0  0  0
   57.5570   34.1250   45.3650 C   0  0  0  0  0  0  0  0  0  0  0  0
   56.7145   34.2937   44.6782 H   0  0  0  0  0  0  0  0  0  0  0  0
   58.8620   34.3970   44.9490 C   0  0  0  0  0  0  0  0  0  0  0  0
   59.0462   34.7797   43.9343 H   0  0  0  0  0  0  0  0  0  0  0  0
   59.9340   34.1840   45.8190 C   0  0  0  0  0  0  0  0  0  0  0  0
   60.9597   34.4040   45.4881 H   0  0  0  0  0  0  0  0  0  0  0  0
   56.8130   28.2990   44.8740 C   0  0  0  0  0  0  0  0  0  0  0  0
   55.9200   27.6870   45.6180 O   0  0  0  0  0  0  0  0  0  0  0  0
   56.4170   26.5350   46.0010 C   0  0  0  0  0  0  0  0  0  0  0  0
   55.8990   25.8022   46.6371 H   0  0  0  0  0  0  0  0  0  0  0  0
   57.6890   26.3810   45.4850 C   0  0  0  0  0  0  0  0  0  0  0  0
   58.3595   25.5203   45.6255 H   0  0  0  0  0  0  0  0  0  0  0  0
   57.9490   27.5240   44.7580 C   0  0  0  0  0  0  0  0  0  0  0  0
   58.8674   27.7665   44.2032 H   0  0  0  0  0  0  0  0  0  0  0  0
  1  2  1  0
  2  3  2  0
  3  4  1  0
  4  5  1  0
  5  6  1  0
  5  7  1  0
  5  8  1  0
  8  9  1  0
  8 10  1  0
  8 11  1  0
 11 12  1  0
 11 13  1  0
 11 14  1  0
 14 15  1  0
 14 16  1  0
 14 17  1  0
 17 18  2  0
 18 19  1  0
 18 20  1  0
 20 21  1  0
 20 22  2  0
 22 23  1  0
 22 24  1  0
 24 25  1  0
 24 26  2  0
 26 27  1  0
 27 28  1  0
 27 29  1  0
 27 30  1  0
 30 31  2  0
 30 32  1  0
 32 33  1  0
 33 34  1  6
 33 35  1  0
 35 36  2  0
 35 37  1  0
 37 38  1  0
 37 39  1  0
 33 40  1  0
 40 41  1  0
 40 42  1  0
 40 43  1  0
 43 44  2  0
 44 45  1  0
 44 46  1  0
 46 47  1  0
 46 48  2  0
 48 49  1  0
 48 50  1  0
 50 51  1  0
 50 52  2  0
 52 53  1  0
  2 54  1  0
 54 55  1  0
 55 56  1  0
 56 57  1  0
 56 58  2  0
 58 59  1  0
 58 60  1  0
 60 61  1  0
 26 17  1  0
 52 43  1  0
 60 54  2  0
M  CHG  1  32  -1
M  END
>  <UniqueID>  (67) 
64

>  <SMILES>  (67) 
NC(=O)[C@H](Cc1ccccc1)[N-]C(=O)Cc1ccccc1CCCCO/N=C/c1ccco1

>  <Energy>  (67) 
80.8895768764955

>  <Genealogy>  (67) 
NC(=O)C(Cc1ccccc1)[N-]C(=O)Cc1ccccc1CCCCON=Cc1ccco1 (protonated)
NC(=O)[C@H](Cc1ccccc1)[N-]C(=O)Cc1ccccc1CCCCON=Cc1ccco1 (chirality)
NC(=O)[C@H](Cc1ccccc1)[N-]C(=O)Cc1ccccc1CCCCO/N=C/c1ccco1 (cis-trans isomerization)
NC(=O)[C@H](Cc1ccccc1)[N-]C(=O)Cc1ccccc1CCCCO/N=C/c1ccco1 (3D coordinates assigned)
NC(=O)[C@H](Cc1ccccc1)[N-]C(=O)Cc1ccccc1CCCCO/N=C/c1ccco1 (optimized conformer: 80.8895768764955 kcal/mol)

>  <smiles>  (67) 
NC(=O)C(Cc1ccccc1)NC(=O)Cc1ccccc1CCCCON=Cc1ccco1

>  <score_type>  (67) 
oracle

>  <origin>  (67) 
adg

>  <m_score__min__energy>  (67) 
-10.779999999999999

>  <m_primary>  (67) 
energy

$$$$
68:0
     RDKit          3D

 48 50  0  0  0  0  0  0  0  0999 V2000
   59.4178   34.7316   43.8150 H   0  0  0  0  0  0  0  0  0  0  0  0
   58.9570   34.0210   44.5170 C   0  0  0  0  0  0  0  0  0  0  0  0
   58.0240   33.0900   44.0550 C   0  0  0  0  0  0  0  0  0  0  0  0
   57.7405   33.0790   42.9922 H   0  0  0  0  0  0  0  0  0  0  0  0
   57.4480   32.1700   44.9410 C   0  0  0  0  0  0  0  0  0  0  0  0
   56.4890   31.2100   44.4850 N   0  0  0  0  0  0  0  0  0  0  0  0
   56.5460   29.8000   44.7380 C   0  0  0  0  0  0  0  0  0  0  0  0
   55.5290   29.2280   45.2100 O   0  0  0  0  0  0  0  0  0  0  0  0
   57.8210   29.0120   44.5710 C   0  0  0  0  0  0  0  0  0  0  0  0
   58.3509   29.3796   43.6799 H   0  0  0  0  0  0  0  0  0  0  0  0
   57.5517   27.9506   44.4660 H   0  0  0  0  0  0  0  0  0  0  0  0
   58.7310   29.1440   45.7670 C   0  0  0  0  0  0  0  0  0  0  0  0
   60.0120   29.7060   45.6280 C   0  0  0  0  0  0  0  0  0  0  0  0
   60.3468   30.0649   44.6436 H   0  0  0  0  0  0  0  0  0  0  0  0
   60.8630   29.8120   46.7310 C   0  0  0  0  0  0  0  0  0  0  0  0
   61.8609   30.2591   46.6116 H   0  0  0  0  0  0  0  0  0  0  0  0
   60.4490   29.3490   47.9950 C   0  0  0  0  0  0  0  0  0  0  0  0
   61.2650   29.4380   49.1350 O   0  0  0  0  0  0  0  0  0  0  0  0
   61.0660   28.6810   50.3250 C   0  0  0  0  0  0  0  0  0  0  0  0
   61.2351   29.3241   51.2013 H   0  0  0  0  0  0  0  0  0  0  0  0
   60.0360   28.2955   50.3464 H   0  0  0  0  0  0  0  0  0  0  0  0
   61.7733   27.8388   50.3464 H   0  0  0  0  0  0  0  0  0  0  0  0
   59.1800   28.7740   48.1300 C   0  0  0  0  0  0  0  0  0  0  0  0
   58.8485   28.4069   49.1125 H   0  0  0  0  0  0  0  0  0  0  0  0
   58.3310   28.6630   47.0250 C   0  0  0  0  0  0  0  0  0  0  0  0
   57.3421   28.1955   47.1413 H   0  0  0  0  0  0  0  0  0  0  0  0
   57.7680   32.2270   46.3030 C   0  0  0  0  0  0  0  0  0  0  0  0
   57.2812   31.5381   47.0090 H   0  0  0  0  0  0  0  0  0  0  0  0
   58.7080   33.1600   46.7720 C   0  0  0  0  0  0  0  0  0  0  0  0
   59.1560   33.2040   48.4760 S   0  0  0  0  0  0  0  0  0  0  0  0
   58.0410   32.6430   49.3160 O   0  0  0  0  0  0  0  0  0  0  0  0
   59.3870   34.6280   48.8950 O   0  0  0  0  0  0  0  0  0  0  0  0
   60.5700   32.2160   48.7200 N   0  0  0  0  0  0  0  0  0  0  0  0
   60.4060   31.2760   49.1470 H   0  0  0  0  0  0  0  0  0  0  0  0
   61.7860   32.5400   48.3790 C   0  0  0  0  0  0  0  0  0  0  0  0
   62.9020   31.7620   48.7650 N   0  0  0  0  0  0  0  0  0  0  0  0
   62.8610   30.9110   49.3690 H   0  0  0  0  0  0  0  0  0  0  0  0
   64.1280   32.3620   48.2800 C   0  0  0  0  0  0  0  0  0  0  0  0
   64.7029   31.6332   47.6898 H   0  0  0  0  0  0  0  0  0  0  0  0
   64.7718   32.6901   49.1094 H   0  0  0  0  0  0  0  0  0  0  0  0
   63.6990   33.5470   47.3960 C   0  0  0  0  0  0  0  0  0  0  0  0
   63.9139   33.3267   46.3399 H   0  0  0  0  0  0  0  0  0  0  0  0
   64.2489   34.4591   47.6712 H   0  0  0  0  0  0  0  0  0  0  0  0
   62.1880   33.7390   47.5970 C   0  0  0  0  0  0  0  0  0  0  0  0
   61.6639   33.7717   46.6304 H   0  0  0  0  0  0  0  0  0  0  0  0
   61.9401   34.6834   48.1035 H   0  0  0  0  0  0  0  0  0  0  0  0
   59.3060   34.0510   45.8700 C   0  0  0  0  0  0  0  0  0  0  0  0
   60.0520   34.7758   46.2281 H   0  0  0  0  0  0  0  0  0  0  0  0
  1  2  1  0
  2  3  2  0
  3  4  1  0
  3  5  1  0
  5  6  1  0
  6  7  1  0
  7  8  2  0
  7  9  1  0
  9 10  1  0
  9 11  1  0
  9 12  1  0
 12 13  2  0
 13 14  1  0
 13 15  1  0
 15 16  1  0
 15 17  2  0
 17 18  1  0
 18 19  1  0
 19 20  1  0
 19 21  1  0
 19 22  1  0
 17 23  1  0
 23 24  1  0
 23 25  2  0
 25 26  1  0
  5 27  2  0
 27 28  1  0
 27 29  1  0
 29 30  1  0
 30 31  2  0
 30 32  2  0
 30 33  1  0
 33 34  1  0
 33 35  2  0
 35 36  1  0
 36 37  1  0
 36 38  1  0
 38 39  1  0
 38 40  1  0
 38 41  1  0
 41 42  1  0
 41 43  1  0
 41 44  1  0
 44 45  1  0
 44 46  1  0
 29 47  2  0
 47 48  1  0
 47  2  1  0
 25 12  1  0
 44 35  1  0
M  CHG  2   6  -1  33   1
M  END
>  <UniqueID>  (68) 
65

>  <SMILES>  (68) 
COc1ccc(CC(=O)[N-]c2cccc(S(=O)(=O)/[NH+]=C3\CCCN3)c2)cc1

>  <Energy>  (68) 
62.91171524267663

>  <Genealogy>  (68) 
COc1ccc(CC(=O)[N-]c2cccc(S(=O)(=O)[NH+]=C3CCCN3)c2)cc1 (protonated)
COc1ccc(CC(=O)[N-]c2cccc(S(=O)(=O)/[NH+]=C3\CCCN3)c2)cc1 (cis-trans isomerization)
COc1ccc(CC(=O)[N-]c2cccc(S(=O)(=O)/[NH+]=C3\CCCN3)c2)cc1 (3D coordinates assigned)
COc1ccc(CC(=O)[N-]c2cccc(S(=O)(=O)/[NH+]=C3\CCCN3)c2)cc1 (nonaromatic ring conformer: 62.91171524267663 kcal/mol)

>  <smiles>  (68) 
COc1ccc(CC(=O)Nc2cccc(S(=O)(=O)N=C3CCCN3)c2)cc1

>  <score_type>  (68) 
oracle

>  <origin>  (68) 
adg

>  <m_score__min__energy>  (68) 
-8.9100000000000001

>  <m_primary>  (68) 
energy

$$$$
69:0
     RDKit          3D

 52 55  0  0  0  0  0  0  0  0999 V2000
   56.7120   26.3550   43.8600 H   0  0  0  0  0  0  0  0  0  0  0  0
   57.1240   25.4490   43.6650 O   0  0  0  0  0  0  0  0  0  0  0  0
   56.6210   24.2810   44.2350 C   0  0  0  0  0  0  0  0  0  0  0  0
   56.9970   23.0270   43.7310 C   0  0  0  0  0  0  0  0  0  0  0  0
   57.6929   22.9636   42.8815 H   0  0  0  0  0  0  0  0  0  0  0  0
   56.4900   21.8580   44.3050 C   0  0  0  0  0  0  0  0  0  0  0  0
   56.7950   20.8760   43.9142 H   0  0  0  0  0  0  0  0  0  0  0  0
   55.5960   21.9370   45.3750 C   0  0  0  0  0  0  0  0  0  0  0  0
   55.1913   21.0168   45.8216 H   0  0  0  0  0  0  0  0  0  0  0  0
   55.2150   23.1830   45.8790 C   0  0  0  0  0  0  0  0  0  0  0  0
   54.4989   23.2410   46.7120 H   0  0  0  0  0  0  0  0  0  0  0  0
   55.7430   24.3640   45.3260 C   0  0  0  0  0  0  0  0  0  0  0  0
   55.3820   25.6260   45.8180 O   0  0  0  0  0  0  0  0  0  0  0  0
   56.2710   26.6910   45.9990 C   0  0  0  0  0  0  0  0  0  0  0  0
   56.0800   27.8440   45.3080 N   0  0  0  0  0  0  0  0  0  0  0  0
   56.9520   28.8750   45.4340 C   0  0  0  0  0  0  0  0  0  0  0  0
   56.7270   29.9780   44.7790 N   0  0  0  0  0  0  0  0  0  0  0  0
   57.3920   31.2400   44.9610 C   0  0  0  0  0  0  0  0  0  0  0  0
   57.7710   31.6200   46.2530 C   0  0  0  0  0  0  0  0  0  0  0  0
   57.5797   30.9433   47.0988 H   0  0  0  0  0  0  0  0  0  0  0  0
   58.3910   32.8530   46.4780 C   0  0  0  0  0  0  0  0  0  0  0  0
   58.6880   33.1383   47.4980 H   0  0  0  0  0  0  0  0  0  0  0  0
   58.6360   33.7280   45.4090 C   0  0  0  0  0  0  0  0  0  0  0  0
   59.2740   35.0400   45.6350 C   0  0  0  0  0  0  0  0  0  0  0  0
   59.2960   35.8790   44.6950 O   0  0  0  0  0  0  0  0  0  0  0  0
   59.9030   35.3810   46.8770 N   0  0  0  0  0  0  0  0  0  0  0  0
   60.6800   34.4610   47.6970 C   0  0  0  0  0  0  0  0  0  0  0  0
   60.4989   34.6754   48.7606 H   0  0  0  0  0  0  0  0  0  0  0  0
   60.3777   33.4270   47.4748 H   0  0  0  0  0  0  0  0  0  0  0  0
   61.7500   34.5860   47.4748 H   0  0  0  0  0  0  0  0  0  0  0  0
   58.2050   33.3740   44.1220 C   0  0  0  0  0  0  0  0  0  0  0  0
   58.3544   34.0714   43.2845 H   0  0  0  0  0  0  0  0  0  0  0  0
   57.5870   32.1410   43.8970 C   0  0  0  0  0  0  0  0  0  0  0  0
   57.2515   31.8733   42.8842 H   0  0  0  0  0  0  0  0  0  0  0  0
   58.0200   28.7520   46.2670 N   0  0  0  0  0  0  0  0  0  0  0  0
   58.2220   27.6060   46.9610 C   0  0  0  0  0  0  0  0  0  0  0  0
   59.3540   27.4870   47.7780 O   0  0  0  0  0  0  0  0  0  0  0  0
   60.1110   28.5700   48.2450 C   0  0  0  0  0  0  0  0  0  0  0  0
   60.3750   28.7510   49.6130 C   0  0  0  0  0  0  0  0  0  0  0  0
   59.9741   28.0361   50.3466 H   0  0  0  0  0  0  0  0  0  0  0  0
   61.1440   29.8340   50.0470 C   0  0  0  0  0  0  0  0  0  0  0  0
   61.3499   29.9652   51.1196 H   0  0  0  0  0  0  0  0  0  0  0  0
   61.6540   30.7540   49.1200 C   0  0  0  0  0  0  0  0  0  0  0  0
   62.4470   31.9380   49.5890 C   0  0  0  0  0  0  0  0  0  0  0  0
   62.4604   31.9580   50.6887 H   0  0  0  0  0  0  0  0  0  0  0  0
   63.4773   31.8623   49.2111 H   0  0  0  0  0  0  0  0  0  0  0  0
   61.9848   32.8619   49.2111 H   0  0  0  0  0  0  0  0  0  0  0  0
   61.3510   30.6000   47.7580 C   0  0  0  0  0  0  0  0  0  0  0  0
   61.7185   31.3362   47.0280 H   0  0  0  0  0  0  0  0  0  0  0  0
   60.5830   29.5130   47.3260 C   0  0  0  0  0  0  0  0  0  0  0  0
   60.3490   29.3994   46.2572 H   0  0  0  0  0  0  0  0  0  0  0  0
   57.3490   26.5730   46.8210 N   0  0  0  0  0  0  0  0  0  0  0  0
  1  2  1  0
  2  3  1  0
  3  4  2  0
  4  5  1  0
  4  6  1  0
  6  7  1  0
  6  8  2  0
  8  9  1  0
  8 10  1  0
 10 11  1  0
 10 12  2  0
 12 13  1  0
 13 14  1  0
 14 15  2  0
 15 16  1  0
 16 17  2  0
 17 18  1  0
 18 19  2  0
 19 20  1  0
 19 21  1  0
 21 22  1  0
 21 23  2  0
 23 24  1  0
 24 25  2  0
 24 26  1  0
 26 27  1  0
 27 28  1  0
 27 29  1  0
 27 30  1  0
 23 31  1  0
 31 32  1  0
 31 33  2  0
 33 34  1  0
 16 35  1  0
 35 36  2  0
 36 37  1  0
 37 38  1  0
 38 39  2  0
 39 40  1  0
 39 41  1  0
 41 42  1  0
 41 43  2  0
 43 44  1  0
 44 45  1  0
 44 46  1  0
 44 47  1  0
 43 48  1  0
 48 49  1  0
 48 50  2  0
 50 51  1  0
 36 52  1  0
 12  3  1  0
 52 14  1  0
 33 18  1  0
 50 38  1  0
M  CHG  2  26  -1  52  -1
M  END
>  <UniqueID>  (69) 
66

>  <SMILES>  (69) 
C[N-]C(=O)c1ccc(/N=c2\nc(Oc3ccc(C)cc3)[n-]c(Oc3ccccc3O)n2)cc1

>  <Energy>  (69) 
74.87632920150722

>  <Genealogy>  (69) 
C[N-]C(=O)c1ccc(N=c2nc(Oc3ccc(C)cc3)[n-]c(Oc3ccccc3O)n2)cc1 (protonated)
C[N-]C(=O)c1ccc(/N=c2\nc(Oc3ccc(C)cc3)[n-]c(Oc3ccccc3O)n2)cc1 (cis-trans isomerization)
C[N-]C(=O)c1ccc(/N=c2\nc(Oc3ccc(C)cc3)[n-]c(Oc3ccccc3O)n2)cc1 (3D coordinates assigned)
C[N-]C(=O)c1ccc(/N=c2\nc(Oc3ccc(C)cc3)[n-]c(Oc3ccccc3O)n2)cc1 (optimized conformer: 74.87632920150722 kcal/mol)

>  <smiles>  (69) 
CNC(=O)c1ccc(N=c2nc(Oc3ccc(C)cc3)[nH]c(Oc3ccccc3O)n2)cc1

>  <score_type>  (69) 
oracle

>  <origin>  (69) 
adg

>  <m_score__min__energy>  (69) 
-11.109999999999999

>  <m_primary>  (69) 
energy

$$$$
70:0
     RDKit          3D

 46 48  0  0  0  0  0  0  0  0999 V2000
   59.1680   26.6310   47.5570 C   0  0  0  0  0  0  0  0  0  0  0  0
   58.5630   27.7660   46.7660 C   0  0  0  0  0  0  0  0  0  0  0  0
   59.1880   29.0410   46.7460 C   0  0  0  0  0  0  0  0  0  0  0  0
   60.3530   29.3320   47.5250 N   0  0  0  0  0  0  0  0  0  0  0  0
   60.4170   29.1930   49.2540 S   0  0  0  0  0  0  0  0  0  0  0  0
   61.1630   27.9480   49.6390 O   0  0  0  0  0  0  0  0  0  0  0  0
   59.0110   29.1000   49.7770 O   0  0  0  0  0  0  0  0  0  0  0  0
   61.1820   30.5750   49.9780 N   0  0  0  0  0  0  0  0  0  0  0  0
   60.4890   31.7690   50.3930 C   0  0  0  0  0  0  0  0  0  0  0  0
   59.7150   31.7850   51.5710 C   0  0  0  0  0  0  0  0  0  0  0  0
   59.1100   32.9630   52.0120 C   0  0  0  0  0  0  0  0  0  0  0  0
   59.2570   34.1410   51.2820 C   0  0  0  0  0  0  0  0  0  0  0  0
   59.9920   34.1390   50.0970 C   0  0  0  0  0  0  0  0  0  0  0  0
   60.5920   32.9600   49.6340 C   0  0  0  0  0  0  0  0  0  0  0  0
   61.4860   33.0220   48.0730 S   0  0  0  0  0  0  0  0  0  0  0  0
   60.0190   33.4560   47.1340 C   0  0  0  0  0  0  0  0  0  0  0  0
   58.7740   32.9170   47.4810 C   0  0  0  0  0  0  0  0  0  0  0  0
   57.6330   33.2630   46.7480 C   0  0  0  0  0  0  0  0  0  0  0  0
   57.7360   34.1430   45.6660 C   0  0  0  0  0  0  0  0  0  0  0  0
   56.6300   34.4760   44.9560 F   0  0  0  0  0  0  0  0  0  0  0  0
   58.9800   34.6750   45.3120 C   0  0  0  0  0  0  0  0  0  0  0  0
   60.1220   34.3300   46.0440 C   0  0  0  0  0  0  0  0  0  0  0  0
   58.6780   30.0560   45.9310 C   0  0  0  0  0  0  0  0  0  0  0  0
   57.5130   29.8570   45.1980 C   0  0  0  0  0  0  0  0  0  0  0  0
   56.8520   28.6330   45.2570 C   0  0  0  0  0  0  0  0  0  0  0  0
   57.3610   27.5790   46.0320 C   0  0  0  0  0  0  0  0  0  0  0  0
   56.4790   26.0410   46.0400 S   0  0  0  0  0  0  0  0  0  0  0  0
   54.7760   26.3320   46.0020 N   0  0  0  0  0  0  0  0  0  0  0  0
   56.8460   25.2230   44.8330 O   0  0  0  0  0  0  0  0  0  0  0  0
   56.8330   25.2610   47.2750 O   0  0  0  0  0  0  0  0  0  0  0  0
   59.0594   26.8348   48.6325 H   0  0  0  0  0  0  0  0  0  0  0  0
   58.6501   25.6932   47.3074 H   0  0  0  0  0  0  0  0  0  0  0  0
   60.2353   26.5381   47.3074 H   0  0  0  0  0  0  0  0  0  0  0  0
   62.1960   30.4590   50.1940 H   0  0  0  0  0  0  0  0  0  0  0  0
   59.5863   30.8583   52.1495 H   0  0  0  0  0  0  0  0  0  0  0  0
   58.5159   32.9616   52.9378 H   0  0  0  0  0  0  0  0  0  0  0  0
   58.7934   35.0719   51.6404 H   0  0  0  0  0  0  0  0  0  0  0  0
   60.1017   35.0698   49.5212 H   0  0  0  0  0  0  0  0  0  0  0  0
   58.6928   32.2218   48.3296 H   0  0  0  0  0  0  0  0  0  0  0  0
   56.6545   32.8425   47.0232 H   0  0  0  0  0  0  0  0  0  0  0  0
   59.0609   35.3643   44.4586 H   0  0  0  0  0  0  0  0  0  0  0  0
   61.1011   34.7454   45.7632 H   0  0  0  0  0  0  0  0  0  0  0  0
   59.2029   31.0207   45.8690 H   0  0  0  0  0  0  0  0  0  0  0  0
   57.1133   30.6675   44.5709 H   0  0  0  0  0  0  0  0  0  0  0  0
   55.9203   28.4903   44.6899 H   0  0  0  0  0  0  0  0  0  0  0  0
   54.5880   27.0970   46.6870 H   0  0  0  0  0  0  0  0  0  0  0  0
  1  2  1  0
  2  3  2  0
  3  4  1  0
  4  5  1  0
  5  6  2  0
  5  7  2  0
  5  8  1  0
  8  9  1  0
  9 10  2  0
 10 11  1  0
 11 12  2  0
 12 13  1  0
 13 14  2  0
 14 15  1  0
 15 16  1  0
 16 17  2  0
 17 18  1  0
 18 19  2  0
 19 20  1  0
 19 21  1  0
 21 22  2  0
  3 23  1  0
 23 24  2  0
 24 25  1  0
 25 26  2  0
 26 27  1  0
 27 28  1  0
 27 29  2  0
 27 30  2  0
 26  2  1  0
 14  9  1  0
 22 16  1  0
  1 31  1  0
  1 32  1  0
  1 33  1  0
  8 34  1  0
 10 35  1  0
 11 36  1  0
 12 37  1  0
 13 38  1  0
 17 39  1  0
 18 40  1  0
 21 41  1  0
 22 42  1  0
 23 43  1  0
 24 44  1  0
 25 45  1  0
 28 46  1  0
M  CHG  2   4  -1  28  -1
M  END
>  <UniqueID>  (70) 
67

>  <SMILES>  (70) 
Cc1c([N-]S(=O)(=O)Nc2ccccc2Sc2ccc(F)cc2)cccc1S([NH-])(=O)=O

>  <Energy>  (70) 
55.39534734890465

>  <Genealogy>  (70) 
Cc1c([N-]S(=O)(=O)Nc2ccccc2Sc2ccc(F)cc2)cccc1S([NH-])(=O)=O (protonated)
Cc1c([N-]S(=O)(=O)Nc2ccccc2Sc2ccc(F)cc2)cccc1S([NH-])(=O)=O (3D coordinates assigned)
Cc1c([N-]S(=O)(=O)Nc2ccccc2Sc2ccc(F)cc2)cccc1S([NH-])(=O)=O (optimized conformer: 55.39534734890465 kcal/mol)

>  <smiles>  (70) 
Cc1c(NS(=O)(=O)Nc2ccccc2Sc2ccc(F)cc2)cccc1S(N)(=O)=O

>  <score_type>  (70) 
oracle

>  <origin>  (70) 
adg

>  <m_score__min__energy>  (70) 
-13.029999999999999

>  <m_primary>  (70) 
energy

$$$$
71:0
     RDKit          3D

 40 42  0  0  0  0  0  0  0  0999 V2000
   57.6000   30.3870   53.4650 O   0  0  0  0  0  0  0  0  0  0  0  0
   56.8260   30.9540   52.6490 C   0  0  0  0  0  0  0  0  0  0  0  0
   56.9510   32.4250   52.4120 C   0  0  0  0  0  0  0  0  0  0  0  0
   58.6660   32.8580   51.9630 S   0  0  0  0  0  0  0  0  0  0  0  0
   58.7130   31.7780   50.5340 C   0  0  0  0  0  0  0  0  0  0  0  0
   58.3750   30.4790   50.5500 N   0  0  0  0  0  0  0  0  0  0  0  0
   58.5220   30.0170   49.3210 N   0  0  0  0  0  0  0  0  0  0  0  0
   58.9540   31.0670   48.5940 C   0  0  0  0  0  0  0  0  0  0  0  0
   59.2720   31.0040   47.1350 C   0  0  0  0  0  0  0  0  0  0  0  0
   59.2450   32.3840   46.5410 C   0  0  0  0  0  0  0  0  0  0  0  0
   60.2710   33.3000   46.8320 C   0  0  0  0  0  0  0  0  0  0  0  0
   60.2210   34.6000   46.3190 C   0  0  0  0  0  0  0  0  0  0  0  0
   59.1450   34.9970   45.5200 C   0  0  0  0  0  0  0  0  0  0  0  0
   58.1160   34.0940   45.2330 C   0  0  0  0  0  0  0  0  0  0  0  0
   58.1620   32.7930   45.7450 C   0  0  0  0  0  0  0  0  0  0  0  0
   59.0760   32.1490   49.3310 O   0  0  0  0  0  0  0  0  0  0  0  0
   55.8910   30.1940   51.8720 N   0  0  0  0  0  0  0  0  0  0  0  0
   54.4640   30.1790   52.0240 C   0  0  0  0  0  0  0  0  0  0  0  0
   53.8680   29.0650   52.6230 C   0  0  0  0  0  0  0  0  0  0  0  0
   52.4810   29.0040   52.7810 C   0  0  0  0  0  0  0  0  0  0  0  0
   51.6770   30.0520   52.3270 C   0  0  0  0  0  0  0  0  0  0  0  0
   52.2530   31.1700   51.6990 C   0  0  0  0  0  0  0  0  0  0  0  0
   51.3950   32.2700   51.2050 C   0  0  0  0  0  0  0  0  0  0  0  0
   50.9890   33.1680   51.9890 O   0  0  0  0  0  0  0  0  0  0  0  0
   51.0210   32.3240   49.8670 O   0  0  0  0  0  0  0  0  0  0  0  0
   53.6510   31.2230   51.5430 C   0  0  0  0  0  0  0  0  0  0  0  0
   56.2776   32.7180   51.5930 H   0  0  0  0  0  0  0  0  0  0  0  0
   56.6802   32.9579   53.3354 H   0  0  0  0  0  0  0  0  0  0  0  0
   58.0470   29.9190   51.3680 H   0  0  0  0  0  0  0  0  0  0  0  0
   60.2731   30.5689   46.9992 H   0  0  0  0  0  0  0  0  0  0  0  0
   58.5209   30.3794   46.6293 H   0  0  0  0  0  0  0  0  0  0  0  0
   61.1162   32.9930   47.4655 H   0  0  0  0  0  0  0  0  0  0  0  0
   61.0294   35.3110   46.5445 H   0  0  0  0  0  0  0  0  0  0  0  0
   59.1074   36.0198   45.1168 H   0  0  0  0  0  0  0  0  0  0  0  0
   57.2697   34.4073   44.6040 H   0  0  0  0  0  0  0  0  0  0  0  0
   57.3474   32.0877   45.5236 H   0  0  0  0  0  0  0  0  0  0  0  0
   54.4950   28.2313   52.9721 H   0  0  0  0  0  0  0  0  0  0  0  0
   52.0214   28.1290   53.2638 H   0  0  0  0  0  0  0  0  0  0  0  0
   50.5864   30.0022   52.4617 H   0  0  0  0  0  0  0  0  0  0  0  0
   54.1118   32.0868   51.0414 H   0  0  0  0  0  0  0  0  0  0  0  0
  1  2  2  0
  2  3  1  0
  3  4  1  0
  4  5  1  0
  5  6  2  0
  6  7  1  0
  7  8  2  0
  8  9  1  0
  9 10  1  0
 10 11  2  0
 11 12  1  0
 12 13  2  0
 13 14  1  0
 14 15  2  0
  8 16  1  0
  2 17  1  0
 17 18  1  0
 18 19  2  0
 19 20  1  0
 20 21  2  0
 21 22  1  0
 22 23  1  0
 23 24  2  0
 23 25  1  0
 22 26  2  0
 16  5  1  0
 26 18  1  0
 15 10  1  0
  3 27  1  0
  3 28  1  0
  6 29  1  0
  9 30  1  0
  9 31  1  0
 11 32  1  0
 12 33  1  0
 13 34  1  0
 14 35  1  0
 15 36  1  0
 19 37  1  0
 20 38  1  0
 21 39  1  0
 26 40  1  0
M  CHG  3   6   1  17  -1  25  -1
M  END
>  <UniqueID>  (71) 
68

>  <SMILES>  (71) 
O=C(CSc1[nH+]nc(Cc2ccccc2)o1)[N-]c1cccc(C(=O)[O-])c1

>  <Energy>  (71) 
75.2859471425386

>  <Genealogy>  (71) 
O=C(CSc1[nH+]nc(Cc2ccccc2)o1)[N-]c1cccc(C(=O)[O-])c1 (protonated)
O=C(CSc1[nH+]nc(Cc2ccccc2)o1)[N-]c1cccc(C(=O)[O-])c1 (3D coordinates assigned)
O=C(CSc1[nH+]nc(Cc2ccccc2)o1)[N-]c1cccc(C(=O)[O-])c1 (optimized conformer: 75.2859471425386 kcal/mol)

>  <smiles>  (71) 
O=C(CSc1nnc(Cc2ccccc2)o1)Nc1cccc(C(=O)O)c1

>  <score_type>  (71) 
oracle

>  <origin>  (71) 
adg

>  <m_score__min__energy>  (71) 
-12.08

>  <m_primary>  (71) 
energy

$$$$
72:0
     RDKit          3D

 34 35  0  0  0  0  0  0  0  0999 V2000
   59.5271   26.6543   46.7301 H   0  0  0  0  0  0  0  0  0  0  0  0
   59.4040   27.7380   46.5870 C   0  0  0  0  0  0  0  0  0  0  0  0
   59.7950   28.3320   45.3840 C   0  0  0  0  0  0  0  0  0  0  0  0
   60.2242   27.7154   44.5805 H   0  0  0  0  0  0  0  0  0  0  0  0
   59.6410   29.7100   45.2010 C   0  0  0  0  0  0  0  0  0  0  0  0
   59.9387   30.1735   44.2489 H   0  0  0  0  0  0  0  0  0  0  0  0
   59.1070   30.5040   46.2300 C   0  0  0  0  0  0  0  0  0  0  0  0
   58.9020   31.9580   46.0300 C   0  0  0  0  0  0  0  0  0  0  0  0
   59.9660   32.8310   46.3560 C   0  0  0  0  0  0  0  0  0  0  0  0
   61.4310   32.2660   47.1610 Cl  0  0  0  0  0  0  0  0  0  0  0  0
   59.9140   34.1710   45.9820 C   0  0  0  0  0  0  0  0  0  0  0  0
   60.7287   34.8554   46.2610 H   0  0  0  0  0  0  0  0  0  0  0  0
   58.8280   34.6380   45.2550 C   0  0  0  0  0  0  0  0  0  0  0  0
   58.7975   35.6885   44.9301 H   0  0  0  0  0  0  0  0  0  0  0  0
   57.8030   33.8040   44.9430 N   0  0  0  0  0  0  0  0  0  0  0  0
   56.9950   34.2010   44.4100 H   0  0  0  0  0  0  0  0  0  0  0  0
   57.7690   32.4980   45.3420 C   0  0  0  0  0  0  0  0  0  0  0  0
   56.6850   31.8210   45.0590 N   0  0  0  0  0  0  0  0  0  0  0  0
   56.5180   30.5340   44.4480 C   0  0  0  0  0  0  0  0  0  0  0  0
   55.7040   29.7020   44.9320 O   0  0  0  0  0  0  0  0  0  0  0  0
   57.1420   30.2780   43.1030 C   0  0  0  0  0  0  0  0  0  0  0  0
   58.1137   29.7881   43.2635 H   0  0  0  0  0  0  0  0  0  0  0  0
   56.2810   29.3300   42.2600 C   0  0  0  0  0  0  0  0  0  0  0  0
   55.6917   28.6812   42.9246 H   0  0  0  0  0  0  0  0  0  0  0  0
   55.6019   29.9182   41.6253 H   0  0  0  0  0  0  0  0  0  0  0  0
   56.9316   28.7105   41.6253 H   0  0  0  0  0  0  0  0  0  0  0  0
   57.3740   31.6000   42.3680 C   0  0  0  0  0  0  0  0  0  0  0  0
   57.5157   32.4074   43.1015 H   0  0  0  0  0  0  0  0  0  0  0  0
   58.2712   31.5162   41.7371 H   0  0  0  0  0  0  0  0  0  0  0  0
   56.5019   31.8267   41.7371 H   0  0  0  0  0  0  0  0  0  0  0  0
   58.7090   29.8990   47.4330 C   0  0  0  0  0  0  0  0  0  0  0  0
   58.2799   30.5116   48.2396 H   0  0  0  0  0  0  0  0  0  0  0  0
   58.8570   28.5190   47.6080 C   0  0  0  0  0  0  0  0  0  0  0  0
   58.5422   28.0481   48.5510 H   0  0  0  0  0  0  0  0  0  0  0  0
  1  2  1  0
  2  3  2  0
  3  4  1  0
  3  5  1  0
  5  6  1  0
  5  7  2  0
  7  8  1  0
  8  9  2  0
  9 10  1  0
  9 11  1  0
 11 12  1  0
 11 13  2  0
 13 14  1  0
 13 15  1  0
 15 16  1  0
 15 17  1  0
 17 18  2  0
 18 19  1  0
 19 20  2  0
 19 21  1  0
 21 22  1  0
 21 23  1  0
 23 24  1  0
 23 25  1  0
 23 26  1  0
 21 27  1  0
 27 28  1  0
 27 29  1  0
 27 30  1  0
  7 31  1  0
 31 32  1  0
 31 33  2  0
 33 34  1  0
 33  2  1  0
 17  8  1  0
M  END
>  <UniqueID>  (72) 
69

>  <SMILES>  (72) 
CC(C)C(=O)/N=c1/[nH]ccc(Cl)c1-c1ccccc1

>  <Energy>  (72) 
51.881100530219506

>  <Genealogy>  (72) 
CC(C)C(=O)/N=c1/[nH]ccc(Cl)c1-c1ccccc1 (cis-trans isomerization)
CC(C)C(=O)/N=c1/[nH]ccc(Cl)c1-c1ccccc1 (3D coordinates assigned)
CC(C)C(=O)/N=c1/[nH]ccc(Cl)c1-c1ccccc1 (optimized conformer: 51.881100530219506 kcal/mol)

>  <smiles>  (72) 
CC(C)C(=O)N=c1[nH]ccc(Cl)c1-c1ccccc1

>  <score_type>  (72) 
oracle

>  <origin>  (72) 
adg

>  <m_score__min__energy>  (72) 
-7.1900000000000004

>  <m_primary>  (72) 
energy

$$$$
73:0
     RDKit          3D

 32 33  0  0  0  0  0  0  0  0999 V2000
   59.7090   35.6140   45.8550 C   0  0  0  0  0  0  0  0  0  0  0  0
   60.1390   34.3190   46.4860 C   0  0  0  0  0  0  0  0  0  0  0  0
   61.4960   34.0890   46.7690 C   0  0  0  0  0  0  0  0  0  0  0  0
   61.9020   32.8880   47.3570 C   0  0  0  0  0  0  0  0  0  0  0  0
   63.5980   32.6110   47.7050 Cl  0  0  0  0  0  0  0  0  0  0  0  0
   60.9560   31.9090   47.6670 C   0  0  0  0  0  0  0  0  0  0  0  0
   59.6040   32.1260   47.3910 C   0  0  0  0  0  0  0  0  0  0  0  0
   59.1830   33.3330   46.7990 C   0  0  0  0  0  0  0  0  0  0  0  0
   57.8310   33.5840   46.5080 O   0  0  0  0  0  0  0  0  0  0  0  0
   57.1430   33.0860   45.3630 C   0  0  0  0  0  0  0  0  0  0  0  0
   58.1280   32.4650   44.4170 C   0  0  0  0  0  0  0  0  0  0  0  0
   58.5640   33.1450   43.4500 O   0  0  0  0  0  0  0  0  0  0  0  0
   58.5640   31.1060   44.5580 N   0  0  0  0  0  0  0  0  0  0  0  0
   57.7600   29.9850   44.9540 C   0  0  0  0  0  0  0  0  0  0  0  0
   58.3340   28.8180   45.4850 C   0  0  0  0  0  0  0  0  0  0  0  0
   57.5230   27.7350   45.8290 C   0  0  0  0  0  0  0  0  0  0  0  0
   56.1420   27.8180   45.6210 C   0  0  0  0  0  0  0  0  0  0  0  0
   55.3080   26.7540   45.9560 O   0  0  0  0  0  0  0  0  0  0  0  0
   55.6070   28.9450   45.0820 N   0  0  0  0  0  0  0  0  0  0  0  0
   56.3740   30.0140   44.7390 C   0  0  0  0  0  0  0  0  0  0  0  0
   55.8300   31.0320   44.2360 O   0  0  0  0  0  0  0  0  0  0  0  0
   59.4669   36.3430   46.6424 H   0  0  0  0  0  0  0  0  0  0  0  0
   60.5251   36.0063   45.2304 H   0  0  0  0  0  0  0  0  0  0  0  0
   58.8203   35.4403   45.2304 H   0  0  0  0  0  0  0  0  0  0  0  0
   62.2432   34.8589   46.5263 H   0  0  0  0  0  0  0  0  0  0  0  0
   61.2764   30.9640   48.1300 H   0  0  0  0  0  0  0  0  0  0  0  0
   58.8640   31.3502   47.6372 H   0  0  0  0  0  0  0  0  0  0  0  0
   56.4092   32.3291   45.6769 H   0  0  0  0  0  0  0  0  0  0  0  0
   56.6236   33.9143   44.8590 H   0  0  0  0  0  0  0  0  0  0  0  0
   59.4227   28.7575   45.6298 H   0  0  0  0  0  0  0  0  0  0  0  0
   57.9657   26.8248   46.2596 H   0  0  0  0  0  0  0  0  0  0  0  0
   54.3460   26.7170   45.6430 H   0  0  0  0  0  0  0  0  0  0  0  0
  1  2  1  0
  2  3  2  0
  3  4  1  0
  4  5  1  0
  4  6  2  0
  6  7  1  0
  7  8  2  0
  8  9  1  0
  9 10  1  0
 10 11  1  0
 11 12  2  0
 11 13  1  0
 13 14  1  0
 14 15  2  0
 15 16  1  0
 16 17  2  0
 17 18  1  0
 17 19  1  0
 19 20  1  0
 20 21  2  0
  8  2  1  0
 20 14  1  0
  1 22  1  0
  1 23  1  0
  1 24  1  0
  3 25  1  0
  6 26  1  0
  7 27  1  0
 10 28  1  0
 10 29  1  0
 15 30  1  0
 16 31  1  0
 18 32  1  0
M  CHG  2  13  -1  19  -1
M  END
>  <UniqueID>  (73) 
70

>  <SMILES>  (73) 
Cc1cc(Cl)ccc1OCC(=O)[N-]c1ccc(O)[n-]c1=O

>  <Energy>  (73) 
36.65046775996019

>  <Genealogy>  (73) 
Cc1cc(Cl)ccc1OCC(=O)[N-]c1ccc(O)[n-]c1=O (protonated)
Cc1cc(Cl)ccc1OCC(=O)[N-]c1ccc(O)[n-]c1=O (3D coordinates assigned)
Cc1cc(Cl)ccc1OCC(=O)[N-]c1ccc(O)[n-]c1=O (optimized conformer: 36.65046775996019 kcal/mol)

>  <smiles>  (73) 
Cc1cc(Cl)ccc1OCC(=O)Nc1ccc(O)[nH]c1=O

>  <score_type>  (73) 
oracle

>  <origin>  (73) 
adg

>  <m_score__min__energy>  (73) 
-11.6

>  <m_primary>  (73) 
energy

$$$$
74:0
     RDKit          3D

 49 52  0  0  0  0  0  0  0  0999 V2000
   62.3924   33.3765   50.2608 H   0  0  0  0  0  0  0  0  0  0  0  0
   61.4280   33.5070   49.7480 C   0  0  0  0  0  0  0  0  0  0  0  0
   60.3010   32.6550   50.1910 C   0  0  0  0  0  0  0  0  0  0  0  0
   59.6880   32.9260   51.2620 O   0  0  0  0  0  0  0  0  0  0  0  0
   59.9690   31.4540   49.4540 N   0  0  0  0  0  0  0  0  0  0  0  0
   59.0480   31.6070   48.9770 H   0  0  0  0  0  0  0  0  0  0  0  0
   60.9950   31.1960   48.4120 C   0  0  0  0  0  0  0  0  0  0  0  0
   61.9784   31.4785   48.8158 H   0  0  0  0  0  0  0  0  0  0  0  0
   60.7150   31.7926   47.5313 H   0  0  0  0  0  0  0  0  0  0  0  0
   61.0610   29.7210   47.9550 C   0  0  0  0  0  0  0  0  0  0  0  0
   61.9220   29.2379   48.4401 H   0  0  0  0  0  0  0  0  0  0  0  0
   61.1614   29.7107   46.8596 H   0  0  0  0  0  0  0  0  0  0  0  0
   59.8450   28.9790   48.3030 N   0  0  0  0  0  0  0  0  0  0  0  0
   59.2820   28.0620   47.3620 C   0  0  0  0  0  0  0  0  0  0  0  0
   59.5310   26.7250   47.4870 N   0  0  0  0  0  0  0  0  0  0  0  0
   59.0180   25.8010   46.6180 C   0  0  0  0  0  0  0  0  0  0  0  0
   59.2459   24.7341   46.7586 H   0  0  0  0  0  0  0  0  0  0  0  0
   58.1990   26.2060   45.5430 C   0  0  0  0  0  0  0  0  0  0  0  0
   57.6260   25.2110   44.5770 C   0  0  0  0  0  0  0  0  0  0  0  0
   57.1528   24.3893   45.1345 H   0  0  0  0  0  0  0  0  0  0  0  0
   56.8743   25.7054   43.9441 H   0  0  0  0  0  0  0  0  0  0  0  0
   58.4309   24.8089   43.9441 H   0  0  0  0  0  0  0  0  0  0  0  0
   57.9470   27.5760   45.4200 C   0  0  0  0  0  0  0  0  0  0  0  0
   58.4710   28.4850   46.3030 C   0  0  0  0  0  0  0  0  0  0  0  0
   58.0300   29.7330   45.8980 C   0  0  0  0  0  0  0  0  0  0  0  0
   58.3550   31.2970   46.6200 Cl  0  0  0  0  0  0  0  0  0  0  0  0
   57.2490   29.5110   44.7730 C   0  0  0  0  0  0  0  0  0  0  0  0
   56.7403   30.2982   44.1972 H   0  0  0  0  0  0  0  0  0  0  0  0
   57.2010   28.1920   44.4840 N   0  0  0  0  0  0  0  0  0  0  0  0
   56.6850   27.7500   43.6910 H   0  0  0  0  0  0  0  0  0  0  0  0
   59.2200   29.1190   49.6200 C   0  0  0  0  0  0  0  0  0  0  0  0
   59.3924   28.2012   50.2013 H   0  0  0  0  0  0  0  0  0  0  0  0
   58.1414   29.2868   49.4844 H   0  0  0  0  0  0  0  0  0  0  0  0
   59.8140   30.3120   50.3750 C   0  0  0  0  0  0  0  0  0  0  0  0
   60.7973   30.0344   50.7825 H   0  0  0  0  0  0  0  0  0  0  0  0
   59.1408   30.5952   51.1976 H   0  0  0  0  0  0  0  0  0  0  0  0
   61.3680   34.4250   48.7720 C   0  0  0  0  0  0  0  0  0  0  0  0
   62.0858   35.2573   48.8163 H   0  0  0  0  0  0  0  0  0  0  0  0
   60.4150   34.4090   47.6410 C   0  0  0  0  0  0  0  0  0  0  0  0
   59.0350   34.5960   47.8450 C   0  0  0  0  0  0  0  0  0  0  0  0
   58.6527   34.7933   48.8574 H   0  0  0  0  0  0  0  0  0  0  0  0
   58.1480   34.5320   46.7660 C   0  0  0  0  0  0  0  0  0  0  0  0
   57.0725   34.6967   46.9280 H   0  0  0  0  0  0  0  0  0  0  0  0
   58.6270   34.2590   45.4820 C   0  0  0  0  0  0  0  0  0  0  0  0
   57.7660   34.1940   44.4360 F   0  0  0  0  0  0  0  0  0  0  0  0
   59.9920   34.0400   45.2770 C   0  0  0  0  0  0  0  0  0  0  0  0
   60.3669   33.8170   44.2672 H   0  0  0  0  0  0  0  0  0  0  0  0
   60.8820   34.1040   46.3540 C   0  0  0  0  0  0  0  0  0  0  0  0
   61.9532   33.9143   46.1910 H   0  0  0  0  0  0  0  0  0  0  0  0
  1  2  1  0
  2  3  1  0
  3  4  2  0
  3  5  1  0
  5  6  1  0
  5  7  1  0
  7  8  1  0
  7  9  1  0
  7 10  1  0
 10 11  1  0
 10 12  1  0
 10 13  1  0
 13 14  1  0
 14 15  2  0
 15 16  1  0
 16 17  1  0
 16 18  2  0
 18 19  1  0
 19 20  1  0
 19 21  1  0
 19 22  1  0
 18 23  1  0
 23 24  2  0
 24 25  1  0
 25 26  1  0
 25 27  2  0
 27 28  1  0
 27 29  1  0
 29 30  1  0
 13 31  1  0
 31 32  1  0
 31 33  1  0
 31 34  1  0
 34 35  1  0
 34 36  1  0
  2 37  2  0
 37 38  1  0
 37 39  1  0
 39 40  2  0
 40 41  1  0
 40 42  1  0
 42 43  1  0
 42 44  2  0
 44 45  1  0
 44 46  1  0
 46 47  1  0
 46 48  2  0
 48 49  1  0
 34  5  1  0
 48 39  1  0
 24 14  1  0
 29 23  1  0
M  CHG  1   5   1
M  END
>  <UniqueID>  (74) 
71

>  <SMILES>  (74) 
Cc1cnc(N2CC[NH+](C(=O)/C=C\c3ccc(F)cc3)CC2)c2c(Cl)c[nH]c12

>  <Energy>  (74) 
107.57676378396596

>  <Genealogy>  (74) 
Cc1cnc(N2CC[NH+](C(=O)C=Cc3ccc(F)cc3)CC2)c2c(Cl)c[nH]c12 (protonated)
Cc1cnc(N2CC[NH+](C(=O)/C=C\c3ccc(F)cc3)CC2)c2c(Cl)c[nH]c12 (cis-trans isomerization)
Cc1cnc(N2CC[NH+](C(=O)/C=C\c3ccc(F)cc3)CC2)c2c(Cl)c[nH]c12 (3D coordinates assigned)
Cc1cnc(N2CC[NH+](C(=O)/C=C\c3ccc(F)cc3)CC2)c2c(Cl)c[nH]c12 (nonaromatic ring conformer: 107.57676378396596 kcal/mol)

>  <smiles>  (74) 
Cc1cnc(N2CCN(C(=O)C=Cc3ccc(F)cc3)CC2)c2c(Cl)c[nH]c12

>  <score_type>  (74) 
oracle

>  <origin>  (74) 
adg

>  <m_score__min__energy>  (74) 
-6.4400000000000004

>  <m_primary>  (74) 
energy

$$$$
75:0
     RDKit          3D

 47 49  0  0  0  0  0  0  0  0999 V2000
   54.7460   26.3070   45.8220 N   0  0  0  0  0  0  0  0  0  0  0  0
   56.0790   26.2500   46.3270 C   0  0  0  0  0  0  0  0  0  0  0  0
   56.3800   25.3560   47.1620 O   0  0  0  0  0  0  0  0  0  0  0  0
   57.0960   27.2300   45.8790 C   0  0  0  0  0  0  0  0  0  0  0  0
   58.4430   27.0830   46.2590 C   0  0  0  0  0  0  0  0  0  0  0  0
   59.4020   28.0100   45.8410 C   0  0  0  0  0  0  0  0  0  0  0  0
   59.0310   29.0940   45.0450 C   0  0  0  0  0  0  0  0  0  0  0  0
   57.6930   29.2590   44.6560 C   0  0  0  0  0  0  0  0  0  0  0  0
   57.2880   30.4460   43.8130 C   0  0  0  0  0  0  0  0  0  0  0  0
   56.5280   31.4490   44.5810 N   0  0  0  0  0  0  0  0  0  0  0  0
   57.1750   32.7700   44.6150 C   0  0  0  0  0  0  0  0  0  0  0  0
   58.0170   32.9370   45.8540 C   0  0  0  0  0  0  0  0  0  0  0  0
   58.5600   34.1890   46.1830 C   0  0  0  0  0  0  0  0  0  0  0  0
   59.3580   34.3340   47.3210 C   0  0  0  0  0  0  0  0  0  0  0  0
   59.6270   33.2280   48.1410 C   0  0  0  0  0  0  0  0  0  0  0  0
   60.4770   33.3840   49.3370 C   0  0  0  0  0  0  0  0  0  0  0  0
   59.8540   33.5790   50.5800 C   0  0  0  0  0  0  0  0  0  0  0  0
   60.6140   33.7000   51.7440 C   0  0  0  0  0  0  0  0  0  0  0  0
   62.0050   33.6270   51.6800 C   0  0  0  0  0  0  0  0  0  0  0  0
   62.6410   33.4470   50.4500 C   0  0  0  0  0  0  0  0  0  0  0  0
   61.8930   33.3360   49.2680 C   0  0  0  0  0  0  0  0  0  0  0  0
   62.7550   33.1710   47.7280 S   0  0  0  0  0  0  0  0  0  0  0  0
   64.4460   33.4420   47.9580 N   0  0  0  0  0  0  0  0  0  0  0  0
   62.2460   34.1800   46.7360 O   0  0  0  0  0  0  0  0  0  0  0  0
   62.5510   31.7850   47.1830 O   0  0  0  0  0  0  0  0  0  0  0  0
   59.0600   31.9830   47.8290 C   0  0  0  0  0  0  0  0  0  0  0  0
   58.2630   31.8380   46.6920 C   0  0  0  0  0  0  0  0  0  0  0  0
   56.7320   28.3240   45.0730 C   0  0  0  0  0  0  0  0  0  0  0  0
   53.9720   26.7170   46.3920 H   0  0  0  0  0  0  0  0  0  0  0  0
   58.7432   26.2329   46.8892 H   0  0  0  0  0  0  0  0  0  0  0  0
   60.4529   27.8844   46.1407 H   0  0  0  0  0  0  0  0  0  0  0  0
   59.7898   29.8216   44.7213 H   0  0  0  0  0  0  0  0  0  0  0  0
   58.1959   30.9212   43.4131 H   0  0  0  0  0  0  0  0  0  0  0  0
   56.6367   30.0775   43.0068 H   0  0  0  0  0  0  0  0  0  0  0  0
   55.5790   31.5580   44.1520 H   0  0  0  0  0  0  0  0  0  0  0  0
   57.8173   32.8771   43.7284 H   0  0  0  0  0  0  0  0  0  0  0  0
   56.3899   33.5405   44.6229 H   0  0  0  0  0  0  0  0  0  0  0  0
   58.3565   35.0597   45.5423 H   0  0  0  0  0  0  0  0  0  0  0  0
   59.7768   35.3190   47.5747 H   0  0  0  0  0  0  0  0  0  0  0  0
   58.7570   33.6369   50.6368 H   0  0  0  0  0  0  0  0  0  0  0  0
   60.1155   33.8531   52.7126 H   0  0  0  0  0  0  0  0  0  0  0  0
   62.6022   33.7113   52.5999 H   0  0  0  0  0  0  0  0  0  0  0  0
   63.7388   33.3917   50.4072 H   0  0  0  0  0  0  0  0  0  0  0  0
   64.9320   33.0870   47.1040 H   0  0  0  0  0  0  0  0  0  0  0  0
   59.2442   31.1178   48.4829 H   0  0  0  0  0  0  0  0  0  0  0  0
   57.8256   30.8577   46.4516 H   0  0  0  0  0  0  0  0  0  0  0  0
   55.6830   28.4483   44.7661 H   0  0  0  0  0  0  0  0  0  0  0  0
  1  2  1  0
  2  3  2  0
  2  4  1  0
  4  5  2  0
  5  6  1  0
  6  7  2  0
  7  8  1  0
  8  9  1  0
  9 10  1  0
 10 11  1  0
 11 12  1  0
 12 13  2  0
 13 14  1  0
 14 15  2  0
 15 16  1  0
 16 17  2  0
 17 18  1  0
 18 19  2  0
 19 20  1  0
 20 21  2  0
 21 22  1  0
 22 23  1  0
 22 24  2  0
 22 25  2  0
 15 26  1  0
 26 27  2  0
  8 28  2  0
 28  4  1  0
 27 12  1  0
 21 16  1  0
  1 29  1  0
  5 30  1  0
  6 31  1  0
  7 32  1  0
  9 33  1  0
  9 34  1  0
 10 35  1  0
 11 36  1  0
 11 37  1  0
 13 38  1  0
 14 39  1  0
 17 40  1  0
 18 41  1  0
 19 42  1  0
 20 43  1  0
 23 44  1  0
 26 45  1  0
 27 46  1  0
 28 47  1  0
M  CHG  2   1  -1  23  -1
M  END
>  <UniqueID>  (75) 
72

>  <SMILES>  (75) 
[NH-]C(=O)c1cccc(CNCc2ccc(-c3ccccc3S([NH-])(=O)=O)cc2)c1

>  <Energy>  (75) 
57.21037840146847

>  <Genealogy>  (75) 
[NH-]C(=O)c1cccc(CNCc2ccc(-c3ccccc3S([NH-])(=O)=O)cc2)c1 (protonated)
[NH-]C(=O)c1cccc(CNCc2ccc(-c3ccccc3S([NH-])(=O)=O)cc2)c1 (3D coordinates assigned)
[NH-]C(=O)c1cccc(CNCc2ccc(-c3ccccc3S([NH-])(=O)=O)cc2)c1 (optimized conformer: 57.21037840146847 kcal/mol)

>  <smiles>  (75) 
NC(=O)c1cccc(CNCc2ccc(-c3ccccc3S(N)(=O)=O)cc2)c1

>  <score_type>  (75) 
oracle

>  <origin>  (75) 
adg

>  <m_score__min__energy>  (75) 
-13.93

>  <m_primary>  (75) 
energy

$$$$
76:0
     RDKit          3D

 52 55  0  0  0  0  0  0  0  0999 V2000
   58.0270   28.1520   44.0920 C   0  0  0  0  0  0  0  0  0  0  0  0
   58.0330   29.4830   44.1060 C   0  0  0  0  0  0  0  0  0  0  0  0
   57.0250   30.2720   44.8360 C   0  0  0  0  0  0  0  0  0  0  0  0
   55.8100   30.1310   44.5360 O   0  0  0  0  0  0  0  0  0  0  0  0
   57.4170   31.1370   45.9120 N   0  0  0  0  0  0  0  0  0  0  0  0
   57.9800   32.4560   45.8040 C   0  0  0  0  0  0  0  0  0  0  0  0
   58.4250   32.9600   44.5660 C   0  0  0  0  0  0  0  0  0  0  0  0
   59.0600   34.2040   44.4940 C   0  0  0  0  0  0  0  0  0  0  0  0
   59.2850   34.9460   45.6540 C   0  0  0  0  0  0  0  0  0  0  0  0
   58.8690   34.4490   46.8910 C   0  0  0  0  0  0  0  0  0  0  0  0
   58.2030   33.2170   46.9770 C   0  0  0  0  0  0  0  0  0  0  0  0
   57.8140   32.7440   48.2740 N   0  0  0  0  0  0  0  0  0  0  0  0
   58.5730   31.8520   49.0990 C   0  0  0  0  0  0  0  0  0  0  0  0
   58.7040   32.0790   50.3340 O   0  0  0  0  0  0  0  0  0  0  0  0
   59.2360   30.6840   48.5040 C   0  0  0  0  0  0  0  0  0  0  0  0
   60.2640   30.7820   47.5680 C   0  0  0  0  0  0  0  0  0  0  0  0
   60.7270   29.2210   47.1400 S   0  0  0  0  0  0  0  0  0  0  0  0
   59.6280   28.4970   48.1790 C   0  0  0  0  0  0  0  0  0  0  0  0
   59.4100   27.0790   48.2340 N   0  0  0  0  0  0  0  0  0  0  0  0
   58.8570   26.3080   47.3390 C   0  0  0  0  0  0  0  0  0  0  0  0
   57.4780   26.3300   47.0510 C   0  0  0  0  0  0  0  0  0  0  0  0
   56.9600   25.4530   46.0960 C   0  0  0  0  0  0  0  0  0  0  0  0
   57.8000   24.5420   45.4340 C   0  0  0  0  0  0  0  0  0  0  0  0
   57.2690   23.6160   44.4600 N   0  0  0  0  0  0  0  0  0  0  0  0
   57.4950   22.1700   44.5980 C   0  0  0  0  0  0  0  0  0  0  0  0
   57.4410   21.4910   43.2230 C   0  0  0  0  0  0  0  0  0  0  0  0
   56.1780   21.7500   42.5010 N   0  0  0  0  0  0  0  0  0  0  0  0
   55.4950   23.0070   42.8620 C   0  0  0  0  0  0  0  0  0  0  0  0
   56.4630   24.1010   43.3310 C   0  0  0  0  0  0  0  0  0  0  0  0
   59.1660   24.5480   45.7580 C   0  0  0  0  0  0  0  0  0  0  0  0
   59.6490   25.4120   46.6890 N   0  0  0  0  0  0  0  0  0  0  0  0
   58.8710   29.4130   48.8250 N   0  0  0  0  0  0  0  0  0  0  0  0
   58.8000   27.6044   43.5330 H   0  0  0  0  0  0  0  0  0  0  0  0
   57.2490   27.5997   44.6395 H   0  0  0  0  0  0  0  0  0  0  0  0
   58.8205   30.0143   43.5514 H   0  0  0  0  0  0  0  0  0  0  0  0
   58.2720   32.3710   43.6497 H   0  0  0  0  0  0  0  0  0  0  0  0
   59.3832   34.5988   43.5195 H   0  0  0  0  0  0  0  0  0  0  0  0
   59.7896   35.9216   45.5942 H   0  0  0  0  0  0  0  0  0  0  0  0
   59.0650   35.0281   47.8054 H   0  0  0  0  0  0  0  0  0  0  0  0
   60.6966   31.7150   47.1777 H   0  0  0  0  0  0  0  0  0  0  0  0
   56.8140   27.0333   47.5749 H   0  0  0  0  0  0  0  0  0  0  0  0
   55.8858   25.4755   45.8601 H   0  0  0  0  0  0  0  0  0  0  0  0
   58.4833   21.9983   45.0494 H   0  0  0  0  0  0  0  0  0  0  0  0
   56.7096   21.7438   45.2396 H   0  0  0  0  0  0  0  0  0  0  0  0
   58.2765   21.8661   42.6137 H   0  0  0  0  0  0  0  0  0  0  0  0
   57.5089   20.4057   43.3888 H   0  0  0  0  0  0  0  0  0  0  0  0
   56.3880   21.7690   41.4740 H   0  0  0  0  0  0  0  0  0  0  0  0
   54.9498   23.3755   41.9806 H   0  0  0  0  0  0  0  0  0  0  0  0
   54.8179   22.7850   43.7000 H   0  0  0  0  0  0  0  0  0  0  0  0
   57.1297   24.3766   42.5006 H   0  0  0  0  0  0  0  0  0  0  0  0
   55.8835   24.9782   43.6546 H   0  0  0  0  0  0  0  0  0  0  0  0
   59.8499   23.8486   45.2549 H   0  0  0  0  0  0  0  0  0  0  0  0
  1  2  2  0
  2  3  1  0
  3  4  2  0
  3  5  1  0
  5  6  1  0
  6  7  2  0
  7  8  1  0
  8  9  2  0
  9 10  1  0
 10 11  2  0
 11 12  1  0
 12 13  1  0
 13 14  2  0
 13 15  1  0
 15 16  2  0
 16 17  1  0
 17 18  1  0
 18 19  1  0
 19 20  2  3
 20 21  1  0
 21 22  2  0
 22 23  1  0
 23 24  1  0
 24 25  1  0
 25 26  1  0
 26 27  1  0
 27 28  1  0
 28 29  1  0
 23 30  2  0
 30 31  1  0
 18 32  2  0
 11  6  1  0
 32 15  1  0
 31 20  1  0
 29 24  1  0
  1 33  1  0
  1 34  1  0
  2 35  1  0
  7 36  1  0
  8 37  1  0
  9 38  1  0
 10 39  1  0
 16 40  1  0
 21 41  1  0
 22 42  1  0
 25 43  1  0
 25 44  1  0
 26 45  1  0
 26 46  1  0
 27 47  1  0
 28 48  1  0
 28 49  1  0
 29 50  1  0
 29 51  1  0
 30 52  1  0
M  CHG  3   5  -1  12  -1  31  -1
M  END
>  <UniqueID>  (76) 
73

>  <SMILES>  (76) 
C=CC(=O)[N-]c1ccccc1[N-]C(=O)c1csc(N=c2ccc(N3CCNCC3)c[n-]2)n1

>  <Energy>  (76) 
106.87357462893057

>  <Genealogy>  (76) 
C=CC(=O)[N-]c1ccccc1[N-]C(=O)c1csc(N=c2ccc(N3CCNCC3)c[n-]2)n1 (protonated)
C=CC(=O)[N-]c1ccccc1[N-]C(=O)c1csc(N=c2ccc(N3CCNCC3)c[n-]2)n1 (3D coordinates assigned)
C=CC(=O)[N-]c1ccccc1[N-]C(=O)c1csc(N=c2ccc(N3CCNCC3)c[n-]2)n1 (nonaromatic ring conformer: 106.87357462893057 kcal/mol)

>  <smiles>  (76) 
C=CC(=O)Nc1ccccc1NC(=O)c1csc(N=c2ccc(N3CCNCC3)c[nH]2)n1

>  <score_type>  (76) 
oracle

>  <origin>  (76) 
adg

>  <m_score__min__energy>  (76) 
-15.15

>  <m_primary>  (76) 
energy

$$$$
77:0
     RDKit          3D

 41 43  0  0  0  0  0  0  0  0999 V2000
   55.3440   29.3550   45.0110 O   0  0  0  0  0  0  0  0  0  0  0  0
   56.3910   29.8010   44.4720 C   0  0  0  0  0  0  0  0  0  0  0  0
   57.3820   28.8340   43.8740 C   0  0  0  0  0  0  0  0  0  0  0  0
   58.4000   28.3610   44.8810 C   0  0  0  0  0  0  0  0  0  0  0  0
   59.7680   28.6240   44.6930 C   0  0  0  0  0  0  0  0  0  0  0  0
   60.7090   28.1730   45.6260 C   0  0  0  0  0  0  0  0  0  0  0  0
   60.2910   27.4700   46.7600 C   0  0  0  0  0  0  0  0  0  0  0  0
   58.9310   27.2260   46.9690 C   0  0  0  0  0  0  0  0  0  0  0  0
   57.9890   27.6750   46.0370 C   0  0  0  0  0  0  0  0  0  0  0  0
   56.5730   31.2210   44.3810 N   0  0  0  0  0  0  0  0  0  0  0  0
   57.3570   31.9920   45.2930 C   0  0  0  0  0  0  0  0  0  0  0  0
   58.1610   31.3430   46.2350 C   0  0  0  0  0  0  0  0  0  0  0  0
   58.9210   32.0870   47.1430 C   0  0  0  0  0  0  0  0  0  0  0  0
   58.9060   33.4940   47.1000 C   0  0  0  0  0  0  0  0  0  0  0  0
   59.6290   34.2650   48.0800 N   0  0  0  0  0  0  0  0  0  0  0  0
   61.0330   33.9440   47.9990 C   0  0  0  0  0  0  0  0  0  0  0  0
   61.7990   33.7930   49.1710 C   0  0  0  0  0  0  0  0  0  0  0  0
   63.1710   33.5330   49.0910 C   0  0  0  0  0  0  0  0  0  0  0  0
   63.7910   33.4260   47.8420 C   0  0  0  0  0  0  0  0  0  0  0  0
   63.0400   33.5820   46.6700 C   0  0  0  0  0  0  0  0  0  0  0  0
   61.6690   33.8430   46.7470 C   0  0  0  0  0  0  0  0  0  0  0  0
   58.1260   34.1400   46.1260 C   0  0  0  0  0  0  0  0  0  0  0  0
   57.3720   33.3920   45.2180 C   0  0  0  0  0  0  0  0  0  0  0  0
   56.8353   27.9614   43.4872 H   0  0  0  0  0  0  0  0  0  0  0  0
   57.9214   29.3585   43.0715 H   0  0  0  0  0  0  0  0  0  0  0  0
   60.1006   29.1869   43.8084 H   0  0  0  0  0  0  0  0  0  0  0  0
   61.7791   28.3720   45.4668 H   0  0  0  0  0  0  0  0  0  0  0  0
   61.0327   27.1090   47.4877 H   0  0  0  0  0  0  0  0  0  0  0  0
   58.6012   26.6812   47.8659 H   0  0  0  0  0  0  0  0  0  0  0  0
   56.9186   27.4898   46.2102 H   0  0  0  0  0  0  0  0  0  0  0  0
   58.1958   30.2439   46.2619 H   0  0  0  0  0  0  0  0  0  0  0  0
   59.5343   31.5696   47.8955 H   0  0  0  0  0  0  0  0  0  0  0  0
   59.2670   34.0580   49.0420 H   0  0  0  0  0  0  0  0  0  0  0  0
   59.4820   35.2890   47.9150 H   0  0  0  0  0  0  0  0  0  0  0  0
   61.3155   33.8800   50.1552 H   0  0  0  0  0  0  0  0  0  0  0  0
   63.7624   33.4127   50.0106 H   0  0  0  0  0  0  0  0  0  0  0  0
   64.8696   33.2191   47.7799 H   0  0  0  0  0  0  0  0  0  0  0  0
   63.5295   33.4991   45.6884 H   0  0  0  0  0  0  0  0  0  0  0  0
   61.0837   33.9702   45.8243 H   0  0  0  0  0  0  0  0  0  0  0  0
   58.1089   35.2388   46.0781 H   0  0  0  0  0  0  0  0  0  0  0  0
   56.7870   33.9044   44.4400 H   0  0  0  0  0  0  0  0  0  0  0  0
  1  2  2  0
  2  3  1  0
  3  4  1  0
  4  5  2  0
  5  6  1  0
  6  7  2  0
  7  8  1  0
  8  9  2  0
  2 10  1  0
 10 11  1  0
 11 12  2  0
 12 13  1  0
 13 14  2  0
 14 15  1  0
 15 16  1  0
 16 17  2  0
 17 18  1  0
 18 19  2  0
 19 20  1  0
 20 21  2  0
 14 22  1  0
 22 23  2  0
  9  4  1  0
 23 11  1  0
 21 16  1  0
  3 24  1  0
  3 25  1  0
  5 26  1  0
  6 27  1  0
  7 28  1  0
  8 29  1  0
  9 30  1  0
 12 31  1  0
 13 32  1  0
 15 33  1  0
 15 34  1  0
 17 35  1  0
 18 36  1  0
 19 37  1  0
 20 38  1  0
 21 39  1  0
 22 40  1  0
 23 41  1  0
M  CHG  2  10  -1  15   1
M  END
>  <UniqueID>  (77) 
74

>  <SMILES>  (77) 
O=C(Cc1ccccc1)[N-]c1ccc([NH2+]c2ccccc2)cc1

>  <Energy>  (77) 
49.46881838590519

>  <Genealogy>  (77) 
O=C(Cc1ccccc1)[N-]c1ccc([NH2+]c2ccccc2)cc1 (protonated)
O=C(Cc1ccccc1)[N-]c1ccc([NH2+]c2ccccc2)cc1 (3D coordinates assigned)
O=C(Cc1ccccc1)[N-]c1ccc([NH2+]c2ccccc2)cc1 (optimized conformer: 49.46881838590519 kcal/mol)

>  <smiles>  (77) 
O=C(Cc1ccccc1)Nc1ccc(Nc2ccccc2)cc1

>  <score_type>  (77) 
oracle

>  <origin>  (77) 
adg

>  <m_score__min__energy>  (77) 
-8.5800000000000001

>  <m_primary>  (77) 
energy

$$$$
78:0
     RDKit          3D

 47 49  0  0  0  0  0  0  0  0999 V2000
   59.2631   34.9111   48.1098 H   0  0  0  0  0  0  0  0  0  0  0  0
   58.9680   34.4750   47.1440 C   0  0  0  0  0  0  0  0  0  0  0  0
   57.9490   33.5200   47.0910 C   0  0  0  0  0  0  0  0  0  0  0  0
   57.4438   33.2038   48.0155 H   0  0  0  0  0  0  0  0  0  0  0  0
   57.5710   32.9660   45.8640 C   0  0  0  0  0  0  0  0  0  0  0  0
   56.7708   32.2122   45.8262 H   0  0  0  0  0  0  0  0  0  0  0  0
   58.2100   33.3690   44.6790 C   0  0  0  0  0  0  0  0  0  0  0  0
   57.8270   32.7530   43.3570 C   0  0  0  0  0  0  0  0  0  0  0  0
   58.5105   33.1261   42.5801 H   0  0  0  0  0  0  0  0  0  0  0  0
   56.7860   33.0346   43.1400 H   0  0  0  0  0  0  0  0  0  0  0  0
   57.9060   31.2200   43.3920 C   0  0  0  0  0  0  0  0  0  0  0  0
   58.5255   30.9177   44.2492 H   0  0  0  0  0  0  0  0  0  0  0  0
   58.3438   30.8850   42.4401 H   0  0  0  0  0  0  0  0  0  0  0  0
   56.5290   30.5680   43.5270 C   0  0  0  0  0  0  0  0  0  0  0  0
   56.4495   29.7301   42.8187 H   0  0  0  0  0  0  0  0  0  0  0  0
   55.7492   31.3117   43.3062 H   0  0  0  0  0  0  0  0  0  0  0  0
   56.3540   30.0710   44.8900 N   0  0  0  0  0  0  0  0  0  0  0  0
   57.1270   29.2140   45.4940 C   0  0  0  0  0  0  0  0  0  0  0  0
   58.1680   29.6980   46.2950 C   0  0  0  0  0  0  0  0  0  0  0  0
   58.3104   30.7815   46.4210 H   0  0  0  0  0  0  0  0  0  0  0  0
   59.0230   28.8010   46.9320 C   0  0  0  0  0  0  0  0  0  0  0  0
   59.8416   29.1750   47.5645 H   0  0  0  0  0  0  0  0  0  0  0  0
   58.8400   27.4310   46.7670 C   0  0  0  0  0  0  0  0  0  0  0  0
   59.5173   26.7184   47.2604 H   0  0  0  0  0  0  0  0  0  0  0  0
   57.7870   26.9660   45.9680 C   0  0  0  0  0  0  0  0  0  0  0  0
   57.5990   25.4870   45.7610 C   0  0  0  0  0  0  0  0  0  0  0  0
   57.9787   24.9482   46.6417 H   0  0  0  0  0  0  0  0  0  0  0  0
   58.1516   25.1835   44.8596 H   0  0  0  0  0  0  0  0  0  0  0  0
   56.1470   25.1570   45.5700 C   0  0  0  0  0  0  0  0  0  0  0  0
   55.1500   25.9780   45.9610 N   0  0  0  0  0  0  0  0  0  0  0  0
   54.0060   25.3720   45.6810 N   0  0  0  0  0  0  0  0  0  0  0  0
   54.3300   24.1880   45.1310 C   0  0  0  0  0  0  0  0  0  0  0  0
   53.4770   23.3420   44.7520 O   0  0  0  0  0  0  0  0  0  0  0  0
   55.6610   24.0120   45.0400 N   0  0  0  0  0  0  0  0  0  0  0  0
   56.3720   22.8270   44.5580 C   0  0  0  0  0  0  0  0  0  0  0  0
   55.8858   21.9252   44.9586 H   0  0  0  0  0  0  0  0  0  0  0  0
   57.4172   22.8767   44.8972 H   0  0  0  0  0  0  0  0  0  0  0  0
   56.3500   22.7740   43.0330 C   0  0  0  0  0  0  0  0  0  0  0  0
   55.9473   21.8041   42.7056 H   0  0  0  0  0  0  0  0  0  0  0  0
   55.7139   23.5842   42.6471 H   0  0  0  0  0  0  0  0  0  0  0  0
   57.3729   22.8955   42.6471 H   0  0  0  0  0  0  0  0  0  0  0  0
   56.9530   27.8610   45.3580 N   0  0  0  0  0  0  0  0  0  0  0  0
   56.1760   27.4860   44.7710 H   0  0  0  0  0  0  0  0  0  0  0  0
   59.2390   34.3240   44.7410 C   0  0  0  0  0  0  0  0  0  0  0  0
   59.7523   34.6382   43.8202 H   0  0  0  0  0  0  0  0  0  0  0  0
   59.6120   34.8760   45.9710 C   0  0  0  0  0  0  0  0  0  0  0  0
   60.4141   35.6274   46.0147 H   0  0  0  0  0  0  0  0  0  0  0  0
  1  2  1  0
  2  3  2  0
  3  4  1  0
  3  5  1  0
  5  6  1  0
  5  7  2  0
  7  8  1  0
  8  9  1  0
  8 10  1  0
  8 11  1  0
 11 12  1  0
 11 13  1  0
 11 14  1  0
 14 15  1  0
 14 16  1  0
 14 17  1  0
 17 18  2  0
 18 19  1  0
 19 20  1  0
 19 21  2  0
 21 22  1  0
 21 23  1  0
 23 24  1  0
 23 25  2  0
 25 26  1  0
 26 27  1  0
 26 28  1  0
 26 29  1  0
 29 30  2  0
 30 31  1  0
 31 32  1  0
 32 33  2  0
 32 34  1  0
 34 35  1  0
 35 36  1  0
 35 37  1  0
 35 38  1  0
 38 39  1  0
 38 40  1  0
 38 41  1  0
 25 42  1  0
 42 43  1  0
  7 44  1  0
 44 45  1  0
 44 46  2  0
 46 47  1  0
 46  2  1  0
 42 18  1  0
 34 29  1  0
M  CHG  1  31  -1
M  END
>  <UniqueID>  (78) 
75

>  <SMILES>  (78) 
CCn1c(Cc2ccc/c(=N/CCCc3ccccc3)[nH]2)n[n-]c1=O

>  <Energy>  (78) 
75.0745847704205

>  <Genealogy>  (78) 
CCn1c(Cc2cccc(=NCCCc3ccccc3)[nH]2)n[n-]c1=O (protonated)
CCn1c(Cc2ccc/c(=N/CCCc3ccccc3)[nH]2)n[n-]c1=O (cis-trans isomerization)
CCn1c(Cc2ccc/c(=N/CCCc3ccccc3)[nH]2)n[n-]c1=O (3D coordinates assigned)
CCn1c(Cc2ccc/c(=N/CCCc3ccccc3)[nH]2)n[n-]c1=O (optimized conformer: 75.0745847704205 kcal/mol)

>  <smiles>  (78) 
CCn1c(Cc2cccc(=NCCCc3ccccc3)[nH]2)n[nH]c1=O

>  <score_type>  (78) 
oracle

>  <origin>  (78) 
adg

>  <m_score__min__energy>  (78) 
-11.57

>  <m_primary>  (78) 
energy

$$$$
79:0
     RDKit          3D

 25 25  0  0  0  0  0  0  0  0999 V2000
   55.3200   25.0640   45.6360 C   0  0  0  0  0  0  0  0  0  0  0  0
   55.1940   26.4620   46.0220 N   0  0  0  0  0  0  0  0  0  0  0  0
   56.1390   27.4590   45.6290 C   0  0  0  0  0  0  0  0  0  0  0  0
   57.3760   27.2170   45.6750 O   0  0  0  0  0  0  0  0  0  0  0  0
   55.6660   28.7300   45.1770 N   0  0  0  0  0  0  0  0  0  0  0  0
   56.2070   29.4260   44.0160 C   0  0  0  0  0  0  0  0  0  0  0  0
   57.2230   30.4370   44.4440 C   0  0  0  0  0  0  0  0  0  0  0  0
   58.4440   30.2240   44.2150 O   0  0  0  0  0  0  0  0  0  0  0  0
   56.7880   31.6740   45.0220 N   0  0  0  0  0  0  0  0  0  0  0  0
   57.6200   32.7730   45.4200 C   0  0  0  0  0  0  0  0  0  0  0  0
   57.7400   33.0640   46.7860 C   0  0  0  0  0  0  0  0  0  0  0  0
   58.5560   34.1140   47.2170 C   0  0  0  0  0  0  0  0  0  0  0  0
   59.2700   34.8730   46.2870 C   0  0  0  0  0  0  0  0  0  0  0  0
   59.1770   34.5750   44.9250 C   0  0  0  0  0  0  0  0  0  0  0  0
   58.3600   33.5260   44.4890 C   0  0  0  0  0  0  0  0  0  0  0  0
   55.3764   24.4380   46.5388 H   0  0  0  0  0  0  0  0  0  0  0  0
   54.4449   24.7682   45.0388 H   0  0  0  0  0  0  0  0  0  0  0  0
   56.2339   24.9294   45.0388 H   0  0  0  0  0  0  0  0  0  0  0  0
   56.6821   28.6960   43.3441 H   0  0  0  0  0  0  0  0  0  0  0  0
   55.3875   29.9412   43.4935 H   0  0  0  0  0  0  0  0  0  0  0  0
   57.1886   32.4623   47.5235 H   0  0  0  0  0  0  0  0  0  0  0  0
   58.6359   34.3428   48.2900 H   0  0  0  0  0  0  0  0  0  0  0  0
   59.9050   35.7046   46.6265 H   0  0  0  0  0  0  0  0  0  0  0  0
   59.7474   35.1665   44.1938 H   0  0  0  0  0  0  0  0  0  0  0  0
   58.2959   33.2894   43.4167 H   0  0  0  0  0  0  0  0  0  0  0  0
  1  2  1  0
  2  3  1  0
  3  4  2  0
  3  5  1  0
  5  6  1  0
  6  7  1  0
  7  8  2  0
  7  9  1  0
  9 10  1  0
 10 11  2  0
 11 12  1  0
 12 13  2  0
 13 14  1  0
 14 15  2  0
 15 10  1  0
  1 16  1  0
  1 17  1  0
  1 18  1  0
  6 19  1  0
  6 20  1  0
 11 21  1  0
 12 22  1  0
 13 23  1  0
 14 24  1  0
 15 25  1  0
M  CHG  3   2  -1   5  -1   9  -1
M  END
>  <UniqueID>  (79) 
76

>  <SMILES>  (79) 
C[N-]C(=O)[N-]CC(=O)[N-]c1ccccc1

>  <Energy>  (79) 
20.495624231813984

>  <Genealogy>  (79) 
C[N-]C(=O)[N-]CC(=O)[N-]c1ccccc1 (protonated)
C[N-]C(=O)[N-]CC(=O)[N-]c1ccccc1 (3D coordinates assigned)
C[N-]C(=O)[N-]CC(=O)[N-]c1ccccc1 (optimized conformer: 20.495624231813984 kcal/mol)

>  <smiles>  (79) 
CNC(=O)NCC(=O)Nc1ccccc1

>  <score_type>  (79) 
oracle

>  <origin>  (79) 
adg

>  <m_score__min__energy>  (79) 
-11.470000000000001

>  <m_primary>  (79) 
energy

$$$$
80:0
     RDKit          3D

 16 16  0  0  0  0  0  0  0  0999 V2000
   56.8470   30.8920   44.9000 O   0  0  0  0  0  0  0  0  0  0  0  0
   56.4730   29.6930   44.9840 C   0  0  0  0  0  0  0  0  0  0  0  0
   55.1250   29.3940   44.8340 O   0  0  0  0  0  0  0  0  0  0  0  0
   57.4830   28.6350   45.1810 C   0  0  0  0  0  0  0  0  0  0  0  0
   57.3400   27.3490   44.8320 C   0  0  0  0  0  0  0  0  0  0  0  0
   57.2200   26.2210   45.7820 C   0  0  0  0  0  0  0  0  0  0  0  0
   55.9700   25.8780   46.3150 C   0  0  0  0  0  0  0  0  0  0  0  0
   54.8380   26.6210   45.9980 O   0  0  0  0  0  0  0  0  0  0  0  0
   55.8570   24.8180   47.1560 N   0  0  0  0  0  0  0  0  0  0  0  0
   56.9380   24.0650   47.4840 C   0  0  0  0  0  0  0  0  0  0  0  0
   56.8100   23.0910   48.2690 O   0  0  0  0  0  0  0  0  0  0  0  0
   58.1550   24.3580   46.9590 N   0  0  0  0  0  0  0  0  0  0  0  0
   58.3200   25.4060   46.1120 C   0  0  0  0  0  0  0  0  0  0  0  0
   59.4590   25.6310   45.6210 O   0  0  0  0  0  0  0  0  0  0  0  0
   58.4325   28.9264   45.6538 H   0  0  0  0  0  0  0  0  0  0  0  0
   57.3095   27.1142   43.7578 H   0  0  0  0  0  0  0  0  0  0  0  0
  1  2  2  0
  2  3  1  0
  2  4  1  0
  4  5  2  3
  5  6  1  0
  6  7  2  0
  7  8  1  0
  7  9  1  0
  9 10  1  0
 10 11  2  0
 10 12  1  0
 12 13  1  0
 13 14  2  0
 13  6  1  0
  4 15  1  0
  5 16  1  0
M  CHG  4   3  -1   8  -1   9  -1  12  -1
M  END
>  <UniqueID>  (80) 
77

>  <SMILES>  (80) 
O=C([O-])C=Cc1c([O-])[n-]c(=O)[n-]c1=O

>  <Energy>  (80) 
25.26804021631691

>  <Genealogy>  (80) 
O=C([O-])C=Cc1c([O-])[n-]c(=O)[n-]c1=O (protonated)
O=C([O-])C=Cc1c([O-])[n-]c(=O)[n-]c1=O (3D coordinates assigned)
O=C([O-])C=Cc1c([O-])[n-]c(=O)[n-]c1=O (optimized conformer: 25.26804021631691 kcal/mol)

>  <smiles>  (80) 
O=C(O)C=Cc1c(O)[nH]c(=O)[nH]c1=O

>  <score_type>  (80) 
oracle

>  <origin>  (80) 
adg

>  <m_score__min__energy>  (80) 
-15.119999999999999

>  <m_primary>  (80) 
energy

$$$$
81:0
     RDKit          3D

 41 43  0  0  0  0  0  0  0  0999 V2000
   55.5310   29.0310   45.1460 O   0  0  0  0  0  0  0  0  0  0  0  0
   56.7730   28.8590   45.0210 C   0  0  0  0  0  0  0  0  0  0  0  0
   57.4610   29.3570   43.7920 C   0  0  0  0  0  0  0  0  0  0  0  0
   56.6380   30.8550   43.1420 S   0  0  0  0  0  0  0  0  0  0  0  0
   57.3650   31.9600   44.3510 C   0  0  0  0  0  0  0  0  0  0  0  0
   57.7590   33.2030   43.9770 N   0  0  0  0  0  0  0  0  0  0  0  0
   58.2880   34.0720   44.8750 C   0  0  0  0  0  0  0  0  0  0  0  0
   58.6330   35.2200   44.4890 O   0  0  0  0  0  0  0  0  0  0  0  0
   58.4470   33.6850   46.2180 C   0  0  0  0  0  0  0  0  0  0  0  0
   59.0240   34.6380   47.2410 C   0  0  0  0  0  0  0  0  0  0  0  0
   60.3760   34.1650   47.7060 C   0  0  0  0  0  0  0  0  0  0  0  0
   60.6640   34.0840   49.0790 C   0  0  0  0  0  0  0  0  0  0  0  0
   61.9260   33.6660   49.5120 C   0  0  0  0  0  0  0  0  0  0  0  0
   62.9100   33.3290   48.5800 C   0  0  0  0  0  0  0  0  0  0  0  0
   64.5000   32.8250   49.1260 Cl  0  0  0  0  0  0  0  0  0  0  0  0
   62.6310   33.4070   47.2120 C   0  0  0  0  0  0  0  0  0  0  0  0
   61.3710   33.8280   46.7750 C   0  0  0  0  0  0  0  0  0  0  0  0
   58.0250   32.3920   46.5800 C   0  0  0  0  0  0  0  0  0  0  0  0
   58.1490   31.9480   47.8930 O   0  0  0  0  0  0  0  0  0  0  0  0
   57.4970   31.5630   45.6430 N   0  0  0  0  0  0  0  0  0  0  0  0
   57.5540   28.2700   46.0720 N   0  0  0  0  0  0  0  0  0  0  0  0
   58.6610   28.8430   46.7840 C   0  0  0  0  0  0  0  0  0  0  0  0
   58.6940   28.7050   48.1790 C   0  0  0  0  0  0  0  0  0  0  0  0
   59.7430   29.2580   48.9220 C   0  0  0  0  0  0  0  0  0  0  0  0
   60.7700   29.9460   48.2740 C   0  0  0  0  0  0  0  0  0  0  0  0
   61.7990   30.4550   48.9960 F   0  0  0  0  0  0  0  0  0  0  0  0
   60.7390   30.1040   46.8870 C   0  0  0  0  0  0  0  0  0  0  0  0
   59.6860   29.5680   46.1410 C   0  0  0  0  0  0  0  0  0  0  0  0
   58.5058   29.5983   44.0374 H   0  0  0  0  0  0  0  0  0  0  0  0
   57.4173   28.5715   43.0232 H   0  0  0  0  0  0  0  0  0  0  0  0
   59.1264   35.6352   46.7881 H   0  0  0  0  0  0  0  0  0  0  0  0
   58.3469   34.6798   48.1069 H   0  0  0  0  0  0  0  0  0  0  0  0
   59.8928   34.3507   49.8167 H   0  0  0  0  0  0  0  0  0  0  0  0
   62.1442   33.6025   50.5883 H   0  0  0  0  0  0  0  0  0  0  0  0
   63.4043   33.1366   46.4779 H   0  0  0  0  0  0  0  0  0  0  0  0
   61.1589   33.8953   45.6977 H   0  0  0  0  0  0  0  0  0  0  0  0
   58.1330   30.9590   48.1120 H   0  0  0  0  0  0  0  0  0  0  0  0
   57.8897   28.1582   48.6929 H   0  0  0  0  0  0  0  0  0  0  0  0
   59.7582   29.1505   50.0166 H   0  0  0  0  0  0  0  0  0  0  0  0
   61.5464   30.6524   46.3797 H   0  0  0  0  0  0  0  0  0  0  0  0
   59.6564   29.7116   45.0508 H   0  0  0  0  0  0  0  0  0  0  0  0
  1  2  2  0
  2  3  1  0
  3  4  1  0
  4  5  1  0
  5  6  2  0
  6  7  1  0
  7  8  2  0
  7  9  1  0
  9 10  1  0
 10 11  1  0
 11 12  2  0
 12 13  1  0
 13 14  2  0
 14 15  1  0
 14 16  1  0
 16 17  2  0
  9 18  2  0
 18 19  1  0
 18 20  1  0
  2 21  1  0
 21 22  1  0
 22 23  2  0
 23 24  1  0
 24 25  2  0
 25 26  1  0
 25 27  1  0
 27 28  2  0
 20  5  1  0
 28 22  1  0
 17 11  1  0
  3 29  1  0
  3 30  1  0
 10 31  1  0
 10 32  1  0
 12 33  1  0
 13 34  1  0
 16 35  1  0
 17 36  1  0
 19 37  1  0
 23 38  1  0
 24 39  1  0
 27 40  1  0
 28 41  1  0
M  CHG  2  20  -1  21  -1
M  END
>  <UniqueID>  (81) 
78

>  <SMILES>  (81) 
O=C(CSc1nc(=O)c(Cc2ccc(Cl)cc2)c(O)[n-]1)[N-]c1ccc(F)cc1

>  <Energy>  (81) 
39.4087033956829

>  <Genealogy>  (81) 
O=C(CSc1nc(=O)c(Cc2ccc(Cl)cc2)c(O)[n-]1)[N-]c1ccc(F)cc1 (protonated)
O=C(CSc1nc(=O)c(Cc2ccc(Cl)cc2)c(O)[n-]1)[N-]c1ccc(F)cc1 (3D coordinates assigned)
O=C(CSc1nc(=O)c(Cc2ccc(Cl)cc2)c(O)[n-]1)[N-]c1ccc(F)cc1 (optimized conformer: 39.4087033956829 kcal/mol)

>  <smiles>  (81) 
O=C(CSc1nc(=O)c(Cc2ccc(Cl)cc2)c(O)[nH]1)Nc1ccc(F)cc1

>  <score_type>  (81) 
oracle

>  <origin>  (81) 
adg

>  <m_score__min__energy>  (81) 
-11.52

>  <m_primary>  (81) 
energy

$$$$
82:0
     RDKit          3D

 39 41  0  0  0  0  0  0  0  0999 V2000
   62.1550   29.6720   44.9060 H   0  0  0  0  0  0  0  0  0  0  0  0
   61.8370   28.7820   44.5430 O   0  0  0  0  0  0  0  0  0  0  0  0
   60.9540   28.0180   45.2720 N   0  0  0  0  0  0  0  0  0  0  0  0
   60.0610   28.5320   46.0670 C   0  0  0  0  0  0  0  0  0  0  0  0
   60.3920   29.6640   46.9670 C   0  0  0  0  0  0  0  0  0  0  0  0
   60.0020   29.6580   48.1660 O   0  0  0  0  0  0  0  0  0  0  0  0
   61.1110   30.7850   46.4400 N   0  0  0  0  0  0  0  0  0  0  0  0
   61.8070   31.8150   47.1620 C   0  0  0  0  0  0  0  0  0  0  0  0
   63.0890   31.5980   47.7000 C   0  0  0  0  0  0  0  0  0  0  0  0
   63.5882   30.6293   47.5500 H   0  0  0  0  0  0  0  0  0  0  0  0
   63.7310   32.6050   48.4230 C   0  0  0  0  0  0  0  0  0  0  0  0
   64.7306   32.4250   48.8455 H   0  0  0  0  0  0  0  0  0  0  0  0
   63.1080   33.8390   48.6110 C   0  0  0  0  0  0  0  0  0  0  0  0
   63.6100   34.6246   49.1948 H   0  0  0  0  0  0  0  0  0  0  0  0
   61.8480   34.0780   48.0590 C   0  0  0  0  0  0  0  0  0  0  0  0
   61.3633   35.0545   48.2058 H   0  0  0  0  0  0  0  0  0  0  0  0
   61.1950   33.0790   47.3170 C   0  0  0  0  0  0  0  0  0  0  0  0
   59.8660   33.3660   46.7250 C   0  0  0  0  0  0  0  0  0  0  0  0
   58.7030   32.7830   47.2630 C   0  0  0  0  0  0  0  0  0  0  0  0
   58.7790   32.1052   48.1260 H   0  0  0  0  0  0  0  0  0  0  0  0
   57.4520   33.0620   46.7050 C   0  0  0  0  0  0  0  0  0  0  0  0
   56.5468   32.6042   47.1305 H   0  0  0  0  0  0  0  0  0  0  0  0
   57.3490   33.9210   45.6080 C   0  0  0  0  0  0  0  0  0  0  0  0
   56.3631   34.1430   45.1736 H   0  0  0  0  0  0  0  0  0  0  0  0
   58.4990   34.4980   45.0630 C   0  0  0  0  0  0  0  0  0  0  0  0
   58.4172   35.1733   44.1985 H   0  0  0  0  0  0  0  0  0  0  0  0
   59.7540   34.2190   45.6140 C   0  0  0  0  0  0  0  0  0  0  0  0
   60.6570   34.6692   45.1758 H   0  0  0  0  0  0  0  0  0  0  0  0
   58.6830   27.9830   46.0380 C   0  0  0  0  0  0  0  0  0  0  0  0
   58.3700   26.8140   46.7560 C   0  0  0  0  0  0  0  0  0  0  0  0
   59.1499   26.3086   47.3445 H   0  0  0  0  0  0  0  0  0  0  0  0
   57.0740   26.2910   46.7260 C   0  0  0  0  0  0  0  0  0  0  0  0
   56.8407   25.3714   47.2826 H   0  0  0  0  0  0  0  0  0  0  0  0
   56.0740   26.9330   45.9910 C   0  0  0  0  0  0  0  0  0  0  0  0
   54.7870   26.4090   45.9590 O   0  0  0  0  0  0  0  0  0  0  0  0
   56.3700   28.1050   45.2890 C   0  0  0  0  0  0  0  0  0  0  0  0
   55.5816   28.6152   44.7161 H   0  0  0  0  0  0  0  0  0  0  0  0
   57.6640   28.6300   45.3130 C   0  0  0  0  0  0  0  0  0  0  0  0
   57.8886   29.5551   44.7618 H   0  0  0  0  0  0  0  0  0  0  0  0
  1  2  1  0
  2  3  1  0
  3  4  2  0
  4  5  1  0
  5  6  2  0
  5  7  1  0
  7  8  1  0
  8  9  2  0
  9 10  1  0
  9 11  1  0
 11 12  1  0
 11 13  2  0
 13 14  1  0
 13 15  1  0
 15 16  1  0
 15 17  2  0
 17 18  1  0
 18 19  2  0
 19 20  1  0
 19 21  1  0
 21 22  1  0
 21 23  2  0
 23 24  1  0
 23 25  1  0
 25 26  1  0
 25 27  2  0
 27 28  1  0
  4 29  1  0
 29 30  2  0
 30 31  1  0
 30 32  1  0
 32 33  1  0
 32 34  2  0
 34 35  1  0
 34 36  1  0
 36 37  1  0
 36 38  2  0
 38 39  1  0
 17  8  1  0
 27 18  1  0
 38 29  1  0
M  CHG  2   7  -1  35  -1
M  END
>  <UniqueID>  (82) 
79

>  <SMILES>  (82) 
O=C([N-]c1ccccc1-c1ccccc1)/C(=N\O)c1ccc([O-])cc1

>  <Energy>  (82) 
55.06369728093545

>  <Genealogy>  (82) 
O=C([N-]c1ccccc1-c1ccccc1)C(=NO)c1ccc([O-])cc1 (protonated)
O=C([N-]c1ccccc1-c1ccccc1)/C(=N\O)c1ccc([O-])cc1 (cis-trans isomerization)
O=C([N-]c1ccccc1-c1ccccc1)/C(=N\O)c1ccc([O-])cc1 (3D coordinates assigned)
O=C([N-]c1ccccc1-c1ccccc1)/C(=N\O)c1ccc([O-])cc1 (optimized conformer: 55.06369728093545 kcal/mol)

>  <smiles>  (82) 
O=C(Nc1ccccc1-c1ccccc1)C(=NO)c1ccc(O)cc1

>  <score_type>  (82) 
oracle

>  <origin>  (82) 
adg

>  <m_score__min__energy>  (82) 
-12.57

>  <m_primary>  (82) 
energy

$$$$
83:0
     RDKit          3D

 44 46  0  0  0  0  0  0  0  0999 V2000
   58.9670   34.7060   45.6010 O   0  0  0  0  0  0  0  0  0  0  0  0
   58.3960   33.5820   45.5600 C   0  0  0  0  0  0  0  0  0  0  0  0
   57.0780   33.4530   44.8690 C   0  0  0  0  0  0  0  0  0  0  0  0
   56.6200   32.0750   44.9660 N   0  0  0  0  0  0  0  0  0  0  0  0
   57.0200   31.0530   44.0470 C   0  0  0  0  0  0  0  0  0  0  0  0
   57.0070   31.2970   42.8090 O   0  0  0  0  0  0  0  0  0  0  0  0
   57.4460   29.7120   44.5330 C   0  0  0  0  0  0  0  0  0  0  0  0
   58.8200   29.4010   44.5880 C   0  0  0  0  0  0  0  0  0  0  0  0
   59.2520   28.1490   45.0370 C   0  0  0  0  0  0  0  0  0  0  0  0
   58.3220   27.1900   45.4360 C   0  0  0  0  0  0  0  0  0  0  0  0
   56.9590   27.4780   45.3880 C   0  0  0  0  0  0  0  0  0  0  0  0
   56.5140   28.7280   44.9420 C   0  0  0  0  0  0  0  0  0  0  0  0
   55.1440   28.9730   44.9180 O   0  0  0  0  0  0  0  0  0  0  0  0
   59.0430   32.4160   46.0910 N   0  0  0  0  0  0  0  0  0  0  0  0
   60.2980   32.4550   46.7930 C   0  0  0  0  0  0  0  0  0  0  0  0
   61.2140   33.4920   46.5390 C   0  0  0  0  0  0  0  0  0  0  0  0
   62.4170   33.5670   47.2450 C   0  0  0  0  0  0  0  0  0  0  0  0
   62.7170   32.6150   48.2200 C   0  0  0  0  0  0  0  0  0  0  0  0
   64.3670   32.7160   49.1780 Br  0  0  0  0  0  0  0  0  0  0  0  0
   61.8100   31.5870   48.4940 C   0  0  0  0  0  0  0  0  0  0  0  0
   60.5920   31.5010   47.7970 C   0  0  0  0  0  0  0  0  0  0  0  0
   59.6770   30.3670   48.0750 C   0  0  0  0  0  0  0  0  0  0  0  0
   58.5000   30.4170   47.6250 O   0  0  0  0  0  0  0  0  0  0  0  0
   60.1120   29.1710   48.8420 C   0  0  0  0  0  0  0  0  0  0  0  0
   60.3660   29.2450   50.2260 C   0  0  0  0  0  0  0  0  0  0  0  0
   60.7770   28.1110   50.9330 C   0  0  0  0  0  0  0  0  0  0  0  0
   60.9250   26.8890   50.2730 C   0  0  0  0  0  0  0  0  0  0  0  0
   60.6570   26.7970   48.9050 C   0  0  0  0  0  0  0  0  0  0  0  0
   60.2500   27.9290   48.1930 C   0  0  0  0  0  0  0  0  0  0  0  0
   56.3449   34.1190   45.3476 H   0  0  0  0  0  0  0  0  0  0  0  0
   57.1864   33.7329   43.8107 H   0  0  0  0  0  0  0  0  0  0  0  0
   59.5605   30.1515   44.2743 H   0  0  0  0  0  0  0  0  0  0  0  0
   60.3273   27.9205   45.0754 H   0  0  0  0  0  0  0  0  0  0  0  0
   58.6639   26.2058   45.7888 H   0  0  0  0  0  0  0  0  0  0  0  0
   56.2285   26.7182   45.7026 H   0  0  0  0  0  0  0  0  0  0  0  0
   58.6150   31.4840   45.8870 H   0  0  0  0  0  0  0  0  0  0  0  0
   60.9808   34.2508   45.7775 H   0  0  0  0  0  0  0  0  0  0  0  0
   63.1290   34.3779   47.0320 H   0  0  0  0  0  0  0  0  0  0  0  0
   62.0517   30.8380   49.2625 H   0  0  0  0  0  0  0  0  0  0  0  0
   60.2400   30.2018   50.7539 H   0  0  0  0  0  0  0  0  0  0  0  0
   60.9842   28.1813   52.0110 H   0  0  0  0  0  0  0  0  0  0  0  0
   61.2526   25.9990   50.8303 H   0  0  0  0  0  0  0  0  0  0  0  0
   60.7664   25.8325   48.3875 H   0  0  0  0  0  0  0  0  0  0  0  0
   60.0358   27.8489   47.1170 H   0  0  0  0  0  0  0  0  0  0  0  0
  1  2  2  0
  2  3  1  0
  3  4  1  0
  4  5  1  0
  5  6  2  0
  5  7  1  0
  7  8  2  0
  8  9  1  0
  9 10  2  0
 10 11  1  0
 11 12  2  0
 12 13  1  0
  2 14  1  0
 14 15  1  0
 15 16  2  0
 16 17  1  0
 17 18  2  0
 18 19  1  0
 18 20  1  0
 20 21  2  0
 21 22  1  0
 22 23  2  0
 22 24  1  0
 24 25  2  0
 25 26  1  0
 26 27  2  0
 27 28  1  0
 28 29  2  0
 12  7  1  0
 21 15  1  0
 29 24  1  0
  3 30  1  0
  3 31  1  0
  8 32  1  0
  9 33  1  0
 10 34  1  0
 11 35  1  0
 14 36  1  0
 16 37  1  0
 17 38  1  0
 20 39  1  0
 25 40  1  0
 26 41  1  0
 27 42  1  0
 28 43  1  0
 29 44  1  0
M  CHG  2   4  -1  13  -1
M  END
>  <UniqueID>  (83) 
80

>  <SMILES>  (83) 
O=C(C[N-]C(=O)c1ccccc1[O-])Nc1ccc(Br)cc1C(=O)c1ccccc1

>  <Energy>  (83) 
57.0333039011295

>  <Genealogy>  (83) 
O=C(C[N-]C(=O)c1ccccc1[O-])Nc1ccc(Br)cc1C(=O)c1ccccc1 (protonated)
O=C(C[N-]C(=O)c1ccccc1[O-])Nc1ccc(Br)cc1C(=O)c1ccccc1 (3D coordinates assigned)
O=C(C[N-]C(=O)c1ccccc1[O-])Nc1ccc(Br)cc1C(=O)c1ccccc1 (optimized conformer: 57.0333039011295 kcal/mol)

>  <smiles>  (83) 
O=C(CNC(=O)c1ccccc1O)Nc1ccc(Br)cc1C(=O)c1ccccc1

>  <score_type>  (83) 
oracle

>  <origin>  (83) 
adg

>  <m_score__min__energy>  (83) 
-15.359999999999999

>  <m_primary>  (83) 
energy

$$$$
84:0
     RDKit          3D

 40 42  0  0  0  0  0  0  0  0999 V2000
   57.0100   24.6180   43.9260 C   0  0  0  0  0  0  0  0  0  0  0  0
   57.5890   25.8050   44.4340 O   0  0  0  0  0  0  0  0  0  0  0  0
   57.4980   25.9100   45.8510 C   0  0  2  0  0  0  0  0  0  0  0  0
   58.3180   27.0650   46.4330 C   0  0  0  0  0  0  0  0  0  0  0  0
   59.2620   26.7810   47.4370 C   0  0  0  0  0  0  0  0  0  0  0  0
   60.0450   27.7960   47.9920 C   0  0  0  0  0  0  0  0  0  0  0  0
   59.8980   29.1240   47.5530 C   0  0  0  0  0  0  0  0  0  0  0  0
   60.6600   30.1780   48.0760 O   0  0  0  0  0  0  0  0  0  0  0  0
   60.9710   31.3770   47.3700 C   0  0  0  0  0  0  0  0  0  0  0  0
   60.1420   32.5360   47.9220 C   0  0  0  0  0  0  0  0  0  0  0  0
   59.2580   33.1260   46.8560 C   0  0  0  0  0  0  0  0  0  0  0  0
   57.8840   32.8320   46.8300 C   0  0  0  0  0  0  0  0  0  0  0  0
   57.0580   33.4090   45.8610 C   0  0  0  0  0  0  0  0  0  0  0  0
   57.5940   34.2890   44.9180 C   0  0  0  0  0  0  0  0  0  0  0  0
   58.9570   34.5970   44.9430 C   0  0  0  0  0  0  0  0  0  0  0  0
   59.7870   34.0220   45.9100 C   0  0  0  0  0  0  0  0  0  0  0  0
   58.9620   29.4130   46.5570 C   0  0  0  0  0  0  0  0  0  0  0  0
   58.1780   28.3990   45.9990 C   0  0  0  0  0  0  0  0  0  0  0  0
   58.0100   24.7020   46.4110 O   0  0  0  0  0  0  0  0  0  0  0  0
   57.0210   24.0370   47.1160 C   0  0  0  0  0  0  0  0  0  0  0  0
   57.2180   22.9490   47.7170 O   0  0  0  0  0  0  0  0  0  0  0  0
   55.7680   24.6900   47.0970 N   0  0  0  0  0  0  0  0  0  0  0  0
   56.0520   25.8380   46.3080 C   0  0  0  0  0  0  0  0  0  0  0  0
   55.1590   26.6680   45.9960 O   0  0  0  0  0  0  0  0  0  0  0  0
   56.6967   23.9758   44.7623 H   0  0  0  0  0  0  0  0  0  0  0  0
   56.1343   24.8715   43.3104 H   0  0  0  0  0  0  0  0  0  0  0  0
   57.7488   24.0840   43.3104 H   0  0  0  0  0  0  0  0  0  0  0  0
   59.3850   25.7463   47.7894 H   0  0  0  0  0  0  0  0  0  0  0  0
   60.7791   27.5557   48.7752 H   0  0  0  0  0  0  0  0  0  0  0  0
   62.0406   31.6040   47.4902 H   0  0  0  0  0  0  0  0  0  0  0  0
   60.7372   31.2403   46.3039 H   0  0  0  0  0  0  0  0  0  0  0  0
   59.5138   32.1677   48.7464 H   0  0  0  0  0  0  0  0  0  0  0  0
   60.8286   33.3179   48.2787 H   0  0  0  0  0  0  0  0  0  0  0  0
   57.4567   32.1450   47.5753 H   0  0  0  0  0  0  0  0  0  0  0  0
   55.9845   33.1697   45.8411 H   0  0  0  0  0  0  0  0  0  0  0  0
   56.9427   34.7401   44.1549 H   0  0  0  0  0  0  0  0  0  0  0  0
   59.3770   35.2923   44.2013 H   0  0  0  0  0  0  0  0  0  0  0  0
   60.8581   34.2715   45.9309 H   0  0  0  0  0  0  0  0  0  0  0  0
   58.8407   30.4492   46.2082 H   0  0  0  0  0  0  0  0  0  0  0  0
   57.4461   28.6439   45.2152 H   0  0  0  0  0  0  0  0  0  0  0  0
  1  2  1  0
  3  2  1  6
  3  4  1  0
  4  5  2  0
  5  6  1  0
  6  7  2  0
  7  8  1  0
  8  9  1  0
  9 10  1  0
 10 11  1  0
 11 12  2  0
 12 13  1  0
 13 14  2  0
 14 15  1  0
 15 16  2  0
  7 17  1  0
 17 18  2  0
  3 19  1  0
 19 20  1  0
 20 21  2  0
 20 22  1  0
 22 23  1  0
 23 24  2  0
 23  3  1  0
 18  4  1  0
 16 11  1  0
  1 25  1  0
  1 26  1  0
  1 27  1  0
  5 28  1  0
  6 29  1  0
  9 30  1  0
  9 31  1  0
 10 32  1  0
 10 33  1  0
 12 34  1  0
 13 35  1  0
 14 36  1  0
 15 37  1  0
 16 38  1  0
 17 39  1  0
 18 40  1  0
M  CHG  1  22  -1
M  END
>  <UniqueID>  (84) 
81

>  <SMILES>  (84) 
CO[C@]1(c2ccc(OCCc3ccccc3)cc2)OC(=O)[N-]C1=O

>  <Energy>  (84) 
68.10653641830184

>  <Genealogy>  (84) 
COC1(c2ccc(OCCc3ccccc3)cc2)OC(=O)[N-]C1=O (protonated)
CO[C@]1(c2ccc(OCCc3ccccc3)cc2)OC(=O)[N-]C1=O (chirality)
CO[C@]1(c2ccc(OCCc3ccccc3)cc2)OC(=O)[N-]C1=O (3D coordinates assigned)
CO[C@]1(c2ccc(OCCc3ccccc3)cc2)OC(=O)[N-]C1=O (nonaromatic ring conformer: 68.10653641830184 kcal/mol)

>  <smiles>  (84) 
COC1(c2ccc(OCCc3ccccc3)cc2)OC(=O)NC1=O

>  <score_type>  (84) 
oracle

>  <origin>  (84) 
adg

>  <m_score__min__energy>  (84) 
-9.1999999999999993

>  <m_primary>  (84) 
energy

$$$$
85:0
     RDKit          3D

 35 36  0  0  0  0  0  0  0  0999 V2000
   57.7570   31.9640   42.4980 C   0  0  0  0  0  0  0  0  0  0  0  0
   56.7270   30.8540   42.6720 C   0  0  0  0  0  0  0  0  0  0  0  0
   57.3170   29.7040   43.3560 N   0  0  0  0  0  0  0  0  0  0  0  0
   56.6800   29.0510   44.4620 C   0  0  0  0  0  0  0  0  0  0  0  0
   55.5530   29.4440   44.8710 O   0  0  0  0  0  0  0  0  0  0  0  0
   57.3530   27.9020   45.1470 C   0  0  0  0  0  0  0  0  0  0  0  0
   59.1570   27.9370   44.8640 S   0  0  0  0  0  0  0  0  0  0  0  0
   59.5540   28.7000   46.4510 C   0  0  0  0  0  0  0  0  0  0  0  0
   59.9350   27.8660   47.4940 C   0  0  0  0  0  0  0  0  0  0  0  0
   60.2690   28.3950   48.7370 C   0  0  0  0  0  0  0  0  0  0  0  0
   60.6190   27.5960   49.6490 O   0  0  0  0  0  0  0  0  0  0  0  0
   60.2170   29.7510   48.9630 N   0  0  0  0  0  0  0  0  0  0  0  0
   60.5850   30.2800   50.2930 C   0  0  0  0  0  0  0  0  0  0  0  0
   59.8220   30.6080   47.9510 C   0  0  0  0  0  0  0  0  0  0  0  0
   59.7450   32.0090   48.1500 C   0  0  0  0  0  0  0  0  0  0  0  0
   59.3420   32.8610   47.1200 C   0  0  0  0  0  0  0  0  0  0  0  0
   59.2570   34.5920   47.3940 Cl  0  0  0  0  0  0  0  0  0  0  0  0
   59.0070   32.3420   45.8720 C   0  0  0  0  0  0  0  0  0  0  0  0
   59.0720   30.9690   45.6450 C   0  0  0  0  0  0  0  0  0  0  0  0
   59.4780   30.0890   46.6690 C   0  0  0  0  0  0  0  0  0  0  0  0
   58.0853   32.3178   43.4865 H   0  0  0  0  0  0  0  0  0  0  0  0
   58.6229   31.5767   41.9410 H   0  0  0  0  0  0  0  0  0  0  0  0
   57.3061   32.7985   41.9410 H   0  0  0  0  0  0  0  0  0  0  0  0
   55.8834   31.2342   43.2668 H   0  0  0  0  0  0  0  0  0  0  0  0
   56.3800   30.5346   41.6782 H   0  0  0  0  0  0  0  0  0  0  0  0
   58.2170   29.3160   42.9900 H   0  0  0  0  0  0  0  0  0  0  0  0
   57.1572   27.9628   46.2277 H   0  0  0  0  0  0  0  0  0  0  0  0
   56.9517   26.9644   44.7348 H   0  0  0  0  0  0  0  0  0  0  0  0
   59.9731   26.7780   47.3363 H   0  0  0  0  0  0  0  0  0  0  0  0
   60.1433   29.6451   51.0752 H   0  0  0  0  0  0  0  0  0  0  0  0
   61.6801   30.2814   50.3969 H   0  0  0  0  0  0  0  0  0  0  0  0
   60.2055   31.3072   50.3969 H   0  0  0  0  0  0  0  0  0  0  0  0
   60.0068   32.4317   49.1312 H   0  0  0  0  0  0  0  0  0  0  0  0
   58.6904   33.0175   45.0637 H   0  0  0  0  0  0  0  0  0  0  0  0
   58.8038   30.5674   44.6567 H   0  0  0  0  0  0  0  0  0  0  0  0
  1  2  1  0
  2  3  1  0
  3  4  1  0
  4  5  2  0
  4  6  1  0
  6  7  1  0
  7  8  1  0
  8  9  2  0
  9 10  1  0
 10 11  2  0
 10 12  1  0
 12 13  1  0
 12 14  1  0
 14 15  2  0
 15 16  1  0
 16 17  1  0
 16 18  2  0
 18 19  1  0
 19 20  2  0
 20  8  1  0
 20 14  1  0
  1 21  1  0
  1 22  1  0
  1 23  1  0
  2 24  1  0
  2 25  1  0
  3 26  1  0
  6 27  1  0
  6 28  1  0
  9 29  1  0
 13 30  1  0
 13 31  1  0
 13 32  1  0
 15 33  1  0
 18 34  1  0
 19 35  1  0
M  END
>  <UniqueID>  (85) 
82

>  <SMILES>  (85) 
CCNC(=O)CSc1cc(=O)n(C)c2cc(Cl)ccc12

>  <Energy>  (85) 
35.446841369589905

>  <Genealogy>  (85) 
CCNC(=O)CSc1cc(=O)n(C)c2cc(Cl)ccc12 (3D coordinates assigned)
CCNC(=O)CSc1cc(=O)n(C)c2cc(Cl)ccc12 (optimized conformer: 35.446841369589905 kcal/mol)

>  <smiles>  (85) 
CCNC(=O)CSc1cc(=O)n(C)c2cc(Cl)ccc12

>  <score_type>  (85) 
oracle

>  <origin>  (85) 
adg

>  <m_score__min__energy>  (85) 
-7.21

>  <m_primary>  (85) 
energy

$$$$
86:0
     RDKit          3D

 39 41  0  0  0  0  0  0  0  0999 V2000
   54.7780   27.0870   45.1300 H   0  0  0  0  0  0  0  0  0  0  0  0
   55.2140   26.6940   45.9940 N   0  0  0  0  0  0  0  0  0  0  0  0
   56.4950   26.5470   46.0960 C   0  0  0  0  0  0  0  0  0  0  0  0
   57.0120   25.3240   46.3750 N   0  0  0  0  0  0  0  0  0  0  0  0
   58.3510   25.1410   46.4950 C   0  0  0  0  0  0  0  0  0  0  0  0
   58.7497   24.1395   46.7140 H   0  0  0  0  0  0  0  0  0  0  0  0
   59.2280   26.2230   46.3410 C   0  0  0  0  0  0  0  0  0  0  0  0
   60.7080   26.0130   46.5050 C   0  0  0  0  0  0  0  0  0  0  0  0
   60.9569   25.9777   47.5759 H   0  0  0  0  0  0  0  0  0  0  0  0
   60.9987   25.0646   46.0295 H   0  0  0  0  0  0  0  0  0  0  0  0
   61.2510   26.8431   46.0295 H   0  0  0  0  0  0  0  0  0  0  0  0
   58.6730   27.4780   46.0190 C   0  0  0  0  0  0  0  0  0  0  0  0
   59.5030   28.6370   45.8340 N   0  0  0  0  0  0  0  0  0  0  0  0
   59.4370   29.7120   46.7980 C   0  0  0  0  0  0  0  0  0  0  0  0
   60.4360   29.8550   47.7770 C   0  0  0  0  0  0  0  0  0  0  0  0
   61.2722   29.1412   47.8132 H   0  0  0  0  0  0  0  0  0  0  0  0
   60.3730   30.8960   48.7020 C   0  0  0  0  0  0  0  0  0  0  0  0
   61.1586   31.0104   49.4635 H   0  0  0  0  0  0  0  0  0  0  0  0
   59.3060   31.7900   48.6530 C   0  0  0  0  0  0  0  0  0  0  0  0
   59.2455   32.6148   49.3783 H   0  0  0  0  0  0  0  0  0  0  0  0
   58.3410   31.6430   47.7100 N   0  0  0  0  0  0  0  0  0  0  0  0
   58.3750   30.6440   46.7810 C   0  0  0  0  0  0  0  0  0  0  0  0
   57.4080   30.5050   45.9190 N   0  0  0  0  0  0  0  0  0  0  0  0
   57.3770   30.9550   44.5540 C   0  0  0  0  0  0  0  0  0  0  0  0
   58.0970   32.0860   44.1220 C   0  0  0  0  0  0  0  0  0  0  0  0
   58.6793   32.6754   44.8456 H   0  0  0  0  0  0  0  0  0  0  0  0
   58.0730   32.4610   42.7750 C   0  0  0  0  0  0  0  0  0  0  0  0
   58.6246   33.3532   42.4438 H   0  0  0  0  0  0  0  0  0  0  0  0
   57.3500   31.7050   41.8490 C   0  0  0  0  0  0  0  0  0  0  0  0
   57.3230   32.0082   40.7920 H   0  0  0  0  0  0  0  0  0  0  0  0
   56.6610   30.5630   42.2670 C   0  0  0  0  0  0  0  0  0  0  0  0
   56.0999   29.9618   41.5364 H   0  0  0  0  0  0  0  0  0  0  0  0
   56.6840   30.1840   43.6120 C   0  0  0  0  0  0  0  0  0  0  0  0
   56.1547   29.2747   43.9328 H   0  0  0  0  0  0  0  0  0  0  0  0
   60.1120   28.8560   44.5200 C   0  0  0  0  0  0  0  0  0  0  0  0
   61.1399   29.2257   44.6493 H   0  0  0  0  0  0  0  0  0  0  0  0
   60.1306   27.9083   43.9619 H   0  0  0  0  0  0  0  0  0  0  0  0
   59.5228   29.5986   43.9619 H   0  0  0  0  0  0  0  0  0  0  0  0
   57.3230   27.6090   45.9220 N   0  0  0  0  0  0  0  0  0  0  0  0
  1  2  1  0
  2  3  2  0
  3  4  1  0
  4  5  2  0
  5  6  1  0
  5  7  1  0
  7  8  1  0
  8  9  1  0
  8 10  1  0
  8 11  1  0
  7 12  2  0
 12 13  1  0
 13 14  1  0
 14 15  2  0
 15 16  1  0
 15 17  1  0
 17 18  1  0
 17 19  2  0
 19 20  1  0
 19 21  1  0
 21 22  1  0
 22 23  2  0
 23 24  1  0
 24 25  2  0
 25 26  1  0
 25 27  1  0
 27 28  1  0
 27 29  2  0
 29 30  1  0
 29 31  1  0
 31 32  1  0
 31 33  2  0
 33 34  1  0
 13 35  1  0
 35 36  1  0
 35 37  1  0
 35 38  1  0
 12 39  1  0
 39  3  1  0
 22 14  1  0
 33 24  1  0
M  CHG  2  21  -1  39  -1
M  END
>  <UniqueID>  (86) 
83

>  <SMILES>  (86) 
[H]/N=c1/ncc(C)c(N(C)c2ccc[n-]/c2=N\c2ccccc2)[n-]1

>  <Energy>  (86) 
58.5866378356069

>  <Genealogy>  (86) 
Cc1cnc(=N)[n-]c1N(C)c1ccc[n-]c1=Nc1ccccc1 (protonated)
[H]/N=c1/ncc(C)c(N(C)c2ccc[n-]/c2=N\c2ccccc2)[n-]1 (cis-trans isomerization)
[H]/N=c1/ncc(C)c(N(C)c2ccc[n-]/c2=N\c2ccccc2)[n-]1 (3D coordinates assigned)
[H]/N=c1/ncc(C)c(N(C)c2ccc[n-]/c2=N\c2ccccc2)[n-]1 (optimized conformer: 58.5866378356069 kcal/mol)

>  <smiles>  (86) 
Cc1cnc(=N)[nH]c1N(C)c1ccc[nH]c1=Nc1ccccc1

>  <score_type>  (86) 
oracle

>  <origin>  (86) 
adg

>  <m_score__min__energy>  (86) 
-10.289999999999999

>  <m_primary>  (86) 
energy

$$$$
87:0
     RDKit          3D

 53 56  0  0  0  0  0  0  0  0999 V2000
   58.9180   31.8620   50.1290 C   0  0  0  0  0  0  0  0  0  0  0  0
   58.8700   32.5290   48.7890 C   0  0  0  0  0  0  0  0  0  0  0  0
   58.2520   31.9910   47.7120 N   0  0  0  0  0  0  0  0  0  0  0  0
   58.4850   32.8370   46.6930 C   0  0  0  0  0  0  0  0  0  0  0  0
   58.0770   32.6920   45.3680 C   0  0  0  0  0  0  0  0  0  0  0  0
   58.4640   33.6830   44.4470 C   0  0  0  0  0  0  0  0  0  0  0  0
   59.2480   34.7810   44.8650 C   0  0  0  0  0  0  0  0  0  0  0  0
   59.6490   34.9000   46.2090 C   0  0  0  0  0  0  0  0  0  0  0  0
   59.2440   33.9050   47.1010 C   0  0  0  0  0  0  0  0  0  0  0  0
   59.5030   33.7270   48.4490 C   0  0  0  0  0  0  0  0  0  0  0  0
   60.3800   34.5760   49.3260 C   0  0  0  0  0  0  0  0  0  0  0  0
   61.1730   33.7430   50.3400 C   0  0  0  0  0  0  0  0  0  0  0  0
   62.5000   33.3660   49.7910 N   0  0  0  0  0  0  0  0  0  0  0  0
   62.9160   32.0110   50.2050 C   0  0  0  0  0  0  0  0  0  0  0  0
   62.0550   30.9390   49.5220 C   0  0  0  0  0  0  0  0  0  0  0  0
   61.9010   31.2150   48.0890 N   0  0  0  0  0  0  0  0  0  0  0  0
   61.1020   30.3440   47.2560 C   0  0  0  0  0  0  0  0  0  0  0  0
   61.1580   30.4550   46.0000 O   0  0  0  0  0  0  0  0  0  0  0  0
   60.2650   29.3270   47.8380 N   0  0  0  0  0  0  0  0  0  0  0  0
   59.1820   28.6870   47.1380 C   0  0  0  0  0  0  0  0  0  0  0  0
   58.8450   27.3610   47.4540 C   0  0  0  0  0  0  0  0  0  0  0  0
   57.7900   26.7210   46.7940 C   0  0  0  0  0  0  0  0  0  0  0  0
   57.0520   27.4050   45.8230 C   0  0  0  0  0  0  0  0  0  0  0  0
   57.3580   28.7360   45.5200 C   0  0  0  0  0  0  0  0  0  0  0  0
   56.4140   29.6000   44.3200 Cl  0  0  0  0  0  0  0  0  0  0  0  0
   58.4130   29.3780   46.1800 C   0  0  0  0  0  0  0  0  0  0  0  0
   62.7010   32.2910   47.4870 C   0  0  0  0  0  0  0  0  0  0  0  0
   62.6110   33.5850   48.3220 C   0  0  0  0  0  0  0  0  0  0  0  0
   58.8631   32.6243   50.9202 H   0  0  0  0  0  0  0  0  0  0  0  0
   58.0672   31.1714   50.2255 H   0  0  0  0  0  0  0  0  0  0  0  0
   59.8589   31.3004   50.2255 H   0  0  0  0  0  0  0  0  0  0  0  0
   57.7230   31.0910   47.6720 H   0  0  0  0  0  0  0  0  0  0  0  0
   57.4714   31.8297   45.0522 H   0  0  0  0  0  0  0  0  0  0  0  0
   58.1540   33.6020   43.3947 H   0  0  0  0  0  0  0  0  0  0  0  0
   59.5471   35.5481   44.1355 H   0  0  0  0  0  0  0  0  0  0  0  0
   60.2616   35.7493   46.5457 H   0  0  0  0  0  0  0  0  0  0  0  0
   61.0886   35.1267   48.6899 H   0  0  0  0  0  0  0  0  0  0  0  0
   59.7290   35.2604   49.8898 H   0  0  0  0  0  0  0  0  0  0  0  0
   61.3167   34.3329   51.2573 H   0  0  0  0  0  0  0  0  0  0  0  0
   60.6088   32.8246   50.5594 H   0  0  0  0  0  0  0  0  0  0  0  0
   63.9692   31.8574   49.9272 H   0  0  0  0  0  0  0  0  0  0  0  0
   62.7880   31.9222   51.2939 H   0  0  0  0  0  0  0  0  0  0  0  0
   62.5363   29.9580   49.6487 H   0  0  0  0  0  0  0  0  0  0  0  0
   61.0580   30.9451   49.9868 H   0  0  0  0  0  0  0  0  0  0  0  0
   60.5100   28.9540   48.7820 H   0  0  0  0  0  0  0  0  0  0  0  0
   59.4141   26.8217   48.2255 H   0  0  0  0  0  0  0  0  0  0  0  0
   57.5408   25.6781   47.0394 H   0  0  0  0  0  0  0  0  0  0  0  0
   56.2305   26.8963   45.2972 H   0  0  0  0  0  0  0  0  0  0  0  0
   58.6431   30.4286   45.9493 H   0  0  0  0  0  0  0  0  0  0  0  0
   63.7519   31.9704   47.4338 H   0  0  0  0  0  0  0  0  0  0  0  0
   62.3077   32.4970   46.4806 H   0  0  0  0  0  0  0  0  0  0  0  0
   63.5157   34.1808   48.1309 H   0  0  0  0  0  0  0  0  0  0  0  0
   61.6869   34.0942   48.0110 H   0  0  0  0  0  0  0  0  0  0  0  0
  1  2  1  0
  2  3  1  0
  3  4  1  0
  4  5  2  0
  5  6  1  0
  6  7  2  0
  7  8  1  0
  8  9  2  0
  9 10  1  0
 10 11  1  0
 11 12  1  0
 12 13  1  0
 13 14  1  0
 14 15  1  0
 15 16  1  0
 16 17  1  0
 17 18  2  0
 17 19  1  0
 19 20  1  0
 20 21  2  0
 21 22  1  0
 22 23  2  0
 23 24  1  0
 24 25  1  0
 24 26  2  0
 16 27  1  0
 27 28  1  0
 10  2  2  0
 28 13  1  0
  9  4  1  0
 26 20  1  0
  1 29  1  0
  1 30  1  0
  1 31  1  0
  3 32  1  0
  5 33  1  0
  6 34  1  0
  7 35  1  0
  8 36  1  0
 11 37  1  0
 11 38  1  0
 12 39  1  0
 12 40  1  0
 14 41  1  0
 14 42  1  0
 15 43  1  0
 15 44  1  0
 19 45  1  0
 21 46  1  0
 22 47  1  0
 23 48  1  0
 26 49  1  0
 27 50  1  0
 27 51  1  0
 28 52  1  0
 28 53  1  0
M  END
>  <UniqueID>  (87) 
84

>  <SMILES>  (87) 
Cc1[nH]c2ccccc2c1CCN1CCN(C(=O)Nc2cccc(Cl)c2)CC1

>  <Energy>  (87) 
97.64607818167264

>  <Genealogy>  (87) 
Cc1[nH]c2ccccc2c1CCN1CCN(C(=O)Nc2cccc(Cl)c2)CC1 (3D coordinates assigned)
Cc1[nH]c2ccccc2c1CCN1CCN(C(=O)Nc2cccc(Cl)c2)CC1 (nonaromatic ring conformer: 97.64607818167264 kcal/mol)

>  <smiles>  (87) 
Cc1[nH]c2ccccc2c1CCN1CCN(C(=O)Nc2cccc(Cl)c2)CC1

>  <score_type>  (87) 
oracle

>  <origin>  (87) 
adg

>  <m_score__min__energy>  (87) 
-8.5099999999999998

>  <m_primary>  (87) 
energy

$$$$
88:0
     RDKit          3D

 41 43  0  0  0  0  0  0  0  0999 V2000
   56.8100   24.8000   46.3240 C   0  0  0  0  0  0  0  0  0  0  0  0
   56.4120   26.2130   46.0210 C   0  0  0  0  0  0  0  0  0  0  0  0
   55.1830   26.5000   46.0110 O   0  0  0  0  0  0  0  0  0  0  0  0
   57.4190   27.2700   45.7370 C   0  0  0  0  0  0  0  0  0  0  0  0
   58.8010   27.0000   45.7880 C   0  0  0  0  0  0  0  0  0  0  0  0
   59.7310   28.0040   45.5150 C   0  0  0  0  0  0  0  0  0  0  0  0
   59.3010   29.2900   45.1830 C   0  0  0  0  0  0  0  0  0  0  0  0
   57.9340   29.5780   45.1220 C   0  0  0  0  0  0  0  0  0  0  0  0
   57.3840   31.1920   44.6820 S   0  0  0  0  0  0  0  0  0  0  0  0
   58.0430   31.5920   43.3920 O   0  0  0  0  0  0  0  0  0  0  0  0
   55.8920   31.2140   44.4980 O   0  0  0  0  0  0  0  0  0  0  0  0
   57.8180   32.3280   45.9210 N   0  0  0  0  0  0  0  0  0  0  0  0
   59.0460   32.2670   46.6680 C   0  0  0  0  0  0  0  0  0  0  0  0
   59.1970   31.4180   47.7760 C   0  0  0  0  0  0  0  0  0  0  0  0
   60.4050   31.3660   48.4750 C   0  0  0  0  0  0  0  0  0  0  0  0
   61.5040   32.1700   48.0910 C   0  0  0  0  0  0  0  0  0  0  0  0
   61.3380   33.0340   46.9800 C   0  0  0  0  0  0  0  0  0  0  0  0
   62.4010   33.8430   46.5760 C   0  0  0  0  0  0  0  0  0  0  0  0
   63.6050   33.7960   47.2630 C   0  0  0  0  0  0  0  0  0  0  0  0
   63.7520   32.9400   48.3560 C   0  0  0  0  0  0  0  0  0  0  0  0
   64.8620   32.9260   48.9570 O   0  0  0  0  0  0  0  0  0  0  0  0
   62.7120   32.1340   48.7660 N   0  0  0  0  0  0  0  0  0  0  0  0
   62.8970   31.2370   49.9240 C   0  0  0  0  0  0  0  0  0  0  0  0
   60.1210   33.0780   46.2850 C   0  0  0  0  0  0  0  0  0  0  0  0
   56.9980   28.5730   45.4060 C   0  0  0  0  0  0  0  0  0  0  0  0
   56.8505   24.6561   47.4138 H   0  0  0  0  0  0  0  0  0  0  0  0
   56.0713   24.1099   45.8903 H   0  0  0  0  0  0  0  0  0  0  0  0
   57.8003   24.5970   45.8903 H   0  0  0  0  0  0  0  0  0  0  0  0
   59.1499   25.9890   46.0452 H   0  0  0  0  0  0  0  0  0  0  0  0
   60.8072   27.7812   45.5616 H   0  0  0  0  0  0  0  0  0  0  0  0
   60.0384   30.0777   44.9691 H   0  0  0  0  0  0  0  0  0  0  0  0
   57.1880   33.1520   46.0470 H   0  0  0  0  0  0  0  0  0  0  0  0
   58.3550   30.7871   48.0969 H   0  0  0  0  0  0  0  0  0  0  0  0
   60.5034   30.6898   49.3370 H   0  0  0  0  0  0  0  0  0  0  0  0
   62.2842   34.5167   45.7143 H   0  0  0  0  0  0  0  0  0  0  0  0
   64.4440   34.4332   46.9466 H   0  0  0  0  0  0  0  0  0  0  0  0
   62.7786   31.8109   50.8549 H   0  0  0  0  0  0  0  0  0  0  0  0
   62.1455   30.4345   49.8899 H   0  0  0  0  0  0  0  0  0  0  0  0
   63.9047   30.7973   49.8899 H   0  0  0  0  0  0  0  0  0  0  0  0
   60.0095   33.7584   45.4279 H   0  0  0  0  0  0  0  0  0  0  0  0
   55.9233   28.8047   45.3699 H   0  0  0  0  0  0  0  0  0  0  0  0
  1  2  1  0
  2  3  2  0
  2  4  1  0
  4  5  2  0
  5  6  1  0
  6  7  2  0
  7  8  1  0
  8  9  1  0
  9 10  2  0
  9 11  2  0
  9 12  1  0
 12 13  1  0
 13 14  2  0
 14 15  1  0
 15 16  2  0
 16 17  1  0
 17 18  1  0
 18 19  2  0
 19 20  1  0
 20 21  2  0
 20 22  1  0
 22 23  1  0
 17 24  2  0
  8 25  2  0
 25  4  1  0
 24 13  1  0
 22 16  1  0
  1 26  1  0
  1 27  1  0
  1 28  1  0
  5 29  1  0
  6 30  1  0
  7 31  1  0
 12 32  1  0
 14 33  1  0
 15 34  1  0
 18 35  1  0
 19 36  1  0
 23 37  1  0
 23 38  1  0
 23 39  1  0
 24 40  1  0
 25 41  1  0
M  END
>  <UniqueID>  (88) 
85

>  <SMILES>  (88) 
CC(=O)c1cccc(S(=O)(=O)Nc2ccc3c(ccc(=O)n3C)c2)c1

>  <Energy>  (88) 
55.92047182111474

>  <Genealogy>  (88) 
CC(=O)c1cccc(S(=O)(=O)Nc2ccc3c(ccc(=O)n3C)c2)c1 (3D coordinates assigned)
CC(=O)c1cccc(S(=O)(=O)Nc2ccc3c(ccc(=O)n3C)c2)c1 (optimized conformer: 55.92047182111474 kcal/mol)

>  <smiles>  (88) 
CC(=O)c1cccc(S(=O)(=O)Nc2ccc3c(ccc(=O)n3C)c2)c1

>  <score_type>  (88) 
oracle

>  <origin>  (88) 
adg

>  <m_score__min__energy>  (88) 
-9.0899999999999999

>  <m_primary>  (88) 
energy

$$$$
89:0
     RDKit          3D

 59 62  0  0  0  0  0  0  0  0999 V2000
   64.9680   28.6360   52.8760 C   0  0  0  0  0  0  0  0  0  0  0  0
   66.0150   28.1850   51.8910 C   0  0  0  0  0  0  0  0  0  0  0  0
   66.1090   26.8200   51.5810 C   0  0  0  0  0  0  0  0  0  0  0  0
   67.0690   26.3590   50.6810 C   0  0  0  0  0  0  0  0  0  0  0  0
   67.9540   27.2540   50.0840 C   0  0  0  0  0  0  0  0  0  0  0  0
   67.8840   28.6140   50.3890 C   0  0  0  0  0  0  0  0  0  0  0  0
   66.9250   29.0940   51.2960 C   0  0  0  0  0  0  0  0  0  0  0  0
   66.8700   30.8290   51.6470 S   0  0  0  0  0  0  0  0  0  0  0  0
   67.5910   31.0930   52.9370 O   0  0  0  0  0  0  0  0  0  0  0  0
   67.5400   31.6270   50.5620 O   0  0  0  0  0  0  0  0  0  0  0  0
   65.2200   31.3400   51.8010 N   0  0  0  0  0  0  0  0  0  0  0  0
   64.2890   31.4550   50.7170 C   0  0  0  0  0  0  0  0  0  0  0  0
   64.5350   32.2790   49.6050 C   0  0  0  0  0  0  0  0  0  0  0  0
   63.5970   32.3670   48.5730 C   0  0  0  0  0  0  0  0  0  0  0  0
   62.4160   31.6100   48.6190 C   0  0  0  0  0  0  0  0  0  0  0  0
   61.4370   31.6950   47.5200 C   0  0  0  0  0  0  0  0  0  0  0  0
   61.5120   30.8690   46.5720 O   0  0  0  0  0  0  0  0  0  0  0  0
   60.4220   32.7180   47.5250 N   0  0  0  0  0  0  0  0  0  0  0  0
   59.4020   32.8750   46.5210 C   0  0  0  0  0  0  0  0  0  0  0  0
   59.0470   34.1390   46.0100 C   0  0  0  0  0  0  0  0  0  0  0  0
   58.0580   34.2490   45.0300 C   0  0  0  0  0  0  0  0  0  0  0  0
   57.4400   33.1030   44.5220 C   0  0  0  0  0  0  0  0  0  0  0  0
   57.8190   31.8350   44.9810 C   0  0  0  0  0  0  0  0  0  0  0  0
   57.0950   30.3810   44.2860 S   0  0  0  0  0  0  0  0  0  0  0  0
   57.0020   30.5390   42.7920 O   0  0  0  0  0  0  0  0  0  0  0  0
   55.6990   30.2140   44.8250 O   0  0  0  0  0  0  0  0  0  0  0  0
   58.0330   28.9530   44.6680 N   0  0  0  0  0  0  0  0  0  0  0  0
   57.7010   28.4230   46.0090 C   0  0  0  0  0  0  0  0  0  0  0  0
   58.8150   28.7040   47.0360 C   0  0  0  0  0  0  0  0  0  0  0  0
   60.0680   28.1550   46.6590 O   0  0  0  0  0  0  0  0  0  0  0  0
   60.3160   28.1890   45.2600 C   0  0  0  0  0  0  0  0  0  0  0  0
   59.4730   29.2220   44.4910 C   0  0  0  0  0  0  0  0  0  0  0  0
   58.7920   31.7280   45.9860 C   0  0  0  0  0  0  0  0  0  0  0  0
   62.1710   30.7930   49.7350 C   0  0  0  0  0  0  0  0  0  0  0  0
   63.0960   30.7280   50.7810 C   0  0  0  0  0  0  0  0  0  0  0  0
   65.3359   28.4775   53.9005 H   0  0  0  0  0  0  0  0  0  0  0  0
   64.7571   29.7048   52.7234 H   0  0  0  0  0  0  0  0  0  0  0  0
   64.0465   28.0550   52.7234 H   0  0  0  0  0  0  0  0  0  0  0  0
   65.4181   26.1059   52.0529 H   0  0  0  0  0  0  0  0  0  0  0  0
   67.1276   25.2869   50.4420 H   0  0  0  0  0  0  0  0  0  0  0  0
   68.7084   26.8885   49.3718 H   0  0  0  0  0  0  0  0  0  0  0  0
   68.5858   29.3160   49.9151 H   0  0  0  0  0  0  0  0  0  0  0  0
   65.4693   32.8566   49.5470 H   0  0  0  0  0  0  0  0  0  0  0  0
   63.7855   33.0340   47.7189 H   0  0  0  0  0  0  0  0  0  0  0  0
   60.4660   33.4460   48.2730 H   0  0  0  0  0  0  0  0  0  0  0  0
   59.5506   35.0425   46.3842 H   0  0  0  0  0  0  0  0  0  0  0  0
   57.7644   35.2412   44.6566 H   0  0  0  0  0  0  0  0  0  0  0  0
   56.6532   33.1971   43.7590 H   0  0  0  0  0  0  0  0  0  0  0  0
   56.7706   28.8957   46.3568 H   0  0  0  0  0  0  0  0  0  0  0  0
   57.5869   27.3323   45.9232 H   0  0  0  0  0  0  0  0  0  0  0  0
   58.9272   29.7931   47.1423 H   0  0  0  0  0  0  0  0  0  0  0  0
   58.5182   28.2275   47.9820 H   0  0  0  0  0  0  0  0  0  0  0  0
   61.3785   28.4273   45.1044 H   0  0  0  0  0  0  0  0  0  0  0  0
   60.0370   27.2002   44.8670 H   0  0  0  0  0  0  0  0  0  0  0  0
   59.7018   30.2291   44.8696 H   0  0  0  0  0  0  0  0  0  0  0  0
   59.7176   29.1530   43.4208 H   0  0  0  0  0  0  0  0  0  0  0  0
   59.0807   30.7344   46.3595 H   0  0  0  0  0  0  0  0  0  0  0  0
   61.2455   30.2007   49.7862 H   0  0  0  0  0  0  0  0  0  0  0  0
   62.8843   30.1012   51.6598 H   0  0  0  0  0  0  0  0  0  0  0  0
  1  2  1  0
  2  3  2  0
  3  4  1  0
  4  5  2  0
  5  6  1  0
  6  7  2  0
  7  8  1  0
  8  9  2  0
  8 10  2  0
  8 11  1  0
 11 12  1  0
 12 13  2  0
 13 14  1  0
 14 15  2  0
 15 16  1  0
 16 17  2  0
 16 18  1  0
 18 19  1  0
 19 20  2  0
 20 21  1  0
 21 22  2  0
 22 23  1  0
 23 24  1  0
 24 25  2  0
 24 26  2  0
 24 27  1  0
 27 28  1  0
 28 29  1  0
 29 30  1  0
 30 31  1  0
 31 32  1  0
 23 33  2  0
 15 34  1  0
 34 35  2  0
  7  2  1  0
 35 12  1  0
 33 19  1  0
 32 27  1  0
  1 36  1  0
  1 37  1  0
  1 38  1  0
  3 39  1  0
  4 40  1  0
  5 41  1  0
  6 42  1  0
 13 43  1  0
 14 44  1  0
 18 45  1  0
 20 46  1  0
 21 47  1  0
 22 48  1  0
 28 49  1  0
 28 50  1  0
 29 51  1  0
 29 52  1  0
 31 53  1  0
 31 54  1  0
 32 55  1  0
 32 56  1  0
 33 57  1  0
 34 58  1  0
 35 59  1  0
M  CHG  1  11  -1
M  END
>  <UniqueID>  (89) 
86

>  <SMILES>  (89) 
Cc1ccccc1S(=O)(=O)[N-]c1ccc(C(=O)Nc2cccc(S(=O)(=O)N3CCOCC3)c2)cc1

>  <Energy>  (89) 
86.4810775231454

>  <Genealogy>  (89) 
Cc1ccccc1S(=O)(=O)[N-]c1ccc(C(=O)Nc2cccc(S(=O)(=O)N3CCOCC3)c2)cc1 (protonated)
Cc1ccccc1S(=O)(=O)[N-]c1ccc(C(=O)Nc2cccc(S(=O)(=O)N3CCOCC3)c2)cc1 (3D coordinates assigned)
Cc1ccccc1S(=O)(=O)[N-]c1ccc(C(=O)Nc2cccc(S(=O)(=O)N3CCOCC3)c2)cc1 (nonaromatic ring conformer: 86.4810775231454 kcal/mol)

>  <smiles>  (89) 
Cc1ccccc1S(=O)(=O)Nc1ccc(C(=O)Nc2cccc(S(=O)(=O)N3CCOCC3)c2)cc1

>  <score_type>  (89) 
oracle

>  <origin>  (89) 
adg

>  <m_score__min__energy>  (89) 
-10.859999999999999

>  <m_primary>  (89) 
energy

$$$$
90:0
     RDKit          3D

 48 49  0  0  0  0  0  0  0  0999 V2000
   56.6210   30.3260   43.4740 C   0  0  0  0  0  0  0  0  0  0  0  0
   56.7060   30.7750   44.8230 O   0  0  0  0  0  0  0  0  0  0  0  0
   57.4080   31.9160   45.2440 C   0  0  0  0  0  0  0  0  0  0  0  0
   57.0450   33.2020   44.8020 C   0  0  0  0  0  0  0  0  0  0  0  0
   57.7160   34.3270   45.2710 C   0  0  0  0  0  0  0  0  0  0  0  0
   58.7420   34.1920   46.2030 C   0  0  0  0  0  0  0  0  0  0  0  0
   59.1220   32.9250   46.6700 C   0  0  0  0  0  0  0  0  0  0  0  0
   60.2440   32.8300   47.6740 C   0  0  0  0  0  0  0  0  0  0  0  0
   61.0030   31.6060   47.4390 N   0  0  0  0  0  0  0  0  0  0  0  0
   60.8840   30.5590   48.8210 S   0  0  0  0  0  0  0  0  0  0  0  0
   60.8900   29.1290   48.3570 O   0  0  0  0  0  0  0  0  0  0  0  0
   59.6140   30.8280   49.5830 O   0  0  0  0  0  0  0  0  0  0  0  0
   62.2860   30.8320   49.8970 C   0  0  0  0  0  0  0  0  0  0  0  0
   62.7940   32.2790   49.8360 C   0  0  0  0  0  0  0  0  0  0  0  0
   63.9330   32.4380   48.8680 C   0  0  0  0  0  0  0  0  0  0  0  0
   63.7500   32.1670   47.4780 N   0  0  0  0  0  0  0  0  0  0  0  0
   65.0640   32.8030   49.2880 O   0  0  0  0  0  0  0  0  0  0  0  0
   58.4840   31.7680   46.1500 C   0  0  0  0  0  0  0  0  0  0  0  0
   58.9330   30.4560   46.5480 N   0  0  0  0  0  0  0  0  0  0  0  0
   59.2300   29.3810   45.5970 C   0  0  0  0  0  0  0  0  0  0  0  0
   58.5200   28.1070   45.9760 C   0  0  0  0  0  0  0  0  0  0  0  0
   59.2360   27.0260   46.5170 C   0  0  0  0  0  0  0  0  0  0  0  0
   58.5710   25.8540   46.8880 C   0  0  0  0  0  0  0  0  0  0  0  0
   57.1860   25.7510   46.7180 C   0  0  0  0  0  0  0  0  0  0  0  0
   56.4640   26.8210   46.1790 C   0  0  0  0  0  0  0  0  0  0  0  0
   55.0910   26.7080   45.9960 O   0  0  0  0  0  0  0  0  0  0  0  0
   57.1260   28.0010   45.8190 C   0  0  0  0  0  0  0  0  0  0  0  0
   56.4164   29.2453   43.4595 H   0  0  0  0  0  0  0  0  0  0  0  0
   55.8080   30.8600   42.9603 H   0  0  0  0  0  0  0  0  0  0  0  0
   57.5729   30.5259   42.9603 H   0  0  0  0  0  0  0  0  0  0  0  0
   56.2237   33.3186   44.0796 H   0  0  0  0  0  0  0  0  0  0  0  0
   57.4354   35.3256   44.9047 H   0  0  0  0  0  0  0  0  0  0  0  0
   59.2596   35.0878   46.5767 H   0  0  0  0  0  0  0  0  0  0  0  0
   60.9082   33.7001   47.5654 H   0  0  0  0  0  0  0  0  0  0  0  0
   59.8260   32.8133   48.6913 H   0  0  0  0  0  0  0  0  0  0  0  0
   61.9877   30.6051   50.9312 H   0  0  0  0  0  0  0  0  0  0  0  0
   63.1013   30.1746   49.5607 H   0  0  0  0  0  0  0  0  0  0  0  0
   61.9670   32.9323   49.5210 H   0  0  0  0  0  0  0  0  0  0  0  0
   63.1594   32.5522   50.8369 H   0  0  0  0  0  0  0  0  0  0  0  0
   62.8280   31.8410   47.1140 H   0  0  0  0  0  0  0  0  0  0  0  0
   64.5500   32.2710   46.8120 H   0  0  0  0  0  0  0  0  0  0  0  0
   59.2230   30.2970   47.5380 H   0  0  0  0  0  0  0  0  0  0  0  0
   58.9026   29.6893   44.5931 H   0  0  0  0  0  0  0  0  0  0  0  0
   60.3138   29.1932   45.6107 H   0  0  0  0  0  0  0  0  0  0  0  0
   60.3253   27.1024   46.6492 H   0  0  0  0  0  0  0  0  0  0  0  0
   59.1367   25.0122   47.3138 H   0  0  0  0  0  0  0  0  0  0  0  0
   56.6642   24.8273   47.0086 H   0  0  0  0  0  0  0  0  0  0  0  0
   56.5542   28.8480   45.4120 H   0  0  0  0  0  0  0  0  0  0  0  0
  1  2  1  0
  2  3  1  0
  3  4  2  0
  4  5  1  0
  5  6  2  0
  6  7  1  0
  7  8  1  0
  8  9  1  0
  9 10  1  0
 10 11  2  0
 10 12  2  0
 10 13  1  0
 13 14  1  0
 14 15  1  0
 15 16  1  0
 15 17  2  0
  7 18  2  0
 18 19  1  0
 19 20  1  0
 20 21  1  0
 21 22  2  0
 22 23  1  0
 23 24  2  0
 24 25  1  0
 25 26  1  0
 25 27  2  0
 18  3  1  0
 27 21  1  0
  1 28  1  0
  1 29  1  0
  1 30  1  0
  4 31  1  0
  5 32  1  0
  6 33  1  0
  8 34  1  0
  8 35  1  0
 13 36  1  0
 13 37  1  0
 14 38  1  0
 14 39  1  0
 16 40  1  0
 16 41  1  0
 19 42  1  0
 20 43  1  0
 20 44  1  0
 22 45  1  0
 23 46  1  0
 24 47  1  0
 27 48  1  0
M  CHG  2   9  -1  26  -1
M  END
>  <UniqueID>  (90) 
87

>  <SMILES>  (90) 
COc1cccc(C[N-]S(=O)(=O)CCC(N)=O)c1NCc1cccc([O-])c1

>  <Energy>  (90) 
37.41207593946577

>  <Genealogy>  (90) 
COc1cccc(C[N-]S(=O)(=O)CCC(N)=O)c1NCc1cccc([O-])c1 (protonated)
COc1cccc(C[N-]S(=O)(=O)CCC(N)=O)c1NCc1cccc([O-])c1 (3D coordinates assigned)
COc1cccc(C[N-]S(=O)(=O)CCC(N)=O)c1NCc1cccc([O-])c1 (optimized conformer: 37.41207593946577 kcal/mol)

>  <smiles>  (90) 
COc1cccc(CNS(=O)(=O)CCC(N)=O)c1NCc1cccc(O)c1

>  <score_type>  (90) 
oracle

>  <origin>  (90) 
adg

>  <m_score__min__energy>  (90) 
-12.369999999999999

>  <m_primary>  (90) 
energy

$$$$
91:0
     RDKit          3D

 69 72  0  0  0  0  0  0  0  0999 V2000
   53.5120   30.6910   51.3290 C   0  0  0  0  0  0  0  0  0  0  0  0
   54.8110   30.4630   52.0560 C   0  0  0  0  0  0  0  0  0  0  0  0
   55.8180   31.4420   52.0000 C   0  0  0  0  0  0  0  0  0  0  0  0
   57.0510   31.2430   52.6410 C   0  0  0  0  0  0  0  0  0  0  0  0
   58.0990   32.2840   52.5730 C   0  0  0  0  0  0  0  0  0  0  0  0
   57.7600   33.4980   52.6490 O   0  0  0  0  0  0  0  0  0  0  0  0
   59.4880   31.9420   52.4010 N   0  0  0  0  0  0  0  0  0  0  0  0
   59.8790   30.8100   51.5490 C   0  0  0  0  0  0  0  0  0  0  0  0
   61.1970   31.1170   50.8150 C   0  0  0  0  0  0  0  0  0  0  0  0
   61.3000   32.5450   50.4320 N   0  0  0  0  0  0  0  0  0  0  0  0
   60.3220   32.9420   49.3910 C   0  0  0  0  0  0  0  0  0  0  0  0
   60.0660   31.8070   48.4360 C   0  0  0  0  0  0  0  0  0  0  0  0
   60.8890   31.6170   47.3130 C   0  0  0  0  0  0  0  0  0  0  0  0
   60.5870   30.6210   46.3790 C   0  0  0  0  0  0  0  0  0  0  0  0
   59.4670   29.8000   46.5620 C   0  0  0  0  0  0  0  0  0  0  0  0
   59.0080   28.6560   45.3060 S   0  0  0  0  0  0  0  0  0  0  0  0
   60.2340   28.2980   44.5150 O   0  0  0  0  0  0  0  0  0  0  0  0
   58.4530   27.4000   45.9180 O   0  0  0  0  0  0  0  0  0  0  0  0
   57.8210   29.3300   44.2310 N   0  0  0  0  0  0  0  0  0  0  0  0
   57.3410   30.6770   44.2960 C   0  0  0  0  0  0  0  0  0  0  0  0
   56.1760   30.8890   44.7220 O   0  0  0  0  0  0  0  0  0  0  0  0
   58.1500   31.7710   43.8430 N   0  0  0  0  0  0  0  0  0  0  0  0
   57.9180   33.1560   44.2560 C   0  0  0  0  0  0  0  0  0  0  0  0
   59.2800   33.8580   44.4900 C   0  0  0  0  0  0  0  0  0  0  0  0
   59.1800   34.9480   45.5620 C   0  0  0  0  0  0  0  0  0  0  0  0
   58.7560   34.3630   46.9250 C   0  0  0  0  0  0  0  0  0  0  0  0
   57.8210   33.1410   46.8070 C   0  0  0  0  0  0  0  0  0  0  0  0
   57.0060   33.1740   45.5090 C   0  0  0  0  0  0  0  0  0  0  0  0
   58.6620   29.9670   47.6990 C   0  0  0  0  0  0  0  0  0  0  0  0
   58.9560   30.9690   48.6260 C   0  0  0  0  0  0  0  0  0  0  0  0
   61.2660   33.4560   51.6090 C   0  0  0  0  0  0  0  0  0  0  0  0
   60.5420   32.8630   52.8340 C   0  0  0  0  0  0  0  0  0  0  0  0
   57.2620   30.0640   53.3690 C   0  0  0  0  0  0  0  0  0  0  0  0
   56.2660   29.0880   53.4340 C   0  0  0  0  0  0  0  0  0  0  0  0
   55.0440   29.2720   52.7780 C   0  0  0  0  0  0  0  0  0  0  0  0
   54.0850   28.2600   52.8660 O   0  0  0  0  0  0  0  0  0  0  0  0
   52.7026   30.8331   52.0602 H   0  0  0  0  0  0  0  0  0  0  0  0
   53.5976   31.5879   50.6979 H   0  0  0  0  0  0  0  0  0  0  0  0
   53.2870   29.8186   50.6979 H   0  0  0  0  0  0  0  0  0  0  0  0
   55.6377   32.3757   51.4471 H   0  0  0  0  0  0  0  0  0  0  0  0
   60.0132   29.9154   52.1749 H   0  0  0  0  0  0  0  0  0  0  0  0
   59.0889   30.6365   50.8035 H   0  0  0  0  0  0  0  0  0  0  0  0
   62.0389   30.8652   51.4767 H   0  0  0  0  0  0  0  0  0  0  0  0
   61.2209   30.5158   49.8941 H   0  0  0  0  0  0  0  0  0  0  0  0
   59.3759   33.2262   49.8749 H   0  0  0  0  0  0  0  0  0  0  0  0
   60.7341   33.7913   48.8262 H   0  0  0  0  0  0  0  0  0  0  0  0
   61.7740   32.2540   47.1681 H   0  0  0  0  0  0  0  0  0  0  0  0
   61.2309   30.4819   45.4981 H   0  0  0  0  0  0  0  0  0  0  0  0
   58.8100   31.6080   43.0570 H   0  0  0  0  0  0  0  0  0  0  0  0
   57.3954   33.7170   43.4672 H   0  0  0  0  0  0  0  0  0  0  0  0
   60.0168   33.1076   44.8125 H   0  0  0  0  0  0  0  0  0  0  0  0
   59.5872   34.3327   43.5465 H   0  0  0  0  0  0  0  0  0  0  0  0
   60.1611   35.4333   45.6709 H   0  0  0  0  0  0  0  0  0  0  0  0
   58.4169   35.6743   45.2456 H   0  0  0  0  0  0  0  0  0  0  0  0
   59.6616   34.0571   47.4694 H   0  0  0  0  0  0  0  0  0  0  0  0
   58.1963   35.1485   47.4539 H   0  0  0  0  0  0  0  0  0  0  0  0
   58.4287   32.2243   46.8232 H   0  0  0  0  0  0  0  0  0  0  0  0
   57.1189   33.1634   47.6535 H   0  0  0  0  0  0  0  0  0  0  0  0
   56.3452   32.2950   45.4811 H   0  0  0  0  0  0  0  0  0  0  0  0
   56.4237   34.1071   45.4946 H   0  0  0  0  0  0  0  0  0  0  0  0
   57.7971   29.3069   47.8605 H   0  0  0  0  0  0  0  0  0  0  0  0
   58.3145   31.1023   49.5096 H   0  0  0  0  0  0  0  0  0  0  0  0
   62.3017   33.6888   51.8974 H   0  0  0  0  0  0  0  0  0  0  0  0
   60.7022   34.3505   51.3056 H   0  0  0  0  0  0  0  0  0  0  0  0
   61.2673   32.3186   53.4565 H   0  0  0  0  0  0  0  0  0  0  0  0
   60.0888   33.6805   53.4140 H   0  0  0  0  0  0  0  0  0  0  0  0
   58.2171   29.9070   53.8917 H   0  0  0  0  0  0  0  0  0  0  0  0
   56.4436   28.1656   54.0064 H   0  0  0  0  0  0  0  0  0  0  0  0
   53.6620   27.8280   52.0550 H   0  0  0  0  0  0  0  0  0  0  0  0
  1  2  1  0
  2  3  2  0
  3  4  1  0
  4  5  1  0
  5  6  2  0
  5  7  1  0
  7  8  1  0
  8  9  1  0
  9 10  1  0
 10 11  1  0
 11 12  1  0
 12 13  2  0
 13 14  1  0
 14 15  2  0
 15 16  1  0
 16 17  2  0
 16 18  2  0
 16 19  1  0
 19 20  1  0
 20 21  2  0
 20 22  1  0
 22 23  1  0
 23 24  1  0
 24 25  1  0
 25 26  1  0
 26 27  1  0
 27 28  1  0
 15 29  1  0
 29 30  2  0
 10 31  1  0
 31 32  1  0
  4 33  2  0
 33 34  1  0
 34 35  2  0
 35 36  1  0
 35  2  1  0
 32  7  1  0
 30 12  1  0
 28 23  1  0
  1 37  1  0
  1 38  1  0
  1 39  1  0
  3 40  1  0
  8 41  1  0
  8 42  1  0
  9 43  1  0
  9 44  1  0
 11 45  1  0
 11 46  1  0
 13 47  1  0
 14 48  1  0
 22 49  1  0
 23 50  1  0
 24 51  1  0
 24 52  1  0
 25 53  1  0
 25 54  1  0
 26 55  1  0
 26 56  1  0
 27 57  1  0
 27 58  1  0
 28 59  1  0
 28 60  1  0
 29 61  1  0
 30 62  1  0
 31 63  1  0
 31 64  1  0
 32 65  1  0
 32 66  1  0
 33 67  1  0
 34 68  1  0
 36 69  1  0
M  CHG  1  19  -1
M  END
>  <UniqueID>  (91) 
88

>  <SMILES>  (91) 
Cc1cc(C(=O)N2CCN(Cc3ccc(S(=O)(=O)[N-]C(=O)NC4CCCCC4)cc3)CC2)ccc1O

>  <Energy>  (91) 
87.51610159946603

>  <Genealogy>  (91) 
Cc1cc(C(=O)N2CCN(Cc3ccc(S(=O)(=O)[N-]C(=O)NC4CCCCC4)cc3)CC2)ccc1O (protonated)
Cc1cc(C(=O)N2CCN(Cc3ccc(S(=O)(=O)[N-]C(=O)NC4CCCCC4)cc3)CC2)ccc1O (3D coordinates assigned)
Cc1cc(C(=O)N2CCN(Cc3ccc(S(=O)(=O)[N-]C(=O)NC4CCCCC4)cc3)CC2)ccc1O (nonaromatic ring conformer: 87.51610159946603 kcal/mol)

>  <smiles>  (91) 
Cc1cc(C(=O)N2CCN(Cc3ccc(S(=O)(=O)NC(=O)NC4CCCCC4)cc3)CC2)ccc1O

>  <score_type>  (91) 
oracle

>  <origin>  (91) 
adg

>  <m_score__min__energy>  (91) 
-12.01

>  <m_primary>  (91) 
energy

$$$$
92:0
     RDKit          3D

 45 47  0  0  0  0  0  0  0  0999 V2000
   55.1550   26.6470   46.0540 N   0  0  0  0  0  0  0  0  0  0  0  0
   56.8520   26.3410   45.9300 S   0  0  0  0  0  0  0  0  0  0  0  0
   57.3100   25.6700   47.1950 O   0  0  0  0  0  0  0  0  0  0  0  0
   57.1170   25.4260   44.7680 O   0  0  0  0  0  0  0  0  0  0  0  0
   57.7270   27.8530   45.6950 C   0  0  0  0  0  0  0  0  0  0  0  0
   59.1270   27.8620   45.6170 C   0  0  0  0  0  0  0  0  0  0  0  0
   59.8090   29.0610   45.4030 C   0  0  0  0  0  0  0  0  0  0  0  0
   59.0990   30.2530   45.2520 C   0  0  0  0  0  0  0  0  0  0  0  0
   57.7010   30.2610   45.3310 C   0  0  0  0  0  0  0  0  0  0  0  0
   57.0120   31.5060   45.1590 N   0  0  0  0  0  0  0  0  0  0  0  0
   57.7350   33.0790   45.2680 S   0  0  0  0  0  0  0  0  0  0  0  0
   58.8640   33.1670   44.2800 O   0  0  0  0  0  0  0  0  0  0  0  0
   56.7310   34.1450   44.9280 O   0  0  0  0  0  0  0  0  0  0  0  0
   58.3800   33.3080   46.8900 C   0  0  0  0  0  0  0  0  0  0  0  0
   59.0940   34.4740   47.1920 C   0  0  0  0  0  0  0  0  0  0  0  0
   59.6510   34.6490   48.4610 C   0  0  0  0  0  0  0  0  0  0  0  0
   59.5280   33.6490   49.4310 C   0  0  0  0  0  0  0  0  0  0  0  0
   60.1500   33.8410   50.7080 N   0  0  0  0  0  0  0  0  0  0  0  0
   61.0300   32.9180   51.3620 C   0  0  0  0  0  0  0  0  0  0  0  0
   61.0150   32.8520   52.6180 O   0  0  0  0  0  0  0  0  0  0  0  0
   61.9250   32.0660   50.6330 N   0  0  0  0  0  0  0  0  0  0  0  0
   62.5030   32.3290   49.3440 C   0  0  0  0  0  0  0  0  0  0  0  0
   62.5720   31.3350   48.3500 C   0  0  0  0  0  0  0  0  0  0  0  0
   63.1570   31.6160   47.1120 C   0  0  0  0  0  0  0  0  0  0  0  0
   63.6490   32.8950   46.8450 C   0  0  0  0  0  0  0  0  0  0  0  0
   63.5460   33.8990   47.8110 C   0  0  0  0  0  0  0  0  0  0  0  0
   62.9630   33.6230   49.0560 C   0  0  0  0  0  0  0  0  0  0  0  0
   62.8400   34.6300   50.0110 O   0  0  0  0  0  0  0  0  0  0  0  0
   58.7900   32.4890   49.1380 C   0  0  0  0  0  0  0  0  0  0  0  0
   58.2190   32.3210   47.8720 C   0  0  0  0  0  0  0  0  0  0  0  0
   57.0180   29.0520   45.5510 C   0  0  0  0  0  0  0  0  0  0  0  0
   54.7740   26.7120   45.0850 H   0  0  0  0  0  0  0  0  0  0  0  0
   59.6889   26.9225   45.7246 H   0  0  0  0  0  0  0  0  0  0  0  0
   60.9079   29.0663   45.3533 H   0  0  0  0  0  0  0  0  0  0  0  0
   59.6413   31.1925   45.0697 H   0  0  0  0  0  0  0  0  0  0  0  0
   59.2167   35.2550   46.4272 H   0  0  0  0  0  0  0  0  0  0  0  0
   60.1893   35.5784   48.6987 H   0  0  0  0  0  0  0  0  0  0  0  0
   62.1639   30.3329   48.5482 H   0  0  0  0  0  0  0  0  0  0  0  0
   63.2298   30.8286   46.3473 H   0  0  0  0  0  0  0  0  0  0  0  0
   64.1178   33.1122   45.8739 H   0  0  0  0  0  0  0  0  0  0  0  0
   63.9235   34.9092   47.5942 H   0  0  0  0  0  0  0  0  0  0  0  0
   62.2120   34.5380   50.8030 H   0  0  0  0  0  0  0  0  0  0  0  0
   58.6612   31.7118   49.9057 H   0  0  0  0  0  0  0  0  0  0  0  0
   57.6422   31.4119   47.6466 H   0  0  0  0  0  0  0  0  0  0  0  0
   55.9196   29.0479   45.6104 H   0  0  0  0  0  0  0  0  0  0  0  0
  1  2  1  0
  2  3  2  0
  2  4  2  0
  2  5  1  0
  5  6  2  0
  6  7  1  0
  7  8  2  0
  8  9  1  0
  9 10  1  0
 10 11  1  0
 11 12  2  0
 11 13  2  0
 11 14  1  0
 14 15  2  0
 15 16  1  0
 16 17  2  0
 17 18  1  0
 18 19  1  0
 19 20  2  0
 19 21  1  0
 21 22  1  0
 22 23  2  0
 23 24  1  0
 24 25  2  0
 25 26  1  0
 26 27  2  0
 27 28  1  0
 17 29  1  0
 29 30  2  0
  9 31  2  0
 31  5  1  0
 30 14  1  0
 27 22  1  0
  1 32  1  0
  6 33  1  0
  7 34  1  0
  8 35  1  0
 15 36  1  0
 16 37  1  0
 23 38  1  0
 24 39  1  0
 25 40  1  0
 26 41  1  0
 28 42  1  0
 29 43  1  0
 30 44  1  0
 31 45  1  0
M  CHG  4   1  -1  10  -1  18  -1  21  -1
M  END
>  <UniqueID>  (92) 
89

>  <SMILES>  (92) 
[NH-]S(=O)(=O)c1cccc([N-]S(=O)(=O)c2ccc([N-]C(=O)[N-]c3ccccc3O)cc2)c1

>  <Energy>  (92) 
53.8511641278699

>  <Genealogy>  (92) 
[NH-]S(=O)(=O)c1cccc([N-]S(=O)(=O)c2ccc([N-]C(=O)[N-]c3ccccc3O)cc2)c1 (protonated)
[NH-]S(=O)(=O)c1cccc([N-]S(=O)(=O)c2ccc([N-]C(=O)[N-]c3ccccc3O)cc2)c1 (3D coordinates assigned)
[NH-]S(=O)(=O)c1cccc([N-]S(=O)(=O)c2ccc([N-]C(=O)[N-]c3ccccc3O)cc2)c1 (optimized conformer: 53.8511641278699 kcal/mol)

>  <smiles>  (92) 
NS(=O)(=O)c1cccc(NS(=O)(=O)c2ccc(NC(=O)Nc3ccccc3O)cc2)c1

>  <score_type>  (92) 
oracle

>  <origin>  (92) 
adg

>  <m_score__min__energy>  (92) 
-14.77

>  <m_primary>  (92) 
energy

$$$$
93:0
     RDKit          3D

 38 40  0  0  0  0  0  0  0  0999 V2000
   60.9320   32.4740   49.8000 O   0  0  0  0  0  0  0  0  0  0  0  0
   59.7070   32.7220   49.6360 C   0  0  0  0  0  0  0  0  0  0  0  0
   58.7660   32.4460   50.7480 C   0  0  0  0  0  0  0  0  0  0  0  0
   58.6800   33.3390   51.8300 C   0  0  0  0  0  0  0  0  0  0  0  0
   57.8600   33.0510   52.9220 C   0  0  0  0  0  0  0  0  0  0  0  0
   57.1260   31.8640   52.9550 C   0  0  0  0  0  0  0  0  0  0  0  0
   57.1880   30.9650   51.8840 C   0  0  0  0  0  0  0  0  0  0  0  0
   56.4700   29.7290   51.9790 N   0  0  0  0  0  0  0  0  0  0  0  0
   55.2310   29.5330   52.6720 C   0  0  0  0  0  0  0  0  0  0  0  0
   55.1630   28.6230   53.5400 O   0  0  0  0  0  0  0  0  0  0  0  0
   54.0530   30.4010   52.4360 C   0  0  0  0  0  0  0  0  0  0  0  0
   53.8120   30.8960   51.1420 C   0  0  0  0  0  0  0  0  0  0  0  0
   52.6820   31.6710   50.8770 C   0  0  0  0  0  0  0  0  0  0  0  0
   51.7730   31.9570   51.8980 C   0  0  0  0  0  0  0  0  0  0  0  0
   50.6410   32.7150   51.6290 O   0  0  0  0  0  0  0  0  0  0  0  0
   52.0020   31.4780   53.1900 C   0  0  0  0  0  0  0  0  0  0  0  0
   53.1300   30.6900   53.4640 C   0  0  0  0  0  0  0  0  0  0  0  0
   53.3110   30.1710   54.7460 O   0  0  0  0  0  0  0  0  0  0  0  0
   58.0140   31.2570   50.7820 C   0  0  0  0  0  0  0  0  0  0  0  0
   59.2610   33.2720   48.3370 C   0  0  0  0  0  0  0  0  0  0  0  0
   58.3160   32.5700   47.5680 C   0  0  0  0  0  0  0  0  0  0  0  0
   57.9190   33.0560   46.3180 C   0  0  0  0  0  0  0  0  0  0  0  0
   56.9990   32.3750   45.5900 F   0  0  0  0  0  0  0  0  0  0  0  0
   58.4790   34.2330   45.8140 C   0  0  0  0  0  0  0  0  0  0  0  0
   58.1070   34.6930   44.5940 F   0  0  0  0  0  0  0  0  0  0  0  0
   59.4330   34.9280   46.5630 C   0  0  0  0  0  0  0  0  0  0  0  0
   60.0090   36.0430   46.0520 F   0  0  0  0  0  0  0  0  0  0  0  0
   59.8160   34.4580   47.8230 C   0  0  0  0  0  0  0  0  0  0  0  0
   59.2632   34.2716   51.8160 H   0  0  0  0  0  0  0  0  0  0  0  0
   57.7919   33.7614   53.7591 H   0  0  0  0  0  0  0  0  0  0  0  0
   56.4959   31.6341   53.8269 H   0  0  0  0  0  0  0  0  0  0  0  0
   54.5205   30.6703   50.3314 H   0  0  0  0  0  0  0  0  0  0  0  0
   52.5070   32.0573   49.8620 H   0  0  0  0  0  0  0  0  0  0  0  0
   51.2944   31.7198   53.9967 H   0  0  0  0  0  0  0  0  0  0  0  0
   54.0540   29.5140   54.9550 H   0  0  0  0  0  0  0  0  0  0  0  0
   58.0720   30.5503   49.9410 H   0  0  0  0  0  0  0  0  0  0  0  0
   57.8864   31.6329   47.9518 H   0  0  0  0  0  0  0  0  0  0  0  0
   60.5547   35.0182   48.4150 H   0  0  0  0  0  0  0  0  0  0  0  0
  1  2  2  0
  2  3  1  0
  3  4  2  0
  4  5  1  0
  5  6  2  0
  6  7  1  0
  7  8  1  0
  8  9  1  0
  9 10  2  0
  9 11  1  0
 11 12  2  0
 12 13  1  0
 13 14  2  0
 14 15  1  0
 14 16  1  0
 16 17  2  0
 17 18  1  0
  7 19  2  0
  2 20  1  0
 20 21  2  0
 21 22  1  0
 22 23  1  0
 22 24  2  0
 24 25  1  0
 24 26  1  0
 26 27  1  0
 26 28  2  0
 19  3  1  0
 28 20  1  0
 17 11  1  0
  4 29  1  0
  5 30  1  0
  6 31  1  0
 12 32  1  0
 13 33  1  0
 16 34  1  0
 18 35  1  0
 19 36  1  0
 21 37  1  0
 28 38  1  0
M  CHG  2   8  -1  15  -1
M  END
>  <UniqueID>  (93) 
90

>  <SMILES>  (93) 
O=C(c1cccc([N-]C(=O)c2ccc([O-])cc2O)c1)c1cc(F)c(F)c(F)c1

>  <Energy>  (93) 
53.725290871243935

>  <Genealogy>  (93) 
O=C(c1cccc([N-]C(=O)c2ccc([O-])cc2O)c1)c1cc(F)c(F)c(F)c1 (protonated)
O=C(c1cccc([N-]C(=O)c2ccc([O-])cc2O)c1)c1cc(F)c(F)c(F)c1 (3D coordinates assigned)
O=C(c1cccc([N-]C(=O)c2ccc([O-])cc2O)c1)c1cc(F)c(F)c(F)c1 (optimized conformer: 53.725290871243935 kcal/mol)

>  <smiles>  (93) 
O=C(c1cccc(NC(=O)c2ccc(O)cc2O)c1)c1cc(F)c(F)c(F)c1

>  <score_type>  (93) 
oracle

>  <origin>  (93) 
adg

>  <m_score__min__energy>  (93) 
-12.84

>  <m_primary>  (93) 
energy

$$$$
94:0
     RDKit          3D

 54 57  0  0  0  0  0  0  0  0999 V2000
   59.3810   33.8870   51.5040 C   0  0  0  0  0  0  0  0  0  0  0  0
   60.6200   33.7010   50.8260 O   0  0  0  0  0  0  0  0  0  0  0  0
   60.8030   32.8430   49.7320 C   0  0  0  0  0  0  0  0  0  0  0  0
   61.9510   32.8890   48.9190 C   0  0  0  0  0  0  0  0  0  0  0  0
   62.0870   32.0100   47.8400 C   0  0  0  0  0  0  0  0  0  0  0  0
   61.0790   31.0770   47.5530 C   0  0  0  0  0  0  0  0  0  0  0  0
   61.2400   30.1050   46.4110 C   0  0  0  0  0  0  0  0  0  0  0  0
   59.9960   29.3290   46.2120 N   0  0  0  0  0  0  0  0  0  0  0  0
   59.8560   28.1090   46.8120 C   0  0  0  0  0  0  0  0  0  0  0  0
   60.7920   27.6400   47.5200 O   0  0  0  0  0  0  0  0  0  0  0  0
   58.6860   27.3640   46.6320 C   0  0  0  0  0  0  0  0  0  0  0  0
   58.5480   26.0860   47.2060 C   0  0  0  0  0  0  0  0  0  0  0  0
   57.3960   25.3340   46.9940 C   0  0  0  0  0  0  0  0  0  0  0  0
   56.3600   25.8380   46.2020 C   0  0  0  0  0  0  0  0  0  0  0  0
   55.1420   25.0290   45.9520 C   0  0  0  0  0  0  0  0  0  0  0  0
   54.0130   25.5870   45.9780 O   0  0  0  0  0  0  0  0  0  0  0  0
   55.2100   23.6330   45.6300 N   0  0  0  0  0  0  0  0  0  0  0  0
   56.3230   22.9570   45.0280 C   0  0  0  0  0  0  0  0  0  0  0  0
   56.2330   22.5670   43.6850 C   0  0  0  0  0  0  0  0  0  0  0  0
   57.2950   21.8940   43.0730 C   0  0  0  0  0  0  0  0  0  0  0  0
   58.4480   21.5940   43.8030 C   0  0  0  0  0  0  0  0  0  0  0  0
   58.5380   21.9590   45.1490 C   0  0  0  0  0  0  0  0  0  0  0  0
   57.4770   22.6310   45.7640 C   0  0  0  0  0  0  0  0  0  0  0  0
   56.4950   27.1090   45.6200 C   0  0  0  0  0  0  0  0  0  0  0  0
   57.6420   27.9090   45.8490 C   0  0  0  0  0  0  0  0  0  0  0  0
   57.7760   29.1790   45.3260 N   0  0  0  0  0  0  0  0  0  0  0  0
   56.4460   29.9760   44.4870 S   0  0  0  0  0  0  0  0  0  0  0  0
   56.6600   29.8090   42.7270 C   0  0  0  0  0  0  0  0  0  0  0  0
   56.3980   31.4420   44.8170 O   0  0  0  0  0  0  0  0  0  0  0  0
   55.1310   29.3820   44.9120 O   0  0  0  0  0  0  0  0  0  0  0  0
   58.9680   29.8520   45.4670 C   0  0  0  0  0  0  0  0  0  0  0  0
   59.1290   30.9660   44.8930 O   0  0  0  0  0  0  0  0  0  0  0  0
   59.9350   31.0320   48.3650 C   0  0  0  0  0  0  0  0  0  0  0  0
   59.8000   31.9100   49.4440 C   0  0  0  0  0  0  0  0  0  0  0  0
   59.5502   33.8616   52.5906 H   0  0  0  0  0  0  0  0  0  0  0  0
   58.9514   34.8597   51.2225 H   0  0  0  0  0  0  0  0  0  0  0  0
   58.6847   33.0833   51.2225 H   0  0  0  0  0  0  0  0  0  0  0  0
   62.7448   33.6197   49.1334 H   0  0  0  0  0  0  0  0  0  0  0  0
   62.9896   32.0502   47.2125 H   0  0  0  0  0  0  0  0  0  0  0  0
   61.4702   30.6623   45.4910 H   0  0  0  0  0  0  0  0  0  0  0  0
   62.0589   29.4099   46.6481 H   0  0  0  0  0  0  0  0  0  0  0  0
   59.3583   25.6778   47.8280 H   0  0  0  0  0  0  0  0  0  0  0  0
   57.3003   24.3384   47.4518 H   0  0  0  0  0  0  0  0  0  0  0  0
   55.3227   22.7913   43.1096 H   0  0  0  0  0  0  0  0  0  0  0  0
   57.2226   21.6003   42.0154 H   0  0  0  0  0  0  0  0  0  0  0  0
   59.2851   21.0704   43.3181 H   0  0  0  0  0  0  0  0  0  0  0  0
   59.4436   21.7176   45.7248 H   0  0  0  0  0  0  0  0  0  0  0  0
   57.5448   22.9057   46.8270 H   0  0  0  0  0  0  0  0  0  0  0  0
   55.6927   27.4919   44.9721 H   0  0  0  0  0  0  0  0  0  0  0  0
   57.5121   29.1440   42.5227 H   0  0  0  0  0  0  0  0  0  0  0  0
   55.7475   29.3818   42.2856 H   0  0  0  0  0  0  0  0  0  0  0  0
   56.8526   30.7980   42.2856 H   0  0  0  0  0  0  0  0  0  0  0  0
   59.1406   30.3019   48.1510 H   0  0  0  0  0  0  0  0  0  0  0  0
   58.8980   31.8675   50.0722 H   0  0  0  0  0  0  0  0  0  0  0  0
  1  2  1  0
  2  3  1  0
  3  4  2  0
  4  5  1  0
  5  6  2  0
  6  7  1  0
  7  8  1  0
  8  9  1  0
  9 10  2  0
  9 11  1  0
 11 12  2  0
 12 13  1  0
 13 14  2  0
 14 15  1  0
 15 16  2  0
 15 17  1  0
 17 18  1  0
 18 19  2  0
 19 20  1  0
 20 21  2  0
 21 22  1  0
 22 23  2  0
 14 24  1  0
 24 25  2  0
 25 26  1  0
 26 27  1  0
 27 28  1  0
 27 29  2  0
 27 30  2  0
 26 31  1  0
 31 32  2  0
  6 33  1  0
 33 34  2  0
 34  3  1  0
 31  8  1  0
 25 11  1  0
 23 18  1  0
  1 35  1  0
  1 36  1  0
  1 37  1  0
  4 38  1  0
  5 39  1  0
  7 40  1  0
  7 41  1  0
 12 42  1  0
 13 43  1  0
 19 44  1  0
 20 45  1  0
 21 46  1  0
 22 47  1  0
 23 48  1  0
 24 49  1  0
 28 50  1  0
 28 51  1  0
 28 52  1  0
 33 53  1  0
 34 54  1  0
M  CHG  1  17  -1
M  END
>  <UniqueID>  (94) 
91

>  <SMILES>  (94) 
COc1ccc(Cn2c(=O)c3ccc(C(=O)[N-]c4ccccc4)cc3n(S(C)(=O)=O)c2=O)cc1

>  <Energy>  (94) 
79.53670924462693

>  <Genealogy>  (94) 
COc1ccc(Cn2c(=O)c3ccc(C(=O)[N-]c4ccccc4)cc3n(S(C)(=O)=O)c2=O)cc1 (protonated)
COc1ccc(Cn2c(=O)c3ccc(C(=O)[N-]c4ccccc4)cc3n(S(C)(=O)=O)c2=O)cc1 (3D coordinates assigned)
COc1ccc(Cn2c(=O)c3ccc(C(=O)[N-]c4ccccc4)cc3n(S(C)(=O)=O)c2=O)cc1 (optimized conformer: 79.53670924462693 kcal/mol)

>  <smiles>  (94) 
COc1ccc(Cn2c(=O)c3ccc(C(=O)Nc4ccccc4)cc3n(S(C)(=O)=O)c2=O)cc1

>  <score_type>  (94) 
oracle

>  <origin>  (94) 
adg

>  <m_score__min__energy>  (94) 
-10.9

>  <m_primary>  (94) 
energy

$$$$
95:0
     RDKit          3D

 55 58  0  0  0  0  0  0  0  0999 V2000
   66.6010   32.6950   50.5790 C   0  0  0  0  0  0  0  0  0  0  0  0
   65.2080   33.1100   50.2130 C   0  0  0  0  0  0  0  0  0  0  0  0
   64.4340   33.8560   51.1080 C   0  0  0  0  0  0  0  0  0  0  0  0
   63.1320   34.2260   50.7730 C   0  0  0  0  0  0  0  0  0  0  0  0
   62.5680   33.8440   49.5440 C   0  0  0  0  0  0  0  0  0  0  0  0
   61.1680   34.2970   49.2230 C   0  0  0  0  0  0  0  0  0  0  0  0
   63.3440   33.0860   48.6280 C   0  0  0  0  0  0  0  0  0  0  0  0
   62.8190   32.6680   47.2670 C   0  0  0  0  0  0  0  0  0  0  0  0
   61.5700   31.8880   47.3820 N   0  0  0  0  0  0  0  0  0  0  0  0
   61.6030   30.6740   48.0120 C   0  0  0  0  0  0  0  0  0  0  0  0
   60.4470   29.8860   48.1570 C   0  0  0  0  0  0  0  0  0  0  0  0
   60.5400   28.5790   48.8610 C   0  0  0  0  0  0  0  0  0  0  0  0
   61.0650   28.5200   50.0070 O   0  0  0  0  0  0  0  0  0  0  0  0
   60.0570   27.3800   48.2440 N   0  0  0  0  0  0  0  0  0  0  0  0
   60.3190   27.0180   46.8550 C   0  0  0  0  0  0  0  0  0  0  0  0
   59.3330   27.6980   45.9450 C   0  0  0  0  0  0  0  0  0  0  0  0
   59.7620   28.6580   45.0130 C   0  0  0  0  0  0  0  0  0  0  0  0
   58.8350   29.3050   44.1900 C   0  0  0  0  0  0  0  0  0  0  0  0
   57.4740   29.0000   44.2910 C   0  0  0  0  0  0  0  0  0  0  0  0
   56.3110   29.8170   43.2640 Cl  0  0  0  0  0  0  0  0  0  0  0  0
   57.0390   28.0460   45.2180 C   0  0  0  0  0  0  0  0  0  0  0  0
   57.9640   27.3980   46.0420 C   0  0  0  0  0  0  0  0  0  0  0  0
   59.2340   30.3680   47.6270 C   0  0  0  0  0  0  0  0  0  0  0  0
   58.1700   29.7030   47.7600 O   0  0  0  0  0  0  0  0  0  0  0  0
   59.2080   31.6010   46.9550 C   0  0  0  0  0  0  0  0  0  0  0  0
   58.0250   32.1130   46.3920 C   0  0  0  0  0  0  0  0  0  0  0  0
   58.0410   33.3360   45.7210 C   0  0  0  0  0  0  0  0  0  0  0  0
   59.2410   34.0440   45.6120 C   0  0  0  0  0  0  0  0  0  0  0  0
   59.2830   35.3620   44.9070 C   0  0  0  0  0  0  0  0  0  0  0  0
   60.3740   33.5380   46.1640 N   0  0  0  0  0  0  0  0  0  0  0  0
   60.4000   32.3510   46.8330 C   0  0  0  0  0  0  0  0  0  0  0  0
   64.6520   32.7100   48.9900 C   0  0  0  0  0  0  0  0  0  0  0  0
   66.6991   32.6658   51.6742 H   0  0  0  0  0  0  0  0  0  0  0  0
   66.8067   31.6966   50.1657 H   0  0  0  0  0  0  0  0  0  0  0  0
   67.3196   33.4181   50.1657 H   0  0  0  0  0  0  0  0  0  0  0  0
   64.8543   34.1521   52.0805 H   0  0  0  0  0  0  0  0  0  0  0  0
   62.5388   34.8246   51.4799 H   0  0  0  0  0  0  0  0  0  0  0  0
   60.6169   34.4753   50.1581 H   0  0  0  0  0  0  0  0  0  0  0  0
   61.2088   35.2278   48.6382 H   0  0  0  0  0  0  0  0  0  0  0  0
   60.6558   33.5187   48.6382 H   0  0  0  0  0  0  0  0  0  0  0  0
   62.6230   33.5694   46.6678 H   0  0  0  0  0  0  0  0  0  0  0  0
   63.5777   32.0335   46.7856 H   0  0  0  0  0  0  0  0  0  0  0  0
   62.5576   30.3049   48.4152 H   0  0  0  0  0  0  0  0  0  0  0  0
   61.3384   27.3305   46.5843 H   0  0  0  0  0  0  0  0  0  0  0  0
   60.2176   25.9284   46.7433 H   0  0  0  0  0  0  0  0  0  0  0  0
   60.8315   28.9016   44.9305 H   0  0  0  0  0  0  0  0  0  0  0  0
   59.1769   30.0552   43.4618 H   0  0  0  0  0  0  0  0  0  0  0  0
   55.9685   27.8059   45.2983 H   0  0  0  0  0  0  0  0  0  0  0  0
   57.6181   26.6494   46.7700 H   0  0  0  0  0  0  0  0  0  0  0  0
   57.0854   31.5480   46.4810 H   0  0  0  0  0  0  0  0  0  0  0  0
   57.1169   33.7396   45.2815 H   0  0  0  0  0  0  0  0  0  0  0  0
   59.3089   36.1739   45.6487 H   0  0  0  0  0  0  0  0  0  0  0  0
   60.1832   35.4122   44.2768 H   0  0  0  0  0  0  0  0  0  0  0  0
   58.3878   35.4694   44.2768 H   0  0  0  0  0  0  0  0  0  0  0  0
   65.2472   32.0921   48.3016 H   0  0  0  0  0  0  0  0  0  0  0  0
  1  2  1  0
  2  3  2  0
  3  4  1  0
  4  5  2  0
  5  6  1  0
  5  7  1  0
  7  8  1  0
  8  9  1  0
  9 10  1  0
 10 11  2  0
 11 12  1  0
 12 13  2  0
 12 14  1  0
 14 15  1  0
 15 16  1  0
 16 17  2  0
 17 18  1  0
 18 19  2  0
 19 20  1  0
 19 21  1  0
 21 22  2  0
 11 23  1  0
 23 24  2  0
 23 25  1  0
 25 26  2  0
 26 27  1  0
 27 28  2  0
 28 29  1  0
 28 30  1  0
 30 31  2  0
  7 32  2  0
 32  2  1  0
 31  9  1  0
 22 16  1  0
 31 25  1  0
  1 33  1  0
  1 34  1  0
  1 35  1  0
  3 36  1  0
  4 37  1  0
  6 38  1  0
  6 39  1  0
  6 40  1  0
  8 41  1  0
  8 42  1  0
 10 43  1  0
 15 44  1  0
 15 45  1  0
 17 46  1  0
 18 47  1  0
 21 48  1  0
 22 49  1  0
 26 50  1  0
 27 51  1  0
 29 52  1  0
 29 53  1  0
 29 54  1  0
 32 55  1  0
M  CHG  1  14  -1
M  END
>  <UniqueID>  (95) 
92

>  <SMILES>  (95) 
Cc1ccc(C)c(Cn2cc(C(=O)[N-]Cc3ccc(Cl)cc3)c(=O)c3ccc(C)nc32)c1

>  <Energy>  (95) 
64.76708855714821

>  <Genealogy>  (95) 
Cc1ccc(C)c(Cn2cc(C(=O)[N-]Cc3ccc(Cl)cc3)c(=O)c3ccc(C)nc32)c1 (protonated)
Cc1ccc(C)c(Cn2cc(C(=O)[N-]Cc3ccc(Cl)cc3)c(=O)c3ccc(C)nc32)c1 (3D coordinates assigned)
Cc1ccc(C)c(Cn2cc(C(=O)[N-]Cc3ccc(Cl)cc3)c(=O)c3ccc(C)nc32)c1 (optimized conformer: 64.76708855714821 kcal/mol)

>  <smiles>  (95) 
Cc1ccc(C)c(Cn2cc(C(=O)NCc3ccc(Cl)cc3)c(=O)c3ccc(C)nc32)c1

>  <score_type>  (95) 
oracle

>  <origin>  (95) 
adg

>  <m_score__min__energy>  (95) 
-11.59

>  <m_primary>  (95) 
energy

$$$$
96:0
     RDKit          3D

 26 27  0  0  0  0  0  0  0  0999 V2000
   59.2840   34.4640   47.2550 C   0  0  0  0  0  0  0  0  0  0  0  0
   58.2760   33.4630   47.3330 O   0  0  0  0  0  0  0  0  0  0  0  0
   58.3480   32.2150   46.6960 C   0  0  0  0  0  0  0  0  0  0  0  0
   58.9530   31.1530   47.3800 C   0  0  0  0  0  0  0  0  0  0  0  0
   59.0500   29.8900   46.7890 C   0  0  0  0  0  0  0  0  0  0  0  0
   58.5490   29.6730   45.4960 C   0  0  0  0  0  0  0  0  0  0  0  0
   58.6180   28.3060   44.8730 C   0  0  0  0  0  0  0  0  0  0  0  0
   57.6420   27.3860   45.5380 C   0  0  0  0  0  0  0  0  0  0  0  0
   58.0330   25.9090   46.2480 S   0  0  0  0  0  0  0  0  0  0  0  0
   56.4260   25.5660   46.6090 C   0  0  0  0  0  0  0  0  0  0  0  0
   56.0390   24.5220   47.1940 O   0  0  0  0  0  0  0  0  0  0  0  0
   55.5810   26.5340   46.1960 N   0  0  0  0  0  0  0  0  0  0  0  0
   56.2590   27.5470   45.5930 C   0  0  0  0  0  0  0  0  0  0  0  0
   55.6060   28.6580   45.0670 O   0  0  0  0  0  0  0  0  0  0  0  0
   57.9320   30.7320   44.8120 C   0  0  0  0  0  0  0  0  0  0  0  0
   57.8350   31.9950   45.4040 C   0  0  0  0  0  0  0  0  0  0  0  0
   59.5841   34.7620   48.2704 H   0  0  0  0  0  0  0  0  0  0  0  0
   60.1565   34.0647   46.7171 H   0  0  0  0  0  0  0  0  0  0  0  0
   58.8907   35.3392   46.7171 H   0  0  0  0  0  0  0  0  0  0  0  0
   59.3553   31.3142   48.3910 H   0  0  0  0  0  0  0  0  0  0  0  0
   59.5211   29.0625   47.3397 H   0  0  0  0  0  0  0  0  0  0  0  0
   58.3752   28.3816   43.8028 H   0  0  0  0  0  0  0  0  0  0  0  0
   59.6342   27.9043   44.9996 H   0  0  0  0  0  0  0  0  0  0  0  0
   54.7650   28.5490   44.5140 H   0  0  0  0  0  0  0  0  0  0  0  0
   57.5224   30.5674   43.8045 H   0  0  0  0  0  0  0  0  0  0  0  0
   57.3555   32.8205   44.8574 H   0  0  0  0  0  0  0  0  0  0  0  0
  1  2  1  0
  2  3  1  0
  3  4  2  0
  4  5  1  0
  5  6  2  0
  6  7  1  0
  7  8  1  0
  8  9  1  0
  9 10  1  0
 10 11  2  0
 10 12  1  0
 12 13  1  0
 13 14  1  0
  6 15  1  0
 15 16  2  0
 16  3  1  0
 13  8  2  0
  1 17  1  0
  1 18  1  0
  1 19  1  0
  4 20  1  0
  5 21  1  0
  7 22  1  0
  7 23  1  0
 14 24  1  0
 15 25  1  0
 16 26  1  0
M  CHG  1  12  -1
M  END
>  <UniqueID>  (96) 
93

>  <SMILES>  (96) 
COc1ccc(Cc2sc(=O)[n-]c2O)cc1

>  <Energy>  (96) 
53.87801223583258

>  <Genealogy>  (96) 
COc1ccc(Cc2sc(=O)[n-]c2O)cc1 (protonated)
COc1ccc(Cc2sc(=O)[n-]c2O)cc1 (3D coordinates assigned)
COc1ccc(Cc2sc(=O)[n-]c2O)cc1 (optimized conformer: 53.87801223583258 kcal/mol)

>  <smiles>  (96) 
COc1ccc(Cc2sc(=O)[nH]c2O)cc1

>  <score_type>  (96) 
oracle

>  <origin>  (96) 
adg

>  <m_score__min__energy>  (96) 
-8.9299999999999997

>  <m_primary>  (96) 
energy

$$$$
