0:0
     RDKit          3D

 54 58  0  0  0  0  0  0  0  0999 V2000
   66.1450   33.0750   50.4830 C   0  0  0  0  0  0  0  0  0  0  0  0
   64.9910   33.6000   49.8360 O   0  0  0  0  0  0  0  0  0  0  0  0
   64.0040   32.8180   49.2170 C   0  0  0  0  0  0  0  0  0  0  0  0
   63.6730   32.9560   47.8580 C   0  0  0  0  0  0  0  0  0  0  0  0
   62.6800   32.1550   47.2860 C   0  0  0  0  0  0  0  0  0  0  0  0
   61.9930   31.1970   48.0570 C   0  0  0  0  0  0  0  0  0  0  0  0
   60.9290   30.3220   47.4830 C   0  0  0  0  0  0  0  0  0  0  0  0
   59.9450   30.0080   48.2080 O   0  0  0  0  0  0  0  0  0  0  0  0
   61.0010   29.8140   46.1360 N   0  0  0  0  0  0  0  0  0  0  0  0
   59.8790   29.2280   45.4520 C   0  0  0  0  0  0  0  0  0  0  0  0
   60.0260   27.9730   44.8430 C   0  0  0  0  0  0  0  0  0  0  0  0
   58.9590   27.3930   44.1560 C   0  0  0  0  0  0  0  0  0  0  0  0
   57.7390   28.0670   44.0560 C   0  0  0  0  0  0  0  0  0  0  0  0
   57.5770   29.3370   44.6360 C   0  0  0  0  0  0  0  0  0  0  0  0
   56.2930   30.0630   44.5130 C   0  0  0  0  0  0  0  0  0  0  0  0
   55.2480   29.4460   44.1670 O   0  0  0  0  0  0  0  0  0  0  0  0
   56.2390   31.4380   44.7800 O   0  0  0  0  0  0  0  0  0  0  0  0
   57.2300   32.3610   44.3340 C   0  0  0  0  0  0  0  0  0  0  0  0
   57.9380   32.9740   45.5050 C   0  0  0  0  0  0  0  0  0  0  0  0
   58.6780   34.1610   45.3490 C   0  0  0  0  0  0  0  0  0  0  0  0
   59.3450   34.6940   46.4590 C   0  0  0  0  0  0  0  0  0  0  0  0
   60.0110   35.7590   46.3550 O   0  0  0  0  0  0  0  0  0  0  0  0
   59.2590   34.0430   47.6480 N   0  0  0  0  0  0  0  0  0  0  0  0
   59.8350   34.4470   48.7780 N   0  0  0  0  0  0  0  0  0  0  0  0
   59.5900   33.6000   49.8070 C   0  0  0  0  0  0  0  0  0  0  0  0
   60.0660   33.8450   51.2040 C   0  0  0  0  0  0  0  0  0  0  0  0
   58.9690   34.1810   52.2020 C   0  0  0  0  0  0  0  0  0  0  0  0
   59.6110   32.8050   52.2160 C   0  0  0  0  0  0  0  0  0  0  0  0
   58.6000   32.3030   49.3380 S   0  0  0  0  0  0  0  0  0  0  0  0
   58.5520   32.9000   47.7700 C   0  0  0  0  0  0  0  0  0  0  0  0
   57.8910   32.3560   46.7210 N   0  0  0  0  0  0  0  0  0  0  0  0
   58.6560   29.9140   45.3300 C   0  0  0  0  0  0  0  0  0  0  0  0
   62.3350   31.0640   49.4170 C   0  0  0  0  0  0  0  0  0  0  0  0
   63.3290   31.8660   49.9870 C   0  0  0  0  0  0  0  0  0  0  0  0
   66.0132   33.1350   51.5734 H   0  0  0  0  0  0  0  0  0  0  0  0
   66.2849   32.0246   50.1878 H   0  0  0  0  0  0  0  0  0  0  0  0
   67.0287   33.6597   50.1878 H   0  0  0  0  0  0  0  0  0  0  0  0
   64.1987   33.6991   47.2404 H   0  0  0  0  0  0  0  0  0  0  0  0
   62.4322   32.2744   46.2209 H   0  0  0  0  0  0  0  0  0  0  0  0
   61.9210   29.7590   45.6490 H   0  0  0  0  0  0  0  0  0  0  0  0
   60.9878   27.4431   44.9074 H   0  0  0  0  0  0  0  0  0  0  0  0
   59.0785   26.4028   43.6920 H   0  0  0  0  0  0  0  0  0  0  0  0
   56.8996   27.6004   43.5196 H   0  0  0  0  0  0  0  0  0  0  0  0
   57.9610   31.8320   43.7048 H   0  0  0  0  0  0  0  0  0  0  0  0
   56.7404   33.1584   43.7556 H   0  0  0  0  0  0  0  0  0  0  0  0
   58.7316   34.6619   44.3711 H   0  0  0  0  0  0  0  0  0  0  0  0
   61.0296   34.2961   50.9247 H   0  0  0  0  0  0  0  0  0  0  0  0
   59.1679   34.8889   53.0201 H   0  0  0  0  0  0  0  0  0  0  0  0
   57.9381   34.5572   52.1268 H   0  0  0  0  0  0  0  0  0  0  0  0
   60.2749   32.5164   53.0442 H   0  0  0  0  0  0  0  0  0  0  0  0
   59.2376   31.7721   52.1551 H   0  0  0  0  0  0  0  0  0  0  0  0
   58.5429   30.9106   45.7816 H   0  0  0  0  0  0  0  0  0  0  0  0
   61.8141   30.3205   50.0381 H   0  0  0  0  0  0  0  0  0  0  0  0
   63.5820   31.7467   51.0508 H   0  0  0  0  0  0  0  0  0  0  0  0
  1  2  1  0
  2  3  1  0
  3  4  2  0
  4  5  1  0
  5  6  2  0
  6  7  1  0
  7  8  2  0
  7  9  1  0
  9 10  1  0
 10 11  2  0
 11 12  1  0
 12 13  2  0
 13 14  1  0
 14 15  1  0
 15 16  2  0
 15 17  1  0
 17 18  1  0
 18 19  1  0
 19 20  2  0
 20 21  1  0
 21 22  2  0
 21 23  1  0
 23 24  1  0
 24 25  2  0
 25 26  1  0
 26 27  1  0
 27 28  1  0
 25 29  1  0
 29 30  1  0
 30 31  2  0
 14 32  2  0
  6 33  1  0
 33 34  2  0
 34  3  1  0
 32 10  1  0
 31 19  1  0
 30 23  1  0
 28 26  1  0
  1 35  1  0
  1 36  1  0
  1 37  1  0
  4 38  1  0
  5 39  1  0
  9 40  1  0
 11 41  1  0
 12 42  1  0
 13 43  1  0
 18 44  1  0
 18 45  1  0
 20 46  1  0
 26 47  1  0
 27 48  1  0
 27 49  1  0
 28 50  1  0
 28 51  1  0
 32 52  1  0
 33 53  1  0
 34 54  1  0
M  END
>  <UniqueID>  (1) 
1

>  <SMILES>  (1) 
COc1ccc(C(=O)Nc2cccc(C(=O)OCc3cc(=O)n4nc(C5CC5)sc4n3)c2)cc1

>  <Energy>  (1) 
365.3409878605314

>  <Genealogy>  (1) 
COc1ccc(C(=O)Nc2cccc(C(=O)OCc3cc(=O)n4nc(C5CC5)sc4n3)c2)cc1 (3D coordinates assigned)
COc1ccc(C(=O)Nc2cccc(C(=O)OCc3cc(=O)n4nc(C5CC5)sc4n3)c2)cc1 (nonaromatic ring conformer: 365.3409878605314 kcal/mol)

>  <smiles>  (1) 
COc1ccc(C(=O)Nc2cccc(C(=O)OCc3cc(=O)n4nc(C5CC5)sc4n3)c2)cc1

>  <score_type>  (1) 
oracle

>  <origin>  (1) 
adg

>  <m_score__min__energy>  (1) 
-9.5199999999999996

>  <m_primary>  (1) 
energy

$$$$
1:0
     RDKit          3D

 38 40  0  0  0  0  0  0  0  0999 V2000
   55.0404   27.4016   53.2070 H   0  0  0  0  0  0  0  0  0  0  0  0
   54.3270   28.1910   52.9280 C   0  0  0  0  0  0  0  0  0  0  0  0
   53.2509   27.9679   52.8798 H   0  0  0  0  0  0  0  0  0  0  0  0
   54.7700   29.4280   52.6460 C   0  0  0  0  0  0  0  0  0  0  0  0
   53.9770   30.5250   52.2780 C   0  0  0  0  0  0  0  0  0  0  0  0
   52.6300   30.5520   52.1700 C   0  0  0  0  0  0  0  0  0  0  0  0
   52.0496   30.3145   53.0737 H   0  0  0  0  0  0  0  0  0  0  0  0
   51.8670   30.8730   50.9430 C   0  0  0  0  0  0  0  0  0  0  0  0
   51.7870   30.1110   49.8380 N   0  0  0  0  0  0  0  0  0  0  0  0
   51.0230   30.8450   49.0000 C   0  0  0  0  0  0  0  0  0  0  0  0
   50.7160   30.4530   47.8450 O   0  0  0  0  0  0  0  0  0  0  0  0
   50.6180   32.0330   49.4980 N   0  0  0  0  0  0  0  0  0  0  0  0
   51.1640   32.0360   50.7250 C   0  0  0  0  0  0  0  0  0  0  0  0
   51.0230   33.0830   51.6270 O   0  0  0  0  0  0  0  0  0  0  0  0
   54.8600   31.5670   52.0200 C   0  0  0  0  0  0  0  0  0  0  0  0
   54.5966   32.5843   51.6950 H   0  0  0  0  0  0  0  0  0  0  0  0
   56.1310   31.0800   52.2500 C   0  0  0  0  0  0  0  0  0  0  0  0
   57.3840   31.8890   52.0950 C   0  0  0  0  0  0  0  0  0  0  0  0
   57.7804   32.1450   53.0886 H   0  0  0  0  0  0  0  0  0  0  0  0
   58.1325   31.3032   51.5413 H   0  0  0  0  0  0  0  0  0  0  0  0
   57.1582   32.8123   51.5413 H   0  0  0  0  0  0  0  0  0  0  0  0
   56.0830   29.7820   52.6290 N   0  0  0  0  0  0  0  0  0  0  0  0
   57.2210   28.9720   52.9740 C   0  0  0  0  0  0  0  0  0  0  0  0
   57.1060   28.0560   53.8320 O   0  0  0  0  0  0  0  0  0  0  0  0
   58.4760   29.1930   52.3180 N   0  0  0  0  0  0  0  0  0  0  0  0
   59.5850   28.2840   52.2640 C   0  0  0  0  0  0  0  0  0  0  0  0
   60.3610   28.2400   51.1010 C   0  0  0  0  0  0  0  0  0  0  0  0
   60.1012   28.8839   50.2478 H   0  0  0  0  0  0  0  0  0  0  0  0
   61.4640   27.3850   51.0130 C   0  0  0  0  0  0  0  0  0  0  0  0
   62.0571   27.3508   50.0872 H   0  0  0  0  0  0  0  0  0  0  0  0
   61.8190   26.5690   52.1010 C   0  0  0  0  0  0  0  0  0  0  0  0
   62.9840   25.6620   52.0150 C   0  0  0  0  0  0  0  0  0  0  0  0
   62.8460   24.4750   51.6180 O   0  0  0  0  0  0  0  0  0  0  0  0
   64.2520   26.1080   52.3720 O   0  0  0  0  0  0  0  0  0  0  0  0
   61.0540   26.6330   53.2780 C   0  0  0  0  0  0  0  0  0  0  0  0
   61.3255   26.0056   54.1397 H   0  0  0  0  0  0  0  0  0  0  0  0
   59.9500   27.4880   53.3630 C   0  0  0  0  0  0  0  0  0  0  0  0
   59.3655   27.5374   54.2935 H   0  0  0  0  0  0  0  0  0  0  0  0
  1  2  1  0
  2  3  1  0
  2  4  2  0
  4  5  1  0
  5  6  2  0
  6  7  1  0
  6  8  1  0
  8  9  1  0
  9 10  1  0
 10 11  2  0
 10 12  1  0
 12 13  1  0
 13 14  1  0
  5 15  1  0
 15 16  1  0
 15 17  2  0
 17 18  1  0
 18 19  1  0
 18 20  1  0
 18 21  1  0
 17 22  1  0
 22 23  1  0
 23 24  2  0
 23 25  1  0
 25 26  1  0
 26 27  2  0
 27 28  1  0
 27 29  1  0
 29 30  1  0
 29 31  2  0
 31 32  1  0
 32 33  2  0
 32 34  1  0
 31 35  1  0
 35 36  1  0
 35 37  2  0
 37 38  1  0
 22  4  1  0
 37 26  1  0
 13  8  2  0
M  CHG  5   9  -1  12  -1  14  -1  25  -1  34  -1
M  END
>  <UniqueID>  (2) 
2

>  <SMILES>  (2) 
C=c1/c(=C/c2[n-]c(=O)[n-]c2[O-])cc(C)n1C(=O)[N-]c1ccc(C(=O)[O-])cc1

>  <Energy>  (2) 
111.55074866744948

>  <Genealogy>  (2) 
C=c1c(=Cc2[n-]c(=O)[n-]c2[O-])cc(C)n1C(=O)[N-]c1ccc(C(=O)[O-])cc1 (protonated)
C=c1/c(=C/c2[n-]c(=O)[n-]c2[O-])cc(C)n1C(=O)[N-]c1ccc(C(=O)[O-])cc1 (cis-trans isomerization)
C=c1/c(=C/c2[n-]c(=O)[n-]c2[O-])cc(C)n1C(=O)[N-]c1ccc(C(=O)[O-])cc1 (3D coordinates assigned)
C=c1/c(=C/c2[n-]c(=O)[n-]c2[O-])cc(C)n1C(=O)[N-]c1ccc(C(=O)[O-])cc1 (optimized conformer: 111.55074866744948 kcal/mol)

>  <smiles>  (2) 
C=c1c(=Cc2[nH]c(=O)[nH]c2O)cc(C)n1C(=O)Nc1ccc(C(=O)O)cc1

>  <score_type>  (2) 
oracle

>  <origin>  (2) 
adg

>  <m_score__min__energy>  (2) 
-17.890000000000001

>  <m_primary>  (2) 
energy

$$$$
2:0
     RDKit          3D

 53 55  0  0  0  0  0  0  0  0999 V2000
   58.8850   27.4050   47.4320 C   0  0  0  0  0  0  0  0  0  0  0  0
   58.5560   28.0900   46.3250 C   0  0  0  0  0  0  0  0  0  0  0  0
   58.0940   27.5550   45.1130 C   0  0  0  0  0  0  0  0  0  0  0  0
   57.6950   26.3090   44.7850 C   0  0  0  0  0  0  0  0  0  0  0  0
   57.1050   25.3260   45.7080 C   0  0  0  0  0  0  0  0  0  0  0  0
   57.7810   24.3010   46.2610 N   0  0  0  0  0  0  0  0  0  0  0  0
   56.8910   23.7710   47.1270 C   0  0  0  0  0  0  0  0  0  0  0  0
   57.1520   22.7650   47.8360 O   0  0  0  0  0  0  0  0  0  0  0  0
   55.7030   24.4100   47.1800 N   0  0  0  0  0  0  0  0  0  0  0  0
   55.8590   25.4010   46.2870 C   0  0  0  0  0  0  0  0  0  0  0  0
   54.8750   26.3480   46.0130 O   0  0  0  0  0  0  0  0  0  0  0  0
   58.0630   28.6040   44.2130 C   0  0  0  0  0  0  0  0  0  0  0  0
   58.4420   29.7370   44.9000 C   0  0  0  0  0  0  0  0  0  0  0  0
   58.3870   31.1210   44.3120 C   0  0  0  0  0  0  0  0  0  0  0  0
   57.2980   31.2120   43.2480 C   0  0  0  0  0  0  0  0  0  0  0  0
   58.7390   29.4340   46.1890 N   0  0  0  0  0  0  0  0  0  0  0  0
   59.2220   30.3710   47.2190 C   0  0  0  0  0  0  0  0  0  0  0  0
   60.7590   30.3710   47.3130 C   0  0  0  0  0  0  0  0  0  0  0  0
   61.2950   31.0210   48.5940 C   0  0  0  0  0  0  0  0  0  0  0  0
   62.5450   31.7390   48.3300 N   0  0  0  0  0  0  0  0  0  0  0  0
   62.2690   33.4440   48.1150 S   0  0  0  0  0  0  0  0  0  0  0  0
   63.3840   34.0210   47.2900 O   0  0  0  0  0  0  0  0  0  0  0  0
   62.2660   34.1290   49.4540 O   0  0  0  0  0  0  0  0  0  0  0  0
   60.7390   33.7220   47.2890 C   0  0  0  0  0  0  0  0  0  0  0  0
   59.5260   33.6220   47.9840 C   0  0  0  0  0  0  0  0  0  0  0  0
   58.3140   33.8100   47.3130 C   0  0  0  0  0  0  0  0  0  0  0  0
   58.3020   34.1090   45.9420 C   0  0  0  0  0  0  0  0  0  0  0  0
   57.0010   34.2670   45.2130 C   0  0  0  0  0  0  0  0  0  0  0  0
   59.5180   34.1860   45.2430 C   0  0  0  0  0  0  0  0  0  0  0  0
   60.7290   33.9990   45.9160 C   0  0  0  0  0  0  0  0  0  0  0  0
   59.2369   27.9407   48.3260 H   0  0  0  0  0  0  0  0  0  0  0  0
   58.8026   26.3082   47.4449 H   0  0  0  0  0  0  0  0  0  0  0  0
   57.8215   26.0007   43.7367 H   0  0  0  0  0  0  0  0  0  0  0  0
   54.2290   26.6580   46.7280 H   0  0  0  0  0  0  0  0  0  0  0  0
   57.7878   28.5454   43.1496 H   0  0  0  0  0  0  0  0  0  0  0  0
   58.1717   31.8448   45.1118 H   0  0  0  0  0  0  0  0  0  0  0  0
   59.3573   31.3456   43.8450 H   0  0  0  0  0  0  0  0  0  0  0  0
   56.3152   31.2941   43.7353 H   0  0  0  0  0  0  0  0  0  0  0  0
   57.4715   32.0988   42.6207 H   0  0  0  0  0  0  0  0  0  0  0  0
   57.3219   30.3087   42.6207 H   0  0  0  0  0  0  0  0  0  0  0  0
   58.8803   31.3856   46.9664 H   0  0  0  0  0  0  0  0  0  0  0  0
   58.8190   30.0499   48.1908 H   0  0  0  0  0  0  0  0  0  0  0  0
   61.1096   29.3289   47.2787 H   0  0  0  0  0  0  0  0  0  0  0  0
   61.1342   30.9664   46.4675 H   0  0  0  0  0  0  0  0  0  0  0  0
   60.5468   31.7294   48.9792 H   0  0  0  0  0  0  0  0  0  0  0  0
   61.4917   30.2314   49.3341 H   0  0  0  0  0  0  0  0  0  0  0  0
   59.5276   33.3950   49.0603 H   0  0  0  0  0  0  0  0  0  0  0  0
   57.3650   33.7231   47.8625 H   0  0  0  0  0  0  0  0  0  0  0  0
   56.1824   34.3664   45.9411 H   0  0  0  0  0  0  0  0  0  0  0  0
   57.0414   35.1668   44.5816 H   0  0  0  0  0  0  0  0  0  0  0  0
   56.8249   33.3836   44.5816 H   0  0  0  0  0  0  0  0  0  0  0  0
   59.5174   34.3941   44.1629 H   0  0  0  0  0  0  0  0  0  0  0  0
   61.6783   34.0697   45.3648 H   0  0  0  0  0  0  0  0  0  0  0  0
  1  2  2  0
  2  3  1  0
  3  4  2  3
  4  5  1  0
  5  6  1  0
  6  7  1  0
  7  8  2  0
  7  9  1  0
  9 10  1  0
 10 11  1  0
  3 12  1  0
 12 13  2  0
 13 14  1  0
 14 15  1  0
 13 16  1  0
 16 17  1  0
 17 18  1  0
 18 19  1  0
 19 20  1  0
 20 21  1  0
 21 22  2  0
 21 23  2  0
 21 24  1  0
 24 25  2  0
 25 26  1  0
 26 27  2  0
 27 28  1  0
 27 29  1  0
 29 30  2  0
 16  2  1  0
 30 24  1  0
 10  5  2  0
  1 31  1  0
  1 32  1  0
  4 33  1  0
 11 34  1  0
 12 35  1  0
 14 36  1  0
 14 37  1  0
 15 38  1  0
 15 39  1  0
 15 40  1  0
 17 41  1  0
 17 42  1  0
 18 43  1  0
 18 44  1  0
 19 45  1  0
 19 46  1  0
 25 47  1  0
 26 48  1  0
 28 49  1  0
 28 50  1  0
 28 51  1  0
 29 52  1  0
 30 53  1  0
M  CHG  3   6  -1   9  -1  20  -1
M  END
>  <UniqueID>  (3) 
3

>  <SMILES>  (3) 
C=c1c(=Cc2[n-]c(=O)[n-]c2O)cc(CC)n1CCC[N-]S(=O)(=O)c1ccc(C)cc1

>  <Energy>  (3) 
115.17731096861931

>  <Genealogy>  (3) 
C=c1c(=Cc2[n-]c(=O)[n-]c2O)cc(CC)n1CCC[N-]S(=O)(=O)c1ccc(C)cc1 (protonated)
C=c1c(=Cc2[n-]c(=O)[n-]c2O)cc(CC)n1CCC[N-]S(=O)(=O)c1ccc(C)cc1 (3D coordinates assigned)
C=c1c(=Cc2[n-]c(=O)[n-]c2O)cc(CC)n1CCC[N-]S(=O)(=O)c1ccc(C)cc1 (optimized conformer: 115.17731096861931 kcal/mol)

>  <smiles>  (3) 
C=c1c(=Cc2[nH]c(=O)[nH]c2O)cc(CC)n1CCCNS(=O)(=O)c1ccc(C)cc1

>  <score_type>  (3) 
oracle

>  <origin>  (3) 
adg

>  <m_score__min__energy>  (3) 
-14.68

>  <m_primary>  (3) 
energy

$$$$
3:0
     RDKit          3D

 48 50  0  0  0  0  0  0  0  0999 V2000
   59.7030   35.5050   46.2880 C   0  0  0  0  0  0  0  0  0  0  0  0
   59.5120   34.1900   46.4060 C   0  0  0  0  0  0  0  0  0  0  0  0
   59.3190   33.4870   47.6990 C   0  0  0  0  0  0  0  0  0  0  0  0
   58.7880   32.1870   47.6820 C   0  0  0  0  0  0  0  0  0  0  0  0
   58.5940   31.4810   48.8720 C   0  0  0  0  0  0  0  0  0  0  0  0
   58.9320   32.0590   50.1040 C   0  0  0  0  0  0  0  0  0  0  0  0
   58.7100   31.2920   51.3900 C   0  0  0  0  0  0  0  0  0  0  0  0
   57.8540   32.0440   52.3450 N   0  0  2  0  0  0  0  0  0  0  0  0
   58.2250   31.7770   53.7690 C   0  0  0  0  0  0  0  0  0  0  0  0
   57.1850   30.9600   54.5590 C   0  0  0  0  0  0  0  0  0  0  0  0
   56.5970   29.8340   53.7070 C   0  0  0  0  0  0  0  0  0  0  0  0
   55.9830   30.3590   52.3840 C   0  0  1  0  0  0  0  0  0  0  0  0
   54.4680   30.2360   52.3650 C   0  0  0  0  0  0  0  0  0  0  0  0
   53.8560   29.0450   52.7920 C   0  0  0  0  0  0  0  0  0  0  0  0
   52.4670   28.9150   52.7640 C   0  0  0  0  0  0  0  0  0  0  0  0
   51.6700   29.9660   52.3090 C   0  0  0  0  0  0  0  0  0  0  0  0
   52.2570   31.1650   51.8690 C   0  0  0  0  0  0  0  0  0  0  0  0
   51.4110   32.2800   51.3800 C   0  0  0  0  0  0  0  0  0  0  0  0
   51.0120   32.3430   50.0110 N   0  0  0  0  0  0  0  0  0  0  0  0
   51.0350   33.1880   52.1700 O   0  0  0  0  0  0  0  0  0  0  0  0
   53.6580   31.2890   51.8980 C   0  0  0  0  0  0  0  0  0  0  0  0
   56.4160   31.8130   52.0710 C   0  0  0  0  0  0  0  0  0  0  0  0
   59.4810   33.3510   50.1260 C   0  0  0  0  0  0  0  0  0  0  0  0
   59.6750   34.0580   48.9370 C   0  0  0  0  0  0  0  0  0  0  0  0
   59.8388   35.9540   45.2930 H   0  0  0  0  0  0  0  0  0  0  0  0
   59.7247   36.1404   47.1857 H   0  0  0  0  0  0  0  0  0  0  0  0
   59.4965   33.5877   45.4856 H   0  0  0  0  0  0  0  0  0  0  0  0
   58.5222   31.7199   46.7222 H   0  0  0  0  0  0  0  0  0  0  0  0
   58.1733   30.4650   48.8422 H   0  0  0  0  0  0  0  0  0  0  0  0
   58.2222   30.3349   51.1532 H   0  0  0  0  0  0  0  0  0  0  0  0
   59.6896   31.1321   51.8642 H   0  0  0  0  0  0  0  0  0  0  0  0
   58.0100   33.0650   52.1670 H   0  0  0  0  0  0  0  0  0  0  0  0
   59.1755   31.2233   53.7782 H   0  0  0  0  0  0  0  0  0  0  0  0
   58.2928   32.7574   54.2632 H   0  0  0  0  0  0  0  0  0  0  0  0
   57.6703   30.5231   55.4442 H   0  0  0  0  0  0  0  0  0  0  0  0
   56.3674   31.6337   54.8551 H   0  0  0  0  0  0  0  0  0  0  0  0
   57.3963   29.1175   53.4666 H   0  0  0  0  0  0  0  0  0  0  0  0
   55.7925   29.3575   54.2865 H   0  0  0  0  0  0  0  0  0  0  0  0
   56.3827   29.7128   51.5886 H   0  0  0  0  0  0  0  0  0  0  0  0
   54.4759   28.2101   53.1505 H   0  0  0  0  0  0  0  0  0  0  0  0
   51.9980   27.9793   53.1023 H   0  0  0  0  0  0  0  0  0  0  0  0
   50.5756   29.8556   52.2945 H   0  0  0  0  0  0  0  0  0  0  0  0
   50.0030   32.3250   49.7450 H   0  0  0  0  0  0  0  0  0  0  0  0
   54.1273   32.2214   51.5511 H   0  0  0  0  0  0  0  0  0  0  0  0
   56.2211   32.0189   51.0082 H   0  0  0  0  0  0  0  0  0  0  0  0
   55.8376   32.4837   52.7234 H   0  0  0  0  0  0  0  0  0  0  0  0
   59.7602   33.8096   51.0860 H   0  0  0  0  0  0  0  0  0  0  0  0
   60.1090   35.0683   48.9674 H   0  0  0  0  0  0  0  0  0  0  0  0
  1  2  2  0
  2  3  1  0
  3  4  2  0
  4  5  1  0
  5  6  2  0
  6  7  1  0
  7  8  1  0
  8  9  1  0
  9 10  1  0
 10 11  1  0
 11 12  1  0
 12 13  1  0
 13 14  2  0
 14 15  1  0
 15 16  2  0
 16 17  1  0
 17 18  1  0
 18 19  1  0
 18 20  2  0
 17 21  2  0
 12 22  1  0
  6 23  1  0
 23 24  2  0
 24  3  1  0
 22  8  1  0
 21 13  1  0
  1 25  1  0
  1 26  1  0
  2 27  1  0
  4 28  1  0
  5 29  1  0
  7 30  1  0
  7 31  1  0
  8 32  1  6
  9 33  1  0
  9 34  1  0
 10 35  1  0
 10 36  1  0
 11 37  1  0
 11 38  1  0
 12 39  1  6
 14 40  1  0
 15 41  1  0
 16 42  1  0
 19 43  1  0
 21 44  1  0
 22 45  1  0
 22 46  1  0
 23 47  1  0
 24 48  1  0
M  CHG  2   8   1  19  -1
M  END
>  <UniqueID>  (4) 
4

>  <SMILES>  (4) 
C=Cc1ccc(C[N@@H+]2CCC[C@@H](c3cccc(C([NH-])=O)c3)C2)cc1

>  <Energy>  (4) 
62.41403632634739

>  <Genealogy>  (4) 
C=Cc1ccc(C[NH+]2CCCC(c3cccc(C([NH-])=O)c3)C2)cc1 (protonated)
C=Cc1ccc(C[N@@H+]2CCC[C@@H](c3cccc(C([NH-])=O)c3)C2)cc1 (chirality)
C=Cc1ccc(C[N@@H+]2CCC[C@@H](c3cccc(C([NH-])=O)c3)C2)cc1 (3D coordinates assigned)
C=Cc1ccc(C[N@@H+]2CCC[C@@H](c3cccc(C([NH-])=O)c3)C2)cc1 (nonaromatic ring conformer: 62.41403632634739 kcal/mol)

>  <smiles>  (4) 
C=Cc1ccc(CN2CCCC(c3cccc(C(N)=O)c3)C2)cc1

>  <score_type>  (4) 
oracle

>  <origin>  (4) 
adg

>  <m_score__min__energy>  (4) 
-10.92

>  <m_primary>  (4) 
energy

$$$$
4:0
     RDKit          3D

 51 54  0  0  0  0  0  0  0  0999 V2000
   65.0840   32.5270   49.9800 C   0  0  0  0  0  0  0  0  0  0  0  0
   64.6940   33.1060   48.7390 O   0  0  0  0  0  0  0  0  0  0  0  0
   63.3660   33.3610   48.3680 C   0  0  0  0  0  0  0  0  0  0  0  0
   62.3240   33.4760   49.3090 C   0  0  0  0  0  0  0  0  0  0  0  0
   61.0210   33.7540   48.8870 C   0  0  0  0  0  0  0  0  0  0  0  0
   60.7410   33.9420   47.5240 C   0  0  0  0  0  0  0  0  0  0  0  0
   59.3500   34.3170   47.0780 C   0  0  0  0  0  0  0  0  0  0  0  0
   59.1450   34.0470   45.6350 N   0  0  0  0  0  0  0  0  0  0  0  0
   59.2690   35.3030   44.8790 C   0  0  0  0  0  0  0  0  0  0  0  0
   57.8280   33.4190   45.3630 C   0  0  0  0  0  0  0  0  0  0  0  0
   57.9090   31.9420   45.5890 C   0  0  0  0  0  0  0  0  0  0  0  0
   56.9180   31.1300   45.1130 N   0  0  0  0  0  0  0  0  0  0  0  0
   56.9980   29.7720   45.2060 C   0  0  0  0  0  0  0  0  0  0  0  0
   56.0460   29.0640   44.7880 O   0  0  0  0  0  0  0  0  0  0  0  0
   58.1440   29.2020   45.7810 C   0  0  0  0  0  0  0  0  0  0  0  0
   58.4840   27.8420   45.9510 C   0  0  0  0  0  0  0  0  0  0  0  0
   57.7160   26.6890   45.4370 C   0  0  0  0  0  0  0  0  0  0  0  0
   58.0700   26.0790   44.2230 C   0  0  0  0  0  0  0  0  0  0  0  0
   57.3660   24.9630   43.7610 C   0  0  0  0  0  0  0  0  0  0  0  0
   56.2980   24.4420   44.5060 C   0  0  0  0  0  0  0  0  0  0  0  0
   55.5690   23.2210   44.0300 C   0  0  0  0  0  0  0  0  0  0  0  0
   55.9670   25.0280   45.7380 C   0  0  0  0  0  0  0  0  0  0  0  0
   56.6720   26.1430   46.2000 C   0  0  0  0  0  0  0  0  0  0  0  0
   59.6990   27.6780   46.6260 C   0  0  0  0  0  0  0  0  0  0  0  0
   60.3590   29.1930   46.9790 S   0  0  0  0  0  0  0  0  0  0  0  0
   59.1000   30.0560   46.2950 C   0  0  0  0  0  0  0  0  0  0  0  0
   59.0020   31.4020   46.2000 N   0  0  0  0  0  0  0  0  0  0  0  0
   61.7750   33.8020   46.5860 C   0  0  0  0  0  0  0  0  0  0  0  0
   63.0750   33.5120   47.0080 C   0  0  0  0  0  0  0  0  0  0  0  0
   64.6795   33.1276   50.8080 H   0  0  0  0  0  0  0  0  0  0  0  0
   64.6920   31.5013   50.0453 H   0  0  0  0  0  0  0  0  0  0  0  0
   66.1818   32.5048   50.0453 H   0  0  0  0  0  0  0  0  0  0  0  0
   62.5368   33.3464   50.3804 H   0  0  0  0  0  0  0  0  0  0  0  0
   60.2102   33.8259   49.6269 H   0  0  0  0  0  0  0  0  0  0  0  0
   58.6202   33.7322   47.6572 H   0  0  0  0  0  0  0  0  0  0  0  0
   59.2148   35.3954   47.2475 H   0  0  0  0  0  0  0  0  0  0  0  0
   59.3523   36.1464   45.5803 H   0  0  0  0  0  0  0  0  0  0  0  0
   60.1675   35.2626   44.2457 H   0  0  0  0  0  0  0  0  0  0  0  0
   58.3799   35.4391   44.2457 H   0  0  0  0  0  0  0  0  0  0  0  0
   57.0729   33.8498   46.0369 H   0  0  0  0  0  0  0  0  0  0  0  0
   57.5463   33.6093   44.3169 H   0  0  0  0  0  0  0  0  0  0  0  0
   58.9060   26.4814   43.6320 H   0  0  0  0  0  0  0  0  0  0  0  0
   57.6510   24.4914   42.8089 H   0  0  0  0  0  0  0  0  0  0  0  0
   55.2220   22.6398   44.8971 H   0  0  0  0  0  0  0  0  0  0  0  0
   54.7040   23.5242   43.4219 H   0  0  0  0  0  0  0  0  0  0  0  0
   56.2463   22.6034   43.4219 H   0  0  0  0  0  0  0  0  0  0  0  0
   55.1494   24.6079   46.3423 H   0  0  0  0  0  0  0  0  0  0  0  0
   56.4071   26.5952   47.1671 H   0  0  0  0  0  0  0  0  0  0  0  0
   60.1544   26.7112   46.8867 H   0  0  0  0  0  0  0  0  0  0  0  0
   61.5612   33.9211   45.5136 H   0  0  0  0  0  0  0  0  0  0  0  0
   63.8774   33.4014   46.2637 H   0  0  0  0  0  0  0  0  0  0  0  0
  1  2  1  0
  2  3  1  0
  3  4  2  0
  4  5  1  0
  5  6  2  0
  6  7  1  0
  7  8  1  0
  8  9  1  0
  8 10  1  0
 10 11  1  0
 11 12  2  0
 12 13  1  0
 13 14  2  0
 13 15  1  0
 15 16  1  0
 16 17  1  0
 17 18  2  0
 18 19  1  0
 19 20  2  0
 20 21  1  0
 20 22  1  0
 22 23  2  0
 16 24  2  0
 24 25  1  0
 25 26  1  0
 26 27  1  0
  6 28  1  0
 28 29  2  0
 29  3  1  0
 27 11  1  0
 26 15  2  0
 23 17  1  0
  1 30  1  0
  1 31  1  0
  1 32  1  0
  4 33  1  0
  5 34  1  0
  7 35  1  0
  7 36  1  0
  9 37  1  0
  9 38  1  0
  9 39  1  0
 10 40  1  0
 10 41  1  0
 18 42  1  0
 19 43  1  0
 21 44  1  0
 21 45  1  0
 21 46  1  0
 22 47  1  0
 23 48  1  0
 24 49  1  0
 28 50  1  0
 29 51  1  0
M  CHG  1  27  -1
M  END
>  <UniqueID>  (5) 
5

>  <SMILES>  (5) 
COc1ccc(CN(C)Cc2nc(=O)c3c(-c4ccc(C)cc4)csc3[n-]2)cc1

>  <Energy>  (5) 
90.04353781305463

>  <Genealogy>  (5) 
COc1ccc(CN(C)Cc2nc(=O)c3c(-c4ccc(C)cc4)csc3[n-]2)cc1 (protonated)
COc1ccc(CN(C)Cc2nc(=O)c3c(-c4ccc(C)cc4)csc3[n-]2)cc1 (3D coordinates assigned)
COc1ccc(CN(C)Cc2nc(=O)c3c(-c4ccc(C)cc4)csc3[n-]2)cc1 (optimized conformer: 90.04353781305463 kcal/mol)

>  <smiles>  (5) 
COc1ccc(CN(C)Cc2nc(=O)c3c(-c4ccc(C)cc4)csc3[nH]2)cc1

>  <score_type>  (5) 
oracle

>  <origin>  (5) 
adg

>  <m_score__min__energy>  (5) 
-10.32

>  <m_primary>  (5) 
energy

$$$$
5:0
     RDKit          3D

 41 44  0  0  0  0  0  0  0  0999 V2000
   57.1911   32.1494   44.7634 H   0  0  0  0  0  0  0  0  0  0  0  0
   57.0400   31.1820   44.2620 C   0  0  0  0  0  0  0  0  0  0  0  0
   56.6149   31.1485   43.2480 H   0  0  0  0  0  0  0  0  0  0  0  0
   57.3730   30.0470   44.8850 C   0  0  0  0  0  0  0  0  0  0  0  0
   57.1790   28.8580   44.2490 N   0  0  0  0  0  0  0  0  0  0  0  0
   57.6610   27.8080   44.9480 C   0  0  0  0  0  0  0  0  0  0  0  0
   57.6500   26.4030   44.4380 C   0  0  0  0  0  0  0  0  0  0  0  0
   56.9582   26.3307   43.5859 H   0  0  0  0  0  0  0  0  0  0  0  0
   58.6663   26.1278   44.1196 H   0  0  0  0  0  0  0  0  0  0  0  0
   57.2010   25.4590   45.5270 C   0  0  0  0  0  0  0  0  0  0  0  0
   55.9620   25.6350   46.1690 C   0  0  0  0  0  0  0  0  0  0  0  0
   55.1360   26.7030   45.8390 O   0  0  0  0  0  0  0  0  0  0  0  0
   55.5600   24.7560   47.1240 N   0  0  0  0  0  0  0  0  0  0  0  0
   56.3320   23.6950   47.4690 C   0  0  0  0  0  0  0  0  0  0  0  0
   55.8220   22.6560   48.6180 S   0  0  0  0  0  0  0  0  0  0  0  0
   57.5240   23.4920   46.8520 N   0  0  0  0  0  0  0  0  0  0  0  0
   57.9720   24.3400   45.8910 C   0  0  0  0  0  0  0  0  0  0  0  0
   59.0790   24.1110   45.3360 O   0  0  0  0  0  0  0  0  0  0  0  0
   58.3820   28.3070   46.3750 S   0  0  0  0  0  0  0  0  0  0  0  0
   58.0200   29.9360   46.1420 C   0  0  0  0  0  0  0  0  0  0  0  0
   58.3260   30.8650   47.0670 C   0  0  0  0  0  0  0  0  0  0  0  0
   57.5714   31.0678   47.8412 H   0  0  0  0  0  0  0  0  0  0  0  0
   59.5810   31.6350   47.1360 C   0  0  0  0  0  0  0  0  0  0  0  0
   59.7920   32.6890   46.2390 C   0  0  0  0  0  0  0  0  0  0  0  0
   59.0076   32.9512   45.5137 H   0  0  0  0  0  0  0  0  0  0  0  0
   60.9290   33.3760   46.2540 O   0  0  0  0  0  0  0  0  0  0  0  0
   61.9210   33.1030   47.0950 C   0  0  0  0  0  0  0  0  0  0  0  0
   63.0890   33.8690   47.0580 C   0  0  0  0  0  0  0  0  0  0  0  0
   63.1792   34.6954   46.3376 H   0  0  0  0  0  0  0  0  0  0  0  0
   64.1430   33.5900   47.9320 C   0  0  0  0  0  0  0  0  0  0  0  0
   65.0629   34.1916   47.8895 H   0  0  0  0  0  0  0  0  0  0  0  0
   64.0340   32.5470   48.8630 C   0  0  0  0  0  0  0  0  0  0  0  0
   65.1840   32.2250   49.7730 C   0  0  0  0  0  0  0  0  0  0  0  0
   64.8595   32.3158   50.8201 H   0  0  0  0  0  0  0  0  0  0  0  0
   65.5253   31.1967   49.5828 H   0  0  0  0  0  0  0  0  0  0  0  0
   66.0097   32.9265   49.5828 H   0  0  0  0  0  0  0  0  0  0  0  0
   62.8700   31.7620   48.8940 C   0  0  0  0  0  0  0  0  0  0  0  0
   62.7908   30.9270   49.6056 H   0  0  0  0  0  0  0  0  0  0  0  0
   61.8050   32.0400   48.0180 C   0  0  0  0  0  0  0  0  0  0  0  0
   60.6160   31.2880   48.0220 C   0  0  0  0  0  0  0  0  0  0  0  0
   60.4780   30.3100   48.8070 O   0  0  0  0  0  0  0  0  0  0  0  0
  1  2  1  0
  2  3  1  0
  2  4  2  0
  4  5  1  0
  5  6  2  0
  6  7  1  0
  7  8  1  0
  7  9  1  0
  7 10  1  0
 10 11  2  0
 11 12  1  0
 11 13  1  0
 13 14  1  0
 14 15  2  0
 14 16  1  0
 16 17  1  0
 17 18  2  0
  6 19  1  0
 19 20  1  0
 20 21  2  0
 21 22  1  0
 21 23  1  0
 23 24  2  0
 24 25  1  0
 24 26  1  0
 26 27  1  0
 27 28  2  0
 28 29  1  0
 28 30  1  0
 30 31  1  0
 30 32  2  0
 32 33  1  0
 33 34  1  0
 33 35  1  0
 33 36  1  0
 32 37  1  0
 37 38  1  0
 37 39  2  0
 39 40  1  0
 40 41  2  0
 20  4  1  0
 40 23  1  0
 17 10  1  0
 39 27  1  0
M  CHG  3  12  -1  13  -1  16  -1
M  END
>  <UniqueID>  (6) 
6

>  <SMILES>  (6) 
C=c1nc(Cc2c([O-])[n-]c(=S)[n-]c2=O)s/c1=C/c1coc2ccc(C)cc2c1=O

>  <Energy>  (6) 
94.51024153196914

>  <Genealogy>  (6) 
C=c1nc(Cc2c([O-])[n-]c(=S)[n-]c2=O)sc1=Cc1coc2ccc(C)cc2c1=O (protonated)
C=c1nc(Cc2c([O-])[n-]c(=S)[n-]c2=O)s/c1=C/c1coc2ccc(C)cc2c1=O (cis-trans isomerization)
C=c1nc(Cc2c([O-])[n-]c(=S)[n-]c2=O)s/c1=C/c1coc2ccc(C)cc2c1=O (3D coordinates assigned)
C=c1nc(Cc2c([O-])[n-]c(=S)[n-]c2=O)s/c1=C/c1coc2ccc(C)cc2c1=O (optimized conformer: 94.51024153196914 kcal/mol)

>  <smiles>  (6) 
C=c1nc(Cc2c(O)[nH]c(=S)[nH]c2=O)sc1=Cc1coc2ccc(C)cc2c1=O

>  <score_type>  (6) 
oracle

>  <origin>  (6) 
adg

>  <m_score__min__energy>  (6) 
-15.85

>  <m_primary>  (6) 
energy

$$$$
6:0
     RDKit          3D

 58 61  0  0  0  0  0  0  0  0999 V2000
   50.0670   32.7160   52.0560 N   0  0  0  0  0  0  0  0  0  0  0  0
   51.1750   32.0970   51.4040 C   0  0  0  0  0  0  0  0  0  0  0  0
   51.3020   32.2250   50.1560 O   0  0  0  0  0  0  0  0  0  0  0  0
   52.1690   31.3200   52.1810 C   0  0  0  0  0  0  0  0  0  0  0  0
   51.7510   30.4110   53.1710 C   0  0  0  0  0  0  0  0  0  0  0  0
   52.6920   29.6930   53.9150 C   0  0  0  0  0  0  0  0  0  0  0  0
   54.0580   29.8710   53.6830 C   0  0  0  0  0  0  0  0  0  0  0  0
   54.4920   30.7620   52.6930 C   0  0  0  0  0  0  0  0  0  0  0  0
   56.2130   31.0060   52.4060 S   0  0  0  0  0  0  0  0  0  0  0  0
   56.6550   30.1770   51.2340 O   0  0  0  0  0  0  0  0  0  0  0  0
   56.4520   32.4560   52.1000 O   0  0  0  0  0  0  0  0  0  0  0  0
   57.1370   30.5680   53.8150 N   0  0  0  0  0  0  0  0  0  0  0  0
   58.5450   30.9340   53.6590 C   0  0  0  0  0  0  0  0  0  0  0  0
   59.0480   30.5340   52.2970 C   0  0  0  0  0  0  0  0  0  0  0  0
   59.2360   31.5050   51.3040 C   0  0  0  0  0  0  0  0  0  0  0  0
   59.7180   31.1450   50.0420 C   0  0  0  0  0  0  0  0  0  0  0  0
   60.0310   29.8050   49.7560 C   0  0  0  0  0  0  0  0  0  0  0  0
   60.5530   29.4250   48.4230 C   0  0  0  0  0  0  0  0  0  0  0  0
   60.7510   28.2100   48.1490 O   0  0  0  0  0  0  0  0  0  0  0  0
   60.8050   30.4240   47.4190 N   0  0  0  0  0  0  0  0  0  0  0  0
   61.9680   31.3080   47.6350 C   0  0  0  0  0  0  0  0  0  0  0  0
   61.9020   32.5950   46.7900 C   0  0  0  0  0  0  0  0  0  0  0  0
   60.4920   33.1270   46.7480 C   0  0  0  0  0  0  0  0  0  0  0  0
   60.2340   34.4990   46.8850 C   0  0  0  0  0  0  0  0  0  0  0  0
   58.9190   34.9710   46.8520 C   0  0  0  0  0  0  0  0  0  0  0  0
   57.8590   34.0790   46.6810 C   0  0  0  0  0  0  0  0  0  0  0  0
   58.1070   32.7110   46.5260 C   0  0  0  0  0  0  0  0  0  0  0  0
   59.4300   32.2220   46.5450 C   0  0  0  0  0  0  0  0  0  0  0  0
   59.8160   30.7610   46.3680 C   0  0  2  0  0  0  0  0  0  0  0  0
   58.6400   29.7490   46.2830 C   0  0  0  0  0  0  0  0  0  0  0  0
   57.7190   30.0300   45.1290 C   0  0  0  0  0  0  0  0  0  0  0  0
   56.5100   29.6800   45.1850 O   0  0  0  0  0  0  0  0  0  0  0  0
   58.2070   30.6190   43.9690 O   0  0  0  0  0  0  0  0  0  0  0  0
   59.8250   28.8300   50.7490 C   0  0  0  0  0  0  0  0  0  0  0  0
   59.3450   29.1920   52.0100 C   0  0  0  0  0  0  0  0  0  0  0  0
   53.5490   31.4880   51.9510 C   0  0  0  0  0  0  0  0  0  0  0  0
   49.9020   33.7430   51.9750 H   0  0  0  0  0  0  0  0  0  0  0  0
   50.6774   30.2646   53.3605 H   0  0  0  0  0  0  0  0  0  0  0  0
   52.3553   28.9848   54.6864 H   0  0  0  0  0  0  0  0  0  0  0  0
   54.7938   29.3107   54.2785 H   0  0  0  0  0  0  0  0  0  0  0  0
   58.6512   32.0223   53.7785 H   0  0  0  0  0  0  0  0  0  0  0  0
   59.1353   30.4083   54.4239 H   0  0  0  0  0  0  0  0  0  0  0  0
   59.0026   32.5582   51.5192 H   0  0  0  0  0  0  0  0  0  0  0  0
   59.8531   31.9151   49.2683 H   0  0  0  0  0  0  0  0  0  0  0  0
   62.0054   31.5868   48.6984 H   0  0  0  0  0  0  0  0  0  0  0  0
   62.8676   30.7546   47.3276 H   0  0  0  0  0  0  0  0  0  0  0  0
   62.5623   33.3542   47.2345 H   0  0  0  0  0  0  0  0  0  0  0  0
   62.2261   32.3644   45.7644 H   0  0  0  0  0  0  0  0  0  0  0  0
   61.0676   35.2041   47.0185 H   0  0  0  0  0  0  0  0  0  0  0  0
   58.7189   36.0472   46.9610 H   0  0  0  0  0  0  0  0  0  0  0  0
   56.8247   34.4532   46.6681 H   0  0  0  0  0  0  0  0  0  0  0  0
   57.2671   32.0140   46.3888 H   0  0  0  0  0  0  0  0  0  0  0  0
   60.2614   30.6552   45.3678 H   0  0  0  0  0  0  0  0  0  0  0  0
   59.0540   28.7367   46.1652 H   0  0  0  0  0  0  0  0  0  0  0  0
   58.0528   29.8415   47.2085 H   0  0  0  0  0  0  0  0  0  0  0  0
   60.0436   27.7743   50.5308 H   0  0  0  0  0  0  0  0  0  0  0  0
   59.1990   28.4220   52.7818 H   0  0  0  0  0  0  0  0  0  0  0  0
   53.8902   32.1960   51.1814 H   0  0  0  0  0  0  0  0  0  0  0  0
  1  2  1  0
  2  3  2  0
  2  4  1  0
  4  5  2  0
  5  6  1  0
  6  7  2  0
  7  8  1  0
  8  9  1  0
  9 10  2  0
  9 11  2  0
  9 12  1  0
 12 13  1  0
 13 14  1  0
 14 15  2  0
 15 16  1  0
 16 17  2  0
 17 18  1  0
 18 19  2  0
 18 20  1  0
 20 21  1  0
 21 22  1  0
 22 23  1  0
 23 24  2  0
 24 25  1  0
 25 26  2  0
 26 27  1  0
 27 28  2  0
 28 29  1  0
 29 30  1  0
 30 31  1  0
 31 32  2  0
 31 33  1  0
 17 34  1  0
 34 35  2  0
  8 36  2  0
 36  4  1  0
 35 14  1  0
 29 20  1  0
 28 23  1  0
  1 37  1  0
  5 38  1  0
  6 39  1  0
  7 40  1  0
 13 41  1  0
 13 42  1  0
 15 43  1  0
 16 44  1  0
 21 45  1  0
 21 46  1  0
 22 47  1  0
 22 48  1  0
 24 49  1  0
 25 50  1  0
 26 51  1  0
 27 52  1  0
 29 53  1  6
 30 54  1  0
 30 55  1  0
 34 56  1  0
 35 57  1  0
 36 58  1  0
M  CHG  3   1  -1  12  -1  33  -1
M  END
>  <UniqueID>  (7) 
7

>  <SMILES>  (7) 
[NH-]C(=O)c1cccc(S(=O)(=O)[N-]Cc2ccc(C(=O)N3CCc4ccccc4[C@@H]3CC(=O)[O-])cc2)c1

>  <Energy>  (7) 
77.73623173833836

>  <Genealogy>  (7) 
[NH-]C(=O)c1cccc(S(=O)(=O)[N-]Cc2ccc(C(=O)N3CCc4ccccc4C3CC(=O)[O-])cc2)c1 (protonated)
[NH-]C(=O)c1cccc(S(=O)(=O)[N-]Cc2ccc(C(=O)N3CCc4ccccc4[C@@H]3CC(=O)[O-])cc2)c1 (chirality)
[NH-]C(=O)c1cccc(S(=O)(=O)[N-]Cc2ccc(C(=O)N3CCc4ccccc4[C@@H]3CC(=O)[O-])cc2)c1 (3D coordinates assigned)
[NH-]C(=O)c1cccc(S(=O)(=O)[N-]Cc2ccc(C(=O)N3CCc4ccccc4[C@@H]3CC(=O)[O-])cc2)c1 (nonaromatic ring conformer: 77.73623173833836 kcal/mol)

>  <smiles>  (7) 
NC(=O)c1cccc(S(=O)(=O)NCc2ccc(C(=O)N3CCc4ccccc4C3CC(=O)O)cc2)c1

>  <score_type>  (7) 
oracle

>  <origin>  (7) 
adg

>  <m_score__min__energy>  (7) 
-16.890000000000001

>  <m_primary>  (7) 
energy

$$$$
7:0
     RDKit          3D

 53 55  0  0  0  0  0  0  0  0999 V2000
   56.4010   24.1210   43.9010 C   0  0  0  0  0  0  0  0  0  0  0  0
   56.3670   24.4740   45.1850 C   0  0  0  0  0  0  0  0  0  0  0  0
   55.2660   25.2780   45.7560 C   0  0  0  0  0  0  0  0  0  0  0  0
   54.1410   24.7510   45.9670 O   0  0  0  0  0  0  0  0  0  0  0  0
   55.4260   26.6800   46.0080 N   0  0  0  0  0  0  0  0  0  0  0  0
   56.6410   27.4320   45.8890 C   0  0  0  0  0  0  0  0  0  0  0  0
   56.8310   28.3640   44.8550 C   0  0  0  0  0  0  0  0  0  0  0  0
   58.0410   29.0540   44.7440 C   0  0  0  0  0  0  0  0  0  0  0  0
   59.0750   28.8100   45.6520 C   0  0  0  0  0  0  0  0  0  0  0  0
   58.9050   27.8680   46.6780 C   0  0  0  0  0  0  0  0  0  0  0  0
   60.0210   27.5760   47.6430 C   0  0  0  0  0  0  0  0  0  0  0  0
   60.7040   28.8130   48.0150 N   0  0  0  0  0  0  0  0  0  0  0  0
   60.0240   29.9070   48.6470 C   0  0  0  0  0  0  0  0  0  0  0  0
   58.8370   29.7620   49.0470 O   0  0  0  0  0  0  0  0  0  0  0  0
   60.6990   31.1610   48.8560 N   0  0  0  0  0  0  0  0  0  0  0  0
   61.4800   31.7650   47.7690 C   0  0  0  0  0  0  0  0  0  0  0  0
   62.7110   32.4840   48.3330 C   0  0  0  0  0  0  0  0  0  0  0  0
   62.3280   33.4680   49.4510 C   0  0  0  0  0  0  0  0  0  0  0  0
   61.5480   34.5720   48.8870 N   0  0  0  0  0  0  0  0  0  0  0  0
   60.1230   34.6010   48.7340 C   0  0  0  0  0  0  0  0  0  0  0  0
   59.4150   34.9370   49.7190 O   0  0  0  0  0  0  0  0  0  0  0  0
   59.4600   34.2660   47.4590 C   0  0  0  0  0  0  0  0  0  0  0  0
   59.8020   34.9520   46.2840 C   0  0  0  0  0  0  0  0  0  0  0  0
   59.1610   34.6420   45.0830 C   0  0  0  0  0  0  0  0  0  0  0  0
   58.1710   33.6600   45.0700 C   0  0  0  0  0  0  0  0  0  0  0  0
   57.8310   33.0210   46.2200 N   0  0  0  0  0  0  0  0  0  0  0  0
   58.4430   33.3010   47.4030 C   0  0  0  0  0  0  0  0  0  0  0  0
   61.5340   32.7380   50.5510 C   0  0  0  0  0  0  0  0  0  0  0  0
   60.3060   32.0190   49.9790 C   0  0  0  0  0  0  0  0  0  0  0  0
   57.6910   27.1700   46.7800 C   0  0  0  0  0  0  0  0  0  0  0  0
   57.2399   23.5217   43.5174 H   0  0  0  0  0  0  0  0  0  0  0  0
   55.5902   24.4288   43.2243 H   0  0  0  0  0  0  0  0  0  0  0  0
   57.1880   24.1556   45.8442 H   0  0  0  0  0  0  0  0  0  0  0  0
   56.0247   28.5511   44.1305 H   0  0  0  0  0  0  0  0  0  0  0  0
   58.1801   29.7913   43.9396 H   0  0  0  0  0  0  0  0  0  0  0  0
   60.0246   29.3579   45.5621 H   0  0  0  0  0  0  0  0  0  0  0  0
   59.6062   27.1044   48.5461 H   0  0  0  0  0  0  0  0  0  0  0  0
   60.7424   26.8986   47.1627 H   0  0  0  0  0  0  0  0  0  0  0  0
   61.7360   28.8720   47.8650 H   0  0  0  0  0  0  0  0  0  0  0  0
   61.8068   30.9762   47.0755 H   0  0  0  0  0  0  0  0  0  0  0  0
   60.8505   32.4956   47.2398 H   0  0  0  0  0  0  0  0  0  0  0  0
   63.4070   31.7353   48.7392 H   0  0  0  0  0  0  0  0  0  0  0  0
   63.1802   33.0545   47.5179 H   0  0  0  0  0  0  0  0  0  0  0  0
   63.2411   33.8794   49.9060 H   0  0  0  0  0  0  0  0  0  0  0  0
   60.5751   35.7341   46.3089 H   0  0  0  0  0  0  0  0  0  0  0  0
   59.4343   35.1673   44.1560 H   0  0  0  0  0  0  0  0  0  0  0  0
   57.6648   33.4024   44.1279 H   0  0  0  0  0  0  0  0  0  0  0  0
   58.1397   32.7696   48.3171 H   0  0  0  0  0  0  0  0  0  0  0  0
   62.1894   31.9971   51.0321 H   0  0  0  0  0  0  0  0  0  0  0  0
   61.1864   33.4865   51.2783 H   0  0  0  0  0  0  0  0  0  0  0  0
   59.8476   31.4012   50.7653 H   0  0  0  0  0  0  0  0  0  0  0  0
   59.5846   32.7690   49.6225 H   0  0  0  0  0  0  0  0  0  0  0  0
   57.5628   26.4110   47.5658 H   0  0  0  0  0  0  0  0  0  0  0  0
  1  2  2  0
  2  3  1  0
  3  4  2  0
  3  5  1  0
  5  6  1  0
  6  7  2  0
  7  8  1  0
  8  9  2  0
  9 10  1  0
 10 11  1  0
 11 12  1  0
 12 13  1  0
 13 14  2  0
 13 15  1  0
 15 16  1  0
 16 17  1  0
 17 18  1  0
 18 19  1  0
 19 20  1  0
 20 21  2  0
 20 22  1  0
 22 23  2  0
 23 24  1  0
 24 25  2  0
 25 26  1  0
 26 27  2  0
 18 28  1  0
 28 29  1  0
 10 30  2  0
 30  6  1  0
 29 15  1  0
 27 22  1  0
  1 31  1  0
  1 32  1  0
  2 33  1  0
  7 34  1  0
  8 35  1  0
  9 36  1  0
 11 37  1  0
 11 38  1  0
 12 39  1  0
 16 40  1  0
 16 41  1  0
 17 42  1  0
 17 43  1  0
 18 44  1  0
 23 45  1  0
 24 46  1  0
 25 47  1  0
 27 48  1  0
 28 49  1  0
 28 50  1  0
 29 51  1  0
 29 52  1  0
 30 53  1  0
M  CHG  2   5  -1  19  -1
M  END
>  <UniqueID>  (8) 
8

>  <SMILES>  (8) 
C=CC(=O)[N-]c1cccc(CNC(=O)N2CCC([N-]C(=O)c3cccnc3)CC2)c1

>  <Energy>  (8) 
58.304945707351955

>  <Genealogy>  (8) 
C=CC(=O)[N-]c1cccc(CNC(=O)N2CCC([N-]C(=O)c3cccnc3)CC2)c1 (protonated)
C=CC(=O)[N-]c1cccc(CNC(=O)N2CCC([N-]C(=O)c3cccnc3)CC2)c1 (3D coordinates assigned)
C=CC(=O)[N-]c1cccc(CNC(=O)N2CCC([N-]C(=O)c3cccnc3)CC2)c1 (nonaromatic ring conformer: 58.304945707351955 kcal/mol)

>  <smiles>  (8) 
C=CC(=O)Nc1cccc(CNC(=O)N2CCC(NC(=O)c3cccnc3)CC2)c1

>  <score_type>  (8) 
oracle

>  <origin>  (8) 
adg

>  <m_score__min__energy>  (8) 
-11.220000000000001

>  <m_primary>  (8) 
energy

$$$$
8:0
     RDKit          3D

 59 62  0  0  0  0  0  0  0  0999 V2000
   63.1760   33.8660   46.3920 C   0  0  0  0  0  0  0  0  0  0  0  0
   62.4650   33.2360   47.5860 C   0  0  0  0  0  0  0  0  0  0  0  0
   61.0150   33.2080   47.3610 N   0  0  0  0  0  0  0  0  0  0  0  0
   60.5000   33.4550   46.1130 C   0  0  0  0  0  0  0  0  0  0  0  0
   59.0970   33.4600   45.8860 C   0  0  0  0  0  0  0  0  0  0  0  0
   58.5180   33.7030   44.5390 C   0  0  0  0  0  0  0  0  0  0  0  0
   58.1370   32.7180   43.7140 C   0  0  0  0  0  0  0  0  0  0  0  0
   57.5350   31.4640   44.2070 C   0  0  0  0  0  0  0  0  0  0  0  0
   56.4520   31.4890   44.8530 O   0  0  0  0  0  0  0  0  0  0  0  0
   58.1860   30.2130   43.9440 N   0  0  0  0  0  0  0  0  0  0  0  0
   57.6470   28.9350   44.4210 C   0  0  0  0  0  0  0  0  0  0  0  0
   57.7810   28.8360   45.9570 C   0  0  0  0  0  0  0  0  0  0  0  0
   57.7120   27.3830   46.4660 C   0  0  0  0  0  0  0  0  0  0  0  0
   57.0340   26.5260   45.4760 N   0  0  0  0  0  0  0  0  0  0  0  0
   56.5900   25.2250   46.0240 C   0  0  0  0  0  0  0  0  0  0  0  0
   56.8700   24.0460   45.1150 C   0  0  0  0  0  0  0  0  0  0  0  0
   58.0010   23.2380   45.3280 C   0  0  0  0  0  0  0  0  0  0  0  0
   58.2600   22.1510   44.4880 C   0  0  0  0  0  0  0  0  0  0  0  0
   57.3980   21.8650   43.4250 C   0  0  0  0  0  0  0  0  0  0  0  0
   56.2790   22.6700   43.1980 C   0  0  0  0  0  0  0  0  0  0  0  0
   56.0160   23.7590   44.0360 C   0  0  0  0  0  0  0  0  0  0  0  0
   57.8280   26.3950   44.2350 C   0  0  0  0  0  0  0  0  0  0  0  0
   58.3690   27.7570   43.7440 C   0  0  0  0  0  0  0  0  0  0  0  0
   58.2520   33.1910   46.9820 C   0  0  0  0  0  0  0  0  0  0  0  0
   56.9970   33.1670   46.8570 O   0  0  0  0  0  0  0  0  0  0  0  0
   58.8240   32.9720   48.1880 N   0  0  0  0  0  0  0  0  0  0  0  0
   58.2240   32.7220   49.3350 N   0  0  0  0  0  0  0  0  0  0  0  0
   59.2370   32.5960   50.2250 C   0  0  0  0  0  0  0  0  0  0  0  0
   59.0260   32.2550   51.6610 C   0  0  0  0  0  0  0  0  0  0  0  0
   60.4680   32.7420   49.6690 N   0  0  0  0  0  0  0  0  0  0  0  0
   60.1420   32.9830   48.3840 C   0  0  0  0  0  0  0  0  0  0  0  0
   63.9543   34.5556   46.7508 H   0  0  0  0  0  0  0  0  0  0  0  0
   63.6388   33.0761   45.7822 H   0  0  0  0  0  0  0  0  0  0  0  0
   62.4475   34.4205   45.7822 H   0  0  0  0  0  0  0  0  0  0  0  0
   62.8303   32.2077   47.7242 H   0  0  0  0  0  0  0  0  0  0  0  0
   62.6754   33.8356   48.4839 H   0  0  0  0  0  0  0  0  0  0  0  0
   61.1843   33.6523   45.2747 H   0  0  0  0  0  0  0  0  0  0  0  0
   58.3961   34.7431   44.2024 H   0  0  0  0  0  0  0  0  0  0  0  0
   58.2780   32.8488   42.6309 H   0  0  0  0  0  0  0  0  0  0  0  0
   59.0560   30.2190   43.3630 H   0  0  0  0  0  0  0  0  0  0  0  0
   56.5803   28.8869   44.1566 H   0  0  0  0  0  0  0  0  0  0  0  0
   58.7478   29.2680   46.2548 H   0  0  0  0  0  0  0  0  0  0  0  0
   56.9372   29.3847   46.4009 H   0  0  0  0  0  0  0  0  0  0  0  0
   58.7326   27.0079   46.6324 H   0  0  0  0  0  0  0  0  0  0  0  0
   57.1441   27.3602   47.4078 H   0  0  0  0  0  0  0  0  0  0  0  0
   57.1093   25.0565   46.9790 H   0  0  0  0  0  0  0  0  0  0  0  0
   55.4978   25.2847   46.1406 H   0  0  0  0  0  0  0  0  0  0  0  0
   58.6852   23.4623   46.1596 H   0  0  0  0  0  0  0  0  0  0  0  0
   59.1435   21.5196   44.6636 H   0  0  0  0  0  0  0  0  0  0  0  0
   57.6008   21.0066   42.7677 H   0  0  0  0  0  0  0  0  0  0  0  0
   55.6035   22.4472   42.3589 H   0  0  0  0  0  0  0  0  0  0  0  0
   55.1370   24.3935   43.8497 H   0  0  0  0  0  0  0  0  0  0  0  0
   58.6783   25.7241   44.4272 H   0  0  0  0  0  0  0  0  0  0  0  0
   57.1691   25.9905   43.4526 H   0  0  0  0  0  0  0  0  0  0  0  0
   59.4429   27.8177   43.9741 H   0  0  0  0  0  0  0  0  0  0  0  0
   58.1930   27.8248   42.6603 H   0  0  0  0  0  0  0  0  0  0  0  0
   59.4997   33.0206   52.2931 H   0  0  0  0  0  0  0  0  0  0  0  0
   57.9476   32.2190   51.8747 H   0  0  0  0  0  0  0  0  0  0  0  0
   59.4751   31.2738   51.8747 H   0  0  0  0  0  0  0  0  0  0  0  0
  1  2  1  0
  2  3  1  0
  3  4  1  0
  4  5  2  0
  5  6  1  0
  6  7  2  3
  7  8  1  0
  8  9  2  0
  8 10  1  0
 10 11  1  0
 11 12  1  0
 12 13  1  0
 13 14  1  0
 14 15  1  0
 15 16  1  0
 16 17  2  0
 17 18  1  0
 18 19  2  0
 19 20  1  0
 20 21  2  0
 14 22  1  0
 22 23  1  0
  5 24  1  0
 24 25  2  0
 24 26  1  0
 26 27  1  0
 27 28  2  0
 28 29  1  0
 28 30  1  0
 30 31  2  0
 31  3  1  0
 23 11  1  0
 31 26  1  0
 21 16  1  0
  1 32  1  0
  1 33  1  0
  1 34  1  0
  2 35  1  0
  2 36  1  0
  4 37  1  0
  6 38  1  0
  7 39  1  0
 10 40  1  0
 11 41  1  0
 12 42  1  0
 12 43  1  0
 13 44  1  0
 13 45  1  0
 15 46  1  0
 15 47  1  0
 17 48  1  0
 18 49  1  0
 19 50  1  0
 20 51  1  0
 21 52  1  0
 22 53  1  0
 22 54  1  0
 23 55  1  0
 23 56  1  0
 29 57  1  0
 29 58  1  0
 29 59  1  0
M  END
>  <UniqueID>  (9) 
9

>  <SMILES>  (9) 
CCn1cc(C=CC(=O)NC2CCN(Cc3ccccc3)CC2)c(=O)n2nc(C)nc12

>  <Energy>  (9) 
105.8946032371004

>  <Genealogy>  (9) 
CCn1cc(C=CC(=O)NC2CCN(Cc3ccccc3)CC2)c(=O)n2nc(C)nc12 (3D coordinates assigned)
CCn1cc(C=CC(=O)NC2CCN(Cc3ccccc3)CC2)c(=O)n2nc(C)nc12 (nonaromatic ring conformer: 105.8946032371004 kcal/mol)

>  <smiles>  (9) 
CCn1cc(C=CC(=O)NC2CCN(Cc3ccccc3)CC2)c(=O)n2nc(C)nc12

>  <score_type>  (9) 
oracle

>  <origin>  (9) 
adg

>  <m_score__min__energy>  (9) 
-9.7699999999999996

>  <m_primary>  (9) 
energy

$$$$
9:0
     RDKit          3D

 50 52  0  0  0  0  0  0  0  0999 V2000
   56.6610   25.0270   46.9770 O   0  0  0  0  0  0  0  0  0  0  0  0
   55.8130   25.4180   46.1310 C   0  0  0  0  0  0  0  0  0  0  0  0
   55.0740   24.4170   45.3080 C   0  0  0  0  0  0  0  0  0  0  0  0
   56.0360   23.5950   44.5830 N   0  0  0  0  0  0  0  0  0  0  0  0
   56.1720   22.0390   45.3450 S   0  0  0  0  0  0  0  0  0  0  0  0
   55.8930   20.9760   44.3190 O   0  0  0  0  0  0  0  0  0  0  0  0
   57.5570   21.8380   45.8930 O   0  0  0  0  0  0  0  0  0  0  0  0
   54.9950   21.9260   46.6650 C   0  0  0  0  0  0  0  0  0  0  0  0
   53.6310   21.8690   46.3320 C   0  0  0  0  0  0  0  0  0  0  0  0
   52.6530   21.8580   47.3280 C   0  0  0  0  0  0  0  0  0  0  0  0
   53.0220   21.9060   48.6690 C   0  0  0  0  0  0  0  0  0  0  0  0
   54.3720   21.9510   49.0220 C   0  0  0  0  0  0  0  0  0  0  0  0
   55.3760   21.9440   48.0350 C   0  0  0  0  0  0  0  0  0  0  0  0
   56.7890   21.9480   48.4820 C   0  0  0  0  0  0  0  0  0  0  0  0
   57.3420   23.0290   48.8180 O   0  0  0  0  0  0  0  0  0  0  0  0
   57.5080   20.7650   48.5960 O   0  0  0  0  0  0  0  0  0  0  0  0
   55.5530   26.8150   45.9410 N   0  0  0  0  0  0  0  0  0  0  0  0
   56.5140   27.8280   45.6080 C   0  0  0  0  0  0  0  0  0  0  0  0
   57.8480   27.7580   46.0520 C   0  0  0  0  0  0  0  0  0  0  0  0
   58.7560   28.7780   45.7310 C   0  0  0  0  0  0  0  0  0  0  0  0
   60.4270   28.6580   46.2780 S   0  0  0  0  0  0  0  0  0  0  0  0
   60.8060   27.2110   46.4430 O   0  0  0  0  0  0  0  0  0  0  0  0
   61.3160   29.2710   45.2330 O   0  0  0  0  0  0  0  0  0  0  0  0
   60.5940   29.5170   47.7950 N   0  0  0  0  0  0  0  0  0  0  0  0
   61.6860   30.5140   47.7480 C   0  0  0  0  0  0  0  0  0  0  0  0
   61.1760   31.9460   47.5030 C   0  0  0  0  0  0  0  0  0  0  0  0
   60.0250   31.9220   46.6890 O   0  0  0  0  0  0  0  0  0  0  0  0
   58.9350   31.3570   47.3970 C   0  0  0  0  0  0  0  0  0  0  0  0
   59.3170   30.1090   48.2290 C   0  0  0  0  0  0  0  0  0  0  0  0
   58.3290   29.8740   44.9720 C   0  0  0  0  0  0  0  0  0  0  0  0
   57.0010   29.9600   44.5510 C   0  0  0  0  0  0  0  0  0  0  0  0
   56.0940   28.9460   44.8720 C   0  0  0  0  0  0  0  0  0  0  0  0
   54.7730   29.0490   44.4500 O   0  0  0  0  0  0  0  0  0  0  0  0
   54.4638   23.7786   45.9639 H   0  0  0  0  0  0  0  0  0  0  0  0
   54.4162   24.9353   44.5948 H   0  0  0  0  0  0  0  0  0  0  0  0
   53.3305   21.8326   45.2745 H   0  0  0  0  0  0  0  0  0  0  0  0
   51.5891   21.8113   47.0525 H   0  0  0  0  0  0  0  0  0  0  0  0
   52.2491   21.9085   49.4517 H   0  0  0  0  0  0  0  0  0  0  0  0
   54.6547   21.9924   50.0842 H   0  0  0  0  0  0  0  0  0  0  0  0
   58.1801   26.8991   46.6537 H   0  0  0  0  0  0  0  0  0  0  0  0
   62.2238   30.4917   48.7073 H   0  0  0  0  0  0  0  0  0  0  0  0
   62.3420   30.2474   46.9063 H   0  0  0  0  0  0  0  0  0  0  0  0
   60.9288   32.4134   48.4676 H   0  0  0  0  0  0  0  0  0  0  0  0
   61.9620   32.5242   46.9951 H   0  0  0  0  0  0  0  0  0  0  0  0
   58.5307   32.1194   48.0792 H   0  0  0  0  0  0  0  0  0  0  0  0
   58.1974   31.0323   46.6483 H   0  0  0  0  0  0  0  0  0  0  0  0
   59.4038   30.4015   49.2858 H   0  0  0  0  0  0  0  0  0  0  0  0
   58.5299   29.3543   48.0842 H   0  0  0  0  0  0  0  0  0  0  0  0
   59.0415   30.6690   44.7068 H   0  0  0  0  0  0  0  0  0  0  0  0
   56.6670   30.8287   43.9646 H   0  0  0  0  0  0  0  0  0  0  0  0
  1  2  2  0
  2  3  1  0
  3  4  1  0
  4  5  1  0
  5  6  2  0
  5  7  2  0
  5  8  1  0
  8  9  2  0
  9 10  1  0
 10 11  2  0
 11 12  1  0
 12 13  2  0
 13 14  1  0
 14 15  2  0
 14 16  1  0
  2 17  1  0
 17 18  1  0
 18 19  2  0
 19 20  1  0
 20 21  1  0
 21 22  2  0
 21 23  2  0
 21 24  1  0
 24 25  1  0
 25 26  1  0
 26 27  1  0
 27 28  1  0
 28 29  1  0
 20 30  2  0
 30 31  1  0
 31 32  2  0
 32 33  1  0
 13  8  1  0
 32 18  1  0
 29 24  1  0
  3 34  1  0
  3 35  1  0
  9 36  1  0
 10 37  1  0
 11 38  1  0
 12 39  1  0
 19 40  1  0
 25 41  1  0
 25 42  1  0
 26 43  1  0
 26 44  1  0
 28 45  1  0
 28 46  1  0
 29 47  1  0
 29 48  1  0
 30 49  1  0
 31 50  1  0
M  CHG  4   4  -1  16  -1  17  -1  33  -1
M  END
>  <UniqueID>  (10) 
10

>  <SMILES>  (10) 
O=C(C[N-]S(=O)(=O)c1ccccc1C(=O)[O-])[N-]c1cc(S(=O)(=O)N2CCOCC2)ccc1[O-]

>  <Energy>  (10) 
69.94853795623328

>  <Genealogy>  (10) 
O=C(C[N-]S(=O)(=O)c1ccccc1C(=O)[O-])[N-]c1cc(S(=O)(=O)N2CCOCC2)ccc1[O-] (protonated)
O=C(C[N-]S(=O)(=O)c1ccccc1C(=O)[O-])[N-]c1cc(S(=O)(=O)N2CCOCC2)ccc1[O-] (3D coordinates assigned)
O=C(C[N-]S(=O)(=O)c1ccccc1C(=O)[O-])[N-]c1cc(S(=O)(=O)N2CCOCC2)ccc1[O-] (nonaromatic ring conformer: 69.94853795623328 kcal/mol)

>  <smiles>  (10) 
O=C(CNS(=O)(=O)c1ccccc1C(=O)O)Nc1cc(S(=O)(=O)N2CCOCC2)ccc1O

>  <score_type>  (10) 
oracle

>  <origin>  (10) 
adg

>  <m_score__min__energy>  (10) 
-16.600000000000001

>  <m_primary>  (10) 
energy

$$$$
10:0
     RDKit          3D

 66 69  0  0  0  0  0  0  0  0999 V2000
   60.1170   28.8260   45.0270 C   0  0  0  0  0  0  0  0  0  0  0  0
   58.9650   28.7840   46.0280 C   0  0  0  0  0  0  0  0  0  0  0  0
   57.7180   28.2960   45.4110 N   0  0  0  0  0  0  0  0  0  0  0  0
   57.2960   26.9010   45.6220 C   0  0  0  0  0  0  0  0  0  0  0  0
   57.7780   26.0010   44.4850 C   0  0  0  0  0  0  0  0  0  0  0  0
   56.7560   29.2410   44.8890 C   0  0  0  0  0  0  0  0  0  0  0  0
   55.5240   29.0490   45.0870 O   0  0  0  0  0  0  0  0  0  0  0  0
   57.1760   30.4320   44.1190 C   0  0  0  0  0  0  0  0  0  0  0  0
   57.0150   30.4760   42.7260 C   0  0  0  0  0  0  0  0  0  0  0  0
   57.3890   31.6140   42.0100 C   0  0  0  0  0  0  0  0  0  0  0  0
   57.9290   32.7170   42.6730 C   0  0  0  0  0  0  0  0  0  0  0  0
   58.1020   32.6920   44.0680 C   0  0  0  0  0  0  0  0  0  0  0  0
   58.6630   33.8680   44.7700 C   0  0  0  0  0  0  0  0  0  0  0  0
   58.1890   35.0140   44.5390 O   0  0  0  0  0  0  0  0  0  0  0  0
   59.7450   33.7200   45.7020 N   0  0  0  0  0  0  0  0  0  0  0  0
   60.0510   34.7330   46.7100 C   0  0  0  0  0  0  0  0  0  0  0  0
   60.8370   34.1100   47.8290 C   0  0  0  0  0  0  0  0  0  0  0  0
   60.3500   34.1620   49.1440 C   0  0  0  0  0  0  0  0  0  0  0  0
   61.1070   33.6440   50.1990 C   0  0  0  0  0  0  0  0  0  0  0  0
   62.3750   33.0870   49.9590 C   0  0  0  0  0  0  0  0  0  0  0  0
   63.1890   32.5630   51.0790 C   0  0  0  0  0  0  0  0  0  0  0  0
   62.6570   32.3610   52.2040 O   0  0  0  0  0  0  0  0  0  0  0  0
   64.5910   32.3020   50.9080 N   0  0  0  0  0  0  0  0  0  0  0  0
   65.4600   33.4590   50.6450 C   0  0  0  0  0  0  0  0  0  0  0  0
   66.7860   33.0210   50.0270 C   0  0  0  0  0  0  0  0  0  0  0  0
   67.4790   32.0070   50.9370 C   0  0  0  0  0  0  0  0  0  0  0  0
   66.5710   30.8460   51.2450 C   0  0  0  0  0  0  0  0  0  0  0  0
   67.1290   29.6050   51.5900 C   0  0  0  0  0  0  0  0  0  0  0  0
   66.3040   28.5200   51.8890 C   0  0  0  0  0  0  0  0  0  0  0  0
   64.9180   28.6650   51.8510 C   0  0  0  0  0  0  0  0  0  0  0  0
   64.3480   29.8990   51.5290 C   0  0  0  0  0  0  0  0  0  0  0  0
   65.1650   31.0140   51.2480 C   0  0  0  0  0  0  0  0  0  0  0  0
   62.8610   33.0380   48.6410 C   0  0  0  0  0  0  0  0  0  0  0  0
   62.0990   33.5490   47.5860 C   0  0  0  0  0  0  0  0  0  0  0  0
   57.7070   31.5490   44.7860 C   0  0  0  0  0  0  0  0  0  0  0  0
   61.0732   28.8609   45.5697 H   0  0  0  0  0  0  0  0  0  0  0  0
   60.0866   27.9262   44.3951 H   0  0  0  0  0  0  0  0  0  0  0  0
   60.0212   29.7212   44.3951 H   0  0  0  0  0  0  0  0  0  0  0  0
   59.2379   28.1137   46.8564 H   0  0  0  0  0  0  0  0  0  0  0  0
   58.7889   29.8083   46.3883 H   0  0  0  0  0  0  0  0  0  0  0  0
   57.7179   26.5379   46.5708 H   0  0  0  0  0  0  0  0  0  0  0  0
   56.1968   26.8695   45.6497 H   0  0  0  0  0  0  0  0  0  0  0  0
   58.2580   25.1048   44.9051 H   0  0  0  0  0  0  0  0  0  0  0  0
   56.9198   25.7011   43.8657 H   0  0  0  0  0  0  0  0  0  0  0  0
   58.5033   26.5492   43.8657 H   0  0  0  0  0  0  0  0  0  0  0  0
   56.5922   29.6098   42.1959 H   0  0  0  0  0  0  0  0  0  0  0  0
   57.2576   31.6418   40.9182 H   0  0  0  0  0  0  0  0  0  0  0  0
   58.2207   33.6103   42.1013 H   0  0  0  0  0  0  0  0  0  0  0  0
   60.3250   32.8510   45.6860 H   0  0  0  0  0  0  0  0  0  0  0  0
   60.6430   35.5387   46.2513 H   0  0  0  0  0  0  0  0  0  0  0  0
   59.1128   35.1463   47.1088 H   0  0  0  0  0  0  0  0  0  0  0  0
   59.3671   34.6128   49.3458 H   0  0  0  0  0  0  0  0  0  0  0  0
   60.7077   33.6725   51.2236 H   0  0  0  0  0  0  0  0  0  0  0  0
   64.9485   34.1422   49.9511 H   0  0  0  0  0  0  0  0  0  0  0  0
   65.6691   33.9633   51.6000 H   0  0  0  0  0  0  0  0  0  0  0  0
   66.5960   32.5599   49.0465 H   0  0  0  0  0  0  0  0  0  0  0  0
   67.4356   33.9005   49.9069 H   0  0  0  0  0  0  0  0  0  0  0  0
   68.3832   31.6326   50.4348 H   0  0  0  0  0  0  0  0  0  0  0  0
   67.7403   32.5065   51.8816 H   0  0  0  0  0  0  0  0  0  0  0  0
   68.2221   29.4872   51.6248 H   0  0  0  0  0  0  0  0  0  0  0  0
   66.7478   27.5493   52.1550 H   0  0  0  0  0  0  0  0  0  0  0  0
   64.2707   27.8044   52.0754 H   0  0  0  0  0  0  0  0  0  0  0  0
   63.2534   30.0020   51.4943 H   0  0  0  0  0  0  0  0  0  0  0  0
   63.8471   32.5948   48.4383 H   0  0  0  0  0  0  0  0  0  0  0  0
   62.4918   33.5107   46.5592 H   0  0  0  0  0  0  0  0  0  0  0  0
   57.8148   31.5292   45.8805 H   0  0  0  0  0  0  0  0  0  0  0  0
  1  2  1  0
  2  3  1  0
  3  4  1  0
  4  5  1  0
  3  6  1  0
  6  7  2  0
  6  8  1  0
  8  9  2  0
  9 10  1  0
 10 11  2  0
 11 12  1  0
 12 13  1  0
 13 14  2  0
 13 15  1  0
 15 16  1  0
 16 17  1  0
 17 18  2  0
 18 19  1  0
 19 20  2  0
 20 21  1  0
 21 22  2  0
 21 23  1  0
 23 24  1  0
 24 25  1  0
 25 26  1  0
 26 27  1  0
 27 28  2  0
 28 29  1  0
 29 30  2  0
 30 31  1  0
 31 32  2  0
 20 33  1  0
 33 34  2  0
 12 35  2  0
 35  8  1  0
 34 17  1  0
 32 23  1  0
 32 27  1  0
  1 36  1  0
  1 37  1  0
  1 38  1  0
  2 39  1  0
  2 40  1  0
  4 41  1  0
  4 42  1  0
  5 43  1  0
  5 44  1  0
  5 45  1  0
  9 46  1  0
 10 47  1  0
 11 48  1  0
 15 49  1  0
 16 50  1  0
 16 51  1  0
 18 52  1  0
 19 53  1  0
 24 54  1  0
 24 55  1  0
 25 56  1  0
 25 57  1  0
 26 58  1  0
 26 59  1  0
 28 60  1  0
 29 61  1  0
 30 62  1  0
 31 63  1  0
 33 64  1  0
 34 65  1  0
 35 66  1  0
M  END
>  <UniqueID>  (11) 
11

>  <SMILES>  (11) 
CCN(CC)C(=O)c1cccc(C(=O)NCc2ccc(C(=O)N3CCCc4ccccc43)cc2)c1

>  <Energy>  (11) 
77.93567405975973

>  <Genealogy>  (11) 
CCN(CC)C(=O)c1cccc(C(=O)NCc2ccc(C(=O)N3CCCc4ccccc43)cc2)c1 (3D coordinates assigned)
CCN(CC)C(=O)c1cccc(C(=O)NCc2ccc(C(=O)N3CCCc4ccccc43)cc2)c1 (nonaromatic ring conformer: 77.93567405975973 kcal/mol)

>  <smiles>  (11) 
CCN(CC)C(=O)c1cccc(C(=O)NCc2ccc(C(=O)N3CCCc4ccccc43)cc2)c1

>  <score_type>  (11) 
oracle

>  <origin>  (11) 
adg

>  <m_score__min__energy>  (11) 
-10.869999999999999

>  <m_primary>  (11) 
energy

$$$$
11:0
     RDKit          3D

 50 53  0  0  0  0  0  0  0  0999 V2000
   54.6910   26.2510   45.8440 N   0  0  0  0  0  0  0  0  0  0  0  0
   55.7200   24.8640   45.8690 S   0  0  0  0  0  0  0  0  0  0  0  0
   55.5040   24.0530   44.6230 O   0  0  0  0  0  0  0  0  0  0  0  0
   55.3830   24.0160   47.0620 O   0  0  0  0  0  0  0  0  0  0  0  0
   57.4010   25.3810   45.9540 C   0  0  0  0  0  0  0  0  0  0  0  0
   58.4330   24.4340   45.9770 C   0  0  0  0  0  0  0  0  0  0  0  0
   59.7640   24.8500   46.0610 C   0  0  0  0  0  0  0  0  0  0  0  0
   60.0730   26.2100   46.1280 C   0  0  0  0  0  0  0  0  0  0  0  0
   59.0480   27.1750   46.1130 C   0  0  0  0  0  0  0  0  0  0  0  0
   59.3710   28.6220   46.1930 C   0  0  0  0  0  0  0  0  0  0  0  0
   58.4250   29.5890   45.8100 C   0  0  0  0  0  0  0  0  0  0  0  0
   58.7240   30.9500   45.8990 C   0  0  0  0  0  0  0  0  0  0  0  0
   59.9760   31.3710   46.3700 C   0  0  0  0  0  0  0  0  0  0  0  0
   60.2680   32.8370   46.5290 C   0  0  0  0  0  0  0  0  0  0  0  0
   60.5710   33.1520   47.9350 N   0  0  0  0  0  0  0  0  0  0  0  0
   59.5220   33.6580   48.7660 C   0  0  0  0  0  0  0  0  0  0  0  0
   59.3290   34.9010   48.8340 O   0  0  0  0  0  0  0  0  0  0  0  0
   58.6880   32.7280   49.5900 C   0  0  0  0  0  0  0  0  0  0  0  0
   59.4100   32.2650   50.8580 C   0  0  0  0  0  0  0  0  0  0  0  0
   60.8340   31.2570   50.4810 S   0  0  0  0  0  0  0  0  0  0  0  0
   61.3810   30.7480   51.7850 O   0  0  0  0  0  0  0  0  0  0  0  0
   60.4060   30.0870   49.6410 O   0  0  0  0  0  0  0  0  0  0  0  0
   62.1180   32.1370   49.6300 C   0  0  0  0  0  0  0  0  0  0  0  0
   63.4250   31.9870   50.1200 C   0  0  0  0  0  0  0  0  0  0  0  0
   64.4980   32.6290   49.5040 C   0  0  0  0  0  0  0  0  0  0  0  0
   64.2840   33.4190   48.3790 C   0  0  0  0  0  0  0  0  0  0  0  0
   62.9940   33.5780   47.8710 C   0  0  0  0  0  0  0  0  0  0  0  0
   61.8900   32.9580   48.4900 C   0  0  0  0  0  0  0  0  0  0  0  0
   60.9260   30.4110   46.7500 C   0  0  0  0  0  0  0  0  0  0  0  0
   60.6280   29.0490   46.6600 C   0  0  0  0  0  0  0  0  0  0  0  0
   57.7100   26.7460   46.0280 C   0  0  0  0  0  0  0  0  0  0  0  0
   54.7920   26.6890   44.9000 H   0  0  0  0  0  0  0  0  0  0  0  0
   58.1950   23.3611   45.9288 H   0  0  0  0  0  0  0  0  0  0  0  0
   60.5716   24.1033   46.0744 H   0  0  0  0  0  0  0  0  0  0  0  0
   61.1236   26.5294   46.1929 H   0  0  0  0  0  0  0  0  0  0  0  0
   57.4404   29.2705   45.4369 H   0  0  0  0  0  0  0  0  0  0  0  0
   57.9736   31.6959   45.5981 H   0  0  0  0  0  0  0  0  0  0  0  0
   61.1326   33.1040   45.9036 H   0  0  0  0  0  0  0  0  0  0  0  0
   59.3835   33.4121   46.2178 H   0  0  0  0  0  0  0  0  0  0  0  0
   57.7623   33.2466   49.8800 H   0  0  0  0  0  0  0  0  0  0  0  0
   58.4768   31.8373   48.9801 H   0  0  0  0  0  0  0  0  0  0  0  0
   59.7396   33.1495   51.4229 H   0  0  0  0  0  0  0  0  0  0  0  0
   58.7081   31.6573   51.4480 H   0  0  0  0  0  0  0  0  0  0  0  0
   63.6047   31.3544   51.0018 H   0  0  0  0  0  0  0  0  0  0  0  0
   65.5145   32.5110   49.9076 H   0  0  0  0  0  0  0  0  0  0  0  0
   65.1327   33.9189   47.8893 H   0  0  0  0  0  0  0  0  0  0  0  0
   62.8366   34.1960   46.9747 H   0  0  0  0  0  0  0  0  0  0  0  0
   61.9105   30.7324   47.1207 H   0  0  0  0  0  0  0  0  0  0  0  0
   61.3817   28.3047   46.9565 H   0  0  0  0  0  0  0  0  0  0  0  0
   56.8992   27.4893   46.0196 H   0  0  0  0  0  0  0  0  0  0  0  0
  1  2  1  0
  2  3  2  0
  2  4  2  0
  2  5  1  0
  5  6  2  0
  6  7  1  0
  7  8  2  0
  8  9  1  0
  9 10  1  0
 10 11  2  0
 11 12  1  0
 12 13  2  0
 13 14  1  0
 14 15  1  0
 15 16  1  0
 16 17  2  0
 16 18  1  0
 18 19  1  0
 19 20  1  0
 20 21  2  0
 20 22  2  0
 20 23  1  0
 23 24  2  0
 24 25  1  0
 25 26  2  0
 26 27  1  0
 27 28  2  0
 13 29  1  0
 29 30  2  0
  9 31  2  0
 31  5  1  0
 30 10  1  0
 28 15  1  0
 28 23  1  0
  1 32  1  0
  6 33  1  0
  7 34  1  0
  8 35  1  0
 11 36  1  0
 12 37  1  0
 14 38  1  0
 14 39  1  0
 18 40  1  0
 18 41  1  0
 19 42  1  0
 19 43  1  0
 24 44  1  0
 25 45  1  0
 26 46  1  0
 27 47  1  0
 29 48  1  0
 30 49  1  0
 31 50  1  0
M  CHG  1   1  -1
M  END
>  <UniqueID>  (12) 
12

>  <SMILES>  (12) 
[NH-]S(=O)(=O)c1cccc(-c2ccc(CN3C(=O)CCS(=O)(=O)c4ccccc43)cc2)c1

>  <Energy>  (12) 
70.17385091455039

>  <Genealogy>  (12) 
[NH-]S(=O)(=O)c1cccc(-c2ccc(CN3C(=O)CCS(=O)(=O)c4ccccc43)cc2)c1 (protonated)
[NH-]S(=O)(=O)c1cccc(-c2ccc(CN3C(=O)CCS(=O)(=O)c4ccccc43)cc2)c1 (3D coordinates assigned)
[NH-]S(=O)(=O)c1cccc(-c2ccc(CN3C(=O)CCS(=O)(=O)c4ccccc43)cc2)c1 (nonaromatic ring conformer: 70.17385091455039 kcal/mol)

>  <smiles>  (12) 
NS(=O)(=O)c1cccc(-c2ccc(CN3C(=O)CCS(=O)(=O)c4ccccc43)cc2)c1

>  <score_type>  (12) 
oracle

>  <origin>  (12) 
adg

>  <m_score__min__energy>  (12) 
-10.76

>  <m_primary>  (12) 
energy

$$$$
12:0
     RDKit          3D

 42 45  0  0  0  0  0  0  0  0999 V2000
   57.8820   31.0910   51.3390 C   0  0  0  0  0  0  0  0  0  0  0  0
   58.9500   30.8680   50.3730 N   0  0  0  0  0  0  0  0  0  0  0  0
   59.9520   29.9730   50.4910 C   0  0  0  0  0  0  0  0  0  0  0  0
   60.7240   29.9820   49.3460 C   0  0  0  0  0  0  0  0  0  0  0  0
   60.1450   30.9090   48.4960 C   0  0  0  0  0  0  0  0  0  0  0  0
   60.6260   31.2780   47.1180 C   0  0  2  0  0  0  0  0  0  0  0  0
   61.4800   32.5050   47.2170 C   0  0  0  0  0  0  0  0  0  0  0  0
   62.6110   32.4370   47.7690 O   0  0  0  0  0  0  0  0  0  0  0  0
   61.0150   33.7540   46.7260 N   0  0  0  0  0  0  0  0  0  0  0  0
   59.8100   33.8330   45.9760 C   0  0  0  0  0  0  0  0  0  0  0  0
   59.4800   34.9490   45.4950 O   0  0  0  0  0  0  0  0  0  0  0  0
   58.9850   32.6130   45.7250 C   0  0  0  0  0  0  0  0  0  0  0  0
   59.4300   31.3990   46.1670 C   0  0  0  0  0  0  0  0  0  0  0  0
   58.6700   30.1540   45.8200 C   0  0  0  0  0  0  0  0  0  0  0  0
   59.1460   28.8540   46.1080 C   0  0  0  0  0  0  0  0  0  0  0  0
   58.3680   27.7280   45.8150 C   0  0  0  0  0  0  0  0  0  0  0  0
   59.0250   25.9820   46.2220 Br  0  0  0  0  0  0  0  0  0  0  0  0
   57.1080   27.8800   45.2350 C   0  0  0  0  0  0  0  0  0  0  0  0
   56.6290   29.1560   44.9420 C   0  0  0  0  0  0  0  0  0  0  0  0
   57.4100   30.2820   45.2230 C   0  0  0  0  0  0  0  0  0  0  0  0
   56.9120   31.5430   44.9280 O   0  0  0  0  0  0  0  0  0  0  0  0
   57.7260   32.7140   44.8350 C   0  0  0  0  0  0  0  0  0  0  0  0
   56.8150   33.8870   45.2490 C   0  0  0  0  0  0  0  0  0  0  0  0
   58.1500   32.8720   43.3670 C   0  0  0  0  0  0  0  0  0  0  0  0
   59.0500   31.4370   49.1580 C   0  0  0  0  0  0  0  0  0  0  0  0
   58.2863   31.0066   52.3585 H   0  0  0  0  0  0  0  0  0  0  0  0
   57.4604   32.0966   51.1938 H   0  0  0  0  0  0  0  0  0  0  0  0
   57.0932   30.3382   51.1938 H   0  0  0  0  0  0  0  0  0  0  0  0
   60.1279   29.3321   51.3676 H   0  0  0  0  0  0  0  0  0  0  0  0
   61.6195   29.3744   49.1488 H   0  0  0  0  0  0  0  0  0  0  0  0
   61.2629   30.4932   46.6840 H   0  0  0  0  0  0  0  0  0  0  0  0
   61.5950   34.6120   46.8680 H   0  0  0  0  0  0  0  0  0  0  0  0
   60.1375   28.7264   46.5669 H   0  0  0  0  0  0  0  0  0  0  0  0
   56.4943   26.9954   45.0096 H   0  0  0  0  0  0  0  0  0  0  0  0
   55.6342   29.2777   44.4886 H   0  0  0  0  0  0  0  0  0  0  0  0
   56.7692   33.9460   46.3465 H   0  0  0  0  0  0  0  0  0  0  0  0
   57.2223   34.8268   44.8480 H   0  0  0  0  0  0  0  0  0  0  0  0
   55.8036   33.7250   44.8480 H   0  0  0  0  0  0  0  0  0  0  0  0
   59.1799   33.2558   43.3221 H   0  0  0  0  0  0  0  0  0  0  0  0
   58.1005   31.8951   42.8639 H   0  0  0  0  0  0  0  0  0  0  0  0
   57.4732   33.5783   42.8639 H   0  0  0  0  0  0  0  0  0  0  0  0
   58.3692   32.2010   48.7545 H   0  0  0  0  0  0  0  0  0  0  0  0
  1  2  1  0
  2  3  1  0
  3  4  2  0
  4  5  1  0
  5  6  1  0
  6  7  1  0
  7  8  2  0
  7  9  1  0
  9 10  1  0
 10 11  2  0
 10 12  1  0
 12 13  2  0
 13 14  1  0
 14 15  2  0
 15 16  1  0
 16 17  1  0
 16 18  2  0
 18 19  1  0
 19 20  2  0
 20 21  1  0
 21 22  1  0
 22 23  1  0
 22 24  1  0
  5 25  2  0
 25  2  1  0
 13  6  1  0
 20 14  1  0
 22 12  1  0
  1 26  1  0
  1 27  1  0
  1 28  1  0
  3 29  1  0
  4 30  1  0
  6 31  1  6
  9 32  1  0
 15 33  1  0
 18 34  1  0
 19 35  1  0
 23 36  1  0
 23 37  1  0
 23 38  1  0
 24 39  1  0
 24 40  1  0
 24 41  1  0
 25 42  1  0
M  END
>  <UniqueID>  (13) 
13

>  <SMILES>  (13) 
Cn1ccc([C@@H]2C(=O)NC(=O)C3=C2c2cc(Br)ccc2OC3(C)C)c1

>  <Energy>  (13) 
76.68639497308702

>  <Genealogy>  (13) 
Cn1ccc([C@@H]2C(=O)NC(=O)C3=C2c2cc(Br)ccc2OC3(C)C)c1 (chirality)
Cn1ccc([C@@H]2C(=O)NC(=O)C3=C2c2cc(Br)ccc2OC3(C)C)c1 (3D coordinates assigned)
Cn1ccc([C@@H]2C(=O)NC(=O)C3=C2c2cc(Br)ccc2OC3(C)C)c1 (nonaromatic ring conformer: 76.68639497308702 kcal/mol)

>  <smiles>  (13) 
Cn1ccc(C2C(=O)NC(=O)C3=C2c2cc(Br)ccc2OC3(C)C)c1

>  <score_type>  (13) 
oracle

>  <origin>  (13) 
adg

>  <m_score__min__energy>  (13) 
-8.1999999999999993

>  <m_primary>  (13) 
energy

$$$$
13:0
     RDKit          3D

 47 49  0  0  0  0  0  0  0  0999 V2000
   58.9020   29.0340   51.0740 H   0  0  0  0  0  0  0  0  0  0  0  0
   59.8110   28.9540   50.5650 N   0  0  0  0  0  0  0  0  0  0  0  0
   60.3800   29.9760   50.0130 C   0  0  0  0  0  0  0  0  0  0  0  0
   61.7090   30.2680   50.3120 O   0  0  0  0  0  0  0  0  0  0  0  0
   62.4330   31.2600   49.6380 C   0  0  0  0  0  0  0  0  0  0  0  0
   61.9410   31.8480   48.5210 C   0  0  0  0  0  0  0  0  0  0  0  0
   62.8440   32.7250   47.7190 C   0  0  0  0  0  0  0  0  0  0  0  0
   62.5610   33.0080   46.5240 O   0  0  0  0  0  0  0  0  0  0  0  0
   64.1560   33.2100   48.2730 C   0  0  0  0  0  0  0  0  0  0  0  0
   64.9707   32.6472   47.7940 H   0  0  0  0  0  0  0  0  0  0  0  0
   64.2298   34.2871   48.0623 H   0  0  0  0  0  0  0  0  0  0  0  0
   64.2580   33.0230   49.8050 C   0  0  0  0  0  0  0  0  0  0  0  0
   63.3870   34.0690   50.5390 C   0  0  0  0  0  0  0  0  0  0  0  0
   63.4955   33.9387   51.6259 H   0  0  0  0  0  0  0  0  0  0  0  0
   63.7132   35.0809   50.2566 H   0  0  0  0  0  0  0  0  0  0  0  0
   62.3328   33.9314   50.2566 H   0  0  0  0  0  0  0  0  0  0  0  0
   65.7240   33.2170   50.2430 C   0  0  0  0  0  0  0  0  0  0  0  0
   65.7805   33.2245   51.3415 H   0  0  0  0  0  0  0  0  0  0  0  0
   66.3364   32.3921   49.8499 H   0  0  0  0  0  0  0  0  0  0  0  0
   66.1007   34.1728   49.8499 H   0  0  0  0  0  0  0  0  0  0  0  0
   63.8070   31.5860   50.1660 C   0  0  0  0  0  0  0  0  0  0  0  0
   64.5271   30.8728   49.7384 H   0  0  0  0  0  0  0  0  0  0  0  0
   63.7681   31.5146   51.2630 H   0  0  0  0  0  0  0  0  0  0  0  0
   60.5630   31.4350   47.9890 C   0  0  2  0  0  0  0  0  0  0  0  0
   60.7824   30.6060   47.3000 H   0  0  0  0  0  0  0  0  0  0  0  0
   59.8570   32.5180   47.1580 C   0  0  0  0  0  0  0  0  0  0  0  0
   59.9280   33.8580   47.5890 C   0  0  0  0  0  0  0  0  0  0  0  0
   60.4800   34.1018   48.5087 H   0  0  0  0  0  0  0  0  0  0  0  0
   59.3120   34.8770   46.8710 C   0  0  0  0  0  0  0  0  0  0  0  0
   59.3779   35.9157   47.2271 H   0  0  0  0  0  0  0  0  0  0  0  0
   58.6140   34.5880   45.7060 C   0  0  0  0  0  0  0  0  0  0  0  0
   58.1390   35.4029   45.1400 H   0  0  0  0  0  0  0  0  0  0  0  0
   58.5080   33.2680   45.2430 C   0  0  0  0  0  0  0  0  0  0  0  0
   57.7500   33.0200   43.9630 C   0  0  0  0  0  0  0  0  0  0  0  0
   56.7291   32.6860   44.2002 H   0  0  0  0  0  0  0  0  0  0  0  0
   57.7047   33.9502   43.3776 H   0  0  0  0  0  0  0  0  0  0  0  0
   58.2633   32.2429   43.3776 H   0  0  0  0  0  0  0  0  0  0  0  0
   59.0930   32.2070   45.9930 C   0  0  0  0  0  0  0  0  0  0  0  0
   58.9530   30.7720   45.5280 C   0  0  0  0  0  0  0  0  0  0  0  0
   58.8882   30.1079   46.4025 H   0  0  0  0  0  0  0  0  0  0  0  0
   58.0407   30.6703   44.9219 H   0  0  0  0  0  0  0  0  0  0  0  0
   59.8285   30.4959   44.9219 H   0  0  0  0  0  0  0  0  0  0  0  0
   59.6190   30.8990   49.1070 C   0  0  2  0  0  0  0  0  0  0  0  0
   58.8022   30.3689   48.5952 H   0  0  0  0  0  0  0  0  0  0  0  0
   58.9930   31.9910   49.9380 C   0  0  0  0  0  0  0  0  0  0  0  0
   57.7620   31.9670   50.2110 O   0  0  0  0  0  0  0  0  0  0  0  0
   59.7820   33.0190   50.4370 O   0  0  0  0  0  0  0  0  0  0  0  0
  1  2  1  0
  2  3  2  0
  3  4  1  0
  4  5  1  0
  5  6  2  0
  6  7  1  0
  7  8  2  0
  7  9  1  0
  9 10  1  0
  9 11  1  0
  9 12  1  0
 12 13  1  0
 13 14  1  0
 13 15  1  0
 13 16  1  0
 12 17  1  0
 17 18  1  0
 17 19  1  0
 17 20  1  0
 12 21  1  0
 21 22  1  0
 21 23  1  0
  6 24  1  0
 24 25  1  6
 24 26  1  0
 26 27  2  0
 27 28  1  0
 27 29  1  0
 29 30  1  0
 29 31  2  0
 31 32  1  0
 31 33  1  0
 33 34  1  0
 34 35  1  0
 34 36  1  0
 34 37  1  0
 33 38  2  0
 38 39  1  0
 39 40  1  0
 39 41  1  0
 39 42  1  0
 24 43  1  0
 43 44  1  6
 43 45  1  0
 45 46  2  0
 45 47  1  0
 43  3  1  0
 21  5  1  0
 38 26  1  0
M  CHG  1  47  -1
M  END
>  <UniqueID>  (14) 
14

>  <SMILES>  (14) 
[H]/N=C1/OC2=C(C(=O)CC(C)(C)C2)[C@H](c2cccc(C)c2C)[C@@H]1C(=O)[O-]

>  <Energy>  (14) 
56.67854058853478

>  <Genealogy>  (14) 
Cc1cccc(C2C3=C(CC(C)(C)CC3=O)OC(=N)C2C(=O)[O-])c1C (protonated)
Cc1cccc([C@H]2C3=C(CC(C)(C)CC3=O)OC(=N)[C@H]2C(=O)[O-])c1C (chirality)
[H]/N=C1/OC2=C(C(=O)CC(C)(C)C2)[C@H](c2cccc(C)c2C)[C@@H]1C(=O)[O-] (cis-trans isomerization)
[H]/N=C1/OC2=C(C(=O)CC(C)(C)C2)[C@H](c2cccc(C)c2C)[C@@H]1C(=O)[O-] (3D coordinates assigned)
[H]/N=C1/OC2=C(C(=O)CC(C)(C)C2)[C@H](c2cccc(C)c2C)[C@@H]1C(=O)[O-] (nonaromatic ring conformer: 56.67854058853478 kcal/mol)

>  <smiles>  (14) 
Cc1cccc(C2C3=C(CC(C)(C)CC3=O)OC(=N)C2C(=O)O)c1C

>  <score_type>  (14) 
oracle

>  <origin>  (14) 
adg

>  <m_score__min__energy>  (14) 
-7.9199999999999999

>  <m_primary>  (14) 
energy

$$$$
14:0
     RDKit          3D

 65 68  0  0  0  0  0  0  0  0999 V2000
   63.7240   33.1280   46.7590 C   0  0  0  0  0  0  0  0  0  0  0  0
   63.2140   33.1940   48.4620 S   0  0  0  0  0  0  0  0  0  0  0  0
   62.9340   31.8000   48.9500 O   0  0  0  0  0  0  0  0  0  0  0  0
   64.3130   33.8040   49.2880 O   0  0  0  0  0  0  0  0  0  0  0  0
   61.7280   34.1770   48.5950 C   0  0  0  0  0  0  0  0  0  0  0  0
   60.8850   34.0710   47.3210 C   0  0  0  0  0  0  0  0  0  0  0  0
   59.3880   34.1750   47.6400 C   0  0  0  0  0  0  0  0  0  0  0  0
   58.6060   33.2130   46.8340 N   0  0  0  0  0  0  0  0  0  0  0  0
   57.6700   33.9370   45.9440 C   0  0  0  0  0  0  0  0  0  0  0  0
   57.0230   33.0010   44.9030 C   0  0  0  0  0  0  0  0  0  0  0  0
   57.2090   31.5900   45.2930 N   0  0  0  0  0  0  0  0  0  0  0  0
   56.4820   30.6840   44.3810 C   0  0  0  0  0  0  0  0  0  0  0  0
   57.0690   29.2980   44.4420 C   0  0  0  0  0  0  0  0  0  0  0  0
   57.3850   28.6190   43.2560 C   0  0  0  0  0  0  0  0  0  0  0  0
   57.9570   27.3470   43.3050 C   0  0  0  0  0  0  0  0  0  0  0  0
   58.2200   26.7410   44.5360 C   0  0  0  0  0  0  0  0  0  0  0  0
   57.8960   27.4060   45.7330 C   0  0  0  0  0  0  0  0  0  0  0  0
   58.1780   26.8260   47.0150 N   0  0  0  0  0  0  0  0  0  0  0  0
   59.3220   27.1020   47.8310 C   0  0  0  0  0  0  0  0  0  0  0  0
   60.2640   26.2670   47.8540 O   0  0  0  0  0  0  0  0  0  0  0  0
   59.4550   28.3600   48.5930 C   0  0  0  0  0  0  0  0  0  0  0  0
   60.5270   28.6730   49.4260 C   0  0  0  0  0  0  0  0  0  0  0  0
   60.2690   29.9490   49.8780 C   0  0  0  0  0  0  0  0  0  0  0  0
   61.0090   30.7780   50.7180 C   0  0  0  0  0  0  0  0  0  0  0  0
   60.5060   32.0730   50.9930 C   0  0  0  0  0  0  0  0  0  0  0  0
   61.2480   33.0070   51.8700 C   0  0  0  0  0  0  0  0  0  0  0  0
   62.6460   33.2510   51.6860 N   0  0  0  0  0  0  0  0  0  0  0  0
   60.6370   33.6260   52.7830 O   0  0  0  0  0  0  0  0  0  0  0  0
   59.2680   32.4740   50.4210 C   0  0  0  0  0  0  0  0  0  0  0  0
   58.5520   31.6120   49.5690 C   0  0  0  0  0  0  0  0  0  0  0  0
   59.0880   30.3520   49.3180 C   0  0  0  0  0  0  0  0  0  0  0  0
   58.5820   29.3950   48.5240 N   0  0  0  0  0  0  0  0  0  0  0  0
   57.3400   28.6890   45.6790 C   0  0  0  0  0  0  0  0  0  0  0  0
   58.6490   31.2540   45.3120 C   0  0  0  0  0  0  0  0  0  0  0  0
   59.4820   32.3360   46.0310 C   0  0  0  0  0  0  0  0  0  0  0  0
   64.8137   32.9870   46.7078 H   0  0  0  0  0  0  0  0  0  0  0  0
   63.2215   32.2874   46.2581 H   0  0  0  0  0  0  0  0  0  0  0  0
   63.4521   34.0688   46.2581 H   0  0  0  0  0  0  0  0  0  0  0  0
   61.1351   33.8192   49.4496 H   0  0  0  0  0  0  0  0  0  0  0  0
   62.0151   35.2290   48.7392 H   0  0  0  0  0  0  0  0  0  0  0  0
   61.1641   34.8857   46.6366 H   0  0  0  0  0  0  0  0  0  0  0  0
   61.0762   33.0929   46.8555 H   0  0  0  0  0  0  0  0  0  0  0  0
   59.2320   33.9603   48.7075 H   0  0  0  0  0  0  0  0  0  0  0  0
   59.0481   35.1927   47.3978 H   0  0  0  0  0  0  0  0  0  0  0  0
   56.8763   34.3901   46.5562 H   0  0  0  0  0  0  0  0  0  0  0  0
   58.2414   34.7050   45.4021 H   0  0  0  0  0  0  0  0  0  0  0  0
   55.9470   33.2201   44.8380 H   0  0  0  0  0  0  0  0  0  0  0  0
   57.5026   33.1674   43.9271 H   0  0  0  0  0  0  0  0  0  0  0  0
   55.4236   30.6431   44.6780 H   0  0  0  0  0  0  0  0  0  0  0  0
   56.5709   31.0649   43.3529 H   0  0  0  0  0  0  0  0  0  0  0  0
   57.1812   29.0910   42.2835 H   0  0  0  0  0  0  0  0  0  0  0  0
   58.2016   26.8197   42.3711 H   0  0  0  0  0  0  0  0  0  0  0  0
   58.6809   25.7428   44.5696 H   0  0  0  0  0  0  0  0  0  0  0  0
   61.3921   28.0389   49.6701 H   0  0  0  0  0  0  0  0  0  0  0  0
   61.9584   30.4360   51.1559 H   0  0  0  0  0  0  0  0  0  0  0  0
   63.1510   33.9010   52.3290 H   0  0  0  0  0  0  0  0  0  0  0  0
   63.1570   32.8930   50.8470 H   0  0  0  0  0  0  0  0  0  0  0  0
   58.8639   33.4717   50.6473 H   0  0  0  0  0  0  0  0  0  0  0  0
   57.5994   31.9241   49.1160 H   0  0  0  0  0  0  0  0  0  0  0  0
   57.7140   29.4620   47.9470 H   0  0  0  0  0  0  0  0  0  0  0  0
   57.1133   29.2251   46.6124 H   0  0  0  0  0  0  0  0  0  0  0  0
   58.7838   30.2955   45.8346 H   0  0  0  0  0  0  0  0  0  0  0  0
   58.9983   31.1901   44.2709 H   0  0  0  0  0  0  0  0  0  0  0  0
   60.2130   31.8495   46.6936 H   0  0  0  0  0  0  0  0  0  0  0  0
   60.0014   32.9454   45.2768 H   0  0  0  0  0  0  0  0  0  0  0  0
  1  2  1  0
  2  3  2  0
  2  4  2  0
  2  5  1  0
  5  6  1  0
  6  7  1  0
  7  8  1  0
  8  9  1  0
  9 10  1  0
 10 11  1  0
 11 12  1  0
 12 13  1  0
 13 14  2  0
 14 15  1  0
 15 16  2  0
 16 17  1  0
 17 18  1  0
 18 19  1  0
 19 20  2  0
 19 21  1  0
 21 22  2  0
 22 23  1  0
 23 24  2  0
 24 25  1  0
 25 26  1  0
 26 27  1  0
 26 28  2  0
 25 29  2  0
 29 30  1  0
 30 31  2  0
 31 32  1  0
 17 33  2  0
 11 34  1  0
 34 35  1  0
 35  8  1  0
 33 13  1  0
 32 21  1  0
 31 23  1  0
  1 36  1  0
  1 37  1  0
  1 38  1  0
  5 39  1  0
  5 40  1  0
  6 41  1  0
  6 42  1  0
  7 43  1  0
  7 44  1  0
  9 45  1  0
  9 46  1  0
 10 47  1  0
 10 48  1  0
 12 49  1  0
 12 50  1  0
 14 51  1  0
 15 52  1  0
 16 53  1  0
 22 54  1  0
 24 55  1  0
 27 56  1  0
 27 57  1  0
 29 58  1  0
 30 59  1  0
 32 60  1  0
 33 61  1  0
 34 62  1  0
 34 63  1  0
 35 64  1  0
 35 65  1  0
M  CHG  1  18  -1
M  END
>  <UniqueID>  (15) 
15

>  <SMILES>  (15) 
CS(=O)(=O)CCCN1CCN(Cc2cccc([N-]C(=O)c3cc4cc(C(N)=O)ccc4[nH]3)c2)CC1

>  <Energy>  (15) 
104.26790676363208

>  <Genealogy>  (15) 
CS(=O)(=O)CCCN1CCN(Cc2cccc([N-]C(=O)c3cc4cc(C(N)=O)ccc4[nH]3)c2)CC1 (protonated)
CS(=O)(=O)CCCN1CCN(Cc2cccc([N-]C(=O)c3cc4cc(C(N)=O)ccc4[nH]3)c2)CC1 (3D coordinates assigned)
CS(=O)(=O)CCCN1CCN(Cc2cccc([N-]C(=O)c3cc4cc(C(N)=O)ccc4[nH]3)c2)CC1 (nonaromatic ring conformer: 104.26790676363208 kcal/mol)

>  <smiles>  (15) 
CS(=O)(=O)CCCN1CCN(Cc2cccc(NC(=O)c3cc4cc(C(N)=O)ccc4[nH]3)c2)CC1

>  <score_type>  (15) 
oracle

>  <origin>  (15) 
adg

>  <m_score__min__energy>  (15) 
-11.800000000000001

>  <m_primary>  (15) 
energy

$$$$
15:0
     RDKit          3D

 43 45  0  0  0  0  0  0  0  0999 V2000
   56.6080   30.0920   44.4060 C   0  0  0  0  0  0  0  0  0  0  0  0
   56.8750   28.8530   45.1940 C   0  0  0  0  0  0  0  0  0  0  0  0
   55.9160   27.9000   45.3090 N   0  0  0  0  0  0  0  0  0  0  0  0
   56.1450   26.7490   45.9920 C   0  0  0  0  0  0  0  0  0  0  0  0
   55.2200   25.8990   46.0900 O   0  0  0  0  0  0  0  0  0  0  0  0
   57.4030   26.5160   46.5790 C   0  0  0  0  0  0  0  0  0  0  0  0
   57.6560   25.2510   47.3620 C   0  0  0  0  0  0  0  0  0  0  0  0
   58.3770   27.5290   46.4600 C   0  0  0  0  0  0  0  0  0  0  0  0
   60.0010   27.3980   47.2210 S   0  0  0  0  0  0  0  0  0  0  0  0
   60.0510   29.1460   47.6170 C   0  0  0  0  0  0  0  0  0  0  0  0
   60.6660   30.0450   46.7380 C   0  0  0  0  0  0  0  0  0  0  0  0
   60.6600   31.4140   47.0190 C   0  0  0  0  0  0  0  0  0  0  0  0
   60.0390   31.8940   48.1810 C   0  0  0  0  0  0  0  0  0  0  0  0
   59.9610   33.6290   48.4980 S   0  0  0  0  0  0  0  0  0  0  0  0
   61.3530   34.1950   48.5010 O   0  0  0  0  0  0  0  0  0  0  0  0
   59.3610   33.8570   49.8570 O   0  0  0  0  0  0  0  0  0  0  0  0
   58.9970   34.4550   47.2950 N   0  0  0  0  0  0  0  0  0  0  0  0
   59.8010   34.7300   46.0880 C   0  0  0  0  0  0  0  0  0  0  0  0
   58.8930   34.9530   44.8690 C   0  0  0  0  0  0  0  0  0  0  0  0
   58.0680   33.8380   44.5500 O   0  0  0  0  0  0  0  0  0  0  0  0
   57.8120   32.9800   45.6530 C   0  0  0  0  0  0  0  0  0  0  0  0
   57.7440   33.7230   47.0010 C   0  0  0  0  0  0  0  0  0  0  0  0
   59.4570   30.9850   49.0780 C   0  0  0  0  0  0  0  0  0  0  0  0
   59.4640   29.6160   48.7960 C   0  0  0  0  0  0  0  0  0  0  0  0
   58.0920   28.6580   45.7590 N   0  0  0  0  0  0  0  0  0  0  0  0
   56.4271   30.9317   45.0931 H   0  0  0  0  0  0  0  0  0  0  0  0
   57.4781   30.3180   43.7720 H   0  0  0  0  0  0  0  0  0  0  0  0
   55.7221   29.9396   43.7720 H   0  0  0  0  0  0  0  0  0  0  0  0
   57.6119   25.4713   48.4388 H   0  0  0  0  0  0  0  0  0  0  0  0
   56.8895   24.5037   47.1090 H   0  0  0  0  0  0  0  0  0  0  0  0
   58.6509   24.8559   47.1090 H   0  0  0  0  0  0  0  0  0  0  0  0
   61.1545   29.6736   45.8251 H   0  0  0  0  0  0  0  0  0  0  0  0
   61.1443   32.1177   46.3260 H   0  0  0  0  0  0  0  0  0  0  0  0
   60.4075   35.6321   46.2561 H   0  0  0  0  0  0  0  0  0  0  0  0
   60.4504   33.8642   45.8912 H   0  0  0  0  0  0  0  0  0  0  0  0
   58.2432   35.8163   45.0750 H   0  0  0  0  0  0  0  0  0  0  0  0
   59.5543   35.1170   44.0054 H   0  0  0  0  0  0  0  0  0  0  0  0
   56.8503   32.4731   45.4850 H   0  0  0  0  0  0  0  0  0  0  0  0
   58.6500   32.2701   45.7145 H   0  0  0  0  0  0  0  0  0  0  0  0
   56.9120   34.4419   46.9686 H   0  0  0  0  0  0  0  0  0  0  0  0
   57.5934   32.9754   47.7937 H   0  0  0  0  0  0  0  0  0  0  0  0
   58.9938   31.3511   50.0061 H   0  0  0  0  0  0  0  0  0  0  0  0
   59.0071   28.9074   49.5025 H   0  0  0  0  0  0  0  0  0  0  0  0
  1  2  1  0
  2  3  2  0
  3  4  1  0
  4  5  2  0
  4  6  1  0
  6  7  1  0
  6  8  2  0
  8  9  1  0
  9 10  1  0
 10 11  2  0
 11 12  1  0
 12 13  2  0
 13 14  1  0
 14 15  2  0
 14 16  2  0
 14 17  1  0
 17 18  1  0
 18 19  1  0
 19 20  1  0
 20 21  1  0
 21 22  1  0
 13 23  1  0
 23 24  2  0
  8 25  1  0
 25  2  1  0
 24 10  1  0
 22 17  1  0
  1 26  1  0
  1 27  1  0
  1 28  1  0
  7 29  1  0
  7 30  1  0
  7 31  1  0
 11 32  1  0
 12 33  1  0
 18 34  1  0
 18 35  1  0
 19 36  1  0
 19 37  1  0
 21 38  1  0
 21 39  1  0
 22 40  1  0
 22 41  1  0
 23 42  1  0
 24 43  1  0
M  CHG  1  25  -1
M  END
>  <UniqueID>  (16) 
16

>  <SMILES>  (16) 
Cc1nc(=O)c(C)c(Sc2ccc(S(=O)(=O)N3CCOCC3)cc2)[n-]1

>  <Energy>  (16) 
51.99508996033545

>  <Genealogy>  (16) 
Cc1nc(=O)c(C)c(Sc2ccc(S(=O)(=O)N3CCOCC3)cc2)[n-]1 (protonated)
Cc1nc(=O)c(C)c(Sc2ccc(S(=O)(=O)N3CCOCC3)cc2)[n-]1 (3D coordinates assigned)
Cc1nc(=O)c(C)c(Sc2ccc(S(=O)(=O)N3CCOCC3)cc2)[n-]1 (nonaromatic ring conformer: 51.99508996033545 kcal/mol)

>  <smiles>  (16) 
Cc1nc(=O)c(C)c(Sc2ccc(S(=O)(=O)N3CCOCC3)cc2)[nH]1

>  <score_type>  (16) 
oracle

>  <origin>  (16) 
adg

>  <m_score__min__energy>  (16) 
-10.140000000000001

>  <m_primary>  (16) 
energy

$$$$
16:0
     RDKit          3D

 29 30  0  0  0  0  0  0  0  0999 V2000
   56.3020   29.8240   42.8250 C   0  0  0  0  0  0  0  0  0  0  0  0
   55.5970   29.8260   44.1760 C   0  0  0  0  0  0  0  0  0  0  0  0
   55.8740   28.5940   44.9150 N   0  0  0  0  0  0  0  0  0  0  0  0
   57.1340   28.3770   45.5620 C   0  0  0  0  0  0  0  0  0  0  0  0
   58.0230   29.2700   45.5350 O   0  0  0  0  0  0  0  0  0  0  0  0
   57.4020   27.0850   46.2740 C   0  0  0  0  0  0  0  0  0  0  0  0
   56.3900   26.0390   45.8780 C   0  0  0  0  0  0  0  0  0  0  0  0
   55.0720   26.3570   45.9950 N   0  0  0  0  0  0  0  0  0  0  0  0
   54.1040   25.5100   45.6510 N   0  0  0  0  0  0  0  0  0  0  0  0
   54.3750   24.2760   45.1580 C   0  0  0  0  0  0  0  0  0  0  0  0
   53.4210   23.5130   44.8470 O   0  0  0  0  0  0  0  0  0  0  0  0
   55.7100   23.8730   44.9980 C   0  0  0  0  0  0  0  0  0  0  0  0
   56.0340   22.6030   44.4830 C   0  0  0  0  0  0  0  0  0  0  0  0
   57.3690   22.2250   44.3290 C   0  0  0  0  0  0  0  0  0  0  0  0
   58.3910   23.1030   44.6850 C   0  0  0  0  0  0  0  0  0  0  0  0
   58.0880   24.3660   45.1980 C   0  0  0  0  0  0  0  0  0  0  0  0
   56.7460   24.7700   45.3620 C   0  0  0  0  0  0  0  0  0  0  0  0
   57.3911   29.8209   42.9797 H   0  0  0  0  0  0  0  0  0  0  0  0
   56.0094   28.9267   42.2600 H   0  0  0  0  0  0  0  0  0  0  0  0
   56.0145   30.7230   42.2600 H   0  0  0  0  0  0  0  0  0  0  0  0
   55.9503   30.6855   44.7646 H   0  0  0  0  0  0  0  0  0  0  0  0
   54.5126   29.8951   44.0048 H   0  0  0  0  0  0  0  0  0  0  0  0
   55.1450   27.8450   44.9720 H   0  0  0  0  0  0  0  0  0  0  0  0
   58.4097   26.7303   46.0117 H   0  0  0  0  0  0  0  0  0  0  0  0
   57.3283   27.2563   47.3581 H   0  0  0  0  0  0  0  0  0  0  0  0
   55.2315   21.9056   44.2008 H   0  0  0  0  0  0  0  0  0  0  0  0
   57.6149   21.2316   43.9256 H   0  0  0  0  0  0  0  0  0  0  0  0
   59.4411   22.7998   44.5614 H   0  0  0  0  0  0  0  0  0  0  0  0
   58.9020   25.0514   45.4765 H   0  0  0  0  0  0  0  0  0  0  0  0
  1  2  1  0
  2  3  1  0
  3  4  1  0
  4  5  2  0
  4  6  1  0
  6  7  1  0
  7  8  2  0
  8  9  1  0
  9 10  1  0
 10 11  2  0
 10 12  1  0
 12 13  2  0
 13 14  1  0
 14 15  2  0
 15 16  1  0
 16 17  2  0
 17  7  1  0
 17 12  1  0
  1 18  1  0
  1 19  1  0
  1 20  1  0
  2 21  1  0
  2 22  1  0
  3 23  1  0
  6 24  1  0
  6 25  1  0
 13 26  1  0
 14 27  1  0
 15 28  1  0
 16 29  1  0
M  CHG  1   9  -1
M  END
>  <UniqueID>  (17) 
17

>  <SMILES>  (17) 
CCNC(=O)Cc1n[n-]c(=O)c2ccccc12

>  <Energy>  (17) 
29.874382059707614

>  <Genealogy>  (17) 
CCNC(=O)Cc1n[n-]c(=O)c2ccccc12 (protonated)
CCNC(=O)Cc1n[n-]c(=O)c2ccccc12 (3D coordinates assigned)
CCNC(=O)Cc1n[n-]c(=O)c2ccccc12 (optimized conformer: 29.874382059707614 kcal/mol)

>  <smiles>  (17) 
CCNC(=O)Cc1n[nH]c(=O)c2ccccc12

>  <score_type>  (17) 
oracle

>  <origin>  (17) 
adg

>  <m_score__min__energy>  (17) 
-9.4600000000000009

>  <m_primary>  (17) 
energy

$$$$
17:0
     RDKit          3D

 65 68  0  0  0  0  0  0  0  0999 V2000
   56.0820   28.6280   45.0690 O   0  0  0  0  0  0  0  0  0  0  0  0
   57.1580   28.5340   44.4210 C   0  0  0  0  0  0  0  0  0  0  0  0
   57.7280   29.7420   43.7400 C   0  0  0  0  0  0  0  0  0  0  0  0
   56.8480   30.9840   43.9350 C   0  0  0  0  0  0  0  0  0  0  0  0
   57.5390   32.0540   44.7430 C   0  0  0  0  0  0  0  0  0  0  0  0
   57.9450   33.2520   44.1330 C   0  0  0  0  0  0  0  0  0  0  0  0
   58.5850   34.2430   44.8830 C   0  0  0  0  0  0  0  0  0  0  0  0
   58.8360   34.0480   46.2500 C   0  0  0  0  0  0  0  0  0  0  0  0
   59.4380   35.1500   47.0840 C   0  0  0  0  0  0  0  0  0  0  0  0
   60.1560   34.5850   48.2860 C   0  0  0  0  0  0  0  0  0  0  0  0
   59.5690   34.5760   49.4030 O   0  0  0  0  0  0  0  0  0  0  0  0
   61.5490   34.0780   48.2020 C   0  0  0  0  0  0  0  0  0  0  0  0
   62.1610   33.8130   46.9590 C   0  0  0  0  0  0  0  0  0  0  0  0
   63.4720   33.3310   46.9050 C   0  0  0  0  0  0  0  0  0  0  0  0
   64.1890   33.1130   48.0840 C   0  0  0  0  0  0  0  0  0  0  0  0
   63.5980   33.3820   49.3210 C   0  0  0  0  0  0  0  0  0  0  0  0
   62.2870   33.8640   49.3810 C   0  0  0  0  0  0  0  0  0  0  0  0
   58.4360   32.8460   46.8580 C   0  0  0  0  0  0  0  0  0  0  0  0
   57.8010   31.8540   46.1070 C   0  0  0  0  0  0  0  0  0  0  0  0
   57.7800   27.2570   44.2290 N   0  0  0  0  0  0  0  0  0  0  0  0
   58.0710   26.3730   45.1430 C   0  0  0  0  0  0  0  0  0  0  0  0
   58.0900   24.8780   44.8640 C   0  0  0  0  0  0  0  0  0  0  0  0
   56.6890   24.3250   44.7950 C   0  0  0  0  0  0  0  0  0  0  0  0
   56.1980   23.7780   43.5960 C   0  0  0  0  0  0  0  0  0  0  0  0
   54.8770   23.3240   43.5160 C   0  0  0  0  0  0  0  0  0  0  0  0
   54.0350   23.4180   44.6280 C   0  0  0  0  0  0  0  0  0  0  0  0
   52.7150   22.9990   44.5360 O   0  0  0  0  0  0  0  0  0  0  0  0
   54.5200   23.9410   45.8320 C   0  0  0  0  0  0  0  0  0  0  0  0
   55.8430   24.3900   45.9170 C   0  0  0  0  0  0  0  0  0  0  0  0
   58.3680   26.8600   46.5070 C   0  0  0  0  0  0  0  0  0  0  0  0
   57.4350   26.9880   47.3440 O   0  0  0  0  0  0  0  0  0  0  0  0
   59.7030   27.2160   46.8810 N   0  0  0  0  0  0  0  0  0  0  0  0
   60.0420   28.4860   47.4630 C   0  0  0  0  0  0  0  0  0  0  0  0
   60.6680   29.4650   46.6710 C   0  0  0  0  0  0  0  0  0  0  0  0
   60.9400   30.7290   47.1940 C   0  0  0  0  0  0  0  0  0  0  0  0
   60.5980   31.0300   48.5150 C   0  0  0  0  0  0  0  0  0  0  0  0
   59.9760   30.0660   49.3140 C   0  0  0  0  0  0  0  0  0  0  0  0
   59.7010   28.7980   48.7950 C   0  0  0  0  0  0  0  0  0  0  0  0
   58.7259   29.9456   44.1556 H   0  0  0  0  0  0  0  0  0  0  0  0
   57.7802   29.5299   42.6619 H   0  0  0  0  0  0  0  0  0  0  0  0
   56.5933   31.3957   42.9473 H   0  0  0  0  0  0  0  0  0  0  0  0
   55.9474   30.6752   44.4859 H   0  0  0  0  0  0  0  0  0  0  0  0
   57.7587   33.4112   43.0607 H   0  0  0  0  0  0  0  0  0  0  0  0
   58.8937   35.1812   44.3989 H   0  0  0  0  0  0  0  0  0  0  0  0
   60.1539   35.7162   46.4701 H   0  0  0  0  0  0  0  0  0  0  0  0
   58.6288   35.8073   47.4349 H   0  0  0  0  0  0  0  0  0  0  0  0
   61.6034   33.9866   46.0268 H   0  0  0  0  0  0  0  0  0  0  0  0
   63.9403   33.1228   45.9317 H   0  0  0  0  0  0  0  0  0  0  0  0
   65.2190   32.7295   48.0384 H   0  0  0  0  0  0  0  0  0  0  0  0
   64.1648   33.2144   50.2487 H   0  0  0  0  0  0  0  0  0  0  0  0
   61.8286   34.0777   50.3578 H   0  0  0  0  0  0  0  0  0  0  0  0
   58.6237   32.6855   47.9299 H   0  0  0  0  0  0  0  0  0  0  0  0
   57.5045   30.9101   46.5878 H   0  0  0  0  0  0  0  0  0  0  0  0
   58.5961   24.6973   43.9042 H   0  0  0  0  0  0  0  0  0  0  0  0
   58.6262   24.3749   45.6821 H   0  0  0  0  0  0  0  0  0  0  0  0
   56.8556   23.7068   42.7171 H   0  0  0  0  0  0  0  0  0  0  0  0
   54.5004   22.8925   42.5768 H   0  0  0  0  0  0  0  0  0  0  0  0
   53.8617   23.9992   46.7113 H   0  0  0  0  0  0  0  0  0  0  0  0
   56.2232   24.7958   46.8661 H   0  0  0  0  0  0  0  0  0  0  0  0
   60.4760   26.5650   46.6180 H   0  0  0  0  0  0  0  0  0  0  0  0
   60.9450   29.2323   45.6322 H   0  0  0  0  0  0  0  0  0  0  0  0
   61.4247   31.4905   46.5653 H   0  0  0  0  0  0  0  0  0  0  0  0
   60.8183   32.0261   48.9265 H   0  0  0  0  0  0  0  0  0  0  0  0
   59.7028   30.3059   50.3522 H   0  0  0  0  0  0  0  0  0  0  0  0
   59.2165   28.0402   49.4283 H   0  0  0  0  0  0  0  0  0  0  0  0
  1  2  2  0
  2  3  1  0
  3  4  1  0
  4  5  1  0
  5  6  2  0
  6  7  1  0
  7  8  2  0
  8  9  1  0
  9 10  1  0
 10 11  2  0
 10 12  1  0
 12 13  2  0
 13 14  1  0
 14 15  2  0
 15 16  1  0
 16 17  2  0
  8 18  1  0
 18 19  2  0
  2 20  1  0
 20 21  2  3
 21 22  1  0
 22 23  1  0
 23 24  2  0
 24 25  1  0
 25 26  2  0
 26 27  1  0
 26 28  1  0
 28 29  2  0
 21 30  1  0
 30 31  2  0
 30 32  1  0
 32 33  1  0
 33 34  2  0
 34 35  1  0
 35 36  2  0
 36 37  1  0
 37 38  2  0
 19  5  1  0
 29 23  1  0
 38 33  1  0
 17 12  1  0
  3 39  1  0
  3 40  1  0
  4 41  1  0
  4 42  1  0
  6 43  1  0
  7 44  1  0
  9 45  1  0
  9 46  1  0
 13 47  1  0
 14 48  1  0
 15 49  1  0
 16 50  1  0
 17 51  1  0
 18 52  1  0
 19 53  1  0
 22 54  1  0
 22 55  1  0
 24 56  1  0
 25 57  1  0
 28 58  1  0
 29 59  1  0
 32 60  1  0
 34 61  1  0
 35 62  1  0
 36 63  1  0
 37 64  1  0
 38 65  1  0
M  CHG  1  27  -1
M  END
>  <UniqueID>  (18) 
18

>  <SMILES>  (18) 
O=C(CCc1ccc(CC(=O)c2ccccc2)cc1)N=C(Cc1ccc([O-])cc1)C(=O)Nc1ccccc1

>  <Energy>  (18) 
76.80896784349015

>  <Genealogy>  (18) 
O=C(CCc1ccc(CC(=O)c2ccccc2)cc1)N=C(Cc1ccc([O-])cc1)C(=O)Nc1ccccc1 (protonated)
O=C(CCc1ccc(CC(=O)c2ccccc2)cc1)N=C(Cc1ccc([O-])cc1)C(=O)Nc1ccccc1 (3D coordinates assigned)
O=C(CCc1ccc(CC(=O)c2ccccc2)cc1)N=C(Cc1ccc([O-])cc1)C(=O)Nc1ccccc1 (optimized conformer: 76.80896784349015 kcal/mol)

>  <smiles>  (18) 
O=C(CCc1ccc(CC(=O)c2ccccc2)cc1)N=C(Cc1ccc(O)cc1)C(=O)Nc1ccccc1

>  <score_type>  (18) 
oracle

>  <origin>  (18) 
adg

>  <m_score__min__energy>  (18) 
-13.140000000000001

>  <m_primary>  (18) 
energy

$$$$
18:0
     RDKit          3D

 57 61  0  0  0  0  0  0  0  0999 V2000
   59.6050   28.7140   46.9620 C   0  0  0  0  0  0  0  0  0  0  0  0
   58.6540   28.9640   46.0470 C   0  0  0  0  0  0  0  0  0  0  0  0
   57.9100   28.0230   45.3170 C   0  0  0  0  0  0  0  0  0  0  0  0
   58.0580   26.6890   45.1920 C   0  0  0  0  0  0  0  0  0  0  0  0
   57.3260   25.6770   45.9690 C   0  0  0  0  0  0  0  0  0  0  0  0
   57.9100   24.6190   46.5550 N   0  0  0  0  0  0  0  0  0  0  0  0
   56.8960   24.0450   47.2410 C   0  0  0  0  0  0  0  0  0  0  0  0
   57.0460   22.9960   47.9200 O   0  0  0  0  0  0  0  0  0  0  0  0
   55.7120   24.6900   47.1500 N   0  0  0  0  0  0  0  0  0  0  0  0
   56.0060   25.7290   46.3520 C   0  0  0  0  0  0  0  0  0  0  0  0
   55.0930   26.7180   46.0030 O   0  0  0  0  0  0  0  0  0  0  0  0
   56.9100   28.7320   44.6730 C   0  0  0  0  0  0  0  0  0  0  0  0
   57.1120   30.0640   44.9670 C   0  0  0  0  0  0  0  0  0  0  0  0
   56.2560   31.1850   44.4640 C   0  0  0  0  0  0  0  0  0  0  0  0
   58.1650   30.2060   45.8030 N   0  0  0  0  0  0  0  0  0  0  0  0
   58.6090   31.4400   46.3940 C   0  0  0  0  0  0  0  0  0  0  0  0
   58.7720   31.5330   47.7830 C   0  0  0  0  0  0  0  0  0  0  0  0
   59.1590   32.7460   48.3740 C   0  0  0  0  0  0  0  0  0  0  0  0
   59.2890   32.8580   49.7990 N   0  0  0  0  0  0  0  0  0  0  0  0
   58.1950   32.4520   50.6800 C   0  0  0  0  0  0  0  0  0  0  0  0
   58.7650   31.8060   51.9510 C   0  0  0  0  0  0  0  0  0  0  0  0
   59.8340   32.6110   52.5890 N   0  0  0  0  0  0  0  0  0  0  0  0
   59.3040   33.7450   53.3270 C   0  0  0  0  0  0  0  0  0  0  0  0
   58.6000   34.5770   52.7740 O   0  0  0  0  0  0  0  0  0  0  0  0
   59.6790   33.9670   54.7690 C   0  0  0  0  0  0  0  0  0  0  0  0
   58.8860   35.0460   55.4930 C   0  0  0  0  0  0  0  0  0  0  0  0
   60.3130   35.3230   55.0530 C   0  0  0  0  0  0  0  0  0  0  0  0
   60.8990   33.0110   51.6410 C   0  0  0  0  0  0  0  0  0  0  0  0
   60.3580   33.6770   50.3690 C   0  0  0  0  0  0  0  0  0  0  0  0
   59.4040   33.8620   47.5620 C   0  0  0  0  0  0  0  0  0  0  0  0
   59.2550   33.7700   46.1750 C   0  0  0  0  0  0  0  0  0  0  0  0
   58.8510   32.5670   45.5910 C   0  0  0  0  0  0  0  0  0  0  0  0
   58.6630   32.5070   44.2490 F   0  0  0  0  0  0  0  0  0  0  0  0
   60.1162   29.5476   47.4659 H   0  0  0  0  0  0  0  0  0  0  0  0
   59.8727   27.6757   47.2075 H   0  0  0  0  0  0  0  0  0  0  0  0
   58.7846   26.3282   44.4492 H   0  0  0  0  0  0  0  0  0  0  0  0
   56.1083   28.3131   44.0470 H   0  0  0  0  0  0  0  0  0  0  0  0
   55.8350   31.7364   45.3177 H   0  0  0  0  0  0  0  0  0  0  0  0
   56.8659   31.8661   43.8524 H   0  0  0  0  0  0  0  0  0  0  0  0
   55.4383   30.7760   43.8524 H   0  0  0  0  0  0  0  0  0  0  0  0
   58.5955   30.6496   48.4142 H   0  0  0  0  0  0  0  0  0  0  0  0
   57.5998   33.3354   50.9545 H   0  0  0  0  0  0  0  0  0  0  0  0
   57.5574   31.7243   50.1566 H   0  0  0  0  0  0  0  0  0  0  0  0
   57.9464   31.6768   52.6743 H   0  0  0  0  0  0  0  0  0  0  0  0
   59.2126   30.8455   51.6558 H   0  0  0  0  0  0  0  0  0  0  0  0
   60.2970   31.9790   53.2860 H   0  0  0  0  0  0  0  0  0  0  0  0
   59.9345   32.9186   54.9823 H   0  0  0  0  0  0  0  0  0  0  0  0
   58.0476   35.5457   54.9856 H   0  0  0  0  0  0  0  0  0  0  0  0
   58.3425   35.1022   56.4477 H   0  0  0  0  0  0  0  0  0  0  0  0
   60.5077   36.0228   54.2270 H   0  0  0  0  0  0  0  0  0  0  0  0
   61.2300   35.6624   55.5569 H   0  0  0  0  0  0  0  0  0  0  0  0
   61.5702   33.7197   52.1482 H   0  0  0  0  0  0  0  0  0  0  0  0
   61.4226   32.0942   51.3322 H   0  0  0  0  0  0  0  0  0  0  0  0
   59.9623   34.6728   50.6178 H   0  0  0  0  0  0  0  0  0  0  0  0
   61.1718   33.7750   49.6354 H   0  0  0  0  0  0  0  0  0  0  0  0
   59.7147   34.8137   48.0178 H   0  0  0  0  0  0  0  0  0  0  0  0
   59.4563   34.6469   45.5421 H   0  0  0  0  0  0  0  0  0  0  0  0
  1  2  2  0
  2  3  1  0
  3  4  2  3
  4  5  1  0
  5  6  1  0
  6  7  1  0
  7  8  2  0
  7  9  1  0
  9 10  1  0
 10 11  1  0
  3 12  1  0
 12 13  2  0
 13 14  1  0
 13 15  1  0
 15 16  1  0
 16 17  2  0
 17 18  1  0
 18 19  1  0
 19 20  1  0
 20 21  1  0
 21 22  1  0
 22 23  1  0
 23 24  2  0
 23 25  1  0
 25 26  1  0
 26 27  1  0
 22 28  1  0
 28 29  1  0
 18 30  2  0
 30 31  1  0
 31 32  2  0
 32 33  1  0
 15  2  1  0
 32 16  1  0
 10  5  2  0
 29 19  1  0
 27 25  1  0
  1 34  1  0
  1 35  1  0
  4 36  1  0
 12 37  1  0
 14 38  1  0
 14 39  1  0
 14 40  1  0
 17 41  1  0
 20 42  1  0
 20 43  1  0
 21 44  1  0
 21 45  1  0
 22 46  1  0
 25 47  1  0
 26 48  1  0
 26 49  1  0
 27 50  1  0
 27 51  1  0
 28 52  1  0
 28 53  1  0
 29 54  1  0
 29 55  1  0
 30 56  1  0
 31 57  1  0
M  CHG  4   6  -1   9  -1  11  -1  22   1
M  END
>  <UniqueID>  (19) 
19

>  <SMILES>  (19) 
C=c1c(=Cc2[n-]c(=O)[n-]c2[O-])cc(C)n1-c1cc(N2CC[NH+](C(=O)C3CC3)CC2)ccc1F

>  <Energy>  (19) 
408.2103921459396

>  <Genealogy>  (19) 
C=c1c(=Cc2[n-]c(=O)[n-]c2[O-])cc(C)n1-c1cc(N2CC[NH+](C(=O)C3CC3)CC2)ccc1F (protonated)
C=c1c(=Cc2[n-]c(=O)[n-]c2[O-])cc(C)n1-c1cc(N2CC[NH+](C(=O)C3CC3)CC2)ccc1F (3D coordinates assigned)
C=c1c(=Cc2[n-]c(=O)[n-]c2[O-])cc(C)n1-c1cc(N2CC[NH+](C(=O)C3CC3)CC2)ccc1F (nonaromatic ring conformer: 408.2103921459396 kcal/mol)

>  <smiles>  (19) 
C=c1c(=Cc2[nH]c(=O)[nH]c2O)cc(C)n1-c1cc(N2CCN(C(=O)C3CC3)CC2)ccc1F

>  <score_type>  (19) 
oracle

>  <origin>  (19) 
adg

>  <m_score__min__energy>  (19) 
-15.789999999999999

>  <m_primary>  (19) 
energy

$$$$
19:0
     RDKit          3D

 60 63  0  0  0  0  0  0  0  0999 V2000
   62.4620   29.0933   50.1518 H   0  0  0  0  0  0  0  0  0  0  0  0
   62.0060   30.0820   49.9950 C   0  0  0  0  0  0  0  0  0  0  0  0
   62.7960   31.2910   50.3300 C   0  0  0  0  0  0  0  0  0  0  0  0
   63.1150   31.5090   51.5290 O   0  0  0  0  0  0  0  0  0  0  0  0
   63.1680   32.2510   49.3230 N   0  0  0  0  0  0  0  0  0  0  0  0
   63.1390   31.9580   47.8980 C   0  0  0  0  0  0  0  0  0  0  0  0
   63.9430   32.5133   47.3929 H   0  0  0  0  0  0  0  0  0  0  0  0
   63.2853   30.8790   47.7420 H   0  0  0  0  0  0  0  0  0  0  0  0
   61.7860   32.3790   47.3190 C   0  0  0  0  0  0  0  0  0  0  0  0
   61.9087   32.5473   46.2389 H   0  0  0  0  0  0  0  0  0  0  0  0
   61.0769   31.5682   47.5421 H   0  0  0  0  0  0  0  0  0  0  0  0
   61.2320   33.6140   47.9240 N   0  0  0  0  0  0  0  0  0  0  0  0
   59.9300   34.0700   47.4730 C   0  0  0  0  0  0  0  0  0  0  0  0
   59.3200   34.9620   48.1190 O   0  0  0  0  0  0  0  0  0  0  0  0
   59.2380   33.4630   46.3220 C   0  0  0  0  0  0  0  0  0  0  0  0
   58.9250   34.2520   45.2020 C   0  0  0  0  0  0  0  0  0  0  0  0
   59.2538   35.3007   45.1568 H   0  0  0  0  0  0  0  0  0  0  0  0
   58.1970   33.7020   44.1490 C   0  0  0  0  0  0  0  0  0  0  0  0
   57.9303   34.3283   43.2849 H   0  0  0  0  0  0  0  0  0  0  0  0
   57.8030   32.3630   44.1810 C   0  0  0  0  0  0  0  0  0  0  0  0
   57.0880   31.8660   43.1400 F   0  0  0  0  0  0  0  0  0  0  0  0
   58.1570   31.5520   45.2710 C   0  0  0  0  0  0  0  0  0  0  0  0
   57.6870   29.8540   45.3250 S   0  0  0  0  0  0  0  0  0  0  0  0
   57.7800   29.3820   46.7520 O   0  0  0  0  0  0  0  0  0  0  0  0
   56.2570   29.7310   44.8890 O   0  0  0  0  0  0  0  0  0  0  0  0
   58.7550   28.9000   44.3080 N   0  0  0  0  0  0  0  0  0  0  0  0
   58.2010   27.5740   43.9860 C   0  0  0  0  0  0  0  0  0  0  0  0
   57.1308   27.6865   43.7581 H   0  0  0  0  0  0  0  0  0  0  0  0
   58.7631   27.1809   43.1260 H   0  0  0  0  0  0  0  0  0  0  0  0
   58.3550   26.5630   45.1420 C   0  0  0  0  0  0  0  0  0  0  0  0
   57.3530   26.2646   45.4841 H   0  0  0  0  0  0  0  0  0  0  0  0
   58.9268   25.7051   44.7585 H   0  0  0  0  0  0  0  0  0  0  0  0
   59.0670   27.0930   46.2390 O   0  0  0  0  0  0  0  0  0  0  0  0
   60.3030   27.5950   45.8050 C   0  0  0  0  0  0  0  0  0  0  0  0
   60.8866   27.9139   46.6812 H   0  0  0  0  0  0  0  0  0  0  0  0
   60.8249   26.7979   45.2552 H   0  0  0  0  0  0  0  0  0  0  0  0
   60.1240   28.7990   44.8570 C   0  0  0  0  0  0  0  0  0  0  0  0
   60.3477   29.7207   45.4141 H   0  0  0  0  0  0  0  0  0  0  0  0
   60.8102   28.6566   44.0091 H   0  0  0  0  0  0  0  0  0  0  0  0
   58.8900   32.1040   46.3300 C   0  0  0  0  0  0  0  0  0  0  0  0
   59.1947   31.4672   47.1736 H   0  0  0  0  0  0  0  0  0  0  0  0
   61.7820   34.2590   49.1460 C   0  0  0  0  0  0  0  0  0  0  0  0
   61.9295   35.3282   48.9339 H   0  0  0  0  0  0  0  0  0  0  0  0
   61.0546   34.0777   49.9510 H   0  0  0  0  0  0  0  0  0  0  0  0
   63.1180   33.6760   49.6240 C   0  0  0  0  0  0  0  0  0  0  0  0
   63.9450   34.1875   49.1098 H   0  0  0  0  0  0  0  0  0  0  0  0
   63.2114   33.8223   50.7102 H   0  0  0  0  0  0  0  0  0  0  0  0
   60.7590   30.1450   49.5090 C   0  0  0  0  0  0  0  0  0  0  0  0
   60.5641   29.7174   48.5144 H   0  0  0  0  0  0  0  0  0  0  0  0
   59.6280   30.7620   50.2440 C   0  0  0  0  0  0  0  0  0  0  0  0
   58.4830   30.0370   50.6250 C   0  0  0  0  0  0  0  0  0  0  0  0
   58.4143   28.9639   50.3933 H   0  0  0  0  0  0  0  0  0  0  0  0
   57.4320   30.6710   51.2960 C   0  0  0  0  0  0  0  0  0  0  0  0
   56.5461   30.0937   51.5990 H   0  0  0  0  0  0  0  0  0  0  0  0
   57.5060   32.0330   51.5810 C   0  0  0  0  0  0  0  0  0  0  0  0
   56.6840   32.5271   52.1196 H   0  0  0  0  0  0  0  0  0  0  0  0
   58.6240   32.7720   51.1830 C   0  0  0  0  0  0  0  0  0  0  0  0
   58.6755   33.8497   51.3973 H   0  0  0  0  0  0  0  0  0  0  0  0
   59.6760   32.1420   50.5130 C   0  0  0  0  0  0  0  0  0  0  0  0
   60.5489   32.7300   50.1932 H   0  0  0  0  0  0  0  0  0  0  0  0
  1  2  1  0
  2  3  1  0
  3  4  2  0
  3  5  1  0
  5  6  1  0
  6  7  1  0
  6  8  1  0
  6  9  1  0
  9 10  1  0
  9 11  1  0
  9 12  1  0
 12 13  1  0
 13 14  2  0
 13 15  1  0
 15 16  2  0
 16 17  1  0
 16 18  1  0
 18 19  1  0
 18 20  2  0
 20 21  1  0
 20 22  1  0
 22 23  1  0
 23 24  2  0
 23 25  2  0
 23 26  1  0
 26 27  1  0
 27 28  1  0
 27 29  1  0
 27 30  1  0
 30 31  1  0
 30 32  1  0
 30 33  1  0
 33 34  1  0
 34 35  1  0
 34 36  1  0
 34 37  1  0
 37 38  1  0
 37 39  1  0
 22 40  2  0
 40 41  1  0
 12 42  1  0
 42 43  1  0
 42 44  1  0
 42 45  1  0
 45 46  1  0
 45 47  1  0
  2 48  2  0
 48 49  1  0
 48 50  1  0
 50 51  2  0
 51 52  1  0
 51 53  1  0
 53 54  1  0
 53 55  2  0
 55 56  1  0
 55 57  1  0
 57 58  1  0
 57 59  2  0
 59 60  1  0
 45  5  1  0
 59 50  1  0
 40 15  1  0
 37 26  1  0
M  END
>  <UniqueID>  (20) 
20

>  <SMILES>  (20) 
O=C(/C=C/c1ccccc1)N1CCN(C(=O)c2ccc(F)c(S(=O)(=O)N3CCOCC3)c2)CC1

>  <Energy>  (20) 
90.80867582298836

>  <Genealogy>  (20) 
O=C(/C=C/c1ccccc1)N1CCN(C(=O)c2ccc(F)c(S(=O)(=O)N3CCOCC3)c2)CC1 (cis-trans isomerization)
O=C(/C=C/c1ccccc1)N1CCN(C(=O)c2ccc(F)c(S(=O)(=O)N3CCOCC3)c2)CC1 (3D coordinates assigned)
O=C(/C=C/c1ccccc1)N1CCN(C(=O)c2ccc(F)c(S(=O)(=O)N3CCOCC3)c2)CC1 (nonaromatic ring conformer: 90.80867582298836 kcal/mol)

>  <smiles>  (20) 
O=C(C=Cc1ccccc1)N1CCN(C(=O)c2ccc(F)c(S(=O)(=O)N3CCOCC3)c2)CC1

>  <score_type>  (20) 
oracle

>  <origin>  (20) 
adg

>  <m_score__min__energy>  (20) 
-9.2200000000000006

>  <m_primary>  (20) 
energy

$$$$
20:0
     RDKit          3D

 67 70  0  0  0  0  0  0  0  0999 V2000
   62.7870   32.2460   48.9710 C   0  0  0  0  0  0  0  0  0  0  0  0
   63.0120   32.4240   47.4720 C   0  0  0  0  0  0  0  0  0  0  0  0
   62.5760   33.8230   47.0110 C   0  0  0  0  0  0  0  0  0  0  0  0
   61.1750   34.2010   47.5220 C   0  0  0  0  0  0  0  0  0  0  0  0
   60.1140   34.0630   46.4560 C   0  0  0  0  0  0  0  0  0  0  0  0
   59.6070   35.1150   45.7270 C   0  0  0  0  0  0  0  0  0  0  0  0
   58.7030   34.6530   44.8500 N   0  0  0  0  0  0  0  0  0  0  0  0
   58.6700   33.3200   45.0500 C   0  0  0  0  0  0  0  0  0  0  0  0
   57.7790   32.4350   44.2600 C   0  0  0  0  0  0  0  0  0  0  0  0
   57.7820   32.5080   43.0050 O   0  0  0  0  0  0  0  0  0  0  0  0
   56.8920   31.4910   44.8780 N   0  0  0  0  0  0  0  0  0  0  0  0
   56.6770   29.8280   44.4250 S   0  0  0  0  0  0  0  0  0  0  0  0
   55.4130   29.3280   45.0700 O   0  0  0  0  0  0  0  0  0  0  0  0
   56.5260   29.7470   42.9320 O   0  0  0  0  0  0  0  0  0  0  0  0
   58.0830   28.8540   44.9050 C   0  0  0  0  0  0  0  0  0  0  0  0
   59.3600   29.3130   44.5390 C   0  0  0  0  0  0  0  0  0  0  0  0
   60.5050   28.6130   44.9240 C   0  0  0  0  0  0  0  0  0  0  0  0
   60.3930   27.4500   45.6800 C   0  0  0  0  0  0  0  0  0  0  0  0
   59.1320   26.9690   46.0380 C   0  0  0  0  0  0  0  0  0  0  0  0
   57.9660   27.6420   45.6340 C   0  0  0  0  0  0  0  0  0  0  0  0
   56.6300   27.0640   46.0200 C   0  0  0  0  0  0  0  0  0  0  0  0
   59.5440   32.9150   46.0130 N   0  0  0  0  0  0  0  0  0  0  0  0
   59.8000   31.5470   46.4990 C   0  0  0  0  0  0  0  0  0  0  0  0
   59.3730   31.3920   47.9360 C   0  0  0  0  0  0  0  0  0  0  0  0
   58.5600   32.3590   48.5460 C   0  0  0  0  0  0  0  0  0  0  0  0
   58.1280   32.1920   49.8640 C   0  0  0  0  0  0  0  0  0  0  0  0
   58.5320   31.0710   50.6030 C   0  0  0  0  0  0  0  0  0  0  0  0
   58.0810   30.9050   51.9990 C   0  0  0  0  0  0  0  0  0  0  0  0
   57.2760   29.7970   52.3160 C   0  0  0  0  0  0  0  0  0  0  0  0
   56.8540   29.5790   53.6270 C   0  0  0  0  0  0  0  0  0  0  0  0
   57.2270   30.4670   54.6360 C   0  0  0  0  0  0  0  0  0  0  0  0
   58.0170   31.5820   54.3340 C   0  0  0  0  0  0  0  0  0  0  0  0
   58.4370   31.8230   53.0170 C   0  0  0  0  0  0  0  0  0  0  0  0
   59.3650   33.2930   52.6760 S   0  0  0  0  0  0  0  0  0  0  0  0
   58.2860   34.5870   52.2860 N   0  0  0  0  0  0  0  0  0  0  0  0
   60.2940   33.0570   51.5190 O   0  0  0  0  0  0  0  0  0  0  0  0
   60.1870   33.6680   53.8760 O   0  0  0  0  0  0  0  0  0  0  0  0
   59.3570   30.1110   50.0040 C   0  0  0  0  0  0  0  0  0  0  0  0
   59.7750   30.2700   48.6810 C   0  0  0  0  0  0  0  0  0  0  0  0
   63.5318   32.8352   49.5261 H   0  0  0  0  0  0  0  0  0  0  0  0
   61.7763   32.5916   49.2337 H   0  0  0  0  0  0  0  0  0  0  0  0
   62.8908   31.1829   49.2337 H   0  0  0  0  0  0  0  0  0  0  0  0
   64.0810   32.2894   47.2504 H   0  0  0  0  0  0  0  0  0  0  0  0
   62.4096   31.6755   46.9364 H   0  0  0  0  0  0  0  0  0  0  0  0
   63.3000   34.5604   47.3881 H   0  0  0  0  0  0  0  0  0  0  0  0
   62.5407   33.8170   45.9116 H   0  0  0  0  0  0  0  0  0  0  0  0
   60.9169   33.5419   48.3640 H   0  0  0  0  0  0  0  0  0  0  0  0
   61.2048   35.2568   47.8293 H   0  0  0  0  0  0  0  0  0  0  0  0
   59.8976   36.1693   45.8451 H   0  0  0  0  0  0  0  0  0  0  0  0
   59.4583   30.2326   43.9435 H   0  0  0  0  0  0  0  0  0  0  0  0
   61.4984   28.9818   44.6289 H   0  0  0  0  0  0  0  0  0  0  0  0
   61.2978   26.9097   45.9955 H   0  0  0  0  0  0  0  0  0  0  0  0
   59.0502   26.0537   46.6426 H   0  0  0  0  0  0  0  0  0  0  0  0
   56.5487   27.0288   47.1164 H   0  0  0  0  0  0  0  0  0  0  0  0
   55.8261   27.6948   45.6128 H   0  0  0  0  0  0  0  0  0  0  0  0
   56.5394   26.0462   45.6128 H   0  0  0  0  0  0  0  0  0  0  0  0
   59.2373   30.8342   45.8783 H   0  0  0  0  0  0  0  0  0  0  0  0
   60.8801   31.3495   46.4326 H   0  0  0  0  0  0  0  0  0  0  0  0
   58.2606   33.2550   47.9825 H   0  0  0  0  0  0  0  0  0  0  0  0
   57.4684   32.9427   50.3237 H   0  0  0  0  0  0  0  0  0  0  0  0
   56.9764   29.0960   51.5230 H   0  0  0  0  0  0  0  0  0  0  0  0
   56.2272   28.7071   53.8654 H   0  0  0  0  0  0  0  0  0  0  0  0
   56.8995   30.2905   55.6712 H   0  0  0  0  0  0  0  0  0  0  0  0
   58.3112   32.2753   55.1358 H   0  0  0  0  0  0  0  0  0  0  0  0
   58.8680   35.3320   51.8420 H   0  0  0  0  0  0  0  0  0  0  0  0
   59.6769   29.2286   50.5776 H   0  0  0  0  0  0  0  0  0  0  0  0
   60.4237   29.5115   48.2185 H   0  0  0  0  0  0  0  0  0  0  0  0
  1  2  1  0
  2  3  1  0
  3  4  1  0
  4  5  1  0
  5  6  2  0
  6  7  1  0
  7  8  2  0
  8  9  1  0
  9 10  2  0
  9 11  1  0
 11 12  1  0
 12 13  2  0
 12 14  2  0
 12 15  1  0
 15 16  2  0
 16 17  1  0
 17 18  2  0
 18 19  1  0
 19 20  2  0
 20 21  1  0
  8 22  1  0
 22 23  1  0
 23 24  1  0
 24 25  2  0
 25 26  1  0
 26 27  2  0
 27 28  1  0
 28 29  2  0
 29 30  1  0
 30 31  2  0
 31 32  1  0
 32 33  2  0
 33 34  1  0
 34 35  1  0
 34 36  2  0
 34 37  2  0
 27 38  1  0
 38 39  2  0
 22  5  1  0
 39 24  1  0
 20 15  1  0
 33 28  1  0
  1 40  1  0
  1 41  1  0
  1 42  1  0
  2 43  1  0
  2 44  1  0
  3 45  1  0
  3 46  1  0
  4 47  1  0
  4 48  1  0
  6 49  1  0
 16 50  1  0
 17 51  1  0
 18 52  1  0
 19 53  1  0
 21 54  1  0
 21 55  1  0
 21 56  1  0
 23 57  1  0
 23 58  1  0
 25 59  1  0
 26 60  1  0
 29 61  1  0
 30 62  1  0
 31 63  1  0
 32 64  1  0
 35 65  1  0
 38 66  1  0
 39 67  1  0
M  CHG  2  11  -1  35  -1
M  END
>  <UniqueID>  (21) 
21

>  <SMILES>  (21) 
CCCCc1cnc(C(=O)[N-]S(=O)(=O)c2ccccc2C)n1Cc1ccc(-c2ccccc2S([NH-])(=O)=O)cc1

>  <Energy>  (21) 
103.56581945051094

>  <Genealogy>  (21) 
CCCCc1cnc(C(=O)[N-]S(=O)(=O)c2ccccc2C)n1Cc1ccc(-c2ccccc2S([NH-])(=O)=O)cc1 (protonated)
CCCCc1cnc(C(=O)[N-]S(=O)(=O)c2ccccc2C)n1Cc1ccc(-c2ccccc2S([NH-])(=O)=O)cc1 (3D coordinates assigned)
CCCCc1cnc(C(=O)[N-]S(=O)(=O)c2ccccc2C)n1Cc1ccc(-c2ccccc2S([NH-])(=O)=O)cc1 (optimized conformer: 103.56581945051094 kcal/mol)

>  <smiles>  (21) 
CCCCc1cnc(C(=O)NS(=O)(=O)c2ccccc2C)n1Cc1ccc(-c2ccccc2S(N)(=O)=O)cc1

>  <score_type>  (21) 
oracle

>  <origin>  (21) 
adg

>  <m_score__min__energy>  (21) 
-13.33

>  <m_primary>  (21) 
energy

$$$$
21:0
     RDKit          3D

 58 60  0  0  0  0  0  0  0  0999 V2000
   54.4851   26.6392   54.0837 H   0  0  0  0  0  0  0  0  0  0  0  0
   53.9850   27.4140   53.4840 C   0  0  0  0  0  0  0  0  0  0  0  0
   53.7333   27.2177   52.4313 H   0  0  0  0  0  0  0  0  0  0  0  0
   53.6840   28.5910   54.0330 C   0  0  0  0  0  0  0  0  0  0  0  0
   53.9477   28.7591   55.0876 H   0  0  0  0  0  0  0  0  0  0  0  0
   53.0090   29.6880   53.2890 C   0  0  0  0  0  0  0  0  0  0  0  0
   51.6310   29.9210   53.4690 C   0  0  0  0  0  0  0  0  0  0  0  0
   51.0650   29.3070   54.1850 H   0  0  0  0  0  0  0  0  0  0  0  0
   50.9760   30.9210   52.7500 C   0  0  0  0  0  0  0  0  0  0  0  0
   49.9000   31.0912   52.9023 H   0  0  0  0  0  0  0  0  0  0  0  0
   51.6820   31.7050   51.8390 C   0  0  0  0  0  0  0  0  0  0  0  0
   51.0290   32.7100   51.1380 O   0  0  0  0  0  0  0  0  0  0  0  0
   53.0450   31.4840   51.6360 C   0  0  0  0  0  0  0  0  0  0  0  0
   53.5966   32.1092   50.9185 H   0  0  0  0  0  0  0  0  0  0  0  0
   53.7220   30.4690   52.3400 C   0  0  0  0  0  0  0  0  0  0  0  0
   55.1820   30.2830   52.1430 C   0  0  0  0  0  0  0  0  0  0  0  0
   55.5992   29.2674   52.2105 H   0  0  0  0  0  0  0  0  0  0  0  0
   56.0120   31.3050   51.8860 C   0  0  0  0  0  0  0  0  0  0  0  0
   55.6036   32.3257   51.9228 H   0  0  0  0  0  0  0  0  0  0  0  0
   57.4490   31.1390   51.5550 C   0  0  0  0  0  0  0  0  0  0  0  0
   58.1930   32.2790   51.2140 C   0  0  0  0  0  0  0  0  0  0  0  0
   57.7049   33.2647   51.2009 H   0  0  0  0  0  0  0  0  0  0  0  0
   59.5480   32.1730   50.8910 C   0  0  0  0  0  0  0  0  0  0  0  0
   60.1183   33.0768   50.6303 H   0  0  0  0  0  0  0  0  0  0  0  0
   60.1860   30.9290   50.8960 C   0  0  0  0  0  0  0  0  0  0  0  0
   61.5470   30.8840   50.5530 O   0  0  0  0  0  0  0  0  0  0  0  0
   62.0690   30.8210   49.2250 C   0  0  0  0  0  0  0  0  0  0  0  0
   62.8327   30.0307   49.1787 H   0  0  0  0  0  0  0  0  0  0  0  0
   61.2375   30.6043   48.5383 H   0  0  0  0  0  0  0  0  0  0  0  0
   62.7050   32.1540   48.8040 C   0  0  0  0  0  0  0  0  0  0  0  0
   62.7914   32.8005   49.6898 H   0  0  0  0  0  0  0  0  0  0  0  0
   63.6917   31.9348   48.3701 H   0  0  0  0  0  0  0  0  0  0  0  0
   61.8730   32.8840   47.7380 C   0  0  0  0  0  0  0  0  0  0  0  0
   62.4621   32.9720   46.8133 H   0  0  0  0  0  0  0  0  0  0  0  0
   60.9545   32.3113   47.5419 H   0  0  0  0  0  0  0  0  0  0  0  0
   61.5090   34.2380   48.2190 N   0  0  0  0  0  0  0  0  0  0  0  0
   62.3000   34.5980   49.4060 C   0  0  0  0  0  0  0  0  0  0  0  0
   61.7355   34.3411   50.3145 H   0  0  0  0  0  0  0  0  0  0  0  0
   63.2500   34.0436   49.3955 H   0  0  0  0  0  0  0  0  0  0  0  0
   62.5059   35.6785   49.3955 H   0  0  0  0  0  0  0  0  0  0  0  0
   60.0590   34.3290   48.4990 C   0  0  0  0  0  0  0  0  0  0  0  0
   59.7774   33.5331   49.2041 H   0  0  0  0  0  0  0  0  0  0  0  0
   59.8452   35.3176   48.9315 H   0  0  0  0  0  0  0  0  0  0  0  0
   59.2580   34.1730   47.2330 C   0  0  0  0  0  0  0  0  0  0  0  0
   59.6140   34.8770   46.0700 C   0  0  0  0  0  0  0  0  0  0  0  0
   60.4764   35.5597   46.0853 H   0  0  0  0  0  0  0  0  0  0  0  0
   58.8760   34.7130   44.8930 C   0  0  0  0  0  0  0  0  0  0  0  0
   59.1647   35.2598   43.9832 H   0  0  0  0  0  0  0  0  0  0  0  0
   57.7730   33.8560   44.8710 C   0  0  0  0  0  0  0  0  0  0  0  0
   57.1947   33.7272   43.9442 H   0  0  0  0  0  0  0  0  0  0  0  0
   57.4050   33.1630   46.0260 C   0  0  0  0  0  0  0  0  0  0  0  0
   56.5267   32.5008   46.0123 H   0  0  0  0  0  0  0  0  0  0  0  0
   58.1510   33.3090   47.2010 C   0  0  0  0  0  0  0  0  0  0  0  0
   57.8695   32.7452   48.1026 H   0  0  0  0  0  0  0  0  0  0  0  0
   59.4460   29.7800   51.2280 C   0  0  0  0  0  0  0  0  0  0  0  0
   59.9374   28.7959   51.2368 H   0  0  0  0  0  0  0  0  0  0  0  0
   58.0880   29.8830   51.5470 C   0  0  0  0  0  0  0  0  0  0  0  0
   57.5147   28.9771   51.7934 H   0  0  0  0  0  0  0  0  0  0  0  0
  1  2  1  0
  2  3  1  0
  2  4  2  0
  4  5  1  0
  4  6  1  0
  6  7  2  0
  7  8  1  0
  7  9  1  0
  9 10  1  0
  9 11  2  0
 11 12  1  0
 11 13  1  0
 13 14  1  0
 13 15  2  0
 15 16  1  0
 16 17  1  0
 16 18  2  0
 18 19  1  0
 18 20  1  0
 20 21  2  0
 21 22  1  0
 21 23  1  0
 23 24  1  0
 23 25  2  0
 25 26  1  0
 26 27  1  0
 27 28  1  0
 27 29  1  0
 27 30  1  0
 30 31  1  0
 30 32  1  0
 30 33  1  0
 33 34  1  0
 33 35  1  0
 33 36  1  0
 36 37  1  0
 37 38  1  0
 37 39  1  0
 37 40  1  0
 36 41  1  0
 41 42  1  0
 41 43  1  0
 41 44  1  0
 44 45  2  0
 45 46  1  0
 45 47  1  0
 47 48  1  0
 47 49  2  0
 49 50  1  0
 49 51  1  0
 51 52  1  0
 51 53  2  0
 53 54  1  0
 25 55  1  0
 55 56  1  0
 55 57  2  0
 57 58  1  0
 15  6  1  0
 57 20  1  0
 53 44  1  0
M  CHG  1  12  -1
M  END
>  <UniqueID>  (22) 
22

>  <SMILES>  (22) 
C=Cc1ccc([O-])cc1/C=C/c1ccc(OCCCN(C)Cc2ccccc2)cc1

>  <Energy>  (22) 
63.72020288492595

>  <Genealogy>  (22) 
C=Cc1ccc([O-])cc1C=Cc1ccc(OCCCN(C)Cc2ccccc2)cc1 (protonated)
C=Cc1ccc([O-])cc1/C=C/c1ccc(OCCCN(C)Cc2ccccc2)cc1 (cis-trans isomerization)
C=Cc1ccc([O-])cc1/C=C/c1ccc(OCCCN(C)Cc2ccccc2)cc1 (3D coordinates assigned)
C=Cc1ccc([O-])cc1/C=C/c1ccc(OCCCN(C)Cc2ccccc2)cc1 (optimized conformer: 63.72020288492595 kcal/mol)

>  <smiles>  (22) 
C=Cc1ccc(O)cc1C=Cc1ccc(OCCCN(C)Cc2ccccc2)cc1

>  <score_type>  (22) 
oracle

>  <origin>  (22) 
adg

>  <m_score__min__energy>  (22) 
-12.49

>  <m_primary>  (22) 
energy

$$$$
22:0
     RDKit          3D

 39 41  0  0  0  0  0  0  0  0999 V2000
   56.3586   30.4460   42.2960 H   0  0  0  0  0  0  0  0  0  0  0  0
   56.2560   29.5120   42.8680 C   0  0  0  0  0  0  0  0  0  0  0  0
   55.6373   28.6916   42.4753 H   0  0  0  0  0  0  0  0  0  0  0  0
   56.8830   29.3740   44.0400 C   0  0  0  0  0  0  0  0  0  0  0  0
   57.6940   30.2990   44.6180 N   0  0  0  0  0  0  0  0  0  0  0  0
   58.0620   31.6460   44.1520 C   0  0  0  0  0  0  0  0  0  0  0  0
   59.1274   31.8170   44.3655 H   0  0  0  0  0  0  0  0  0  0  0  0
   57.8592   31.6993   43.0722 H   0  0  0  0  0  0  0  0  0  0  0  0
   57.2340   32.7420   44.8460 C   0  0  0  0  0  0  0  0  0  0  0  0
   56.3525   32.9556   44.2237 H   0  0  0  0  0  0  0  0  0  0  0  0
   56.9670   32.3568   45.8411 H   0  0  0  0  0  0  0  0  0  0  0  0
   57.9990   34.0580   45.0690 C   0  0  0  0  0  0  0  0  0  0  0  0
   58.5818   34.2818   44.1633 H   0  0  0  0  0  0  0  0  0  0  0  0
   57.2536   34.8382   45.2828 H   0  0  0  0  0  0  0  0  0  0  0  0
   58.9420   34.0030   46.2450 C   0  0  0  0  0  0  0  0  0  0  0  0
   60.3090   34.2940   46.0800 C   0  0  0  0  0  0  0  0  0  0  0  0
   60.6933   34.5724   45.0876 H   0  0  0  0  0  0  0  0  0  0  0  0
   61.1810   34.2310   47.1710 C   0  0  0  0  0  0  0  0  0  0  0  0
   62.2463   34.4701   47.0369 H   0  0  0  0  0  0  0  0  0  0  0  0
   60.7020   33.8650   48.4310 C   0  0  0  0  0  0  0  0  0  0  0  0
   61.3881   33.8232   49.2898 H   0  0  0  0  0  0  0  0  0  0  0  0
   59.3510   33.5520   48.6000 C   0  0  0  0  0  0  0  0  0  0  0  0
   58.9753   33.2586   49.5913 H   0  0  0  0  0  0  0  0  0  0  0  0
   58.4760   33.6110   47.5120 C   0  0  0  0  0  0  0  0  0  0  0  0
   57.4163   33.3491   47.6478 H   0  0  0  0  0  0  0  0  0  0  0  0
   58.1330   29.7030   45.7480 C   0  0  0  0  0  0  0  0  0  0  0  0
   58.9060   30.2570   46.5740 O   0  0  0  0  0  0  0  0  0  0  0  0
   57.5810   28.4330   45.8550 C   0  0  0  0  0  0  0  0  0  0  0  0
   57.7260   27.5050   46.8180 C   0  0  0  0  0  0  0  0  0  0  0  0
   58.3260   27.7874   47.6956 H   0  0  0  0  0  0  0  0  0  0  0  0
   57.1560   26.1440   46.8080 C   0  0  0  0  0  0  0  0  0  0  0  0
   57.8320   25.0100   47.0700 N   0  0  0  0  0  0  0  0  0  0  0  0
   56.9250   24.0390   46.8290 C   0  0  0  0  0  0  0  0  0  0  0  0
   57.1850   22.8160   46.9770 O   0  0  0  0  0  0  0  0  0  0  0  0
   55.7210   24.4810   46.4090 N   0  0  0  0  0  0  0  0  0  0  0  0
   55.8890   25.8120   46.3910 C   0  0  0  0  0  0  0  0  0  0  0  0
   54.9030   26.7090   45.9960 O   0  0  0  0  0  0  0  0  0  0  0  0
   56.7880   28.2470   44.7790 N   0  0  0  0  0  0  0  0  0  0  0  0
   56.2290   27.3920   44.5530 H   0  0  0  0  0  0  0  0  0  0  0  0
  1  2  1  0
  2  3  1  0
  2  4  2  0
  4  5  1  0
  5  6  1  0
  6  7  1  0
  6  8  1  0
  6  9  1  0
  9 10  1  0
  9 11  1  0
  9 12  1  0
 12 13  1  0
 12 14  1  0
 12 15  1  0
 15 16  2  0
 16 17  1  0
 16 18  1  0
 18 19  1  0
 18 20  2  0
 20 21  1  0
 20 22  1  0
 22 23  1  0
 22 24  2  0
 24 25  1  0
  5 26  1  0
 26 27  2  0
 26 28  1  0
 28 29  2  0
 29 30  1  0
 29 31  1  0
 31 32  1  0
 32 33  1  0
 33 34  2  0
 33 35  1  0
 35 36  1  0
 36 37  1  0
 28 38  1  0
 38 39  1  0
 38  4  1  0
 24 15  1  0
 36 31  2  0
M  CHG  3  32  -1  35  -1  37  -1
M  END
>  <UniqueID>  (23) 
23

>  <SMILES>  (23) 
C=c1[nH]/c(=C/c2[n-]c(=O)[n-]c2[O-])c(=O)n1CCCc1ccccc1

>  <Energy>  (23) 
107.56897958779757

>  <Genealogy>  (23) 
C=c1[nH]c(=Cc2[n-]c(=O)[n-]c2[O-])c(=O)n1CCCc1ccccc1 (protonated)
C=c1[nH]/c(=C/c2[n-]c(=O)[n-]c2[O-])c(=O)n1CCCc1ccccc1 (cis-trans isomerization)
C=c1[nH]/c(=C/c2[n-]c(=O)[n-]c2[O-])c(=O)n1CCCc1ccccc1 (3D coordinates assigned)
C=c1[nH]/c(=C/c2[n-]c(=O)[n-]c2[O-])c(=O)n1CCCc1ccccc1 (optimized conformer: 107.56897958779757 kcal/mol)

>  <smiles>  (23) 
C=c1[nH]c(=Cc2[nH]c(=O)[nH]c2O)c(=O)n1CCCc1ccccc1

>  <score_type>  (23) 
oracle

>  <origin>  (23) 
adg

>  <m_score__min__energy>  (23) 
-15.699999999999999

>  <m_primary>  (23) 
energy

$$$$
23:0
     RDKit          3D

 51 53  0  0  0  0  0  0  0  0999 V2000
   58.6832   32.6100   43.4292 H   0  0  0  0  0  0  0  0  0  0  0  0
   58.2070   32.5030   44.4150 C   0  0  0  0  0  0  0  0  0  0  0  0
   58.0320   33.6240   45.1410 C   0  0  0  0  0  0  0  0  0  0  0  0
   59.1450   34.3280   45.8100 C   0  0  0  0  0  0  0  0  0  0  0  0
   59.5580   35.4140   45.3260 O   0  0  0  0  0  0  0  0  0  0  0  0
   59.7390   33.7820   47.0010 N   0  0  0  0  0  0  0  0  0  0  0  0
   61.1260   33.6480   47.2880 C   0  0  0  0  0  0  0  0  0  0  0  0
   62.2040   33.7670   46.3980 C   0  0  0  0  0  0  0  0  0  0  0  0
   62.0366   34.0288   45.3428 H   0  0  0  0  0  0  0  0  0  0  0  0
   63.5020   33.5440   46.8860 C   0  0  0  0  0  0  0  0  0  0  0  0
   64.3648   33.6405   46.2105 H   0  0  0  0  0  0  0  0  0  0  0  0
   63.7040   33.1980   48.2340 C   0  0  0  0  0  0  0  0  0  0  0  0
   64.7239   33.0287   48.6096 H   0  0  0  0  0  0  0  0  0  0  0  0
   62.6080   33.0680   49.1020 C   0  0  0  0  0  0  0  0  0  0  0  0
   62.7554   32.7934   50.1569 H   0  0  0  0  0  0  0  0  0  0  0  0
   61.3280   33.2950   48.5960 C   0  0  0  0  0  0  0  0  0  0  0  0
   60.0300   33.1480   49.3090 C   0  0  0  0  0  0  0  0  0  0  0  0
   59.9574   33.8591   50.1451 H   0  0  0  0  0  0  0  0  0  0  0  0
   59.8948   32.1511   49.7538 H   0  0  0  0  0  0  0  0  0  0  0  0
   58.9830   33.4690   48.2170 C   0  0  0  0  0  0  0  0  0  0  0  0
   58.3713   34.3323   48.5179 H   0  0  0  0  0  0  0  0  0  0  0  0
   58.3005   32.6214   48.0562 H   0  0  0  0  0  0  0  0  0  0  0  0
   56.6460   34.1780   45.2980 C   0  0  0  0  0  0  0  0  0  0  0  0
   56.4081   34.2731   46.3678 H   0  0  0  0  0  0  0  0  0  0  0  0
   56.5904   35.1675   44.8207 H   0  0  0  0  0  0  0  0  0  0  0  0
   55.9237   33.4995   44.8207 H   0  0  0  0  0  0  0  0  0  0  0  0
   57.8110   31.1360   44.8340 C   0  0  0  0  0  0  0  0  0  0  0  0
   56.5890   30.6020   44.6260 N   0  0  0  0  0  0  0  0  0  0  0  0
   56.6110   29.3970   45.2260 C   0  0  0  0  0  0  0  0  0  0  0  0
   55.5260   28.5320   45.2360 O   0  0  0  0  0  0  0  0  0  0  0  0
   57.8280   29.1490   45.8240 C   0  0  0  0  0  0  0  0  0  0  0  0
   58.1890   27.9470   46.6550 C   0  0  0  0  0  0  0  0  0  0  0  0
   59.1792   28.1131   47.1042 H   0  0  0  0  0  0  0  0  0  0  0  0
   57.4115   27.8262   47.4237 H   0  0  0  0  0  0  0  0  0  0  0  0
   58.2330   26.6740   45.8420 C   0  0  0  0  0  0  0  0  0  0  0  0
   58.9180   25.7290   46.2180 O   0  0  0  0  0  0  0  0  0  0  0  0
   57.4310   26.5540   44.6430 N   0  0  0  0  0  0  0  0  0  0  0  0
   56.5610   27.1270   44.7470 H   0  0  0  0  0  0  0  0  0  0  0  0
   57.0300   25.1540   44.4300 C   0  0  0  0  0  0  0  0  0  0  0  0
   56.8888   24.6609   45.4031 H   0  0  0  0  0  0  0  0  0  0  0  0
   56.0873   25.1247   43.8638 H   0  0  0  0  0  0  0  0  0  0  0  0
   57.8142   24.6301   43.8638 H   0  0  0  0  0  0  0  0  0  0  0  0
   58.1750   27.0680   43.4820 C   0  0  0  0  0  0  0  0  0  0  0  0
   59.0335   27.6611   43.8300 H   0  0  0  0  0  0  0  0  0  0  0  0
   58.5343   26.2246   42.8741 H   0  0  0  0  0  0  0  0  0  0  0  0
   57.5133   27.7025   42.8741 H   0  0  0  0  0  0  0  0  0  0  0  0
   58.6050   30.2670   45.5710 C   0  0  0  0  0  0  0  0  0  0  0  0
   60.0000   30.5260   46.0600 C   0  0  0  0  0  0  0  0  0  0  0  0
   60.0086   30.5276   47.1600 H   0  0  0  0  0  0  0  0  0  0  0  0
   60.6709   29.7371   45.6892 H   0  0  0  0  0  0  0  0  0  0  0  0
   60.3430   31.5032   45.6892 H   0  0  0  0  0  0  0  0  0  0  0  0
  1  2  1  0
  2  3  2  0
  3  4  1  0
  4  5  2  0
  4  6  1  0
  6  7  1  0
  7  8  2  0
  8  9  1  0
  8 10  1  0
 10 11  1  0
 10 12  2  0
 12 13  1  0
 12 14  1  0
 14 15  1  0
 14 16  2  0
 16 17  1  0
 17 18  1  0
 17 19  1  0
 17 20  1  0
 20 21  1  0
 20 22  1  0
  3 23  1  0
 23 24  1  0
 23 25  1  0
 23 26  1  0
  2 27  1  0
 27 28  1  0
 28 29  1  0
 29 30  1  0
 29 31  2  0
 31 32  1  0
 32 33  1  0
 32 34  1  0
 32 35  1  0
 35 36  2  0
 35 37  1  0
 37 38  1  0
 37 39  1  0
 39 40  1  0
 39 41  1  0
 39 42  1  0
 37 43  1  0
 43 44  1  0
 43 45  1  0
 43 46  1  0
 31 47  1  0
 47 48  1  0
 48 49  1  0
 48 50  1  0
 48 51  1  0
 20  6  1  0
 47 27  2  0
 16  7  1  0
M  CHG  3  28  -1  30  -1  37   1
M  END
>  <UniqueID>  (24) 
24

>  <SMILES>  (24) 
C/C(=C/c1[n-]c([O-])c(CC(=O)[NH+](C)C)c1C)C(=O)N1CCc2ccccc21

>  <Energy>  (24) 
99.20095435419469

>  <Genealogy>  (24) 
CC(=Cc1[n-]c([O-])c(CC(=O)[NH+](C)C)c1C)C(=O)N1CCc2ccccc21 (protonated)
C/C(=C/c1[n-]c([O-])c(CC(=O)[NH+](C)C)c1C)C(=O)N1CCc2ccccc21 (cis-trans isomerization)
C/C(=C/c1[n-]c([O-])c(CC(=O)[NH+](C)C)c1C)C(=O)N1CCc2ccccc21 (3D coordinates assigned)
C/C(=C/c1[n-]c([O-])c(CC(=O)[NH+](C)C)c1C)C(=O)N1CCc2ccccc21 (nonaromatic ring conformer: 99.20095435419469 kcal/mol)

>  <smiles>  (24) 
CC(=Cc1[nH]c(O)c(CC(=O)N(C)C)c1C)C(=O)N1CCc2ccccc21

>  <score_type>  (24) 
oracle

>  <origin>  (24) 
adg

>  <m_score__min__energy>  (24) 
-12.57

>  <m_primary>  (24) 
energy

$$$$
24:0
     RDKit          3D

 70 74  0  0  0  0  0  0  0  0999 V2000
   61.1280   32.8940   51.7950 C   0  0  0  0  0  0  0  0  0  0  0  0
   61.8290   33.5660   50.7020 N   0  0  0  0  0  0  0  0  0  0  0  0
   63.1590   34.0770   50.9320 C   0  0  0  0  0  0  0  0  0  0  0  0
   63.3740   35.3130   50.7990 O   0  0  0  0  0  0  0  0  0  0  0  0
   64.2870   33.1770   51.2950 C   0  0  0  0  0  0  0  0  0  0  0  0
   65.1450   32.6590   50.3060 C   0  0  0  0  0  0  0  0  0  0  0  0
   66.1870   31.7950   50.6500 C   0  0  0  0  0  0  0  0  0  0  0  0
   66.3790   31.4120   51.9850 C   0  0  0  0  0  0  0  0  0  0  0  0
   67.4780   30.4900   52.3270 C   0  0  0  0  0  0  0  0  0  0  0  0
   68.6480   30.9630   52.3670 O   0  0  0  0  0  0  0  0  0  0  0  0
   67.2690   29.0740   52.5580 N   0  0  0  0  0  0  0  0  0  0  0  0
   68.3980   28.2550   53.0300 C   0  0  0  0  0  0  0  0  0  0  0  0
   68.1270   26.7540   52.8400 C   0  0  0  0  0  0  0  0  0  0  0  0
   67.3400   26.4750   51.6190 N   0  0  0  0  0  0  0  0  0  0  0  0
   68.0890   26.7700   50.4120 C   0  0  0  0  0  0  0  0  0  0  0  0
   67.5240   27.1010   49.3790 O   0  0  0  0  0  0  0  0  0  0  0  0
   66.0050   27.1330   51.6200 C   0  0  0  0  0  0  0  0  0  0  0  0
   65.9430   28.4400   52.4430 C   0  0  0  0  0  0  0  0  0  0  0  0
   65.5500   31.9510   52.9820 C   0  0  0  0  0  0  0  0  0  0  0  0
   64.5040   32.8160   52.6380 C   0  0  0  0  0  0  0  0  0  0  0  0
   61.1840   33.7430   49.4200 C   0  0  0  0  0  0  0  0  0  0  0  0
   61.9500   33.8550   48.2470 C   0  0  0  0  0  0  0  0  0  0  0  0
   61.3310   33.9880   47.0020 C   0  0  0  0  0  0  0  0  0  0  0  0
   59.9300   34.0230   46.8980 C   0  0  0  0  0  0  0  0  0  0  0  0
   59.2690   34.1260   45.5760 C   0  0  0  0  0  0  0  0  0  0  0  0
   59.4360   35.1610   44.8720 O   0  0  0  0  0  0  0  0  0  0  0  0
   58.4030   33.0870   45.0920 N   0  0  0  0  0  0  0  0  0  0  0  0
   58.1170   32.9860   43.6550 C   0  0  0  0  0  0  0  0  0  0  0  0
   57.5300   31.6250   43.2590 C   0  0  0  0  0  0  0  0  0  0  0  0
   58.4230   30.5600   43.5710 O   0  0  0  0  0  0  0  0  0  0  0  0
   58.7990   30.1330   44.8570 C   0  0  0  0  0  0  0  0  0  0  0  0
   59.5360   28.9420   44.9350 C   0  0  0  0  0  0  0  0  0  0  0  0
   59.9680   28.4460   46.1670 C   0  0  0  0  0  0  0  0  0  0  0  0
   59.6720   29.1380   47.3410 C   0  0  0  0  0  0  0  0  0  0  0  0
   58.9490   30.3290   47.2850 C   0  0  0  0  0  0  0  0  0  0  0  0
   58.5120   30.8520   46.0510 C   0  0  0  0  0  0  0  0  0  0  0  0
   57.7800   32.1710   46.0510 C   0  0  0  0  0  0  0  0  0  0  0  0
   59.1630   33.9140   48.0710 C   0  0  0  0  0  0  0  0  0  0  0  0
   59.7830   33.7860   49.3190 C   0  0  0  0  0  0  0  0  0  0  0  0
   61.5119   33.2620   52.7579 H   0  0  0  0  0  0  0  0  0  0  0  0
   60.0508   33.1056   51.7247 H   0  0  0  0  0  0  0  0  0  0  0  0
   61.2939   31.8089   51.7247 H   0  0  0  0  0  0  0  0  0  0  0  0
   64.9932   32.9374   49.2527 H   0  0  0  0  0  0  0  0  0  0  0  0
   66.8609   31.4128   49.8691 H   0  0  0  0  0  0  0  0  0  0  0  0
   69.2997   28.5295   52.4629 H   0  0  0  0  0  0  0  0  0  0  0  0
   68.5361   28.4462   54.1044 H   0  0  0  0  0  0  0  0  0  0  0  0
   69.0899   26.2272   52.7681 H   0  0  0  0  0  0  0  0  0  0  0  0
   67.5418   26.4061   53.7040 H   0  0  0  0  0  0  0  0  0  0  0  0
   67.1740   25.4390   51.6010 H   0  0  0  0  0  0  0  0  0  0  0  0
   69.1863   26.6945   50.4262 H   0  0  0  0  0  0  0  0  0  0  0  0
   65.7352   27.3674   50.5797 H   0  0  0  0  0  0  0  0  0  0  0  0
   65.3057   26.4281   52.0934 H   0  0  0  0  0  0  0  0  0  0  0  0
   65.2543   29.1407   51.9483 H   0  0  0  0  0  0  0  0  0  0  0  0
   65.5920   28.1919   53.4555 H   0  0  0  0  0  0  0  0  0  0  0  0
   65.7230   31.6928   54.0372 H   0  0  0  0  0  0  0  0  0  0  0  0
   63.8466   33.2166   53.4237 H   0  0  0  0  0  0  0  0  0  0  0  0
   63.0481   33.8377   48.3101 H   0  0  0  0  0  0  0  0  0  0  0  0
   61.9464   34.0661   46.0936 H   0  0  0  0  0  0  0  0  0  0  0  0
   57.3963   33.7716   43.3842 H   0  0  0  0  0  0  0  0  0  0  0  0
   59.0703   33.1037   43.1189 H   0  0  0  0  0  0  0  0  0  0  0  0
   56.5863   31.4710   43.8028 H   0  0  0  0  0  0  0  0  0  0  0  0
   57.3604   31.6256   42.1722 H   0  0  0  0  0  0  0  0  0  0  0  0
   59.7769   28.3915   44.0136 H   0  0  0  0  0  0  0  0  0  0  0  0
   60.5422   27.5088   46.2114 H   0  0  0  0  0  0  0  0  0  0  0  0
   60.0089   28.7443   48.3113 H   0  0  0  0  0  0  0  0  0  0  0  0
   58.7167   30.8674   48.2157 H   0  0  0  0  0  0  0  0  0  0  0  0
   56.7300   32.0054   45.7680 H   0  0  0  0  0  0  0  0  0  0  0  0
   57.8287   32.6122   47.0574 H   0  0  0  0  0  0  0  0  0  0  0  0
   58.0650   33.9295   48.0073 H   0  0  0  0  0  0  0  0  0  0  0  0
   59.1684   33.7185   50.2288 H   0  0  0  0  0  0  0  0  0  0  0  0
  1  2  1  0
  2  3  1  0
  3  4  2  0
  3  5  1  0
  5  6  2  0
  6  7  1  0
  7  8  2  0
  8  9  1  0
  9 10  2  0
  9 11  1  0
 11 12  1  0
 12 13  1  0
 13 14  1  0
 14 15  1  0
 15 16  2  0
 14 17  1  0
 17 18  1  0
  8 19  1  0
 19 20  2  0
  2 21  1  0
 21 22  2  0
 22 23  1  0
 23 24  2  0
 24 25  1  0
 25 26  2  0
 25 27  1  0
 27 28  1  0
 28 29  1  0
 29 30  1  0
 30 31  1  0
 31 32  2  0
 32 33  1  0
 33 34  2  0
 34 35  1  0
 35 36  2  0
 36 37  1  0
 24 38  1  0
 38 39  2  0
 20  5  1  0
 39 21  1  0
 18 11  1  0
 37 27  1  0
 36 31  1  0
  1 40  1  0
  1 41  1  0
  1 42  1  0
  6 43  1  0
  7 44  1  0
 12 45  1  0
 12 46  1  0
 13 47  1  0
 13 48  1  0
 14 49  1  0
 15 50  1  0
 17 51  1  0
 17 52  1  0
 18 53  1  0
 18 54  1  0
 19 55  1  0
 20 56  1  0
 22 57  1  0
 23 58  1  0
 28 59  1  0
 28 60  1  0
 29 61  1  0
 29 62  1  0
 32 63  1  0
 33 64  1  0
 34 65  1  0
 35 66  1  0
 37 67  1  0
 37 68  1  0
 38 69  1  0
 39 70  1  0
M  CHG  1  14   1
M  END
>  <UniqueID>  (25) 
25

>  <SMILES>  (25) 
CN(C(=O)c1ccc(C(=O)N2CC[NH+](C=O)CC2)cc1)c1ccc(C(=O)N2CCOc3ccccc3C2)cc1

>  <Energy>  (25) 
110.34575659386506

>  <Genealogy>  (25) 
CN(C(=O)c1ccc(C(=O)N2CC[NH+](C=O)CC2)cc1)c1ccc(C(=O)N2CCOc3ccccc3C2)cc1 (protonated)
CN(C(=O)c1ccc(C(=O)N2CC[NH+](C=O)CC2)cc1)c1ccc(C(=O)N2CCOc3ccccc3C2)cc1 (3D coordinates assigned)
CN(C(=O)c1ccc(C(=O)N2CC[NH+](C=O)CC2)cc1)c1ccc(C(=O)N2CCOc3ccccc3C2)cc1 (nonaromatic ring conformer: 110.34575659386506 kcal/mol)

>  <smiles>  (25) 
CN(C(=O)c1ccc(C(=O)N2CCN(C=O)CC2)cc1)c1ccc(C(=O)N2CCOc3ccccc3C2)cc1

>  <score_type>  (25) 
oracle

>  <origin>  (25) 
adg

>  <m_score__min__energy>  (25) 
-5.6299999999999999

>  <m_primary>  (25) 
energy

$$$$
25:0
     RDKit          3D

 65 69  0  0  0  0  0  0  0  0999 V2000
   60.8880   30.4520   53.6580 O   0  0  0  0  0  0  0  0  0  0  0  0
   60.5690   31.2240   52.7110 C   0  0  0  0  0  0  0  0  0  0  0  0
   60.7750   32.6030   52.8260 O   0  0  0  0  0  0  0  0  0  0  0  0
   62.0530   33.2110   52.6760 C   0  0  0  0  0  0  0  0  0  0  0  0
   62.4670   33.1150   51.2330 C   0  0  0  0  0  0  0  0  0  0  0  0
   63.2350   32.0290   50.7800 C   0  0  0  0  0  0  0  0  0  0  0  0
   63.6790   31.9850   49.4570 C   0  0  0  0  0  0  0  0  0  0  0  0
   63.3710   33.0280   48.5780 C   0  0  0  0  0  0  0  0  0  0  0  0
   62.6120   34.1150   49.0210 C   0  0  0  0  0  0  0  0  0  0  0  0
   62.1630   34.1640   50.3460 C   0  0  0  0  0  0  0  0  0  0  0  0
   59.9870   30.6960   51.5050 N   0  0  0  0  0  0  0  0  0  0  0  0
   59.3920   31.6300   50.5370 C   0  0  0  0  0  0  0  0  0  0  0  0
   59.1270   30.9540   49.1850 C   0  0  0  0  0  0  0  0  0  0  0  0
   60.3240   30.0640   48.8070 C   0  0  0  0  0  0  0  0  0  0  0  0
   60.1910   29.5210   47.4340 N   0  0  0  0  0  0  0  0  0  0  0  0
   59.9170   28.1030   47.2330 C   0  0  0  0  0  0  0  0  0  0  0  0
   60.8140   27.2470   47.4660 O   0  0  0  0  0  0  0  0  0  0  0  0
   58.5990   27.5980   46.7920 C   0  0  0  0  0  0  0  0  0  0  0  0
   57.9130   28.2610   45.7580 C   0  0  0  0  0  0  0  0  0  0  0  0
   56.6360   27.8410   45.3710 C   0  0  0  0  0  0  0  0  0  0  0  0
   56.0550   26.7240   45.9810 C   0  0  0  0  0  0  0  0  0  0  0  0
   54.7670   26.3370   45.6350 O   0  0  0  0  0  0  0  0  0  0  0  0
   56.7750   25.9910   46.9350 C   0  0  0  0  0  0  0  0  0  0  0  0
   58.0500   26.4110   47.3320 C   0  0  0  0  0  0  0  0  0  0  0  0
   58.7570   25.6160   48.2370 O   0  0  0  0  0  0  0  0  0  0  0  0
   60.4170   30.4620   46.3050 C   0  0  0  0  0  0  0  0  0  0  0  0
   61.1400   31.7570   46.7440 C   0  0  0  0  0  0  0  0  0  0  0  0
   60.1710   32.8340   46.4130 C   0  0  0  0  0  0  0  0  0  0  0  0
   60.2980   34.1930   46.7130 C   0  0  0  0  0  0  0  0  0  0  0  0
   59.2600   35.0640   46.3520 C   0  0  0  0  0  0  0  0  0  0  0  0
   58.1120   34.5640   45.7080 C   0  0  0  0  0  0  0  0  0  0  0  0
   58.0120   33.1980   45.4000 C   0  0  0  0  0  0  0  0  0  0  0  0
   59.0530   32.3460   45.7740 C   0  0  0  0  0  0  0  0  0  0  0  0
   59.1030   30.8730   45.5960 C   0  0  0  0  0  0  0  0  0  0  0  0
   60.5970   28.9520   49.8520 C   0  0  0  0  0  0  0  0  0  0  0  0
   59.9680   29.2510   51.2250 C   0  0  0  0  0  0  0  0  0  0  0  0
   61.9974   34.2680   52.9755 H   0  0  0  0  0  0  0  0  0  0  0  0
   62.7891   32.6973   53.3118 H   0  0  0  0  0  0  0  0  0  0  0  0
   63.4873   31.2105   51.4702 H   0  0  0  0  0  0  0  0  0  0  0  0
   64.2723   31.1281   49.1054 H   0  0  0  0  0  0  0  0  0  0  0  0
   63.7261   32.9931   47.5375 H   0  0  0  0  0  0  0  0  0  0  0  0
   62.3672   34.9330   48.3275 H   0  0  0  0  0  0  0  0  0  0  0  0
   61.5717   35.0238   50.6942 H   0  0  0  0  0  0  0  0  0  0  0  0
   58.4398   32.0038   50.9414 H   0  0  0  0  0  0  0  0  0  0  0  0
   60.1021   32.4543   50.3748 H   0  0  0  0  0  0  0  0  0  0  0  0
   58.2199   30.3359   49.2568 H   0  0  0  0  0  0  0  0  0  0  0  0
   58.9882   31.7252   48.4130 H   0  0  0  0  0  0  0  0  0  0  0  0
   61.2122   30.7129   48.8152 H   0  0  0  0  0  0  0  0  0  0  0  0
   58.3841   29.1156   45.2503 H   0  0  0  0  0  0  0  0  0  0  0  0
   56.0897   28.3880   44.5885 H   0  0  0  0  0  0  0  0  0  0  0  0
   56.3363   25.0824   47.3732 H   0  0  0  0  0  0  0  0  0  0  0  0
   59.6010   25.9410   48.6860 H   0  0  0  0  0  0  0  0  0  0  0  0
   61.0540   29.9006   45.6057 H   0  0  0  0  0  0  0  0  0  0  0  0
   61.3535   31.7400   47.8230 H   0  0  0  0  0  0  0  0  0  0  0  0
   62.1116   31.8913   46.2460 H   0  0  0  0  0  0  0  0  0  0  0  0
   61.1957   34.5725   47.2230 H   0  0  0  0  0  0  0  0  0  0  0  0
   59.3426   36.1386   46.5721 H   0  0  0  0  0  0  0  0  0  0  0  0
   57.2903   35.2464   45.4452 H   0  0  0  0  0  0  0  0  0  0  0  0
   57.1294   32.8059   44.8735 H   0  0  0  0  0  0  0  0  0  0  0  0
   58.2347   30.3910   46.0690 H   0  0  0  0  0  0  0  0  0  0  0  0
   59.0763   30.5702   44.5388 H   0  0  0  0  0  0  0  0  0  0  0  0
   60.1815   28.0061   49.4743 H   0  0  0  0  0  0  0  0  0  0  0  0
   61.6862   28.8936   49.9942 H   0  0  0  0  0  0  0  0  0  0  0  0
   58.9267   28.8964   51.2296 H   0  0  0  0  0  0  0  0  0  0  0  0
   60.5520   28.7338   52.0006 H   0  0  0  0  0  0  0  0  0  0  0  0
  1  2  2  0
  2  3  1  0
  3  4  1  0
  4  5  1  0
  5  6  2  0
  6  7  1  0
  7  8  2  0
  8  9  1  0
  9 10  2  0
  2 11  1  0
 11 12  1  0
 12 13  1  0
 13 14  1  0
 14 15  1  0
 15 16  1  0
 16 17  2  0
 16 18  1  0
 18 19  2  0
 19 20  1  0
 20 21  2  0
 21 22  1  0
 21 23  1  0
 23 24  2  0
 24 25  1  0
 15 26  1  0
 26 27  1  0
 27 28  1  0
 28 29  2  0
 29 30  1  0
 30 31  2  0
 31 32  1  0
 32 33  2  0
 33 34  1  0
 14 35  1  0
 35 36  1  0
 10  5  1  0
 36 11  1  0
 24 18  1  0
 34 26  1  0
 33 28  1  0
  4 37  1  0
  4 38  1  0
  6 39  1  0
  7 40  1  0
  8 41  1  0
  9 42  1  0
 10 43  1  0
 12 44  1  0
 12 45  1  0
 13 46  1  0
 13 47  1  0
 14 48  1  0
 19 49  1  0
 20 50  1  0
 23 51  1  0
 25 52  1  0
 26 53  1  0
 27 54  1  0
 27 55  1  0
 29 56  1  0
 30 57  1  0
 31 58  1  0
 32 59  1  0
 34 60  1  0
 34 61  1  0
 35 62  1  0
 35 63  1  0
 36 64  1  0
 36 65  1  0
M  CHG  1  22  -1
M  END
>  <UniqueID>  (26) 
26

>  <SMILES>  (26) 
O=C(OCc1ccccc1)N1CCC(N(C(=O)c2ccc([O-])cc2O)C2Cc3ccccc3C2)CC1

>  <Energy>  (26) 
89.12341193863867

>  <Genealogy>  (26) 
O=C(OCc1ccccc1)N1CCC(N(C(=O)c2ccc([O-])cc2O)C2Cc3ccccc3C2)CC1 (protonated)
O=C(OCc1ccccc1)N1CCC(N(C(=O)c2ccc([O-])cc2O)C2Cc3ccccc3C2)CC1 (3D coordinates assigned)
O=C(OCc1ccccc1)N1CCC(N(C(=O)c2ccc([O-])cc2O)C2Cc3ccccc3C2)CC1 (nonaromatic ring conformer: 89.12341193863867 kcal/mol)

>  <smiles>  (26) 
O=C(OCc1ccccc1)N1CCC(N(C(=O)c2ccc(O)cc2O)C2Cc3ccccc3C2)CC1

>  <score_type>  (26) 
oracle

>  <origin>  (26) 
adg

>  <m_score__min__energy>  (26) 
-10.970000000000001

>  <m_primary>  (26) 
energy

$$$$
26:0
     RDKit          3D

 53 56  0  0  0  0  0  0  0  0999 V2000
   60.2570   28.2140   46.1170 C   0  0  0  0  0  0  0  0  0  0  0  0
   58.8350   27.9260   45.9530 N   0  0  0  0  0  0  0  0  0  0  0  0
   58.3060   26.6880   45.9100 C   0  0  0  0  0  0  0  0  0  0  0  0
   56.9430   26.7680   45.6900 C   0  0  0  0  0  0  0  0  0  0  0  0
   55.9810   25.6520   45.6030 C   0  0  0  0  0  0  0  0  0  0  0  0
   54.7900   25.8460   45.9650 O   0  0  0  0  0  0  0  0  0  0  0  0
   56.3700   24.3240   45.0860 C   0  0  0  0  0  0  0  0  0  0  0  0
   57.6630   23.8250   44.9810 C   0  0  0  0  0  0  0  0  0  0  0  0
   57.6410   22.6080   44.3970 N   0  0  0  0  0  0  0  0  0  0  0  0
   58.8050   21.8070   44.0340 C   0  0  0  0  0  0  0  0  0  0  0  0
   56.3560   22.3380   44.0980 C   0  0  0  0  0  0  0  0  0  0  0  0
   55.9290   21.1820   43.4530 O   0  0  0  0  0  0  0  0  0  0  0  0
   55.5450   23.3670   44.5100 C   0  0  0  0  0  0  0  0  0  0  0  0
   54.1600   23.4070   44.3710 O   0  0  0  0  0  0  0  0  0  0  0  0
   56.6270   28.1130   45.6160 C   0  0  0  0  0  0  0  0  0  0  0  0
   57.8130   28.8010   45.7960 C   0  0  0  0  0  0  0  0  0  0  0  0
   57.9280   30.2720   45.7690 C   0  0  0  0  0  0  0  0  0  0  0  0
   57.2670   30.9090   44.9050 O   0  0  0  0  0  0  0  0  0  0  0  0
   58.7490   30.9900   46.7120 N   0  0  0  0  0  0  0  0  0  0  0  0
   59.2970   32.2990   46.3160 C   0  0  0  0  0  0  0  0  0  0  0  0
   59.9110   33.0380   47.5070 C   0  0  0  0  0  0  0  0  0  0  0  0
   60.7540   32.1170   48.2770 N   0  0  0  0  0  0  0  0  0  0  0  0
   62.1300   32.4400   48.5570 C   0  0  0  0  0  0  0  0  0  0  0  0
   62.9090   33.1240   47.6060 C   0  0  0  0  0  0  0  0  0  0  0  0
   64.2420   33.4440   47.8840 C   0  0  0  0  0  0  0  0  0  0  0  0
   64.8060   33.0930   49.1130 C   0  0  0  0  0  0  0  0  0  0  0  0
   64.0380   32.4200   50.0670 C   0  0  0  0  0  0  0  0  0  0  0  0
   62.7060   32.0970   49.7930 C   0  0  0  0  0  0  0  0  0  0  0  0
   60.2100   30.8220   48.7070 C   0  0  0  0  0  0  0  0  0  0  0  0
   58.8140   30.5620   48.1200 C   0  0  0  0  0  0  0  0  0  0  0  0
   60.4999   28.2632   47.1887 H   0  0  0  0  0  0  0  0  0  0  0  0
   60.8495   27.4176   45.6429 H   0  0  0  0  0  0  0  0  0  0  0  0
   60.4929   29.1782   45.6429 H   0  0  0  0  0  0  0  0  0  0  0  0
   58.8732   25.7534   46.0316 H   0  0  0  0  0  0  0  0  0  0  0  0
   58.5701   24.3448   45.3231 H   0  0  0  0  0  0  0  0  0  0  0  0
   59.3101   21.4594   44.9472 H   0  0  0  0  0  0  0  0  0  0  0  0
   58.4821   20.9389   43.4405 H   0  0  0  0  0  0  0  0  0  0  0  0
   59.5004   22.4187   43.4405 H   0  0  0  0  0  0  0  0  0  0  0  0
   53.5890   22.5780   44.4700 H   0  0  0  0  0  0  0  0  0  0  0  0
   55.6309   28.5483   45.4476 H   0  0  0  0  0  0  0  0  0  0  0  0
   60.0742   32.1443   45.5531 H   0  0  0  0  0  0  0  0  0  0  0  0
   58.4729   32.9107   45.9201 H   0  0  0  0  0  0  0  0  0  0  0  0
   60.5231   33.8758   47.1418 H   0  0  0  0  0  0  0  0  0  0  0  0
   59.1070   33.4226   48.1518 H   0  0  0  0  0  0  0  0  0  0  0  0
   62.4678   33.4085   46.6393 H   0  0  0  0  0  0  0  0  0  0  0  0
   64.8475   33.9731   47.1334 H   0  0  0  0  0  0  0  0  0  0  0  0
   65.8543   33.3463   49.3297 H   0  0  0  0  0  0  0  0  0  0  0  0
   64.4823   32.1441   51.0347 H   0  0  0  0  0  0  0  0  0  0  0  0
   62.1045   31.5711   50.5491 H   0  0  0  0  0  0  0  0  0  0  0  0
   60.8895   30.0232   48.3750 H   0  0  0  0  0  0  0  0  0  0  0  0
   60.1207   30.8375   49.8033 H   0  0  0  0  0  0  0  0  0  0  0  0
   58.5924   29.4862   48.1802 H   0  0  0  0  0  0  0  0  0  0  0  0
   58.0764   31.1386   48.6975 H   0  0  0  0  0  0  0  0  0  0  0  0
  1  2  1  0
  2  3  1  0
  3  4  2  0
  4  5  1  0
  5  6  2  0
  5  7  1  0
  7  8  2  0
  8  9  1  0
  9 10  1  0
  9 11  1  0
 11 12  1  0
 11 13  2  0
 13 14  1  0
  4 15  1  0
 15 16  2  0
 16 17  1  0
 17 18  2  0
 17 19  1  0
 19 20  1  0
 20 21  1  0
 21 22  1  0
 22 23  1  0
 23 24  2  0
 24 25  1  0
 25 26  2  0
 26 27  1  0
 27 28  2  0
 22 29  1  0
 29 30  1  0
 16  2  1  0
 30 19  1  0
 13  7  1  0
 28 23  1  0
  1 31  1  0
  1 32  1  0
  1 33  1  0
  3 34  1  0
  8 35  1  0
 10 36  1  0
 10 37  1  0
 10 38  1  0
 14 39  1  0
 15 40  1  0
 20 41  1  0
 20 42  1  0
 21 43  1  0
 21 44  1  0
 24 45  1  0
 25 46  1  0
 26 47  1  0
 27 48  1  0
 28 49  1  0
 29 50  1  0
 29 51  1  0
 30 52  1  0
 30 53  1  0
M  CHG  1  12  -1
M  END
>  <UniqueID>  (27) 
27

>  <SMILES>  (27) 
Cn1cc(C(=O)c2cn(C)c([O-])c2O)cc1C(=O)N1CCN(c2ccccc2)CC1

>  <Energy>  (27) 
122.62269384634286

>  <Genealogy>  (27) 
Cn1cc(C(=O)c2cn(C)c([O-])c2O)cc1C(=O)N1CCN(c2ccccc2)CC1 (protonated)
Cn1cc(C(=O)c2cn(C)c([O-])c2O)cc1C(=O)N1CCN(c2ccccc2)CC1 (3D coordinates assigned)
Cn1cc(C(=O)c2cn(C)c([O-])c2O)cc1C(=O)N1CCN(c2ccccc2)CC1 (nonaromatic ring conformer: 122.62269384634286 kcal/mol)

>  <smiles>  (27) 
Cn1cc(C(=O)c2cn(C)c(O)c2O)cc1C(=O)N1CCN(c2ccccc2)CC1

>  <score_type>  (27) 
oracle

>  <origin>  (27) 
adg

>  <m_score__min__energy>  (27) 
-12.779999999999999

>  <m_primary>  (27) 
energy

$$$$
27:0
     RDKit          3D

 45 48  0  0  0  0  0  0  0  0999 V2000
   59.6190   34.2390   44.1310 C   0  0  0  0  0  0  0  0  0  0  0  0
   58.8240   34.7550   45.3340 C   0  0  1  0  0  0  0  0  0  0  0  0
   57.3080   34.4800   45.1820 C   0  0  0  0  0  0  0  0  0  0  0  0
   56.9380   33.3830   46.2000 C   0  0  0  0  0  0  0  0  0  0  0  0
   58.1460   33.2610   47.0470 C   0  0  0  0  0  0  0  0  0  0  0  0
   58.2840   32.4720   48.1910 C   0  0  0  0  0  0  0  0  0  0  0  0
   59.5160   32.4780   48.8800 C   0  0  0  0  0  0  0  0  0  0  0  0
   59.7310   31.7050   50.0310 O   0  0  0  0  0  0  0  0  0  0  0  0
   59.9730   30.3260   50.0440 C   0  0  0  0  0  0  0  0  0  0  0  0
   60.1000   29.6450   51.2140 N   0  0  0  0  0  0  0  0  0  0  0  0
   60.3600   28.3140   51.2020 C   0  0  0  0  0  0  0  0  0  0  0  0
   60.5010   27.6610   50.0220 N   0  0  0  0  0  0  0  0  0  0  0  0
   60.3750   28.3350   48.8470 C   0  0  0  0  0  0  0  0  0  0  0  0
   60.5340   27.7350   47.7030 N   0  0  0  0  0  0  0  0  0  0  0  0
   59.5260   27.4960   46.7060 C   0  0  0  0  0  0  0  0  0  0  0  0
   59.3710   26.1980   46.2060 C   0  0  0  0  0  0  0  0  0  0  0  0
   58.4270   25.9310   45.2100 C   0  0  0  0  0  0  0  0  0  0  0  0
   57.6420   26.9650   44.6940 C   0  0  0  0  0  0  0  0  0  0  0  0
   57.8030   28.2730   45.1650 C   0  0  0  0  0  0  0  0  0  0  0  0
   56.8450   29.5840   44.4830 S   0  0  0  0  0  0  0  0  0  0  0  0
   55.1780   29.3430   44.8680 N   0  0  0  0  0  0  0  0  0  0  0  0
   57.0140   29.6130   42.9900 O   0  0  0  0  0  0  0  0  0  0  0  0
   57.3050   30.8990   45.0450 O   0  0  0  0  0  0  0  0  0  0  0  0
   58.7570   28.5410   46.1580 C   0  0  0  0  0  0  0  0  0  0  0  0
   60.1240   29.6680   48.8660 N   0  0  0  0  0  0  0  0  0  0  0  0
   60.5840   33.2480   48.3810 C   0  0  0  0  0  0  0  0  0  0  0  0
   60.4230   34.0270   47.2260 C   0  0  0  0  0  0  0  0  0  0  0  0
   59.1880   34.0150   46.5710 C   0  0  0  0  0  0  0  0  0  0  0  0
   60.4927   33.6719   44.4848 H   0  0  0  0  0  0  0  0  0  0  0  0
   58.9787   33.5839   43.5221 H   0  0  0  0  0  0  0  0  0  0  0  0
   59.9567   35.0906   43.5221 H   0  0  0  0  0  0  0  0  0  0  0  0
   59.0525   35.8296   45.3888 H   0  0  0  0  0  0  0  0  0  0  0  0
   56.7362   35.3962   45.3911 H   0  0  0  0  0  0  0  0  0  0  0  0
   57.0711   34.1572   44.1575 H   0  0  0  0  0  0  0  0  0  0  0  0
   56.0674   33.6844   46.8010 H   0  0  0  0  0  0  0  0  0  0  0  0
   56.6600   32.4339   45.7185 H   0  0  0  0  0  0  0  0  0  0  0  0
   57.4462   31.8558   48.5494 H   0  0  0  0  0  0  0  0  0  0  0  0
   60.4565   27.7640   52.1497 H   0  0  0  0  0  0  0  0  0  0  0  0
   59.9960   25.3827   46.5992 H   0  0  0  0  0  0  0  0  0  0  0  0
   58.3022   24.9055   44.8322 H   0  0  0  0  0  0  0  0  0  0  0  0
   56.8952   26.7505   43.9153 H   0  0  0  0  0  0  0  0  0  0  0  0
   55.1420   28.6280   45.6290 H   0  0  0  0  0  0  0  0  0  0  0  0
   58.9052   29.5724   46.5104 H   0  0  0  0  0  0  0  0  0  0  0  0
   61.5530   33.2385   48.9016 H   0  0  0  0  0  0  0  0  0  0  0  0
   61.2541   34.6369   46.8421 H   0  0  0  0  0  0  0  0  0  0  0  0
  1  2  1  0
  2  3  1  0
  3  4  1  0
  4  5  1  0
  5  6  2  0
  6  7  1  0
  7  8  1  0
  8  9  1  0
  9 10  1  0
 10 11  2  0
 11 12  1  0
 12 13  1  0
 13 14  2  3
 14 15  1  0
 15 16  2  0
 16 17  1  0
 17 18  2  0
 18 19  1  0
 19 20  1  0
 20 21  1  0
 20 22  2  0
 20 23  2  0
 19 24  2  0
 13 25  1  0
  7 26  2  0
 26 27  1  0
 27 28  2  0
 28  2  1  0
 28  5  1  0
 25  9  2  0
 24 15  1  0
  1 29  1  0
  1 30  1  0
  1 31  1  0
  2 32  1  1
  3 33  1  0
  3 34  1  0
  4 35  1  0
  4 36  1  0
  6 37  1  0
 11 38  1  0
 16 39  1  0
 17 40  1  0
 18 41  1  0
 21 42  1  0
 24 43  1  0
 26 44  1  0
 27 45  1  0
M  CHG  2  12  -1  21  -1
M  END
>  <UniqueID>  (28) 
28

>  <SMILES>  (28) 
C[C@H]1CCc2cc(Oc3nc[n-]c(=Nc4cccc(S([NH-])(=O)=O)c4)n3)ccc21

>  <Energy>  (28) 
66.45375660705717

>  <Genealogy>  (28) 
CC1CCc2cc(Oc3nc[n-]c(=Nc4cccc(S([NH-])(=O)=O)c4)n3)ccc21 (protonated)
C[C@H]1CCc2cc(Oc3nc[n-]c(=Nc4cccc(S([NH-])(=O)=O)c4)n3)ccc21 (chirality)
C[C@H]1CCc2cc(Oc3nc[n-]c(=Nc4cccc(S([NH-])(=O)=O)c4)n3)ccc21 (3D coordinates assigned)
C[C@H]1CCc2cc(Oc3nc[n-]c(=Nc4cccc(S([NH-])(=O)=O)c4)n3)ccc21 (nonaromatic ring conformer: 66.45375660705717 kcal/mol)

>  <smiles>  (28) 
CC1CCc2cc(Oc3nc[nH]c(=Nc4cccc(S(N)(=O)=O)c4)n3)ccc21

>  <score_type>  (28) 
oracle

>  <origin>  (28) 
adg

>  <m_score__min__energy>  (28) 
-13.44

>  <m_primary>  (28) 
energy

$$$$
28:0
     RDKit          3D

 61 64  0  0  0  0  0  0  0  0999 V2000
   60.4300   27.5690   46.0800 C   0  0  0  0  0  0  0  0  0  0  0  0
   58.9700   27.4450   46.0320 N   0  0  0  0  0  0  0  0  0  0  0  0
   58.1130   28.5380   46.5160 C   0  0  0  0  0  0  0  0  0  0  0  0
   57.7290   29.4430   45.3730 C   0  0  0  0  0  0  0  0  0  0  0  0
   58.6320   30.4170   44.9140 C   0  0  0  0  0  0  0  0  0  0  0  0
   58.2620   31.2970   43.8930 C   0  0  0  0  0  0  0  0  0  0  0  0
   56.9890   31.2150   43.3250 C   0  0  0  0  0  0  0  0  0  0  0  0
   56.0810   30.2550   43.7800 C   0  0  0  0  0  0  0  0  0  0  0  0
   56.4430   29.3740   44.8040 C   0  0  0  0  0  0  0  0  0  0  0  0
   55.5190   28.4350   45.2530 O   0  0  0  0  0  0  0  0  0  0  0  0
   58.3820   26.2410   45.5000 C   0  0  0  0  0  0  0  0  0  0  0  0
   58.2740   25.0880   46.2960 C   0  0  0  0  0  0  0  0  0  0  0  0
   57.7300   23.9130   45.7720 C   0  0  0  0  0  0  0  0  0  0  0  0
   57.2830   23.8740   44.4440 C   0  0  0  0  0  0  0  0  0  0  0  0
   56.5900   22.4010   43.7710 S   0  0  0  0  0  0  0  0  0  0  0  0
   55.8360   22.7540   42.5190 O   0  0  0  0  0  0  0  0  0  0  0  0
   57.6820   21.4290   43.4160 O   0  0  0  0  0  0  0  0  0  0  0  0
   55.5080   21.6770   44.9370 N   0  0  0  0  0  0  0  0  0  0  0  0
   54.4710   22.6450   45.3750 C   0  0  0  0  0  0  0  0  0  0  0  0
   54.6460   23.1240   46.8230 C   0  0  0  0  0  0  0  0  0  0  0  0
   54.7480   21.9690   47.7230 N   0  0  0  0  0  0  0  0  0  0  0  0
   54.3010   22.0710   49.0890 C   0  0  0  0  0  0  0  0  0  0  0  0
   54.0140   23.2010   49.5710 O   0  0  0  0  0  0  0  0  0  0  0  0
   54.1450   20.8900   49.8960 N   0  0  0  0  0  0  0  0  0  0  0  0
   54.0840   20.9030   51.3330 C   0  0  0  0  0  0  0  0  0  0  0  0
   53.1230   20.1510   52.0350 C   0  0  0  0  0  0  0  0  0  0  0  0
   53.0690   20.2030   53.4320 C   0  0  0  0  0  0  0  0  0  0  0  0
   53.9620   21.0130   54.1380 C   0  0  0  0  0  0  0  0  0  0  0  0
   53.9080   21.0620   55.4920 F   0  0  0  0  0  0  0  0  0  0  0  0
   54.9070   21.7790   53.4490 C   0  0  0  0  0  0  0  0  0  0  0  0
   54.9620   21.7300   52.0510 C   0  0  0  0  0  0  0  0  0  0  0  0
   55.4280   20.7570   47.2510 C   0  0  0  0  0  0  0  0  0  0  0  0
   56.2970   21.0720   46.0310 C   0  0  0  0  0  0  0  0  0  0  0  0
   57.3760   25.0220   43.6500 C   0  0  0  0  0  0  0  0  0  0  0  0
   57.9240   26.1980   44.1720 C   0  0  0  0  0  0  0  0  0  0  0  0
   60.7613   27.5971   47.1285 H   0  0  0  0  0  0  0  0  0  0  0  0
   60.8881   26.7065   45.5737 H   0  0  0  0  0  0  0  0  0  0  0  0
   60.7361   28.4964   45.5737 H   0  0  0  0  0  0  0  0  0  0  0  0
   57.2029   28.1143   46.9657 H   0  0  0  0  0  0  0  0  0  0  0  0
   58.6656   29.1222   47.2666 H   0  0  0  0  0  0  0  0  0  0  0  0
   59.6349   30.4872   45.3604 H   0  0  0  0  0  0  0  0  0  0  0  0
   58.9747   32.0552   43.5364 H   0  0  0  0  0  0  0  0  0  0  0  0
   56.7008   31.9062   42.5193 H   0  0  0  0  0  0  0  0  0  0  0  0
   55.0786   30.1922   43.3314 H   0  0  0  0  0  0  0  0  0  0  0  0
   58.6205   25.1109   47.3397 H   0  0  0  0  0  0  0  0  0  0  0  0
   57.6521   23.0156   46.4034 H   0  0  0  0  0  0  0  0  0  0  0  0
   54.5121   23.5217   44.7119 H   0  0  0  0  0  0  0  0  0  0  0  0
   53.5033   22.1246   45.3234 H   0  0  0  0  0  0  0  0  0  0  0  0
   55.5624   23.7276   46.8991 H   0  0  0  0  0  0  0  0  0  0  0  0
   53.7753   23.7314   47.1110 H   0  0  0  0  0  0  0  0  0  0  0  0
   53.9750   19.9830   49.4070 H   0  0  0  0  0  0  0  0  0  0  0  0
   52.4114   19.5197   51.4826 H   0  0  0  0  0  0  0  0  0  0  0  0
   52.3224   19.6053   53.9754 H   0  0  0  0  0  0  0  0  0  0  0  0
   55.6070   22.4199   54.0051 H   0  0  0  0  0  0  0  0  0  0  0  0
   55.6983   22.3438   51.5115 H   0  0  0  0  0  0  0  0  0  0  0  0
   56.0642   20.3616   48.0565 H   0  0  0  0  0  0  0  0  0  0  0  0
   54.6708   20.0116   46.9662 H   0  0  0  0  0  0  0  0  0  0  0  0
   57.0889   21.7746   46.3297 H   0  0  0  0  0  0  0  0  0  0  0  0
   56.7247   20.1279   45.6627 H   0  0  0  0  0  0  0  0  0  0  0  0
   57.0165   24.9996   42.6106 H   0  0  0  0  0  0  0  0  0  0  0  0
   57.9970   27.0949   43.5393 H   0  0  0  0  0  0  0  0  0  0  0  0
  1  2  1  0
  2  3  1  0
  3  4  1  0
  4  5  2  0
  5  6  1  0
  6  7  2  0
  7  8  1  0
  8  9  2  0
  9 10  1  0
  2 11  1  0
 11 12  2  0
 12 13  1  0
 13 14  2  0
 14 15  1  0
 15 16  2  0
 15 17  2  0
 15 18  1  0
 18 19  1  0
 19 20  1  0
 20 21  1  0
 21 22  1  0
 22 23  2  0
 22 24  1  0
 24 25  1  0
 25 26  2  0
 26 27  1  0
 27 28  2  0
 28 29  1  0
 28 30  1  0
 30 31  2  0
 21 32  1  0
 32 33  1  0
 14 34  1  0
 34 35  2  0
  9  4  1  0
 35 11  1  0
 33 18  1  0
 31 25  1  0
  1 36  1  0
  1 37  1  0
  1 38  1  0
  3 39  1  0
  3 40  1  0
  5 41  1  0
  6 42  1  0
  7 43  1  0
  8 44  1  0
 12 45  1  0
 13 46  1  0
 19 47  1  0
 19 48  1  0
 20 49  1  0
 20 50  1  0
 24 51  1  0
 26 52  1  0
 27 53  1  0
 30 54  1  0
 31 55  1  0
 32 56  1  0
 32 57  1  0
 33 58  1  0
 33 59  1  0
 34 60  1  0
 35 61  1  0
M  CHG  1  10  -1
M  END
>  <UniqueID>  (29) 
29

>  <SMILES>  (29) 
CN(Cc1ccccc1[O-])c1ccc(S(=O)(=O)N2CCN(C(=O)Nc3ccc(F)cc3)CC2)cc1

>  <Energy>  (29) 
75.48477519154717

>  <Genealogy>  (29) 
CN(Cc1ccccc1[O-])c1ccc(S(=O)(=O)N2CCN(C(=O)Nc3ccc(F)cc3)CC2)cc1 (protonated)
CN(Cc1ccccc1[O-])c1ccc(S(=O)(=O)N2CCN(C(=O)Nc3ccc(F)cc3)CC2)cc1 (3D coordinates assigned)
CN(Cc1ccccc1[O-])c1ccc(S(=O)(=O)N2CCN(C(=O)Nc3ccc(F)cc3)CC2)cc1 (nonaromatic ring conformer: 75.48477519154717 kcal/mol)

>  <smiles>  (29) 
CN(Cc1ccccc1O)c1ccc(S(=O)(=O)N2CCN(C(=O)Nc3ccc(F)cc3)CC2)cc1

>  <score_type>  (29) 
oracle

>  <origin>  (29) 
adg

>  <m_score__min__energy>  (29) 
-13.58

>  <m_primary>  (29) 
energy

$$$$
29:0
     RDKit          3D

 58 60  0  0  0  0  0  0  0  0999 V2000
   54.1400   30.6370   51.6960 C   0  0  0  0  0  0  0  0  0  0  0  0
   55.1810   29.8030   52.4350 C   0  0  0  0  0  0  0  0  0  0  0  0
   56.4620   29.9390   51.8240 O   0  0  0  0  0  0  0  0  0  0  0  0
   57.1580   31.1530   51.7510 C   0  0  0  0  0  0  0  0  0  0  0  0
   56.9000   32.0810   52.5660 O   0  0  0  0  0  0  0  0  0  0  0  0
   58.1600   31.3460   50.7370 N   0  0  0  0  0  0  0  0  0  0  0  0
   58.5390   30.2470   49.8430 C   0  0  0  0  0  0  0  0  0  0  0  0
   60.0310   30.3490   49.5040 C   0  0  0  0  0  0  0  0  0  0  0  0
   60.4370   31.6750   48.9650 N   0  0  0  0  0  0  0  0  0  0  0  0
   60.8320   31.5680   47.2610 S   0  0  0  0  0  0  0  0  0  0  0  0
   62.3040   31.8210   47.0830 O   0  0  0  0  0  0  0  0  0  0  0  0
   60.5020   30.1890   46.7590 O   0  0  0  0  0  0  0  0  0  0  0  0
   59.8990   32.7410   46.3080 C   0  0  0  0  0  0  0  0  0  0  0  0
   60.3190   34.0820   46.2760 C   0  0  0  0  0  0  0  0  0  0  0  0
   59.5850   35.0450   45.5790 C   0  0  0  0  0  0  0  0  0  0  0  0
   58.4120   34.6870   44.9200 C   0  0  0  0  0  0  0  0  0  0  0  0
   57.9650   33.3670   44.9580 C   0  0  0  0  0  0  0  0  0  0  0  0
   58.6950   32.3800   45.6440 C   0  0  0  0  0  0  0  0  0  0  0  0
   58.1580   31.0000   45.6540 C   0  0  0  0  0  0  0  0  0  0  0  0
   57.8110   30.4660   46.7410 O   0  0  0  0  0  0  0  0  0  0  0  0
   58.0730   30.2530   44.4320 N   0  0  0  0  0  0  0  0  0  0  0  0
   57.6600   28.8500   44.4230 C   0  0  0  0  0  0  0  0  0  0  0  0
   56.2740   28.7050   44.9670 C   0  0  0  0  0  0  0  0  0  0  0  0
   55.4600   29.6630   44.8660 O   0  0  0  0  0  0  0  0  0  0  0  0
   55.8940   27.4960   45.6310 N   0  0  0  0  0  0  0  0  0  0  0  0
   56.7100   26.2860   45.6380 C   0  0  0  0  0  0  0  0  0  0  0  0
   58.0210   26.5480   46.3100 C   0  0  0  0  0  0  0  0  0  0  0  0
   59.2490   26.0090   45.9460 C   0  0  0  0  0  0  0  0  0  0  0  0
   60.3090   26.4720   46.7360 C   0  0  0  0  0  0  0  0  0  0  0  0
   59.9200   27.3780   47.7150 C   0  0  0  0  0  0  0  0  0  0  0  0
   58.2580   27.6070   47.5950 S   0  0  0  0  0  0  0  0  0  0  0  0
   59.4470   32.7540   49.1760 C   0  0  0  0  0  0  0  0  0  0  0  0
   58.7820   32.6620   50.5540 C   0  0  0  0  0  0  0  0  0  0  0  0
   53.4975   31.1518   52.4255 H   0  0  0  0  0  0  0  0  0  0  0  0
   54.6474   31.3814   51.0647 H   0  0  0  0  0  0  0  0  0  0  0  0
   53.5242   29.9795   51.0647 H   0  0  0  0  0  0  0  0  0  0  0  0
   55.2411   30.1432   53.4793 H   0  0  0  0  0  0  0  0  0  0  0  0
   54.8805   28.7456   52.3947 H   0  0  0  0  0  0  0  0  0  0  0  0
   58.3418   29.2860   50.3406 H   0  0  0  0  0  0  0  0  0  0  0  0
   57.9493   30.3106   48.9166 H   0  0  0  0  0  0  0  0  0  0  0  0
   60.6084   30.1559   50.4201 H   0  0  0  0  0  0  0  0  0  0  0  0
   60.2308   29.6087   48.7153 H   0  0  0  0  0  0  0  0  0  0  0  0
   61.2366   34.3768   46.8061 H   0  0  0  0  0  0  0  0  0  0  0  0
   59.9344   36.0877   45.5508 H   0  0  0  0  0  0  0  0  0  0  0  0
   57.8375   35.4462   44.3690 H   0  0  0  0  0  0  0  0  0  0  0  0
   57.0306   33.0944   44.4455 H   0  0  0  0  0  0  0  0  0  0  0  0
   58.2990   30.7340   43.5310 H   0  0  0  0  0  0  0  0  0  0  0  0
   57.6841   28.4728   43.3900 H   0  0  0  0  0  0  0  0  0  0  0  0
   58.3510   28.2731   45.0553 H   0  0  0  0  0  0  0  0  0  0  0  0
   56.1765   25.4916   46.1805 H   0  0  0  0  0  0  0  0  0  0  0  0
   56.8960   25.9737   44.5998 H   0  0  0  0  0  0  0  0  0  0  0  0
   59.3757   25.2919   45.1216 H   0  0  0  0  0  0  0  0  0  0  0  0
   61.3509   26.1489   46.5947 H   0  0  0  0  0  0  0  0  0  0  0  0
   60.5856   27.8629   48.4443 H   0  0  0  0  0  0  0  0  0  0  0  0
   59.9568   33.7251   49.0919 H   0  0  0  0  0  0  0  0  0  0  0  0
   58.6622   32.6490   48.4124 H   0  0  0  0  0  0  0  0  0  0  0  0
   59.5425   32.8146   51.3340 H   0  0  0  0  0  0  0  0  0  0  0  0
   58.0042   33.4365   50.6263 H   0  0  0  0  0  0  0  0  0  0  0  0
  1  2  1  0
  2  3  1  0
  3  4  1  0
  4  5  2  0
  4  6  1  0
  6  7  1  0
  7  8  1  0
  8  9  1  0
  9 10  1  0
 10 11  2  0
 10 12  2  0
 10 13  1  0
 13 14  2  0
 14 15  1  0
 15 16  2  0
 16 17  1  0
 17 18  2  0
 18 19  1  0
 19 20  2  0
 19 21  1  0
 21 22  1  0
 22 23  1  0
 23 24  2  0
 23 25  1  0
 25 26  1  0
 26 27  1  0
 27 28  2  0
 28 29  1  0
 29 30  2  0
 30 31  1  0
  9 32  1  0
 32 33  1  0
 33  6  1  0
 18 13  1  0
 31 27  1  0
  1 34  1  0
  1 35  1  0
  1 36  1  0
  2 37  1  0
  2 38  1  0
  7 39  1  0
  7 40  1  0
  8 41  1  0
  8 42  1  0
 14 43  1  0
 15 44  1  0
 16 45  1  0
 17 46  1  0
 21 47  1  0
 22 48  1  0
 22 49  1  0
 26 50  1  0
 26 51  1  0
 28 52  1  0
 29 53  1  0
 30 54  1  0
 32 55  1  0
 32 56  1  0
 33 57  1  0
 33 58  1  0
M  CHG  1  25  -1
M  END
>  <UniqueID>  (30) 
30

>  <SMILES>  (30) 
CCOC(=O)N1CCN(S(=O)(=O)c2ccccc2C(=O)NCC(=O)[N-]Cc2cccs2)CC1

>  <Energy>  (30) 
87.61739726904167

>  <Genealogy>  (30) 
CCOC(=O)N1CCN(S(=O)(=O)c2ccccc2C(=O)NCC(=O)[N-]Cc2cccs2)CC1 (protonated)
CCOC(=O)N1CCN(S(=O)(=O)c2ccccc2C(=O)NCC(=O)[N-]Cc2cccs2)CC1 (3D coordinates assigned)
CCOC(=O)N1CCN(S(=O)(=O)c2ccccc2C(=O)NCC(=O)[N-]Cc2cccs2)CC1 (nonaromatic ring conformer: 87.61739726904167 kcal/mol)

>  <smiles>  (30) 
CCOC(=O)N1CCN(S(=O)(=O)c2ccccc2C(=O)NCC(=O)NCc2cccs2)CC1

>  <score_type>  (30) 
oracle

>  <origin>  (30) 
adg

>  <m_score__min__energy>  (30) 
-11.119999999999999

>  <m_primary>  (30) 
energy

$$$$
30:0
     RDKit          3D

 26 27  0  0  0  0  0  0  0  0999 V2000
   56.9260   23.3970   48.3930 O   0  0  0  0  0  0  0  0  0  0  0  0
   56.8310   23.8580   47.2260 C   0  0  0  0  0  0  0  0  0  0  0  0
   57.9460   24.5640   46.6640 N   0  0  0  0  0  0  0  0  0  0  0  0
   58.1650   24.8010   45.2390 C   0  0  0  0  0  0  0  0  0  0  0  0
   57.8280   23.5750   44.4350 C   0  0  0  0  0  0  0  0  0  0  0  0
   56.8450   23.6280   43.4370 C   0  0  0  0  0  0  0  0  0  0  0  0
   56.5210   22.4790   42.7140 C   0  0  0  0  0  0  0  0  0  0  0  0
   57.1850   21.2840   42.9940 C   0  0  0  0  0  0  0  0  0  0  0  0
   58.1410   21.2440   43.9620 N   0  0  0  0  0  0  0  0  0  0  0  0
   58.4740   22.3520   44.6790 C   0  0  0  0  0  0  0  0  0  0  0  0
   55.5630   23.6930   46.4910 C   0  0  0  0  0  0  0  0  0  0  0  0
   55.0450   22.4130   46.2710 C   0  0  0  0  0  0  0  0  0  0  0  0
   53.8660   22.2590   45.6160 N   0  0  0  0  0  0  0  0  0  0  0  0
   53.1780   23.3340   45.1530 C   0  0  0  0  0  0  0  0  0  0  0  0
   52.0850   23.1720   44.5530 O   0  0  0  0  0  0  0  0  0  0  0  0
   53.6720   24.5880   45.3340 N   0  0  0  0  0  0  0  0  0  0  0  0
   54.8480   24.7900   45.9850 C   0  0  0  0  0  0  0  0  0  0  0  0
   55.2900   25.9630   46.1130 O   0  0  0  0  0  0  0  0  0  0  0  0
   57.5271   25.6345   44.9099 H   0  0  0  0  0  0  0  0  0  0  0  0
   59.2259   25.0451   45.0814 H   0  0  0  0  0  0  0  0  0  0  0  0
   56.3288   24.5756   43.2236 H   0  0  0  0  0  0  0  0  0  0  0  0
   55.7495   22.5151   41.9308 H   0  0  0  0  0  0  0  0  0  0  0  0
   56.9353   20.3725   42.4312 H   0  0  0  0  0  0  0  0  0  0  0  0
   58.6280   20.3420   44.1620 H   0  0  0  0  0  0  0  0  0  0  0  0
   59.2528   22.2893   45.4533 H   0  0  0  0  0  0  0  0  0  0  0  0
   55.5937   21.5295   46.6292 H   0  0  0  0  0  0  0  0  0  0  0  0
  1  2  2  0
  2  3  1  0
  3  4  1  0
  4  5  1  0
  5  6  2  0
  6  7  1  0
  7  8  2  0
  8  9  1  0
  9 10  2  0
  2 11  1  0
 11 12  2  0
 12 13  1  0
 13 14  1  0
 14 15  2  0
 14 16  1  0
 16 17  1  0
 17 18  2  0
 10  5  1  0
 17 11  1  0
  4 19  1  0
  4 20  1  0
  6 21  1  0
  7 22  1  0
  8 23  1  0
  9 24  1  0
 10 25  1  0
 12 26  1  0
M  CHG  4   3  -1   9   1  13  -1  16  -1
M  END
>  <UniqueID>  (31) 
31

>  <SMILES>  (31) 
O=C([N-]Cc1ccc[nH+]c1)c1c[n-]c(=O)[n-]c1=O

>  <Energy>  (31) 
31.933007908976123

>  <Genealogy>  (31) 
O=C([N-]Cc1ccc[nH+]c1)c1c[n-]c(=O)[n-]c1=O (protonated)
O=C([N-]Cc1ccc[nH+]c1)c1c[n-]c(=O)[n-]c1=O (3D coordinates assigned)
O=C([N-]Cc1ccc[nH+]c1)c1c[n-]c(=O)[n-]c1=O (optimized conformer: 31.933007908976123 kcal/mol)

>  <smiles>  (31) 
O=C(NCc1cccnc1)c1c[nH]c(=O)[nH]c1=O

>  <score_type>  (31) 
oracle

>  <origin>  (31) 
adg

>  <m_score__min__energy>  (31) 
-10.85

>  <m_primary>  (31) 
energy

$$$$
31:0
     RDKit          3D

 50 53  0  0  0  0  0  0  0  0999 V2000
   60.6210   27.1640   47.8980 N   0  0  0  0  0  0  0  0  0  0  0  0
   60.0590   26.3610   46.8620 C   0  0  0  0  0  0  0  0  0  0  0  0
   60.8220   25.6520   46.1520 O   0  0  0  0  0  0  0  0  0  0  0  0
   58.5970   26.3570   46.6200 C   0  0  0  0  0  0  0  0  0  0  0  0
   57.8190   25.2410   46.9650 C   0  0  0  0  0  0  0  0  0  0  0  0
   56.4410   25.2420   46.7380 C   0  0  0  0  0  0  0  0  0  0  0  0
   55.8220   26.3560   46.1680 C   0  0  0  0  0  0  0  0  0  0  0  0
   54.4490   26.3410   45.9540 O   0  0  0  0  0  0  0  0  0  0  0  0
   56.5770   27.4820   45.8180 C   0  0  0  0  0  0  0  0  0  0  0  0
   55.9090   28.6130   45.2390 N   0  0  0  0  0  0  0  0  0  0  0  0
   56.5760   29.6530   44.0210 S   0  0  0  0  0  0  0  0  0  0  0  0
   57.3650   28.8300   43.0410 O   0  0  0  0  0  0  0  0  0  0  0  0
   55.4580   30.3350   43.2850 O   0  0  0  0  0  0  0  0  0  0  0  0
   57.5880   30.8750   44.7870 C   0  0  0  0  0  0  0  0  0  0  0  0
   57.4790   32.2100   44.3800 C   0  0  0  0  0  0  0  0  0  0  0  0
   58.2350   33.1990   45.0140 C   0  0  0  0  0  0  0  0  0  0  0  0
   59.0970   32.8630   46.0620 C   0  0  0  0  0  0  0  0  0  0  0  0
   59.2240   31.5250   46.4760 C   0  0  0  0  0  0  0  0  0  0  0  0
   60.1120   31.1640   47.6080 C   0  0  0  0  0  0  0  0  0  0  0  0
   59.7870   30.2240   48.3820 O   0  0  0  0  0  0  0  0  0  0  0  0
   61.3300   31.8830   47.8530 N   0  0  0  0  0  0  0  0  0  0  0  0
   62.5550   31.4400   47.1630 C   0  0  0  0  0  0  0  0  0  0  0  0
   63.7340   32.4060   47.3620 C   0  0  0  0  0  0  0  0  0  0  0  0
   63.7900   32.9060   48.7780 C   0  0  0  0  0  0  0  0  0  0  0  0
   65.0140   33.0840   49.4410 C   0  0  0  0  0  0  0  0  0  0  0  0
   65.0380   33.6090   50.7370 C   0  0  0  0  0  0  0  0  0  0  0  0
   63.8450   33.9710   51.3690 C   0  0  0  0  0  0  0  0  0  0  0  0
   62.6240   33.8080   50.7080 C   0  0  0  0  0  0  0  0  0  0  0  0
   62.5920   33.2680   49.4130 C   0  0  0  0  0  0  0  0  0  0  0  0
   61.2990   33.1090   48.6660 C   0  0  0  0  0  0  0  0  0  0  0  0
   58.4630   30.5340   45.8300 C   0  0  0  0  0  0  0  0  0  0  0  0
   57.9660   27.4730   46.0410 C   0  0  0  0  0  0  0  0  0  0  0  0
   60.2810   28.1370   48.0670 H   0  0  0  0  0  0  0  0  0  0  0  0
   58.2977   24.3598   47.4171 H   0  0  0  0  0  0  0  0  0  0  0  0
   55.8407   24.3611   47.0095 H   0  0  0  0  0  0  0  0  0  0  0  0
   56.7974   32.4805   43.5601 H   0  0  0  0  0  0  0  0  0  0  0  0
   58.1517   34.2461   44.6873 H   0  0  0  0  0  0  0  0  0  0  0  0
   59.6789   33.6491   46.5654 H   0  0  0  0  0  0  0  0  0  0  0  0
   62.8405   30.4521   47.5535 H   0  0  0  0  0  0  0  0  0  0  0  0
   62.3339   31.4051   46.0860 H   0  0  0  0  0  0  0  0  0  0  0  0
   64.6721   31.8809   47.1290 H   0  0  0  0  0  0  0  0  0  0  0  0
   63.5969   33.2677   46.6921 H   0  0  0  0  0  0  0  0  0  0  0  0
   65.9549   32.8105   48.9411 H   0  0  0  0  0  0  0  0  0  0  0  0
   65.9973   33.7373   51.2598 H   0  0  0  0  0  0  0  0  0  0  0  0
   63.8669   34.3848   52.3880 H   0  0  0  0  0  0  0  0  0  0  0  0
   61.6873   34.1033   51.2034 H   0  0  0  0  0  0  0  0  0  0  0  0
   60.4690   33.0473   49.3852 H   0  0  0  0  0  0  0  0  0  0  0  0
   61.1579   33.9758   48.0036 H   0  0  0  0  0  0  0  0  0  0  0  0
   58.5544   29.4839   46.1446 H   0  0  0  0  0  0  0  0  0  0  0  0
   58.5666   28.3503   45.7589 H   0  0  0  0  0  0  0  0  0  0  0  0
  1  2  1  0
  2  3  2  0
  2  4  1  0
  4  5  2  0
  5  6  1  0
  6  7  2  0
  7  8  1  0
  7  9  1  0
  9 10  1  0
 10 11  1  0
 11 12  2  0
 11 13  2  0
 11 14  1  0
 14 15  2  0
 15 16  1  0
 16 17  2  0
 17 18  1  0
 18 19  1  0
 19 20  2  0
 19 21  1  0
 21 22  1  0
 22 23  1  0
 23 24  1  0
 24 25  2  0
 25 26  1  0
 26 27  2  0
 27 28  1  0
 28 29  2  0
 29 30  1  0
 18 31  2  0
  9 32  2  0
 32  4  1  0
 31 14  1  0
 30 21  1  0
 29 24  1  0
  1 33  1  0
  5 34  1  0
  6 35  1  0
 15 36  1  0
 16 37  1  0
 17 38  1  0
 22 39  1  0
 22 40  1  0
 23 41  1  0
 23 42  1  0
 25 43  1  0
 26 44  1  0
 27 45  1  0
 28 46  1  0
 30 47  1  0
 30 48  1  0
 31 49  1  0
 32 50  1  0
M  CHG  3   1  -1   8  -1  10  -1
M  END
>  <UniqueID>  (32) 
32

>  <SMILES>  (32) 
[NH-]C(=O)c1ccc([O-])c([N-]S(=O)(=O)c2cccc(C(=O)N3CCc4ccccc4C3)c2)c1

>  <Energy>  (32) 
65.35722975456228

>  <Genealogy>  (32) 
[NH-]C(=O)c1ccc([O-])c([N-]S(=O)(=O)c2cccc(C(=O)N3CCc4ccccc4C3)c2)c1 (protonated)
[NH-]C(=O)c1ccc([O-])c([N-]S(=O)(=O)c2cccc(C(=O)N3CCc4ccccc4C3)c2)c1 (3D coordinates assigned)
[NH-]C(=O)c1ccc([O-])c([N-]S(=O)(=O)c2cccc(C(=O)N3CCc4ccccc4C3)c2)c1 (nonaromatic ring conformer: 65.35722975456228 kcal/mol)

>  <smiles>  (32) 
NC(=O)c1ccc(O)c(NS(=O)(=O)c2cccc(C(=O)N3CCc4ccccc4C3)c2)c1

>  <score_type>  (32) 
oracle

>  <origin>  (32) 
adg

>  <m_score__min__energy>  (32) 
-17.23

>  <m_primary>  (32) 
energy

$$$$
32:0
     RDKit          3D

 53 56  0  0  0  0  0  0  0  0999 V2000
   50.8310   23.9630   45.6360 O   0  0  0  0  0  0  0  0  0  0  0  0
   51.4510   23.2110   44.8380 C   0  0  0  0  0  0  0  0  0  0  0  0
   50.9550   22.9770   43.5080 N   0  0  0  0  0  0  0  0  0  0  0  0
   50.7960   23.8580   42.5640 C   0  0  0  0  0  0  0  0  0  0  0  0
   50.4430   25.1280   42.9000 N   0  0  0  0  0  0  0  0  0  0  0  0
   50.2740   26.0850   41.9490 C   0  0  0  0  0  0  0  0  0  0  0  0
   50.4670   25.7710   40.6060 C   0  0  0  0  0  0  0  0  0  0  0  0
   50.8300   24.4670   40.2750 C   0  0  0  0  0  0  0  0  0  0  0  0
   50.9870   23.5380   41.2540 N   0  0  0  0  0  0  0  0  0  0  0  0
   52.6990   22.6470   45.2540 N   0  0  0  0  0  0  0  0  0  0  0  0
   53.9860   23.2760   45.1680 C   0  0  0  0  0  0  0  0  0  0  0  0
   54.5930   23.7300   46.3450 C   0  0  0  0  0  0  0  0  0  0  0  0
   55.8580   24.3240   46.3070 C   0  0  0  0  0  0  0  0  0  0  0  0
   56.5470   24.4440   45.0880 C   0  0  0  0  0  0  0  0  0  0  0  0
   57.8100   25.0470   45.0060 O   0  0  0  0  0  0  0  0  0  0  0  0
   58.0700   26.4170   45.1630 C   0  0  0  0  0  0  0  0  0  0  0  0
   58.1950   27.0120   46.4310 C   0  0  0  0  0  0  0  0  0  0  0  0
   58.4870   28.3740   46.5440 C   0  0  0  0  0  0  0  0  0  0  0  0
   58.6870   29.1580   45.3980 C   0  0  0  0  0  0  0  0  0  0  0  0
   58.9770   30.5590   45.5440 N   0  0  0  0  0  0  0  0  0  0  0  0
   58.0150   31.6060   45.3570 C   0  0  0  0  0  0  0  0  0  0  0  0
   56.8780   31.3500   44.8740 O   0  0  0  0  0  0  0  0  0  0  0  0
   58.3960   32.9580   45.6370 N   0  0  0  0  0  0  0  0  0  0  0  0
   59.3280   33.3910   46.6380 C   0  0  0  0  0  0  0  0  0  0  0  0
   58.9050   33.9590   47.8530 C   0  0  0  0  0  0  0  0  0  0  0  0
   59.8450   34.3680   48.8010 C   0  0  0  0  0  0  0  0  0  0  0  0
   61.2100   34.1980   48.5580 C   0  0  0  0  0  0  0  0  0  0  0  0
   61.6490   33.5850   47.3710 C   0  0  0  0  0  0  0  0  0  0  0  0
   63.1210   33.4350   47.0850 C   0  0  0  0  0  0  0  0  0  0  0  0
   63.8720   33.8540   48.1710 F   0  0  0  0  0  0  0  0  0  0  0  0
   63.4020   32.1060   46.8290 F   0  0  0  0  0  0  0  0  0  0  0  0
   63.4900   34.1930   45.9870 F   0  0  0  0  0  0  0  0  0  0  0  0
   60.6960   33.1970   46.4120 C   0  0  0  0  0  0  0  0  0  0  0  0
   58.5520   28.5630   44.1310 C   0  0  0  0  0  0  0  0  0  0  0  0
   58.2590   27.2000   44.0190 C   0  0  0  0  0  0  0  0  0  0  0  0
   55.9410   23.9890   43.9120 C   0  0  0  0  0  0  0  0  0  0  0  0
   54.6770   23.3940   43.9490 C   0  0  0  0  0  0  0  0  0  0  0  0
   49.9852   27.1058   42.2400 H   0  0  0  0  0  0  0  0  0  0  0  0
   50.3360   26.5344   39.8249 H   0  0  0  0  0  0  0  0  0  0  0  0
   50.9893   24.1901   39.2224 H   0  0  0  0  0  0  0  0  0  0  0  0
   54.0708   23.6185   47.3067 H   0  0  0  0  0  0  0  0  0  0  0  0
   56.3156   24.6987   47.2344 H   0  0  0  0  0  0  0  0  0  0  0  0
   58.0624   26.4030   47.3374 H   0  0  0  0  0  0  0  0  0  0  0  0
   58.5606   28.8352   47.5399 H   0  0  0  0  0  0  0  0  0  0  0  0
   59.9710   30.8430   45.6940 H   0  0  0  0  0  0  0  0  0  0  0  0
   57.8310   34.0814   48.0570 H   0  0  0  0  0  0  0  0  0  0  0  0
   59.5092   34.8260   49.7431 H   0  0  0  0  0  0  0  0  0  0  0  0
   61.9452   34.5454   49.2988 H   0  0  0  0  0  0  0  0  0  0  0  0
   61.0302   32.7347   45.4714 H   0  0  0  0  0  0  0  0  0  0  0  0
   58.6774   29.1724   43.2238 H   0  0  0  0  0  0  0  0  0  0  0  0
   58.1765   26.7398   43.0233 H   0  0  0  0  0  0  0  0  0  0  0  0
   56.4636   24.1005   42.9505 H   0  0  0  0  0  0  0  0  0  0  0  0
   54.2212   23.0168   43.0217 H   0  0  0  0  0  0  0  0  0  0  0  0
  1  2  2  0
  2  3  1  0
  3  4  2  3
  4  5  1  0
  5  6  2  0
  6  7  1  0
  7  8  2  0
  8  9  1  0
  2 10  1  0
 10 11  1  0
 11 12  2  0
 12 13  1  0
 13 14  2  0
 14 15  1  0
 15 16  1  0
 16 17  2  0
 17 18  1  0
 18 19  2  0
 19 20  1  0
 20 21  1  0
 21 22  2  0
 21 23  1  0
 23 24  1  0
 24 25  2  0
 25 26  1  0
 26 27  2  0
 27 28  1  0
 28 29  1  0
 29 30  1  0
 29 31  1  0
 29 32  1  0
 28 33  2  0
 19 34  1  0
 34 35  2  0
 14 36  1  0
 36 37  2  0
  9  4  1  0
 37 11  1  0
 35 16  1  0
 33 24  1  0
  6 38  1  0
  7 39  1  0
  8 40  1  0
 12 41  1  0
 13 42  1  0
 17 43  1  0
 18 44  1  0
 20 45  1  0
 25 46  1  0
 26 47  1  0
 27 48  1  0
 33 49  1  0
 34 50  1  0
 35 51  1  0
 36 52  1  0
 37 53  1  0
M  CHG  3   9  -1  10  -1  23  -1
M  END
>  <UniqueID>  (33) 
33

>  <SMILES>  (33) 
O=C(N=c1nccc[n-]1)[N-]c1ccc(Oc2ccc(NC(=O)[N-]c3cccc(C(F)(F)F)c3)cc2)cc1

>  <Energy>  (33) 
78.72141331609063

>  <Genealogy>  (33) 
O=C(N=c1nccc[n-]1)[N-]c1ccc(Oc2ccc(NC(=O)[N-]c3cccc(C(F)(F)F)c3)cc2)cc1 (protonated)
O=C(N=c1nccc[n-]1)[N-]c1ccc(Oc2ccc(NC(=O)[N-]c3cccc(C(F)(F)F)c3)cc2)cc1 (3D coordinates assigned)
O=C(N=c1nccc[n-]1)[N-]c1ccc(Oc2ccc(NC(=O)[N-]c3cccc(C(F)(F)F)c3)cc2)cc1 (optimized conformer: 78.72141331609063 kcal/mol)

>  <smiles>  (33) 
O=C(N=c1nccc[nH]1)Nc1ccc(Oc2ccc(NC(=O)Nc3cccc(C(F)(F)F)c3)cc2)cc1

>  <score_type>  (33) 
oracle

>  <origin>  (33) 
adg

>  <m_score__min__energy>  (33) 
-12.789999999999999

>  <m_primary>  (33) 
energy

$$$$
33:0
     RDKit          3D

 57 60  0  0  0  0  0  0  0  0999 V2000
   56.2870   29.3680   42.3000 C   0  0  0  0  0  0  0  0  0  0  0  0
   56.8920   30.4740   43.1130 C   0  0  0  0  0  0  0  0  0  0  0  0
   57.4180   31.6130   42.4780 C   0  0  0  0  0  0  0  0  0  0  0  0
   57.9420   32.6620   43.2390 C   0  0  0  0  0  0  0  0  0  0  0  0
   57.9280   32.5950   44.6420 C   0  0  0  0  0  0  0  0  0  0  0  0
   58.5690   33.9390   45.5870 S   0  0  0  0  0  0  0  0  0  0  0  0
   57.4310   34.5700   46.3380 O   0  0  0  0  0  0  0  0  0  0  0  0
   59.1600   34.9660   44.6630 O   0  0  0  0  0  0  0  0  0  0  0  0
   59.7850   33.3760   46.7190 N   0  0  0  0  0  0  0  0  0  0  0  0
   60.3090   32.0380   46.3660 C   0  0  0  0  0  0  0  0  0  0  0  0
   59.9650   30.9610   47.3770 C   0  0  0  0  0  0  0  0  0  0  0  0
   59.9130   31.2690   48.5990 O   0  0  0  0  0  0  0  0  0  0  0  0
   59.6640   29.6070   46.9730 N   0  0  0  0  0  0  0  0  0  0  0  0
   58.9150   28.7560   47.9150 C   0  0  0  0  0  0  0  0  0  0  0  0
   59.0140   27.2710   47.5570 C   0  0  0  0  0  0  0  0  0  0  0  0
   58.6810   27.0620   46.1110 C   0  0  0  0  0  0  0  0  0  0  0  0
   57.9520   25.9360   45.6900 C   0  0  0  0  0  0  0  0  0  0  0  0
   57.6760   25.7450   44.3330 C   0  0  0  0  0  0  0  0  0  0  0  0
   58.1340   26.6680   43.3910 C   0  0  0  0  0  0  0  0  0  0  0  0
   58.8810   27.7760   43.8020 C   0  0  0  0  0  0  0  0  0  0  0  0
   59.1500   27.9840   45.1640 C   0  0  0  0  0  0  0  0  0  0  0  0
   59.9970   29.1520   45.6080 C   0  0  0  0  0  0  0  0  0  0  0  0
   60.8470   34.3820   46.9270 C   0  0  0  0  0  0  0  0  0  0  0  0
   61.8950   33.8400   47.8600 C   0  0  0  0  0  0  0  0  0  0  0  0
   61.6680   33.7920   49.2480 C   0  0  0  0  0  0  0  0  0  0  0  0
   62.6500   33.2820   50.1040 C   0  0  0  0  0  0  0  0  0  0  0  0
   63.8610   32.8150   49.5820 C   0  0  0  0  0  0  0  0  0  0  0  0
   64.0910   32.8540   48.2030 C   0  0  0  0  0  0  0  0  0  0  0  0
   63.1120   33.3610   47.3430 C   0  0  0  0  0  0  0  0  0  0  0  0
   57.3960   31.4620   45.2790 C   0  0  0  0  0  0  0  0  0  0  0  0
   56.8720   30.4110   44.5190 C   0  0  0  0  0  0  0  0  0  0  0  0
   55.8694   28.6045   42.9728 H   0  0  0  0  0  0  0  0  0  0  0  0
   55.4860   29.7752   41.6655 H   0  0  0  0  0  0  0  0  0  0  0  0
   57.0619   28.9132   41.6655 H   0  0  0  0  0  0  0  0  0  0  0  0
   57.4171   31.6787   41.3800 H   0  0  0  0  0  0  0  0  0  0  0  0
   58.3671   33.5436   42.7370 H   0  0  0  0  0  0  0  0  0  0  0  0
   59.8889   31.7466   45.3920 H   0  0  0  0  0  0  0  0  0  0  0  0
   61.4058   32.1185   46.3435 H   0  0  0  0  0  0  0  0  0  0  0  0
   59.3213   28.9044   48.9264 H   0  0  0  0  0  0  0  0  0  0  0  0
   57.8552   29.0460   47.8627 H   0  0  0  0  0  0  0  0  0  0  0  0
   60.0385   26.9190   47.7481 H   0  0  0  0  0  0  0  0  0  0  0  0
   58.3004   26.7055   48.1742 H   0  0  0  0  0  0  0  0  0  0  0  0
   57.5979   25.2035   46.4303 H   0  0  0  0  0  0  0  0  0  0  0  0
   57.0980   24.8675   44.0074 H   0  0  0  0  0  0  0  0  0  0  0  0
   57.9069   26.5233   42.3245 H   0  0  0  0  0  0  0  0  0  0  0  0
   59.2599   28.4884   43.0544 H   0  0  0  0  0  0  0  0  0  0  0  0
   61.0543   28.8495   45.5853 H   0  0  0  0  0  0  0  0  0  0  0  0
   59.8000   29.9876   44.9203 H   0  0  0  0  0  0  0  0  0  0  0  0
   61.3115   34.6263   45.9602 H   0  0  0  0  0  0  0  0  0  0  0  0
   60.4047   35.2873   47.3684 H   0  0  0  0  0  0  0  0  0  0  0  0
   60.7159   34.1565   49.6610 H   0  0  0  0  0  0  0  0  0  0  0  0
   62.4697   33.2482   51.1886 H   0  0  0  0  0  0  0  0  0  0  0  0
   64.6330   32.4167   50.2568 H   0  0  0  0  0  0  0  0  0  0  0  0
   65.0434   32.4853   47.7944 H   0  0  0  0  0  0  0  0  0  0  0  0
   63.2943   33.3853   46.2585 H   0  0  0  0  0  0  0  0  0  0  0  0
   57.3914   31.4010   46.3773 H   0  0  0  0  0  0  0  0  0  0  0  0
   56.4427   29.5320   45.0220 H   0  0  0  0  0  0  0  0  0  0  0  0
  1  2  1  0
  2  3  2  0
  3  4  1  0
  4  5  2  0
  5  6  1  0
  6  7  2  0
  6  8  2  0
  6  9  1  0
  9 10  1  0
 10 11  1  0
 11 12  2  0
 11 13  1  0
 13 14  1  0
 14 15  1  0
 15 16  1  0
 16 17  2  0
 17 18  1  0
 18 19  2  0
 19 20  1  0
 20 21  2  0
 21 22  1  0
  9 23  1  0
 23 24  1  0
 24 25  2  0
 25 26  1  0
 26 27  2  0
 27 28  1  0
 28 29  2  0
  5 30  1  0
 30 31  2  0
 31  2  1  0
 22 13  1  0
 29 24  1  0
 21 16  1  0
  1 32  1  0
  1 33  1  0
  1 34  1  0
  3 35  1  0
  4 36  1  0
 10 37  1  0
 10 38  1  0
 14 39  1  0
 14 40  1  0
 15 41  1  0
 15 42  1  0
 17 43  1  0
 18 44  1  0
 19 45  1  0
 20 46  1  0
 22 47  1  0
 22 48  1  0
 23 49  1  0
 23 50  1  0
 25 51  1  0
 26 52  1  0
 27 53  1  0
 28 54  1  0
 29 55  1  0
 30 56  1  0
 31 57  1  0
M  END
>  <UniqueID>  (34) 
34

>  <SMILES>  (34) 
Cc1ccc(S(=O)(=O)N(CC(=O)N2CCc3ccccc3C2)Cc2ccccc2)cc1

>  <Energy>  (34) 
62.36697426698667

>  <Genealogy>  (34) 
Cc1ccc(S(=O)(=O)N(CC(=O)N2CCc3ccccc3C2)Cc2ccccc2)cc1 (3D coordinates assigned)
Cc1ccc(S(=O)(=O)N(CC(=O)N2CCc3ccccc3C2)Cc2ccccc2)cc1 (nonaromatic ring conformer: 62.36697426698667 kcal/mol)

>  <smiles>  (34) 
Cc1ccc(S(=O)(=O)N(CC(=O)N2CCc3ccccc3C2)Cc2ccccc2)cc1

>  <score_type>  (34) 
oracle

>  <origin>  (34) 
adg

>  <m_score__min__energy>  (34) 
-9.7799999999999994

>  <m_primary>  (34) 
energy

$$$$
34:0
     RDKit          3D

 47 49  0  0  0  0  0  0  0  0999 V2000
   57.3870   33.9450   45.7430 C   0  0  0  0  0  0  0  0  0  0  0  0
   57.0210   32.6990   45.4280 C   0  0  0  0  0  0  0  0  0  0  0  0
   57.7960   31.8620   44.4500 C   0  0  0  0  0  0  0  0  0  0  0  0
   57.8310   30.4660   44.9080 N   0  0  0  0  0  0  0  0  0  0  0  0
   58.2740   30.0350   46.1140 C   0  0  0  0  0  0  0  0  0  0  0  0
   58.7410   30.9130   47.2410 C   0  0  0  0  0  0  0  0  0  0  0  0
   60.1720   30.5980   47.5920 C   0  0  0  0  0  0  0  0  0  0  0  0
   60.4180   29.5950   48.2500 O   0  0  0  0  0  0  0  0  0  0  0  0
   61.2470   31.4600   47.1400 N   0  0  0  0  0  0  0  0  0  0  0  0
   62.3590   31.4280   48.1170 C   0  0  0  0  0  0  0  0  0  0  0  0
   63.5550   32.2550   47.6230 C   0  0  0  0  0  0  0  0  0  0  0  0
   63.0970   33.6200   47.1950 C   0  0  0  0  0  0  0  0  0  0  0  0
   63.7850   34.6010   47.4300 O   0  0  0  0  0  0  0  0  0  0  0  0
   61.8430   33.7520   46.3800 C   0  0  0  0  0  0  0  0  0  0  0  0
   60.7480   32.8390   46.9470 C   0  0  0  0  0  0  0  0  0  0  0  0
   58.1610   28.6630   46.2050 C   0  0  0  0  0  0  0  0  0  0  0  0
   57.6860   28.2140   44.9870 C   0  0  0  0  0  0  0  0  0  0  0  0
   57.5380   26.9050   44.7030 C   0  0  0  0  0  0  0  0  0  0  0  0
   57.0650   25.8730   45.6380 C   0  0  0  0  0  0  0  0  0  0  0  0
   57.8380   24.9080   46.1710 N   0  0  0  0  0  0  0  0  0  0  0  0
   57.0120   24.2980   47.0490 C   0  0  0  0  0  0  0  0  0  0  0  0
   57.3710   23.3130   47.7460 O   0  0  0  0  0  0  0  0  0  0  0  0
   55.7740   24.8320   47.1300 N   0  0  0  0  0  0  0  0  0  0  0  0
   55.8300   25.8360   46.2400 C   0  0  0  0  0  0  0  0  0  0  0  0
   54.7730   26.7030   45.9840 O   0  0  0  0  0  0  0  0  0  0  0  0
   57.4520   29.3600   44.2100 C   0  0  0  0  0  0  0  0  0  0  0  0
   56.8310   29.4130   43.0200 C   0  0  0  0  0  0  0  0  0  0  0  0
   56.7938   34.5269   46.4638 H   0  0  0  0  0  0  0  0  0  0  0  0
   58.2815   34.3888   45.2815 H   0  0  0  0  0  0  0  0  0  0  0  0
   56.1236   32.2724   45.8998 H   0  0  0  0  0  0  0  0  0  0  0  0
   57.3118   31.9107   43.4635 H   0  0  0  0  0  0  0  0  0  0  0  0
   58.8241   32.2464   44.3775 H   0  0  0  0  0  0  0  0  0  0  0  0
   58.6662   31.9668   46.9347 H   0  0  0  0  0  0  0  0  0  0  0  0
   58.1083   30.7304   48.1221 H   0  0  0  0  0  0  0  0  0  0  0  0
   61.6000   31.1060   46.2190 H   0  0  0  0  0  0  0  0  0  0  0  0
   62.0079   31.8410   49.0742 H   0  0  0  0  0  0  0  0  0  0  0  0
   62.6841   30.3845   48.2413 H   0  0  0  0  0  0  0  0  0  0  0  0
   64.2885   32.3558   48.4365 H   0  0  0  0  0  0  0  0  0  0  0  0
   64.0160   31.7443   46.7647 H   0  0  0  0  0  0  0  0  0  0  0  0
   61.4978   34.7960   46.4097 H   0  0  0  0  0  0  0  0  0  0  0  0
   62.0555   33.4578   45.3416 H   0  0  0  0  0  0  0  0  0  0  0  0
   60.4141   33.2385   47.9160 H   0  0  0  0  0  0  0  0  0  0  0  0
   59.9137   32.8100   46.2307 H   0  0  0  0  0  0  0  0  0  0  0  0
   58.4031   28.0435   47.0812 H   0  0  0  0  0  0  0  0  0  0  0  0
   57.7931   26.5802   43.6835 H   0  0  0  0  0  0  0  0  0  0  0  0
   56.7082   30.3778   42.5062 H   0  0  0  0  0  0  0  0  0  0  0  0
   56.4453   28.4916   42.5594 H   0  0  0  0  0  0  0  0  0  0  0  0
  1  2  2  0
  2  3  1  0
  3  4  1  0
  4  5  1  0
  5  6  1  0
  6  7  1  0
  7  8  2  0
  7  9  1  0
  9 10  1  0
 10 11  1  0
 11 12  1  0
 12 13  2  0
 12 14  1  0
 14 15  1  0
  5 16  2  0
 16 17  1  0
 17 18  2  3
 18 19  1  0
 19 20  1  0
 20 21  1  0
 21 22  2  0
 21 23  1  0
 23 24  1  0
 24 25  1  0
 17 26  1  0
 26 27  2  0
 26  4  1  0
 15  9  1  0
 24 19  2  0
  1 28  1  0
  1 29  1  0
  2 30  1  0
  3 31  1  0
  3 32  1  0
  6 33  1  0
  6 34  1  0
  9 35  1  0
 10 36  1  0
 10 37  1  0
 11 38  1  0
 11 39  1  0
 14 40  1  0
 14 41  1  0
 15 42  1  0
 15 43  1  0
 16 44  1  0
 18 45  1  0
 27 46  1  0
 27 47  1  0
M  CHG  4   9   1  20  -1  23  -1  25  -1
M  END
>  <UniqueID>  (35) 
35

>  <SMILES>  (35) 
C=CCn1c(CC(=O)[NH+]2CCC(=O)CC2)cc(=Cc2[n-]c(=O)[n-]c2[O-])c1=C

>  <Energy>  (35) 
111.79317428277388

>  <Genealogy>  (35) 
C=CCn1c(CC(=O)[NH+]2CCC(=O)CC2)cc(=Cc2[n-]c(=O)[n-]c2[O-])c1=C (protonated)
C=CCn1c(CC(=O)[NH+]2CCC(=O)CC2)cc(=Cc2[n-]c(=O)[n-]c2[O-])c1=C (3D coordinates assigned)
C=CCn1c(CC(=O)[NH+]2CCC(=O)CC2)cc(=Cc2[n-]c(=O)[n-]c2[O-])c1=C (nonaromatic ring conformer: 111.79317428277388 kcal/mol)

>  <smiles>  (35) 
C=CCn1c(CC(=O)N2CCC(=O)CC2)cc(=Cc2[nH]c(=O)[nH]c2O)c1=C

>  <score_type>  (35) 
oracle

>  <origin>  (35) 
adg

>  <m_score__min__energy>  (35) 
-15.49

>  <m_primary>  (35) 
energy

$$$$
35:0
     RDKit          3D

 52 54  0  0  0  0  0  0  0  0999 V2000
   57.7870   32.6910   48.0750 C   0  0  0  0  0  0  0  0  0  0  0  0
   58.3640   33.6210   47.0310 C   0  0  0  0  0  0  0  0  0  0  0  0
   59.4410   34.4810   47.3620 C   0  0  0  0  0  0  0  0  0  0  0  0
   60.1560   34.5190   48.9740 Cl  0  0  0  0  0  0  0  0  0  0  0  0
   59.9880   35.3310   46.3940 C   0  0  0  0  0  0  0  0  0  0  0  0
   59.4880   35.3330   45.0940 C   0  0  0  0  0  0  0  0  0  0  0  0
   58.4480   34.4720   44.7420 C   0  0  0  0  0  0  0  0  0  0  0  0
   57.8900   33.5950   45.6890 C   0  0  0  0  0  0  0  0  0  0  0  0
   56.7560   32.6940   45.2560 C   0  0  0  0  0  0  0  0  0  0  0  0
   57.2950   31.5290   44.5670 N   0  0  0  0  0  0  0  0  0  0  0  0
   57.0820   30.1840   45.0110 C   0  0  0  0  0  0  0  0  0  0  0  0
   55.9440   29.6620   44.8700 O   0  0  0  0  0  0  0  0  0  0  0  0
   58.2410   29.3590   45.5590 C   0  0  0  0  0  0  0  0  0  0  0  0
   58.1300   27.9280   44.9760 C   0  0  0  0  0  0  0  0  0  0  0  0
   56.8840   27.3600   45.2930 O   0  0  0  0  0  0  0  0  0  0  0  0
   58.1370   29.2940   47.1240 C   0  0  0  0  0  0  0  0  0  0  0  0
   59.5180   29.2600   47.7900 C   0  0  0  0  0  0  0  0  0  0  0  0
   60.2740   30.5020   47.5000 N   0  0  0  0  0  0  0  0  0  0  0  0
   61.6910   30.4410   47.9250 C   0  0  0  0  0  0  0  0  0  0  0  0
   62.3520   31.8000   48.0530 C   0  0  0  0  0  0  0  0  0  0  0  0
   62.5450   32.6130   46.9240 C   0  0  0  0  0  0  0  0  0  0  0  0
   63.1650   33.8570   47.0660 C   0  0  0  0  0  0  0  0  0  0  0  0
   63.5620   34.2850   48.2930 N   0  0  0  0  0  0  0  0  0  0  0  0
   63.3700   33.5300   49.4070 C   0  0  0  0  0  0  0  0  0  0  0  0
   62.7540   32.2800   49.3090 C   0  0  0  0  0  0  0  0  0  0  0  0
   60.0630   31.0610   46.1390 C   0  0  0  0  0  0  0  0  0  0  0  0
   59.6160   29.9830   45.1400 C   0  0  0  0  0  0  0  0  0  0  0  0
   58.0245   33.0738   49.0785 H   0  0  0  0  0  0  0  0  0  0  0  0
   56.6952   32.6349   47.9529 H   0  0  0  0  0  0  0  0  0  0  0  0
   58.2216   31.6879   47.9529 H   0  0  0  0  0  0  0  0  0  0  0  0
   60.8179   36.0016   46.6615 H   0  0  0  0  0  0  0  0  0  0  0  0
   59.9139   36.0148   44.3432 H   0  0  0  0  0  0  0  0  0  0  0  0
   58.0604   34.4793   43.7126 H   0  0  0  0  0  0  0  0  0  0  0  0
   56.1897   32.3670   46.1405 H   0  0  0  0  0  0  0  0  0  0  0  0
   56.0897   33.2453   44.5762 H   0  0  0  0  0  0  0  0  0  0  0  0
   58.2387   27.9738   43.8823 H   0  0  0  0  0  0  0  0  0  0  0  0
   58.9250   27.3049   45.4117 H   0  0  0  0  0  0  0  0  0  0  0  0
   56.2880   27.5590   44.5220 H   0  0  0  0  0  0  0  0  0  0  0  0
   57.5922   30.1804   47.4809 H   0  0  0  0  0  0  0  0  0  0  0  0
   57.6076   28.3676   47.3914 H   0  0  0  0  0  0  0  0  0  0  0  0
   59.3911   29.1610   48.8782 H   0  0  0  0  0  0  0  0  0  0  0  0
   60.0808   28.4036   47.3903 H   0  0  0  0  0  0  0  0  0  0  0  0
   61.7383   29.9391   48.9027 H   0  0  0  0  0  0  0  0  0  0  0  0
   62.2362   29.8926   47.1427 H   0  0  0  0  0  0  0  0  0  0  0  0
   62.2098   32.2721   45.9333 H   0  0  0  0  0  0  0  0  0  0  0  0
   63.3321   34.4911   46.1828 H   0  0  0  0  0  0  0  0  0  0  0  0
   63.7003   33.9040   50.3873 H   0  0  0  0  0  0  0  0  0  0  0  0
   62.5849   31.6749   50.2119 H   0  0  0  0  0  0  0  0  0  0  0  0
   59.2888   31.8407   46.1909 H   0  0  0  0  0  0  0  0  0  0  0  0
   61.0199   31.4750   45.7884 H   0  0  0  0  0  0  0  0  0  0  0  0
   59.5154   30.4370   44.1431 H   0  0  0  0  0  0  0  0  0  0  0  0
   60.3721   29.1842   45.1273 H   0  0  0  0  0  0  0  0  0  0  0  0
  1  2  1  0
  2  3  2  0
  3  4  1  0
  3  5  1  0
  5  6  2  0
  6  7  1  0
  7  8  2  0
  8  9  1  0
  9 10  1  0
 10 11  1  0
 11 12  2  0
 11 13  1  0
 13 14  1  0
 14 15  1  0
 13 16  1  0
 16 17  1  0
 17 18  1  0
 18 19  1  0
 19 20  1  0
 20 21  2  0
 21 22  1  0
 22 23  2  0
 23 24  1  0
 24 25  2  0
 18 26  1  0
 26 27  1  0
  8  2  1  0
 27 13  1  0
 25 20  1  0
  1 28  1  0
  1 29  1  0
  1 30  1  0
  5 31  1  0
  6 32  1  0
  7 33  1  0
  9 34  1  0
  9 35  1  0
 14 36  1  0
 14 37  1  0
 15 38  1  0
 16 39  1  0
 16 40  1  0
 17 41  1  0
 17 42  1  0
 19 43  1  0
 19 44  1  0
 21 45  1  0
 22 46  1  0
 24 47  1  0
 25 48  1  0
 26 49  1  0
 26 50  1  0
 27 51  1  0
 27 52  1  0
M  CHG  1  10  -1
M  END
>  <UniqueID>  (36) 
36

>  <SMILES>  (36) 
Cc1c(Cl)cccc1C[N-]C(=O)C1(CO)CCN(Cc2ccncc2)CC1

>  <Energy>  (36) 
67.82912064804582

>  <Genealogy>  (36) 
Cc1c(Cl)cccc1C[N-]C(=O)C1(CO)CCN(Cc2ccncc2)CC1 (protonated)
Cc1c(Cl)cccc1C[N-]C(=O)C1(CO)CCN(Cc2ccncc2)CC1 (3D coordinates assigned)
Cc1c(Cl)cccc1C[N-]C(=O)C1(CO)CCN(Cc2ccncc2)CC1 (nonaromatic ring conformer: 67.82912064804582 kcal/mol)

>  <smiles>  (36) 
Cc1c(Cl)cccc1CNC(=O)C1(CO)CCN(Cc2ccncc2)CC1

>  <score_type>  (36) 
oracle

>  <origin>  (36) 
adg

>  <m_score__min__energy>  (36) 
-10.66

>  <m_primary>  (36) 
energy

$$$$
36:0
     RDKit          3D

 59 62  0  0  0  0  0  0  0  0999 V2000
   58.4794   34.9110   43.8208 H   0  0  0  0  0  0  0  0  0  0  0  0
   58.5920   34.5450   44.8520 C   0  0  0  0  0  0  0  0  0  0  0  0
   59.6000   35.0630   45.6710 C   0  0  0  0  0  0  0  0  0  0  0  0
   60.2742   35.8427   45.2870 H   0  0  0  0  0  0  0  0  0  0  0  0
   59.7510   34.5900   46.9780 C   0  0  0  0  0  0  0  0  0  0  0  0
   60.5343   35.0100   47.6261 H   0  0  0  0  0  0  0  0  0  0  0  0
   58.9070   33.5820   47.4650 C   0  0  0  0  0  0  0  0  0  0  0  0
   59.0390   33.1190   48.8140 N   0  0  0  0  0  0  0  0  0  0  0  0
   58.1690   32.2630   49.3280 N   0  0  0  0  0  0  0  0  0  0  0  0
   58.3720   32.2160   50.6590 C   0  0  0  0  0  0  0  0  0  0  0  0
   57.6180   31.3210   51.5860 C   0  0  0  0  0  0  0  0  0  0  0  0
   57.8477   31.5937   52.6266 H   0  0  0  0  0  0  0  0  0  0  0  0
   56.5385   31.4336   51.4072 H   0  0  0  0  0  0  0  0  0  0  0  0
   57.9122   30.2763   51.4072 H   0  0  0  0  0  0  0  0  0  0  0  0
   59.3960   33.0690   51.0170 C   0  0  0  0  0  0  0  0  0  0  0  0
   59.7912   33.2686   52.0240 H   0  0  0  0  0  0  0  0  0  0  0  0
   59.8080   33.6120   49.8210 C   0  0  0  0  0  0  0  0  0  0  0  0
   60.8360   34.4130   49.7280 N   0  0  0  0  0  0  0  0  0  0  0  0
   62.2440   34.1420   49.8120 C   0  0  0  0  0  0  0  0  0  0  0  0
   63.0300   34.9530   50.3700 O   0  0  0  0  0  0  0  0  0  0  0  0
   62.8230   32.9970   49.0180 C   0  0  1  0  0  0  0  0  0  0  0  0
   63.5261   32.4042   49.6215 H   0  0  0  0  0  0  0  0  0  0  0  0
   61.7480   32.0540   48.6010 N   0  0  0  0  0  0  0  0  0  0  0  0
   61.7570   31.7890   47.1380 C   0  0  0  0  0  0  0  0  0  0  0  0
   61.3371   32.6625   46.6177 H   0  0  0  0  0  0  0  0  0  0  0  0
   62.7984   31.6037   46.8360 H   0  0  0  0  0  0  0  0  0  0  0  0
   60.9270   30.5410   46.7630 C   0  0  0  0  0  0  0  0  0  0  0  0
   60.4150   30.7196   45.8059 H   0  0  0  0  0  0  0  0  0  0  0  0
   61.6008   29.6762   46.6736 H   0  0  0  0  0  0  0  0  0  0  0  0
   59.9190   30.2610   47.8120 N   0  0  0  0  0  0  0  0  0  0  0  0
   59.3940   31.1520   47.9930 H   0  0  0  0  0  0  0  0  0  0  0  0
   58.8890   29.2420   47.4480 C   0  0  0  0  0  0  0  0  0  0  0  0
   58.2235   29.3028   48.3217 H   0  0  0  0  0  0  0  0  0  0  0  0
   59.3910   27.8010   47.2990 C   0  0  0  0  0  0  0  0  0  0  0  0
   60.3848   27.7812   46.8279 H   0  0  0  0  0  0  0  0  0  0  0  0
   59.5002   27.2915   48.2677 H   0  0  0  0  0  0  0  0  0  0  0  0
   58.3600   27.1360   46.4070 C   0  0  0  0  0  0  0  0  0  0  0  0
   58.8135   26.3026   45.8505 H   0  0  0  0  0  0  0  0  0  0  0  0
   57.5264   26.7166   46.9894 H   0  0  0  0  0  0  0  0  0  0  0  0
   57.8890   28.2230   45.4480 C   0  0  0  0  0  0  0  0  0  0  0  0
   58.4511   28.1650   44.5043 H   0  0  0  0  0  0  0  0  0  0  0  0
   56.8216   28.1042   45.2100 H   0  0  0  0  0  0  0  0  0  0  0  0
   58.1520   29.5630   46.1360 C   0  0  0  0  0  0  0  0  0  0  0  0
   58.7768   30.2030   45.4957 H   0  0  0  0  0  0  0  0  0  0  0  0
   57.2131   30.1029   46.3285 H   0  0  0  0  0  0  0  0  0  0  0  0
   60.6000   29.9020   49.0800 C   0  0  0  0  0  0  0  0  0  0  0  0
   59.8954   30.0416   49.9131 H   0  0  0  0  0  0  0  0  0  0  0  0
   60.9260   28.8541   49.0048 H   0  0  0  0  0  0  0  0  0  0  0  0
   61.8510   30.7730   49.3340 C   0  0  0  0  0  0  0  0  0  0  0  0
   61.9366   30.9782   50.4113 H   0  0  0  0  0  0  0  0  0  0  0  0
   62.7400   30.2308   48.9795 H   0  0  0  0  0  0  0  0  0  0  0  0
   63.5700   33.6100   47.8170 C   0  0  0  0  0  0  0  0  0  0  0  0
   64.3723   34.2684   48.1815 H   0  0  0  0  0  0  0  0  0  0  0  0
   64.0051   32.8052   47.2063 H   0  0  0  0  0  0  0  0  0  0  0  0
   62.8656   34.1938   47.2063 H   0  0  0  0  0  0  0  0  0  0  0  0
   57.8750   33.0890   46.6510 C   0  0  0  0  0  0  0  0  0  0  0  0
   57.1819   32.3298   47.0423 H   0  0  0  0  0  0  0  0  0  0  0  0
   57.7270   33.5620   45.3430 C   0  0  0  0  0  0  0  0  0  0  0  0
   56.9297   33.1605   44.7002 H   0  0  0  0  0  0  0  0  0  0  0  0
  1  2  1  0
  2  3  2  0
  3  4  1  0
  3  5  1  0
  5  6  1  0
  5  7  2  0
  7  8  1  0
  8  9  1  0
  9 10  1  0
 10 11  1  0
 11 12  1  0
 11 13  1  0
 11 14  1  0
 10 15  2  0
 15 16  1  0
 15 17  1  0
 17 18  2  0
 18 19  1  0
 19 20  2  0
 19 21  1  0
 21 22  1  1
 21 23  1  0
 23 24  1  0
 24 25  1  0
 24 26  1  0
 24 27  1  0
 27 28  1  0
 27 29  1  0
 27 30  1  0
 30 31  1  0
 30 32  1  0
 32 33  1  0
 32 34  1  0
 34 35  1  0
 34 36  1  0
 34 37  1  0
 37 38  1  0
 37 39  1  0
 37 40  1  0
 40 41  1  0
 40 42  1  0
 40 43  1  0
 43 44  1  0
 43 45  1  0
 30 46  1  0
 46 47  1  0
 46 48  1  0
 46 49  1  0
 49 50  1  0
 49 51  1  0
 21 52  1  0
 52 53  1  0
 52 54  1  0
 52 55  1  0
  7 56  1  0
 56 57  1  0
 56 58  2  0
 58 59  1  0
 58  2  1  0
 17  8  1  0
 49 23  1  0
 43 32  1  0
M  CHG  2   9  -1  30   1
M  END
>  <UniqueID>  (37) 
37

>  <SMILES>  (37) 
Cc1c/c(=N/C(=O)[C@H](C)N2CC[NH+](C3CCCC3)CC2)n(-c2ccccc2)[n-]1

>  <Energy>  (37) 
124.52532583134429

>  <Genealogy>  (37) 
Cc1cc(=NC(=O)C(C)N2CC[NH+](C3CCCC3)CC2)n(-c2ccccc2)[n-]1 (protonated)
Cc1cc(=NC(=O)[C@H](C)N2CC[NH+](C3CCCC3)CC2)n(-c2ccccc2)[n-]1 (chirality)
Cc1c/c(=N/C(=O)[C@H](C)N2CC[NH+](C3CCCC3)CC2)n(-c2ccccc2)[n-]1 (cis-trans isomerization)
Cc1c/c(=N/C(=O)[C@H](C)N2CC[NH+](C3CCCC3)CC2)n(-c2ccccc2)[n-]1 (3D coordinates assigned)
Cc1c/c(=N/C(=O)[C@H](C)N2CC[NH+](C3CCCC3)CC2)n(-c2ccccc2)[n-]1 (nonaromatic ring conformer: 124.52532583134429 kcal/mol)

>  <smiles>  (37) 
Cc1cc(=NC(=O)C(C)N2CCN(C3CCCC3)CC2)n(-c2ccccc2)[nH]1

>  <score_type>  (37) 
oracle

>  <origin>  (37) 
adg

>  <m_score__min__energy>  (37) 
-8.5399999999999991

>  <m_primary>  (37) 
energy

$$$$
37:0
     RDKit          3D

 74 78  0  0  0  0  0  0  0  0999 V2000
   59.4800   30.8660   52.7860 C   0  0  0  0  0  0  0  0  0  0  0  0
   59.0020   32.1670   52.2890 N   0  0  0  0  0  0  0  0  0  0  0  0
   60.1170   32.9410   51.6870 C   0  0  0  0  0  0  0  0  0  0  0  0
   59.6540   33.8660   50.5560 C   0  0  0  0  0  0  0  0  0  0  0  0
   58.9940   33.0670   49.5170 N   0  0  0  0  0  0  0  0  0  0  0  0
   59.1660   33.3830   48.1190 C   0  0  0  0  0  0  0  0  0  0  0  0
   60.3880   33.8980   47.6500 C   0  0  0  0  0  0  0  0  0  0  0  0
   60.5460   34.2320   46.3030 C   0  0  0  0  0  0  0  0  0  0  0  0
   59.4870   34.0650   45.4090 C   0  0  0  0  0  0  0  0  0  0  0  0
   58.2610   33.5490   45.8530 C   0  0  0  0  0  0  0  0  0  0  0  0
   57.1280   33.3950   44.8800 C   0  0  0  0  0  0  0  0  0  0  0  0
   56.5750   32.0500   44.9880 N   0  0  0  0  0  0  0  0  0  0  0  0
   56.9160   30.9690   44.1160 C   0  0  0  0  0  0  0  0  0  0  0  0
   56.6240   31.0330   42.8910 O   0  0  0  0  0  0  0  0  0  0  0  0
   57.6540   29.8010   44.6420 C   0  0  0  0  0  0  0  0  0  0  0  0
   57.8310   28.6540   43.8500 C   0  0  0  0  0  0  0  0  0  0  0  0
   58.4680   27.5250   44.3680 C   0  0  0  0  0  0  0  0  0  0  0  0
   58.9090   27.5050   45.7000 C   0  0  0  0  0  0  0  0  0  0  0  0
   59.5100   26.2820   46.2830 C   0  0  0  0  0  0  0  0  0  0  0  0
   60.7310   26.2930   46.5960 O   0  0  0  0  0  0  0  0  0  0  0  0
   58.7240   25.0960   46.5320 N   0  0  0  0  0  0  0  0  0  0  0  0
   58.8950   23.9060   45.6690 C   0  0  0  0  0  0  0  0  0  0  0  0
   57.7020   23.6620   44.7300 C   0  0  0  0  0  0  0  0  0  0  0  0
   56.5990   24.7310   44.8610 C   0  0  0  0  0  0  0  0  0  0  0  0
   55.7420   24.5390   46.0540 N   0  0  0  0  0  0  0  0  0  0  0  0
   54.5750   23.6790   45.7080 C   0  0  0  0  0  0  0  0  0  0  0  0
   54.4560   23.3520   44.2190 C   0  0  0  0  0  0  0  0  0  0  0  0
   53.0920   24.0380   44.1850 C   0  0  0  0  0  0  0  0  0  0  0  0
   53.2070   24.3670   45.6730 C   0  0  0  0  0  0  0  0  0  0  0  0
   56.5260   24.1320   47.2500 C   0  0  0  0  0  0  0  0  0  0  0  0
   57.6590   25.1430   47.5480 C   0  0  0  0  0  0  0  0  0  0  0  0
   58.7900   28.6700   46.4730 C   0  0  0  0  0  0  0  0  0  0  0  0
   58.1670   29.8090   45.9500 C   0  0  0  0  0  0  0  0  0  0  0  0
   58.1080   33.2010   47.2050 C   0  0  0  0  0  0  0  0  0  0  0  0
   58.1700   31.9190   49.9240 C   0  0  0  0  0  0  0  0  0  0  0  0
   57.8110   32.0060   51.4170 C   0  0  0  0  0  0  0  0  0  0  0  0
   59.4783   30.8706   53.8860 H   0  0  0  0  0  0  0  0  0  0  0  0
   58.8163   30.0680   52.4216 H   0  0  0  0  0  0  0  0  0  0  0  0
   60.5024   30.6875   52.4216 H   0  0  0  0  0  0  0  0  0  0  0  0
   60.5846   33.5528   52.4725 H   0  0  0  0  0  0  0  0  0  0  0  0
   60.8266   32.2195   51.2558 H   0  0  0  0  0  0  0  0  0  0  0  0
   58.9463   34.6079   50.9543 H   0  0  0  0  0  0  0  0  0  0  0  0
   60.5226   34.3859   50.1256 H   0  0  0  0  0  0  0  0  0  0  0  0
   61.2254   34.0388   48.3492 H   0  0  0  0  0  0  0  0  0  0  0  0
   61.5080   34.6279   45.9455 H   0  0  0  0  0  0  0  0  0  0  0  0
   59.6148   34.3394   44.3515 H   0  0  0  0  0  0  0  0  0  0  0  0
   56.3451   34.1330   45.1089 H   0  0  0  0  0  0  0  0  0  0  0  0
   57.4979   33.5587   43.8571 H   0  0  0  0  0  0  0  0  0  0  0  0
   57.4645   28.6456   42.8129 H   0  0  0  0  0  0  0  0  0  0  0  0
   58.6254   26.6447   43.7274 H   0  0  0  0  0  0  0  0  0  0  0  0
   59.7987   24.0447   45.0573 H   0  0  0  0  0  0  0  0  0  0  0  0
   58.9743   23.0310   46.3309 H   0  0  0  0  0  0  0  0  0  0  0  0
   58.0677   23.6620   43.6926 H   0  0  0  0  0  0  0  0  0  0  0  0
   57.2567   22.6961   45.0106 H   0  0  0  0  0  0  0  0  0  0  0  0
   57.0761   25.7198   44.9283 H   0  0  0  0  0  0  0  0  0  0  0  0
   55.9522   24.6450   43.9754 H   0  0  0  0  0  0  0  0  0  0  0  0
   54.7578   22.8891   46.4514 H   0  0  0  0  0  0  0  0  0  0  0  0
   55.2184   23.8346   43.5898 H   0  0  0  0  0  0  0  0  0  0  0  0
   54.5708   22.3176   43.8627 H   0  0  0  0  0  0  0  0  0  0  0  0
   53.0525   24.9230   43.5329 H   0  0  0  0  0  0  0  0  0  0  0  0
   52.2117   23.4993   43.8044 H   0  0  0  0  0  0  0  0  0  0  0  0
   53.2383   25.4438   45.8954 H   0  0  0  0  0  0  0  0  0  0  0  0
   52.4133   24.0721   46.3751 H   0  0  0  0  0  0  0  0  0  0  0  0
   55.8536   24.0804   48.1191 H   0  0  0  0  0  0  0  0  0  0  0  0
   56.9795   23.1498   47.0511 H   0  0  0  0  0  0  0  0  0  0  0  0
   57.2332   26.1570   47.5690 H   0  0  0  0  0  0  0  0  0  0  0  0
   58.1041   24.8771   48.5182 H   0  0  0  0  0  0  0  0  0  0  0  0
   59.1894   28.6883   47.4978 H   0  0  0  0  0  0  0  0  0  0  0  0
   58.0785   30.7157   46.5666 H   0  0  0  0  0  0  0  0  0  0  0  0
   57.1528   32.7821   47.5545 H   0  0  0  0  0  0  0  0  0  0  0  0
   57.2440   31.9113   49.3303 H   0  0  0  0  0  0  0  0  0  0  0  0
   58.7427   30.9956   49.7524 H   0  0  0  0  0  0  0  0  0  0  0  0
   57.1459   32.8689   51.5684 H   0  0  0  0  0  0  0  0  0  0  0  0
   57.3236   31.0599   51.6951 H   0  0  0  0  0  0  0  0  0  0  0  0
  1  2  1  0
  2  3  1  0
  3  4  1  0
  4  5  1  0
  5  6  1  0
  6  7  2  0
  7  8  1  0
  8  9  2  0
  9 10  1  0
 10 11  1  0
 11 12  1  0
 12 13  1  0
 13 14  2  0
 13 15  1  0
 15 16  2  0
 16 17  1  0
 17 18  2  0
 18 19  1  0
 19 20  2  0
 19 21  1  0
 21 22  1  0
 22 23  1  0
 23 24  1  0
 24 25  1  0
 25 26  1  0
 26 27  1  0
 27 28  1  0
 28 29  1  0
 25 30  1  0
 30 31  1  0
 18 32  1  0
 32 33  2  0
 10 34  2  0
  5 35  1  0
 35 36  1  0
 36  2  1  0
 34  6  1  0
 33 15  1  0
 31 21  1  0
 29 26  1  0
  1 37  1  0
  1 38  1  0
  1 39  1  0
  3 40  1  0
  3 41  1  0
  4 42  1  0
  4 43  1  0
  7 44  1  0
  8 45  1  0
  9 46  1  0
 11 47  1  0
 11 48  1  0
 16 49  1  0
 17 50  1  0
 22 51  1  0
 22 52  1  0
 23 53  1  0
 23 54  1  0
 24 55  1  0
 24 56  1  0
 26 57  1  0
 27 58  1  0
 27 59  1  0
 28 60  1  0
 28 61  1  0
 29 62  1  0
 29 63  1  0
 30 64  1  0
 30 65  1  0
 31 66  1  0
 31 67  1  0
 32 68  1  0
 33 69  1  0
 34 70  1  0
 35 71  1  0
 35 72  1  0
 36 73  1  0
 36 74  1  0
M  CHG  1  12  -1
M  END
>  <UniqueID>  (38) 
38

>  <SMILES>  (38) 
CN1CCN(c2cccc(C[N-]C(=O)c3ccc(C(=O)N4CCCN(C5CCC5)CC4)cc3)c2)CC1

>  <Energy>  (38) 
166.93904989033462

>  <Genealogy>  (38) 
CN1CCN(c2cccc(C[N-]C(=O)c3ccc(C(=O)N4CCCN(C5CCC5)CC4)cc3)c2)CC1 (protonated)
CN1CCN(c2cccc(C[N-]C(=O)c3ccc(C(=O)N4CCCN(C5CCC5)CC4)cc3)c2)CC1 (3D coordinates assigned)
CN1CCN(c2cccc(C[N-]C(=O)c3ccc(C(=O)N4CCCN(C5CCC5)CC4)cc3)c2)CC1 (nonaromatic ring conformer: 166.93904989033462 kcal/mol)

>  <smiles>  (38) 
CN1CCN(c2cccc(CNC(=O)c3ccc(C(=O)N4CCCN(C5CCC5)CC4)cc3)c2)CC1

>  <score_type>  (38) 
oracle

>  <origin>  (38) 
adg

>  <m_score__min__energy>  (38) 
-9.1199999999999992

>  <m_primary>  (38) 
energy

$$$$
38:0
     RDKit          3D

 55 58  0  0  0  0  0  0  0  0999 V2000
   50.2860   32.3320   50.9750 H   0  0  0  0  0  0  0  0  0  0  0  0
   51.3070   32.2900   51.1940 N   0  0  0  0  0  0  0  0  0  0  0  0
   51.7420   30.6190   51.2570 S   0  0  0  0  0  0  0  0  0  0  0  0
   51.6480   30.0270   49.8790 O   0  0  0  0  0  0  0  0  0  0  0  0
   50.7910   29.8870   52.1620 O   0  0  0  0  0  0  0  0  0  0  0  0
   53.3860   30.4610   51.8660 C   0  0  0  0  0  0  0  0  0  0  0  0
   53.8950   29.2020   52.2090 C   0  0  0  0  0  0  0  0  0  0  0  0
   53.2630   28.3079   52.1033 H   0  0  0  0  0  0  0  0  0  0  0  0
   55.2030   29.0780   52.6850 C   0  0  0  0  0  0  0  0  0  0  0  0
   55.5933   28.0872   52.9609 H   0  0  0  0  0  0  0  0  0  0  0  0
   56.0220   30.2120   52.8130 C   0  0  0  0  0  0  0  0  0  0  0  0
   57.4200   30.0750   53.3560 C   0  0  0  0  0  0  0  0  0  0  0  0
   57.6519   29.0084   53.4921 H   0  0  0  0  0  0  0  0  0  0  0  0
   57.4795   30.6037   54.3188 H   0  0  0  0  0  0  0  0  0  0  0  0
   58.4010   30.6700   52.4250 N   0  0  0  0  0  0  0  0  0  0  0  0
   58.7000   32.0780   52.7900 C   0  0  0  0  0  0  0  0  0  0  0  0
   59.3325   32.0815   53.6900 H   0  0  0  0  0  0  0  0  0  0  0  0
   57.7405   32.5867   52.9650 H   0  0  0  0  0  0  0  0  0  0  0  0
   59.4340   32.8410   51.6680 C   0  0  0  0  0  0  0  0  0  0  0  0
   60.2050   33.4844   52.1171 H   0  0  0  0  0  0  0  0  0  0  0  0
   58.6966   33.4439   51.1178 H   0  0  0  0  0  0  0  0  0  0  0  0
   60.1000   31.8770   50.6850 C   0  0  0  0  0  0  0  0  0  0  0  0
   60.8451   31.2723   51.2228 H   0  0  0  0  0  0  0  0  0  0  0  0
   60.5825   32.4643   49.8898 H   0  0  0  0  0  0  0  0  0  0  0  0
   59.0550   30.9360   50.0390 C   0  0  1  0  0  0  0  0  0  0  0  0
   58.5793   31.4562   49.1945 H   0  0  0  0  0  0  0  0  0  0  0  0
   59.7590   29.6740   49.4920 C   0  0  0  0  0  0  0  0  0  0  0  0
   59.5577   28.8322   50.1709 H   0  0  0  0  0  0  0  0  0  0  0  0
   60.8368   29.8852   49.4301 H   0  0  0  0  0  0  0  0  0  0  0  0
   59.2760   29.3140   48.1160 C   0  0  0  0  0  0  0  0  0  0  0  0
   58.7290   28.1000   47.7510 C   0  0  0  0  0  0  0  0  0  0  0  0
   58.5795   27.2248   48.4003 H   0  0  0  0  0  0  0  0  0  0  0  0
   58.4050   28.1990   46.4070 C   0  0  0  0  0  0  0  0  0  0  0  0
   57.8870   27.1750   45.7020 C   0  0  0  0  0  0  0  0  0  0  0  0
   57.9884   27.2172   44.6075 H   0  0  0  0  0  0  0  0  0  0  0  0
   57.1980   26.0060   46.2670 C   0  0  0  0  0  0  0  0  0  0  0  0
   57.8280   24.8800   46.6410 N   0  0  0  0  0  0  0  0  0  0  0  0
   56.8150   24.0480   46.9670 C   0  0  0  0  0  0  0  0  0  0  0  0
   57.0080   22.8780   47.3880 O   0  0  0  0  0  0  0  0  0  0  0  0
   55.5790   24.5630   46.7920 N   0  0  0  0  0  0  0  0  0  0  0  0
   55.8380   25.7980   46.3340 C   0  0  0  0  0  0  0  0  0  0  0  0
   54.8540   26.7050   45.9600 O   0  0  0  0  0  0  0  0  0  0  0  0
   58.7260   29.5110   46.0280 C   0  0  0  0  0  0  0  0  0  0  0  0
   58.4480   30.1340   44.8780 C   0  0  0  0  0  0  0  0  0  0  0  0
   57.9979   29.5749   44.0444 H   0  0  0  0  0  0  0  0  0  0  0  0
   58.6694   31.2056   44.7655 H   0  0  0  0  0  0  0  0  0  0  0  0
   59.2780   30.1620   47.0730 N   0  0  0  0  0  0  0  0  0  0  0  0
   59.5980   31.1580   47.0920 H   0  0  0  0  0  0  0  0  0  0  0  0
   57.9150   30.5870   51.0330 C   0  0  0  0  0  0  0  0  0  0  0  0
   57.5606   29.5650   50.8334 H   0  0  0  0  0  0  0  0  0  0  0  0
   57.0930   31.3056   50.8991 H   0  0  0  0  0  0  0  0  0  0  0  0
   55.5090   31.4720   52.4660 C   0  0  0  0  0  0  0  0  0  0  0  0
   56.1401   32.3670   52.5691 H   0  0  0  0  0  0  0  0  0  0  0  0
   54.2000   31.5950   51.9900 C   0  0  0  0  0  0  0  0  0  0  0  0
   53.8081   32.5845   51.7121 H   0  0  0  0  0  0  0  0  0  0  0  0
  1  2  1  0
  2  3  1  0
  3  4  2  0
  3  5  2  0
  3  6  1  0
  6  7  2  0
  7  8  1  0
  7  9  1  0
  9 10  1  0
  9 11  2  0
 11 12  1  0
 12 13  1  0
 12 14  1  0
 12 15  1  0
 15 16  1  0
 16 17  1  0
 16 18  1  0
 16 19  1  0
 19 20  1  0
 19 21  1  0
 19 22  1  0
 22 23  1  0
 22 24  1  0
 22 25  1  0
 25 26  1  6
 25 27  1  0
 27 28  1  0
 27 29  1  0
 27 30  1  0
 30 31  2  0
 31 32  1  0
 31 33  1  0
 33 34  2  0
 34 35  1  0
 34 36  1  0
 36 37  1  0
 37 38  1  0
 38 39  2  0
 38 40  1  0
 40 41  1  0
 41 42  1  0
 33 43  1  0
 43 44  2  0
 44 45  1  0
 44 46  1  0
 43 47  1  0
 47 48  1  0
 25 49  1  0
 49 50  1  0
 49 51  1  0
 11 52  1  0
 52 53  1  0
 52 54  2  0
 54 55  1  0
 54  6  1  0
 49 15  1  0
 47 30  1  0
 41 36  2  0
M  CHG  4   2  -1  37  -1  40  -1  42  -1
M  END
>  <UniqueID>  (39) 
39

>  <SMILES>  (39) 
C=c1[nH]c(C[C@@H]2CCCN(Cc3ccc(S([NH-])(=O)=O)cc3)C2)c/c1=C/c1[n-]c(=O)[n-]c1[O-]

>  <Energy>  (39) 
128.96141587312613

>  <Genealogy>  (39) 
C=c1[nH]c(CC2CCCN(Cc3ccc(S([NH-])(=O)=O)cc3)C2)cc1=Cc1[n-]c(=O)[n-]c1[O-] (protonated)
C=c1[nH]c(C[C@@H]2CCCN(Cc3ccc(S([NH-])(=O)=O)cc3)C2)cc1=Cc1[n-]c(=O)[n-]c1[O-] (chirality)
C=c1[nH]c(C[C@@H]2CCCN(Cc3ccc(S([NH-])(=O)=O)cc3)C2)c/c1=C/c1[n-]c(=O)[n-]c1[O-] (cis-trans isomerization)
C=c1[nH]c(C[C@@H]2CCCN(Cc3ccc(S([NH-])(=O)=O)cc3)C2)c/c1=C/c1[n-]c(=O)[n-]c1[O-] (3D coordinates assigned)
C=c1[nH]c(C[C@@H]2CCCN(Cc3ccc(S([NH-])(=O)=O)cc3)C2)c/c1=C/c1[n-]c(=O)[n-]c1[O-] (nonaromatic ring conformer: 128.96141587312613 kcal/mol)

>  <smiles>  (39) 
C=c1[nH]c(CC2CCCN(Cc3ccc(S(N)(=O)=O)cc3)C2)cc1=Cc1[nH]c(=O)[nH]c1O

>  <score_type>  (39) 
oracle

>  <origin>  (39) 
adg

>  <m_score__min__energy>  (39) 
-21.57

>  <m_primary>  (39) 
energy

$$$$
39:0
     RDKit          3D

 65 68  0  0  0  0  0  0  0  0999 V2000
   59.5440   33.2490   53.3540 C   0  0  0  0  0  0  0  0  0  0  0  0
   60.0980   33.4080   51.9680 C   0  0  0  0  0  0  0  0  0  0  0  0
   59.2860   33.8970   50.9330 C   0  0  0  0  0  0  0  0  0  0  0  0
   59.7990   34.0310   49.6410 C   0  0  0  0  0  0  0  0  0  0  0  0
   61.1200   33.6660   49.3690 C   0  0  0  0  0  0  0  0  0  0  0  0
   61.9300   33.1100   50.3780 C   0  0  0  0  0  0  0  0  0  0  0  0
   61.4140   33.0080   51.6860 C   0  0  0  0  0  0  0  0  0  0  0  0
   63.2710   32.6750   50.0400 N   0  0  0  0  0  0  0  0  0  0  0  0
   64.0570   31.9010   50.9630 C   0  0  0  0  0  0  0  0  0  0  0  0
   65.3030   32.0830   51.0310 O   0  0  0  0  0  0  0  0  0  0  0  0
   63.3960   30.9330   51.9030 C   0  0  0  0  0  0  0  0  0  0  0  0
   62.8360   29.7190   51.1430 C   0  0  0  0  0  0  0  0  0  0  0  0
   61.3280   29.7480   51.0120 C   0  0  0  0  0  0  0  0  0  0  0  0
   60.6160   29.5940   52.0440 O   0  0  0  0  0  0  0  0  0  0  0  0
   60.6950   29.9630   49.7270 N   0  0  0  0  0  0  0  0  0  0  0  0
   61.5150   30.2330   48.5330 C   0  0  0  0  0  0  0  0  0  0  0  0
   60.6670   30.3490   47.2590 C   0  0  0  0  0  0  0  0  0  0  0  0
   59.4810   31.1730   47.5100 N   0  0  0  0  0  0  0  0  0  0  0  0
   58.9780   32.0170   46.4640 C   0  0  0  0  0  0  0  0  0  0  0  0
   58.8990   33.3990   46.6880 C   0  0  0  0  0  0  0  0  0  0  0  0
   58.3710   34.2420   45.7140 C   0  0  0  0  0  0  0  0  0  0  0  0
   57.9000   33.7150   44.5130 C   0  0  0  0  0  0  0  0  0  0  0  0
   57.9580   32.3340   44.2660 C   0  0  0  0  0  0  0  0  0  0  0  0
   57.4260   31.8060   42.9590 C   0  0  0  0  0  0  0  0  0  0  0  0
   58.5390   31.4730   45.2340 C   0  0  0  0  0  0  0  0  0  0  0  0
   58.6380   29.9860   44.9860 C   0  0  0  0  0  0  0  0  0  0  0  0
   58.6880   30.9920   48.7320 C   0  0  0  0  0  0  0  0  0  0  0  0
   59.2350   29.8470   49.5890 C   0  0  0  0  0  0  0  0  0  0  0  0
   63.7020   32.6890   48.6340 C   0  0  0  0  0  0  0  0  0  0  0  0
   63.0540   33.8560   47.8710 C   0  0  1  0  0  0  0  0  0  0  0  0
   63.3370   33.7670   46.3730 C   0  0  0  0  0  0  0  0  0  0  0  0
   61.6460   33.8600   48.0910 O   0  0  0  0  0  0  0  0  0  0  0  0
   60.3291   33.4743   54.0908 H   0  0  0  0  0  0  0  0  0  0  0  0
   58.7007   33.9414   53.4935 H   0  0  0  0  0  0  0  0  0  0  0  0
   59.1962   32.2148   53.4935 H   0  0  0  0  0  0  0  0  0  0  0  0
   58.2422   34.1756   51.1401 H   0  0  0  0  0  0  0  0  0  0  0  0
   59.1616   34.4248   48.8356 H   0  0  0  0  0  0  0  0  0  0  0  0
   62.0480   32.6115   52.4928 H   0  0  0  0  0  0  0  0  0  0  0  0
   64.1353   30.5859   52.6399 H   0  0  0  0  0  0  0  0  0  0  0  0
   62.5624   31.4465   52.4045 H   0  0  0  0  0  0  0  0  0  0  0  0
   63.2753   29.7034   50.1347 H   0  0  0  0  0  0  0  0  0  0  0  0
   63.0992   28.8197   51.7192 H   0  0  0  0  0  0  0  0  0  0  0  0
   62.0588   31.1773   48.6833 H   0  0  0  0  0  0  0  0  0  0  0  0
   62.2068   29.3880   48.4014 H   0  0  0  0  0  0  0  0  0  0  0  0
   61.2690   30.8124   46.4635 H   0  0  0  0  0  0  0  0  0  0  0  0
   60.3450   29.3433   46.9509 H   0  0  0  0  0  0  0  0  0  0  0  0
   59.2565   33.8197   47.6394 H   0  0  0  0  0  0  0  0  0  0  0  0
   58.3255   35.3264   45.8928 H   0  0  0  0  0  0  0  0  0  0  0  0
   57.4787   34.3874   43.7511 H   0  0  0  0  0  0  0  0  0  0  0  0
   56.6580   31.0438   43.1569 H   0  0  0  0  0  0  0  0  0  0  0  0
   56.9831   32.6319   42.3830 H   0  0  0  0  0  0  0  0  0  0  0  0
   58.2485   31.3569   42.3830 H   0  0  0  0  0  0  0  0  0  0  0  0
   58.6733   29.4552   45.9488 H   0  0  0  0  0  0  0  0  0  0  0  0
   57.7602   29.6504   44.4143 H   0  0  0  0  0  0  0  0  0  0  0  0
   59.5525   29.7697   44.4143 H   0  0  0  0  0  0  0  0  0  0  0  0
   58.7162   31.9225   49.3179 H   0  0  0  0  0  0  0  0  0  0  0  0
   57.6563   30.7445   48.4415 H   0  0  0  0  0  0  0  0  0  0  0  0
   58.7722   29.8873   50.5861 H   0  0  0  0  0  0  0  0  0  0  0  0
   58.9973   28.8904   49.1008 H   0  0  0  0  0  0  0  0  0  0  0  0
   64.7960   32.7964   48.5941 H   0  0  0  0  0  0  0  0  0  0  0  0
   63.3901   31.7455   48.1623 H   0  0  0  0  0  0  0  0  0  0  0  0
   63.4917   34.7912   48.2503 H   0  0  0  0  0  0  0  0  0  0  0  0
   64.3754   33.4404   46.2148 H   0  0  0  0  0  0  0  0  0  0  0  0
   62.6503   33.0415   45.9126 H   0  0  0  0  0  0  0  0  0  0  0  0
   63.1892   34.7550   45.9126 H   0  0  0  0  0  0  0  0  0  0  0  0
  1  2  1  0
  2  3  2  0
  3  4  1  0
  4  5  2  0
  5  6  1  0
  6  7  2  0
  6  8  1  0
  8  9  1  0
  9 10  2  0
  9 11  1  0
 11 12  1  0
 12 13  1  0
 13 14  2  0
 13 15  1  0
 15 16  1  0
 16 17  1  0
 17 18  1  0
 18 19  1  0
 19 20  2  0
 20 21  1  0
 21 22  2  0
 22 23  1  0
 23 24  1  0
 23 25  2  0
 25 26  1  0
 18 27  1  0
 27 28  1  0
  8 29  1  0
 29 30  1  0
 30 31  1  0
 30 32  1  0
  7  2  1  0
 28 15  1  0
 32  5  1  0
 25 19  1  0
  1 33  1  0
  1 34  1  0
  1 35  1  0
  3 36  1  0
  4 37  1  0
  7 38  1  0
 11 39  1  0
 11 40  1  0
 12 41  1  0
 12 42  1  0
 16 43  1  0
 16 44  1  0
 17 45  1  0
 17 46  1  0
 20 47  1  0
 21 48  1  0
 22 49  1  0
 24 50  1  0
 24 51  1  0
 24 52  1  0
 26 53  1  0
 26 54  1  0
 26 55  1  0
 27 56  1  0
 27 57  1  0
 28 58  1  0
 28 59  1  0
 29 60  1  0
 29 61  1  0
 30 62  1  1
 31 63  1  0
 31 64  1  0
 31 65  1  0
M  END
>  <UniqueID>  (40) 
40

>  <SMILES>  (40) 
Cc1ccc2c(c1)N(C(=O)CCC(=O)N1CCN(c3cccc(C)c3C)CC1)C[C@@H](C)O2

>  <Energy>  (40) 
77.0400639646985

>  <Genealogy>  (40) 
Cc1ccc2c(c1)N(C(=O)CCC(=O)N1CCN(c3cccc(C)c3C)CC1)C[C@@H](C)O2 (chirality)
Cc1ccc2c(c1)N(C(=O)CCC(=O)N1CCN(c3cccc(C)c3C)CC1)C[C@@H](C)O2 (3D coordinates assigned)
Cc1ccc2c(c1)N(C(=O)CCC(=O)N1CCN(c3cccc(C)c3C)CC1)C[C@@H](C)O2 (nonaromatic ring conformer: 77.0400639646985 kcal/mol)

>  <smiles>  (40) 
Cc1ccc2c(c1)N(C(=O)CCC(=O)N1CCN(c3cccc(C)c3C)CC1)CC(C)O2

>  <score_type>  (40) 
oracle

>  <origin>  (40) 
adg

>  <m_score__min__energy>  (40) 
-8.8800000000000008

>  <m_primary>  (40) 
energy

$$$$
40:0
     RDKit          3D

 60 64  0  0  0  0  0  0  0  0999 V2000
   63.8320   32.3540   46.6220 O   0  0  0  0  0  0  0  0  0  0  0  0
   63.1430   33.1390   47.3280 C   0  0  0  0  0  0  0  0  0  0  0  0
   62.2120   33.9920   46.7200 O   0  0  0  0  0  0  0  0  0  0  0  0
   60.8160   33.8730   46.8130 C   0  0  0  0  0  0  0  0  0  0  0  0
   60.2820   32.7950   47.5350 C   0  0  0  0  0  0  0  0  0  0  0  0
   58.8940   32.6130   47.6130 C   0  0  0  0  0  0  0  0  0  0  0  0
   58.0290   33.4960   46.9550 C   0  0  0  0  0  0  0  0  0  0  0  0
   58.5540   34.5650   46.2210 C   0  0  0  0  0  0  0  0  0  0  0  0
   59.9400   34.7610   46.1550 C   0  0  0  0  0  0  0  0  0  0  0  0
   63.3370   33.1930   48.7540 N   0  0  0  0  0  0  0  0  0  0  0  0
   62.6820   34.2620   49.5290 C   0  0  0  0  0  0  0  0  0  0  0  0
   62.7470   33.9760   51.0320 C   0  0  0  0  0  0  0  0  0  0  0  0
   62.4490   32.5550   51.2590 N   0  0  0  0  0  0  0  0  0  0  0  0
   61.2170   32.1370   51.8880 C   0  0  0  0  0  0  0  0  0  0  0  0
   60.5660   30.9650   51.4640 C   0  0  0  0  0  0  0  0  0  0  0  0
   59.3360   30.5930   52.0180 C   0  0  0  0  0  0  0  0  0  0  0  0
   58.7240   31.3930   52.9970 C   0  0  0  0  0  0  0  0  0  0  0  0
   57.4030   31.0310   53.5640 C   0  0  0  0  0  0  0  0  0  0  0  0
   57.1940   31.2050   54.7970 O   0  0  0  0  0  0  0  0  0  0  0  0
   56.3400   30.5190   52.7330 N   0  0  0  0  0  0  0  0  0  0  0  0
   56.0440   29.0860   52.7010 C   0  0  0  0  0  0  0  0  0  0  0  0
   54.6630   28.8450   53.3060 C   0  0  0  0  0  0  0  0  0  0  0  0
   53.6270   29.7630   52.7010 C   0  0  0  0  0  0  0  0  0  0  0  0
   52.2670   29.4110   52.7800 C   0  0  0  0  0  0  0  0  0  0  0  0
   51.2820   30.2670   52.2740 C   0  0  0  0  0  0  0  0  0  0  0  0
   51.6410   31.4890   51.7000 C   0  0  0  0  0  0  0  0  0  0  0  0
   50.6570   32.3400   51.2030 O   0  0  0  0  0  0  0  0  0  0  0  0
   52.9890   31.8580   51.6280 C   0  0  0  0  0  0  0  0  0  0  0  0
   53.9920   31.0090   52.1340 C   0  0  0  0  0  0  0  0  0  0  0  0
   55.4460   31.4230   51.9980 C   0  0  0  0  0  0  0  0  0  0  0  0
   59.3840   32.5500   53.4400 C   0  0  0  0  0  0  0  0  0  0  0  0
   60.6120   32.9220   52.8860 C   0  0  0  0  0  0  0  0  0  0  0  0
   63.3020   31.5490   50.6020 C   0  0  0  0  0  0  0  0  0  0  0  0
   64.1320   32.1700   49.4610 C   0  0  0  0  0  0  0  0  0  0  0  0
   60.9558   32.0890   48.0425 H   0  0  0  0  0  0  0  0  0  0  0  0
   58.4831   31.7736   48.1931 H   0  0  0  0  0  0  0  0  0  0  0  0
   56.9404   33.3496   47.0150 H   0  0  0  0  0  0  0  0  0  0  0  0
   57.8770   35.2536   45.6942 H   0  0  0  0  0  0  0  0  0  0  0  0
   60.3464   35.6112   45.5875 H   0  0  0  0  0  0  0  0  0  0  0  0
   63.1887   35.2164   49.3232 H   0  0  0  0  0  0  0  0  0  0  0  0
   61.6248   34.3116   49.2294 H   0  0  0  0  0  0  0  0  0  0  0  0
   63.7544   34.2069   51.4087 H   0  0  0  0  0  0  0  0  0  0  0  0
   62.0129   34.6003   51.5625 H   0  0  0  0  0  0  0  0  0  0  0  0
   61.0278   30.3348   50.6897 H   0  0  0  0  0  0  0  0  0  0  0  0
   58.8447   29.6671   51.6843 H   0  0  0  0  0  0  0  0  0  0  0  0
   56.0567   28.7309   51.6600 H   0  0  0  0  0  0  0  0  0  0  0  0
   56.8021   28.5390   53.2808 H   0  0  0  0  0  0  0  0  0  0  0  0
   54.3683   27.8016   53.1204 H   0  0  0  0  0  0  0  0  0  0  0  0
   54.7180   29.0496   54.3854 H   0  0  0  0  0  0  0  0  0  0  0  0
   51.9759   28.4564   53.2426 H   0  0  0  0  0  0  0  0  0  0  0  0
   50.2224   29.9768   52.3284 H   0  0  0  0  0  0  0  0  0  0  0  0
   53.2675   32.8196   51.1722 H   0  0  0  0  0  0  0  0  0  0  0  0
   55.7223   31.4095   50.9333 H   0  0  0  0  0  0  0  0  0  0  0  0
   55.5558   32.4323   52.4214 H   0  0  0  0  0  0  0  0  0  0  0  0
   58.9313   33.1685   54.2290 H   0  0  0  0  0  0  0  0  0  0  0  0
   61.1107   33.8385   53.2342 H   0  0  0  0  0  0  0  0  0  0  0  0
   63.9860   31.1183   51.3480 H   0  0  0  0  0  0  0  0  0  0  0  0
   62.6517   30.7727   50.1725 H   0  0  0  0  0  0  0  0  0  0  0  0
   65.0352   32.6371   49.8807 H   0  0  0  0  0  0  0  0  0  0  0  0
   64.4151   31.3795   48.7504 H   0  0  0  0  0  0  0  0  0  0  0  0
  1  2  2  0
  2  3  1  0
  3  4  1  0
  4  5  2  0
  5  6  1  0
  6  7  2  0
  7  8  1  0
  8  9  2  0
  2 10  1  0
 10 11  1  0
 11 12  1  0
 12 13  1  0
 13 14  1  0
 14 15  2  0
 15 16  1  0
 16 17  2  0
 17 18  1  0
 18 19  2  0
 18 20  1  0
 20 21  1  0
 21 22  1  0
 22 23  1  0
 23 24  2  0
 24 25  1  0
 25 26  2  0
 26 27  1  0
 26 28  1  0
 28 29  2  0
 29 30  1  0
 17 31  1  0
 31 32  2  0
 13 33  1  0
 33 34  1  0
  9  4  1  0
 34 10  1  0
 32 14  1  0
 30 20  1  0
 29 23  1  0
  5 35  1  0
  6 36  1  0
  7 37  1  0
  8 38  1  0
  9 39  1  0
 11 40  1  0
 11 41  1  0
 12 42  1  0
 12 43  1  0
 15 44  1  0
 16 45  1  0
 21 46  1  0
 21 47  1  0
 22 48  1  0
 22 49  1  0
 24 50  1  0
 25 51  1  0
 28 52  1  0
 30 53  1  0
 30 54  1  0
 31 55  1  0
 32 56  1  0
 33 57  1  0
 33 58  1  0
 34 59  1  0
 34 60  1  0
M  CHG  1  27  -1
M  END
>  <UniqueID>  (41) 
41

>  <SMILES>  (41) 
O=C(Oc1ccccc1)N1CCN(c2ccc(C(=O)N3CCc4ccc([O-])cc4C3)cc2)CC1

>  <Energy>  (41) 
82.72999821368572

>  <Genealogy>  (41) 
O=C(Oc1ccccc1)N1CCN(c2ccc(C(=O)N3CCc4ccc([O-])cc4C3)cc2)CC1 (protonated)
O=C(Oc1ccccc1)N1CCN(c2ccc(C(=O)N3CCc4ccc([O-])cc4C3)cc2)CC1 (3D coordinates assigned)
O=C(Oc1ccccc1)N1CCN(c2ccc(C(=O)N3CCc4ccc([O-])cc4C3)cc2)CC1 (nonaromatic ring conformer: 82.72999821368572 kcal/mol)

>  <smiles>  (41) 
O=C(Oc1ccccc1)N1CCN(c2ccc(C(=O)N3CCc4ccc(O)cc4C3)cc2)CC1

>  <score_type>  (41) 
oracle

>  <origin>  (41) 
adg

>  <m_score__min__energy>  (41) 
-12.890000000000001

>  <m_primary>  (41) 
energy

$$$$
41:0
     RDKit          3D

 34 36  0  0  0  0  0  0  0  0999 V2000
   58.1872   31.6301   42.1499 H   0  0  0  0  0  0  0  0  0  0  0  0
   57.3770   31.4550   42.8730 C   0  0  0  0  0  0  0  0  0  0  0  0
   57.1836   32.1877   43.6704 H   0  0  0  0  0  0  0  0  0  0  0  0
   56.6290   30.3540   42.7830 C   0  0  0  0  0  0  0  0  0  0  0  0
   56.8293   29.6266   41.9825 H   0  0  0  0  0  0  0  0  0  0  0  0
   55.5160   30.0930   43.7600 C   0  0  0  0  0  0  0  0  0  0  0  0
   55.1211   31.0540   44.1213 H   0  0  0  0  0  0  0  0  0  0  0  0
   54.7270   29.5212   43.2497 H   0  0  0  0  0  0  0  0  0  0  0  0
   55.9950   29.3140   44.8990 N   0  0  0  0  0  0  0  0  0  0  0  0
   57.1760   28.8110   45.1440 C   0  0  0  0  0  0  0  0  0  0  0  0
   58.2380   29.5030   45.7820 C   0  0  0  0  0  0  0  0  0  0  0  0
   58.3860   30.7810   46.3070 C   0  0  0  0  0  0  0  0  0  0  0  0
   57.6274   31.5771   46.3316 H   0  0  0  0  0  0  0  0  0  0  0  0
   59.6890   30.8510   46.7960 C   0  0  0  0  0  0  0  0  0  0  0  0
   60.3050   32.0340   47.4450 C   0  0  0  0  0  0  0  0  0  0  0  0
   59.5010   33.0540   47.9890 C   0  0  0  0  0  0  0  0  0  0  0  0
   58.4053   32.9731   47.9345 H   0  0  0  0  0  0  0  0  0  0  0  0
   60.0850   34.1690   48.5980 C   0  0  0  0  0  0  0  0  0  0  0  0
   59.4483   34.9616   49.0179 H   0  0  0  0  0  0  0  0  0  0  0  0
   61.4750   34.2780   48.6740 C   0  0  0  0  0  0  0  0  0  0  0  0
   61.9322   35.1557   49.1542 H   0  0  0  0  0  0  0  0  0  0  0  0
   62.2860   33.2720   48.1400 C   0  0  0  0  0  0  0  0  0  0  0  0
   64.0320   33.4080   48.2440 Cl  0  0  0  0  0  0  0  0  0  0  0  0
   61.7050   32.1560   47.5290 C   0  0  0  0  0  0  0  0  0  0  0  0
   62.3473   31.3671   47.1106 H   0  0  0  0  0  0  0  0  0  0  0  0
   60.3290   29.6780   46.5950 N   0  0  0  0  0  0  0  0  0  0  0  0
   61.3170   29.4390   46.8370 H   0  0  0  0  0  0  0  0  0  0  0  0
   59.4460   28.8740   45.9830 C   0  0  0  0  0  0  0  0  0  0  0  0
   59.6710   27.5640   45.5810 C   0  0  0  0  0  0  0  0  0  0  0  0
   60.6420   27.0741   45.7459 H   0  0  0  0  0  0  0  0  0  0  0  0
   58.6140   26.8920   44.9580 C   0  0  0  0  0  0  0  0  0  0  0  0
   58.7496   25.8523   44.6253 H   0  0  0  0  0  0  0  0  0  0  0  0
   57.4140   27.5160   44.7590 N   0  0  0  0  0  0  0  0  0  0  0  0
   56.6520   26.9740   44.2870 H   0  0  0  0  0  0  0  0  0  0  0  0
  1  2  1  0
  2  3  1  0
  2  4  2  0
  4  5  1  0
  4  6  1  0
  6  7  1  0
  6  8  1  0
  6  9  1  0
  9 10  2  0
 10 11  1  0
 11 12  1  0
 12 13  1  0
 12 14  2  0
 14 15  1  0
 15 16  2  0
 16 17  1  0
 16 18  1  0
 18 19  1  0
 18 20  2  0
 20 21  1  0
 20 22  1  0
 22 23  1  0
 22 24  2  0
 24 25  1  0
 14 26  1  0
 26 27  1  0
 26 28  1  0
 28 29  1  0
 29 30  1  0
 29 31  2  0
 31 32  1  0
 31 33  1  0
 33 34  1  0
 33 10  1  0
 28 11  2  0
 24 15  1  0
M  END
>  <UniqueID>  (42) 
42

>  <SMILES>  (42) 
C=CC/N=c1/[nH]ccc2[nH]c(-c3cccc(Cl)c3)cc12

>  <Energy>  (42) 
75.90399122935494

>  <Genealogy>  (42) 
C=CC/N=c1/[nH]ccc2[nH]c(-c3cccc(Cl)c3)cc12 (cis-trans isomerization)
C=CC/N=c1/[nH]ccc2[nH]c(-c3cccc(Cl)c3)cc12 (3D coordinates assigned)
C=CC/N=c1/[nH]ccc2[nH]c(-c3cccc(Cl)c3)cc12 (optimized conformer: 75.90399122935494 kcal/mol)

>  <smiles>  (42) 
C=CCN=c1[nH]ccc2[nH]c(-c3cccc(Cl)c3)cc12

>  <score_type>  (42) 
oracle

>  <origin>  (42) 
adg

>  <m_score__min__energy>  (42) 
-7.0599999999999996

>  <m_primary>  (42) 
energy

$$$$
42:0
     RDKit          3D

 52 55  0  0  0  0  0  0  0  0999 V2000
   65.9410   32.9240   50.4280 C   0  0  0  0  0  0  0  0  0  0  0  0
   64.5200   32.8370   49.9570 C   0  0  0  0  0  0  0  0  0  0  0  0
   64.1910   33.1360   48.6280 C   0  0  0  0  0  0  0  0  0  0  0  0
   62.8590   33.0900   48.2110 C   0  0  0  0  0  0  0  0  0  0  0  0
   61.8620   32.7560   49.1340 C   0  0  0  0  0  0  0  0  0  0  0  0
   60.4930   32.7040   48.7310 N   0  0  0  0  0  0  0  0  0  0  0  0
   59.6970   33.1140   47.5580 C   0  0  0  0  0  0  0  0  0  0  0  0
   58.3750   32.6680   48.0880 C   0  0  0  0  0  0  0  0  0  0  0  0
   59.1990   32.2370   49.2810 C   0  0  0  0  0  0  0  0  0  0  0  0
   59.2240   30.6970   49.4760 C   0  0  0  0  0  0  0  0  0  0  0  0
   58.1130   30.2320   50.4220 C   0  0  0  0  0  0  0  0  0  0  0  0
   58.1870   30.9290   51.7180 N   0  0  0  0  0  0  0  0  0  0  0  0
   57.5830   30.3520   52.8950 C   0  0  0  0  0  0  0  0  0  0  0  0
   58.0070   30.6820   54.0370 O   0  0  0  0  0  0  0  0  0  0  0  0
   56.4940   29.3150   52.7930 C   0  0  0  0  0  0  0  0  0  0  0  0
   55.1390   29.9610   52.6550 C   0  0  0  0  0  0  0  0  0  0  0  0
   54.9410   31.0160   51.7520 C   0  0  0  0  0  0  0  0  0  0  0  0
   53.6770   31.5920   51.6050 C   0  0  0  0  0  0  0  0  0  0  0  0
   52.5840   31.1170   52.3520 C   0  0  0  0  0  0  0  0  0  0  0  0
   51.2430   31.7230   52.1990 C   0  0  0  0  0  0  0  0  0  0  0  0
   50.2850   31.3500   52.9260 O   0  0  0  0  0  0  0  0  0  0  0  0
   51.0220   32.7130   51.2480 O   0  0  0  0  0  0  0  0  0  0  0  0
   52.7830   30.0520   53.2470 C   0  0  0  0  0  0  0  0  0  0  0  0
   54.0490   29.4760   53.3940 C   0  0  0  0  0  0  0  0  0  0  0  0
   58.9840   32.1610   51.8400 C   0  0  0  0  0  0  0  0  0  0  0  0
   58.8290   33.0170   50.5780 C   0  0  0  0  0  0  0  0  0  0  0  0
   62.1990   32.4870   50.4240 N   0  0  0  0  0  0  0  0  0  0  0  0
   63.4880   32.5250   50.8530 C   0  0  0  0  0  0  0  0  0  0  0  0
   65.9633   32.9254   51.5278 H   0  0  0  0  0  0  0  0  0  0  0  0
   66.5059   32.0588   50.0509 H   0  0  0  0  0  0  0  0  0  0  0  0
   66.3961   33.8517   50.0509 H   0  0  0  0  0  0  0  0  0  0  0  0
   64.9820   33.4070   47.9132 H   0  0  0  0  0  0  0  0  0  0  0  0
   62.5961   33.3143   47.1667 H   0  0  0  0  0  0  0  0  0  0  0  0
   59.7366   34.1984   47.3780 H   0  0  0  0  0  0  0  0  0  0  0  0
   60.0040   32.7092   46.5823 H   0  0  0  0  0  0  0  0  0  0  0  0
   57.6456   33.4689   48.2793 H   0  0  0  0  0  0  0  0  0  0  0  0
   57.6877   32.0035   47.5439 H   0  0  0  0  0  0  0  0  0  0  0  0
   59.0878   30.2109   48.4987 H   0  0  0  0  0  0  0  0  0  0  0  0
   60.1922   30.4213   49.9195 H   0  0  0  0  0  0  0  0  0  0  0  0
   57.1373   30.4399   49.9585 H   0  0  0  0  0  0  0  0  0  0  0  0
   58.2373   29.1536   50.6001 H   0  0  0  0  0  0  0  0  0  0  0  0
   56.6816   28.6827   51.9127 H   0  0  0  0  0  0  0  0  0  0  0  0
   56.5004   28.7108   53.7122 H   0  0  0  0  0  0  0  0  0  0  0  0
   55.7859   31.3918   51.1563 H   0  0  0  0  0  0  0  0  0  0  0  0
   53.5352   32.4238   50.8993 H   0  0  0  0  0  0  0  0  0  0  0  0
   51.9369   29.6686   53.8362 H   0  0  0  0  0  0  0  0  0  0  0  0
   54.1911   28.6383   54.0926 H   0  0  0  0  0  0  0  0  0  0  0  0
   58.6370   32.7337   52.7127 H   0  0  0  0  0  0  0  0  0  0  0  0
   60.0435   31.8930   51.9648 H   0  0  0  0  0  0  0  0  0  0  0  0
   57.7833   33.3501   50.5035 H   0  0  0  0  0  0  0  0  0  0  0  0
   59.5188   33.8694   50.6646 H   0  0  0  0  0  0  0  0  0  0  0  0
   63.7221   32.3104   51.9061 H   0  0  0  0  0  0  0  0  0  0  0  0
  1  2  1  0
  2  3  2  0
  3  4  1  0
  4  5  2  0
  5  6  1  0
  6  7  1  0
  7  8  1  0
  8  9  1  0
  9 10  1  0
 10 11  1  0
 11 12  1  0
 12 13  1  0
 13 14  2  0
 13 15  1  0
 15 16  1  0
 16 17  2  0
 17 18  1  0
 18 19  2  0
 19 20  1  0
 20 21  2  0
 20 22  1  0
 19 23  1  0
 23 24  2  0
 12 25  1  0
 25 26  1  0
  5 27  1  0
 27 28  2  0
 28  2  1  0
  9  6  1  0
 24 16  1  0
 26  9  1  0
  1 29  1  0
  1 30  1  0
  1 31  1  0
  3 32  1  0
  4 33  1  0
  7 34  1  0
  7 35  1  0
  8 36  1  0
  8 37  1  0
 10 38  1  0
 10 39  1  0
 11 40  1  0
 11 41  1  0
 15 42  1  0
 15 43  1  0
 17 44  1  0
 18 45  1  0
 23 46  1  0
 24 47  1  0
 25 48  1  0
 25 49  1  0
 26 50  1  0
 26 51  1  0
 28 52  1  0
M  CHG  1  22  -1
M  END
>  <UniqueID>  (43) 
43

>  <SMILES>  (43) 
Cc1ccc(N2CCC23CCN(C(=O)Cc2ccc(C(=O)[O-])cc2)CC3)nc1

>  <Energy>  (43) 
101.49519834936706

>  <Genealogy>  (43) 
Cc1ccc(N2CCC23CCN(C(=O)Cc2ccc(C(=O)[O-])cc2)CC3)nc1 (protonated)
Cc1ccc(N2CCC23CCN(C(=O)Cc2ccc(C(=O)[O-])cc2)CC3)nc1 (3D coordinates assigned)
Cc1ccc(N2CCC23CCN(C(=O)Cc2ccc(C(=O)[O-])cc2)CC3)nc1 (nonaromatic ring conformer: 101.49519834936706 kcal/mol)

>  <smiles>  (43) 
Cc1ccc(N2CCC23CCN(C(=O)Cc2ccc(C(=O)O)cc2)CC3)nc1

>  <score_type>  (43) 
oracle

>  <origin>  (43) 
adg

>  <m_score__min__energy>  (43) 
-11.039999999999999

>  <m_primary>  (43) 
energy

$$$$
43:0
     RDKit          3D

 42 44  0  0  0  0  0  0  0  0999 V2000
   55.2630   29.7630   43.4270 C   0  0  0  0  0  0  0  0  0  0  0  0
   56.7130   29.3720   43.1600 C   0  0  0  0  0  0  0  0  0  0  0  0
   57.4590   29.1700   44.4580 C   0  0  0  0  0  0  0  0  0  0  0  0
   57.2510   28.0290   45.1790 N   0  0  0  0  0  0  0  0  0  0  0  0
   57.9240   27.7850   46.3390 C   0  0  0  0  0  0  0  0  0  0  0  0
   57.6390   26.5450   47.1370 C   0  0  0  0  0  0  0  0  0  0  0  0
   56.9450   25.5320   46.2810 C   0  0  0  0  0  0  0  0  0  0  0  0
   57.5770   24.0310   45.8500 S   0  0  0  0  0  0  0  0  0  0  0  0
   56.1730   23.5740   45.0440 C   0  0  0  0  0  0  0  0  0  0  0  0
   55.9700   22.1400   44.2900 S   0  0  0  0  0  0  0  0  0  0  0  0
   55.2150   24.5240   45.1000 N   0  0  0  0  0  0  0  0  0  0  0  0
   55.6430   25.6120   45.7940 C   0  0  0  0  0  0  0  0  0  0  0  0
   54.8230   26.7140   45.9970 O   0  0  0  0  0  0  0  0  0  0  0  0
   58.8430   28.7300   46.8040 C   0  0  0  0  0  0  0  0  0  0  0  0
   59.0650   29.8570   46.0830 N   0  0  0  0  0  0  0  0  0  0  0  0
   58.4010   30.1120   44.9230 C   0  0  0  0  0  0  0  0  0  0  0  0
   58.6490   31.1870   44.2270 N   0  0  0  0  0  0  0  0  0  0  0  0
   57.7370   32.2360   43.8600 C   0  0  0  0  0  0  0  0  0  0  0  0
   57.4150   32.3470   42.6470 O   0  0  0  0  0  0  0  0  0  0  0  0
   57.1560   33.1930   44.8740 C   0  0  0  0  0  0  0  0  0  0  0  0
   58.1700   33.5910   45.9150 C   0  0  0  0  0  0  0  0  0  0  0  0
   58.1580   32.9850   47.1830 C   0  0  0  0  0  0  0  0  0  0  0  0
   59.0800   33.3740   48.1580 C   0  0  0  0  0  0  0  0  0  0  0  0
   60.0140   34.3760   47.8790 C   0  0  0  0  0  0  0  0  0  0  0  0
   60.0250   34.9920   46.6250 C   0  0  0  0  0  0  0  0  0  0  0  0
   59.1040   34.6060   45.6460 C   0  0  0  0  0  0  0  0  0  0  0  0
   55.0897   29.8097   44.5123 H   0  0  0  0  0  0  0  0  0  0  0  0
   55.0606   30.7478   42.9806 H   0  0  0  0  0  0  0  0  0  0  0  0
   54.5930   29.0135   42.9806 H   0  0  0  0  0  0  0  0  0  0  0  0
   56.7342   28.4364   42.5819 H   0  0  0  0  0  0  0  0  0  0  0  0
   57.1992   30.1808   42.5947 H   0  0  0  0  0  0  0  0  0  0  0  0
   56.5610   27.3250   44.8330 H   0  0  0  0  0  0  0  0  0  0  0  0
   58.5860   26.1232   47.5049 H   0  0  0  0  0  0  0  0  0  0  0  0
   56.9902   26.8042   47.9866 H   0  0  0  0  0  0  0  0  0  0  0  0
   59.3822   28.5608   47.7478 H   0  0  0  0  0  0  0  0  0  0  0  0
   56.8085   34.0967   44.3520 H   0  0  0  0  0  0  0  0  0  0  0  0
   56.3240   32.6858   45.3844 H   0  0  0  0  0  0  0  0  0  0  0  0
   57.4198   32.2013   47.4087 H   0  0  0  0  0  0  0  0  0  0  0  0
   59.0710   32.8912   49.1464 H   0  0  0  0  0  0  0  0  0  0  0  0
   60.7406   34.6796   48.6471 H   0  0  0  0  0  0  0  0  0  0  0  0
   60.7592   35.7817   46.4075 H   0  0  0  0  0  0  0  0  0  0  0  0
   59.1107   35.0984   44.6624 H   0  0  0  0  0  0  0  0  0  0  0  0
  1  2  1  0
  2  3  1  0
  3  4  2  0
  4  5  1  0
  5  6  1  0
  6  7  1  0
  7  8  1  0
  8  9  1  0
  9 10  2  0
  9 11  1  0
 11 12  1  0
 12 13  1  0
  5 14  2  0
 14 15  1  0
 15 16  1  0
 16 17  2  3
 17 18  1  0
 18 19  2  0
 18 20  1  0
 20 21  1  0
 21 22  2  0
 22 23  1  0
 23 24  2  0
 24 25  1  0
 25 26  2  0
 16  3  1  0
 26 21  1  0
 12  7  2  0
  1 27  1  0
  1 28  1  0
  1 29  1  0
  2 30  1  0
  2 31  1  0
  4 32  1  0
  6 33  1  0
  6 34  1  0
 14 35  1  0
 20 36  1  0
 20 37  1  0
 22 38  1  0
 23 39  1  0
 24 40  1  0
 25 41  1  0
 26 42  1  0
M  CHG  4   4   1  11  -1  13  -1  15  -1
M  END
>  <UniqueID>  (44) 
44

>  <SMILES>  (44) 
CCc1[nH+]c(Cc2sc(=S)[n-]c2[O-])c[n-]c1=NC(=O)Cc1ccccc1

>  <Energy>  (44) 
75.87418299798433

>  <Genealogy>  (44) 
CCc1[nH+]c(Cc2sc(=S)[n-]c2[O-])c[n-]c1=NC(=O)Cc1ccccc1 (protonated)
CCc1[nH+]c(Cc2sc(=S)[n-]c2[O-])c[n-]c1=NC(=O)Cc1ccccc1 (3D coordinates assigned)
CCc1[nH+]c(Cc2sc(=S)[n-]c2[O-])c[n-]c1=NC(=O)Cc1ccccc1 (optimized conformer: 75.87418299798433 kcal/mol)

>  <smiles>  (44) 
CCc1nc(Cc2sc(=S)[nH]c2O)c[nH]c1=NC(=O)Cc1ccccc1

>  <score_type>  (44) 
oracle

>  <origin>  (44) 
adg

>  <m_score__min__energy>  (44) 
-14.369999999999999

>  <m_primary>  (44) 
energy

$$$$
44:0
     RDKit          3D

 55 58  0  0  1  0  0  0  0  0999 V2000
   57.9920   33.8560   52.1560 O   0  0  0  0  0  0  0  0  0  0  0  0
   57.5500   32.1990   44.3430 C   0  0  0  0  0  0  0  0  0  0  0  0
   59.5480   32.5930   51.1300 N   0  0  0  0  0  0  0  0  0  0  0  0
   58.9370   34.0860   44.5190 C   0  0  0  0  0  0  0  0  0  0  0  0
   57.3620   29.2800   51.9790 O   0  0  0  0  0  0  0  0  0  0  0  0
   59.3130   30.2270   50.9830 C   0  0  0  0  0  0  0  0  0  0  0  0
   59.8770   28.9990   50.4920 C   0  0  0  0  0  0  0  0  0  0  0  0
   60.1750   28.6700   49.3110 N   0  0  0  0  0  0  0  0  0  0  0  0
   59.4900   28.9710   48.1490 C   0  0  0  0  0  0  0  0  0  0  0  0
   59.7070   30.1040   47.3570 C   0  0  0  0  0  0  0  0  0  0  0  0
   58.9660   30.3030   46.1900 C   0  0  0  0  0  0  0  0  0  0  0  0
   58.0040   29.4020   45.7770 C   0  0  0  0  0  0  0  0  0  0  0  0
   57.0570   29.6200   44.3220 S   0  0  0  0  0  0  0  0  0  0  0  0
   57.4470   28.5810   43.2810 O   0  0  0  0  0  0  0  0  0  0  0  0
   55.6030   29.3950   44.6430 O   0  0  0  0  0  0  0  0  0  0  0  0
   57.1900   31.1860   43.6580 N   0  0  0  0  0  0  0  0  0  0  0  0
   60.0280   31.4020   50.7180 C   0  0  0  0  0  0  0  0  0  0  0  0
   57.0480   32.5450   45.5330 N   0  0  0  0  0  0  0  0  0  0  0  0
   57.4130   33.5990   46.2580 C   0  0  0  0  0  0  0  0  0  0  0  0
   58.3980   34.4200   45.7510 C   0  0  0  0  0  0  0  0  0  0  0  0
   58.1390   30.3760   51.6640 C   0  0  0  0  0  0  0  0  0  0  0  0
   57.6940   31.5890   52.0580 N   0  0  0  0  0  0  0  0  0  0  0  0
   57.7890   28.2850   46.5570 C   0  0  0  0  0  0  0  0  0  0  0  0
   58.5090   28.0690   47.7130 C   0  0  0  0  0  0  0  0  0  0  0  0
   58.3840   32.7170   51.8010 C   0  0  0  0  0  0  0  0  0  0  0  0
   61.1200   31.3490   50.0950 O   0  0  0  0  0  0  0  0  0  0  0  0
   58.5170   32.9970   43.8340 N   0  0  0  0  0  0  0  0  0  0  0  0
   60.3380   33.7700   50.8250 C   0  0  0  0  0  0  0  0  0  0  0  0
   60.1300   34.1700   49.3740 C   0  0  0  0  0  0  0  0  0  0  0  0
   61.3380   33.9000   48.5880 C   0  0  0  0  0  0  0  0  0  0  0  0
   62.5650   33.7650   49.2040 C   0  0  0  0  0  0  0  0  0  0  0  0
   63.7330   33.5080   48.4980 C   0  0  0  0  0  0  0  0  0  0  0  0
   63.6320   33.3870   47.1100 C   0  0  0  0  0  0  0  0  0  0  0  0
   62.4250   33.5160   46.4550 C   0  0  0  0  0  0  0  0  0  0  0  0
   61.2810   33.7720   47.1960 C   0  0  0  0  0  0  0  0  0  0  0  0
   58.9760   32.8130   42.9070 H   0  0  0  0  0  0  0  0  0  0  0  0
   57.4740   28.8420   52.8880 H   0  0  0  0  0  0  0  0  0  0  0  0
   60.0780   28.2351   51.2575 H   0  0  0  0  0  0  0  0  0  0  0  0
   60.4658   30.8424   47.6553 H   0  0  0  0  0  0  0  0  0  0  0  0
   59.1535   31.2013   45.5835 H   0  0  0  0  0  0  0  0  0  0  0  0
   56.9441   33.8088   47.2307 H   0  0  0  0  0  0  0  0  0  0  0  0
   58.7428   35.3064   46.3036 H   0  0  0  0  0  0  0  0  0  0  0  0
   59.7248   34.7209   44.0875 H   0  0  0  0  0  0  0  0  0  0  0  0
   56.7880   31.7090   52.5830 H   0  0  0  0  0  0  0  0  0  0  0  0
   57.0281   27.5520   46.2508 H   0  0  0  0  0  0  0  0  0  0  0  0
   58.3086   27.1660   48.3084 H   0  0  0  0  0  0  0  0  0  0  0  0
   60.0274   34.5976   51.4797 H   0  0  0  0  0  0  0  0  0  0  0  0
   61.4020   33.5450   50.9899 H   0  0  0  0  0  0  0  0  0  0  0  0
   59.2906   33.5944   48.9567 H   0  0  0  0  0  0  0  0  0  0  0  0
   59.9107   35.2470   49.3301 H   0  0  0  0  0  0  0  0  0  0  0  0
   62.6204   33.8649   50.2980 H   0  0  0  0  0  0  0  0  0  0  0  0
   64.7000   33.4038   49.0118 H   0  0  0  0  0  0  0  0  0  0  0  0
   64.5399   33.1833   46.5233 H   0  0  0  0  0  0  0  0  0  0  0  0
   62.3706   33.4173   45.3608 H   0  0  0  0  0  0  0  0  0  0  0  0
   60.3143   33.8760   46.6815 H   0  0  0  0  0  0  0  0  0  0  0  0
  1  2  2  0
  2  3  1  0
  3  4  1  0
  4  5  1  0
  4  6  2  0
  6  7  1  0
  7  8  2  0
  8  9  1  0
  9 10  2  0
 10 11  1  0
 11 12  2  0
 12 13  1  0
 13 14  2  0
 13 15  2  0
 13 16  1  0
 16 17  2  3
 17 18  1  0
 18 19  2  0
 19 20  1  0
 20 21  2  0
 21 22  1  0
 12 23  1  0
 23 24  2  0
  6 25  1  0
 25 26  2  0
 25 27  1  0
 27 28  1  0
 28 29  1  0
 29 30  1  0
 30 31  2  0
 31 32  1  0
 32 33  2  0
 33 34  1  0
 34 35  2  0
 27  2  1  0
 35 30  1  0
 24  9  1  0
 22 17  1  0
  3 36  1  0
  5 37  1  0
  7 38  1  0
 10 39  1  0
 11 40  1  0
 19 41  1  0
 20 42  1  0
 21 43  1  0
 22 44  1  0
 23 45  1  0
 24 46  1  0
 28 47  1  0
 28 48  1  0
 29 49  1  0
 29 50  1  0
 31 51  1  0
 32 52  1  0
 33 53  1  0
 34 54  1  0
 35 55  1  0
M  END
>  <smiles>  (45) 
O=c1[nH]c(O)c(C=Nc2ccc(S(=O)(=O)N=c3nccc[nH]3)cc2)c(=O)n1CCc1ccccc1

>  <score_type>  (45) 
oracle

>  <origin>  (45) 
adg

>  <m_score__min__energy>  (45) 
-9.5999999999999996

>  <m_primary>  (45) 
energy

$$$$
45:0
     RDKit          3D

 53 56  0  0  0  0  0  0  0  0999 V2000
   58.1110   27.2400   42.8960 C   0  0  0  0  0  0  0  0  0  0  0  0
   57.7830   26.7340   44.2760 C   0  0  0  0  0  0  0  0  0  0  0  0
   57.8990   25.3590   44.5420 C   0  0  0  0  0  0  0  0  0  0  0  0
   57.6270   24.8580   45.8180 C   0  0  0  0  0  0  0  0  0  0  0  0
   57.2290   25.7210   46.8380 C   0  0  0  0  0  0  0  0  0  0  0  0
   57.0900   27.0880   46.5840 C   0  0  0  0  0  0  0  0  0  0  0  0
   57.3500   27.6060   45.3050 C   0  0  0  0  0  0  0  0  0  0  0  0
   57.1660   29.0120   45.0680 N   0  0  0  0  0  0  0  0  0  0  0  0
   58.1190   29.9650   45.1220 C   0  0  0  0  0  0  0  0  0  0  0  0
   57.5690   31.1920   44.7810 C   0  0  0  0  0  0  0  0  0  0  0  0
   58.2680   32.4930   44.7020 C   0  0  0  0  0  0  0  0  0  0  0  0
   58.0050   33.2640   43.7370 O   0  0  0  0  0  0  0  0  0  0  0  0
   59.2890   32.8530   45.6670 N   0  0  0  0  0  0  0  0  0  0  0  0
   58.7450   32.8750   47.0380 C   0  0  0  0  0  0  0  0  0  0  0  0
   59.8740   33.1130   48.0630 C   0  0  0  0  0  0  0  0  0  0  0  0
   60.9110   34.0690   47.5930 N   0  0  0  0  0  0  0  0  0  0  0  0
   62.1940   33.4170   47.2520 C   0  0  0  0  0  0  0  0  0  0  0  0
   62.8820   32.9350   48.5030 C   0  0  0  0  0  0  0  0  0  0  0  0
   63.7460   33.7860   49.2140 C   0  0  0  0  0  0  0  0  0  0  0  0
   64.3920   33.3330   50.3680 C   0  0  0  0  0  0  0  0  0  0  0  0
   64.1840   32.0280   50.8210 C   0  0  0  0  0  0  0  0  0  0  0  0
   63.3280   31.1730   50.1200 C   0  0  0  0  0  0  0  0  0  0  0  0
   62.6790   31.6210   48.9650 C   0  0  0  0  0  0  0  0  0  0  0  0
   61.8530   30.7750   48.2960 F   0  0  0  0  0  0  0  0  0  0  0  0
   60.4260   34.9480   46.5110 C   0  0  0  0  0  0  0  0  0  0  0  0
   59.9030   34.1520   45.2940 C   0  0  0  0  0  0  0  0  0  0  0  0
   56.2320   30.9730   44.4900 C   0  0  0  0  0  0  0  0  0  0  0  0
   56.0300   29.6220   44.6770 C   0  0  0  0  0  0  0  0  0  0  0  0
   54.8160   28.9700   44.4950 O   0  0  0  0  0  0  0  0  0  0  0  0
   58.7078   28.1606   42.9753 H   0  0  0  0  0  0  0  0  0  0  0  0
   58.6861   26.4759   42.3524 H   0  0  0  0  0  0  0  0  0  0  0  0
   57.1787   27.4530   42.3524 H   0  0  0  0  0  0  0  0  0  0  0  0
   58.2062   24.6719   43.7398 H   0  0  0  0  0  0  0  0  0  0  0  0
   57.7271   23.7809   46.0178 H   0  0  0  0  0  0  0  0  0  0  0  0
   57.0242   25.3254   47.8438 H   0  0  0  0  0  0  0  0  0  0  0  0
   56.7744   27.7638   47.3925 H   0  0  0  0  0  0  0  0  0  0  0  0
   59.1711   29.7952   45.3947 H   0  0  0  0  0  0  0  0  0  0  0  0
   60.0230   32.1090   45.6480 H   0  0  0  0  0  0  0  0  0  0  0  0
   58.0043   33.6840   47.1207 H   0  0  0  0  0  0  0  0  0  0  0  0
   58.2715   31.9048   47.2488 H   0  0  0  0  0  0  0  0  0  0  0  0
   59.4275   33.5102   48.9865 H   0  0  0  0  0  0  0  0  0  0  0  0
   60.3742   32.1465   48.2230 H   0  0  0  0  0  0  0  0  0  0  0  0
   62.0012   32.5598   46.5902 H   0  0  0  0  0  0  0  0  0  0  0  0
   62.8428   34.1456   46.7439 H   0  0  0  0  0  0  0  0  0  0  0  0
   63.9147   34.8139   48.8604 H   0  0  0  0  0  0  0  0  0  0  0  0
   65.0652   34.0052   50.9202 H   0  0  0  0  0  0  0  0  0  0  0  0
   64.6935   31.6731   51.7290 H   0  0  0  0  0  0  0  0  0  0  0  0
   63.1647   30.1457   50.4778 H   0  0  0  0  0  0  0  0  0  0  0  0
   59.6090   35.5719   46.9024 H   0  0  0  0  0  0  0  0  0  0  0  0
   61.2742   35.5605   46.1713 H   0  0  0  0  0  0  0  0  0  0  0  0
   59.1469   34.7607   44.7765 H   0  0  0  0  0  0  0  0  0  0  0  0
   60.7673   33.9329   44.6499 H   0  0  0  0  0  0  0  0  0  0  0  0
   55.4882   31.7200   44.1758 H   0  0  0  0  0  0  0  0  0  0  0  0
  1  2  1  0
  2  3  2  0
  3  4  1  0
  4  5  2  0
  5  6  1  0
  6  7  2  0
  7  8  1  0
  8  9  1  0
  9 10  2  0
 10 11  1  0
 11 12  2  0
 11 13  1  0
 13 14  1  0
 14 15  1  0
 15 16  1  0
 16 17  1  0
 17 18  1  0
 18 19  2  0
 19 20  1  0
 20 21  2  0
 21 22  1  0
 22 23  2  0
 23 24  1  0
 16 25  1  0
 25 26  1  0
 10 27  1  0
 27 28  2  0
 28 29  1  0
  7  2  1  0
 28  8  1  0
 26 13  1  0
 23 18  1  0
  1 30  1  0
  1 31  1  0
  1 32  1  0
  3 33  1  0
  4 34  1  0
  5 35  1  0
  6 36  1  0
  9 37  1  0
 13 38  1  0
 14 39  1  0
 14 40  1  0
 15 41  1  0
 15 42  1  0
 17 43  1  0
 17 44  1  0
 19 45  1  0
 20 46  1  0
 21 47  1  0
 22 48  1  0
 25 49  1  0
 25 50  1  0
 26 51  1  0
 26 52  1  0
 27 53  1  0
M  CHG  2  13   1  29  -1
M  END
>  <UniqueID>  (46) 
45

>  <SMILES>  (46) 
Cc1ccccc1-n1cc(C(=O)[NH+]2CCN(Cc3ccccc3F)CC2)cc1[O-]

>  <Energy>  (46) 
103.95774234089889

>  <Genealogy>  (46) 
Cc1ccccc1-n1cc(C(=O)[NH+]2CCN(Cc3ccccc3F)CC2)cc1[O-] (protonated)
Cc1ccccc1-n1cc(C(=O)[NH+]2CCN(Cc3ccccc3F)CC2)cc1[O-] (3D coordinates assigned)
Cc1ccccc1-n1cc(C(=O)[NH+]2CCN(Cc3ccccc3F)CC2)cc1[O-] (nonaromatic ring conformer: 103.95774234089889 kcal/mol)

>  <smiles>  (46) 
Cc1ccccc1-n1cc(C(=O)N2CCN(Cc3ccccc3F)CC2)cc1O

>  <score_type>  (46) 
oracle

>  <origin>  (46) 
adg

>  <m_score__min__energy>  (46) 
-10.56

>  <m_primary>  (46) 
energy

$$$$
46:0
     RDKit          3D

 66 69  0  0  0  0  0  0  0  0999 V2000
   55.5660   26.6790   45.9830 N   0  0  0  0  0  0  0  0  0  0  0  0
   57.2280   27.1440   45.9060 S   0  0  0  0  0  0  0  0  0  0  0  0
   57.7690   27.3100   47.2970 O   0  0  0  0  0  0  0  0  0  0  0  0
   58.0140   26.0690   45.2060 O   0  0  0  0  0  0  0  0  0  0  0  0
   57.3710   28.6680   45.0340 C   0  0  0  0  0  0  0  0  0  0  0  0
   56.2700   29.2050   44.3520 C   0  0  0  0  0  0  0  0  0  0  0  0
   56.3900   30.4200   43.6680 C   0  0  0  0  0  0  0  0  0  0  0  0
   57.6080   31.1200   43.6760 C   0  0  0  0  0  0  0  0  0  0  0  0
   57.7450   32.4110   42.9230 C   0  0  0  0  0  0  0  0  0  0  0  0
   58.3740   33.4080   43.7830 N   0  0  0  0  0  0  0  0  0  0  0  0
   57.8680   33.8220   45.0590 C   0  0  0  0  0  0  0  0  0  0  0  0
   56.7640   34.4220   45.1070 O   0  0  0  0  0  0  0  0  0  0  0  0
   58.6250   33.6090   46.3090 C   0  0  0  0  0  0  0  0  0  0  0  0
   58.5990   32.3670   46.9600 C   0  0  0  0  0  0  0  0  0  0  0  0
   59.3240   32.1700   48.1380 C   0  0  0  0  0  0  0  0  0  0  0  0
   60.0670   33.2210   48.7010 C   0  0  0  0  0  0  0  0  0  0  0  0
   60.8630   33.0120   49.9330 C   0  0  0  0  0  0  0  0  0  0  0  0
   60.2870   32.5910   50.9730 O   0  0  0  0  0  0  0  0  0  0  0  0
   62.2750   33.2900   49.9770 N   0  0  0  0  0  0  0  0  0  0  0  0
   63.1430   32.9750   48.8320 C   0  0  0  0  0  0  0  0  0  0  0  0
   64.4640   32.3540   49.3110 C   0  0  0  0  0  0  0  0  0  0  0  0
   65.0400   33.1000   50.4410 N   0  0  0  0  0  0  0  0  0  0  0  0
   66.3570   32.7510   50.9050 C   0  0  0  0  0  0  0  0  0  0  0  0
   67.2410   32.4170   50.0690 O   0  0  0  0  0  0  0  0  0  0  0  0
   66.7060   32.7950   52.3710 C   0  0  0  0  0  0  0  0  0  0  0  0
   66.3840   31.4780   53.0940 C   0  0  0  0  0  0  0  0  0  0  0  0
   65.0020   30.9790   52.7510 C   0  0  0  0  0  0  0  0  0  0  0  0
   64.8260   29.9870   51.7710 C   0  0  0  0  0  0  0  0  0  0  0  0
   63.5400   29.5480   51.4360 C   0  0  0  0  0  0  0  0  0  0  0  0
   62.4230   30.0990   52.0730 C   0  0  0  0  0  0  0  0  0  0  0  0
   62.5910   31.0910   53.0420 C   0  0  0  0  0  0  0  0  0  0  0  0
   63.8750   31.5330   53.3800 C   0  0  0  0  0  0  0  0  0  0  0  0
   64.3150   34.2480   51.0050 C   0  0  0  0  0  0  0  0  0  0  0  0
   62.8430   33.8800   51.1990 C   0  0  0  0  0  0  0  0  0  0  0  0
   60.0830   34.4680   48.0530 C   0  0  0  0  0  0  0  0  0  0  0  0
   59.3570   34.6640   46.8740 C   0  0  0  0  0  0  0  0  0  0  0  0
   58.7120   30.5740   44.3520 C   0  0  0  0  0  0  0  0  0  0  0  0
   58.5910   29.3580   45.0310 C   0  0  0  0  0  0  0  0  0  0  0  0
   55.1160   27.0050   45.0960 H   0  0  0  0  0  0  0  0  0  0  0  0
   55.3090   28.6697   44.3546 H   0  0  0  0  0  0  0  0  0  0  0  0
   55.5270   30.8286   43.1218 H   0  0  0  0  0  0  0  0  0  0  0  0
   58.3673   32.2511   42.0302 H   0  0  0  0  0  0  0  0  0  0  0  0
   56.7499   32.7652   42.6159 H   0  0  0  0  0  0  0  0  0  0  0  0
   58.0039   31.5425   46.5404 H   0  0  0  0  0  0  0  0  0  0  0  0
   59.3130   31.1852   48.6280 H   0  0  0  0  0  0  0  0  0  0  0  0
   62.6267   32.2624   48.1720 H   0  0  0  0  0  0  0  0  0  0  0  0
   63.3645   33.9050   48.2879 H   0  0  0  0  0  0  0  0  0  0  0  0
   64.2761   31.3174   49.6274 H   0  0  0  0  0  0  0  0  0  0  0  0
   65.1806   32.3890   48.4772 H   0  0  0  0  0  0  0  0  0  0  0  0
   67.7825   32.9980   52.4711 H   0  0  0  0  0  0  0  0  0  0  0  0
   66.0994   33.5869   52.8346 H   0  0  0  0  0  0  0  0  0  0  0  0
   67.1218   30.7181   52.7968 H   0  0  0  0  0  0  0  0  0  0  0  0
   66.4240   31.6620   54.1778 H   0  0  0  0  0  0  0  0  0  0  0  0
   65.7019   29.5542   51.2656 H   0  0  0  0  0  0  0  0  0  0  0  0
   63.4074   28.7688   50.6710 H   0  0  0  0  0  0  0  0  0  0  0  0
   61.4129   29.7512   51.8109 H   0  0  0  0  0  0  0  0  0  0  0  0
   61.7120   31.5257   53.5405 H   0  0  0  0  0  0  0  0  0  0  0  0
   64.0021   32.3171   54.1410 H   0  0  0  0  0  0  0  0  0  0  0  0
   64.7558   34.5183   51.9759 H   0  0  0  0  0  0  0  0  0  0  0  0
   64.3904   35.1021   50.3159 H   0  0  0  0  0  0  0  0  0  0  0  0
   62.7605   33.1527   52.0201 H   0  0  0  0  0  0  0  0  0  0  0  0
   62.2835   34.7973   51.4346 H   0  0  0  0  0  0  0  0  0  0  0  0
   60.6708   35.2958   48.4763 H   0  0  0  0  0  0  0  0  0  0  0  0
   59.3599   35.6504   46.3871 H   0  0  0  0  0  0  0  0  0  0  0  0
   59.6752   31.1053   44.3470 H   0  0  0  0  0  0  0  0  0  0  0  0
   59.4572   28.9408   45.5654 H   0  0  0  0  0  0  0  0  0  0  0  0
  1  2  1  0
  2  3  2  0
  2  4  2  0
  2  5  1  0
  5  6  2  0
  6  7  1  0
  7  8  2  0
  8  9  1  0
  9 10  1  0
 10 11  1  0
 11 12  2  0
 11 13  1  0
 13 14  2  0
 14 15  1  0
 15 16  2  0
 16 17  1  0
 17 18  2  0
 17 19  1  0
 19 20  1  0
 20 21  1  0
 21 22  1  0
 22 23  1  0
 23 24  2  0
 23 25  1  0
 25 26  1  0
 26 27  1  0
 27 28  2  0
 28 29  1  0
 29 30  2  0
 30 31  1  0
 31 32  2  0
 22 33  1  0
 33 34  1  0
 16 35  1  0
 35 36  2  0
  8 37  1  0
 37 38  2  0
 38  5  1  0
 36 13  1  0
 34 19  1  0
 32 27  1  0
  1 39  1  0
  6 40  1  0
  7 41  1  0
  9 42  1  0
  9 43  1  0
 14 44  1  0
 15 45  1  0
 20 46  1  0
 20 47  1  0
 21 48  1  0
 21 49  1  0
 25 50  1  0
 25 51  1  0
 26 52  1  0
 26 53  1  0
 28 54  1  0
 29 55  1  0
 30 56  1  0
 31 57  1  0
 32 58  1  0
 33 59  1  0
 33 60  1  0
 34 61  1  0
 34 62  1  0
 35 63  1  0
 36 64  1  0
 37 65  1  0
 38 66  1  0
M  CHG  2   1  -1  10  -1
M  END
>  <UniqueID>  (47) 
46

>  <SMILES>  (47) 
[NH-]S(=O)(=O)c1ccc(C[N-]C(=O)c2ccc(C(=O)N3CCN(C(=O)CCc4ccccc4)CC3)cc2)cc1

>  <Energy>  (47) 
76.63831879833431

>  <Genealogy>  (47) 
[NH-]S(=O)(=O)c1ccc(C[N-]C(=O)c2ccc(C(=O)N3CCN(C(=O)CCc4ccccc4)CC3)cc2)cc1 (protonated)
[NH-]S(=O)(=O)c1ccc(C[N-]C(=O)c2ccc(C(=O)N3CCN(C(=O)CCc4ccccc4)CC3)cc2)cc1 (3D coordinates assigned)
[NH-]S(=O)(=O)c1ccc(C[N-]C(=O)c2ccc(C(=O)N3CCN(C(=O)CCc4ccccc4)CC3)cc2)cc1 (nonaromatic ring conformer: 76.63831879833431 kcal/mol)

>  <smiles>  (47) 
NS(=O)(=O)c1ccc(CNC(=O)c2ccc(C(=O)N3CCN(C(=O)CCc4ccccc4)CC3)cc2)cc1

>  <score_type>  (47) 
oracle

>  <origin>  (47) 
adg

>  <m_score__min__energy>  (47) 
-13.44

>  <m_primary>  (47) 
energy

$$$$
47:0
     RDKit          3D

 34 36  0  0  0  0  0  0  0  0999 V2000
   55.1380   28.9830   44.4920 O   0  0  0  0  0  0  0  0  0  0  0  0
   56.2970   29.1520   44.9580 C   0  0  0  0  0  0  0  0  0  0  0  0
   56.8450   28.1990   45.8760 N   0  0  0  0  0  0  0  0  0  0  0  0
   56.7160   26.9000   45.9080 C   0  0  0  0  0  0  0  0  0  0  0  0
   55.4480   26.4080   45.9780 N   0  0  0  0  0  0  0  0  0  0  0  0
   55.1700   25.0790   45.9810 C   0  0  0  0  0  0  0  0  0  0  0  0
   56.2060   24.1520   45.9160 C   0  0  0  0  0  0  0  0  0  0  0  0
   55.8620   22.4330   45.9160 Cl  0  0  0  0  0  0  0  0  0  0  0  0
   57.5240   24.6080   45.8850 C   0  0  0  0  0  0  0  0  0  0  0  0
   57.8030   25.9800   45.8980 C   0  0  0  0  0  0  0  0  0  0  0  0
   59.4980   26.4200   46.1040 Cl  0  0  0  0  0  0  0  0  0  0  0  0
   57.0550   30.3770   44.6110 C   0  0  0  0  0  0  0  0  0  0  0  0
   57.0020   30.9490   43.3250 C   0  0  0  0  0  0  0  0  0  0  0  0
   56.3330   30.3400   42.2610 O   0  0  0  0  0  0  0  0  0  0  0  0
   57.6460   32.1170   43.0880 N   0  0  0  0  0  0  0  0  0  0  0  0
   58.3710   32.7450   44.0450 C   0  0  0  0  0  0  0  0  0  0  0  0
   58.9350   33.8380   43.7650 O   0  0  0  0  0  0  0  0  0  0  0  0
   58.4800   32.2000   45.2960 N   0  0  0  0  0  0  0  0  0  0  0  0
   59.2630   32.8680   46.3070 C   0  0  0  0  0  0  0  0  0  0  0  0
   58.8190   34.0790   46.8640 C   0  0  0  0  0  0  0  0  0  0  0  0
   59.5790   34.7240   47.8440 C   0  0  0  0  0  0  0  0  0  0  0  0
   60.7870   34.1660   48.2740 C   0  0  0  0  0  0  0  0  0  0  0  0
   61.2350   32.9620   47.7250 C   0  0  0  0  0  0  0  0  0  0  0  0
   60.4770   32.3130   46.7440 C   0  0  0  0  0  0  0  0  0  0  0  0
   57.8330   31.0270   45.5890 C   0  0  0  0  0  0  0  0  0  0  0  0
   57.9290   30.5250   46.7450 O   0  0  0  0  0  0  0  0  0  0  0  0
   54.1265   24.7352   46.0348 H   0  0  0  0  0  0  0  0  0  0  0  0
   58.3510   23.8836   45.8500 H   0  0  0  0  0  0  0  0  0  0  0  0
   55.5840   29.6730   42.3850 H   0  0  0  0  0  0  0  0  0  0  0  0
   57.8697   34.5213   46.5276 H   0  0  0  0  0  0  0  0  0  0  0  0
   59.2264   35.6715   48.2774 H   0  0  0  0  0  0  0  0  0  0  0  0
   61.3845   34.6751   49.0446 H   0  0  0  0  0  0  0  0  0  0  0  0
   62.1850   32.5235   48.0644 H   0  0  0  0  0  0  0  0  0  0  0  0
   60.8330   31.3653   46.3138 H   0  0  0  0  0  0  0  0  0  0  0  0
  1  2  2  0
  2  3  1  0
  3  4  2  3
  4  5  1  0
  5  6  1  0
  6  7  2  0
  7  8  1  0
  7  9  1  0
  9 10  2  0
 10 11  1  0
  2 12  1  0
 12 13  2  0
 13 14  1  0
 13 15  1  0
 15 16  1  0
 16 17  2  0
 16 18  1  0
 18 19  1  0
 19 20  2  0
 20 21  1  0
 21 22  2  0
 22 23  1  0
 23 24  2  0
 18 25  1  0
 25 26  2  0
 10  4  1  0
 25 12  1  0
 24 19  1  0
  6 27  1  0
  9 28  1  0
 14 29  1  0
 20 30  1  0
 21 31  1  0
 22 32  1  0
 23 33  1  0
 24 34  1  0
M  CHG  2   5  -1  15  -1
M  END
>  <UniqueID>  (48) 
47

>  <SMILES>  (48) 
O=C(N=c1[n-]cc(Cl)cc1Cl)c1c(O)[n-]c(=O)n(-c2ccccc2)c1=O

>  <Energy>  (48) 
71.70965865412404

>  <Genealogy>  (48) 
O=C(N=c1[n-]cc(Cl)cc1Cl)c1c(O)[n-]c(=O)n(-c2ccccc2)c1=O (protonated)
O=C(N=c1[n-]cc(Cl)cc1Cl)c1c(O)[n-]c(=O)n(-c2ccccc2)c1=O (3D coordinates assigned)
O=C(N=c1[n-]cc(Cl)cc1Cl)c1c(O)[n-]c(=O)n(-c2ccccc2)c1=O (optimized conformer: 71.70965865412404 kcal/mol)

>  <smiles>  (48) 
O=C(N=c1[nH]cc(Cl)cc1Cl)c1c(O)[nH]c(=O)n(-c2ccccc2)c1=O

>  <score_type>  (48) 
oracle

>  <origin>  (48) 
adg

>  <m_score__min__energy>  (48) 
-10.960000000000001

>  <m_primary>  (48) 
energy

$$$$
48:0
     RDKit          3D

 55 58  0  0  0  0  0  0  0  0999 V2000
   56.0000   29.1730   44.4690 O   0  0  0  0  0  0  0  0  0  0  0  0
   56.7370   30.1200   44.8550 C   0  0  0  0  0  0  0  0  0  0  0  0
   56.3060   31.4630   44.6360 N   0  0  0  0  0  0  0  0  0  0  0  0
   57.0910   32.5790   45.0540 C   0  0  0  0  0  0  0  0  0  0  0  0
   56.6340   33.7410   44.8900 O   0  0  0  0  0  0  0  0  0  0  0  0
   58.3860   32.3740   45.6510 N   0  0  0  0  0  0  0  0  0  0  0  0
   59.2030   33.5220   46.0820 C   0  0  0  0  0  0  0  0  0  0  0  0
   59.3880   33.5140   47.5770 C   0  0  0  0  0  0  0  0  0  0  0  0
   58.5690   32.7110   48.3900 C   0  0  0  0  0  0  0  0  0  0  0  0
   58.7320   32.7160   49.7800 C   0  0  0  0  0  0  0  0  0  0  0  0
   59.7100   33.5240   50.3690 C   0  0  0  0  0  0  0  0  0  0  0  0
   59.9330   33.5290   52.2670 Br  0  0  0  0  0  0  0  0  0  0  0  0
   60.5280   34.3280   49.5650 C   0  0  0  0  0  0  0  0  0  0  0  0
   60.3690   34.3230   48.1770 C   0  0  0  0  0  0  0  0  0  0  0  0
   58.9070   31.0340   45.7740 C   0  0  0  0  0  0  0  0  0  0  0  0
   60.1320   30.8670   46.0220 O   0  0  0  0  0  0  0  0  0  0  0  0
   58.0250   29.8580   45.5380 C   0  0  0  0  0  0  0  0  0  0  0  0
   58.3560   28.5910   45.8800 C   0  0  0  0  0  0  0  0  0  0  0  0
   59.0750   28.2000   47.1100 C   0  0  0  0  0  0  0  0  0  0  0  0
   58.9160   28.9620   48.2730 C   0  0  0  0  0  0  0  0  0  0  0  0
   59.6010   28.6180   49.4430 C   0  0  0  0  0  0  0  0  0  0  0  0
   60.4720   27.5110   49.4660 C   0  0  0  0  0  0  0  0  0  0  0  0
   61.1850   27.1040   50.7100 C   0  0  0  0  0  0  0  0  0  0  0  0
   61.4680   25.8870   50.8950 O   0  0  0  0  0  0  0  0  0  0  0  0
   61.5560   28.0870   51.7830 C   0  0  0  0  0  0  0  0  0  0  0  0
   62.5870   28.9890   51.2790 N   0  0  0  0  0  0  0  0  0  0  0  0
   61.9930   30.6190   51.2570 S   0  0  0  0  0  0  0  0  0  0  0  0
   62.5120   31.3480   52.4650 O   0  0  0  0  0  0  0  0  0  0  0  0
   60.4890   30.6280   51.3000 O   0  0  0  0  0  0  0  0  0  0  0  0
   62.5690   31.4380   49.8090 C   0  0  0  0  0  0  0  0  0  0  0  0
   63.5570   32.4320   49.8890 C   0  0  0  0  0  0  0  0  0  0  0  0
   63.9970   33.0810   48.7290 C   0  0  0  0  0  0  0  0  0  0  0  0
   63.4520   32.7430   47.4860 C   0  0  0  0  0  0  0  0  0  0  0  0
   62.4640   31.7570   47.4030 C   0  0  0  0  0  0  0  0  0  0  0  0
   62.0200   31.1090   48.5610 C   0  0  0  0  0  0  0  0  0  0  0  0
   60.6590   26.7780   48.2790 C   0  0  0  0  0  0  0  0  0  0  0  0
   59.9790   27.1270   47.1100 C   0  0  0  0  0  0  0  0  0  0  0  0
   60.1883   33.4664   45.5961 H   0  0  0  0  0  0  0  0  0  0  0  0
   58.6871   34.4502   45.7950 H   0  0  0  0  0  0  0  0  0  0  0  0
   57.7966   32.0760   47.9316 H   0  0  0  0  0  0  0  0  0  0  0  0
   58.0898   32.0834   50.4104 H   0  0  0  0  0  0  0  0  0  0  0  0
   61.2969   34.9644   50.0273 H   0  0  0  0  0  0  0  0  0  0  0  0
   61.0148   34.9554   47.5502 H   0  0  0  0  0  0  0  0  0  0  0  0
   58.0664   27.7878   45.1864 H   0  0  0  0  0  0  0  0  0  0  0  0
   58.2486   29.8364   48.2670 H   0  0  0  0  0  0  0  0  0  0  0  0
   59.4582   29.2177   50.3540 H   0  0  0  0  0  0  0  0  0  0  0  0
   60.6679   28.6689   52.0705 H   0  0  0  0  0  0  0  0  0  0  0  0
   61.9387   27.5456   52.6608 H   0  0  0  0  0  0  0  0  0  0  0  0
   63.9865   32.7016   50.8652 H   0  0  0  0  0  0  0  0  0  0  0  0
   64.7727   33.8581   48.7953 H   0  0  0  0  0  0  0  0  0  0  0  0
   63.8001   33.2521   46.5751 H   0  0  0  0  0  0  0  0  0  0  0  0
   62.0351   31.4903   46.4258 H   0  0  0  0  0  0  0  0  0  0  0  0
   61.2376   30.3388   48.4923 H   0  0  0  0  0  0  0  0  0  0  0  0
   61.3483   25.9208   48.2720 H   0  0  0  0  0  0  0  0  0  0  0  0
   60.1530   26.5579   46.1849 H   0  0  0  0  0  0  0  0  0  0  0  0
  1  2  2  0
  2  3  1  0
  3  4  1  0
  4  5  2  0
  4  6  1  0
  6  7  1  0
  7  8  1  0
  8  9  2  0
  9 10  1  0
 10 11  2  0
 11 12  1  0
 11 13  1  0
 13 14  2  0
  6 15  1  0
 15 16  2  0
 15 17  1  0
 17 18  2  3
 18 19  1  0
 19 20  2  0
 20 21  1  0
 21 22  2  0
 22 23  1  0
 23 24  2  0
 23 25  1  0
 25 26  1  0
 26 27  1  0
 27 28  2  0
 27 29  2  0
 27 30  1  0
 30 31  2  0
 31 32  1  0
 32 33  2  0
 33 34  1  0
 34 35  2  0
 22 36  1  0
 36 37  2  0
 17  2  1  0
 37 19  1  0
 14  8  1  0
 35 30  1  0
  7 38  1  0
  7 39  1  0
  9 40  1  0
 10 41  1  0
 13 42  1  0
 14 43  1  0
 18 44  1  0
 20 45  1  0
 21 46  1  0
 25 47  1  0
 25 48  1  0
 31 49  1  0
 32 50  1  0
 33 51  1  0
 34 52  1  0
 35 53  1  0
 36 54  1  0
 37 55  1  0
M  CHG  2   3  -1  26  -1
M  END
>  <UniqueID>  (49) 
48

>  <SMILES>  (49) 
O=C1[N-]C(=O)N(Cc2ccc(Br)cc2)C(=O)C1=Cc1ccc(C(=O)C[N-]S(=O)(=O)c2ccccc2)cc1

>  <Energy>  (49) 
67.88977622912455

>  <Genealogy>  (49) 
O=C1[N-]C(=O)N(Cc2ccc(Br)cc2)C(=O)C1=Cc1ccc(C(=O)C[N-]S(=O)(=O)c2ccccc2)cc1 (protonated)
O=C1[N-]C(=O)N(Cc2ccc(Br)cc2)C(=O)C1=Cc1ccc(C(=O)C[N-]S(=O)(=O)c2ccccc2)cc1 (3D coordinates assigned)
O=C1[N-]C(=O)N(Cc2ccc(Br)cc2)C(=O)C1=Cc1ccc(C(=O)C[N-]S(=O)(=O)c2ccccc2)cc1 (nonaromatic ring conformer: 67.88977622912455 kcal/mol)

>  <smiles>  (49) 
O=C1NC(=O)N(Cc2ccc(Br)cc2)C(=O)C1=Cc1ccc(C(=O)CNS(=O)(=O)c2ccccc2)cc1

>  <score_type>  (49) 
oracle

>  <origin>  (49) 
adg

>  <m_score__min__energy>  (49) 
-13.699999999999999

>  <m_primary>  (49) 
energy

$$$$
49:0
     RDKit          3D

 52 55  0  0  0  0  0  0  0  0999 V2000
   59.8160   34.1620   49.7250 O   0  0  0  0  0  0  0  0  0  0  0  0
   60.4360   33.7920   48.6890 C   0  0  0  0  0  0  0  0  0  0  0  0
   59.6660   33.4220   47.4810 C   0  0  0  0  0  0  0  0  0  0  0  0
   58.6640   32.4420   47.5540 C   0  0  0  0  0  0  0  0  0  0  0  0
   57.9350   32.0900   46.4140 C   0  0  0  0  0  0  0  0  0  0  0  0
   58.1860   32.7160   45.1830 C   0  0  0  0  0  0  0  0  0  0  0  0
   57.4310   32.3140   44.0270 N   0  0  0  0  0  0  0  0  0  0  0  0
   56.7770   30.7210   43.8030 S   0  0  0  0  0  0  0  0  0  0  0  0
   56.6180   30.4650   42.3300 O   0  0  0  0  0  0  0  0  0  0  0  0
   55.4280   30.6450   44.4620 O   0  0  0  0  0  0  0  0  0  0  0  0
   57.8360   29.5170   44.5410 C   0  0  0  0  0  0  0  0  0  0  0  0
   59.2280   29.6980   44.4970 C   0  0  0  0  0  0  0  0  0  0  0  0
   60.0800   28.7450   45.0650 C   0  0  0  0  0  0  0  0  0  0  0  0
   59.5480   27.6110   45.6850 C   0  0  0  0  0  0  0  0  0  0  0  0
   58.1630   27.4310   45.7430 C   0  0  0  0  0  0  0  0  0  0  0  0
   57.3060   28.3810   45.1760 C   0  0  0  0  0  0  0  0  0  0  0  0
   55.9650   28.1910   45.2530 F   0  0  0  0  0  0  0  0  0  0  0  0
   59.1680   33.7210   45.1200 C   0  0  0  0  0  0  0  0  0  0  0  0
   59.8980   34.0710   46.2590 C   0  0  0  0  0  0  0  0  0  0  0  0
   61.8740   33.7270   48.7110 N   0  0  0  0  0  0  0  0  0  0  0  0
   62.5550   32.5230   48.2070 C   0  0  0  0  0  0  0  0  0  0  0  0
   64.0560   32.5430   48.5220 C   0  0  0  0  0  0  0  0  0  0  0  0
   64.2870   32.9630   49.9140 N   0  0  0  0  0  0  0  0  0  0  0  0
   65.3480   32.3590   50.6850 C   0  0  0  0  0  0  0  0  0  0  0  0
   66.2140   31.6420   50.1130 O   0  0  0  0  0  0  0  0  0  0  0  0
   65.4740   32.6100   52.1620 C   0  0  0  0  0  0  0  0  0  0  0  0
   66.2590   33.8580   52.5440 C   0  0  0  0  0  0  0  0  0  0  0  0
   66.8930   32.4880   52.6980 C   0  0  0  0  0  0  0  0  0  0  0  0
   63.5390   34.1050   50.4690 C   0  0  0  0  0  0  0  0  0  0  0  0
   62.6440   34.7580   49.4140 C   0  0  0  0  0  0  0  0  0  0  0  0
   58.4510   31.9481   48.5135 H   0  0  0  0  0  0  0  0  0  0  0  0
   57.1573   31.3151   46.4825 H   0  0  0  0  0  0  0  0  0  0  0  0
   57.1830   33.0310   43.3090 H   0  0  0  0  0  0  0  0  0  0  0  0
   59.6496   30.5920   44.0143 H   0  0  0  0  0  0  0  0  0  0  0  0
   61.1699   28.8883   45.0236 H   0  0  0  0  0  0  0  0  0  0  0  0
   60.2192   26.8601   46.1273 H   0  0  0  0  0  0  0  0  0  0  0  0
   57.7457   26.5404   46.2356 H   0  0  0  0  0  0  0  0  0  0  0  0
   59.3628   34.2352   44.1673 H   0  0  0  0  0  0  0  0  0  0  0  0
   60.6604   34.8615   46.1970 H   0  0  0  0  0  0  0  0  0  0  0  0
   62.1045   31.6363   48.6768 H   0  0  0  0  0  0  0  0  0  0  0  0
   62.4356   32.4953   47.1139 H   0  0  0  0  0  0  0  0  0  0  0  0
   64.4698   31.5344   48.3751 H   0  0  0  0  0  0  0  0  0  0  0  0
   64.5505   33.2586   47.8486 H   0  0  0  0  0  0  0  0  0  0  0  0
   64.4914   32.1978   52.4352 H   0  0  0  0  0  0  0  0  0  0  0  0
   66.6157   34.5441   51.7617 H   0  0  0  0  0  0  0  0  0  0  0  0
   66.0827   34.7127   53.2136 H   0  0  0  0  0  0  0  0  0  0  0  0
   67.7094   32.1817   52.0274 H   0  0  0  0  0  0  0  0  0  0  0  0
   67.3664   31.9396   53.5257 H   0  0  0  0  0  0  0  0  0  0  0  0
   62.9113   33.7507   51.2999 H   0  0  0  0  0  0  0  0  0  0  0  0
   64.2644   34.8551   50.8169 H   0  0  0  0  0  0  0  0  0  0  0  0
   61.9530   35.4594   49.9044 H   0  0  0  0  0  0  0  0  0  0  0  0
   63.2705   35.3007   48.6908 H   0  0  0  0  0  0  0  0  0  0  0  0
  1  2  2  0
  2  3  1  0
  3  4  2  0
  4  5  1  0
  5  6  2  0
  6  7  1  0
  7  8  1  0
  8  9  2  0
  8 10  2  0
  8 11  1  0
 11 12  2  0
 12 13  1  0
 13 14  2  0
 14 15  1  0
 15 16  2  0
 16 17  1  0
  6 18  1  0
 18 19  2  0
  2 20  1  0
 20 21  1  0
 21 22  1  0
 22 23  1  0
 23 24  1  0
 24 25  2  0
 24 26  1  0
 26 27  1  0
 27 28  1  0
 23 29  1  0
 29 30  1  0
 19  3  1  0
 30 20  1  0
 16 11  1  0
 28 26  1  0
  4 31  1  0
  5 32  1  0
  7 33  1  0
 12 34  1  0
 13 35  1  0
 14 36  1  0
 15 37  1  0
 18 38  1  0
 19 39  1  0
 21 40  1  0
 21 41  1  0
 22 42  1  0
 22 43  1  0
 26 44  1  0
 27 45  1  0
 27 46  1  0
 28 47  1  0
 28 48  1  0
 29 49  1  0
 29 50  1  0
 30 51  1  0
 30 52  1  0
M  END
>  <UniqueID>  (50) 
49

>  <SMILES>  (50) 
O=C(c1ccc(NS(=O)(=O)c2ccccc2F)cc1)N1CCN(C(=O)C2CC2)CC1

>  <Energy>  (50) 
326.45632138142014

>  <Genealogy>  (50) 
O=C(c1ccc(NS(=O)(=O)c2ccccc2F)cc1)N1CCN(C(=O)C2CC2)CC1 (3D coordinates assigned)
O=C(c1ccc(NS(=O)(=O)c2ccccc2F)cc1)N1CCN(C(=O)C2CC2)CC1 (nonaromatic ring conformer: 326.45632138142014 kcal/mol)

>  <smiles>  (50) 
O=C(c1ccc(NS(=O)(=O)c2ccccc2F)cc1)N1CCN(C(=O)C2CC2)CC1

>  <score_type>  (50) 
oracle

>  <origin>  (50) 
adg

>  <m_score__min__energy>  (50) 
-9.5199999999999996

>  <m_primary>  (50) 
energy

$$$$
50:0
     RDKit          3D

 51 54  0  0  0  0  0  0  0  0999 V2000
   60.2800   30.0393   47.9424 H   0  0  0  0  0  0  0  0  0  0  0  0
   59.8750   29.2740   47.2640 C   0  0  0  0  0  0  0  0  0  0  0  0
   60.0791   28.2095   47.4513 H   0  0  0  0  0  0  0  0  0  0  0  0
   59.1320   29.6390   46.2080 C   0  0  0  0  0  0  0  0  0  0  0  0
   58.5420   28.7990   45.2490 C   0  0  0  0  0  0  0  0  0  0  0  0
   58.3950   27.4600   45.2150 C   0  0  0  0  0  0  0  0  0  0  0  0
   59.2517   26.8696   44.8580 H   0  0  0  0  0  0  0  0  0  0  0  0
   57.1880   26.7190   45.6140 C   0  0  0  0  0  0  0  0  0  0  0  0
   57.1900   25.4930   46.1720 N   0  0  0  0  0  0  0  0  0  0  0  0
   55.8930   25.2940   46.4910 C   0  0  0  0  0  0  0  0  0  0  0  0
   55.4830   24.2320   47.0280 O   0  0  0  0  0  0  0  0  0  0  0  0
   55.0730   26.3260   46.1990 N   0  0  0  0  0  0  0  0  0  0  0  0
   55.9120   27.2230   45.6590 C   0  0  0  0  0  0  0  0  0  0  0  0
   55.5200   28.4820   45.2200 O   0  0  0  0  0  0  0  0  0  0  0  0
   58.0620   29.6300   44.2500 C   0  0  0  0  0  0  0  0  0  0  0  0
   57.5729   29.3160   43.3161 H   0  0  0  0  0  0  0  0  0  0  0  0
   58.3140   30.9260   44.6490 C   0  0  0  0  0  0  0  0  0  0  0  0
   57.9330   32.1510   43.8770 C   0  0  0  0  0  0  0  0  0  0  0  0
   57.6809   32.9616   44.5765 H   0  0  0  0  0  0  0  0  0  0  0  0
   58.7767   32.4624   43.2436 H   0  0  0  0  0  0  0  0  0  0  0  0
   57.0615   31.9290   43.2436 H   0  0  0  0  0  0  0  0  0  0  0  0
   58.9470   30.9320   45.8420 N   0  0  0  0  0  0  0  0  0  0  0  0
   59.4180   32.1070   46.5250 C   0  0  0  0  0  0  0  0  0  0  0  0
   60.7850   32.2560   46.8030 C   0  0  0  0  0  0  0  0  0  0  0  0
   61.4928   31.4710   46.4983 H   0  0  0  0  0  0  0  0  0  0  0  0
   61.2570   33.4010   47.4680 C   0  0  0  0  0  0  0  0  0  0  0  0
   62.7030   33.5570   47.7520 C   0  0  0  0  0  0  0  0  0  0  0  0
   63.4180   34.2420   46.9690 O   0  0  0  0  0  0  0  0  0  0  0  0
   63.3040   32.9650   48.9150 N   0  0  0  0  0  0  0  0  0  0  0  0
   64.1120   33.7970   49.8230 C   0  0  0  0  0  0  0  0  0  0  0  0
   63.4723   34.1895   50.6272 H   0  0  0  0  0  0  0  0  0  0  0  0
   64.5497   34.6347   49.2602 H   0  0  0  0  0  0  0  0  0  0  0  0
   65.2080   32.9690   50.4170 C   0  0  0  0  0  0  0  0  0  0  0  0
   66.3340   33.4830   50.6570 O   0  0  0  0  0  0  0  0  0  0  0  0
   64.9430   31.5950   50.7240 N   0  0  0  0  0  0  0  0  0  0  0  0
   66.0210   30.7040   51.1540 C   0  0  0  0  0  0  0  0  0  0  0  0
   66.0562   30.6749   52.2531 H   0  0  0  0  0  0  0  0  0  0  0  0
   65.8364   29.6913   50.7661 H   0  0  0  0  0  0  0  0  0  0  0  0
   66.9808   31.0759   50.7661 H   0  0  0  0  0  0  0  0  0  0  0  0
   63.5630   31.1200   50.5870 C   0  0  0  0  0  0  0  0  0  0  0  0
   62.9533   31.5368   51.4022 H   0  0  0  0  0  0  0  0  0  0  0  0
   63.5567   30.0211   50.6352 H   0  0  0  0  0  0  0  0  0  0  0  0
   62.9770   31.5640   49.2380 C   0  0  0  0  0  0  0  0  0  0  0  0
   61.8829   31.4567   49.2760 H   0  0  0  0  0  0  0  0  0  0  0  0
   63.4183   30.9285   48.4561 H   0  0  0  0  0  0  0  0  0  0  0  0
   60.3430   34.4070   47.8280 C   0  0  0  0  0  0  0  0  0  0  0  0
   60.7018   35.3158   48.3334 H   0  0  0  0  0  0  0  0  0  0  0  0
   58.9820   34.2600   47.5480 C   0  0  0  0  0  0  0  0  0  0  0  0
   58.2739   35.0495   47.8401 H   0  0  0  0  0  0  0  0  0  0  0  0
   58.5180   33.1150   46.8990 C   0  0  0  0  0  0  0  0  0  0  0  0
   57.1930   32.9790   46.6420 F   0  0  0  0  0  0  0  0  0  0  0  0
  1  2  1  0
  2  3  1  0
  2  4  2  0
  4  5  1  0
  5  6  2  0
  6  7  1  0
  6  8  1  0
  8  9  1  0
  9 10  1  0
 10 11  2  0
 10 12  1  0
 12 13  1  0
 13 14  1  0
  5 15  1  0
 15 16  1  0
 15 17  2  0
 17 18  1  0
 18 19  1  0
 18 20  1  0
 18 21  1  0
 17 22  1  0
 22 23  1  0
 23 24  2  0
 24 25  1  0
 24 26  1  0
 26 27  1  0
 27 28  2  0
 27 29  1  0
 29 30  1  0
 30 31  1  0
 30 32  1  0
 30 33  1  0
 33 34  2  0
 33 35  1  0
 35 36  1  0
 36 37  1  0
 36 38  1  0
 36 39  1  0
 35 40  1  0
 40 41  1  0
 40 42  1  0
 40 43  1  0
 43 44  1  0
 43 45  1  0
 26 46  2  0
 46 47  1  0
 46 48  1  0
 48 49  1  0
 48 50  2  0
 50 51  1  0
 22  4  1  0
 50 23  1  0
 13  8  2  0
 43 29  1  0
M  CHG  3   9  -1  12  -1  14  -1
M  END
>  <UniqueID>  (51) 
50

>  <SMILES>  (51) 
C=c1/c(=C\c2[n-]c(=O)[n-]c2[O-])cc(C)n1-c1cc(C(=O)N2CCN(C)C(=O)C2)ccc1F

>  <Energy>  (51) 
133.3607339794669

>  <Genealogy>  (51) 
C=c1c(=Cc2[n-]c(=O)[n-]c2[O-])cc(C)n1-c1cc(C(=O)N2CCN(C)C(=O)C2)ccc1F (protonated)
C=c1/c(=C\c2[n-]c(=O)[n-]c2[O-])cc(C)n1-c1cc(C(=O)N2CCN(C)C(=O)C2)ccc1F (cis-trans isomerization)
C=c1/c(=C\c2[n-]c(=O)[n-]c2[O-])cc(C)n1-c1cc(C(=O)N2CCN(C)C(=O)C2)ccc1F (3D coordinates assigned)
C=c1/c(=C\c2[n-]c(=O)[n-]c2[O-])cc(C)n1-c1cc(C(=O)N2CCN(C)C(=O)C2)ccc1F (nonaromatic ring conformer: 133.3607339794669 kcal/mol)

>  <smiles>  (51) 
C=c1c(=Cc2[nH]c(=O)[nH]c2O)cc(C)n1-c1cc(C(=O)N2CCN(C)C(=O)C2)ccc1F

>  <score_type>  (51) 
oracle

>  <origin>  (51) 
adg

>  <m_score__min__energy>  (51) 
-17.09

>  <m_primary>  (51) 
energy

$$$$
51:0
     RDKit          3D

 44 46  0  0  0  0  0  0  0  0999 V2000
   60.0170   27.6760   48.1040 C   0  0  0  0  0  0  0  0  0  0  0  0
   59.4110   28.1280   46.8180 C   0  0  0  0  0  0  0  0  0  0  0  0
   58.1480   28.6820   46.6670 C   0  0  0  0  0  0  0  0  0  0  0  0
   57.8840   29.1090   45.3570 C   0  0  0  0  0  0  0  0  0  0  0  0
   56.6000   29.7160   44.9490 C   0  0  0  0  0  0  0  0  0  0  0  0
   55.5720   28.9910   44.8690 O   0  0  0  0  0  0  0  0  0  0  0  0
   56.4980   31.1000   44.5940 N   0  0  0  0  0  0  0  0  0  0  0  0
   57.3950   32.1340   45.0270 C   0  0  0  0  0  0  0  0  0  0  0  0
   57.8140   33.1030   44.1090 C   0  0  0  0  0  0  0  0  0  0  0  0
   58.6950   34.1140   44.5060 C   0  0  0  0  0  0  0  0  0  0  0  0
   59.1520   34.1690   45.8250 C   0  0  0  0  0  0  0  0  0  0  0  0
   58.7150   33.2240   46.7610 C   0  0  0  0  0  0  0  0  0  0  0  0
   59.2970   33.2930   48.4240 S   0  0  0  0  0  0  0  0  0  0  0  0
   59.4720   34.7350   48.8150 O   0  0  0  0  0  0  0  0  0  0  0  0
   58.2830   32.6710   49.3450 O   0  0  0  0  0  0  0  0  0  0  0  0
   60.8240   32.4520   48.5580 N   0  0  0  0  0  0  0  0  0  0  0  0
   61.9070   33.3790   48.9890 C   0  0  0  0  0  0  0  0  0  0  0  0
   62.7890   33.8530   47.8250 C   0  0  0  0  0  0  0  0  0  0  0  0
   63.4550   32.6620   47.1150 C   0  0  0  0  0  0  0  0  0  0  0  0
   62.5950   31.3870   47.1580 C   0  0  0  0  0  0  0  0  0  0  0  0
   61.1060   31.7320   47.2920 C   0  0  0  0  0  0  0  0  0  0  0  0
   57.8290   32.2130   46.3620 C   0  0  0  0  0  0  0  0  0  0  0  0
   58.9450   28.8870   44.4790 C   0  0  0  0  0  0  0  0  0  0  0  0
   60.2050   28.1760   45.3380 S   0  0  0  0  0  0  0  0  0  0  0  0
   59.4493   28.0994   48.9457 H   0  0  0  0  0  0  0  0  0  0  0  0
   59.9873   26.5777   48.1573 H   0  0  0  0  0  0  0  0  0  0  0  0
   61.0613   28.0176   48.1573 H   0  0  0  0  0  0  0  0  0  0  0  0
   57.4262   28.7769   47.4916 H   0  0  0  0  0  0  0  0  0  0  0  0
   57.4494   33.0696   43.0717 H   0  0  0  0  0  0  0  0  0  0  0  0
   59.0290   34.8678   43.7778 H   0  0  0  0  0  0  0  0  0  0  0  0
   59.8570   34.9568   46.1289 H   0  0  0  0  0  0  0  0  0  0  0  0
   60.7000   31.7360   49.3120 H   0  0  0  0  0  0  0  0  0  0  0  0
   61.4473   34.2595   49.4617 H   0  0  0  0  0  0  0  0  0  0  0  0
   62.5530   32.8280   49.6884 H   0  0  0  0  0  0  0  0  0  0  0  0
   62.1663   34.4000   47.1018 H   0  0  0  0  0  0  0  0  0  0  0  0
   63.5777   34.5058   48.2272 H   0  0  0  0  0  0  0  0  0  0  0  0
   63.6302   32.9327   46.0633 H   0  0  0  0  0  0  0  0  0  0  0  0
   64.3958   32.4454   47.6422 H   0  0  0  0  0  0  0  0  0  0  0  0
   62.7501   30.8171   46.2300 H   0  0  0  0  0  0  0  0  0  0  0  0
   62.8964   30.7904   48.0317 H   0  0  0  0  0  0  0  0  0  0  0  0
   60.8095   32.3688   46.4455 H   0  0  0  0  0  0  0  0  0  0  0  0
   60.5341   30.7923   47.2959 H   0  0  0  0  0  0  0  0  0  0  0  0
   57.4715   31.4775   47.0977 H   0  0  0  0  0  0  0  0  0  0  0  0
   58.9560   29.1347   43.4073 H   0  0  0  0  0  0  0  0  0  0  0  0
  1  2  1  0
  2  3  2  0
  3  4  1  0
  4  5  1  0
  5  6  2  0
  5  7  1  0
  7  8  1  0
  8  9  2  0
  9 10  1  0
 10 11  2  0
 11 12  1  0
 12 13  1  0
 13 14  2  0
 13 15  2  0
 13 16  1  0
 16 17  1  0
 17 18  1  0
 18 19  1  0
 19 20  1  0
 20 21  1  0
 12 22  2  0
  4 23  2  0
 23 24  1  0
 24  2  1  0
 22  8  1  0
 21 16  1  0
  1 25  1  0
  1 26  1  0
  1 27  1  0
  3 28  1  0
  9 29  1  0
 10 30  1  0
 11 31  1  0
 16 32  1  0
 17 33  1  0
 17 34  1  0
 18 35  1  0
 18 36  1  0
 19 37  1  0
 19 38  1  0
 20 39  1  0
 20 40  1  0
 21 41  1  0
 21 42  1  0
 22 43  1  0
 23 44  1  0
M  CHG  2   7  -1  16   1
M  END
>  <UniqueID>  (52) 
51

>  <SMILES>  (52) 
Cc1cc(C(=O)[N-]c2cccc(S(=O)(=O)[NH+]3CCCCC3)c2)cs1

>  <Energy>  (52) 
77.33550577163993

>  <Genealogy>  (52) 
Cc1cc(C(=O)[N-]c2cccc(S(=O)(=O)[NH+]3CCCCC3)c2)cs1 (protonated)
Cc1cc(C(=O)[N-]c2cccc(S(=O)(=O)[NH+]3CCCCC3)c2)cs1 (3D coordinates assigned)
Cc1cc(C(=O)[N-]c2cccc(S(=O)(=O)[NH+]3CCCCC3)c2)cs1 (nonaromatic ring conformer: 77.33550577163993 kcal/mol)

>  <smiles>  (52) 
Cc1cc(C(=O)Nc2cccc(S(=O)(=O)N3CCCCC3)c2)cs1

>  <score_type>  (52) 
oracle

>  <origin>  (52) 
adg

>  <m_score__min__energy>  (52) 
-9.7699999999999996

>  <m_primary>  (52) 
energy

$$$$
52:0
     RDKit          3D

 49 51  0  0  0  0  0  0  0  0999 V2000
   59.6240   35.2950   45.1990 C   0  0  0  0  0  0  0  0  0  0  0  0
   59.3460   34.5970   46.4990 C   0  0  0  0  0  0  0  0  0  0  0  0
   58.1580   33.8800   46.6650 C   0  0  0  0  0  0  0  0  0  0  0  0
   57.9420   33.1380   47.8220 C   0  0  0  0  0  0  0  0  0  0  0  0
   58.9030   33.1070   48.8490 C   0  0  0  0  0  0  0  0  0  0  0  0
   58.6720   32.1730   50.0110 C   0  0  0  0  0  0  0  0  0  0  0  0
   60.0820   33.8940   48.7270 C   0  0  0  0  0  0  0  0  0  0  0  0
   61.1540   33.9470   49.8170 C   0  0  0  0  0  0  0  0  0  0  0  0
   62.1160   32.8100   49.8110 N   0  0  1  0  0  0  0  0  0  0  0  0
   61.5460   31.5310   50.3420 C   0  0  0  0  0  0  0  0  0  0  0  0
   61.6340   30.3440   49.3720 C   0  0  0  0  0  0  0  0  0  0  0  0
   61.3370   30.8010   48.0140 N   0  0  0  0  0  0  0  0  0  0  0  0
   60.2440   30.2610   47.2390 C   0  0  0  0  0  0  0  0  0  0  0  0
   59.8730   30.8500   46.0160 C   0  0  0  0  0  0  0  0  0  0  0  0
   58.7870   30.3570   45.2890 C   0  0  0  0  0  0  0  0  0  0  0  0
   58.0580   29.2610   45.7650 C   0  0  0  0  0  0  0  0  0  0  0  0
   56.6630   28.6670   44.8700 S   0  0  0  0  0  0  0  0  0  0  0  0
   56.0680   27.2300   45.6220 N   0  0  0  0  0  0  0  0  0  0  0  0
   55.5830   29.7120   44.8620 O   0  0  0  0  0  0  0  0  0  0  0  0
   57.0560   28.3680   43.4520 O   0  0  0  0  0  0  0  0  0  0  0  0
   58.4200   28.6670   46.9790 C   0  0  0  0  0  0  0  0  0  0  0  0
   59.5020   29.1610   47.7110 C   0  0  0  0  0  0  0  0  0  0  0  0
   62.2580   31.7850   47.4440 C   0  0  0  0  0  0  0  0  0  0  0  0
   62.7940   32.6830   48.5300 C   0  0  0  0  0  0  0  0  0  0  0  0
   63.8150   33.3220   48.3150 O   0  0  0  0  0  0  0  0  0  0  0  0
   60.3060   34.5880   47.5200 C   0  0  0  0  0  0  0  0  0  0  0  0
   60.0241   36.2996   45.4005 H   0  0  0  0  0  0  0  0  0  0  0  0
   60.3602   34.7160   44.6221 H   0  0  0  0  0  0  0  0  0  0  0  0
   58.6914   35.3807   44.6221 H   0  0  0  0  0  0  0  0  0  0  0  0
   57.3903   33.9024   45.8775 H   0  0  0  0  0  0  0  0  0  0  0  0
   57.0078   32.5683   47.9352 H   0  0  0  0  0  0  0  0  0  0  0  0
   58.8076   32.7214   50.9548 H   0  0  0  0  0  0  0  0  0  0  0  0
   57.6481   31.7739   49.9627 H   0  0  0  0  0  0  0  0  0  0  0  0
   59.3918   31.3426   49.9627 H   0  0  0  0  0  0  0  0  0  0  0  0
   61.7256   34.8780   49.6882 H   0  0  0  0  0  0  0  0  0  0  0  0
   60.6191   33.8914   50.7766 H   0  0  0  0  0  0  0  0  0  0  0  0
   62.8610   33.0840   50.4980 H   0  0  0  0  0  0  0  0  0  0  0  0
   62.0920   31.2662   51.2595 H   0  0  0  0  0  0  0  0  0  0  0  0
   60.4754   31.7140   50.5164 H   0  0  0  0  0  0  0  0  0  0  0  0
   62.6485   29.9199   49.4025 H   0  0  0  0  0  0  0  0  0  0  0  0
   60.9058   29.5742   49.6674 H   0  0  0  0  0  0  0  0  0  0  0  0
   60.4438   31.7069   45.6288 H   0  0  0  0  0  0  0  0  0  0  0  0
   58.5034   30.8321   44.3383 H   0  0  0  0  0  0  0  0  0  0  0  0
   55.1430   27.4660   46.0450 H   0  0  0  0  0  0  0  0  0  0  0  0
   57.8495   27.8066   47.3588 H   0  0  0  0  0  0  0  0  0  0  0  0
   59.7771   28.6867   48.6646 H   0  0  0  0  0  0  0  0  0  0  0  0
   63.0949   31.2616   46.9587 H   0  0  0  0  0  0  0  0  0  0  0  0
   61.7195   32.3961   46.7047 H   0  0  0  0  0  0  0  0  0  0  0  0
   61.2513   35.1321   47.3773 H   0  0  0  0  0  0  0  0  0  0  0  0
  1  2  1  0
  2  3  2  0
  3  4  1  0
  4  5  2  0
  5  6  1  0
  5  7  1  0
  7  8  1  0
  8  9  1  0
  9 10  1  0
 10 11  1  0
 11 12  1  0
 12 13  1  0
 13 14  2  0
 14 15  1  0
 15 16  2  0
 16 17  1  0
 17 18  1  0
 17 19  2  0
 17 20  2  0
 16 21  1  0
 21 22  2  0
 12 23  1  0
 23 24  1  0
 24 25  2  0
  7 26  2  0
 26  2  1  0
 24  9  1  0
 22 13  1  0
  1 27  1  0
  1 28  1  0
  1 29  1  0
  3 30  1  0
  4 31  1  0
  6 32  1  0
  6 33  1  0
  6 34  1  0
  8 35  1  0
  8 36  1  0
  9 37  1  1
 10 38  1  0
 10 39  1  0
 11 40  1  0
 11 41  1  0
 14 42  1  0
 15 43  1  0
 18 44  1  0
 21 45  1  0
 22 46  1  0
 23 47  1  0
 23 48  1  0
 26 49  1  0
M  CHG  2   9   1  18  -1
M  END
>  <UniqueID>  (53) 
52

>  <SMILES>  (53) 
Cc1ccc(C)c(C[N@H+]2CCN(c3ccc(S([NH-])(=O)=O)cc3)CC2=O)c1

>  <Energy>  (53) 
64.220290118244

>  <Genealogy>  (53) 
Cc1ccc(C)c(C[NH+]2CCN(c3ccc(S([NH-])(=O)=O)cc3)CC2=O)c1 (protonated)
Cc1ccc(C)c(C[N@H+]2CCN(c3ccc(S([NH-])(=O)=O)cc3)CC2=O)c1 (chirality)
Cc1ccc(C)c(C[N@H+]2CCN(c3ccc(S([NH-])(=O)=O)cc3)CC2=O)c1 (3D coordinates assigned)
Cc1ccc(C)c(C[N@H+]2CCN(c3ccc(S([NH-])(=O)=O)cc3)CC2=O)c1 (nonaromatic ring conformer: 64.220290118244 kcal/mol)

>  <smiles>  (53) 
Cc1ccc(C)c(CN2CCN(c3ccc(S(N)(=O)=O)cc3)CC2=O)c1

>  <score_type>  (53) 
oracle

>  <origin>  (53) 
adg

>  <m_score__min__energy>  (53) 
-10.359999999999999

>  <m_primary>  (53) 
energy

$$$$
53:0
     RDKit          3D

 48 50  0  0  0  0  0  0  0  0999 V2000
   53.9880   28.4430   53.4180 C   0  0  0  0  0  0  0  0  0  0  0  0
   54.7540   29.4370   52.9560 C   0  0  0  0  0  0  0  0  0  0  0  0
   56.0950   29.3190   52.8670 N   0  0  0  0  0  0  0  0  0  0  0  0
   56.5460   30.3950   52.1940 C   0  0  0  0  0  0  0  0  0  0  0  0
   57.9630   30.6360   51.8560 C   0  0  0  0  0  0  0  0  0  0  0  0
   58.5390   31.6630   52.3110 O   0  0  0  0  0  0  0  0  0  0  0  0
   58.7080   29.6770   50.9620 C   0  0  0  0  0  0  0  0  0  0  0  0
   58.8360   30.1800   49.5150 C   0  0  0  0  0  0  0  0  0  0  0  0
   58.9310   29.0210   48.5090 C   0  0  0  0  0  0  0  0  0  0  0  0
   59.4630   29.4570   47.1970 N   0  0  0  0  0  0  0  0  0  0  0  0
   58.7950   28.7520   46.0730 C   0  0  0  0  0  0  0  0  0  0  0  0
   58.9000   29.5420   44.7600 C   0  0  0  0  0  0  0  0  0  0  0  0
   58.2730   30.8830   44.8580 N   0  0  0  0  0  0  0  0  0  0  0  0
   56.9300   30.8930   44.2550 C   0  0  0  0  0  0  0  0  0  0  0  0
   58.2210   31.4120   46.2400 C   0  0  0  0  0  0  0  0  0  0  0  0
   59.4260   30.9360   47.0620 C   0  0  0  0  0  0  0  0  0  0  0  0
   55.4950   31.2250   51.8540 C   0  0  0  0  0  0  0  0  0  0  0  0
   54.3470   30.6450   52.3700 C   0  0  0  0  0  0  0  0  0  0  0  0
   53.1320   31.2210   52.2810 C   0  0  0  0  0  0  0  0  0  0  0  0
   52.3180   31.3190   51.0580 C   0  0  0  0  0  0  0  0  0  0  0  0
   52.2900   30.3940   50.0800 N   0  0  0  0  0  0  0  0  0  0  0  0
   51.3120   30.8380   49.2610 C   0  0  0  0  0  0  0  0  0  0  0  0
   50.9910   30.2370   48.2020 O   0  0  0  0  0  0  0  0  0  0  0  0
   50.6980   31.9680   49.6710 N   0  0  0  0  0  0  0  0  0  0  0  0
   51.3370   32.2490   50.8170 C   0  0  0  0  0  0  0  0  0  0  0  0
   51.0280   33.3320   51.6310 O   0  0  0  0  0  0  0  0  0  0  0  0
   52.8972   28.5715   53.4778 H   0  0  0  0  0  0  0  0  0  0  0  0
   54.4487   27.4969   53.7382 H   0  0  0  0  0  0  0  0  0  0  0  0
   56.6670   28.5110   53.2020 H   0  0  0  0  0  0  0  0  0  0  0  0
   59.7179   29.5283   51.3719 H   0  0  0  0  0  0  0  0  0  0  0  0
   58.1335   28.7393   50.9345 H   0  0  0  0  0  0  0  0  0  0  0  0
   57.9537   30.7901   49.2717 H   0  0  0  0  0  0  0  0  0  0  0  0
   59.7608   30.7710   49.4411 H   0  0  0  0  0  0  0  0  0  0  0  0
   59.5965   28.2484   48.9214 H   0  0  0  0  0  0  0  0  0  0  0  0
   57.9149   28.6318   48.3474 H   0  0  0  0  0  0  0  0  0  0  0  0
   59.2706   27.7696   45.9362 H   0  0  0  0  0  0  0  0  0  0  0  0
   57.7291   28.6445   46.3226 H   0  0  0  0  0  0  0  0  0  0  0  0
   59.9630   29.6663   44.5060 H   0  0  0  0  0  0  0  0  0  0  0  0
   58.3648   28.9762   43.9832 H   0  0  0  0  0  0  0  0  0  0  0  0
   56.1707   30.8987   45.0509 H   0  0  0  0  0  0  0  0  0  0  0  0
   56.8146   31.7920   43.6318 H   0  0  0  0  0  0  0  0  0  0  0  0
   56.8012   29.9958   43.6318 H   0  0  0  0  0  0  0  0  0  0  0  0
   58.2232   32.5114   46.2037 H   0  0  0  0  0  0  0  0  0  0  0  0
   57.3034   31.0416   46.7205 H   0  0  0  0  0  0  0  0  0  0  0  0
   60.3485   31.2697   46.5644 H   0  0  0  0  0  0  0  0  0  0  0  0
   59.3380   31.3655   48.0708 H   0  0  0  0  0  0  0  0  0  0  0  0
   55.5574   32.1639   51.2843 H   0  0  0  0  0  0  0  0  0  0  0  0
   52.7125   31.6550   53.2006 H   0  0  0  0  0  0  0  0  0  0  0  0
  1  2  2  0
  2  3  1  0
  3  4  1  0
  4  5  1  0
  5  6  2  0
  5  7  1  0
  7  8  1  0
  8  9  1  0
  9 10  1  0
 10 11  1  0
 11 12  1  0
 12 13  1  0
 13 14  1  0
 13 15  1  0
 15 16  1  0
  4 17  2  0
 17 18  1  0
 18 19  2  3
 19 20  1  0
 20 21  1  0
 21 22  1  0
 22 23  2  0
 22 24  1  0
 24 25  1  0
 25 26  1  0
 18  2  1  0
 25 20  2  0
 16 10  1  0
  1 27  1  0
  1 28  1  0
  3 29  1  0
  7 30  1  0
  7 31  1  0
  8 32  1  0
  8 33  1  0
  9 34  1  0
  9 35  1  0
 11 36  1  0
 11 37  1  0
 12 38  1  0
 12 39  1  0
 14 40  1  0
 14 41  1  0
 14 42  1  0
 15 43  1  0
 15 44  1  0
 16 45  1  0
 16 46  1  0
 17 47  1  0
 19 48  1  0
M  CHG  3  21  -1  24  -1  26  -1
M  END
>  <UniqueID>  (54) 
53

>  <SMILES>  (54) 
C=c1[nH]c(C(=O)CCCN2CCN(C)CC2)cc1=Cc1[n-]c(=O)[n-]c1[O-]

>  <Energy>  (54) 
124.96771344042958

>  <Genealogy>  (54) 
C=c1[nH]c(C(=O)CCCN2CCN(C)CC2)cc1=Cc1[n-]c(=O)[n-]c1[O-] (protonated)
C=c1[nH]c(C(=O)CCCN2CCN(C)CC2)cc1=Cc1[n-]c(=O)[n-]c1[O-] (3D coordinates assigned)
C=c1[nH]c(C(=O)CCCN2CCN(C)CC2)cc1=Cc1[n-]c(=O)[n-]c1[O-] (nonaromatic ring conformer: 124.96771344042958 kcal/mol)

>  <smiles>  (54) 
C=c1[nH]c(C(=O)CCCN2CCN(C)CC2)cc1=Cc1[nH]c(=O)[nH]c1O

>  <score_type>  (54) 
oracle

>  <origin>  (54) 
adg

>  <m_score__min__energy>  (54) 
-17.149999999999999

>  <m_primary>  (54) 
energy

$$$$
54:0
     RDKit          3D

 40 42  0  0  0  0  0  0  0  0999 V2000
   63.2930   33.7400   46.4370 C   0  0  0  0  0  0  0  0  0  0  0  0
   62.5840   33.0970   47.3700 C   0  0  0  0  0  0  0  0  0  0  0  0
   61.8350   33.8410   48.4380 C   0  0  0  0  0  0  0  0  0  0  0  0
   60.3990   33.7860   48.1920 N   0  0  0  0  0  0  0  0  0  0  0  0
   59.7690   34.3530   47.0360 C   0  0  0  0  0  0  0  0  0  0  0  0
   59.8720   35.5900   46.8130 O   0  0  0  0  0  0  0  0  0  0  0  0
   58.9990   33.4920   46.1080 C   0  0  0  0  0  0  0  0  0  0  0  0
   58.1050   34.0570   45.1830 C   0  0  0  0  0  0  0  0  0  0  0  0
   57.3810   33.2430   44.3120 C   0  0  0  0  0  0  0  0  0  0  0  0
   57.5370   31.8560   44.3490 C   0  0  0  0  0  0  0  0  0  0  0  0
   58.4250   31.2650   45.2640 C   0  0  0  0  0  0  0  0  0  0  0  0
   58.6090   29.7950   45.3270 C   0  0  0  0  0  0  0  0  0  0  0  0
   57.7450   28.8220   44.8480 C   0  0  0  0  0  0  0  0  0  0  0  0
   58.3430   27.6010   45.1300 C   0  0  0  0  0  0  0  0  0  0  0  0
   57.8830   26.3690   44.8310 C   0  0  0  0  0  0  0  0  0  0  0  0
   57.2850   25.4300   45.8060 C   0  0  0  0  0  0  0  0  0  0  0  0
   57.8780   24.3140   46.2690 N   0  0  0  0  0  0  0  0  0  0  0  0
   56.9370   23.7580   47.0610 C   0  0  0  0  0  0  0  0  0  0  0  0
   57.1260   22.6830   47.6870 O   0  0  0  0  0  0  0  0  0  0  0  0
   55.7760   24.4410   47.1250 N   0  0  0  0  0  0  0  0  0  0  0  0
   56.0060   25.4940   46.3230 C   0  0  0  0  0  0  0  0  0  0  0  0
   55.0600   26.4880   46.0830 O   0  0  0  0  0  0  0  0  0  0  0  0
   59.5450   27.9190   45.7620 C   0  0  0  0  0  0  0  0  0  0  0  0
   60.4750   27.0790   46.2230 C   0  0  0  0  0  0  0  0  0  0  0  0
   59.6650   29.2220   45.8620 O   0  0  0  0  0  0  0  0  0  0  0  0
   59.1520   32.0910   46.1400 C   0  0  0  0  0  0  0  0  0  0  0  0
   63.8323   33.1701   45.6661 H   0  0  0  0  0  0  0  0  0  0  0  0
   63.3372   34.8391   46.4401 H   0  0  0  0  0  0  0  0  0  0  0  0
   62.5483   31.9977   47.3552 H   0  0  0  0  0  0  0  0  0  0  0  0
   62.0519   33.3855   49.4155 H   0  0  0  0  0  0  0  0  0  0  0  0
   62.1560   34.8931   48.4283 H   0  0  0  0  0  0  0  0  0  0  0  0
   57.9752   35.1487   45.1455 H   0  0  0  0  0  0  0  0  0  0  0  0
   56.6835   33.6961   43.5922 H   0  0  0  0  0  0  0  0  0  0  0  0
   56.9616   31.2223   43.6581 H   0  0  0  0  0  0  0  0  0  0  0  0
   56.7800   28.9847   44.3457 H   0  0  0  0  0  0  0  0  0  0  0  0
   57.9579   26.0375   43.7848 H   0  0  0  0  0  0  0  0  0  0  0  0
   54.3250   26.6980   46.7460 H   0  0  0  0  0  0  0  0  0  0  0  0
   61.3823   27.4732   46.7040 H   0  0  0  0  0  0  0  0  0  0  0  0
   60.3338   25.9928   46.1217 H   0  0  0  0  0  0  0  0  0  0  0  0
   59.8494   31.6377   46.8598 H   0  0  0  0  0  0  0  0  0  0  0  0
  1  2  2  0
  2  3  1  0
  3  4  1  0
  4  5  1  0
  5  6  2  0
  5  7  1  0
  7  8  2  0
  8  9  1  0
  9 10  2  0
 10 11  1  0
 11 12  1  0
 12 13  2  0
 13 14  1  0
 14 15  2  3
 15 16  1  0
 16 17  1  0
 17 18  1  0
 18 19  2  0
 18 20  1  0
 20 21  1  0
 21 22  1  0
 14 23  1  0
 23 24  2  0
 23 25  1  0
 11 26  2  0
 26  7  1  0
 25 12  1  0
 21 16  2  0
  1 27  1  0
  1 28  1  0
  2 29  1  0
  3 30  1  0
  3 31  1  0
  8 32  1  0
  9 33  1  0
 10 34  1  0
 13 35  1  0
 15 36  1  0
 22 37  1  0
 24 38  1  0
 24 39  1  0
 26 40  1  0
M  CHG  3   4  -1  17  -1  20  -1
M  END
>  <UniqueID>  (55) 
54

>  <SMILES>  (55) 
C=CC[N-]C(=O)c1cccc(-c2cc(=Cc3[n-]c(=O)[n-]c3O)c(=C)o2)c1

>  <Energy>  (55) 
100.17723547475495

>  <Genealogy>  (55) 
C=CC[N-]C(=O)c1cccc(-c2cc(=Cc3[n-]c(=O)[n-]c3O)c(=C)o2)c1 (protonated)
C=CC[N-]C(=O)c1cccc(-c2cc(=Cc3[n-]c(=O)[n-]c3O)c(=C)o2)c1 (3D coordinates assigned)
C=CC[N-]C(=O)c1cccc(-c2cc(=Cc3[n-]c(=O)[n-]c3O)c(=C)o2)c1 (optimized conformer: 100.17723547475495 kcal/mol)

>  <smiles>  (55) 
C=CCNC(=O)c1cccc(-c2cc(=Cc3[nH]c(=O)[nH]c3O)c(=C)o2)c1

>  <score_type>  (55) 
oracle

>  <origin>  (55) 
adg

>  <m_score__min__energy>  (55) 
-13.59

>  <m_primary>  (55) 
energy

$$$$
55:0
     RDKit          3D

 71 74  0  0  0  0  0  0  0  0999 V2000
   65.2530   27.9500   52.0120 C   0  0  0  0  0  0  0  0  0  0  0  0
   63.9640   27.2160   52.4080 C   0  0  0  0  0  0  0  0  0  0  0  0
   62.7360   28.0250   52.2400 N   0  0  0  0  0  0  0  0  0  0  0  0
   61.7810   27.4450   51.2720 C   0  0  0  0  0  0  0  0  0  0  0  0
   60.5960   28.3860   51.0430 C   0  0  0  0  0  0  0  0  0  0  0  0
   61.0680   29.6950   50.5730 N   0  0  0  0  0  0  0  0  0  0  0  0
   60.1860   30.5490   49.8120 C   0  0  0  0  0  0  0  0  0  0  0  0
   59.2900   31.4160   50.4630 C   0  0  0  0  0  0  0  0  0  0  0  0
   58.4540   32.2590   49.7250 C   0  0  0  0  0  0  0  0  0  0  0  0
   58.5030   32.2540   48.3230 C   0  0  0  0  0  0  0  0  0  0  0  0
   57.5880   33.1520   47.5310 C   0  0  0  0  0  0  0  0  0  0  0  0
   57.6770   32.9040   46.0450 C   0  0  0  0  0  0  0  0  0  0  0  0
   57.6590   31.7280   45.5930 O   0  0  0  0  0  0  0  0  0  0  0  0
   57.8130   33.9910   45.1230 N   0  0  0  0  0  0  0  0  0  0  0  0
   59.0700   34.6750   44.8510 C   0  0  0  0  0  0  0  0  0  0  0  0
   59.9450   34.6020   46.0600 C   0  0  0  0  0  0  0  0  0  0  0  0
   59.6150   35.2330   47.1000 O   0  0  0  0  0  0  0  0  0  0  0  0
   61.1510   33.8220   46.0240 N   0  0  0  0  0  0  0  0  0  0  0  0
   61.9910   33.5780   47.1650 C   0  0  0  0  0  0  0  0  0  0  0  0
   61.5190   33.9000   48.4460 C   0  0  0  0  0  0  0  0  0  0  0  0
   62.3180   33.6840   49.5720 C   0  0  0  0  0  0  0  0  0  0  0  0
   63.6090   33.1580   49.4280 C   0  0  0  0  0  0  0  0  0  0  0  0
   64.6110   32.8350   50.8400 S   0  0  0  0  0  0  0  0  0  0  0  0
   63.8190   33.1560   52.0780 O   0  0  0  0  0  0  0  0  0  0  0  0
   64.9920   31.3790   50.8770 O   0  0  0  0  0  0  0  0  0  0  0  0
   66.0440   33.8280   50.7870 N   0  0  0  0  0  0  0  0  0  0  0  0
   67.2160   33.0080   50.4340 C   0  0  0  0  0  0  0  0  0  0  0  0
   68.5240   33.7940   50.6530 C   0  0  0  0  0  0  0  0  0  0  0  0
   68.2630   35.1680   50.8560 O   0  0  0  0  0  0  0  0  0  0  0  0
   67.5300   35.3430   52.0550 C   0  0  0  0  0  0  0  0  0  0  0  0
   66.2500   34.4800   52.0890 C   0  0  0  0  0  0  0  0  0  0  0  0
   64.0940   32.8560   48.1500 C   0  0  0  0  0  0  0  0  0  0  0  0
   63.2960   33.0730   47.0230 C   0  0  0  0  0  0  0  0  0  0  0  0
   59.3820   31.3780   47.6680 C   0  0  0  0  0  0  0  0  0  0  0  0
   60.2220   30.5390   48.4060 C   0  0  0  0  0  0  0  0  0  0  0  0
   62.4720   30.0720   50.7860 C   0  0  0  0  0  0  0  0  0  0  0  0
   62.9860   29.4840   52.1100 C   0  0  0  0  0  0  0  0  0  0  0  0
   65.7933   28.2577   52.9194 H   0  0  0  0  0  0  0  0  0  0  0  0
   65.8891   27.2786   51.4164 H   0  0  0  0  0  0  0  0  0  0  0  0
   65.0002   28.8396   51.4164 H   0  0  0  0  0  0  0  0  0  0  0  0
   63.8730   26.3150   51.7836 H   0  0  0  0  0  0  0  0  0  0  0  0
   64.0471   26.9814   53.4795 H   0  0  0  0  0  0  0  0  0  0  0  0
   62.2964   27.2755   50.3151 H   0  0  0  0  0  0  0  0  0  0  0  0
   61.4023   26.4954   51.6780 H   0  0  0  0  0  0  0  0  0  0  0  0
   59.9264   27.9491   50.2876 H   0  0  0  0  0  0  0  0  0  0  0  0
   60.0567   28.5198   51.9923 H   0  0  0  0  0  0  0  0  0  0  0  0
   59.2467   31.4308   51.5620 H   0  0  0  0  0  0  0  0  0  0  0  0
   57.7545   32.9293   50.2460 H   0  0  0  0  0  0  0  0  0  0  0  0
   56.5522   32.9753   47.8565 H   0  0  0  0  0  0  0  0  0  0  0  0
   57.8988   34.1910   47.7151 H   0  0  0  0  0  0  0  0  0  0  0  0
   59.5753   34.1910   44.0022 H   0  0  0  0  0  0  0  0  0  0  0  0
   58.8700   35.7282   44.6046 H   0  0  0  0  0  0  0  0  0  0  0  0
   61.4930   33.5040   45.0890 H   0  0  0  0  0  0  0  0  0  0  0  0
   60.5119   34.3260   48.5652 H   0  0  0  0  0  0  0  0  0  0  0  0
   61.9329   33.9273   50.5732 H   0  0  0  0  0  0  0  0  0  0  0  0
   67.2278   32.1066   51.0643 H   0  0  0  0  0  0  0  0  0  0  0  0
   67.1451   32.7331   49.3713 H   0  0  0  0  0  0  0  0  0  0  0  0
   69.0412   33.3920   51.5367 H   0  0  0  0  0  0  0  0  0  0  0  0
   69.1514   33.6860   49.7559 H   0  0  0  0  0  0  0  0  0  0  0  0
   68.1692   35.0618   52.9049 H   0  0  0  0  0  0  0  0  0  0  0  0
   67.2265   36.3987   52.1135 H   0  0  0  0  0  0  0  0  0  0  0  0
   66.3506   33.7109   52.8689 H   0  0  0  0  0  0  0  0  0  0  0  0
   65.3868   35.1256   52.3084 H   0  0  0  0  0  0  0  0  0  0  0  0
   65.1079   32.4460   48.0321 H   0  0  0  0  0  0  0  0  0  0  0  0
   63.6903   32.8479   46.0211 H   0  0  0  0  0  0  0  0  0  0  0  0
   59.4102   31.3514   46.5687 H   0  0  0  0  0  0  0  0  0  0  0  0
   60.9168   29.8655   47.8829 H   0  0  0  0  0  0  0  0  0  0  0  0
   63.0817   29.6854   49.9561 H   0  0  0  0  0  0  0  0  0  0  0  0
   62.5461   31.1687   50.8282 H   0  0  0  0  0  0  0  0  0  0  0  0
   64.0701   29.6597   52.1728 H   0  0  0  0  0  0  0  0  0  0  0  0
   62.4382   29.9827   52.9231 H   0  0  0  0  0  0  0  0  0  0  0  0
  1  2  1  0
  2  3  1  0
  3  4  1  0
  4  5  1  0
  5  6  1  0
  6  7  1  0
  7  8  2  0
  8  9  1  0
  9 10  2  0
 10 11  1  0
 11 12  1  0
 12 13  2  0
 12 14  1  0
 14 15  1  0
 15 16  1  0
 16 17  2  0
 16 18  1  0
 18 19  1  0
 19 20  2  0
 20 21  1  0
 21 22  2  0
 22 23  1  0
 23 24  2  0
 23 25  2  0
 23 26  1  0
 26 27  1  0
 27 28  1  0
 28 29  1  0
 29 30  1  0
 30 31  1  0
 22 32  1  0
 32 33  2  0
 10 34  1  0
 34 35  2  0
  6 36  1  0
 36 37  1  0
 37  3  1  0
 35  7  1  0
 33 19  1  0
 31 26  1  0
  1 38  1  0
  1 39  1  0
  1 40  1  0
  2 41  1  0
  2 42  1  0
  4 43  1  0
  4 44  1  0
  5 45  1  0
  5 46  1  0
  8 47  1  0
  9 48  1  0
 11 49  1  0
 11 50  1  0
 15 51  1  0
 15 52  1  0
 18 53  1  0
 20 54  1  0
 21 55  1  0
 27 56  1  0
 27 57  1  0
 28 58  1  0
 28 59  1  0
 30 60  1  0
 30 61  1  0
 31 62  1  0
 31 63  1  0
 32 64  1  0
 33 65  1  0
 34 66  1  0
 35 67  1  0
 36 68  1  0
 36 69  1  0
 37 70  1  0
 37 71  1  0
M  CHG  1  14  -1
M  END
>  <UniqueID>  (56) 
55

>  <SMILES>  (56) 
CCN1CCN(c2ccc(CC(=O)[N-]CC(=O)Nc3ccc(S(=O)(=O)N4CCOCC4)cc3)cc2)CC1

>  <Energy>  (56) 
90.59326695817052

>  <Genealogy>  (56) 
CCN1CCN(c2ccc(CC(=O)[N-]CC(=O)Nc3ccc(S(=O)(=O)N4CCOCC4)cc3)cc2)CC1 (protonated)
CCN1CCN(c2ccc(CC(=O)[N-]CC(=O)Nc3ccc(S(=O)(=O)N4CCOCC4)cc3)cc2)CC1 (3D coordinates assigned)
CCN1CCN(c2ccc(CC(=O)[N-]CC(=O)Nc3ccc(S(=O)(=O)N4CCOCC4)cc3)cc2)CC1 (nonaromatic ring conformer: 90.59326695817052 kcal/mol)

>  <smiles>  (56) 
CCN1CCN(c2ccc(CC(=O)NCC(=O)Nc3ccc(S(=O)(=O)N4CCOCC4)cc3)cc2)CC1

>  <score_type>  (56) 
oracle

>  <origin>  (56) 
adg

>  <m_score__min__energy>  (56) 
-11.68

>  <m_primary>  (56) 
energy

$$$$
56:0
     RDKit          3D

 67 71  0  0  0  0  0  0  0  0999 V2000
   61.1200   26.5390   46.6520 C   0  0  0  0  0  0  0  0  0  0  0  0
   59.7950   26.9930   46.1200 C   0  0  0  0  0  0  0  0  0  0  0  0
   59.5590   28.0360   45.2200 C   0  0  0  0  0  0  0  0  0  0  0  0
   60.6080   28.9280   44.6180 C   0  0  0  0  0  0  0  0  0  0  0  0
   58.2340   28.1080   44.9210 N   0  0  0  0  0  0  0  0  0  0  0  0
   57.5870   29.0590   44.0080 C   0  0  0  0  0  0  0  0  0  0  0  0
   56.5160   29.8480   44.7020 C   0  0  0  0  0  0  0  0  0  0  0  0
   55.4290   29.2810   44.9970 O   0  0  0  0  0  0  0  0  0  0  0  0
   56.6890   31.2500   44.9420 N   0  0  0  0  0  0  0  0  0  0  0  0
   57.8040   31.8410   45.6310 C   0  0  0  0  0  0  0  0  0  0  0  0
   58.5640   31.0490   46.5040 C   0  0  0  0  0  0  0  0  0  0  0  0
   59.7010   31.5770   47.1310 C   0  0  0  0  0  0  0  0  0  0  0  0
   60.0980   32.9020   46.8860 C   0  0  0  0  0  0  0  0  0  0  0  0
   61.2840   33.4330   47.5070 N   0  0  0  0  0  0  0  0  0  0  0  0
   61.2390   33.8780   48.9030 C   0  0  0  0  0  0  0  0  0  0  0  0
   62.6390   34.2510   49.3920 C   0  0  0  0  0  0  0  0  0  0  0  0
   63.5670   33.3010   48.9160 O   0  0  0  0  0  0  0  0  0  0  0  0
   63.7850   33.4660   47.5250 C   0  0  0  0  0  0  0  0  0  0  0  0
   62.4910   33.6710   46.6990 C   0  0  0  0  0  0  0  0  0  0  0  0
   59.3390   33.6940   46.0070 C   0  0  0  0  0  0  0  0  0  0  0  0
   58.2070   33.1670   45.3770 C   0  0  0  0  0  0  0  0  0  0  0  0
   57.6350   27.1220   45.6230 C   0  0  0  0  0  0  0  0  0  0  0  0
   56.2820   26.7700   45.6290 C   0  0  0  0  0  0  0  0  0  0  0  0
   55.8960   25.6320   46.3580 C   0  0  0  0  0  0  0  0  0  0  0  0
   56.8540   24.8610   47.0690 C   0  0  0  0  0  0  0  0  0  0  0  0
   56.4480   23.6090   47.7480 C   0  0  0  0  0  0  0  0  0  0  0  0
   57.3000   22.9310   48.3800 O   0  0  0  0  0  0  0  0  0  0  0  0
   55.0850   23.1690   47.7040 N   0  0  0  0  0  0  0  0  0  0  0  0
   54.3590   22.9160   46.4630 C   0  0  0  0  0  0  0  0  0  0  0  0
   55.3120   22.4070   45.4140 C   0  0  0  0  0  0  0  0  0  0  0  0
   55.5640   23.1550   44.2510 C   0  0  0  0  0  0  0  0  0  0  0  0
   56.4840   22.6930   43.3010 C   0  0  0  0  0  0  0  0  0  0  0  0
   57.1700   21.4940   43.5130 C   0  0  0  0  0  0  0  0  0  0  0  0
   58.0670   21.0500   42.5940 F   0  0  0  0  0  0  0  0  0  0  0  0
   56.9350   20.7520   44.6760 C   0  0  0  0  0  0  0  0  0  0  0  0
   56.0120   21.2070   45.6240 C   0  0  0  0  0  0  0  0  0  0  0  0
   58.2060   25.2710   47.0740 C   0  0  0  0  0  0  0  0  0  0  0  0
   58.5600   26.4070   46.3400 C   0  0  0  0  0  0  0  0  0  0  0  0
   61.0959   26.5473   47.7517 H   0  0  0  0  0  0  0  0  0  0  0  0
   61.3273   25.5186   46.2974 H   0  0  0  0  0  0  0  0  0  0  0  0
   61.9096   27.2179   46.2974 H   0  0  0  0  0  0  0  0  0  0  0  0
   61.1804   29.4148   45.4214 H   0  0  0  0  0  0  0  0  0  0  0  0
   61.2875   28.3269   43.9960 H   0  0  0  0  0  0  0  0  0  0  0  0
   60.1239   29.6953   43.9960 H   0  0  0  0  0  0  0  0  0  0  0  0
   58.3463   29.7531   43.6184 H   0  0  0  0  0  0  0  0  0  0  0  0
   57.1204   28.4891   43.1910 H   0  0  0  0  0  0  0  0  0  0  0  0
   58.2662   30.0079   46.6977 H   0  0  0  0  0  0  0  0  0  0  0  0
   60.2863   30.9497   47.8194 H   0  0  0  0  0  0  0  0  0  0  0  0
   60.5821   34.7568   48.9817 H   0  0  0  0  0  0  0  0  0  0  0  0
   60.8517   33.0578   49.5254 H   0  0  0  0  0  0  0  0  0  0  0  0
   62.9070   35.2484   49.0133 H   0  0  0  0  0  0  0  0  0  0  0  0
   62.6545   34.2627   50.4918 H   0  0  0  0  0  0  0  0  0  0  0  0
   64.4303   34.3448   47.3789 H   0  0  0  0  0  0  0  0  0  0  0  0
   64.2454   32.5342   47.1647 H   0  0  0  0  0  0  0  0  0  0  0  0
   62.4691   34.7041   46.3218 H   0  0  0  0  0  0  0  0  0  0  0  0
   62.4960   32.9478   45.8701 H   0  0  0  0  0  0  0  0  0  0  0  0
   59.6373   34.7349   45.8134 H   0  0  0  0  0  0  0  0  0  0  0  0
   57.6285   33.7908   44.6798 H   0  0  0  0  0  0  0  0  0  0  0  0
   55.5401   27.3671   45.0785 H   0  0  0  0  0  0  0  0  0  0  0  0
   54.8373   25.3343   46.3782 H   0  0  0  0  0  0  0  0  0  0  0  0
   53.5773   22.1634   46.6433 H   0  0  0  0  0  0  0  0  0  0  0  0
   53.8969   23.8510   46.1134 H   0  0  0  0  0  0  0  0  0  0  0  0
   55.0370   24.1064   44.0862 H   0  0  0  0  0  0  0  0  0  0  0  0
   56.6669   23.2754   42.3859 H   0  0  0  0  0  0  0  0  0  0  0  0
   57.4767   19.8097   44.8451 H   0  0  0  0  0  0  0  0  0  0  0  0
   55.8335   20.6222   46.5384 H   0  0  0  0  0  0  0  0  0  0  0  0
   58.9624   24.7096   47.6421 H   0  0  0  0  0  0  0  0  0  0  0  0
  1  2  1  0
  2  3  2  0
  3  4  1  0
  3  5  1  0
  5  6  1  0
  6  7  1  0
  7  8  2  0
  7  9  1  0
  9 10  1  0
 10 11  2  0
 11 12  1  0
 12 13  2  0
 13 14  1  0
 14 15  1  0
 15 16  1  0
 16 17  1  0
 17 18  1  0
 18 19  1  0
 13 20  1  0
 20 21  2  0
  5 22  1  0
 22 23  2  0
 23 24  1  0
 24 25  2  0
 25 26  1  0
 26 27  2  0
 26 28  1  0
 28 29  1  0
 29 30  1  0
 30 31  2  0
 31 32  1  0
 32 33  2  0
 33 34  1  0
 33 35  1  0
 35 36  2  0
 25 37  1  0
 37 38  2  0
 38  2  1  0
 21 10  1  0
 38 22  1  0
 19 14  1  0
 36 30  1  0
  1 39  1  0
  1 40  1  0
  1 41  1  0
  4 42  1  0
  4 43  1  0
  4 44  1  0
  6 45  1  0
  6 46  1  0
 11 47  1  0
 12 48  1  0
 15 49  1  0
 15 50  1  0
 16 51  1  0
 16 52  1  0
 18 53  1  0
 18 54  1  0
 19 55  1  0
 19 56  1  0
 20 57  1  0
 21 58  1  0
 23 59  1  0
 24 60  1  0
 29 61  1  0
 29 62  1  0
 31 63  1  0
 32 64  1  0
 35 65  1  0
 36 66  1  0
 37 67  1  0
M  CHG  2   9  -1  28  -1
M  END
>  <UniqueID>  (57) 
56

>  <SMILES>  (57) 
Cc1c(C)n(CC(=O)[N-]c2ccc(N3CCOCC3)cc2)c2ccc(C(=O)[N-]Cc3ccc(F)cc3)cc12

>  <Energy>  (57) 
118.91358770104287

>  <Genealogy>  (57) 
Cc1c(C)n(CC(=O)[N-]c2ccc(N3CCOCC3)cc2)c2ccc(C(=O)[N-]Cc3ccc(F)cc3)cc12 (protonated)
Cc1c(C)n(CC(=O)[N-]c2ccc(N3CCOCC3)cc2)c2ccc(C(=O)[N-]Cc3ccc(F)cc3)cc12 (3D coordinates assigned)
Cc1c(C)n(CC(=O)[N-]c2ccc(N3CCOCC3)cc2)c2ccc(C(=O)[N-]Cc3ccc(F)cc3)cc12 (nonaromatic ring conformer: 118.91358770104287 kcal/mol)

>  <smiles>  (57) 
Cc1c(C)n(CC(=O)Nc2ccc(N3CCOCC3)cc2)c2ccc(C(=O)NCc3ccc(F)cc3)cc12

>  <score_type>  (57) 
oracle

>  <origin>  (57) 
adg

>  <m_score__min__energy>  (57) 
-12.880000000000001

>  <m_primary>  (57) 
energy

$$$$
57:0
     RDKit          3D

 45 48  0  0  0  0  0  0  0  0999 V2000
   59.6740   27.9390   48.6420 C   0  0  0  0  0  0  0  0  0  0  0  0
   59.2150   29.0040   47.9680 C   0  0  0  0  0  0  0  0  0  0  0  0
   58.7570   29.0390   46.6400 C   0  0  0  0  0  0  0  0  0  0  0  0
   58.4570   28.0450   45.7820 C   0  0  0  0  0  0  0  0  0  0  0  0
   57.3280   27.1100   45.9130 C   0  0  0  0  0  0  0  0  0  0  0  0
   57.4030   25.8930   46.4830 N   0  0  0  0  0  0  0  0  0  0  0  0
   56.1170   25.4780   46.5010 C   0  0  0  0  0  0  0  0  0  0  0  0
   55.7730   24.3550   46.9550 O   0  0  0  0  0  0  0  0  0  0  0  0
   55.2280   26.3650   46.0050 N   0  0  0  0  0  0  0  0  0  0  0  0
   56.0110   27.3960   45.6510 C   0  0  0  0  0  0  0  0  0  0  0  0
   55.5300   28.5800   45.1050 O   0  0  0  0  0  0  0  0  0  0  0  0
   58.6140   30.3780   46.3150 C   0  0  0  0  0  0  0  0  0  0  0  0
   58.9210   31.1030   47.4480 C   0  0  0  0  0  0  0  0  0  0  0  0
   58.8120   32.6000   47.5590 C   0  0  0  0  0  0  0  0  0  0  0  0
   58.4060   33.1890   46.2400 C   0  0  0  0  0  0  0  0  0  0  0  0
   57.2330   32.8880   45.6710 C   0  0  0  0  0  0  0  0  0  0  0  0
   57.1140   32.0840   44.4410 C   0  0  0  0  0  0  0  0  0  0  0  0
   57.7270   32.3190   43.2200 C   0  0  0  0  0  0  0  0  0  0  0  0
   57.3370   31.2910   42.3870 C   0  0  0  0  0  0  0  0  0  0  0  0
   56.5090   30.4730   43.1270 C   0  0  0  0  0  0  0  0  0  0  0  0
   56.3770   30.9590   44.3740 N   0  0  0  0  0  0  0  0  0  0  0  0
   59.2800   30.2700   48.4500 N   0  0  0  0  0  0  0  0  0  0  0  0
   59.6540   30.6670   49.7810 C   0  0  0  0  0  0  0  0  0  0  0  0
   60.9520   31.1370   50.0270 C   0  0  0  0  0  0  0  0  0  0  0  0
   61.3420   31.4750   51.3270 C   0  0  0  0  0  0  0  0  0  0  0  0
   60.4360   31.3540   52.3830 C   0  0  0  0  0  0  0  0  0  0  0  0
   59.1350   30.9010   52.1420 C   0  0  0  0  0  0  0  0  0  0  0  0
   58.7400   30.5580   50.8440 C   0  0  0  0  0  0  0  0  0  0  0  0
   57.4420   30.1180   50.6130 O   0  0  0  0  0  0  0  0  0  0  0  0
   60.0041   28.0490   49.6855 H   0  0  0  0  0  0  0  0  0  0  0  0
   59.7203   26.9556   48.1512 H   0  0  0  0  0  0  0  0  0  0  0  0
   59.1127   27.9213   44.9075 H   0  0  0  0  0  0  0  0  0  0  0  0
   58.3128   30.7859   45.3388 H   0  0  0  0  0  0  0  0  0  0  0  0
   58.0576   32.8541   48.3181 H   0  0  0  0  0  0  0  0  0  0  0  0
   59.7902   33.0106   47.8497 H   0  0  0  0  0  0  0  0  0  0  0  0
   59.0884   33.8842   45.7291 H   0  0  0  0  0  0  0  0  0  0  0  0
   56.3119   33.2588   46.1444 H   0  0  0  0  0  0  0  0  0  0  0  0
   58.3917   33.1578   42.9661 H   0  0  0  0  0  0  0  0  0  0  0  0
   57.6297   31.1508   41.3360 H   0  0  0  0  0  0  0  0  0  0  0  0
   56.0274   29.5577   42.7523 H   0  0  0  0  0  0  0  0  0  0  0  0
   55.8140   30.5350   45.1450 H   0  0  0  0  0  0  0  0  0  0  0  0
   61.6651   31.2401   49.1958 H   0  0  0  0  0  0  0  0  0  0  0  0
   62.3632   31.8365   51.5179 H   0  0  0  0  0  0  0  0  0  0  0  0
   60.7461   31.6153   53.4055 H   0  0  0  0  0  0  0  0  0  0  0  0
   58.4209   30.8141   52.9742 H   0  0  0  0  0  0  0  0  0  0  0  0
  1  2  2  0
  2  3  1  0
  3  4  2  3
  4  5  1  0
  5  6  1  0
  6  7  1  0
  7  8  2  0
  7  9  1  0
  9 10  1  0
 10 11  1  0
  3 12  1  0
 12 13  2  0
 13 14  1  0
 14 15  1  0
 15 16  2  3
 16 17  1  0
 17 18  2  0
 18 19  1  0
 19 20  2  0
 20 21  1  0
 13 22  1  0
 22 23  1  0
 23 24  2  0
 24 25  1  0
 25 26  2  0
 26 27  1  0
 27 28  2  0
 28 29  1  0
 22  2  1  0
 28 23  1  0
 10  5  2  0
 21 17  1  0
  1 30  1  0
  1 31  1  0
  4 32  1  0
 12 33  1  0
 14 34  1  0
 14 35  1  0
 15 36  1  0
 16 37  1  0
 18 38  1  0
 19 39  1  0
 20 40  1  0
 21 41  1  0
 24 42  1  0
 25 43  1  0
 26 44  1  0
 27 45  1  0
M  CHG  4   6  -1   9  -1  11  -1  29  -1
M  END
>  <UniqueID>  (58) 
57

>  <SMILES>  (58) 
C=c1c(=Cc2[n-]c(=O)[n-]c2[O-])cc(CC=Cc2ccc[nH]2)n1-c1ccccc1[O-]

>  <Energy>  (58) 
146.0034983550682

>  <Genealogy>  (58) 
C=c1c(=Cc2[n-]c(=O)[n-]c2[O-])cc(CC=Cc2ccc[nH]2)n1-c1ccccc1[O-] (protonated)
C=c1c(=Cc2[n-]c(=O)[n-]c2[O-])cc(CC=Cc2ccc[nH]2)n1-c1ccccc1[O-] (3D coordinates assigned)
C=c1c(=Cc2[n-]c(=O)[n-]c2[O-])cc(CC=Cc2ccc[nH]2)n1-c1ccccc1[O-] (optimized conformer: 146.0034983550682 kcal/mol)

>  <smiles>  (58) 
C=c1c(=Cc2[nH]c(=O)[nH]c2O)cc(CC=Cc2ccc[nH]2)n1-c1ccccc1O

>  <score_type>  (58) 
oracle

>  <origin>  (58) 
adg

>  <m_score__min__energy>  (58) 
-17.100000000000001

>  <m_primary>  (58) 
energy

$$$$
58:0
     RDKit          3D

 66 69  0  0  0  0  0  0  0  0999 V2000
   50.2610   32.3240   51.9930 N   0  0  0  0  0  0  0  0  0  0  0  0
   51.5660   31.6620   51.0740 S   0  0  0  0  0  0  0  0  0  0  0  0
   51.0110   30.7800   49.9920 O   0  0  0  0  0  0  0  0  0  0  0  0
   52.3500   32.7740   50.4370 O   0  0  0  0  0  0  0  0  0  0  0  0
   52.6160   30.7260   52.1330 C   0  0  0  0  0  0  0  0  0  0  0  0
   52.0730   29.9680   53.1790 C   0  0  0  0  0  0  0  0  0  0  0  0
   52.9090   29.2240   54.0140 C   0  0  0  0  0  0  0  0  0  0  0  0
   54.2910   29.2340   53.8150 C   0  0  0  0  0  0  0  0  0  0  0  0
   54.8500   30.0040   52.7830 C   0  0  0  0  0  0  0  0  0  0  0  0
   56.3420   30.0130   52.5700 C   0  0  0  0  0  0  0  0  0  0  0  0
   56.7940   31.1870   51.6750 C   0  0  0  0  0  0  0  0  0  0  0  0
   58.2750   31.3340   51.6140 N   0  0  0  0  0  0  0  0  0  0  0  0
   58.9620   30.0030   51.6210 C   0  0  0  0  0  0  0  0  0  0  0  0
   59.9810   29.8090   50.4860 C   0  0  0  0  0  0  0  0  0  0  0  0
   59.3850   30.1980   49.2020 N   0  0  0  0  0  0  0  0  0  0  0  0
   59.6970   29.4550   48.0010 C   0  0  0  0  0  0  0  0  0  0  0  0
   60.6570   28.6350   48.0050 O   0  0  0  0  0  0  0  0  0  0  0  0
   58.9200   29.6350   46.7200 C   0  0  0  0  0  0  0  0  0  0  0  0
   58.5880   28.3010   46.1020 C   0  0  0  0  0  0  0  0  0  0  0  0
   58.2380   27.2140   46.9180 C   0  0  0  0  0  0  0  0  0  0  0  0
   57.9300   25.9740   46.3510 C   0  0  0  0  0  0  0  0  0  0  0  0
   57.9560   25.8040   44.9570 C   0  0  0  0  0  0  0  0  0  0  0  0
   57.6360   24.5300   44.3660 N   0  0  0  0  0  0  0  0  0  0  0  0
   56.9770   24.4790   43.0520 C   0  0  0  0  0  0  0  0  0  0  0  0
   55.9080   23.3860   43.0340 C   0  0  0  0  0  0  0  0  0  0  0  0
   56.4720   22.1110   43.5950 C   0  0  0  0  0  0  0  0  0  0  0  0
   56.2680   21.0440   43.0350 O   0  0  0  0  0  0  0  0  0  0  0  0
   57.2150   22.1560   44.8990 C   0  0  0  0  0  0  0  0  0  0  0  0
   58.2430   23.2940   44.8850 C   0  0  0  0  0  0  0  0  0  0  0  0
   58.2960   26.8950   44.1420 C   0  0  0  0  0  0  0  0  0  0  0  0
   58.6120   28.1330   44.7090 C   0  0  0  0  0  0  0  0  0  0  0  0
   58.6210   31.4520   49.1340 C   0  0  0  0  0  0  0  0  0  0  0  0
   58.6710   32.2000   50.4740 C   0  0  0  0  0  0  0  0  0  0  0  0
   54.0050   30.7470   51.9420 C   0  0  0  0  0  0  0  0  0  0  0  0
   50.3810   33.3620   51.9900 H   0  0  0  0  0  0  0  0  0  0  0  0
   50.9853   29.9591   53.3427 H   0  0  0  0  0  0  0  0  0  0  0  0
   52.4773   28.6279   54.8315 H   0  0  0  0  0  0  0  0  0  0  0  0
   54.9436   28.6368   54.4688 H   0  0  0  0  0  0  0  0  0  0  0  0
   56.8393   30.1002   53.5473 H   0  0  0  0  0  0  0  0  0  0  0  0
   56.6175   29.0759   52.0641 H   0  0  0  0  0  0  0  0  0  0  0  0
   56.4161   31.0170   50.6560 H   0  0  0  0  0  0  0  0  0  0  0  0
   56.3889   32.1108   52.1136 H   0  0  0  0  0  0  0  0  0  0  0  0
   58.5770   31.8540   52.4720 H   0  0  0  0  0  0  0  0  0  0  0  0
   59.4898   29.8931   52.5799 H   0  0  0  0  0  0  0  0  0  0  0  0
   58.1791   29.2445   51.4735 H   0  0  0  0  0  0  0  0  0  0  0  0
   60.8657   30.4331   50.6805 H   0  0  0  0  0  0  0  0  0  0  0  0
   60.2733   28.7495   50.4413 H   0  0  0  0  0  0  0  0  0  0  0  0
   57.9860   30.1738   46.9377 H   0  0  0  0  0  0  0  0  0  0  0  0
   59.5368   30.2074   46.0116 H   0  0  0  0  0  0  0  0  0  0  0  0
   58.2059   27.3386   48.0104 H   0  0  0  0  0  0  0  0  0  0  0  0
   57.6657   25.1264   47.0004 H   0  0  0  0  0  0  0  0  0  0  0  0
   56.5052   25.4509   42.8452 H   0  0  0  0  0  0  0  0  0  0  0  0
   57.7308   24.2536   42.2833 H   0  0  0  0  0  0  0  0  0  0  0  0
   55.0498   23.7048   43.6438 H   0  0  0  0  0  0  0  0  0  0  0  0
   55.5832   23.2135   41.9973 H   0  0  0  0  0  0  0  0  0  0  0  0
   56.5004   22.3222   45.7186 H   0  0  0  0  0  0  0  0  0  0  0  0
   57.7399   21.2005   45.0457 H   0  0  0  0  0  0  0  0  0  0  0  0
   58.6025   23.4697   45.9096 H   0  0  0  0  0  0  0  0  0  0  0  0
   59.0815   23.0082   44.2329 H   0  0  0  0  0  0  0  0  0  0  0  0
   58.3139   26.7749   43.0487 H   0  0  0  0  0  0  0  0  0  0  0  0
   58.8808   28.9796   44.0601 H   0  0  0  0  0  0  0  0  0  0  0  0
   59.0493   32.0920   48.3485 H   0  0  0  0  0  0  0  0  0  0  0  0
   57.5722   31.2115   48.9058 H   0  0  0  0  0  0  0  0  0  0  0  0
   59.6972   32.5591   50.6414 H   0  0  0  0  0  0  0  0  0  0  0  0
   57.9584   33.0363   50.4212 H   0  0  0  0  0  0  0  0  0  0  0  0
   54.4357   31.3491   51.1284 H   0  0  0  0  0  0  0  0  0  0  0  0
  1  2  1  0
  2  3  2  0
  2  4  2  0
  2  5  1  0
  5  6  2  0
  6  7  1  0
  7  8  2  0
  8  9  1  0
  9 10  1  0
 10 11  1  0
 11 12  1  0
 12 13  1  0
 13 14  1  0
 14 15  1  0
 15 16  1  0
 16 17  2  0
 16 18  1  0
 18 19  1  0
 19 20  2  0
 20 21  1  0
 21 22  2  0
 22 23  1  0
 23 24  1  0
 24 25  1  0
 25 26  1  0
 26 27  2  0
 26 28  1  0
 28 29  1  0
 22 30  1  0
 30 31  2  0
 15 32  1  0
 32 33  1  0
  9 34  2  0
 34  5  1  0
 33 12  1  0
 31 19  1  0
 29 23  1  0
  1 35  1  0
  6 36  1  0
  7 37  1  0
  8 38  1  0
 10 39  1  0
 10 40  1  0
 11 41  1  0
 11 42  1  0
 12 43  1  0
 13 44  1  0
 13 45  1  0
 14 46  1  0
 14 47  1  0
 18 48  1  0
 18 49  1  0
 20 50  1  0
 21 51  1  0
 24 52  1  0
 24 53  1  0
 25 54  1  0
 25 55  1  0
 28 56  1  0
 28 57  1  0
 29 58  1  0
 29 59  1  0
 30 60  1  0
 31 61  1  0
 32 62  1  0
 32 63  1  0
 33 64  1  0
 33 65  1  0
 34 66  1  0
M  CHG  2   1  -1  12   1
M  END
>  <UniqueID>  (59) 
58

>  <SMILES>  (59) 
[NH-]S(=O)(=O)c1cccc(CC[NH+]2CCN(C(=O)Cc3ccc(N4CCC(=O)CC4)cc3)CC2)c1

>  <Energy>  (59) 
78.19704785573967

>  <Genealogy>  (59) 
[NH-]S(=O)(=O)c1cccc(CC[NH+]2CCN(C(=O)Cc3ccc(N4CCC(=O)CC4)cc3)CC2)c1 (protonated)
[NH-]S(=O)(=O)c1cccc(CC[NH+]2CCN(C(=O)Cc3ccc(N4CCC(=O)CC4)cc3)CC2)c1 (3D coordinates assigned)
[NH-]S(=O)(=O)c1cccc(CC[NH+]2CCN(C(=O)Cc3ccc(N4CCC(=O)CC4)cc3)CC2)c1 (nonaromatic ring conformer: 78.19704785573967 kcal/mol)

>  <smiles>  (59) 
NS(=O)(=O)c1cccc(CCN2CCN(C(=O)Cc3ccc(N4CCC(=O)CC4)cc3)CC2)c1

>  <score_type>  (59) 
oracle

>  <origin>  (59) 
adg

>  <m_score__min__energy>  (59) 
-11.26

>  <m_primary>  (59) 
energy

$$$$
59:0
     RDKit          3D

 24 25  0  0  0  0  0  0  0  0999 V2000
   57.3930   25.3700   43.5410 C   0  0  0  0  0  0  0  0  0  0  0  0
   57.5530   24.5530   44.5980 C   0  0  0  0  0  0  0  0  0  0  0  0
   57.4620   23.1670   44.3570 C   0  0  0  0  0  0  0  0  0  0  0  0
   57.3820   22.2580   45.4100 C   0  0  0  0  0  0  0  0  0  0  0  0
   57.3840   22.7110   46.7240 C   0  0  0  0  0  0  0  0  0  0  0  0
   57.2620   21.8040   47.7700 O   0  0  0  0  0  0  0  0  0  0  0  0
   57.5240   24.0730   46.9940 C   0  0  0  0  0  0  0  0  0  0  0  0
   57.6890   25.0140   45.9530 C   0  0  0  0  0  0  0  0  0  0  0  0
   57.9950   26.2840   46.3280 C   0  0  0  0  0  0  0  0  0  0  0  0
   57.4230   27.5320   45.7710 C   0  0  0  0  0  0  0  0  0  0  0  0
   56.0350   27.7050   45.6200 C   0  0  0  0  0  0  0  0  0  0  0  0
   55.1460   26.7110   46.0110 O   0  0  0  0  0  0  0  0  0  0  0  0
   55.5510   28.8500   45.0720 N   0  0  0  0  0  0  0  0  0  0  0  0
   56.3860   29.8310   44.6450 C   0  0  0  0  0  0  0  0  0  0  0  0
   55.9150   30.8850   44.1450 O   0  0  0  0  0  0  0  0  0  0  0  0
   57.7310   29.6740   44.7500 N   0  0  0  0  0  0  0  0  0  0  0  0
   58.2650   28.5490   45.2920 C   0  0  0  0  0  0  0  0  0  0  0  0
   59.5190   28.4360   45.3690 O   0  0  0  0  0  0  0  0  0  0  0  0
   57.4545   26.4602   43.6742 H   0  0  0  0  0  0  0  0  0  0  0  0
   57.2007   24.9478   42.5436 H   0  0  0  0  0  0  0  0  0  0  0  0
   57.4540   22.7972   43.3211 H   0  0  0  0  0  0  0  0  0  0  0  0
   57.3171   21.1800   45.2010 H   0  0  0  0  0  0  0  0  0  0  0  0
   57.5055   24.4207   48.0374 H   0  0  0  0  0  0  0  0  0  0  0  0
   58.7434   26.3967   47.1262 H   0  0  0  0  0  0  0  0  0  0  0  0
  1  2  2  0
  2  3  1  0
  3  4  2  0
  4  5  1  0
  5  6  1  0
  5  7  2  0
  7  8  1  0
  8  9  2  3
  9 10  1  0
 10 11  2  0
 11 12  1  0
 11 13  1  0
 13 14  1  0
 14 15  2  0
 14 16  1  0
 16 17  1  0
 17 18  2  0
  8  2  1  0
 17 10  1  0
  1 19  1  0
  1 20  1  0
  3 21  1  0
  4 22  1  0
  7 23  1  0
  9 24  1  0
M  CHG  4   6  -1  12  -1  13  -1  16  -1
M  END
>  <UniqueID>  (60) 
59

>  <SMILES>  (60) 
C=c1ccc([O-])cc1=Cc1c([O-])[n-]c(=O)[n-]c1=O

>  <Energy>  (60) 
49.63944660837169

>  <Genealogy>  (60) 
C=c1ccc([O-])cc1=Cc1c([O-])[n-]c(=O)[n-]c1=O (protonated)
C=c1ccc([O-])cc1=Cc1c([O-])[n-]c(=O)[n-]c1=O (3D coordinates assigned)
C=c1ccc([O-])cc1=Cc1c([O-])[n-]c(=O)[n-]c1=O (optimized conformer: 49.63944660837169 kcal/mol)

>  <smiles>  (60) 
C=c1ccc(O)cc1=Cc1c(O)[nH]c(=O)[nH]c1=O

>  <score_type>  (60) 
oracle

>  <origin>  (60) 
adg

>  <m_score__min__energy>  (60) 
-15.69

>  <m_primary>  (60) 
energy

$$$$
60:0
     RDKit          3D

 61 64  0  0  0  0  0  0  0  0999 V2000
   59.3310   31.1610   50.3990 O   0  0  0  0  0  0  0  0  0  0  0  0
   60.5070   30.8580   50.0550 C   0  0  0  0  0  0  0  0  0  0  0  0
   61.5710   31.9130   50.0410 C   0  0  0  0  0  0  0  0  0  0  0  0
   62.9600   31.3510   49.6850 C   0  0  0  0  0  0  0  0  0  0  0  0
   63.3700   31.7060   48.3050 N   0  0  0  0  0  0  0  0  0  0  0  0
   62.3800   31.2390   47.3040 C   0  0  0  0  0  0  0  0  0  0  0  0
   61.3870   32.3530   46.9230 C   0  0  0  0  0  0  0  0  0  0  0  0
   61.9970   33.5210   46.3870 O   0  0  0  0  0  0  0  0  0  0  0  0
   63.3620   33.6680   46.7490 C   0  0  0  0  0  0  0  0  0  0  0  0
   63.6650   33.1550   48.1660 C   0  0  0  0  0  0  0  0  0  0  0  0
   60.8500   29.5050   49.7340 N   0  0  0  0  0  0  0  0  0  0  0  0
   60.1150   28.6220   48.8760 C   0  0  0  0  0  0  0  0  0  0  0  0
   60.5740   27.3290   48.5650 C   0  0  0  0  0  0  0  0  0  0  0  0
   59.8250   26.4970   47.7280 C   0  0  0  0  0  0  0  0  0  0  0  0
   58.6020   26.9400   47.2060 C   0  0  0  0  0  0  0  0  0  0  0  0
   57.6670   25.9270   46.1100 S   0  0  0  0  0  0  0  0  0  0  0  0
   56.3460   25.6090   46.7530 O   0  0  0  0  0  0  0  0  0  0  0  0
   58.3860   24.6400   45.8180 O   0  0  0  0  0  0  0  0  0  0  0  0
   57.3940   26.7820   44.6250 N   0  0  0  0  0  0  0  0  0  0  0  0
   57.5810   28.2010   44.4820 C   0  0  0  0  0  0  0  0  0  0  0  0
   56.4650   29.0230   44.2710 C   0  0  0  0  0  0  0  0  0  0  0  0
   56.6150   30.4060   44.1370 C   0  0  0  0  0  0  0  0  0  0  0  0
   57.8890   30.9960   44.2140 C   0  0  0  0  0  0  0  0  0  0  0  0
   58.0640   32.4590   44.0560 C   0  0  0  0  0  0  0  0  0  0  0  0
   57.8580   32.9780   42.9250 O   0  0  0  0  0  0  0  0  0  0  0  0
   58.4760   33.3340   45.1800 C   0  0  0  0  0  0  0  0  0  0  0  0
   59.2360   34.4910   44.9290 C   0  0  0  0  0  0  0  0  0  0  0  0
   59.6390   35.3150   45.9850 C   0  0  0  0  0  0  0  0  0  0  0  0
   59.2990   34.9860   47.2990 C   0  0  0  0  0  0  0  0  0  0  0  0
   58.5610   33.8300   47.5610 C   0  0  0  0  0  0  0  0  0  0  0  0
   58.1530   33.0040   46.5100 C   0  0  0  0  0  0  0  0  0  0  0  0
   59.0100   30.1700   44.3970 C   0  0  0  0  0  0  0  0  0  0  0  0
   58.8590   28.7870   44.5330 C   0  0  0  0  0  0  0  0  0  0  0  0
   58.1310   28.2170   47.5360 C   0  0  0  0  0  0  0  0  0  0  0  0
   58.8790   29.0480   48.3750 C   0  0  0  0  0  0  0  0  0  0  0  0
   61.2994   32.6770   49.2977 H   0  0  0  0  0  0  0  0  0  0  0  0
   61.6333   32.3358   51.0546 H   0  0  0  0  0  0  0  0  0  0  0  0
   63.6989   31.7592   50.3903 H   0  0  0  0  0  0  0  0  0  0  0  0
   62.9079   30.2542   49.7506 H   0  0  0  0  0  0  0  0  0  0  0  0
   62.9142   30.9128   46.3994 H   0  0  0  0  0  0  0  0  0  0  0  0
   61.8106   30.4083   47.7463 H   0  0  0  0  0  0  0  0  0  0  0  0
   60.6907   31.9520   46.1718 H   0  0  0  0  0  0  0  0  0  0  0  0
   60.8832   32.6581   47.8521 H   0  0  0  0  0  0  0  0  0  0  0  0
   63.9775   33.1040   46.0327 H   0  0  0  0  0  0  0  0  0  0  0  0
   63.5937   34.7432   46.7312 H   0  0  0  0  0  0  0  0  0  0  0  0
   64.7296   33.3239   48.3853 H   0  0  0  0  0  0  0  0  0  0  0  0
   63.0231   33.7029   48.8716 H   0  0  0  0  0  0  0  0  0  0  0  0
   61.5267   26.9711   48.9824 H   0  0  0  0  0  0  0  0  0  0  0  0
   60.1963   25.4921   47.4784 H   0  0  0  0  0  0  0  0  0  0  0  0
   56.9410   26.2490   43.8490 H   0  0  0  0  0  0  0  0  0  0  0  0
   55.4621   28.5752   44.2104 H   0  0  0  0  0  0  0  0  0  0  0  0
   55.7300   31.0376   43.9701 H   0  0  0  0  0  0  0  0  0  0  0  0
   59.5148   34.7490   43.8967 H   0  0  0  0  0  0  0  0  0  0  0  0
   60.2245   36.2234   45.7802 H   0  0  0  0  0  0  0  0  0  0  0  0
   59.6127   35.6377   48.1278 H   0  0  0  0  0  0  0  0  0  0  0  0
   58.3001   33.5688   48.5972 H   0  0  0  0  0  0  0  0  0  0  0  0
   57.5767   32.0916   46.7230 H   0  0  0  0  0  0  0  0  0  0  0  0
   60.0153   30.6151   44.4336 H   0  0  0  0  0  0  0  0  0  0  0  0
   59.7454   28.1526   44.6809 H   0  0  0  0  0  0  0  0  0  0  0  0
   57.1691   28.5673   47.1335 H   0  0  0  0  0  0  0  0  0  0  0  0
   58.4941   30.0429   48.6433 H   0  0  0  0  0  0  0  0  0  0  0  0
  1  2  2  0
  2  3  1  0
  3  4  1  0
  4  5  1  0
  5  6  1  0
  6  7  1  0
  7  8  1  0
  8  9  1  0
  9 10  1  0
  2 11  1  0
 11 12  1  0
 12 13  2  0
 13 14  1  0
 14 15  2  0
 15 16  1  0
 16 17  2  0
 16 18  2  0
 16 19  1  0
 19 20  1  0
 20 21  2  0
 21 22  1  0
 22 23  2  0
 23 24  1  0
 24 25  2  0
 24 26  1  0
 26 27  2  0
 27 28  1  0
 28 29  2  0
 29 30  1  0
 30 31  2  0
 23 32  1  0
 32 33  2  0
 15 34  1  0
 34 35  2  0
 10  5  1  0
 35 12  1  0
 33 20  1  0
 31 26  1  0
  3 36  1  0
  3 37  1  0
  4 38  1  0
  4 39  1  0
  6 40  1  0
  6 41  1  0
  7 42  1  0
  7 43  1  0
  9 44  1  0
  9 45  1  0
 10 46  1  0
 10 47  1  0
 13 48  1  0
 14 49  1  0
 19 50  1  0
 21 51  1  0
 22 52  1  0
 27 53  1  0
 28 54  1  0
 29 55  1  0
 30 56  1  0
 31 57  1  0
 32 58  1  0
 33 59  1  0
 34 60  1  0
 35 61  1  0
M  CHG  1  11  -1
M  END
>  <UniqueID>  (61) 
60

>  <SMILES>  (61) 
O=C(CCN1CCOCC1)[N-]c1ccc(S(=O)(=O)Nc2ccc(C(=O)c3ccccc3)cc2)cc1

>  <Energy>  (61) 
90.11185332261385

>  <Genealogy>  (61) 
O=C(CCN1CCOCC1)[N-]c1ccc(S(=O)(=O)Nc2ccc(C(=O)c3ccccc3)cc2)cc1 (protonated)
O=C(CCN1CCOCC1)[N-]c1ccc(S(=O)(=O)Nc2ccc(C(=O)c3ccccc3)cc2)cc1 (3D coordinates assigned)
O=C(CCN1CCOCC1)[N-]c1ccc(S(=O)(=O)Nc2ccc(C(=O)c3ccccc3)cc2)cc1 (nonaromatic ring conformer: 90.11185332261385 kcal/mol)

>  <smiles>  (61) 
O=C(CCN1CCOCC1)Nc1ccc(S(=O)(=O)Nc2ccc(C(=O)c3ccccc3)cc2)cc1

>  <score_type>  (61) 
oracle

>  <origin>  (61) 
adg

>  <m_score__min__energy>  (61) 
-11.960000000000001

>  <m_primary>  (61) 
energy

$$$$
61:0
     RDKit          3D

 50 52  0  0  0  0  0  0  0  0999 V2000
   57.4850   31.5620   44.4140 C   0  0  0  0  0  0  0  0  0  0  0  0
   58.0770   31.0120   45.4870 C   0  0  0  0  0  0  0  0  0  0  0  0
   57.8380   29.7290   45.9940 C   0  0  0  0  0  0  0  0  0  0  0  0
   57.0050   28.7950   45.4940 C   0  0  0  0  0  0  0  0  0  0  0  0
   57.1480   27.3490   45.7390 C   0  0  0  0  0  0  0  0  0  0  0  0
   58.3270   26.6970   45.6480 N   0  0  0  0  0  0  0  0  0  0  0  0
   57.9970   25.4020   45.8500 C   0  0  0  0  0  0  0  0  0  0  0  0
   58.8450   24.4720   45.8330 O   0  0  0  0  0  0  0  0  0  0  0  0
   56.6770   25.2040   46.0490 N   0  0  0  0  0  0  0  0  0  0  0  0
   55.9750   23.9290   46.1940 C   0  0  0  0  0  0  0  0  0  0  0  0
   56.2160   23.3640   47.5600 C   0  0  0  0  0  0  0  0  0  0  0  0
   57.3580   23.4820   48.0830 O   0  0  0  0  0  0  0  0  0  0  0  0
   55.1830   22.6170   48.2200 N   0  0  0  0  0  0  0  0  0  0  0  0
   55.2600   22.1620   49.5810 C   0  0  0  0  0  0  0  0  0  0  0  0
   54.1100   22.1910   50.3820 C   0  0  0  0  0  0  0  0  0  0  0  0
   54.1610   21.7730   51.7150 C   0  0  0  0  0  0  0  0  0  0  0  0
   55.3710   21.3300   52.2780 C   0  0  0  0  0  0  0  0  0  0  0  0
   55.4290   20.8870   53.6910 C   0  0  0  0  0  0  0  0  0  0  0  0
   54.3980   21.2500   54.6080 N   0  0  0  0  0  0  0  0  0  0  0  0
   56.3920   20.1820   54.0990 O   0  0  0  0  0  0  0  0  0  0  0  0
   56.5290   21.3240   51.4800 C   0  0  0  0  0  0  0  0  0  0  0  0
   56.4760   21.7420   50.1470 C   0  0  0  0  0  0  0  0  0  0  0  0
   56.1380   26.4290   45.9510 C   0  0  0  0  0  0  0  0  0  0  0  0
   54.7730   26.6960   45.9980 O   0  0  0  0  0  0  0  0  0  0  0  0
   58.6820   29.5780   47.0840 C   0  0  0  0  0  0  0  0  0  0  0  0
   59.3880   30.7580   47.2060 C   0  0  0  0  0  0  0  0  0  0  0  0
   60.4290   31.0170   48.2520 C   0  0  0  0  0  0  0  0  0  0  0  0
   59.0130   31.6380   46.2490 N   0  0  0  0  0  0  0  0  0  0  0  0
   59.5810   32.9790   46.0460 C   0  0  0  0  0  0  0  0  0  0  0  0
   58.6340   34.0480   46.5800 C   0  0  0  0  0  0  0  0  0  0  0  0
   57.7501   32.5832   44.1027 H   0  0  0  0  0  0  0  0  0  0  0  0
   56.7351   30.9912   43.8466 H   0  0  0  0  0  0  0  0  0  0  0  0
   56.1679   29.1324   44.8651 H   0  0  0  0  0  0  0  0  0  0  0  0
   54.8961   24.0889   46.0511 H   0  0  0  0  0  0  0  0  0  0  0  0
   56.3506   23.2222   45.4395 H   0  0  0  0  0  0  0  0  0  0  0  0
   54.3640   22.3090   47.6470 H   0  0  0  0  0  0  0  0  0  0  0  0
   53.1591   22.5458   49.9579 H   0  0  0  0  0  0  0  0  0  0  0  0
   53.2478   21.7908   52.3280 H   0  0  0  0  0  0  0  0  0  0  0  0
   54.5430   21.1710   55.6390 H   0  0  0  0  0  0  0  0  0  0  0  0
   57.4847   20.9875   51.9084 H   0  0  0  0  0  0  0  0  0  0  0  0
   57.3916   21.7422   49.5374 H   0  0  0  0  0  0  0  0  0  0  0  0
   58.7716   28.6899   47.7269 H   0  0  0  0  0  0  0  0  0  0  0  0
   59.9812   30.9056   49.2505 H   0  0  0  0  0  0  0  0  0  0  0  0
   61.2519   30.2962   48.1367 H   0  0  0  0  0  0  0  0  0  0  0  0
   60.8182   32.0394   48.1367 H   0  0  0  0  0  0  0  0  0  0  0  0
   60.5418   33.0490   46.5769 H   0  0  0  0  0  0  0  0  0  0  0  0
   59.7296   33.1424   44.9684 H   0  0  0  0  0  0  0  0  0  0  0  0
   58.6471   34.0332   47.6798 H   0  0  0  0  0  0  0  0  0  0  0  0
   58.9581   35.0366   46.2227 H   0  0  0  0  0  0  0  0  0  0  0  0
   57.6135   33.8455   46.2227 H   0  0  0  0  0  0  0  0  0  0  0  0
  1  2  2  0
  2  3  1  0
  3  4  2  3
  4  5  1  0
  5  6  1  0
  6  7  1  0
  7  8  2  0
  7  9  1  0
  9 10  1  0
 10 11  1  0
 11 12  2  0
 11 13  1  0
 13 14  1  0
 14 15  2  0
 15 16  1  0
 16 17  2  0
 17 18  1  0
 18 19  1  0
 18 20  2  0
 17 21  1  0
 21 22  2  0
  9 23  1  0
 23 24  1  0
  3 25  1  0
 25 26  2  0
 26 27  1  0
 26 28  1  0
 28 29  1  0
 29 30  1  0
 28  2  1  0
 23  5  2  0
 22 14  1  0
  1 31  1  0
  1 32  1  0
  4 33  1  0
 10 34  1  0
 10 35  1  0
 13 36  1  0
 15 37  1  0
 16 38  1  0
 19 39  1  0
 21 40  1  0
 22 41  1  0
 25 42  1  0
 27 43  1  0
 27 44  1  0
 27 45  1  0
 29 46  1  0
 29 47  1  0
 30 48  1  0
 30 49  1  0
 30 50  1  0
M  CHG  3   6  -1  19  -1  24  -1
M  END
>  <UniqueID>  (62) 
61

>  <SMILES>  (62) 
C=c1c(=Cc2[n-]c(=O)n(CC(=O)Nc3ccc(C([NH-])=O)cc3)c2[O-])cc(C)n1CC

>  <Energy>  (62) 
117.74859751625688

>  <Genealogy>  (62) 
C=c1c(=Cc2[n-]c(=O)n(CC(=O)Nc3ccc(C([NH-])=O)cc3)c2[O-])cc(C)n1CC (protonated)
C=c1c(=Cc2[n-]c(=O)n(CC(=O)Nc3ccc(C([NH-])=O)cc3)c2[O-])cc(C)n1CC (3D coordinates assigned)
C=c1c(=Cc2[n-]c(=O)n(CC(=O)Nc3ccc(C([NH-])=O)cc3)c2[O-])cc(C)n1CC (optimized conformer: 117.74859751625688 kcal/mol)

>  <smiles>  (62) 
C=c1c(=Cc2[nH]c(=O)n(CC(=O)Nc3ccc(C(N)=O)cc3)c2O)cc(C)n1CC

>  <score_type>  (62) 
oracle

>  <origin>  (62) 
adg

>  <m_score__min__energy>  (62) 
-12.42

>  <m_primary>  (62) 
energy

$$$$
62:0
     RDKit          3D

 52 55  0  0  0  0  0  0  0  0999 V2000
   54.3975   24.3307   45.6139 H   0  0  0  0  0  0  0  0  0  0  0  0
   55.3510   24.8340   45.3960 C   0  0  0  0  0  0  0  0  0  0  0  0
   55.6480   26.0170   45.9980 N   0  0  0  0  0  0  0  0  0  0  0  0
   56.8150   26.6800   45.7670 C   0  0  0  0  0  0  0  0  0  0  0  0
   57.0170   27.8130   46.3820 N   0  0  0  0  0  0  0  0  0  0  0  0
   58.1490   28.6880   46.2500 C   0  0  0  0  0  0  0  0  0  0  0  0
   59.2490   28.3270   46.7480 O   0  0  0  0  0  0  0  0  0  0  0  0
   58.0760   29.9640   45.4940 C   0  0  0  0  0  0  0  0  0  0  0  0
   58.5300   31.1510   46.0950 C   0  0  0  0  0  0  0  0  0  0  0  0
   58.9475   31.1212   47.1123 H   0  0  0  0  0  0  0  0  0  0  0  0
   58.4560   32.3720   45.4110 C   0  0  0  0  0  0  0  0  0  0  0  0
   59.0340   33.8450   46.1860 S   0  0  0  0  0  0  0  0  0  0  0  0
   57.9490   34.3770   47.0820 O   0  0  0  0  0  0  0  0  0  0  0  0
   59.3450   34.8850   45.1440 O   0  0  0  0  0  0  0  0  0  0  0  0
   60.4620   33.4940   47.1280 N   0  0  0  0  0  0  0  0  0  0  0  0
   60.4650   32.4630   47.3100 H   0  0  0  0  0  0  0  0  0  0  0  0
   60.4000   34.2110   48.4240 C   0  0  0  0  0  0  0  0  0  0  0  0
   59.9903   35.2167   48.2484 H   0  0  0  0  0  0  0  0  0  0  0  0
   59.7627   33.6181   49.0966 H   0  0  0  0  0  0  0  0  0  0  0  0
   61.7790   34.3540   49.1040 C   0  0  0  0  0  0  0  0  0  0  0  0
   62.1522   35.3768   48.9469 H   0  0  0  0  0  0  0  0  0  0  0  0
   61.6614   34.1447   50.1775 H   0  0  0  0  0  0  0  0  0  0  0  0
   62.7460   33.4010   48.5480 N   0  0  0  0  0  0  0  0  0  0  0  0
   63.5920   32.6200   49.4140 C   0  0  0  0  0  0  0  0  0  0  0  0
   64.9570   32.9330   49.5540 C   0  0  0  0  0  0  0  0  0  0  0  0
   65.3831   33.7817   48.9989 H   0  0  0  0  0  0  0  0  0  0  0  0
   65.7750   32.1710   50.3950 C   0  0  0  0  0  0  0  0  0  0  0  0
   66.8400   32.4245   50.5024 H   0  0  0  0  0  0  0  0  0  0  0  0
   65.2410   31.0880   51.0990 C   0  0  0  0  0  0  0  0  0  0  0  0
   65.8840   30.4934   51.7645 H   0  0  0  0  0  0  0  0  0  0  0  0
   63.8900   30.7610   50.9570 C   0  0  0  0  0  0  0  0  0  0  0  0
   63.4719   29.9043   51.5060 H   0  0  0  0  0  0  0  0  0  0  0  0
   63.0680   31.5210   50.1180 C   0  0  0  0  0  0  0  0  0  0  0  0
   62.0057   31.2575   50.0083 H   0  0  0  0  0  0  0  0  0  0  0  0
   62.9250   33.3370   47.0920 C   0  0  0  0  0  0  0  0  0  0  0  0
   63.7876   33.9574   46.8071 H   0  0  0  0  0  0  0  0  0  0  0  0
   63.0948   32.2892   46.8035 H   0  0  0  0  0  0  0  0  0  0  0  0
   61.6730   33.8510   46.3650 C   0  0  0  0  0  0  0  0  0  0  0  0
   61.7323   34.9451   46.2674 H   0  0  0  0  0  0  0  0  0  0  0  0
   61.6200   33.3889   45.3682 H   0  0  0  0  0  0  0  0  0  0  0  0
   57.9440   32.4060   44.1080 C   0  0  0  0  0  0  0  0  0  0  0  0
   57.8856   33.3614   43.5660 H   0  0  0  0  0  0  0  0  0  0  0  0
   57.5080   31.2310   43.4960 C   0  0  0  0  0  0  0  0  0  0  0  0
   57.1100   31.2634   42.4710 H   0  0  0  0  0  0  0  0  0  0  0  0
   57.5740   30.0120   44.1780 C   0  0  0  0  0  0  0  0  0  0  0  0
   57.1800   28.8830   43.5380 F   0  0  0  0  0  0  0  0  0  0  0  0
   57.7410   26.1320   44.8540 C   0  0  0  0  0  0  0  0  0  0  0  0
   58.6815   26.6590   44.6354 H   0  0  0  0  0  0  0  0  0  0  0  0
   57.4550   24.9160   44.2300 C   0  0  0  0  0  0  0  0  0  0  0  0
   58.1755   24.4769   43.5242 H   0  0  0  0  0  0  0  0  0  0  0  0
   56.2550   24.2580   44.5020 C   0  0  0  0  0  0  0  0  0  0  0  0
   55.8830   22.7310   43.7210 Cl  0  0  0  0  0  0  0  0  0  0  0  0
  1  2  1  0
  2  3  1  0
  3  4  1  0
  4  5  2  0
  5  6  1  0
  6  7  2  0
  6  8  1  0
  8  9  2  0
  9 10  1  0
  9 11  1  0
 11 12  1  0
 12 13  2  0
 12 14  2  0
 12 15  1  0
 15 16  1  0
 15 17  1  0
 17 18  1  0
 17 19  1  0
 17 20  1  0
 20 21  1  0
 20 22  1  0
 20 23  1  0
 23 24  1  0
 24 25  2  0
 25 26  1  0
 25 27  1  0
 27 28  1  0
 27 29  2  0
 29 30  1  0
 29 31  1  0
 31 32  1  0
 31 33  2  0
 33 34  1  0
 23 35  1  0
 35 36  1  0
 35 37  1  0
 35 38  1  0
 38 39  1  0
 38 40  1  0
 11 41  2  0
 41 42  1  0
 41 43  1  0
 43 44  1  0
 43 45  2  0
 45 46  1  0
  4 47  1  0
 47 48  1  0
 47 49  2  0
 49 50  1  0
 49 51  1  0
 51 52  1  0
 51  2  2  0
 45  8  1  0
 38 15  1  0
 33 24  1  0
M  CHG  2   3  -1  15   1
M  END
>  <UniqueID>  (63) 
62

>  <SMILES>  (63) 
O=C(/N=c1\ccc(Cl)c[n-]1)c1cc(S(=O)(=O)[NH+]2CCN(c3ccccc3)CC2)ccc1F

>  <Energy>  (63) 
76.24654507895102

>  <Genealogy>  (63) 
O=C(N=c1ccc(Cl)c[n-]1)c1cc(S(=O)(=O)[NH+]2CCN(c3ccccc3)CC2)ccc1F (protonated)
O=C(/N=c1\ccc(Cl)c[n-]1)c1cc(S(=O)(=O)[NH+]2CCN(c3ccccc3)CC2)ccc1F (cis-trans isomerization)
O=C(/N=c1\ccc(Cl)c[n-]1)c1cc(S(=O)(=O)[NH+]2CCN(c3ccccc3)CC2)ccc1F (3D coordinates assigned)
O=C(/N=c1\ccc(Cl)c[n-]1)c1cc(S(=O)(=O)[NH+]2CCN(c3ccccc3)CC2)ccc1F (nonaromatic ring conformer: 76.24654507895102 kcal/mol)

>  <smiles>  (63) 
O=C(N=c1ccc(Cl)c[nH]1)c1cc(S(=O)(=O)N2CCN(c3ccccc3)CC2)ccc1F

>  <score_type>  (63) 
oracle

>  <origin>  (63) 
adg

>  <m_score__min__energy>  (63) 
-10.65

>  <m_primary>  (63) 
energy

$$$$
63:0
     RDKit          3D

 51 53  0  0  0  0  0  0  0  0999 V2000
   66.9040   32.1290   51.3210 C   0  0  0  0  0  0  0  0  0  0  0  0
   65.5830   32.1590   50.6110 C   0  0  0  0  0  0  0  0  0  0  0  0
   65.3490   33.0930   49.5900 C   0  0  0  0  0  0  0  0  0  0  0  0
   64.1300   33.0950   48.9040 C   0  0  0  0  0  0  0  0  0  0  0  0
   63.1370   32.1590   49.2240 C   0  0  0  0  0  0  0  0  0  0  0  0
   61.6090   32.1730   48.3500 S   0  0  0  0  0  0  0  0  0  0  0  0
   61.7620   31.3440   47.1070 O   0  0  0  0  0  0  0  0  0  0  0  0
   60.5270   31.5810   49.2110 O   0  0  0  0  0  0  0  0  0  0  0  0
   61.2030   33.8260   47.9360 N   0  0  0  0  0  0  0  0  0  0  0  0
   59.8610   34.2020   48.4560 C   0  0  0  0  0  0  0  0  0  0  0  0
   58.9040   34.7510   47.3850 C   0  0  0  0  0  0  0  0  0  0  0  0
   58.9560   33.9040   46.1890 N   0  0  0  0  0  0  0  0  0  0  0  0
   57.7430   33.5290   45.5010 C   0  0  0  0  0  0  0  0  0  0  0  0
   56.6840   34.1880   45.6850 O   0  0  0  0  0  0  0  0  0  0  0  0
   57.7110   32.3620   44.5590 C   0  0  0  0  0  0  0  0  0  0  0  0
   56.4070   31.7060   44.6370 N   0  0  0  0  0  0  0  0  0  0  0  0
   56.5750   29.9970   44.3690 S   0  0  0  0  0  0  0  0  0  0  0  0
   56.7120   29.7370   42.8950 O   0  0  0  0  0  0  0  0  0  0  0  0
   55.3570   29.2710   44.8720 O   0  0  0  0  0  0  0  0  0  0  0  0
   58.0200   29.4190   45.1960 C   0  0  0  0  0  0  0  0  0  0  0  0
   59.0080   28.7350   44.4740 C   0  0  0  0  0  0  0  0  0  0  0  0
   60.1950   28.3470   45.1010 C   0  0  0  0  0  0  0  0  0  0  0  0
   60.4020   28.6420   46.4510 C   0  0  0  0  0  0  0  0  0  0  0  0
   59.4200   29.3200   47.1770 C   0  0  0  0  0  0  0  0  0  0  0  0
   58.2290   29.7080   46.5530 C   0  0  0  0  0  0  0  0  0  0  0  0
   60.2670   33.5350   45.6410 C   0  0  0  0  0  0  0  0  0  0  0  0
   61.4080   34.0920   46.4990 C   0  0  0  0  0  0  0  0  0  0  0  0
   63.3770   31.2100   50.2280 C   0  0  0  0  0  0  0  0  0  0  0  0
   64.5960   31.2070   50.9150 C   0  0  0  0  0  0  0  0  0  0  0  0
   66.7361   32.1328   52.4081 H   0  0  0  0  0  0  0  0  0  0  0  0
   67.4519   31.2182   51.0378 H   0  0  0  0  0  0  0  0  0  0  0  0
   67.4927   33.0140   51.0378 H   0  0  0  0  0  0  0  0  0  0  0  0
   66.1266   33.8257   49.3284 H   0  0  0  0  0  0  0  0  0  0  0  0
   63.9499   33.8345   48.1098 H   0  0  0  0  0  0  0  0  0  0  0  0
   59.4016   33.3088   48.9046 H   0  0  0  0  0  0  0  0  0  0  0  0
   60.0184   35.0104   49.1852 H   0  0  0  0  0  0  0  0  0  0  0  0
   57.8782   34.7592   47.7820 H   0  0  0  0  0  0  0  0  0  0  0  0
   59.2072   35.7742   47.1181 H   0  0  0  0  0  0  0  0  0  0  0  0
   57.8822   32.7158   43.5316 H   0  0  0  0  0  0  0  0  0  0  0  0
   58.4981   31.6457   44.8371 H   0  0  0  0  0  0  0  0  0  0  0  0
   58.8484   28.5030   43.4107 H   0  0  0  0  0  0  0  0  0  0  0  0
   60.9670   27.8089   44.5314 H   0  0  0  0  0  0  0  0  0  0  0  0
   61.3388   28.3402   46.9423 H   0  0  0  0  0  0  0  0  0  0  0  0
   59.5830   29.5492   48.2404 H   0  0  0  0  0  0  0  0  0  0  0  0
   57.4560   30.2400   47.1269 H   0  0  0  0  0  0  0  0  0  0  0  0
   60.3457   32.4383   45.6089 H   0  0  0  0  0  0  0  0  0  0  0  0
   60.3529   33.9620   44.6309 H   0  0  0  0  0  0  0  0  0  0  0  0
   62.3513   33.6229   46.1825 H   0  0  0  0  0  0  0  0  0  0  0  0
   61.4372   35.1824   46.3572 H   0  0  0  0  0  0  0  0  0  0  0  0
   62.6054   30.4663   50.4761 H   0  0  0  0  0  0  0  0  0  0  0  0
   64.7822   30.4557   51.6966 H   0  0  0  0  0  0  0  0  0  0  0  0
  1  2  1  0
  2  3  2  0
  3  4  1  0
  4  5  2  0
  5  6  1  0
  6  7  2  0
  6  8  2  0
  6  9  1  0
  9 10  1  0
 10 11  1  0
 11 12  1  0
 12 13  1  0
 13 14  2  0
 13 15  1  0
 15 16  1  0
 16 17  1  0
 17 18  2  0
 17 19  2  0
 17 20  1  0
 20 21  2  0
 21 22  1  0
 22 23  2  0
 23 24  1  0
 24 25  2  0
 12 26  1  0
 26 27  1  0
  5 28  1  0
 28 29  2  0
 29  2  1  0
 27  9  1  0
 25 20  1  0
  1 30  1  0
  1 31  1  0
  1 32  1  0
  3 33  1  0
  4 34  1  0
 10 35  1  0
 10 36  1  0
 11 37  1  0
 11 38  1  0
 15 39  1  0
 15 40  1  0
 21 41  1  0
 22 42  1  0
 23 43  1  0
 24 44  1  0
 25 45  1  0
 26 46  1  0
 26 47  1  0
 27 48  1  0
 27 49  1  0
 28 50  1  0
 29 51  1  0
M  CHG  1  16  -1
M  END
>  <UniqueID>  (64) 
63

>  <SMILES>  (64) 
Cc1ccc(S(=O)(=O)N2CCN(C(=O)C[N-]S(=O)(=O)c3ccccc3)CC2)cc1

>  <Energy>  (64) 
53.19798670481677

>  <Genealogy>  (64) 
Cc1ccc(S(=O)(=O)N2CCN(C(=O)C[N-]S(=O)(=O)c3ccccc3)CC2)cc1 (protonated)
Cc1ccc(S(=O)(=O)N2CCN(C(=O)C[N-]S(=O)(=O)c3ccccc3)CC2)cc1 (3D coordinates assigned)
Cc1ccc(S(=O)(=O)N2CCN(C(=O)C[N-]S(=O)(=O)c3ccccc3)CC2)cc1 (nonaromatic ring conformer: 53.19798670481677 kcal/mol)

>  <smiles>  (64) 
Cc1ccc(S(=O)(=O)N2CCN(C(=O)CNS(=O)(=O)c3ccccc3)CC2)cc1

>  <score_type>  (64) 
oracle

>  <origin>  (64) 
adg

>  <m_score__min__energy>  (64) 
-10.56

>  <m_primary>  (64) 
energy

$$$$
64:0
     RDKit          3D

 52 54  0  0  0  0  0  0  0  0999 V2000
   57.4580   21.0160   48.9710 O   0  0  0  0  0  0  0  0  0  0  0  0
   56.9110   21.8920   48.2490 C   0  0  0  0  0  0  0  0  0  0  0  0
   55.5800   22.3180   48.5610 N   0  0  0  0  0  0  0  0  0  0  0  0
   54.5200   22.4560   47.5650 C   0  0  0  0  0  0  0  0  0  0  0  0
   54.6650   23.7270   46.7770 C   0  0  0  0  0  0  0  0  0  0  0  0
   53.7470   24.0910   45.9920 O   0  0  0  0  0  0  0  0  0  0  0  0
   55.8860   24.4770   46.8680 N   0  0  0  0  0  0  0  0  0  0  0  0
   56.0810   25.7650   46.2680 C   0  0  0  0  0  0  0  0  0  0  0  0
   55.1070   26.3890   45.7650 O   0  0  0  0  0  0  0  0  0  0  0  0
   57.3990   26.3300   46.2230 N   0  0  0  0  0  0  0  0  0  0  0  0
   57.6660   27.7060   45.9050 C   0  0  0  0  0  0  0  0  0  0  0  0
   58.1440   28.5650   46.9040 C   0  0  0  0  0  0  0  0  0  0  0  0
   58.3710   29.9150   46.6280 C   0  0  0  0  0  0  0  0  0  0  0  0
   58.1100   30.4320   45.3470 C   0  0  0  0  0  0  0  0  0  0  0  0
   58.3130   31.8690   45.0610 C   0  0  0  0  0  0  0  0  0  0  0  0
   57.8580   32.3510   43.9880 O   0  0  0  0  0  0  0  0  0  0  0  0
   59.0150   32.7280   45.9800 N   0  0  0  0  0  0  0  0  0  0  0  0
   58.5110   34.0720   46.2720 C   0  0  0  0  0  0  0  0  0  0  0  0
   59.6890   35.0420   46.4010 C   0  0  0  0  0  0  0  0  0  0  0  0
   60.6430   34.5530   47.3250 O   0  0  0  0  0  0  0  0  0  0  0  0
   61.2210   33.3590   46.8300 C   0  0  0  0  0  0  0  0  0  0  0  0
   60.1720   32.2470   46.7390 C   0  0  0  0  0  0  0  0  0  0  0  0
   57.5990   29.5790   44.3570 C   0  0  0  0  0  0  0  0  0  0  0  0
   57.3850   28.2260   44.6310 C   0  0  0  0  0  0  0  0  0  0  0  0
   57.5920   22.4260   47.1060 N   0  0  0  0  0  0  0  0  0  0  0  0
   57.3040   22.1240   45.7340 C   0  0  0  0  0  0  0  0  0  0  0  0
   56.7640   20.8690   45.4160 C   0  0  0  0  0  0  0  0  0  0  0  0
   56.4490   20.5480   44.0930 C   0  0  0  0  0  0  0  0  0  0  0  0
   56.6540   21.4860   43.0770 C   0  0  0  0  0  0  0  0  0  0  0  0
   57.1720   22.7480   43.3850 C   0  0  0  0  0  0  0  0  0  0  0  0
   57.4950   23.0690   44.7080 C   0  0  0  0  0  0  0  0  0  0  0  0
   54.5649   21.6007   46.8747 H   0  0  0  0  0  0  0  0  0  0  0  0
   53.5545   22.4851   48.0912 H   0  0  0  0  0  0  0  0  0  0  0  0
   56.6820   24.0600   47.4010 H   0  0  0  0  0  0  0  0  0  0  0  0
   58.2110   25.6830   46.3410 H   0  0  0  0  0  0  0  0  0  0  0  0
   58.3418   28.1730   47.9126 H   0  0  0  0  0  0  0  0  0  0  0  0
   58.7561   30.5774   47.4172 H   0  0  0  0  0  0  0  0  0  0  0  0
   57.8520   34.4020   45.4554 H   0  0  0  0  0  0  0  0  0  0  0  0
   57.9453   34.0546   47.2152 H   0  0  0  0  0  0  0  0  0  0  0  0
   60.1674   35.1614   45.4177 H   0  0  0  0  0  0  0  0  0  0  0  0
   59.3113   36.0097   46.7627 H   0  0  0  0  0  0  0  0  0  0  0  0
   61.6359   33.5468   45.8287 H   0  0  0  0  0  0  0  0  0  0  0  0
   62.0166   33.0391   47.5190 H   0  0  0  0  0  0  0  0  0  0  0  0
   60.6066   31.3737   46.2307 H   0  0  0  0  0  0  0  0  0  0  0  0
   59.8527   31.9604   47.7519 H   0  0  0  0  0  0  0  0  0  0  0  0
   57.3655   29.9782   43.3589 H   0  0  0  0  0  0  0  0  0  0  0  0
   56.9941   27.5640   43.8443 H   0  0  0  0  0  0  0  0  0  0  0  0
   56.5873   20.1324   46.2137 H   0  0  0  0  0  0  0  0  0  0  0  0
   56.0393   19.5563   43.8508 H   0  0  0  0  0  0  0  0  0  0  0  0
   56.4079   21.2315   42.0355 H   0  0  0  0  0  0  0  0  0  0  0  0
   57.3256   23.4888   42.5865 H   0  0  0  0  0  0  0  0  0  0  0  0
   57.8997   24.0634   44.9474 H   0  0  0  0  0  0  0  0  0  0  0  0
  1  2  2  0
  2  3  1  0
  3  4  1  0
  4  5  1  0
  5  6  2  0
  5  7  1  0
  7  8  1  0
  8  9  2  0
  8 10  1  0
 10 11  1  0
 11 12  2  0
 12 13  1  0
 13 14  2  0
 14 15  1  0
 15 16  2  0
 15 17  1  0
 17 18  1  0
 18 19  1  0
 19 20  1  0
 20 21  1  0
 21 22  1  0
 14 23  1  0
 23 24  2  0
  2 25  1  0
 25 26  1  0
 26 27  2  0
 27 28  1  0
 28 29  2  0
 29 30  1  0
 30 31  2  0
 24 11  1  0
 31 26  1  0
 22 17  1  0
  4 32  1  0
  4 33  1  0
  7 34  1  0
 10 35  1  0
 12 36  1  0
 13 37  1  0
 18 38  1  0
 18 39  1  0
 19 40  1  0
 19 41  1  0
 21 42  1  0
 21 43  1  0
 22 44  1  0
 22 45  1  0
 23 46  1  0
 24 47  1  0
 27 48  1  0
 28 49  1  0
 29 50  1  0
 30 51  1  0
 31 52  1  0
M  CHG  2   3  -1  25  -1
M  END
>  <UniqueID>  (65) 
64

>  <SMILES>  (65) 
O=C([N-]CC(=O)NC(=O)Nc1ccc(C(=O)N2CCOCC2)cc1)[N-]c1ccccc1

>  <Energy>  (65) 
64.13276131185081

>  <Genealogy>  (65) 
O=C([N-]CC(=O)NC(=O)Nc1ccc(C(=O)N2CCOCC2)cc1)[N-]c1ccccc1 (protonated)
O=C([N-]CC(=O)NC(=O)Nc1ccc(C(=O)N2CCOCC2)cc1)[N-]c1ccccc1 (3D coordinates assigned)
O=C([N-]CC(=O)NC(=O)Nc1ccc(C(=O)N2CCOCC2)cc1)[N-]c1ccccc1 (nonaromatic ring conformer: 64.13276131185081 kcal/mol)

>  <smiles>  (65) 
O=C(CNC(=O)Nc1ccccc1)NC(=O)Nc1ccc(C(=O)N2CCOCC2)cc1

>  <score_type>  (65) 
oracle

>  <origin>  (65) 
adg

>  <m_score__min__energy>  (65) 
-10.890000000000001

>  <m_primary>  (65) 
energy

$$$$
65:0
     RDKit          3D

 73 77  0  0  0  0  0  0  0  0999 V2000
   64.7160   33.6030   50.4480 C   0  0  0  0  0  0  0  0  0  0  0  0
   64.8130   32.2550   49.7290 C   0  0  0  0  0  0  0  0  0  0  0  0
   63.5250   31.5310   49.7810 N   0  0  0  0  0  0  0  0  0  0  0  0
   62.6150   32.1110   50.7850 C   0  0  0  0  0  0  0  0  0  0  0  0
   61.4540   31.1430   51.0160 C   0  0  0  0  0  0  0  0  0  0  0  0
   60.9830   30.5690   49.7480 N   0  0  0  0  0  0  0  0  0  0  0  0
   59.9630   29.5480   49.7800 C   0  0  0  0  0  0  0  0  0  0  0  0
   59.2590   29.3960   50.8150 O   0  0  0  0  0  0  0  0  0  0  0  0
   59.7120   28.6680   48.6200 C   0  0  0  0  0  0  0  0  0  0  0  0
   59.0150   29.1890   47.5170 C   0  0  0  0  0  0  0  0  0  0  0  0
   58.7590   28.3930   46.3930 C   0  0  0  0  0  0  0  0  0  0  0  0
   57.8800   29.0500   45.0160 S   0  0  0  0  0  0  0  0  0  0  0  0
   57.6500   27.9810   43.9840 O   0  0  0  0  0  0  0  0  0  0  0  0
   56.5460   29.5600   45.4930 O   0  0  0  0  0  0  0  0  0  0  0  0
   58.8100   30.3390   44.3200 N   0  0  0  0  0  0  0  0  0  0  0  0
   58.7200   31.6940   44.7900 C   0  0  0  0  0  0  0  0  0  0  0  0
   59.2890   32.0490   46.0260 C   0  0  0  0  0  0  0  0  0  0  0  0
   59.1970   33.3640   46.5080 C   0  0  0  0  0  0  0  0  0  0  0  0
   59.8230   33.7240   47.7980 C   0  0  0  0  0  0  0  0  0  0  0  0
   60.9580   34.2720   47.7920 O   0  0  0  0  0  0  0  0  0  0  0  0
   59.1710   33.4540   49.0530 N   0  0  0  0  0  0  0  0  0  0  0  0
   59.6430   34.0110   50.3250 C   0  0  0  0  0  0  0  0  0  0  0  0
   58.8930   33.2290   51.3360 C   0  0  0  0  0  0  0  0  0  0  0  0
   58.9530   33.3440   52.7250 C   0  0  0  0  0  0  0  0  0  0  0  0
   58.1620   32.4840   53.5030 C   0  0  0  0  0  0  0  0  0  0  0  0
   57.3260   31.5340   52.8850 C   0  0  0  0  0  0  0  0  0  0  0  0
   57.2780   31.4400   51.4840 C   0  0  0  0  0  0  0  0  0  0  0  0
   58.0790   32.3000   50.7310 C   0  0  0  0  0  0  0  0  0  0  0  0
   58.1880   32.3820   49.2560 C   0  0  0  0  0  0  0  0  0  0  0  0
   58.5490   34.3340   45.7320 C   0  0  0  0  0  0  0  0  0  0  0  0
   57.9630   33.9890   44.5130 C   0  0  0  0  0  0  0  0  0  0  0  0
   58.0410   32.6740   44.0310 C   0  0  0  0  0  0  0  0  0  0  0  0
   57.3940   32.3330   42.7140 C   0  0  0  0  0  0  0  0  0  0  0  0
   59.1800   27.0600   46.3800 C   0  0  0  0  0  0  0  0  0  0  0  0
   59.8650   26.5270   47.4750 C   0  0  0  0  0  0  0  0  0  0  0  0
   60.1390   27.3190   48.6020 C   0  0  0  0  0  0  0  0  0  0  0  0
   60.8320   26.7010   49.7900 C   0  0  0  0  0  0  0  0  0  0  0  0
   61.3710   31.2170   48.4860 C   0  0  0  0  0  0  0  0  0  0  0  0
   62.8870   31.5120   48.4410 C   0  0  0  0  0  0  0  0  0  0  0  0
   64.7277   33.4400   51.5358 H   0  0  0  0  0  0  0  0  0  0  0  0
   65.5711   34.2333   50.1624 H   0  0  0  0  0  0  0  0  0  0  0  0
   63.7795   34.1043   50.1624 H   0  0  0  0  0  0  0  0  0  0  0  0
   65.0862   32.4274   48.6775 H   0  0  0  0  0  0  0  0  0  0  0  0
   65.5778   31.6447   50.2317 H   0  0  0  0  0  0  0  0  0  0  0  0
   63.1579   32.2689   51.7286 H   0  0  0  0  0  0  0  0  0  0  0  0
   62.2302   33.0771   50.4265 H   0  0  0  0  0  0  0  0  0  0  0  0
   61.7904   30.3295   51.6755 H   0  0  0  0  0  0  0  0  0  0  0  0
   60.6238   31.6973   51.4781 H   0  0  0  0  0  0  0  0  0  0  0  0
   58.6668   30.2323   47.5362 H   0  0  0  0  0  0  0  0  0  0  0  0
   59.5720   30.0680   43.6580 H   0  0  0  0  0  0  0  0  0  0  0  0
   59.8124   31.2870   46.6222 H   0  0  0  0  0  0  0  0  0  0  0  0
   60.7275   33.8675   50.4403 H   0  0  0  0  0  0  0  0  0  0  0  0
   59.4780   35.0953   50.4089 H   0  0  0  0  0  0  0  0  0  0  0  0
   59.6054   34.0916   53.1998 H   0  0  0  0  0  0  0  0  0  0  0  0
   58.1953   32.5524   54.6004 H   0  0  0  0  0  0  0  0  0  0  0  0
   56.7087   30.8636   53.5010 H   0  0  0  0  0  0  0  0  0  0  0  0
   56.6240   30.7053   50.9917 H   0  0  0  0  0  0  0  0  0  0  0  0
   58.5470   31.4320   48.8333 H   0  0  0  0  0  0  0  0  0  0  0  0
   57.2252   32.5793   48.7619 H   0  0  0  0  0  0  0  0  0  0  0  0
   58.5017   35.3745   46.0858 H   0  0  0  0  0  0  0  0  0  0  0  0
   57.4356   34.7548   43.9254 H   0  0  0  0  0  0  0  0  0  0  0  0
   56.4344   31.8273   42.8969 H   0  0  0  0  0  0  0  0  0  0  0  0
   57.2188   33.2559   42.1417 H   0  0  0  0  0  0  0  0  0  0  0  0
   58.0563   31.6668   42.1417 H   0  0  0  0  0  0  0  0  0  0  0  0
   58.9711   26.4281   45.5041 H   0  0  0  0  0  0  0  0  0  0  0  0
   60.1928   25.4772   47.4541 H   0  0  0  0  0  0  0  0  0  0  0  0
   60.3907   27.0946   50.7175 H   0  0  0  0  0  0  0  0  0  0  0  0
   60.7077   25.6085   49.7596 H   0  0  0  0  0  0  0  0  0  0  0  0
   61.9032   26.9491   49.7596 H   0  0  0  0  0  0  0  0  0  0  0  0
   61.1116   30.5522   47.6489 H   0  0  0  0  0  0  0  0  0  0  0  0
   60.8320   32.1729   48.4100 H   0  0  0  0  0  0  0  0  0  0  0  0
   63.3752   30.7356   47.8336 H   0  0  0  0  0  0  0  0  0  0  0  0
   63.0092   32.5164   48.0095 H   0  0  0  0  0  0  0  0  0  0  0  0
  1  2  1  0
  2  3  1  0
  3  4  1  0
  4  5  1  0
  5  6  1  0
  6  7  1  0
  7  8  2  0
  7  9  1  0
  9 10  2  0
 10 11  1  0
 11 12  1  0
 12 13  2  0
 12 14  2  0
 12 15  1  0
 15 16  1  0
 16 17  2  0
 17 18  1  0
 18 19  1  0
 19 20  2  0
 19 21  1  0
 21 22  1  0
 22 23  1  0
 23 24  2  0
 24 25  1  0
 25 26  2  0
 26 27  1  0
 27 28  2  0
 28 29  1  0
 18 30  2  0
 30 31  1  0
 31 32  2  0
 32 33  1  0
 11 34  2  0
 34 35  1  0
 35 36  2  0
 36 37  1  0
  6 38  1  0
 38 39  1  0
 39  3  1  0
 36  9  1  0
 32 16  1  0
 29 21  1  0
 28 23  1  0
  1 40  1  0
  1 41  1  0
  1 42  1  0
  2 43  1  0
  2 44  1  0
  4 45  1  0
  4 46  1  0
  5 47  1  0
  5 48  1  0
 10 49  1  0
 15 50  1  0
 17 51  1  0
 22 52  1  0
 22 53  1  0
 24 54  1  0
 25 55  1  0
 26 56  1  0
 27 57  1  0
 29 58  1  0
 29 59  1  0
 30 60  1  0
 31 61  1  0
 33 62  1  0
 33 63  1  0
 33 64  1  0
 34 65  1  0
 35 66  1  0
 37 67  1  0
 37 68  1  0
 37 69  1  0
 38 70  1  0
 38 71  1  0
 39 72  1  0
 39 73  1  0
M  END
>  <UniqueID>  (66) 
65

>  <SMILES>  (66) 
CCN1CCN(C(=O)c2cc(S(=O)(=O)Nc3cc(C(=O)N4Cc5ccccc5C4)ccc3C)ccc2C)CC1

>  <Energy>  (66) 
108.76128245874285

>  <Genealogy>  (66) 
CCN1CCN(C(=O)c2cc(S(=O)(=O)Nc3cc(C(=O)N4Cc5ccccc5C4)ccc3C)ccc2C)CC1 (3D coordinates assigned)
CCN1CCN(C(=O)c2cc(S(=O)(=O)Nc3cc(C(=O)N4Cc5ccccc5C4)ccc3C)ccc2C)CC1 (nonaromatic ring conformer: 108.76128245874285 kcal/mol)

>  <smiles>  (66) 
CCN1CCN(C(=O)c2cc(S(=O)(=O)Nc3cc(C(=O)N4Cc5ccccc5C4)ccc3C)ccc2C)CC1

>  <score_type>  (66) 
oracle

>  <origin>  (66) 
adg

>  <m_score__min__energy>  (66) 
-10.81

>  <m_primary>  (66) 
energy

$$$$
66:0
     RDKit          3D

 67 70  0  0  1  0  0  0  0  0999 V2000
   57.3220   32.3750   52.2640 C   0  0  0  0  0  0  0  0  0  0  0  0
   58.1400   31.8800   51.1550 N   0  0  0  0  0  0  0  0  0  0  0  0
   58.1270   30.4930   50.8690 C   0  0  0  0  0  0  0  0  0  0  0  0
   57.4310   29.6890   51.5480 O   0  0  0  0  0  0  0  0  0  0  0  0
   58.9240   29.9390   49.7720 C   0  0  0  0  0  0  0  0  0  0  0  0
   59.1050   30.5110   48.5310 C   0  0  0  0  0  0  0  0  0  0  0  0
   59.9320   29.6890   47.7560 C   0  0  0  0  0  0  0  0  0  0  0  0
   60.3470   29.8430   46.5630 N   0  0  0  0  0  0  0  0  0  0  0  0
   60.1200   28.9510   45.5000 C   0  0  0  0  0  0  0  0  0  0  0  0
   60.8680   28.8100   44.5000 O   0  0  0  0  0  0  0  0  0  0  0  0
   58.9220   28.0970   45.5240 C   0  0  0  0  0  0  0  0  0  0  0  0
   59.0810   26.7290   45.4720 C   0  0  0  0  0  0  0  0  0  0  0  0
   58.0110   25.8660   45.4940 C   0  0  0  0  0  0  0  0  0  0  0  0
   58.2160   24.4260   45.4430 C   0  0  0  0  0  0  0  0  0  0  0  0
   58.3850   23.8280   46.5580 O   0  0  0  0  0  0  0  0  0  0  0  0
   58.2380   23.6660   44.2540 N   0  0  0  0  0  0  0  0  0  0  0  0
   58.4410   22.2270   44.2120 C   0  0  0  0  0  0  0  0  0  0  0  0
   57.3930   21.4670   43.4860 C   0  0  0  0  0  0  0  0  0  0  0  0
   56.0940   21.8740   43.9500 N   0  0  0  0  0  0  0  0  0  0  0  0
   55.9480   21.8780   45.3770 C   0  0  0  0  0  0  0  0  0  0  0  0
   54.4380   21.9050   45.6440 C   0  0  0  0  0  0  0  0  0  0  0  0
   53.8390   22.9300   44.9550 O   0  0  0  0  0  0  0  0  0  0  0  0
   54.7050   23.7880   44.3090 C   0  0  0  0  0  0  0  0  0  0  0  0
   55.5320   23.0120   43.3020 C   0  0  0  0  0  0  0  0  0  0  0  0
   56.7500   26.4160   45.5710 C   0  0  0  0  0  0  0  0  0  0  0  0
   56.6040   27.7760   45.6220 C   0  0  0  0  0  0  0  0  0  0  0  0
   57.6380   28.6790   45.6040 C   0  0  0  0  0  0  0  0  0  0  0  0
   57.5850   30.0210   45.6500 O   0  0  0  0  0  0  0  0  0  0  0  0
   57.5420   31.0320   44.7200 C   0  0  0  0  0  0  0  0  0  0  0  0
   58.0160   32.3610   45.1390 C   0  0  0  0  0  0  0  0  0  0  0  0
   57.9650   32.6510   46.5080 C   0  0  0  0  0  0  0  0  0  0  0  0
   58.4210   33.8880   46.9630 C   0  0  0  0  0  0  0  0  0  0  0  0
   58.9230   34.8510   46.1300 C   0  0  0  0  0  0  0  0  0  0  0  0
   58.9720   34.5630   44.7840 C   0  0  0  0  0  0  0  0  0  0  0  0
   58.5230   33.3400   44.3340 C   0  0  0  0  0  0  0  0  0  0  0  0
   60.2220   28.6480   48.5550 N   0  0  0  0  0  0  0  0  0  0  0  0
   59.6290   28.7960   49.7400 N   0  0  0  0  0  0  0  0  0  0  0  0
   57.7892   32.0923   53.2189 H   0  0  0  0  0  0  0  0  0  0  0  0
   57.2461   33.4707   52.2031 H   0  0  0  0  0  0  0  0  0  0  0  0
   56.3162   31.9339   52.2031 H   0  0  0  0  0  0  0  0  0  0  0  0
   58.7290   32.5400   50.5790 H   0  0  0  0  0  0  0  0  0  0  0  0
   58.6677   31.4649   48.2009 H   0  0  0  0  0  0  0  0  0  0  0  0
   60.0978   26.3138   45.4109 H   0  0  0  0  0  0  0  0  0  0  0  0
   58.0990   24.1790   43.3540 H   0  0  0  0  0  0  0  0  0  0  0  0
   59.4058   22.0326   43.7206 H   0  0  0  0  0  0  0  0  0  0  0  0
   58.4049   21.8807   45.2554 H   0  0  0  0  0  0  0  0  0  0  0  0
   57.4760   21.6675   42.4076 H   0  0  0  0  0  0  0  0  0  0  0  0
   57.5269   20.3911   43.6716 H   0  0  0  0  0  0  0  0  0  0  0  0
   56.3972   20.9722   45.8103 H   0  0  0  0  0  0  0  0  0  0  0  0
   56.4546   22.7415   45.8328 H   0  0  0  0  0  0  0  0  0  0  0  0
   53.9980   20.9493   45.3231 H   0  0  0  0  0  0  0  0  0  0  0  0
   54.2732   22.0604   46.7204 H   0  0  0  0  0  0  0  0  0  0  0  0
   54.1284   24.5661   43.7874 H   0  0  0  0  0  0  0  0  0  0  0  0
   55.3728   24.2572   45.0465 H   0  0  0  0  0  0  0  0  0  0  0  0
   54.8906   22.6848   42.4704 H   0  0  0  0  0  0  0  0  0  0  0  0
   56.3347   23.6510   42.9054 H   0  0  0  0  0  0  0  0  0  0  0  0
   55.8639   25.7645   45.5914 H   0  0  0  0  0  0  0  0  0  0  0  0
   55.5809   28.1756   45.6819 H   0  0  0  0  0  0  0  0  0  0  0  0
   58.1563   30.7180   43.8633 H   0  0  0  0  0  0  0  0  0  0  0  0
   56.4720   31.1706   44.5058 H   0  0  0  0  0  0  0  0  0  0  0  0
   57.5689   31.9100   47.2180 H   0  0  0  0  0  0  0  0  0  0  0  0
   58.3751   34.0995   48.0415 H   0  0  0  0  0  0  0  0  0  0  0  0
   59.2738   35.8177   46.5204 H   0  0  0  0  0  0  0  0  0  0  0  0
   59.3667   35.3038   44.0731 H   0  0  0  0  0  0  0  0  0  0  0  0
   58.5768   33.1394   43.2538 H   0  0  0  0  0  0  0  0  0  0  0  0
   60.8140   27.8320   48.3140 H   0  0  0  0  0  0  0  0  0  0  0  0
   59.7020   28.1230   50.5200 H   0  0  0  0  0  0  0  0  0  0  0  0
  1  2  1  0
  2  3  1  0
  3  4  2  0
  3  5  1  0
  5  6  2  0
  6  7  1  0
  7  8  2  0
  8  9  1  0
  9 10  2  0
  9 11  1  0
 11 12  2  0
 12 13  1  0
 13 14  1  0
 14 15  2  0
 14 16  1  0
 16 17  1  0
 17 18  1  0
 18 19  1  0
 19 20  1  0
 20 21  1  0
 21 22  1  0
 22 23  1  0
 23 24  1  0
 13 25  2  0
 25 26  1  0
 26 27  2  0
 27 28  1  0
 28 29  1  0
 29 30  1  0
 30 31  2  0
 31 32  1  0
 32 33  2  0
 33 34  1  0
 34 35  2  0
  7 36  1  0
 36 37  1  0
 37  5  1  0
 27 11  1  0
 35 30  1  0
 24 19  1  0
  1 38  1  0
  1 39  1  0
  1 40  1  0
  2 41  1  0
  6 42  1  0
 12 43  1  0
 16 44  1  0
 17 45  1  0
 17 46  1  0
 18 47  1  0
 18 48  1  0
 20 49  1  0
 20 50  1  0
 21 51  1  0
 21 52  1  0
 23 53  1  0
 23 54  1  0
 24 55  1  0
 24 56  1  0
 25 57  1  0
 26 58  1  0
 29 59  1  0
 29 60  1  0
 31 61  1  0
 32 62  1  0
 33 63  1  0
 34 64  1  0
 35 65  1  0
 36 66  1  0
 37 67  1  0
M  END
>  <smiles>  (67) 
CNC(=O)c1cc(=NC(=O)c2cc(C(=O)NCCN3CCOCC3)ccc2OCc2ccccc2)[nH][nH]1

>  <score_type>  (67) 
oracle

>  <origin>  (67) 
adg

>  <m_score__min__energy>  (67) 
-9.8200000000000003

>  <m_primary>  (67) 
energy

$$$$
67:0
     RDKit          3D

 44 47  0  0  0  0  0  0  0  0999 V2000
   65.2520   33.0820   50.2890 C   0  0  0  0  0  0  0  0  0  0  0  0
   64.2170   33.2630   49.2810 N   0  0  0  0  0  0  0  0  0  0  0  0
   62.9580   33.6720   49.5110 C   0  0  0  0  0  0  0  0  0  0  0  0
   62.3170   33.7760   48.2940 C   0  0  0  0  0  0  0  0  0  0  0  0
   60.8930   34.2010   48.0460 C   0  0  0  0  0  0  0  0  0  0  0  0
   60.4260   33.9230   46.6710 N   0  0  0  0  0  0  0  0  0  0  0  0
   59.5610   34.9890   46.1240 C   0  0  0  0  0  0  0  0  0  0  0  0
   58.8290   34.5000   44.8710 C   0  0  0  0  0  0  0  0  0  0  0  0
   57.9100   33.3820   45.1870 N   0  0  0  0  0  0  0  0  0  0  0  0
   57.5980   32.6080   43.9680 C   0  0  0  0  0  0  0  0  0  0  0  0
   57.1670   31.2210   44.3260 C   0  0  0  0  0  0  0  0  0  0  0  0
   55.8960   30.8880   44.6230 N   0  0  0  0  0  0  0  0  0  0  0  0
   55.9350   29.6120   44.8630 O   0  0  0  0  0  0  0  0  0  0  0  0
   57.1640   29.1780   44.7260 C   0  0  0  0  0  0  0  0  0  0  0  0
   57.5790   27.7530   44.9110 C   0  0  0  0  0  0  0  0  0  0  0  0
   59.0760   27.5070   44.7950 C   0  0  0  0  0  0  0  0  0  0  0  0
   58.1510   27.1030   43.6600 C   0  0  0  0  0  0  0  0  0  0  0  0
   58.0070   30.1660   44.3720 N   0  0  0  0  0  0  0  0  0  0  0  0
   58.3850   32.5130   46.2980 C   0  0  0  0  0  0  0  0  0  0  0  0
   59.9140   32.5460   46.4660 C   0  0  0  0  0  0  0  0  0  0  0  0
   63.2690   33.4330   47.3530 C   0  0  0  0  0  0  0  0  0  0  0  0
   64.4220   33.1300   47.9790 N   0  0  0  0  0  0  0  0  0  0  0  0
   64.8054   33.1601   51.2912 H   0  0  0  0  0  0  0  0  0  0  0  0
   65.7115   32.0899   50.1687 H   0  0  0  0  0  0  0  0  0  0  0  0
   66.0210   33.8593   50.1687 H   0  0  0  0  0  0  0  0  0  0  0  0
   62.5166   33.8860   50.4955 H   0  0  0  0  0  0  0  0  0  0  0  0
   60.2414   33.6634   48.7505 H   0  0  0  0  0  0  0  0  0  0  0  0
   60.8510   35.2910   48.1880 H   0  0  0  0  0  0  0  0  0  0  0  0
   58.8212   35.2799   46.8843 H   0  0  0  0  0  0  0  0  0  0  0  0
   60.1887   35.8510   45.8540 H   0  0  0  0  0  0  0  0  0  0  0  0
   58.2482   35.3326   44.4474 H   0  0  0  0  0  0  0  0  0  0  0  0
   59.5775   34.1411   44.1492 H   0  0  0  0  0  0  0  0  0  0  0  0
   56.7873   33.1088   43.4185 H   0  0  0  0  0  0  0  0  0  0  0  0
   58.5004   32.5503   43.3417 H   0  0  0  0  0  0  0  0  0  0  0  0
   56.8021   27.4919   45.6447 H   0  0  0  0  0  0  0  0  0  0  0  0
   59.7644   28.3555   44.6678 H   0  0  0  0  0  0  0  0  0  0  0  0
   59.8284   26.9880   45.4070 H   0  0  0  0  0  0  0  0  0  0  0  0
   58.1697   27.6590   42.7110 H   0  0  0  0  0  0  0  0  0  0  0  0
   57.9564   26.1704   43.1101 H   0  0  0  0  0  0  0  0  0  0  0  0
   57.9206   32.8544   47.2349 H   0  0  0  0  0  0  0  0  0  0  0  0
   58.0998   31.4786   46.0557 H   0  0  0  0  0  0  0  0  0  0  0  0
   60.1879   31.9329   47.3373 H   0  0  0  0  0  0  0  0  0  0  0  0
   60.3636   32.1528   45.5423 H   0  0  0  0  0  0  0  0  0  0  0  0
   63.1101   33.4110   46.2648 H   0  0  0  0  0  0  0  0  0  0  0  0
  1  2  1  0
  2  3  1  0
  3  4  2  0
  4  5  1  0
  5  6  1  0
  6  7  1  0
  7  8  1  0
  8  9  1  0
  9 10  1  0
 10 11  1  0
 11 12  2  0
 12 13  1  0
 13 14  1  0
 14 15  1  0
 15 16  1  0
 16 17  1  0
 14 18  2  0
  9 19  1  0
 19 20  1  0
  4 21  1  0
 21 22  2  0
 22  2  1  0
 20  6  1  0
 18 11  1  0
 17 15  1  0
  1 23  1  0
  1 24  1  0
  1 25  1  0
  3 26  1  0
  5 27  1  0
  5 28  1  0
  7 29  1  0
  7 30  1  0
  8 31  1  0
  8 32  1  0
 10 33  1  0
 10 34  1  0
 15 35  1  0
 16 36  1  0
 16 37  1  0
 17 38  1  0
 17 39  1  0
 19 40  1  0
 19 41  1  0
 20 42  1  0
 20 43  1  0
 21 44  1  0
M  END
>  <UniqueID>  (68) 
66

>  <SMILES>  (68) 
Cn1cc(CN2CCN(Cc3noc(C4CC4)n3)CC2)cn1

>  <Energy>  (68) 
383.4613065201725

>  <Genealogy>  (68) 
Cn1cc(CN2CCN(Cc3noc(C4CC4)n3)CC2)cn1 (3D coordinates assigned)
Cn1cc(CN2CCN(Cc3noc(C4CC4)n3)CC2)cn1 (nonaromatic ring conformer: 383.4613065201725 kcal/mol)

>  <smiles>  (68) 
Cn1cc(CN2CCN(Cc3noc(C4CC4)n3)CC2)cn1

>  <score_type>  (68) 
oracle

>  <origin>  (68) 
adg

>  <m_score__min__energy>  (68) 
-8.2400000000000002

>  <m_primary>  (68) 
energy

$$$$
68:0
     RDKit          3D

 38 39  0  0  1  0  0  0  0  0999 V2000
   58.9080   29.0170   49.1510 C   0  0  0  0  0  0  0  0  0  0  0  0
   59.1420   28.2540   47.8650 C   0  0  0  0  0  0  0  0  0  0  0  0
   58.4100   28.7620   46.7160 C   0  0  0  0  0  0  0  0  0  0  0  0
   57.8890   27.8680   45.7620 C   0  0  0  0  0  0  0  0  0  0  0  0
   58.1540   26.1640   46.0350 Cl  0  0  0  0  0  0  0  0  0  0  0  0
   57.2190   28.2430   44.6870 N   0  0  0  0  0  0  0  0  0  0  0  0
   56.9970   29.5430   44.4490 C   0  0  0  0  0  0  0  0  0  0  0  0
   56.0900   30.0620   42.9960 S   0  0  0  0  0  0  0  0  0  0  0  0
   57.0200   31.4340   42.2400 C   0  0  0  0  0  0  0  0  0  0  0  0
   57.4610   30.4570   45.3080 N   0  0  0  0  0  0  0  0  0  0  0  0
   58.1600   30.0880   46.4330 C   0  0  0  0  0  0  0  0  0  0  0  0
   58.5300   31.0170   47.1800 N   0  0  0  0  0  0  0  0  0  0  0  0
   59.0370   32.2600   46.8300 C   0  0  0  0  0  0  0  0  0  0  0  0
   58.2960   33.3790   46.4800 C   0  0  0  0  0  0  0  0  0  0  0  0
   58.8890   34.6030   46.2240 C   0  0  0  0  0  0  0  0  0  0  0  0
   60.2530   34.7100   46.3220 C   0  0  0  0  0  0  0  0  0  0  0  0
   61.0380   33.6270   46.6670 C   0  0  0  0  0  0  0  0  0  0  0  0
   62.5110   33.8180   46.7530 C   0  0  0  0  0  0  0  0  0  0  0  0
   60.4460   32.4060   46.9220 C   0  0  0  0  0  0  0  0  0  0  0  0
   61.2890   31.2240   47.2970 C   0  0  0  0  0  0  0  0  0  0  0  0
   59.1097   28.3594   50.0094 H   0  0  0  0  0  0  0  0  0  0  0  0
   59.5808   29.8864   49.1891 H   0  0  0  0  0  0  0  0  0  0  0  0
   57.8635   29.3597   49.1891 H   0  0  0  0  0  0  0  0  0  0  0  0
   60.2164   28.2954   47.6326 H   0  0  0  0  0  0  0  0  0  0  0  0
   58.7763   27.2313   48.0393 H   0  0  0  0  0  0  0  0  0  0  0  0
   56.8510   27.5490   44.0080 H   0  0  0  0  0  0  0  0  0  0  0  0
   57.4487   32.0664   43.0314 H   0  0  0  0  0  0  0  0  0  0  0  0
   57.8299   31.0281   41.6161 H   0  0  0  0  0  0  0  0  0  0  0  0
   56.3430   32.0360   41.6161 H   0  0  0  0  0  0  0  0  0  0  0  0
   57.2022   33.2908   46.4035 H   0  0  0  0  0  0  0  0  0  0  0  0
   58.2775   35.4744   45.9469 H   0  0  0  0  0  0  0  0  0  0  0  0
   60.7323   35.6796   46.1214 H   0  0  0  0  0  0  0  0  0  0  0  0
   62.8146   33.8574   47.8095 H   0  0  0  0  0  0  0  0  0  0  0  0
   63.0192   32.9782   46.2565 H   0  0  0  0  0  0  0  0  0  0  0  0
   62.7882   34.7596   46.2565 H   0  0  0  0  0  0  0  0  0  0  0  0
   61.3445   31.1461   48.3928 H   0  0  0  0  0  0  0  0  0  0  0  0
   60.8392   30.3079   46.8866 H   0  0  0  0  0  0  0  0  0  0  0  0
   62.3017   31.3509   46.8866 H   0  0  0  0  0  0  0  0  0  0  0  0
  1  2  1  0
  2  3  1  0
  3  4  2  0
  4  5  1  0
  4  6  1  0
  6  7  1  0
  7  8  1  0
  8  9  1  0
  7 10  2  0
 10 11  1  0
 11 12  2  0
 12 13  1  0
 13 14  2  0
 14 15  1  0
 15 16  2  0
 16 17  1  0
 17 18  1  0
 17 19  2  0
 19 20  1  0
 11  3  1  0
 19 13  1  0
  1 21  1  0
  1 22  1  0
  1 23  1  0
  2 24  1  0
  2 25  1  0
  6 26  1  0
  9 27  1  0
  9 28  1  0
  9 29  1  0
 14 30  1  0
 15 31  1  0
 16 32  1  0
 18 33  1  0
 18 34  1  0
 18 35  1  0
 20 36  1  0
 20 37  1  0
 20 38  1  0
M  END
>  <smiles>  (69) 
CCc1c(Cl)[nH]c(SC)nc1=Nc1cccc(C)c1C

>  <score_type>  (69) 
oracle

>  <origin>  (69) 
adg

>  <m_score__min__energy>  (69) 
-7.3899999999999997

>  <m_primary>  (69) 
energy

$$$$
69:0
     RDKit          3D

 41 43  0  0  0  0  0  0  0  0999 V2000
   54.7820   26.2050   45.8370 N   0  0  0  0  0  0  0  0  0  0  0  0
   56.4200   25.6560   45.8150 S   0  0  0  0  0  0  0  0  0  0  0  0
   56.6820   24.9060   44.5390 O   0  0  0  0  0  0  0  0  0  0  0  0
   56.6500   24.7280   46.9750 O   0  0  0  0  0  0  0  0  0  0  0  0
   57.5040   27.0370   45.9300 C   0  0  0  0  0  0  0  0  0  0  0  0
   57.8420   27.5680   47.1820 C   0  0  0  0  0  0  0  0  0  0  0  0
   58.6930   28.6740   47.2720 C   0  0  0  0  0  0  0  0  0  0  0  0
   59.2090   29.2680   46.1090 C   0  0  0  0  0  0  0  0  0  0  0  0
   60.1210   30.4630   46.2000 C   0  0  0  0  0  0  0  0  0  0  0  0
   59.5720   31.4840   47.1550 C   0  0  0  0  0  0  0  0  0  0  0  0
   59.1930   31.1860   48.4110 N   0  0  0  0  0  0  0  0  0  0  0  0
   58.8050   32.3770   48.9100 C   0  0  0  0  0  0  0  0  0  0  0  0
   58.3690   32.5120   50.0830 O   0  0  0  0  0  0  0  0  0  0  0  0
   58.9190   33.4120   48.0530 N   0  0  0  0  0  0  0  0  0  0  0  0
   59.4180   32.8420   46.9420 C   0  0  0  0  0  0  0  0  0  0  0  0
   59.6810   33.6060   45.6750 C   0  0  0  0  0  0  0  0  0  0  0  0
   58.3770   34.0130   44.9770 C   0  0  0  0  0  0  0  0  0  0  0  0
   57.7600   32.8570   44.2330 C   0  0  0  0  0  0  0  0  0  0  0  0
   57.0120   31.8870   44.9210 C   0  0  0  0  0  0  0  0  0  0  0  0
   56.4880   30.7870   44.2370 C   0  0  0  0  0  0  0  0  0  0  0  0
   56.7110   30.6430   42.8650 C   0  0  0  0  0  0  0  0  0  0  0  0
   57.4600   31.6010   42.1750 C   0  0  0  0  0  0  0  0  0  0  0  0
   57.9870   32.7030   42.8550 C   0  0  0  0  0  0  0  0  0  0  0  0
   58.8690   28.7320   44.8560 C   0  0  0  0  0  0  0  0  0  0  0  0
   58.0180   27.6270   44.7680 C   0  0  0  0  0  0  0  0  0  0  0  0
   54.7630   27.0820   46.4030 H   0  0  0  0  0  0  0  0  0  0  0  0
   57.4363   27.1130   48.0976 H   0  0  0  0  0  0  0  0  0  0  0  0
   58.9595   29.0807   48.2587 H   0  0  0  0  0  0  0  0  0  0  0  0
   61.1101   30.1353   46.5524 H   0  0  0  0  0  0  0  0  0  0  0  0
   60.2010   30.9211   45.2031 H   0  0  0  0  0  0  0  0  0  0  0  0
   60.2535   34.5133   45.9181 H   0  0  0  0  0  0  0  0  0  0  0  0
   60.2463   32.9543   44.9926 H   0  0  0  0  0  0  0  0  0  0  0  0
   57.6639   34.3712   45.7341 H   0  0  0  0  0  0  0  0  0  0  0  0
   58.6096   34.8046   44.2495 H   0  0  0  0  0  0  0  0  0  0  0  0
   56.8382   31.9938   46.0019 H   0  0  0  0  0  0  0  0  0  0  0  0
   55.8988   30.0330   44.7795 H   0  0  0  0  0  0  0  0  0  0  0  0
   56.2975   29.7765   42.3282 H   0  0  0  0  0  0  0  0  0  0  0  0
   57.6350   31.4874   41.0950 H   0  0  0  0  0  0  0  0  0  0  0  0
   58.5809   33.4514   42.3098 H   0  0  0  0  0  0  0  0  0  0  0  0
   59.2747   29.1844   43.9391 H   0  0  0  0  0  0  0  0  0  0  0  0
   57.7506   27.2188   43.7822 H   0  0  0  0  0  0  0  0  0  0  0  0
  1  2  1  0
  2  3  2  0
  2  4  2  0
  2  5  1  0
  5  6  2  0
  6  7  1  0
  7  8  2  0
  8  9  1  0
  9 10  1  0
 10 11  1  0
 11 12  1  0
 12 13  2  0
 12 14  1  0
 14 15  1  0
 15 16  1  0
 16 17  1  0
 17 18  1  0
 18 19  2  0
 19 20  1  0
 20 21  2  0
 21 22  1  0
 22 23  2  0
  8 24  1  0
 24 25  2  0
 25  5  1  0
 15 10  2  0
 23 18  1  0
  1 26  1  0
  6 27  1  0
  7 28  1  0
  9 29  1  0
  9 30  1  0
 16 31  1  0
 16 32  1  0
 17 33  1  0
 17 34  1  0
 19 35  1  0
 20 36  1  0
 21 37  1  0
 22 38  1  0
 23 39  1  0
 24 40  1  0
 25 41  1  0
M  CHG  3   1  -1  11  -1  14  -1
M  END
>  <UniqueID>  (70) 
67

>  <SMILES>  (70) 
[NH-]S(=O)(=O)c1ccc(Cc2[n-]c(=O)[n-]c2CCc2ccccc2)cc1

>  <Energy>  (70) 
64.43097535173744

>  <Genealogy>  (70) 
[NH-]S(=O)(=O)c1ccc(Cc2[n-]c(=O)[n-]c2CCc2ccccc2)cc1 (protonated)
[NH-]S(=O)(=O)c1ccc(Cc2[n-]c(=O)[n-]c2CCc2ccccc2)cc1 (3D coordinates assigned)
[NH-]S(=O)(=O)c1ccc(Cc2[n-]c(=O)[n-]c2CCc2ccccc2)cc1 (optimized conformer: 64.43097535173744 kcal/mol)

>  <smiles>  (70) 
NS(=O)(=O)c1ccc(Cc2[nH]c(=O)[nH]c2CCc2ccccc2)cc1

>  <score_type>  (70) 
oracle

>  <origin>  (70) 
adg

>  <m_score__min__energy>  (70) 
-13.470000000000001

>  <m_primary>  (70) 
energy

$$$$
70:0
     RDKit          3D

 62 66  0  0  0  0  0  0  0  0999 V2000
   62.6930   31.2860   52.9060 C   0  0  0  0  0  0  0  0  0  0  0  0
   63.4190   31.8830   51.6790 C   0  0  0  0  0  0  0  0  0  0  0  0
   62.5760   32.9210   51.0030 N   0  0  0  0  0  0  0  0  0  0  0  0
   61.1820   32.4730   50.7130 C   0  0  0  0  0  0  0  0  0  0  0  0
   60.8570   32.4000   49.2100 C   0  0  0  0  0  0  0  0  0  0  0  0
   61.0850   33.7570   48.4650 C   0  0  0  0  0  0  0  0  0  0  0  0
   59.7620   34.5830   48.4140 C   0  0  0  0  0  0  0  0  0  0  0  0
   58.8610   34.2340   47.2100 C   0  0  0  0  0  0  0  0  0  0  0  0
   59.1160   32.8590   46.7490 N   0  0  0  0  0  0  0  0  0  0  0  0
   58.0870   32.4300   45.7800 C   0  0  0  0  0  0  0  0  0  0  0  0
   57.8870   30.9380   45.8490 C   0  0  0  0  0  0  0  0  0  0  0  0
   57.0490   30.3010   44.9240 C   0  0  0  0  0  0  0  0  0  0  0  0
   56.8290   28.9220   45.0020 C   0  0  0  0  0  0  0  0  0  0  0  0
   57.4430   28.1600   46.0100 C   0  0  0  0  0  0  0  0  0  0  0  0
   57.2130   26.7420   46.0950 N   0  0  0  0  0  0  0  0  0  0  0  0
   56.0350   26.0930   46.0710 C   0  0  0  0  0  0  0  0  0  0  0  0
   54.7900   26.7050   45.9850 O   0  0  0  0  0  0  0  0  0  0  0  0
   56.2530   24.7390   46.1790 C   0  0  0  0  0  0  0  0  0  0  0  0
   57.5810   24.5160   46.2710 N   0  0  0  0  0  0  0  0  0  0  0  0
   58.1250   25.7510   46.2170 C   0  0  0  0  0  0  0  0  0  0  0  0
   59.3680   25.9470   46.2520 O   0  0  0  0  0  0  0  0  0  0  0  0
   58.2780   28.8030   46.9400 C   0  0  0  0  0  0  0  0  0  0  0  0
   58.4960   30.1810   46.8620 C   0  0  0  0  0  0  0  0  0  0  0  0
   60.4780   32.7370   46.1760 C   0  0  0  0  0  0  0  0  0  0  0  0
   61.5450   33.4840   47.0070 C   0  0  0  0  0  0  0  0  0  0  0  0
   62.1760   34.5890   49.2010 C   0  0  0  0  0  0  0  0  0  0  0  0
   63.2040   33.6960   49.9060 C   0  0  0  0  0  0  0  0  0  0  0  0
   64.8660   32.2870   52.0560 C   0  0  0  0  0  0  0  0  0  0  0  0
   65.4060   31.2100   51.1230 C   0  0  0  0  0  0  0  0  0  0  0  0
   63.9890   30.8160   50.7310 C   0  0  0  0  0  0  0  0  0  0  0  0
   63.1567   31.6673   53.8277 H   0  0  0  0  0  0  0  0  0  0  0  0
   61.6324   31.5766   52.8817 H   0  0  0  0  0  0  0  0  0  0  0  0
   62.7733   30.1892   52.8817 H   0  0  0  0  0  0  0  0  0  0  0  0
   61.0409   31.4726   51.1481 H   0  0  0  0  0  0  0  0  0  0  0  0
   60.5054   33.2205   51.1529 H   0  0  0  0  0  0  0  0  0  0  0  0
   61.5004   31.6357   48.7496 H   0  0  0  0  0  0  0  0  0  0  0  0
   59.7896   32.1508   49.1174 H   0  0  0  0  0  0  0  0  0  0  0  0
   59.1969   34.3917   49.3381 H   0  0  0  0  0  0  0  0  0  0  0  0
   60.0460   35.6404   48.3083 H   0  0  0  0  0  0  0  0  0  0  0  0
   57.8066   34.3243   47.5102 H   0  0  0  0  0  0  0  0  0  0  0  0
   59.0852   34.9295   46.3878 H   0  0  0  0  0  0  0  0  0  0  0  0
   57.1374   32.9338   46.0134 H   0  0  0  0  0  0  0  0  0  0  0  0
   58.4190   32.6981   44.7662 H   0  0  0  0  0  0  0  0  0  0  0  0
   56.5615   30.8888   44.1322 H   0  0  0  0  0  0  0  0  0  0  0  0
   56.1712   28.4311   44.2697 H   0  0  0  0  0  0  0  0  0  0  0  0
   55.4722   23.9643   46.1888 H   0  0  0  0  0  0  0  0  0  0  0  0
   58.7632   28.2174   47.7347 H   0  0  0  0  0  0  0  0  0  0  0  0
   59.1478   30.6747   47.5978 H   0  0  0  0  0  0  0  0  0  0  0  0
   60.7476   31.6714   46.1339 H   0  0  0  0  0  0  0  0  0  0  0  0
   60.4587   33.1923   45.1748 H   0  0  0  0  0  0  0  0  0  0  0  0
   62.4600   32.8741   47.0349 H   0  0  0  0  0  0  0  0  0  0  0  0
   61.7200   34.4575   46.5256 H   0  0  0  0  0  0  0  0  0  0  0  0
   62.6982   35.2187   48.4656 H   0  0  0  0  0  0  0  0  0  0  0  0
   61.6766   35.2006   49.9668 H   0  0  0  0  0  0  0  0  0  0  0  0
   63.6349   32.9973   49.1737 H   0  0  0  0  0  0  0  0  0  0  0  0
   63.9871   34.3377   50.3360 H   0  0  0  0  0  0  0  0  0  0  0  0
   65.1372   33.3122   51.7638 H   0  0  0  0  0  0  0  0  0  0  0  0
   65.1793   32.3204   53.1099 H   0  0  0  0  0  0  0  0  0  0  0  0
   66.0075   31.6017   50.2895 H   0  0  0  0  0  0  0  0  0  0  0  0
   66.1041   30.4500   51.5040 H   0  0  0  0  0  0  0  0  0  0  0  0
   63.7538   30.9881   49.6703 H   0  0  0  0  0  0  0  0  0  0  0  0
   63.6623   29.7691   50.8158 H   0  0  0  0  0  0  0  0  0  0  0  0
  1  2  1  0
  2  3  1  0
  3  4  1  0
  4  5  1  0
  5  6  1  0
  6  7  1  0
  7  8  1  0
  8  9  1  0
  9 10  1  0
 10 11  1  0
 11 12  2  0
 12 13  1  0
 13 14  2  0
 14 15  1  0
 15 16  1  0
 16 17  1  0
 16 18  2  0
 18 19  1  0
 19 20  1  0
 20 21  2  0
 14 22  1  0
 22 23  2  0
  9 24  1  0
 24 25  1  0
  6 26  1  0
 26 27  1  0
  2 28  1  0
 28 29  1  0
 29 30  1  0
 30  2  1  0
 27  3  1  0
 25  6  1  0
 23 11  1  0
 20 15  1  0
  1 31  1  0
  1 32  1  0
  1 33  1  0
  4 34  1  0
  4 35  1  0
  5 36  1  0
  5 37  1  0
  7 38  1  0
  7 39  1  0
  8 40  1  0
  8 41  1  0
 10 42  1  0
 10 43  1  0
 12 44  1  0
 13 45  1  0
 18 46  1  0
 22 47  1  0
 23 48  1  0
 24 49  1  0
 24 50  1  0
 25 51  1  0
 25 52  1  0
 26 53  1  0
 26 54  1  0
 27 55  1  0
 27 56  1  0
 28 57  1  0
 28 58  1  0
 29 59  1  0
 29 60  1  0
 30 61  1  0
 30 62  1  0
M  CHG  2  17  -1  19  -1
M  END
>  <UniqueID>  (71) 
68

>  <SMILES>  (71) 
CC1(N2CCC3(CCN(Cc4ccc(-n5c([O-])c[n-]c5=O)cc4)CC3)CC2)CCC1

>  <Energy>  (71) 
190.05201846149836

>  <Genealogy>  (71) 
CC1(N2CCC3(CCN(Cc4ccc(-n5c([O-])c[n-]c5=O)cc4)CC3)CC2)CCC1 (protonated)
CC1(N2CCC3(CCN(Cc4ccc(-n5c([O-])c[n-]c5=O)cc4)CC3)CC2)CCC1 (3D coordinates assigned)
CC1(N2CCC3(CCN(Cc4ccc(-n5c([O-])c[n-]c5=O)cc4)CC3)CC2)CCC1 (nonaromatic ring conformer: 190.05201846149836 kcal/mol)

>  <smiles>  (71) 
CC1(N2CCC3(CCN(Cc4ccc(-n5c(O)c[nH]c5=O)cc4)CC3)CC2)CCC1

>  <score_type>  (71) 
oracle

>  <origin>  (71) 
adg

>  <m_score__min__energy>  (71) 
-14.18

>  <m_primary>  (71) 
energy

$$$$
71:0
     RDKit          3D

 59 62  0  0  0  0  0  0  0  0999 V2000
   60.0150   36.2850   45.6280 C   0  0  0  0  0  0  0  0  0  0  0  0
   59.4850   35.2450   46.4410 O   0  0  0  0  0  0  0  0  0  0  0  0
   58.8130   34.1130   45.9540 C   0  0  0  0  0  0  0  0  0  0  0  0
   58.4060   34.0180   44.6090 C   0  0  0  0  0  0  0  0  0  0  0  0
   57.7650   32.8720   44.1380 C   0  0  0  0  0  0  0  0  0  0  0  0
   57.5160   31.7910   44.9970 C   0  0  0  0  0  0  0  0  0  0  0  0
   56.8450   30.5700   44.4910 C   0  0  0  0  0  0  0  0  0  0  0  0
   55.5860   30.4900   44.5030 O   0  0  0  0  0  0  0  0  0  0  0  0
   57.6290   29.4530   44.0450 N   0  0  0  0  0  0  0  0  0  0  0  0
   58.0980   28.3690   44.8580 C   0  0  0  0  0  0  0  0  0  0  0  0
   58.0910   27.0750   44.3230 C   0  0  0  0  0  0  0  0  0  0  0  0
   58.5490   25.9950   45.0810 C   0  0  0  0  0  0  0  0  0  0  0  0
   58.9880   26.1950   46.3920 C   0  0  0  0  0  0  0  0  0  0  0  0
   58.9410   27.4780   46.9650 C   0  0  0  0  0  0  0  0  0  0  0  0
   59.3750   27.7230   48.3120 N   0  0  0  0  0  0  0  0  0  0  0  0
   59.4350   28.9950   48.9730 C   0  0  0  0  0  0  0  0  0  0  0  0
   58.5250   29.2870   49.7940 O   0  0  0  0  0  0  0  0  0  0  0  0
   60.5470   29.9500   48.7540 C   0  0  0  0  0  0  0  0  0  0  0  0
   61.3710   30.3610   49.8120 C   0  0  0  0  0  0  0  0  0  0  0  0
   62.4060   31.2710   49.5860 C   0  0  0  0  0  0  0  0  0  0  0  0
   62.6180   31.7800   48.2900 C   0  0  0  0  0  0  0  0  0  0  0  0
   63.6700   32.7340   48.0060 N   0  0  0  0  0  0  0  0  0  0  0  0
   64.6790   33.0130   49.0390 C   0  0  0  0  0  0  0  0  0  0  0  0
   63.7480   33.4190   46.7070 C   0  0  0  0  0  0  0  0  0  0  0  0
   61.7990   31.3650   47.2820 N   0  0  0  0  0  0  0  0  0  0  0  0
   60.7830   30.4830   47.4800 C   0  0  0  0  0  0  0  0  0  0  0  0
   58.5110   28.5620   46.1890 C   0  0  0  0  0  0  0  0  0  0  0  0
   57.9130   31.8840   46.3430 C   0  0  0  0  0  0  0  0  0  0  0  0
   58.5550   33.0370   46.8300 C   0  0  0  0  0  0  0  0  0  0  0  0
   58.9580   33.1000   48.2560 C   0  0  0  0  0  0  0  0  0  0  0  0
   58.2530   32.3750   49.2330 C   0  0  0  0  0  0  0  0  0  0  0  0
   58.6340   32.4440   50.5760 C   0  0  0  0  0  0  0  0  0  0  0  0
   59.7230   33.2330   50.9580 C   0  0  0  0  0  0  0  0  0  0  0  0
   60.0910   33.2970   52.2620 F   0  0  0  0  0  0  0  0  0  0  0  0
   60.4370   33.9490   49.9910 C   0  0  0  0  0  0  0  0  0  0  0  0
   60.0600   33.8840   48.6470 C   0  0  0  0  0  0  0  0  0  0  0  0
   60.4207   37.0812   46.2695 H   0  0  0  0  0  0  0  0  0  0  0  0
   60.8173   35.8812   44.9929 H   0  0  0  0  0  0  0  0  0  0  0  0
   59.2168   36.6968   44.9929 H   0  0  0  0  0  0  0  0  0  0  0  0
   58.5956   34.8564   43.9226 H   0  0  0  0  0  0  0  0  0  0  0  0
   57.4523   32.8154   43.0849 H   0  0  0  0  0  0  0  0  0  0  0  0
   57.7227   26.9081   43.3000 H   0  0  0  0  0  0  0  0  0  0  0  0
   58.5641   24.9852   44.6449 H   0  0  0  0  0  0  0  0  0  0  0  0
   59.3715   25.3464   46.9776 H   0  0  0  0  0  0  0  0  0  0  0  0
   61.2013   29.9649   50.8241 H   0  0  0  0  0  0  0  0  0  0  0  0
   63.0530   31.5889   50.4168 H   0  0  0  0  0  0  0  0  0  0  0  0
   64.2285   32.8884   50.0347 H   0  0  0  0  0  0  0  0  0  0  0  0
   65.5210   32.3140   48.9274 H   0  0  0  0  0  0  0  0  0  0  0  0
   65.0422   34.0453   48.9274 H   0  0  0  0  0  0  0  0  0  0  0  0
   63.8711   34.5000   46.8693 H   0  0  0  0  0  0  0  0  0  0  0  0
   64.6080   33.0331   46.1400 H   0  0  0  0  0  0  0  0  0  0  0  0
   62.8232   33.2363   46.1400 H   0  0  0  0  0  0  0  0  0  0  0  0
   60.1433   30.1866   46.6357 H   0  0  0  0  0  0  0  0  0  0  0  0
   58.4961   29.5723   46.6238 H   0  0  0  0  0  0  0  0  0  0  0  0
   57.7187   31.0429   47.0248 H   0  0  0  0  0  0  0  0  0  0  0  0
   57.3969   31.7501   48.9387 H   0  0  0  0  0  0  0  0  0  0  0  0
   58.0754   31.8759   51.3345 H   0  0  0  0  0  0  0  0  0  0  0  0
   61.2979   34.5651   50.2897 H   0  0  0  0  0  0  0  0  0  0  0  0
   60.6267   34.4478   47.8913 H   0  0  0  0  0  0  0  0  0  0  0  0
  1  2  1  0
  2  3  1  0
  3  4  2  0
  4  5  1  0
  5  6  2  0
  6  7  1  0
  7  8  2  0
  7  9  1  0
  9 10  1  0
 10 11  2  0
 11 12  1  0
 12 13  2  0
 13 14  1  0
 14 15  1  0
 15 16  1  0
 16 17  2  0
 16 18  1  0
 18 19  2  0
 19 20  1  0
 20 21  2  0
 21 22  1  0
 22 23  1  0
 22 24  1  0
 21 25  1  0
 25 26  2  0
 14 27  2  0
  6 28  1  0
 28 29  2  0
 29 30  1  0
 30 31  2  0
 31 32  1  0
 32 33  2  0
 33 34  1  0
 33 35  1  0
 35 36  2  0
 29  3  1  0
 36 30  1  0
 27 10  1  0
 26 18  1  0
  1 37  1  0
  1 38  1  0
  1 39  1  0
  4 40  1  0
  5 41  1  0
 11 42  1  0
 12 43  1  0
 13 44  1  0
 19 45  1  0
 20 46  1  0
 23 47  1  0
 23 48  1  0
 23 49  1  0
 24 50  1  0
 24 51  1  0
 24 52  1  0
 26 53  1  0
 27 54  1  0
 28 55  1  0
 31 56  1  0
 32 57  1  0
 35 58  1  0
 36 59  1  0
M  CHG  2   9  -1  15  -1
M  END
>  <UniqueID>  (72) 
69

>  <SMILES>  (72) 
COc1ccc(C(=O)[N-]c2cccc([N-]C(=O)c3ccc(N(C)C)nc3)c2)cc1-c1ccc(F)cc1

>  <Energy>  (72) 
80.92347845202397

>  <Genealogy>  (72) 
COc1ccc(C(=O)[N-]c2cccc([N-]C(=O)c3ccc(N(C)C)nc3)c2)cc1-c1ccc(F)cc1 (protonated)
COc1ccc(C(=O)[N-]c2cccc([N-]C(=O)c3ccc(N(C)C)nc3)c2)cc1-c1ccc(F)cc1 (3D coordinates assigned)
COc1ccc(C(=O)[N-]c2cccc([N-]C(=O)c3ccc(N(C)C)nc3)c2)cc1-c1ccc(F)cc1 (optimized conformer: 80.92347845202397 kcal/mol)

>  <smiles>  (72) 
COc1ccc(C(=O)Nc2cccc(NC(=O)c3ccc(N(C)C)nc3)c2)cc1-c1ccc(F)cc1

>  <score_type>  (72) 
oracle

>  <origin>  (72) 
adg

>  <m_score__min__energy>  (72) 
-11.710000000000001

>  <m_primary>  (72) 
energy

$$$$
72:0
     RDKit          3D

 39 41  0  0  0  0  0  0  0  0999 V2000
   58.8320   25.6270   47.1100 C   0  0  0  0  0  0  0  0  0  0  0  0
   57.9020   26.5180   46.7210 C   0  0  0  0  0  0  0  0  0  0  0  0
   58.2920   27.8660   46.6140 C   0  0  0  0  0  0  0  0  0  0  0  0
   57.4690   28.8140   45.9950 C   0  0  0  0  0  0  0  0  0  0  0  0
   57.9310   30.2160   45.8790 C   0  0  0  0  0  0  0  0  0  0  0  0
   57.3910   30.9660   45.0200 O   0  0  0  0  0  0  0  0  0  0  0  0
   58.9790   30.7210   46.7270 N   0  0  0  0  0  0  0  0  0  0  0  0
   59.5110   32.0530   46.6390 C   0  0  0  0  0  0  0  0  0  0  0  0
   58.6280   33.1360   46.5010 C   0  0  0  0  0  0  0  0  0  0  0  0
   59.1190   34.4440   46.4370 C   0  0  0  0  0  0  0  0  0  0  0  0
   60.4910   34.6830   46.5280 C   0  0  0  0  0  0  0  0  0  0  0  0
   61.3780   33.6140   46.6930 C   0  0  0  0  0  0  0  0  0  0  0  0
   63.1000   33.9180   46.8360 Cl  0  0  0  0  0  0  0  0  0  0  0  0
   60.8900   32.3030   46.7570 C   0  0  0  0  0  0  0  0  0  0  0  0
   56.2520   28.3790   45.4460 C   0  0  0  0  0  0  0  0  0  0  0  0
   55.5240   29.1640   44.7830 O   0  0  0  0  0  0  0  0  0  0  0  0
   55.8530   27.0950   45.6170 N   0  0  0  0  0  0  0  0  0  0  0  0
   56.5870   26.1610   46.2830 C   0  0  0  0  0  0  0  0  0  0  0  0
   55.9840   24.9680   46.4850 C   0  0  0  0  0  0  0  0  0  0  0  0
   56.2260   23.7210   45.7350 C   0  0  0  0  0  0  0  0  0  0  0  0
   55.7890   23.5190   44.4730 N   0  0  0  0  0  0  0  0  0  0  0  0
   56.1400   22.2400   44.2150 C   0  0  0  0  0  0  0  0  0  0  0  0
   55.9250   21.6840   43.1040 O   0  0  0  0  0  0  0  0  0  0  0  0
   56.7350   21.6200   45.2540 N   0  0  0  0  0  0  0  0  0  0  0  0
   57.2920   20.2710   45.2930 C   0  0  0  0  0  0  0  0  0  0  0  0
   56.7880   22.5550   46.2150 C   0  0  0  0  0  0  0  0  0  0  0  0
   57.3060   22.3470   47.4880 O   0  0  0  0  0  0  0  0  0  0  0  0
   58.5684   24.5634   47.2063 H   0  0  0  0  0  0  0  0  0  0  0  0
   59.8560   25.9621   47.3318 H   0  0  0  0  0  0  0  0  0  0  0  0
   59.2626   28.1808   47.0249 H   0  0  0  0  0  0  0  0  0  0  0  0
   59.3490   30.1080   47.4870 H   0  0  0  0  0  0  0  0  0  0  0  0
   57.5446   32.9547   46.4429 H   0  0  0  0  0  0  0  0  0  0  0  0
   58.4222   35.2863   46.3147 H   0  0  0  0  0  0  0  0  0  0  0  0
   60.8749   35.7122   46.4700 H   0  0  0  0  0  0  0  0  0  0  0  0
   61.5882   31.4651   46.9002 H   0  0  0  0  0  0  0  0  0  0  0  0
   55.2366   24.9225   47.2909 H   0  0  0  0  0  0  0  0  0  0  0  0
   57.4213   19.9578   46.3395 H   0  0  0  0  0  0  0  0  0  0  0  0
   56.6070   19.5766   44.7844 H   0  0  0  0  0  0  0  0  0  0  0  0
   58.2673   20.2622   44.7844 H   0  0  0  0  0  0  0  0  0  0  0  0
  1  2  2  0
  2  3  1  0
  3  4  2  0
  4  5  1  0
  5  6  2  0
  5  7  1  0
  7  8  1  0
  8  9  2  0
  9 10  1  0
 10 11  2  0
 11 12  1  0
 12 13  1  0
 12 14  2  0
  4 15  1  0
 15 16  2  0
 15 17  1  0
 17 18  1  0
 18 19  2  3
 19 20  1  0
 20 21  1  0
 21 22  1  0
 22 23  2  0
 22 24  1  0
 24 25  1  0
 24 26  1  0
 26 27  1  0
 18  2  1  0
 26 20  2  0
 14  8  1  0
  1 28  1  0
  1 29  1  0
  3 30  1  0
  7 31  1  0
  9 32  1  0
 10 33  1  0
 11 34  1  0
 14 35  1  0
 19 36  1  0
 25 37  1  0
 25 38  1  0
 25 39  1  0
M  CHG  3  17  -1  21  -1  27  -1
M  END
>  <UniqueID>  (73) 
70

>  <SMILES>  (73) 
C=c1cc(C(=O)Nc2cccc(Cl)c2)c(=O)[n-]c1=Cc1[n-]c(=O)n(C)c1[O-]

>  <Energy>  (73) 
102.99665275887202

>  <Genealogy>  (73) 
C=c1cc(C(=O)Nc2cccc(Cl)c2)c(=O)[n-]c1=Cc1[n-]c(=O)n(C)c1[O-] (protonated)
C=c1cc(C(=O)Nc2cccc(Cl)c2)c(=O)[n-]c1=Cc1[n-]c(=O)n(C)c1[O-] (3D coordinates assigned)
C=c1cc(C(=O)Nc2cccc(Cl)c2)c(=O)[n-]c1=Cc1[n-]c(=O)n(C)c1[O-] (optimized conformer: 102.99665275887202 kcal/mol)

>  <smiles>  (73) 
C=c1cc(C(=O)Nc2cccc(Cl)c2)c(=O)[nH]c1=Cc1[nH]c(=O)n(C)c1O

>  <score_type>  (73) 
oracle

>  <origin>  (73) 
adg

>  <m_score__min__energy>  (73) 
-13.550000000000001

>  <m_primary>  (73) 
energy

$$$$
73:0
     RDKit          3D

 45 47  0  0  0  0  0  0  0  0999 V2000
   57.2080   20.3880   45.4010 C   0  0  0  0  0  0  0  0  0  0  0  0
   56.6790   21.1870   44.2570 C   0  0  0  0  0  0  0  0  0  0  0  0
   56.3150   20.6830   43.0660 N   0  0  0  0  0  0  0  0  0  0  0  0
   55.9710   21.7120   42.3400 O   0  0  0  0  0  0  0  0  0  0  0  0
   56.0890   22.8570   42.9570 N   0  0  0  0  0  0  0  0  0  0  0  0
   56.5460   22.5460   44.1820 C   0  0  0  0  0  0  0  0  0  0  0  0
   56.8320   23.4640   45.1970 O   0  0  0  0  0  0  0  0  0  0  0  0
   56.8070   24.8740   44.9920 C   0  0  0  0  0  0  0  0  0  0  0  0
   55.5910   25.4710   45.6260 C   0  0  0  0  0  0  0  0  0  0  0  0
   54.5260   24.8000   45.6950 O   0  0  0  0  0  0  0  0  0  0  0  0
   55.6280   26.8260   46.0880 N   0  0  0  0  0  0  0  0  0  0  0  0
   56.5400   27.8350   45.6300 C   0  0  0  0  0  0  0  0  0  0  0  0
   57.8780   27.7630   46.0400 C   0  0  0  0  0  0  0  0  0  0  0  0
   58.8030   28.7320   45.6260 C   0  0  0  0  0  0  0  0  0  0  0  0
   60.4850   28.6440   46.1460 S   0  0  0  0  0  0  0  0  0  0  0  0
   61.3700   28.9410   44.9680 O   0  0  0  0  0  0  0  0  0  0  0  0
   60.7950   27.2580   46.6420 O   0  0  0  0  0  0  0  0  0  0  0  0
   60.7810   29.8120   47.4120 N   0  0  0  0  0  0  0  0  0  0  0  0
   61.5010   30.9810   46.8600 C   0  0  0  0  0  0  0  0  0  0  0  0
   61.3850   32.1980   47.7830 C   0  0  0  0  0  0  0  0  0  0  0  0
   59.9190   32.6400   47.9360 C   0  0  0  0  0  0  0  0  0  0  0  0
   58.9250   31.4890   47.7040 C   0  0  0  0  0  0  0  0  0  0  0  0
   59.5250   30.1420   48.1320 C   0  0  0  0  0  0  0  0  0  0  0  0
   58.3790   29.7940   44.8200 C   0  0  0  0  0  0  0  0  0  0  0  0
   57.0400   29.8910   44.4330 C   0  0  0  0  0  0  0  0  0  0  0  0
   56.1150   28.9250   44.8450 C   0  0  0  0  0  0  0  0  0  0  0  0
   54.7770   29.0830   44.5000 O   0  0  0  0  0  0  0  0  0  0  0  0
   56.8991   20.8546   46.3480 H   0  0  0  0  0  0  0  0  0  0  0  0
   56.8085   19.3644   45.3491 H   0  0  0  0  0  0  0  0  0  0  0  0
   58.3063   20.3560   45.3491 H   0  0  0  0  0  0  0  0  0  0  0  0
   57.7063   25.3215   45.4402 H   0  0  0  0  0  0  0  0  0  0  0  0
   56.7825   25.0773   43.9112 H   0  0  0  0  0  0  0  0  0  0  0  0
   58.2053   26.9397   46.6919 H   0  0  0  0  0  0  0  0  0  0  0  0
   62.5636   30.7228   46.7406 H   0  0  0  0  0  0  0  0  0  0  0  0
   61.0496   31.2385   45.8905 H   0  0  0  0  0  0  0  0  0  0  0  0
   61.7868   31.9374   48.7733 H   0  0  0  0  0  0  0  0  0  0  0  0
   61.9555   33.0277   47.3402 H   0  0  0  0  0  0  0  0  0  0  0  0
   59.7736   33.0308   48.9539 H   0  0  0  0  0  0  0  0  0  0  0  0
   59.7221   33.4081   47.1736 H   0  0  0  0  0  0  0  0  0  0  0  0
   58.0137   31.6783   48.2903 H   0  0  0  0  0  0  0  0  0  0  0  0
   58.6924   31.4410   46.6299 H   0  0  0  0  0  0  0  0  0  0  0  0
   59.7387   30.1801   49.2104 H   0  0  0  0  0  0  0  0  0  0  0  0
   58.7900   29.3613   47.8867 H   0  0  0  0  0  0  0  0  0  0  0  0
   59.1018   30.5547   44.4901 H   0  0  0  0  0  0  0  0  0  0  0  0
   56.7116   30.7300   43.8020 H   0  0  0  0  0  0  0  0  0  0  0  0
  1  2  1  0
  2  3  2  0
  3  4  1  0
  4  5  1  0
  5  6  2  0
  6  7  1  0
  7  8  1  0
  8  9  1  0
  9 10  2  0
  9 11  1  0
 11 12  1  0
 12 13  2  0
 13 14  1  0
 14 15  1  0
 15 16  2  0
 15 17  2  0
 15 18  1  0
 18 19  1  0
 19 20  1  0
 20 21  1  0
 21 22  1  0
 22 23  1  0
 14 24  2  0
 24 25  1  0
 25 26  2  0
 26 27  1  0
  6  2  1  0
 26 12  1  0
 23 18  1  0
  1 28  1  0
  1 29  1  0
  1 30  1  0
  8 31  1  0
  8 32  1  0
 13 33  1  0
 19 34  1  0
 19 35  1  0
 20 36  1  0
 20 37  1  0
 21 38  1  0
 21 39  1  0
 22 40  1  0
 22 41  1  0
 23 42  1  0
 23 43  1  0
 24 44  1  0
 25 45  1  0
M  CHG  2  11  -1  27  -1
M  END
>  <UniqueID>  (74) 
71

>  <SMILES>  (74) 
Cc1nonc1OCC(=O)[N-]c1cc(S(=O)(=O)N2CCCCC2)ccc1[O-]

>  <Energy>  (74) 
87.54773469199328

>  <Genealogy>  (74) 
Cc1nonc1OCC(=O)[N-]c1cc(S(=O)(=O)N2CCCCC2)ccc1[O-] (protonated)
Cc1nonc1OCC(=O)[N-]c1cc(S(=O)(=O)N2CCCCC2)ccc1[O-] (3D coordinates assigned)
Cc1nonc1OCC(=O)[N-]c1cc(S(=O)(=O)N2CCCCC2)ccc1[O-] (nonaromatic ring conformer: 87.54773469199328 kcal/mol)

>  <smiles>  (74) 
Cc1nonc1OCC(=O)Nc1cc(S(=O)(=O)N2CCCCC2)ccc1O

>  <score_type>  (74) 
oracle

>  <origin>  (74) 
adg

>  <m_score__min__energy>  (74) 
-14.65

>  <m_primary>  (74) 
energy

$$$$
74:0
     RDKit          3D

 37 39  0  0  0  0  0  0  0  0999 V2000
   54.7010   28.9710   45.5860 H   0  0  0  0  0  0  0  0  0  0  0  0
   55.6020   28.6710   45.2390 O   0  0  0  0  0  0  0  0  0  0  0  0
   56.1920   27.4580   45.5990 C   0  0  0  0  0  0  0  0  0  0  0  0
   55.3900   26.4620   46.0600 N   0  0  0  0  0  0  0  0  0  0  0  0
   55.8900   25.2420   46.3780 C   0  0  0  0  0  0  0  0  0  0  0  0
   55.1230   24.3400   46.8040 O   0  0  0  0  0  0  0  0  0  0  0  0
   57.2150   24.9900   46.2300 N   0  0  0  0  0  0  0  0  0  0  0  0
   58.0650   25.9490   45.7830 C   0  0  0  0  0  0  0  0  0  0  0  0
   59.2900   25.6790   45.6610 O   0  0  0  0  0  0  0  0  0  0  0  0
   57.5800   27.2320   45.4760 C   0  0  0  0  0  0  0  0  0  0  0  0
   58.5170   28.2800   45.0110 C   0  0  0  0  0  0  0  0  0  0  0  0
   59.5208   27.9597   44.6950 H   0  0  0  0  0  0  0  0  0  0  0  0
   58.2340   29.5990   44.9450 C   0  0  0  0  0  0  0  0  0  0  0  0
   58.5950   30.4540   46.0980 C   0  0  0  0  0  0  0  0  0  0  0  0
   58.7666   29.9885   47.0797 H   0  0  0  0  0  0  0  0  0  0  0  0
   58.7180   31.7890   45.9720 C   0  0  0  0  0  0  0  0  0  0  0  0
   59.0940   32.6240   47.1420 C   0  0  0  0  0  0  0  0  0  0  0  0
   58.7450   32.2110   48.4400 C   0  0  0  0  0  0  0  0  0  0  0  0
   58.1998   31.2666   48.5845 H   0  0  0  0  0  0  0  0  0  0  0  0
   59.0860   32.9920   49.5480 C   0  0  0  0  0  0  0  0  0  0  0  0
   58.8125   32.6586   50.5600 H   0  0  0  0  0  0  0  0  0  0  0  0
   59.7740   34.1960   49.3720 C   0  0  0  0  0  0  0  0  0  0  0  0
   60.0427   34.8091   50.2449 H   0  0  0  0  0  0  0  0  0  0  0  0
   60.1200   34.6200   48.0870 C   0  0  0  0  0  0  0  0  0  0  0  0
   60.6598   35.5685   47.9489 H   0  0  0  0  0  0  0  0  0  0  0  0
   59.7820   33.8420   46.9760 C   0  0  0  0  0  0  0  0  0  0  0  0
   60.0548   34.1828   45.9663 H   0  0  0  0  0  0  0  0  0  0  0  0
   58.5050   32.4210   44.6950 N   0  0  0  0  0  0  0  0  0  0  0  0
   58.7410   33.4350   44.5880 H   0  0  0  0  0  0  0  0  0  0  0  0
   58.0160   31.6910   43.5600 C   0  0  0  0  0  0  0  0  0  0  0  0
   57.9550   32.2890   42.3640 C   0  0  0  0  0  0  0  0  0  0  0  0
   57.5812   31.7348   41.4904 H   0  0  0  0  0  0  0  0  0  0  0  0
   58.2787   33.3346   42.2547 H   0  0  0  0  0  0  0  0  0  0  0  0
   57.6370   30.2700   43.7580 C   0  0  0  0  0  0  0  0  0  0  0  0
   56.6520   29.7030   43.0440 C   0  0  0  0  0  0  0  0  0  0  0  0
   56.2332   30.2266   42.1720 H   0  0  0  0  0  0  0  0  0  0  0  0
   56.2635   28.7147   43.3309 H   0  0  0  0  0  0  0  0  0  0  0  0
  1  2  1  0
  2  3  1  0
  3  4  1  0
  4  5  1  0
  5  6  2  0
  5  7  1  0
  7  8  1  0
  8  9  2  0
  8 10  1  0
 10 11  1  0
 11 12  1  0
 11 13  2  0
 13 14  1  0
 14 15  1  0
 14 16  2  0
 16 17  1  0
 17 18  2  0
 18 19  1  0
 18 20  1  0
 20 21  1  0
 20 22  2  0
 22 23  1  0
 22 24  1  0
 24 25  1  0
 24 26  2  0
 26 27  1  0
 16 28  1  0
 28 29  1  0
 28 30  1  0
 30 31  2  0
 31 32  1  0
 31 33  1  0
 30 34  1  0
 34 35  2  0
 35 36  1  0
 35 37  1  0
 10  3  2  0
 34 13  1  0
 26 17  1  0
M  CHG  2   4  -1   7  -1
M  END
>  <UniqueID>  (75) 
72

>  <SMILES>  (75) 
C=C1NC(c2ccccc2)=C/C(=C/c2c(O)[n-]c(=O)[n-]c2=O)C1=C

>  <Energy>  (75) 
61.98472242413753

>  <Genealogy>  (75) 
C=C1NC(c2ccccc2)=CC(=Cc2c(O)[n-]c(=O)[n-]c2=O)C1=C (protonated)
C=C1NC(c2ccccc2)=C/C(=C/c2c(O)[n-]c(=O)[n-]c2=O)C1=C (cis-trans isomerization)
C=C1NC(c2ccccc2)=C/C(=C/c2c(O)[n-]c(=O)[n-]c2=O)C1=C (3D coordinates assigned)
C=C1NC(c2ccccc2)=C/C(=C/c2c(O)[n-]c(=O)[n-]c2=O)C1=C (nonaromatic ring conformer: 61.98472242413753 kcal/mol)

>  <smiles>  (75) 
C=C1NC(c2ccccc2)=CC(=Cc2c(O)[nH]c(=O)[nH]c2=O)C1=C

>  <score_type>  (75) 
oracle

>  <origin>  (75) 
adg

>  <m_score__min__energy>  (75) 
-13.92

>  <m_primary>  (75) 
energy

$$$$
75:0
     RDKit          3D

 52 55  0  0  1  0  0  0  0  0999 V2000
   57.4480   31.9870   41.6600 C   0  0  0  0  0  0  0  0  0  0  0  0
   57.5670   31.6630   43.1000 C   0  0  0  0  0  0  0  0  0  0  0  0
   57.5810   30.3920   43.5400 N   0  0  0  0  0  0  0  0  0  0  0  0
   57.6890   30.0680   44.8490 C   0  0  0  0  0  0  0  0  0  0  0  0
   57.6980   28.6710   45.2570 C   0  0  0  0  0  0  0  0  0  0  0  0
   58.8370   27.8970   45.3110 C   0  0  0  0  0  0  0  0  0  0  0  0
   58.7810   26.5580   45.7110 C   0  0  0  0  0  0  0  0  0  0  0  0
   57.5720   26.0610   46.0400 N   0  0  0  0  0  0  0  0  0  0  0  0
   56.4410   26.7910   45.9970 C   0  0  0  0  0  0  0  0  0  0  0  0
   55.2860   26.2750   46.3240 N   0  0  0  0  0  0  0  0  0  0  0  0
   56.5430   28.0760   45.6060 N   0  0  0  0  0  0  0  0  0  0  0  0
   57.7860   31.1130   45.7330 C   0  0  0  0  0  0  0  0  0  0  0  0
   57.7720   32.4170   45.2830 C   0  0  0  0  0  0  0  0  0  0  0  0
   57.8600   33.4410   46.0630 N   0  0  0  0  0  0  0  0  0  0  0  0
   58.8620   34.4420   45.7480 C   0  0  0  0  0  0  0  0  0  0  0  0
   59.9570   34.1680   46.7530 C   0  0  0  0  0  0  0  0  0  0  0  0
   61.2090   33.7800   46.2930 C   0  0  0  0  0  0  0  0  0  0  0  0
   62.2370   33.5210   47.1990 C   0  0  0  0  0  0  0  0  0  0  0  0
   62.0250   33.6460   48.5650 C   0  0  0  0  0  0  0  0  0  0  0  0
   63.1430   33.3600   49.4390 C   0  0  0  0  0  0  0  0  0  0  0  0
   63.1340   33.8320   50.5910 O   0  0  0  0  0  0  0  0  0  0  0  0
   64.2530   32.5660   49.0530 N   0  0  0  0  0  0  0  0  0  0  0  0
   65.2980   32.3610   50.0240 C   0  0  0  0  0  0  0  0  0  0  0  0
   66.4730   33.0700   49.9100 C   0  0  0  0  0  0  0  0  0  0  0  0
   67.4640   32.8470   50.8680 C   0  0  0  0  0  0  0  0  0  0  0  0
   67.2440   31.9360   51.8890 C   0  0  0  0  0  0  0  0  0  0  0  0
   66.0490   31.2450   51.9670 C   0  0  0  0  0  0  0  0  0  0  0  0
   65.0590   31.4480   51.0360 C   0  0  0  0  0  0  0  0  0  0  0  0
   63.4110   30.4900   51.1480 Br  0  0  0  0  0  0  0  0  0  0  0  0
   60.7760   34.0320   49.0090 C   0  0  0  0  0  0  0  0  0  0  0  0
   59.7380   34.2940   48.1080 C   0  0  0  0  0  0  0  0  0  0  0  0
   57.6620   32.6950   43.9580 N   0  0  0  0  0  0  0  0  0  0  0  0
   57.0708   33.0139   41.5452 H   0  0  0  0  0  0  0  0  0  0  0  0
   58.4355   31.9035   41.1826 H   0  0  0  0  0  0  0  0  0  0  0  0
   56.7493   31.2842   41.1826 H   0  0  0  0  0  0  0  0  0  0  0  0
   59.8056   28.3394   45.0351 H   0  0  0  0  0  0  0  0  0  0  0  0
   59.6869   25.9356   45.7553 H   0  0  0  0  0  0  0  0  0  0  0  0
   57.4800   25.0520   46.3490 H   0  0  0  0  0  0  0  0  0  0  0  0
   54.8010   26.7280   47.1270 H   0  0  0  0  0  0  0  0  0  0  0  0
   57.8757   30.9091   46.8102 H   0  0  0  0  0  0  0  0  0  0  0  0
   59.2318   34.3190   44.7193 H   0  0  0  0  0  0  0  0  0  0  0  0
   58.4749   35.4701   45.8035 H   0  0  0  0  0  0  0  0  0  0  0  0
   61.3897   33.6769   45.2129 H   0  0  0  0  0  0  0  0  0  0  0  0
   63.2259   33.2145   46.8273 H   0  0  0  0  0  0  0  0  0  0  0  0
   64.2950   32.1530   48.0960 H   0  0  0  0  0  0  0  0  0  0  0  0
   66.6258   33.7884   49.0911 H   0  0  0  0  0  0  0  0  0  0  0  0
   68.4172   33.3932   50.8125 H   0  0  0  0  0  0  0  0  0  0  0  0
   68.0258   31.7614   52.6428 H   0  0  0  0  0  0  0  0  0  0  0  0
   65.8891   30.5250   52.7831 H   0  0  0  0  0  0  0  0  0  0  0  0
   60.5939   34.1353   50.0889 H   0  0  0  0  0  0  0  0  0  0  0  0
   58.7492   34.5999   48.4803 H   0  0  0  0  0  0  0  0  0  0  0  0
   57.6490   33.6710   43.6020 H   0  0  0  0  0  0  0  0  0  0  0  0
  1  2  1  0
  2  3  2  0
  3  4  1  0
  4  5  1  0
  5  6  1  0
  6  7  2  0
  7  8  1  0
  8  9  1  0
  9 10  2  3
  9 11  1  0
  4 12  2  0
 12 13  1  0
 13 14  2  0
 14 15  1  0
 15 16  1  0
 16 17  2  0
 17 18  1  0
 18 19  2  0
 19 20  1  0
 20 21  2  0
 20 22  1  0
 22 23  1  0
 23 24  2  0
 24 25  1  0
 25 26  2  0
 26 27  1  0
 27 28  2  0
 28 29  1  0
 19 30  1  0
 30 31  2  0
 13 32  1  0
 32  2  1  0
 11  5  2  0
 31 16  1  0
 28 23  1  0
  1 33  1  0
  1 34  1  0
  1 35  1  0
  6 36  1  0
  7 37  1  0
  8 38  1  0
 10 39  1  0
 12 40  1  0
 15 41  1  0
 15 42  1  0
 17 43  1  0
 18 44  1  0
 22 45  1  0
 24 46  1  0
 25 47  1  0
 26 48  1  0
 27 49  1  0
 30 50  1  0
 31 51  1  0
 32 52  1  0
M  END
>  <smiles>  (76) 
Cc1nc(-c2cc[nH]c(=N)n2)cc(=NCc2ccc(C(=O)Nc3ccccc3Br)cc2)[nH]1

>  <score_type>  (76) 
oracle

>  <origin>  (76) 
adg

>  <m_score__min__energy>  (76) 
-9.8800000000000008

>  <m_primary>  (76) 
energy

$$$$
76:0
     RDKit          3D

 55 58  0  0  0  0  0  0  0  0999 V2000
   58.8890   29.6570   44.2090 N   0  0  0  0  0  0  0  0  0  0  0  0
   57.4930   28.6360   44.1730 S   0  0  0  0  0  0  0  0  0  0  0  0
   56.9290   28.6000   42.7810 O   0  0  0  0  0  0  0  0  0  0  0  0
   56.4600   29.2100   45.1040 O   0  0  0  0  0  0  0  0  0  0  0  0
   57.9220   26.9950   44.6850 C   0  0  0  0  0  0  0  0  0  0  0  0
   57.4930   25.9100   43.9030 C   0  0  0  0  0  0  0  0  0  0  0  0
   57.7640   24.5980   44.2970 C   0  0  0  0  0  0  0  0  0  0  0  0
   58.4660   24.3520   45.4760 C   0  0  0  0  0  0  0  0  0  0  0  0
   58.9100   25.4180   46.2610 C   0  0  0  0  0  0  0  0  0  0  0  0
   58.6570   26.7440   45.8710 C   0  0  0  0  0  0  0  0  0  0  0  0
   59.1700   27.8350   46.7240 C   0  0  0  0  0  0  0  0  0  0  0  0
   60.3620   28.4970   46.3900 C   0  0  0  0  0  0  0  0  0  0  0  0
   60.8460   29.5270   47.2010 C   0  0  0  0  0  0  0  0  0  0  0  0
   60.1560   29.8950   48.3660 C   0  0  0  0  0  0  0  0  0  0  0  0
   60.6710   31.0080   49.2410 C   0  0  0  0  0  0  0  0  0  0  0  0
   60.4300   32.3090   48.6160 N   0  0  0  0  0  0  0  0  0  0  0  0
   59.6080   32.4660   47.5900 N   0  0  0  0  0  0  0  0  0  0  0  0
   59.5630   33.7810   47.2940 C   0  0  0  0  0  0  0  0  0  0  0  0
   58.7550   34.3450   46.1510 C   0  0  0  0  0  0  0  0  0  0  0  0
   57.3360   33.7450   46.1290 C   0  0  0  0  0  0  0  0  0  0  0  0
   57.2900   32.3450   45.4820 C   0  0  0  0  0  0  0  0  0  0  0  0
   58.1310   32.1970   44.2750 N   0  0  0  0  0  0  0  0  0  0  0  0
   58.6390   33.4670   43.7420 C   0  0  0  0  0  0  0  0  0  0  0  0
   59.4850   34.2050   44.7890 C   0  0  0  0  0  0  0  0  0  0  0  0
   60.3880   34.4810   48.1580 C   0  0  0  0  0  0  0  0  0  0  0  0
   60.9230   33.5140   48.9870 C   0  0  0  0  0  0  0  0  0  0  0  0
   61.8520   33.7720   50.1410 C   0  0  0  0  0  0  0  0  0  0  0  0
   62.5490   34.9450   49.9220 F   0  0  0  0  0  0  0  0  0  0  0  0
   62.7600   32.7360   50.2710 F   0  0  0  0  0  0  0  0  0  0  0  0
   61.1340   33.8750   51.3180 F   0  0  0  0  0  0  0  0  0  0  0  0
   58.9680   29.2280   48.7020 C   0  0  0  0  0  0  0  0  0  0  0  0
   58.4820   28.1980   47.8910 C   0  0  0  0  0  0  0  0  0  0  0  0
   58.8000   30.2680   45.0510 H   0  0  0  0  0  0  0  0  0  0  0  0
   58.8340   30.2820   43.3730 H   0  0  0  0  0  0  0  0  0  0  0  0
   56.9383   26.0955   42.9714 H   0  0  0  0  0  0  0  0  0  0  0  0
   57.4228   23.7568   43.6757 H   0  0  0  0  0  0  0  0  0  0  0  0
   58.6703   23.3172   45.7882 H   0  0  0  0  0  0  0  0  0  0  0  0
   59.4618   25.2183   47.1914 H   0  0  0  0  0  0  0  0  0  0  0  0
   60.9170   28.2039   45.4867 H   0  0  0  0  0  0  0  0  0  0  0  0
   61.7724   30.0518   46.9247 H   0  0  0  0  0  0  0  0  0  0  0  0
   60.1553   30.9725   50.2120 H   0  0  0  0  0  0  0  0  0  0  0  0
   61.7543   30.8770   49.3801 H   0  0  0  0  0  0  0  0  0  0  0  0
   58.6474   35.4263   46.3216 H   0  0  0  0  0  0  0  0  0  0  0  0
   56.9714   33.6663   47.1638 H   0  0  0  0  0  0  0  0  0  0  0  0
   56.7036   34.4111   45.5237 H   0  0  0  0  0  0  0  0  0  0  0  0
   57.6284   31.6109   46.2281 H   0  0  0  0  0  0  0  0  0  0  0  0
   56.2507   32.1846   45.1595 H   0  0  0  0  0  0  0  0  0  0  0  0
   58.9480   31.5820   44.4980 H   0  0  0  0  0  0  0  0  0  0  0  0
   59.2597   33.2629   42.8571 H   0  0  0  0  0  0  0  0  0  0  0  0
   57.7817   34.1020   43.4738 H   0  0  0  0  0  0  0  0  0  0  0  0
   60.4194   33.6460   44.9453 H   0  0  0  0  0  0  0  0  0  0  0  0
   59.6791   35.2185   44.4080 H   0  0  0  0  0  0  0  0  0  0  0  0
   60.5755   35.5647   48.1795 H   0  0  0  0  0  0  0  0  0  0  0  0
   58.4160   29.5171   49.6085 H   0  0  0  0  0  0  0  0  0  0  0  0
   57.5574   27.6709   48.1690 H   0  0  0  0  0  0  0  0  0  0  0  0
  1  2  1  0
  2  3  2  0
  2  4  2  0
  2  5  1  0
  5  6  2  0
  6  7  1  0
  7  8  2  0
  8  9  1  0
  9 10  2  0
 10 11  1  0
 11 12  2  0
 12 13  1  0
 13 14  2  0
 14 15  1  0
 15 16  1  0
 16 17  1  0
 17 18  2  0
 18 19  1  0
 19 20  1  0
 20 21  1  0
 21 22  1  0
 22 23  1  0
 23 24  1  0
 18 25  1  0
 25 26  2  0
 26 27  1  0
 27 28  1  0
 27 29  1  0
 27 30  1  0
 14 31  1  0
 31 32  2  0
 10  5  1  0
 32 11  1  0
 26 16  1  0
 24 19  1  0
  1 33  1  0
  1 34  1  0
  6 35  1  0
  7 36  1  0
  8 37  1  0
  9 38  1  0
 12 39  1  0
 13 40  1  0
 15 41  1  0
 15 42  1  0
 19 43  1  0
 20 44  1  0
 20 45  1  0
 21 46  1  0
 21 47  1  0
 22 48  1  0
 23 49  1  0
 23 50  1  0
 24 51  1  0
 24 52  1  0
 25 53  1  0
 31 54  1  0
 32 55  1  0
M  END
>  <UniqueID>  (77) 
73

>  <SMILES>  (77) 
NS(=O)(=O)c1ccccc1-c1ccc(Cn2nc(C3CCNCC3)cc2C(F)(F)F)cc1

>  <Energy>  (77) 
100.0117814362514

>  <Genealogy>  (77) 
NS(=O)(=O)c1ccccc1-c1ccc(Cn2nc(C3CCNCC3)cc2C(F)(F)F)cc1 (3D coordinates assigned)
NS(=O)(=O)c1ccccc1-c1ccc(Cn2nc(C3CCNCC3)cc2C(F)(F)F)cc1 (nonaromatic ring conformer: 100.0117814362514 kcal/mol)

>  <smiles>  (77) 
NS(=O)(=O)c1ccccc1-c1ccc(Cn2nc(C3CCNCC3)cc2C(F)(F)F)cc1

>  <score_type>  (77) 
oracle

>  <origin>  (77) 
adg

>  <m_score__min__energy>  (77) 
-8.3599999999999994

>  <m_primary>  (77) 
energy

$$$$
77:0
     RDKit          3D

 77 81  0  0  0  0  0  0  0  0999 V2000
   56.9310   20.5920   55.1490 C   0  0  0  0  0  0  0  0  0  0  0  0
   57.8730   20.8140   54.0040 C   0  0  0  0  0  0  0  0  0  0  0  0
   59.0850   21.0500   54.2680 O   0  0  0  0  0  0  0  0  0  0  0  0
   57.4330   20.7690   52.6280 N   0  0  0  0  0  0  0  0  0  0  0  0
   56.0200   20.5440   52.2710 C   0  0  0  0  0  0  0  0  0  0  0  0
   55.6130   21.4240   51.0800 C   0  0  0  0  0  0  0  0  0  0  0  0
   56.6490   21.4520   50.0380 N   0  0  0  0  0  0  0  0  0  0  0  0
   56.5510   22.4170   48.9730 C   0  0  0  0  0  0  0  0  0  0  0  0
   55.5710   22.2780   47.9750 C   0  0  0  0  0  0  0  0  0  0  0  0
   55.4390   23.2460   46.9750 C   0  0  0  0  0  0  0  0  0  0  0  0
   56.2810   24.3660   46.9610 C   0  0  0  0  0  0  0  0  0  0  0  0
   56.0350   25.6620   45.7940 S   0  0  0  0  0  0  0  0  0  0  0  0
   54.5690   25.9260   45.5870 O   0  0  0  0  0  0  0  0  0  0  0  0
   56.6520   25.2600   44.4810 O   0  0  0  0  0  0  0  0  0  0  0  0
   56.8050   27.1030   46.3810 N   0  0  0  0  0  0  0  0  0  0  0  0
   58.1630   27.4100   46.0310 C   0  0  0  0  0  0  0  0  0  0  0  0
   59.2060   27.0150   46.8870 C   0  0  0  0  0  0  0  0  0  0  0  0
   60.5340   27.3110   46.5740 C   0  0  0  0  0  0  0  0  0  0  0  0
   60.8380   28.0030   45.4020 C   0  0  0  0  0  0  0  0  0  0  0  0
   59.8160   28.3910   44.5350 C   0  0  0  0  0  0  0  0  0  0  0  0
   58.4720   28.0950   44.8310 C   0  0  0  0  0  0  0  0  0  0  0  0
   57.4010   28.5360   43.8590 C   0  0  0  0  0  0  0  0  0  0  0  0
   56.4130   29.4680   44.5180 C   0  0  0  0  0  0  0  0  0  0  0  0
   55.4990   28.9840   45.2420 O   0  0  0  0  0  0  0  0  0  0  0  0
   56.4360   30.8890   44.3250 N   0  0  0  0  0  0  0  0  0  0  0  0
   57.3760   31.8680   44.7960 C   0  0  0  0  0  0  0  0  0  0  0  0
   57.9130   32.8680   43.9670 C   0  0  0  0  0  0  0  0  0  0  0  0
   58.8620   33.7630   44.4660 C   0  0  0  0  0  0  0  0  0  0  0  0
   59.3210   33.6440   45.7790 C   0  0  0  0  0  0  0  0  0  0  0  0
   58.8340   32.6200   46.6030 C   0  0  0  0  0  0  0  0  0  0  0  0
   59.5410   32.3580   48.2030 S   0  0  0  0  0  0  0  0  0  0  0  0
   60.6900   33.3110   48.3870 O   0  0  0  0  0  0  0  0  0  0  0  0
   58.5080   32.6690   49.2500 O   0  0  0  0  0  0  0  0  0  0  0  0
   60.1110   30.7250   48.4520 N   0  0  0  0  0  0  0  0  0  0  0  0
   59.0510   29.8370   48.9150 C   0  0  0  0  0  0  0  0  0  0  0  0
   59.7550   28.6770   49.5950 C   0  0  0  0  0  0  0  0  0  0  0  0
   61.1220   29.2200   49.9960 C   0  0  0  0  0  0  0  0  0  0  0  0
   61.1510   30.6480   49.4770 C   0  0  0  0  0  0  0  0  0  0  0  0
   57.8570   31.7420   46.1070 C   0  0  0  0  0  0  0  0  0  0  0  0
   57.2610   24.5050   47.9500 C   0  0  0  0  0  0  0  0  0  0  0  0
   57.3980   23.5370   48.9500 C   0  0  0  0  0  0  0  0  0  0  0  0
   57.8400   20.6090   50.1800 C   0  0  0  0  0  0  0  0  0  0  0  0
   58.4530   20.8260   51.5640 C   0  0  0  0  0  0  0  0  0  0  0  0
   57.4716   20.7194   56.0985 H   0  0  0  0  0  0  0  0  0  0  0  0
   56.1091   21.3211   55.0943 H   0  0  0  0  0  0  0  0  0  0  0  0
   56.5212   19.5727   55.0943 H   0  0  0  0  0  0  0  0  0  0  0  0
   55.8795   19.4865   52.0029 H   0  0  0  0  0  0  0  0  0  0  0  0
   55.3915   20.8061   53.1348 H   0  0  0  0  0  0  0  0  0  0  0  0
   54.6834   21.0270   50.6462 H   0  0  0  0  0  0  0  0  0  0  0  0
   55.4729   22.4511   51.4481 H   0  0  0  0  0  0  0  0  0  0  0  0
   54.9044   21.4030   47.9808 H   0  0  0  0  0  0  0  0  0  0  0  0
   54.6712   23.1280   46.1962 H   0  0  0  0  0  0  0  0  0  0  0  0
   56.2040   27.8240   46.8390 H   0  0  0  0  0  0  0  0  0  0  0  0
   58.9735   26.4675   47.8123 H   0  0  0  0  0  0  0  0  0  0  0  0
   61.3413   26.9981   47.2525 H   0  0  0  0  0  0  0  0  0  0  0  0
   61.8841   28.2431   45.1610 H   0  0  0  0  0  0  0  0  0  0  0  0
   60.0630   28.9338   43.6107 H   0  0  0  0  0  0  0  0  0  0  0  0
   57.8760   29.0563   43.0142 H   0  0  0  0  0  0  0  0  0  0  0  0
   56.8588   27.6443   43.5114 H   0  0  0  0  0  0  0  0  0  0  0  0
   57.5842   32.9461   42.9202 H   0  0  0  0  0  0  0  0  0  0  0  0
   59.2496   34.5656   43.8213 H   0  0  0  0  0  0  0  0  0  0  0  0
   60.0656   34.3545   46.1673 H   0  0  0  0  0  0  0  0  0  0  0  0
   58.3968   30.3599   49.6282 H   0  0  0  0  0  0  0  0  0  0  0  0
   58.4155   29.4958   48.0845 H   0  0  0  0  0  0  0  0  0  0  0  0
   59.1933   28.3518   50.4831 H   0  0  0  0  0  0  0  0  0  0  0  0
   59.8376   27.8014   48.9343 H   0  0  0  0  0  0  0  0  0  0  0  0
   61.2375   29.2046   51.0898 H   0  0  0  0  0  0  0  0  0  0  0  0
   61.9423   28.6152   49.5821 H   0  0  0  0  0  0  0  0  0  0  0  0
   60.9377   31.3554   50.2920 H   0  0  0  0  0  0  0  0  0  0  0  0
   62.1388   30.9088   49.0694 H   0  0  0  0  0  0  0  0  0  0  0  0
   57.4639   30.9450   46.7553 H   0  0  0  0  0  0  0  0  0  0  0  0
   57.9272   25.3803   47.9409 H   0  0  0  0  0  0  0  0  0  0  0  0
   58.1728   23.6534   49.7221 H   0  0  0  0  0  0  0  0  0  0  0  0
   57.5575   19.5521   50.0652 H   0  0  0  0  0  0  0  0  0  0  0  0
   58.5746   20.8771   49.4064 H   0  0  0  0  0  0  0  0  0  0  0  0
   59.2039   20.0435   51.7479 H   0  0  0  0  0  0  0  0  0  0  0  0
   58.9121   21.8254   51.5826 H   0  0  0  0  0  0  0  0  0  0  0  0
  1  2  1  0
  2  3  2  0
  2  4  1  0
  4  5  1  0
  5  6  1  0
  6  7  1  0
  7  8  1  0
  8  9  2  0
  9 10  1  0
 10 11  2  0
 11 12  1  0
 12 13  2  0
 12 14  2  0
 12 15  1  0
 15 16  1  0
 16 17  2  0
 17 18  1  0
 18 19  2  0
 19 20  1  0
 20 21  2  0
 21 22  1  0
 22 23  1  0
 23 24  2  0
 23 25  1  0
 25 26  1  0
 26 27  2  0
 27 28  1  0
 28 29  2  0
 29 30  1  0
 30 31  1  0
 31 32  2  0
 31 33  2  0
 31 34  1  0
 34 35  1  0
 35 36  1  0
 36 37  1  0
 37 38  1  0
 30 39  2  0
 11 40  1  0
 40 41  2  0
  7 42  1  0
 42 43  1  0
 43  4  1  0
 41  8  1  0
 21 16  1  0
 39 26  1  0
 38 34  1  0
  1 44  1  0
  1 45  1  0
  1 46  1  0
  5 47  1  0
  5 48  1  0
  6 49  1  0
  6 50  1  0
  9 51  1  0
 10 52  1  0
 15 53  1  0
 17 54  1  0
 18 55  1  0
 19 56  1  0
 20 57  1  0
 22 58  1  0
 22 59  1  0
 27 60  1  0
 28 61  1  0
 29 62  1  0
 35 63  1  0
 35 64  1  0
 36 65  1  0
 36 66  1  0
 37 67  1  0
 37 68  1  0
 38 69  1  0
 38 70  1  0
 39 71  1  0
 40 72  1  0
 41 73  1  0
 42 74  1  0
 42 75  1  0
 43 76  1  0
 43 77  1  0
M  CHG  1  25  -1
M  END
>  <UniqueID>  (78) 
74

>  <SMILES>  (78) 
CC(=O)N1CCN(c2ccc(S(=O)(=O)Nc3ccccc3CC(=O)[N-]c3cccc(S(=O)(=O)N4CCCC4)c3)cc2)CC1

>  <Energy>  (78) 
96.33188225518211

>  <Genealogy>  (78) 
CC(=O)N1CCN(c2ccc(S(=O)(=O)Nc3ccccc3CC(=O)[N-]c3cccc(S(=O)(=O)N4CCCC4)c3)cc2)CC1 (protonated)
CC(=O)N1CCN(c2ccc(S(=O)(=O)Nc3ccccc3CC(=O)[N-]c3cccc(S(=O)(=O)N4CCCC4)c3)cc2)CC1 (3D coordinates assigned)
CC(=O)N1CCN(c2ccc(S(=O)(=O)Nc3ccccc3CC(=O)[N-]c3cccc(S(=O)(=O)N4CCCC4)c3)cc2)CC1 (nonaromatic ring conformer: 96.33188225518211 kcal/mol)

>  <smiles>  (78) 
CC(=O)N1CCN(c2ccc(S(=O)(=O)Nc3ccccc3CC(=O)Nc3cccc(S(=O)(=O)N4CCCC4)c3)cc2)CC1

>  <score_type>  (78) 
oracle

>  <origin>  (78) 
adg

>  <m_score__min__energy>  (78) 
-13.85

>  <m_primary>  (78) 
energy

$$$$
78:0
     RDKit          3D

 57 60  0  0  0  0  0  0  0  0999 V2000
   67.9140   27.4110   51.3310 C   0  0  0  0  0  0  0  0  0  0  0  0
   67.4750   28.6960   50.8000 N   0  0  0  0  0  0  0  0  0  0  0  0
   66.5790   29.5450   51.5340 C   0  0  0  0  0  0  0  0  0  0  0  0
   66.0540   29.1240   52.6000 O   0  0  0  0  0  0  0  0  0  0  0  0
   66.2410   30.9030   51.0460 C   0  0  0  0  0  0  0  0  0  0  0  0
   67.1910   31.9310   51.1130 C   0  0  0  0  0  0  0  0  0  0  0  0
   66.8890   33.1740   50.6580 N   0  0  0  0  0  0  0  0  0  0  0  0
   65.6730   33.4710   50.1310 C   0  0  0  0  0  0  0  0  0  0  0  0
   64.6690   32.4870   50.0360 C   0  0  0  0  0  0  0  0  0  0  0  0
   63.3030   32.8300   49.4220 C   0  0  0  0  0  0  0  0  0  0  0  0
   63.3720   34.0520   48.7170 O   0  0  0  0  0  0  0  0  0  0  0  0
   62.2450   33.0100   50.5580 C   0  0  0  0  0  0  0  0  0  0  0  0
   60.8990   32.3160   50.2880 C   0  0  0  0  0  0  0  0  0  0  0  0
   60.5210   32.4140   48.8700 N   0  0  0  0  0  0  0  0  0  0  0  0
   59.1460   32.6590   48.4970 C   0  0  0  0  0  0  0  0  0  0  0  0
   58.2380   32.6690   49.3750 O   0  0  0  0  0  0  0  0  0  0  0  0
   58.7670   32.8880   47.0950 C   0  0  0  0  0  0  0  0  0  0  0  0
   59.3740   33.9140   46.3550 C   0  0  0  0  0  0  0  0  0  0  0  0
   58.9940   34.1400   45.0300 C   0  0  0  0  0  0  0  0  0  0  0  0
   58.0240   33.3280   44.4300 C   0  0  0  0  0  0  0  0  0  0  0  0
   57.4370   32.2720   45.1520 C   0  0  0  0  0  0  0  0  0  0  0  0
   56.4380   31.4180   44.5750 N   0  0  0  0  0  0  0  0  0  0  0  0
   56.3830   29.9870   44.6440 C   0  0  0  0  0  0  0  0  0  0  0  0
   55.2730   29.4350   44.8660 O   0  0  0  0  0  0  0  0  0  0  0  0
   57.5930   29.1460   44.5260 C   0  0  0  0  0  0  0  0  0  0  0  0
   58.8800   29.5650   44.8070 C   0  0  0  0  0  0  0  0  0  0  0  0
   59.7050   28.4930   44.5360 C   0  0  0  0  0  0  0  0  0  0  0  0
   58.8920   27.4710   44.0900 C   0  0  0  0  0  0  0  0  0  0  0  0
   57.6080   27.8750   44.0800 N   0  0  0  0  0  0  0  0  0  0  0  0
   57.7920   32.0780   46.4930 C   0  0  0  0  0  0  0  0  0  0  0  0
   61.4930   32.0240   47.8330 C   0  0  0  0  0  0  0  0  0  0  0  0
   62.8680   31.7100   48.4360 C   0  0  0  0  0  0  0  0  0  0  0  0
   64.9830   31.1870   50.4870 C   0  0  0  0  0  0  0  0  0  0  0  0
   67.9023   27.4453   52.4304 H   0  0  0  0  0  0  0  0  0  0  0  0
   67.2355   26.6188   50.9816 H   0  0  0  0  0  0  0  0  0  0  0  0
   68.9354   27.1995   50.9816 H   0  0  0  0  0  0  0  0  0  0  0  0
   67.7860   28.9680   49.8400 H   0  0  0  0  0  0  0  0  0  0  0  0
   68.1862   31.7299   51.5363 H   0  0  0  0  0  0  0  0  0  0  0  0
   65.4696   34.4915   49.7742 H   0  0  0  0  0  0  0  0  0  0  0  0
   62.5290   34.5550   48.8740 H   0  0  0  0  0  0  0  0  0  0  0  0
   62.6645   32.5975   51.4874 H   0  0  0  0  0  0  0  0  0  0  0  0
   62.0351   34.0878   50.6238 H   0  0  0  0  0  0  0  0  0  0  0  0
   60.9817   31.2544   50.5640 H   0  0  0  0  0  0  0  0  0  0  0  0
   60.1246   32.8157   50.8886 H   0  0  0  0  0  0  0  0  0  0  0  0
   60.1498   34.5409   46.8187 H   0  0  0  0  0  0  0  0  0  0  0  0
   59.4574   34.9569   44.4573 H   0  0  0  0  0  0  0  0  0  0  0  0
   57.7194   33.5161   43.3899 H   0  0  0  0  0  0  0  0  0  0  0  0
   59.1855   30.5560   45.1737 H   0  0  0  0  0  0  0  0  0  0  0  0
   60.7983   28.4594   44.6527 H   0  0  0  0  0  0  0  0  0  0  0  0
   59.2418   26.4730   43.7872 H   0  0  0  0  0  0  0  0  0  0  0  0
   56.7960   27.3050   43.7580 H   0  0  0  0  0  0  0  0  0  0  0  0
   57.3031   31.2852   47.0783 H   0  0  0  0  0  0  0  0  0  0  0  0
   61.1194   31.1302   47.3119 H   0  0  0  0  0  0  0  0  0  0  0  0
   61.6080   32.8667   47.1355 H   0  0  0  0  0  0  0  0  0  0  0  0
   62.8156   30.7533   48.9763 H   0  0  0  0  0  0  0  0  0  0  0  0
   63.6057   31.6483   47.6224 H   0  0  0  0  0  0  0  0  0  0  0  0
   64.2340   30.3861   50.4000 H   0  0  0  0  0  0  0  0  0  0  0  0
  1  2  1  0
  2  3  1  0
  3  4  2  0
  3  5  1  0
  5  6  2  0
  6  7  1  0
  7  8  2  0
  8  9  1  0
  9 10  1  0
 10 11  1  0
 10 12  1  0
 12 13  1  0
 13 14  1  0
 14 15  1  0
 15 16  2  0
 15 17  1  0
 17 18  2  0
 18 19  1  0
 19 20  2  0
 20 21  1  0
 21 22  1  0
 22 23  1  0
 23 24  2  0
 23 25  1  0
 25 26  2  0
 26 27  1  0
 27 28  2  0
 28 29  1  0
 21 30  2  0
 14 31  1  0
 31 32  1  0
  9 33  2  0
 33  5  1  0
 32 10  1  0
 30 17  1  0
 29 25  1  0
  1 34  1  0
  1 35  1  0
  1 36  1  0
  2 37  1  0
  6 38  1  0
  8 39  1  0
 11 40  1  0
 12 41  1  0
 12 42  1  0
 13 43  1  0
 13 44  1  0
 18 45  1  0
 19 46  1  0
 20 47  1  0
 26 48  1  0
 27 49  1  0
 28 50  1  0
 29 51  1  0
 30 52  1  0
 31 53  1  0
 31 54  1  0
 32 55  1  0
 32 56  1  0
 33 57  1  0
M  CHG  1  22  -1
M  END
>  <UniqueID>  (79) 
75

>  <SMILES>  (79) 
CNC(=O)c1cncc(C2(O)CCN(C(=O)c3cccc([N-]C(=O)c4ccc[nH]4)c3)CC2)c1

>  <Energy>  (79) 
106.77249255526101

>  <Genealogy>  (79) 
CNC(=O)c1cncc(C2(O)CCN(C(=O)c3cccc([N-]C(=O)c4ccc[nH]4)c3)CC2)c1 (protonated)
CNC(=O)c1cncc(C2(O)CCN(C(=O)c3cccc([N-]C(=O)c4ccc[nH]4)c3)CC2)c1 (3D coordinates assigned)
CNC(=O)c1cncc(C2(O)CCN(C(=O)c3cccc([N-]C(=O)c4ccc[nH]4)c3)CC2)c1 (nonaromatic ring conformer: 106.77249255526101 kcal/mol)

>  <smiles>  (79) 
CNC(=O)c1cncc(C2(O)CCN(C(=O)c3cccc(NC(=O)c4ccc[nH]4)c3)CC2)c1

>  <score_type>  (79) 
oracle

>  <origin>  (79) 
adg

>  <m_score__min__energy>  (79) 
-11.35

>  <m_primary>  (79) 
energy

$$$$
79:0
     RDKit          3D

 51 53  0  0  0  0  0  0  0  0999 V2000
   61.7430   34.1520   49.4250 C   0  0  0  0  0  0  0  0  0  0  0  0
   62.6190   33.4720   48.6860 C   0  0  0  0  0  0  0  0  0  0  0  0
   62.2540   32.2860   47.8880 C   0  0  0  0  0  0  0  0  0  0  0  0
   63.1270   31.7800   47.1320 O   0  0  0  0  0  0  0  0  0  0  0  0
   60.9230   31.7380   47.9140 N   0  0  0  0  0  0  0  0  0  0  0  0
   60.6070   30.4190   47.4410 C   0  0  0  0  0  0  0  0  0  0  0  0
   60.7300   30.1260   46.0760 C   0  0  0  0  0  0  0  0  0  0  0  0
   60.4540   28.8410   45.6000 C   0  0  0  0  0  0  0  0  0  0  0  0
   60.0520   27.8270   46.4840 C   0  0  0  0  0  0  0  0  0  0  0  0
   59.8420   26.4180   45.9830 C   0  0  0  0  0  0  0  0  0  0  0  0
   58.7410   26.3020   44.9990 N   0  0  0  0  0  0  0  0  0  0  0  0
   57.3770   26.1730   45.5550 C   0  0  0  0  0  0  0  0  0  0  0  0
   56.6300   27.5170   45.7060 C   0  0  0  0  0  0  0  0  0  0  0  0
   57.1650   28.6250   44.7820 C   0  0  0  0  0  0  0  0  0  0  0  0
   56.1150   29.6740   44.5430 C   0  0  0  0  0  0  0  0  0  0  0  0
   54.9620   29.3480   44.1490 O   0  0  0  0  0  0  0  0  0  0  0  0
   56.4220   31.0440   44.8240 N   0  0  0  0  0  0  0  0  0  0  0  0
   57.5180   31.7710   44.1960 C   0  0  0  0  0  0  0  0  0  0  0  0
   58.1210   32.7270   45.1740 C   0  0  0  0  0  0  0  0  0  0  0  0
   57.8690   32.7680   46.5380 C   0  0  0  0  0  0  0  0  0  0  0  0
   58.5250   33.8210   47.1860 C   0  0  0  0  0  0  0  0  0  0  0  0
   59.2820   34.6160   46.3340 C   0  0  0  0  0  0  0  0  0  0  0  0
   59.1330   34.0090   44.7720 S   0  0  0  0  0  0  0  0  0  0  0  0
   57.6900   28.0250   43.4760 C   0  0  0  0  0  0  0  0  0  0  0  0
   58.8860   27.0990   43.7570 C   0  0  0  0  0  0  0  0  0  0  0  0
   59.8550   28.1410   47.8390 C   0  0  0  0  0  0  0  0  0  0  0  0
   60.1350   29.4250   48.3150 C   0  0  0  0  0  0  0  0  0  0  0  0
   62.0728   35.0298   50.0001 H   0  0  0  0  0  0  0  0  0  0  0  0
   60.6901   33.8355   49.4599 H   0  0  0  0  0  0  0  0  0  0  0  0
   63.6652   33.8115   48.6702 H   0  0  0  0  0  0  0  0  0  0  0  0
   60.1300   32.3760   48.1480 H   0  0  0  0  0  0  0  0  0  0  0  0
   61.0458   30.9124   45.3746 H   0  0  0  0  0  0  0  0  0  0  0  0
   60.5524   28.6229   44.5263 H   0  0  0  0  0  0  0  0  0  0  0  0
   60.7725   26.0747   45.5073 H   0  0  0  0  0  0  0  0  0  0  0  0
   59.5675   25.8017   46.8518 H   0  0  0  0  0  0  0  0  0  0  0  0
   56.7910   25.5248   44.8868 H   0  0  0  0  0  0  0  0  0  0  0  0
   57.4840   25.7531   46.5661 H   0  0  0  0  0  0  0  0  0  0  0  0
   55.5675   27.3527   45.4732 H   0  0  0  0  0  0  0  0  0  0  0  0
   56.7832   27.8573   46.7408 H   0  0  0  0  0  0  0  0  0  0  0  0
   58.0109   29.1237   45.2778 H   0  0  0  0  0  0  0  0  0  0  0  0
   58.2858   31.0571   43.8631 H   0  0  0  0  0  0  0  0  0  0  0  0
   57.1323   32.3321   43.3320 H   0  0  0  0  0  0  0  0  0  0  0  0
   57.2202   32.0469   47.0568 H   0  0  0  0  0  0  0  0  0  0  0  0
   58.4485   34.0022   48.2683 H   0  0  0  0  0  0  0  0  0  0  0  0
   59.8770   35.4925   46.6302 H   0  0  0  0  0  0  0  0  0  0  0  0
   56.8881   27.4462   42.9944 H   0  0  0  0  0  0  0  0  0  0  0  0
   58.0163   28.8401   42.8133 H   0  0  0  0  0  0  0  0  0  0  0  0
   58.9957   26.4059   42.9099 H   0  0  0  0  0  0  0  0  0  0  0  0
   59.7684   27.7426   43.8880 H   0  0  0  0  0  0  0  0  0  0  0  0
   59.4782   27.3720   48.5294 H   0  0  0  0  0  0  0  0  0  0  0  0
   59.9851   29.6586   49.3794 H   0  0  0  0  0  0  0  0  0  0  0  0
  1  2  2  0
  2  3  1  0
  3  4  2  0
  3  5  1  0
  5  6  1  0
  6  7  2  0
  7  8  1  0
  8  9  2  0
  9 10  1  0
 10 11  1  0
 11 12  1  0
 12 13  1  0
 13 14  1  0
 14 15  1  0
 15 16  2  0
 15 17  1  0
 17 18  1  0
 18 19  1  0
 19 20  2  0
 20 21  1  0
 21 22  2  0
 22 23  1  0
 14 24  1  0
 24 25  1  0
  9 26  1  0
 26 27  2  0
 27  6  1  0
 25 11  1  0
 23 19  1  0
  1 28  1  0
  1 29  1  0
  2 30  1  0
  5 31  1  0
  7 32  1  0
  8 33  1  0
 10 34  1  0
 10 35  1  0
 12 36  1  0
 12 37  1  0
 13 38  1  0
 13 39  1  0
 14 40  1  0
 18 41  1  0
 18 42  1  0
 20 43  1  0
 21 44  1  0
 22 45  1  0
 24 46  1  0
 24 47  1  0
 25 48  1  0
 25 49  1  0
 26 50  1  0
 27 51  1  0
M  CHG  1  17  -1
M  END
>  <UniqueID>  (80) 
76

>  <SMILES>  (80) 
C=CC(=O)Nc1ccc(CN2CCC(C(=O)[N-]Cc3cccs3)CC2)cc1

>  <Energy>  (80) 
88.24090801687059

>  <Genealogy>  (80) 
C=CC(=O)Nc1ccc(CN2CCC(C(=O)[N-]Cc3cccs3)CC2)cc1 (protonated)
C=CC(=O)Nc1ccc(CN2CCC(C(=O)[N-]Cc3cccs3)CC2)cc1 (3D coordinates assigned)
C=CC(=O)Nc1ccc(CN2CCC(C(=O)[N-]Cc3cccs3)CC2)cc1 (nonaromatic ring conformer: 88.24090801687059 kcal/mol)

>  <smiles>  (80) 
C=CC(=O)Nc1ccc(CN2CCC(C(=O)NCc3cccs3)CC2)cc1

>  <score_type>  (80) 
oracle

>  <origin>  (80) 
adg

>  <m_score__min__energy>  (80) 
-10.289999999999999

>  <m_primary>  (80) 
energy

$$$$
80:0
     RDKit          3D

 52 54  0  0  0  0  0  0  0  0999 V2000
   57.1650   34.1430   44.7510 C   0  0  0  0  0  0  0  0  0  0  0  0
   57.5860   32.9050   45.0220 C   0  0  0  0  0  0  0  0  0  0  0  0
   57.8700   31.7510   43.8310 S   0  0  0  0  0  0  0  0  0  0  0  0
   58.3030   30.5460   44.9280 C   0  0  0  0  0  0  0  0  0  0  0  0
   58.6810   29.2940   44.6270 C   0  0  0  0  0  0  0  0  0  0  0  0
   58.0730   28.1030   45.2520 C   0  0  0  0  0  0  0  0  0  0  0  0
   58.9290   27.1170   45.7600 C   0  0  0  0  0  0  0  0  0  0  0  0
   58.4110   25.9580   46.3380 C   0  0  0  0  0  0  0  0  0  0  0  0
   57.0270   25.7740   46.4290 C   0  0  0  0  0  0  0  0  0  0  0  0
   56.5060   24.6140   46.9980 O   0  0  0  0  0  0  0  0  0  0  0  0
   56.1590   26.7640   45.9510 C   0  0  0  0  0  0  0  0  0  0  0  0
   54.7860   26.5760   46.0650 O   0  0  0  0  0  0  0  0  0  0  0  0
   56.6700   27.9420   45.3720 C   0  0  0  0  0  0  0  0  0  0  0  0
   55.7660   28.9740   44.9480 N   0  0  0  0  0  0  0  0  0  0  0  0
   58.2210   31.0900   46.2110 C   0  0  0  0  0  0  0  0  0  0  0  0
   58.4800   30.4210   47.2500 O   0  0  0  0  0  0  0  0  0  0  0  0
   57.8310   32.4010   46.2660 N   0  0  0  0  0  0  0  0  0  0  0  0
   57.6460   33.1320   47.5300 C   0  0  0  0  0  0  0  0  0  0  0  0
   58.9400   33.7630   47.9540 C   0  0  0  0  0  0  0  0  0  0  0  0
   59.2950   34.8450   47.4160 O   0  0  0  0  0  0  0  0  0  0  0  0
   59.8140   33.1220   48.9020 N   0  0  0  0  0  0  0  0  0  0  0  0
   59.2380   32.6710   50.1750 C   0  0  0  0  0  0  0  0  0  0  0  0
   59.2800   33.7830   51.2200 C   0  0  0  0  0  0  0  0  0  0  0  0
   61.2260   32.7900   48.6040 C   0  0  2  0  0  0  0  0  0  0  0  0
   62.2060   33.7700   49.2740 C   0  0  0  0  0  0  0  0  0  0  0  0
   63.5940   33.5290   48.6800 C   0  0  0  0  0  0  0  0  0  0  0  0
   63.3090   32.9480   47.0330 S   0  0  0  0  0  0  0  0  0  0  0  0
   64.0280   31.6540   46.7730 O   0  0  0  0  0  0  0  0  0  0  0  0
   63.6870   33.9820   46.0090 O   0  0  0  0  0  0  0  0  0  0  0  0
   61.5590   32.7160   47.1060 C   0  0  0  0  0  0  0  0  0  0  0  0
   56.9952   34.8577   45.5697 H   0  0  0  0  0  0  0  0  0  0  0  0
   56.9880   34.4480   43.7091 H   0  0  0  0  0  0  0  0  0  0  0  0
   59.4779   29.1492   43.8827 H   0  0  0  0  0  0  0  0  0  0  0  0
   60.0184   27.2580   45.7026 H   0  0  0  0  0  0  0  0  0  0  0  0
   59.0930   25.1859   46.7236 H   0  0  0  0  0  0  0  0  0  0  0  0
   55.5060   24.4620   47.0700 H   0  0  0  0  0  0  0  0  0  0  0  0
   54.7610   28.9750   45.2300 H   0  0  0  0  0  0  0  0  0  0  0  0
   56.0780   29.7340   44.3050 H   0  0  0  0  0  0  0  0  0  0  0  0
   56.8876   33.9162   47.3893 H   0  0  0  0  0  0  0  0  0  0  0  0
   57.3161   32.4282   48.3084 H   0  0  0  0  0  0  0  0  0  0  0  0
   58.1924   32.3715   50.0105 H   0  0  0  0  0  0  0  0  0  0  0  0
   59.8293   31.8204   50.5450 H   0  0  0  0  0  0  0  0  0  0  0  0
   59.2633   33.3407   52.2270 H   0  0  0  0  0  0  0  0  0  0  0  0
   60.2010   34.3709   51.0930 H   0  0  0  0  0  0  0  0  0  0  0  0
   58.4060   34.4387   51.0930 H   0  0  0  0  0  0  0  0  0  0  0  0
   61.3504   31.7811   49.0243 H   0  0  0  0  0  0  0  0  0  0  0  0
   61.8908   34.8056   49.0784 H   0  0  0  0  0  0  0  0  0  0  0  0
   62.2227   33.6101   50.3622 H   0  0  0  0  0  0  0  0  0  0  0  0
   64.1726   34.4644   48.6630 H   0  0  0  0  0  0  0  0  0  0  0  0
   64.1720   32.8055   49.2737 H   0  0  0  0  0  0  0  0  0  0  0  0
   61.0376   33.5102   46.5516 H   0  0  0  0  0  0  0  0  0  0  0  0
   61.2428   31.7650   46.6526 H   0  0  0  0  0  0  0  0  0  0  0  0
  1  2  2  0
  2  3  1  0
  3  4  1  0
  4  5  2  3
  5  6  1  0
  6  7  2  0
  7  8  1  0
  8  9  2  0
  9 10  1  0
  9 11  1  0
 11 12  1  0
 11 13  2  0
 13 14  1  0
  4 15  1  0
 15 16  2  0
 15 17  1  0
 17 18  1  0
 18 19  1  0
 19 20  2  0
 19 21  1  0
 21 22  1  0
 22 23  1  0
 21 24  1  0
 24 25  1  0
 25 26  1  0
 26 27  1  0
 27 28  2  0
 27 29  2  0
 27 30  1  0
 17  2  1  0
 30 24  1  0
 13  6  1  0
  1 31  1  0
  1 32  1  0
  5 33  1  0
  7 34  1  0
  8 35  1  0
 10 36  1  0
 14 37  1  0
 14 38  1  0
 18 39  1  0
 18 40  1  0
 22 41  1  0
 22 42  1  0
 23 43  1  0
 23 44  1  0
 23 45  1  0
 24 46  1  1
 25 47  1  0
 25 48  1  0
 26 49  1  0
 26 50  1  0
 30 51  1  0
 30 52  1  0
M  CHG  1  12  -1
M  END
>  <UniqueID>  (81) 
77

>  <SMILES>  (81) 
C=c1sc(=Cc2ccc(O)c([O-])c2N)c(=O)n1CC(=O)N(CC)[C@@H]1CCS(=O)(=O)C1

>  <Energy>  (81) 
94.2280593063646

>  <Genealogy>  (81) 
C=c1sc(=Cc2ccc(O)c([O-])c2N)c(=O)n1CC(=O)N(CC)C1CCS(=O)(=O)C1 (protonated)
C=c1sc(=Cc2ccc(O)c([O-])c2N)c(=O)n1CC(=O)N(CC)[C@@H]1CCS(=O)(=O)C1 (chirality)
C=c1sc(=Cc2ccc(O)c([O-])c2N)c(=O)n1CC(=O)N(CC)[C@@H]1CCS(=O)(=O)C1 (3D coordinates assigned)
C=c1sc(=Cc2ccc(O)c([O-])c2N)c(=O)n1CC(=O)N(CC)[C@@H]1CCS(=O)(=O)C1 (nonaromatic ring conformer: 94.2280593063646 kcal/mol)

>  <smiles>  (81) 
C=c1sc(=Cc2ccc(O)c(O)c2N)c(=O)n1CC(=O)N(CC)C1CCS(=O)(=O)C1

>  <score_type>  (81) 
oracle

>  <origin>  (81) 
adg

>  <m_score__min__energy>  (81) 
-13.279999999999999

>  <m_primary>  (81) 
energy

$$$$
81:0
     RDKit          3D

 59 62  0  0  0  0  0  0  0  0999 V2000
   63.8040   33.7950   50.8330 C   0  0  0  0  0  0  0  0  0  0  0  0
   63.6550   33.1800   49.4730 C   0  0  0  0  0  0  0  0  0  0  0  0
   64.5260   32.3530   49.0860 O   0  0  0  0  0  0  0  0  0  0  0  0
   62.5350   33.4950   48.6180 N   0  0  0  0  0  0  0  0  0  0  0  0
   62.6310   33.1950   47.1840 C   0  0  0  0  0  0  0  0  0  0  0  0
   61.6700   34.0630   46.3700 C   0  0  0  0  0  0  0  0  0  0  0  0
   60.3080   33.9730   46.9050 N   0  0  0  0  0  0  0  0  0  0  0  0
   59.1910   34.1330   46.0070 C   0  0  0  0  0  0  0  0  0  0  0  0
   59.3450   34.7810   44.9370 O   0  0  0  0  0  0  0  0  0  0  0  0
   57.8480   33.5120   46.2850 C   0  0  0  0  0  0  0  0  0  0  0  0
   57.7310   32.1940   45.6560 N   0  0  0  0  0  0  0  0  0  0  0  0
   57.0850   31.9270   44.4940 C   0  0  0  0  0  0  0  0  0  0  0  0
   57.1920   30.5780   44.1840 C   0  0  0  0  0  0  0  0  0  0  0  0
   56.6400   29.8890   42.9790 C   0  0  0  0  0  0  0  0  0  0  0  0
   57.9240   30.0110   45.2060 C   0  0  0  0  0  0  0  0  0  0  0  0
   58.3400   28.6960   45.4050 C   0  0  0  0  0  0  0  0  0  0  0  0
   59.0840   28.4030   46.5680 C   0  0  0  0  0  0  0  0  0  0  0  0
   59.5980   27.0420   46.8010 C   0  0  0  0  0  0  0  0  0  0  0  0
   60.8170   26.8060   46.5970 O   0  0  0  0  0  0  0  0  0  0  0  0
   58.7570   25.9770   47.2560 N   0  0  0  0  0  0  0  0  0  0  0  0
   57.3180   25.9020   47.0250 C   0  0  0  0  0  0  0  0  0  0  0  0
   57.0550   25.1390   45.7560 C   0  0  0  0  0  0  0  0  0  0  0  0
   57.6160   25.5840   44.5450 C   0  0  0  0  0  0  0  0  0  0  0  0
   57.3840   24.8830   43.3580 C   0  0  0  0  0  0  0  0  0  0  0  0
   56.6050   23.7240   43.3690 C   0  0  0  0  0  0  0  0  0  0  0  0
   56.0570   23.2620   44.5670 C   0  0  0  0  0  0  0  0  0  0  0  0
   56.2770   23.9580   45.7610 C   0  0  0  0  0  0  0  0  0  0  0  0
   55.5720   23.3230   47.2440 Cl  0  0  0  0  0  0  0  0  0  0  0  0
   59.3940   29.4390   47.4840 C   0  0  0  0  0  0  0  0  0  0  0  0
   58.9560   30.7570   47.2560 C   0  0  0  0  0  0  0  0  0  0  0  0
   58.2290   31.0150   46.0900 C   0  0  0  0  0  0  0  0  0  0  0  0
   60.0910   33.8420   48.3540 C   0  0  0  0  0  0  0  0  0  0  0  0
   61.3540   34.1880   49.1520 C   0  0  0  0  0  0  0  0  0  0  0  0
   63.6190   33.0315   51.6029 H   0  0  0  0  0  0  0  0  0  0  0  0
   64.8240   34.1908   50.9467 H   0  0  0  0  0  0  0  0  0  0  0  0
   63.0782   34.6137   50.9467 H   0  0  0  0  0  0  0  0  0  0  0  0
   63.6602   33.3858   46.8460 H   0  0  0  0  0  0  0  0  0  0  0  0
   62.3608   32.1398   47.0308 H   0  0  0  0  0  0  0  0  0  0  0  0
   62.0056   35.1097   46.4120 H   0  0  0  0  0  0  0  0  0  0  0  0
   61.6651   33.7042   45.3302 H   0  0  0  0  0  0  0  0  0  0  0  0
   57.7218   33.4027   47.3723 H   0  0  0  0  0  0  0  0  0  0  0  0
   57.0692   34.1668   45.8669 H   0  0  0  0  0  0  0  0  0  0  0  0
   56.5527   32.6722   43.8846 H   0  0  0  0  0  0  0  0  0  0  0  0
   55.9814   29.0670   43.2962 H   0  0  0  0  0  0  0  0  0  0  0  0
   56.0651   30.6079   42.3768 H   0  0  0  0  0  0  0  0  0  0  0  0
   57.4670   29.4848   42.3768 H   0  0  0  0  0  0  0  0  0  0  0  0
   58.0955   27.9089   44.6765 H   0  0  0  0  0  0  0  0  0  0  0  0
   56.8371   25.3866   47.8695 H   0  0  0  0  0  0  0  0  0  0  0  0
   56.9069   26.9183   46.9347 H   0  0  0  0  0  0  0  0  0  0  0  0
   58.2410   26.4891   44.5321 H   0  0  0  0  0  0  0  0  0  0  0  0
   57.8159   25.2451   42.4134 H   0  0  0  0  0  0  0  0  0  0  0  0
   56.4231   23.1749   42.4334 H   0  0  0  0  0  0  0  0  0  0  0  0
   55.4487   22.3455   44.5725 H   0  0  0  0  0  0  0  0  0  0  0  0
   59.9839   29.2103   48.3838 H   0  0  0  0  0  0  0  0  0  0  0  0
   59.1790   31.5601   47.9738 H   0  0  0  0  0  0  0  0  0  0  0  0
   59.2814   34.5227   48.6559 H   0  0  0  0  0  0  0  0  0  0  0  0
   59.8275   32.7955   48.5673 H   0  0  0  0  0  0  0  0  0  0  0  0
   61.5230   35.2737   49.1007 H   0  0  0  0  0  0  0  0  0  0  0  0
   61.2046   33.8638   50.1925 H   0  0  0  0  0  0  0  0  0  0  0  0
  1  2  1  0
  2  3  2  0
  2  4  1  0
  4  5  1  0
  5  6  1  0
  6  7  1  0
  7  8  1  0
  8  9  2  0
  8 10  1  0
 10 11  1  0
 11 12  1  0
 12 13  2  0
 13 14  1  0
 13 15  1  0
 15 16  2  0
 16 17  1  0
 17 18  1  0
 18 19  2  0
 18 20  1  0
 20 21  1  0
 21 22  1  0
 22 23  2  0
 23 24  1  0
 24 25  2  0
 25 26  1  0
 26 27  2  0
 27 28  1  0
 17 29  2  0
 29 30  1  0
 30 31  2  0
  7 32  1  0
 32 33  1  0
 33  4  1  0
 31 11  1  0
 31 15  1  0
 27 22  1  0
  1 34  1  0
  1 35  1  0
  1 36  1  0
  5 37  1  0
  5 38  1  0
  6 39  1  0
  6 40  1  0
 10 41  1  0
 10 42  1  0
 12 43  1  0
 14 44  1  0
 14 45  1  0
 14 46  1  0
 16 47  1  0
 21 48  1  0
 21 49  1  0
 23 50  1  0
 24 51  1  0
 25 52  1  0
 26 53  1  0
 29 54  1  0
 30 55  1  0
 32 56  1  0
 32 57  1  0
 33 58  1  0
 33 59  1  0
M  CHG  1  20  -1
M  END
>  <UniqueID>  (82) 
78

>  <SMILES>  (82) 
CC(=O)N1CCN(C(=O)Cn2cc(C)c3cc(C(=O)[N-]Cc4ccccc4Cl)ccc32)CC1

>  <Energy>  (82) 
98.19843762160937

>  <Genealogy>  (82) 
CC(=O)N1CCN(C(=O)Cn2cc(C)c3cc(C(=O)[N-]Cc4ccccc4Cl)ccc32)CC1 (protonated)
CC(=O)N1CCN(C(=O)Cn2cc(C)c3cc(C(=O)[N-]Cc4ccccc4Cl)ccc32)CC1 (3D coordinates assigned)
CC(=O)N1CCN(C(=O)Cn2cc(C)c3cc(C(=O)[N-]Cc4ccccc4Cl)ccc32)CC1 (nonaromatic ring conformer: 98.19843762160937 kcal/mol)

>  <smiles>  (82) 
CC(=O)N1CCN(C(=O)Cn2cc(C)c3cc(C(=O)NCc4ccccc4Cl)ccc32)CC1

>  <score_type>  (82) 
oracle

>  <origin>  (82) 
adg

>  <m_score__min__energy>  (82) 
-10.880000000000001

>  <m_primary>  (82) 
energy

$$$$
82:0
     RDKit          3D

 49 52  0  0  0  0  0  0  0  0999 V2000
   55.6570   30.0900   44.6740 O   0  0  0  0  0  0  0  0  0  0  0  0
   56.7410   30.7200   44.5720 C   0  0  0  0  0  0  0  0  0  0  0  0
   58.0000   29.9650   44.2240 C   0  0  0  0  0  0  0  0  0  0  0  0
   58.4540   29.1460   45.3600 N   0  0  0  0  0  0  0  0  0  0  0  0
   59.6180   29.5490   46.1160 C   0  0  0  0  0  0  0  0  0  0  0  0
   60.0150   30.7460   46.0800 O   0  0  0  0  0  0  0  0  0  0  0  0
   60.3520   28.5570   46.9690 C   0  0  0  0  0  0  0  0  0  0  0  0
   60.4520   26.9770   46.0740 S   0  0  0  0  0  0  0  0  0  0  0  0
   58.6670   26.7850   46.0390 C   0  0  0  0  0  0  0  0  0  0  0  0
   58.0960   25.5700   46.4260 C   0  0  0  0  0  0  0  0  0  0  0  0
   56.7090   25.4050   46.3930 C   0  0  0  0  0  0  0  0  0  0  0  0
   56.0110   23.8640   46.8660 Cl  0  0  0  0  0  0  0  0  0  0  0  0
   55.8890   26.4690   45.9990 C   0  0  0  0  0  0  0  0  0  0  0  0
   54.5090   26.3220   45.9790 O   0  0  0  0  0  0  0  0  0  0  0  0
   56.4570   27.6950   45.6370 C   0  0  0  0  0  0  0  0  0  0  0  0
   57.8540   27.8620   45.6400 C   0  0  0  0  0  0  0  0  0  0  0  0
   56.7140   32.1520   44.6480 N   0  0  0  0  0  0  0  0  0  0  0  0
   57.6520   32.9630   45.3640 C   0  0  0  0  0  0  0  0  0  0  0  0
   58.2160   34.1040   44.7790 C   0  0  0  0  0  0  0  0  0  0  0  0
   59.1110   34.8950   45.5010 C   0  0  0  0  0  0  0  0  0  0  0  0
   59.4760   34.5330   46.8000 C   0  0  0  0  0  0  0  0  0  0  0  0
   58.9670   33.3570   47.3790 C   0  0  0  0  0  0  0  0  0  0  0  0
   59.3470   32.9630   48.7550 C   0  0  0  0  0  0  0  0  0  0  0  0
   58.6070   32.1600   49.3890 O   0  0  0  0  0  0  0  0  0  0  0  0
   60.5380   33.4730   49.3850 N   0  0  0  0  0  0  0  0  0  0  0  0
   60.5380   33.8310   50.8060 C   0  0  0  0  0  0  0  0  0  0  0  0
   61.8210   33.3080   51.4600 C   0  0  0  0  0  0  0  0  0  0  0  0
   62.9630   33.7470   50.7460 O   0  0  0  0  0  0  0  0  0  0  0  0
   62.9650   33.1810   49.4480 C   0  0  0  0  0  0  0  0  0  0  0  0
   61.7750   33.6920   48.6290 C   0  0  0  0  0  0  0  0  0  0  0  0
   58.0510   32.5780   46.6500 C   0  0  0  0  0  0  0  0  0  0  0  0
   57.8000   29.3086   43.3643 H   0  0  0  0  0  0  0  0  0  0  0  0
   58.7883   30.6917   43.9782 H   0  0  0  0  0  0  0  0  0  0  0  0
   61.3660   28.9282   47.1786 H   0  0  0  0  0  0  0  0  0  0  0  0
   59.8188   28.4149   47.9206 H   0  0  0  0  0  0  0  0  0  0  0  0
   58.7396   24.7418   46.7573 H   0  0  0  0  0  0  0  0  0  0  0  0
   55.8071   28.5341   45.3481 H   0  0  0  0  0  0  0  0  0  0  0  0
   57.9525   34.3776   43.7467 H   0  0  0  0  0  0  0  0  0  0  0  0
   59.5297   35.8050   45.0464 H   0  0  0  0  0  0  0  0  0  0  0  0
   60.1650   35.1711   47.3728 H   0  0  0  0  0  0  0  0  0  0  0  0
   60.4926   34.9252   50.9092 H   0  0  0  0  0  0  0  0  0  0  0  0
   59.6634   33.3817   51.2992 H   0  0  0  0  0  0  0  0  0  0  0  0
   61.8767   33.6799   52.4937 H   0  0  0  0  0  0  0  0  0  0  0  0
   61.7995   32.2083   51.4502 H   0  0  0  0  0  0  0  0  0  0  0  0
   63.8993   33.4556   48.9364 H   0  0  0  0  0  0  0  0  0  0  0  0
   62.8857   32.0877   49.5403 H   0  0  0  0  0  0  0  0  0  0  0  0
   61.8994   34.7669   48.4310 H   0  0  0  0  0  0  0  0  0  0  0  0
   61.7244   33.1492   47.6736 H   0  0  0  0  0  0  0  0  0  0  0  0
   57.6440   31.6576   47.0940 H   0  0  0  0  0  0  0  0  0  0  0  0
  1  2  2  0
  2  3  1  0
  3  4  1  0
  4  5  1  0
  5  6  2  0
  5  7  1  0
  7  8  1  0
  8  9  1  0
  9 10  2  0
 10 11  1  0
 11 12  1  0
 11 13  2  0
 13 14  1  0
 13 15  1  0
 15 16  2  0
  2 17  1  0
 17 18  1  0
 18 19  2  0
 19 20  1  0
 20 21  2  0
 21 22  1  0
 22 23  1  0
 23 24  2  0
 23 25  1  0
 25 26  1  0
 26 27  1  0
 27 28  1  0
 28 29  1  0
 29 30  1  0
 22 31  2  0
 16  4  1  0
 31 18  1  0
 16  9  1  0
 30 25  1  0
  3 32  1  0
  3 33  1  0
  7 34  1  0
  7 35  1  0
 10 36  1  0
 15 37  1  0
 19 38  1  0
 20 39  1  0
 21 40  1  0
 26 41  1  0
 26 42  1  0
 27 43  1  0
 27 44  1  0
 29 45  1  0
 29 46  1  0
 30 47  1  0
 30 48  1  0
 31 49  1  0
M  CHG  2  14  -1  17  -1
M  END
>  <UniqueID>  (83) 
79

>  <SMILES>  (83) 
O=C(CN1C(=O)CSc2cc(Cl)c([O-])cc21)[N-]c1cccc(C(=O)N2CCOCC2)c1

>  <Energy>  (83) 
70.63987385320404

>  <Genealogy>  (83) 
O=C(CN1C(=O)CSc2cc(Cl)c([O-])cc21)[N-]c1cccc(C(=O)N2CCOCC2)c1 (protonated)
O=C(CN1C(=O)CSc2cc(Cl)c([O-])cc21)[N-]c1cccc(C(=O)N2CCOCC2)c1 (3D coordinates assigned)
O=C(CN1C(=O)CSc2cc(Cl)c([O-])cc21)[N-]c1cccc(C(=O)N2CCOCC2)c1 (nonaromatic ring conformer: 70.63987385320404 kcal/mol)

>  <smiles>  (83) 
O=C(CN1C(=O)CSc2cc(Cl)c(O)cc21)Nc1cccc(C(=O)N2CCOCC2)c1

>  <score_type>  (83) 
oracle

>  <origin>  (83) 
adg

>  <m_score__min__energy>  (83) 
-15.42

>  <m_primary>  (83) 
energy

$$$$
83:0
     RDKit          3D

 42 44  0  0  0  0  0  0  0  0999 V2000
   55.9140   29.9110   43.0580 C   0  0  0  0  0  0  0  0  0  0  0  0
   57.0470   29.8710   44.0290 C   0  0  0  0  0  0  0  0  0  0  0  0
   58.2250   29.2630   43.7870 N   0  0  0  0  0  0  0  0  0  0  0  0
   58.9530   29.4840   44.8970 C   0  0  0  0  0  0  0  0  0  0  0  0
   60.3550   29.0020   45.0900 C   0  0  0  0  0  0  0  0  0  0  0  0
   58.1870   30.2330   45.7780 C   0  0  0  0  0  0  0  0  0  0  0  0
   58.5610   30.7090   47.1250 C   0  0  0  0  0  0  0  0  0  0  0  0
   59.1310   29.9180   47.9250 O   0  0  0  0  0  0  0  0  0  0  0  0
   58.2890   32.0640   47.5380 N   0  0  0  0  0  0  0  0  0  0  0  0
   58.4390   33.1820   46.5910 C   0  0  0  0  0  0  0  0  0  0  0  0
   59.0780   34.4220   47.2660 C   0  0  0  0  0  0  0  0  0  0  0  0
   60.0100   34.1170   48.4780 C   0  0  0  0  0  0  0  0  0  0  0  0
   61.4580   33.8530   48.0760 C   0  0  0  0  0  0  0  0  0  0  0  0
   61.8570   33.8400   46.7210 C   0  0  0  0  0  0  0  0  0  0  0  0
   63.1720   33.5330   46.3710 C   0  0  0  0  0  0  0  0  0  0  0  0
   64.0970   33.1870   47.3610 C   0  0  0  0  0  0  0  0  0  0  0  0
   63.7110   33.1570   48.7080 C   0  0  0  0  0  0  0  0  0  0  0  0
   64.8620   32.6700   49.9440 Cl  0  0  0  0  0  0  0  0  0  0  0  0
   62.3990   33.4890   49.0650 C   0  0  0  0  0  0  0  0  0  0  0  0
   59.4810   33.0080   49.4350 C   0  0  0  0  0  0  0  0  0  0  0  0
   58.1730   32.3860   48.9600 C   0  0  0  0  0  0  0  0  0  0  0  0
   57.0220   30.4550   45.2090 O   0  0  0  0  0  0  0  0  0  0  0  0
   54.9615   29.9446   43.6072 H   0  0  0  0  0  0  0  0  0  0  0  0
   56.0045   30.8065   42.4256 H   0  0  0  0  0  0  0  0  0  0  0  0
   55.9411   29.0113   42.4256 H   0  0  0  0  0  0  0  0  0  0  0  0
   58.5060   28.7370   42.9300 H   0  0  0  0  0  0  0  0  0  0  0  0
   60.5722   28.9273   46.1657 H   0  0  0  0  0  0  0  0  0  0  0  0
   60.4701   28.0127   44.6231 H   0  0  0  0  0  0  0  0  0  0  0  0
   61.0542   29.7114   44.6231 H   0  0  0  0  0  0  0  0  0  0  0  0
   59.0802   32.8597   45.7574 H   0  0  0  0  0  0  0  0  0  0  0  0
   57.4383   33.4642   46.2318 H   0  0  0  0  0  0  0  0  0  0  0  0
   59.6709   34.9538   46.5072 H   0  0  0  0  0  0  0  0  0  0  0  0
   58.2419   35.0133   47.6676 H   0  0  0  0  0  0  0  0  0  0  0  0
   59.9943   35.0524   49.0565 H   0  0  0  0  0  0  0  0  0  0  0  0
   61.1242   34.0741   45.9348 H   0  0  0  0  0  0  0  0  0  0  0  0
   63.4814   33.5631   45.3158 H   0  0  0  0  0  0  0  0  0  0  0  0
   65.1312   32.9375   47.0816 H   0  0  0  0  0  0  0  0  0  0  0  0
   62.0984   33.4664   50.1229 H   0  0  0  0  0  0  0  0  0  0  0  0
   60.2404   32.2154   49.5068 H   0  0  0  0  0  0  0  0  0  0  0  0
   59.2864   33.4796   50.4096 H   0  0  0  0  0  0  0  0  0  0  0  0
   57.9723   31.4676   49.5312 H   0  0  0  0  0  0  0  0  0  0  0  0
   57.3461   33.0947   49.1148 H   0  0  0  0  0  0  0  0  0  0  0  0
  1  2  1  0
  2  3  2  0
  3  4  1  0
  4  5  1  0
  4  6  2  0
  6  7  1  0
  7  8  2  0
  7  9  1  0
  9 10  1  0
 10 11  1  0
 11 12  1  0
 12 13  1  0
 13 14  2  0
 14 15  1  0
 15 16  2  0
 16 17  1  0
 17 18  1  0
 17 19  2  0
 12 20  1  0
 20 21  1  0
  6 22  1  0
 22  2  1  0
 21  9  1  0
 19 13  1  0
  1 23  1  0
  1 24  1  0
  1 25  1  0
  3 26  1  0
  5 27  1  0
  5 28  1  0
  5 29  1  0
 10 30  1  0
 10 31  1  0
 11 32  1  0
 11 33  1  0
 12 34  1  0
 14 35  1  0
 15 36  1  0
 16 37  1  0
 19 38  1  0
 20 39  1  0
 20 40  1  0
 21 41  1  0
 21 42  1  0
M  CHG  1   3   1
M  END
>  <UniqueID>  (84) 
80

>  <SMILES>  (84) 
Cc1[nH+]c(C)c(C(=O)N2CCC(c3cccc(Cl)c3)CC2)o1

>  <Energy>  (84) 
81.66697289913121

>  <Genealogy>  (84) 
Cc1[nH+]c(C)c(C(=O)N2CCC(c3cccc(Cl)c3)CC2)o1 (protonated)
Cc1[nH+]c(C)c(C(=O)N2CCC(c3cccc(Cl)c3)CC2)o1 (3D coordinates assigned)
Cc1[nH+]c(C)c(C(=O)N2CCC(c3cccc(Cl)c3)CC2)o1 (nonaromatic ring conformer: 81.66697289913121 kcal/mol)

>  <smiles>  (84) 
Cc1nc(C)c(C(=O)N2CCC(c3cccc(Cl)c3)CC2)o1

>  <score_type>  (84) 
oracle

>  <origin>  (84) 
adg

>  <m_score__min__energy>  (84) 
-6.9299999999999997

>  <m_primary>  (84) 
energy

$$$$
84:0
     RDKit          3D

 55 60  0  0  0  0  0  0  0  0999 V2000
   56.5810   34.5930   45.0720 O   0  0  0  0  0  0  0  0  0  0  0  0
   57.6160   33.8780   45.0120 C   0  0  0  0  0  0  0  0  0  0  0  0
   57.8310   33.0800   43.8400 N   0  0  0  0  0  0  0  0  0  0  0  0
   57.6550   31.6600   43.7370 C   0  0  0  0  0  0  0  0  0  0  0  0
   56.8170   31.1530   42.7360 C   0  0  0  0  0  0  0  0  0  0  0  0
   56.6180   29.7770   42.6130 C   0  0  0  0  0  0  0  0  0  0  0  0
   57.2700   28.8930   43.4770 C   0  0  0  0  0  0  0  0  0  0  0  0
   58.1500   29.3810   44.4580 C   0  0  0  0  0  0  0  0  0  0  0  0
   58.8130   28.4940   45.3750 N   0  0  0  0  0  0  0  0  0  0  0  0
   58.3660   27.1630   45.6850 C   0  0  0  0  0  0  0  0  0  0  0  0
   59.3230   26.1620   45.9820 C   0  0  0  0  0  0  0  0  0  0  0  0
   58.9220   24.8450   46.2680 C   0  0  0  0  0  0  0  0  0  0  0  0
   57.5610   24.5560   46.2380 C   0  0  0  0  0  0  0  0  0  0  0  0
   56.6280   25.5130   45.9310 C   0  0  0  0  0  0  0  0  0  0  0  0
   56.9930   26.8260   45.6390 C   0  0  0  0  0  0  0  0  0  0  0  0
   55.3190   24.8730   45.9800 C   0  0  0  0  0  0  0  0  0  0  0  0
   54.2220   25.4460   45.7520 O   0  0  0  0  0  0  0  0  0  0  0  0
   55.4320   23.4910   46.3310 N   0  0  0  0  0  0  0  0  0  0  0  0
   56.8420   23.3130   46.4860 C   0  0  0  0  0  0  0  0  0  0  0  0
   57.3720   22.2170   46.8070 O   0  0  0  0  0  0  0  0  0  0  0  0
   58.3320   30.7660   44.5870 C   0  0  0  0  0  0  0  0  0  0  0  0
   58.5400   33.8420   46.1690 C   0  0  0  0  0  0  0  0  0  0  0  0
   59.2700   34.9830   46.5430 C   0  0  0  0  0  0  0  0  0  0  0  0
   60.1270   34.9430   47.6440 C   0  0  0  0  0  0  0  0  0  0  0  0
   60.2760   33.7640   48.3760 C   0  0  0  0  0  0  0  0  0  0  0  0
   59.5790   32.6050   48.0040 C   0  0  0  0  0  0  0  0  0  0  0  0
   59.7360   31.3950   48.7670 N   0  0  0  0  0  0  0  0  0  0  0  0
   60.1270   31.2980   50.1450 C   0  0  0  0  0  0  0  0  0  0  0  0
   60.1130   32.2800   50.9340 O   0  0  0  0  0  0  0  0  0  0  0  0
   60.4940   29.9370   50.5560 C   0  0  0  0  0  0  0  0  0  0  0  0
   60.9250   29.5190   51.8180 C   0  0  0  0  0  0  0  0  0  0  0  0
   61.2320   28.1630   52.0120 C   0  0  0  0  0  0  0  0  0  0  0  0
   61.1060   27.2450   50.9500 C   0  0  0  0  0  0  0  0  0  0  0  0
   60.6700   27.6790   49.6880 C   0  0  0  0  0  0  0  0  0  0  0  0
   60.3700   29.0290   49.5160 C   0  0  0  0  0  0  0  0  0  0  0  0
   59.8070   29.8130   48.0690 S   0  0  0  0  0  0  0  0  0  0  0  0
   60.8120   29.7440   46.9540 O   0  0  0  0  0  0  0  0  0  0  0  0
   58.4490   29.3240   47.6510 O   0  0  0  0  0  0  0  0  0  0  0  0
   58.7080   32.6530   46.8990 C   0  0  0  0  0  0  0  0  0  0  0  0
   56.3130   31.8428   42.0431 H   0  0  0  0  0  0  0  0  0  0  0  0
   55.9462   29.3874   41.8340 H   0  0  0  0  0  0  0  0  0  0  0  0
   57.0937   27.8108   43.3888 H   0  0  0  0  0  0  0  0  0  0  0  0
   59.6750   28.8430   45.8550 H   0  0  0  0  0  0  0  0  0  0  0  0
   60.3928   26.4180   45.9890 H   0  0  0  0  0  0  0  0  0  0  0  0
   59.6615   24.0669   46.5081 H   0  0  0  0  0  0  0  0  0  0  0  0
   56.2344   27.5793   45.3800 H   0  0  0  0  0  0  0  0  0  0  0  0
   59.0103   31.1568   45.3598 H   0  0  0  0  0  0  0  0  0  0  0  0
   59.1655   35.9129   45.9648 H   0  0  0  0  0  0  0  0  0  0  0  0
   60.6869   35.8438   47.9358 H   0  0  0  0  0  0  0  0  0  0  0  0
   60.9439   33.7436   49.2497 H   0  0  0  0  0  0  0  0  0  0  0  0
   61.0219   30.2391   52.6439 H   0  0  0  0  0  0  0  0  0  0  0  0
   61.5728   27.8150   52.9983 H   0  0  0  0  0  0  0  0  0  0  0  0
   61.3502   26.1845   51.1105 H   0  0  0  0  0  0  0  0  0  0  0  0
   60.5675   26.9694   48.8538 H   0  0  0  0  0  0  0  0  0  0  0  0
   58.1531   31.7502   46.6039 H   0  0  0  0  0  0  0  0  0  0  0  0
  1  2  2  0
  2  3  1  0
  3  4  1  0
  4  5  2  0
  5  6  1  0
  6  7  2  0
  7  8  1  0
  8  9  1  0
  9 10  1  0
 10 11  2  0
 11 12  1  0
 12 13  2  0
 13 14  1  0
 14 15  2  0
 14 16  1  0
 16 17  2  0
 16 18  1  0
 18 19  1  0
 19 20  2  0
  8 21  2  0
  2 22  1  0
 22 23  2  0
 23 24  1  0
 24 25  2  0
 25 26  1  0
 26 27  1  0
 27 28  1  0
 28 29  2  0
 28 30  1  0
 30 31  2  0
 31 32  1  0
 32 33  2  0
 33 34  1  0
 34 35  2  0
 35 36  1  0
 36 37  2  0
 36 38  2  0
 26 39  2  0
 21  4  1  0
 39 22  1  0
 15 10  1  0
 36 27  1  0
 19 13  1  0
 35 30  1  0
  5 40  1  0
  6 41  1  0
  7 42  1  0
  9 43  1  0
 11 44  1  0
 12 45  1  0
 15 46  1  0
 21 47  1  0
 23 48  1  0
 24 49  1  0
 25 50  1  0
 31 51  1  0
 32 52  1  0
 33 53  1  0
 34 54  1  0
 39 55  1  0
M  CHG  2   3  -1  18  -1
M  END
>  <UniqueID>  (85) 
81

>  <SMILES>  (85) 
O=C([N-]c1cccc(Nc2ccc3c(c2)C(=O)[N-]C3=O)c1)c1cccc(N2C(=O)c3ccccc3S2(=O)=O)c1

>  <Energy>  (85) 
133.41856121243157

>  <Genealogy>  (85) 
O=C([N-]c1cccc(Nc2ccc3c(c2)C(=O)[N-]C3=O)c1)c1cccc(N2C(=O)c3ccccc3S2(=O)=O)c1 (protonated)
O=C([N-]c1cccc(Nc2ccc3c(c2)C(=O)[N-]C3=O)c1)c1cccc(N2C(=O)c3ccccc3S2(=O)=O)c1 (3D coordinates assigned)
O=C([N-]c1cccc(Nc2ccc3c(c2)C(=O)[N-]C3=O)c1)c1cccc(N2C(=O)c3ccccc3S2(=O)=O)c1 (nonaromatic ring conformer: 133.41856121243157 kcal/mol)

>  <smiles>  (85) 
O=C(Nc1cccc(Nc2ccc3c(c2)C(=O)NC3=O)c1)c1cccc(N2C(=O)c3ccccc3S2(=O)=O)c1

>  <score_type>  (85) 
oracle

>  <origin>  (85) 
adg

>  <m_score__min__energy>  (85) 
-13.359999999999999

>  <m_primary>  (85) 
energy

$$$$
85:0
     RDKit          3D

 66 69  0  0  0  0  0  0  0  0999 V2000
   58.1149   25.2660   48.8147 H   0  0  0  0  0  0  0  0  0  0  0  0
   57.8160   24.9480   47.8050 C   0  0  0  0  0  0  0  0  0  0  0  0
   57.2799   23.9979   47.6637 H   0  0  0  0  0  0  0  0  0  0  0  0
   58.1060   25.7210   46.7430 C   0  0  0  0  0  0  0  0  0  0  0  0
   57.7810   25.4290   45.4090 C   0  0  0  0  0  0  0  0  0  0  0  0
   56.9420   24.5180   44.8740 C   0  0  0  0  0  0  0  0  0  0  0  0
   57.3905   23.7395   44.2393 H   0  0  0  0  0  0  0  0  0  0  0  0
   55.4820   24.4680   45.0600 C   0  0  0  0  0  0  0  0  0  0  0  0
   54.7190   23.3740   44.8760 N   0  0  0  0  0  0  0  0  0  0  0  0
   53.4980   23.7700   45.2960 C   0  0  0  0  0  0  0  0  0  0  0  0
   52.4920   23.0150   45.2650 O   0  0  0  0  0  0  0  0  0  0  0  0
   53.4420   25.0360   45.7620 N   0  0  0  0  0  0  0  0  0  0  0  0
   54.7100   25.4570   45.6170 C   0  0  0  0  0  0  0  0  0  0  0  0
   55.1530   26.7190   45.9940 O   0  0  0  0  0  0  0  0  0  0  0  0
   58.5080   26.3070   44.6350 C   0  0  0  0  0  0  0  0  0  0  0  0
   58.5373   26.3390   43.5359 H   0  0  0  0  0  0  0  0  0  0  0  0
   59.1920   27.1380   45.4970 C   0  0  0  0  0  0  0  0  0  0  0  0
   60.1300   28.2170   45.0160 C   0  0  0  0  0  0  0  0  0  0  0  0
   61.1091   28.0750   45.4969 H   0  0  0  0  0  0  0  0  0  0  0  0
   60.2047   28.1351   43.9216 H   0  0  0  0  0  0  0  0  0  0  0  0
   59.6240   29.6040   45.3430 C   0  0  0  0  0  0  0  0  0  0  0  0
   60.3560   30.3940   45.9260 O   0  0  0  0  0  0  0  0  0  0  0  0
   58.2420   29.9630   45.0790 N   0  0  0  0  0  0  0  0  0  0  0  0
   57.6390   29.5000   45.8000 H   0  0  0  0  0  0  0  0  0  0  0  0
   58.0470   31.4310   45.2300 C   0  0  0  0  0  0  0  0  0  0  0  0
   57.0620   31.6138   45.6843 H   0  0  0  0  0  0  0  0  0  0  0  0
   58.8562   31.8181   45.8667 H   0  0  0  0  0  0  0  0  0  0  0  0
   58.1140   32.1610   43.8800 C   0  0  0  0  0  0  0  0  0  0  0  0
   57.9924   33.2409   44.0506 H   0  0  0  0  0  0  0  0  0  0  0  0
   59.0890   31.9463   43.4182 H   0  0  0  0  0  0  0  0  0  0  0  0
   57.0490   31.6950   42.9600 N   0  0  0  0  0  0  0  0  0  0  0  0
   57.4270   31.9600   41.5630 C   0  0  0  0  0  0  0  0  0  0  0  0
   58.3275   32.5913   41.5403 H   0  0  0  0  0  0  0  0  0  0  0  0
   57.6336   31.0080   41.0521 H   0  0  0  0  0  0  0  0  0  0  0  0
   56.6025   32.4788   41.0521 H   0  0  0  0  0  0  0  0  0  0  0  0
   56.6710   30.2740   43.1580 C   0  0  0  0  0  0  0  0  0  0  0  0
   55.8113   30.2280   43.8427 H   0  0  0  0  0  0  0  0  0  0  0  0
   56.4215   29.8502   42.1741 H   0  0  0  0  0  0  0  0  0  0  0  0
   57.8210   29.4460   43.7510 C   0  0  0  0  0  0  0  0  0  0  0  0
   57.4887   28.4034   43.8632 H   0  0  0  0  0  0  0  0  0  0  0  0
   58.6806   29.5142   43.0680 H   0  0  0  0  0  0  0  0  0  0  0  0
   58.9160   26.8220   46.7900 N   0  0  0  0  0  0  0  0  0  0  0  0
   59.5680   27.4120   47.9770 C   0  0  0  0  0  0  0  0  0  0  0  0
   59.3888   26.7525   48.8390 H   0  0  0  0  0  0  0  0  0  0  0  0
   60.6396   27.5089   47.7486 H   0  0  0  0  0  0  0  0  0  0  0  0
   59.0530   28.7890   48.3110 C   0  0  0  0  0  0  0  0  0  0  0  0
   58.1100   29.2510   47.6140 O   0  0  0  0  0  0  0  0  0  0  0  0
   59.6880   29.6420   49.2900 N   0  0  0  0  0  0  0  0  0  0  0  0
   59.0840   29.7300   50.6250 C   0  0  0  0  0  0  0  0  0  0  0  0
   59.8665   29.6160   51.3897 H   0  0  0  0  0  0  0  0  0  0  0  0
   58.5960   30.7087   50.7428 H   0  0  0  0  0  0  0  0  0  0  0  0
   58.3370   28.9312   50.7428 H   0  0  0  0  0  0  0  0  0  0  0  0
   60.8860   30.4410   48.9850 C   0  0  0  0  0  0  0  0  0  0  0  0
   61.4580   30.5958   49.9117 H   0  0  0  0  0  0  0  0  0  0  0  0
   61.4854   29.8948   48.2418 H   0  0  0  0  0  0  0  0  0  0  0  0
   60.5200   31.7870   48.4030 C   0  0  0  0  0  0  0  0  0  0  0  0
   59.1850   32.2340   48.3940 C   0  0  0  0  0  0  0  0  0  0  0  0
   58.3978   31.6144   48.8483 H   0  0  0  0  0  0  0  0  0  0  0  0
   58.8540   33.4610   47.8110 C   0  0  0  0  0  0  0  0  0  0  0  0
   57.8112   33.8109   47.8226 H   0  0  0  0  0  0  0  0  0  0  0  0
   59.8450   34.2430   47.2140 C   0  0  0  0  0  0  0  0  0  0  0  0
   59.5856   35.2154   46.7700 H   0  0  0  0  0  0  0  0  0  0  0  0
   61.1650   33.7900   47.1810 C   0  0  0  0  0  0  0  0  0  0  0  0
   61.9442   34.4013   46.7023 H   0  0  0  0  0  0  0  0  0  0  0  0
   61.4970   32.5600   47.7560 C   0  0  0  0  0  0  0  0  0  0  0  0
   62.5330   32.1945   47.7010 H   0  0  0  0  0  0  0  0  0  0  0  0
  1  2  1  0
  2  3  1  0
  2  4  2  0
  4  5  1  0
  5  6  2  0
  6  7  1  0
  6  8  1  0
  8  9  1  0
  9 10  1  0
 10 11  2  0
 10 12  1  0
 12 13  1  0
 13 14  1  0
  5 15  1  0
 15 16  1  0
 15 17  2  0
 17 18  1  0
 18 19  1  0
 18 20  1  0
 18 21  1  0
 21 22  2  0
 21 23  1  0
 23 24  1  0
 23 25  1  0
 25 26  1  0
 25 27  1  0
 25 28  1  0
 28 29  1  0
 28 30  1  0
 28 31  1  0
 31 32  1  0
 32 33  1  0
 32 34  1  0
 32 35  1  0
 31 36  1  0
 36 37  1  0
 36 38  1  0
 36 39  1  0
 39 40  1  0
 39 41  1  0
 17 42  1  0
 42 43  1  0
 43 44  1  0
 43 45  1  0
 43 46  1  0
 46 47  2  0
 46 48  1  0
 48 49  1  0
 49 50  1  0
 49 51  1  0
 49 52  1  0
 48 53  1  0
 53 54  1  0
 53 55  1  0
 53 56  1  0
 56 57  2  0
 57 58  1  0
 57 59  1  0
 59 60  1  0
 59 61  2  0
 61 62  1  0
 61 63  1  0
 63 64  1  0
 63 65  2  0
 65 66  1  0
 42  4  1  0
 65 56  1  0
 13  8  2  0
 39 23  1  0
M  CHG  4   9  -1  12  -1  14  -1  23   1
M  END
>  <UniqueID>  (86) 
82

>  <SMILES>  (86) 
C=c1/c(=C\c2[n-]c(=O)[n-]c2[O-])cc(CC(=O)[NH+]2CCN(C)CC2)n1CC(=O)N(C)Cc1ccccc1

>  <Energy>  (86) 
145.539012725983

>  <Genealogy>  (86) 
C=c1c(=Cc2[n-]c(=O)[n-]c2[O-])cc(CC(=O)[NH+]2CCN(C)CC2)n1CC(=O)N(C)Cc1ccccc1 (protonated)
C=c1/c(=C\c2[n-]c(=O)[n-]c2[O-])cc(CC(=O)[NH+]2CCN(C)CC2)n1CC(=O)N(C)Cc1ccccc1 (cis-trans isomerization)
C=c1/c(=C\c2[n-]c(=O)[n-]c2[O-])cc(CC(=O)[NH+]2CCN(C)CC2)n1CC(=O)N(C)Cc1ccccc1 (3D coordinates assigned)
C=c1/c(=C\c2[n-]c(=O)[n-]c2[O-])cc(CC(=O)[NH+]2CCN(C)CC2)n1CC(=O)N(C)Cc1ccccc1 (nonaromatic ring conformer: 145.539012725983 kcal/mol)

>  <smiles>  (86) 
C=c1c(=Cc2[nH]c(=O)[nH]c2O)cc(CC(=O)N2CCN(C)CC2)n1CC(=O)N(C)Cc1ccccc1

>  <score_type>  (86) 
oracle

>  <origin>  (86) 
adg

>  <m_score__min__energy>  (86) 
-15.92

>  <m_primary>  (86) 
energy

$$$$
86:0
     RDKit          3D

 59 61  0  0  0  0  0  0  0  0999 V2000
   58.3670   32.3690   49.0470 C   0  0  0  0  0  0  0  0  0  0  0  0
   58.8840   31.8940   50.4050 C   0  0  0  0  0  0  0  0  0  0  0  0
   59.2530   33.0670   51.3220 C   0  0  0  0  0  0  0  0  0  0  0  0
   60.4970   32.8110   52.0420 N   0  0  0  0  0  0  0  0  0  0  0  0
   61.7540   32.6190   51.3920 C   0  0  0  0  0  0  0  0  0  0  0  0
   62.3430   31.5110   51.5090 O   0  0  0  0  0  0  0  0  0  0  0  0
   62.2890   33.6350   50.5890 O   0  0  0  0  0  0  0  0  0  0  0  0
   62.2390   33.6680   49.1880 C   0  0  0  0  0  0  0  0  0  0  0  0
   63.2990   33.2030   48.3920 C   0  0  0  0  0  0  0  0  0  0  0  0
   63.2140   33.2730   46.9990 C   0  0  0  0  0  0  0  0  0  0  0  0
   62.0790   33.8130   46.3910 C   0  0  0  0  0  0  0  0  0  0  0  0
   61.0220   34.3070   47.1730 C   0  0  0  0  0  0  0  0  0  0  0  0
   59.8190   34.8770   46.5210 C   0  0  0  0  0  0  0  0  0  0  0  0
   59.4640   36.0520   46.8080 O   0  0  0  0  0  0  0  0  0  0  0  0
   59.0820   34.1640   45.5180 N   0  0  0  0  0  0  0  0  0  0  0  0
   58.9090   32.7420   45.4350 C   0  0  0  0  0  0  0  0  0  0  0  0
   57.9880   32.1590   44.5470 C   0  0  0  0  0  0  0  0  0  0  0  0
   57.8490   30.7700   44.4890 C   0  0  0  0  0  0  0  0  0  0  0  0
   58.6510   29.9510   45.2880 C   0  0  0  0  0  0  0  0  0  0  0  0
   59.6160   30.5170   46.1310 C   0  0  0  0  0  0  0  0  0  0  0  0
   60.5110   29.6440   46.9120 C   0  0  0  0  0  0  0  0  0  0  0  0
   60.1090   28.8330   47.9070 C   0  0  0  0  0  0  0  0  0  0  0  0
   59.8980   27.3730   47.7930 C   0  0  0  0  0  0  0  0  0  0  0  0
   59.0510   26.8150   48.5410 O   0  0  0  0  0  0  0  0  0  0  0  0
   60.6140   26.6030   46.8250 N   0  0  0  0  0  0  0  0  0  0  0  0
   60.0440   25.5190   46.0420 C   0  0  0  0  0  0  0  0  0  0  0  0
   58.5580   25.7190   45.9600 C   0  0  0  0  0  0  0  0  0  0  0  0
   57.6910   24.6810   46.3350 C   0  0  0  0  0  0  0  0  0  0  0  0
   56.3080   24.8820   46.3330 C   0  0  0  0  0  0  0  0  0  0  0  0
   55.7780   26.1210   45.9580 C   0  0  0  0  0  0  0  0  0  0  0  0
   54.4030   26.3130   45.9610 O   0  0  0  0  0  0  0  0  0  0  0  0
   56.6340   27.1650   45.5850 C   0  0  0  0  0  0  0  0  0  0  0  0
   56.1010   28.3960   45.2110 O   0  0  0  0  0  0  0  0  0  0  0  0
   58.0230   26.9650   45.5930 C   0  0  0  0  0  0  0  0  0  0  0  0
   59.7260   31.9160   46.2160 C   0  0  0  0  0  0  0  0  0  0  0  0
   61.1100   34.2220   48.5740 C   0  0  0  0  0  0  0  0  0  0  0  0
   57.5646   33.1062   49.1976 H   0  0  0  0  0  0  0  0  0  0  0  0
   59.1899   32.8327   48.4831 H   0  0  0  0  0  0  0  0  0  0  0  0
   57.9745   31.5099   48.4831 H   0  0  0  0  0  0  0  0  0  0  0  0
   58.1014   31.2944   50.8929 H   0  0  0  0  0  0  0  0  0  0  0  0
   59.7927   31.2984   50.2331 H   0  0  0  0  0  0  0  0  0  0  0  0
   59.3733   33.9741   50.7115 H   0  0  0  0  0  0  0  0  0  0  0  0
   58.4471   33.1960   52.0595 H   0  0  0  0  0  0  0  0  0  0  0  0
   64.1981   32.7828   48.8664 H   0  0  0  0  0  0  0  0  0  0  0  0
   64.0437   32.9016   46.3796 H   0  0  0  0  0  0  0  0  0  0  0  0
   62.0123   33.8518   45.2937 H   0  0  0  0  0  0  0  0  0  0  0  0
   57.3746   32.7988   43.8955 H   0  0  0  0  0  0  0  0  0  0  0  0
   57.1068   30.3203   43.8130 H   0  0  0  0  0  0  0  0  0  0  0  0
   58.5243   28.8588   45.2549 H   0  0  0  0  0  0  0  0  0  0  0  0
   61.5825   29.6567   46.6637 H   0  0  0  0  0  0  0  0  0  0  0  0
   59.9213   29.2940   48.8879 H   0  0  0  0  0  0  0  0  0  0  0  0
   60.4755   25.5257   45.0302 H   0  0  0  0  0  0  0  0  0  0  0  0
   60.2680   24.5528   46.5178 H   0  0  0  0  0  0  0  0  0  0  0  0
   58.1019   23.7048   46.6318 H   0  0  0  0  0  0  0  0  0  0  0  0
   55.6344   24.0636   46.6271 H   0  0  0  0  0  0  0  0  0  0  0  0
   55.1040   28.5790   45.2560 H   0  0  0  0  0  0  0  0  0  0  0  0
   58.6961   27.7879   45.3105 H   0  0  0  0  0  0  0  0  0  0  0  0
   60.4598   32.3651   46.9015 H   0  0  0  0  0  0  0  0  0  0  0  0
   60.2819   34.5953   49.1944 H   0  0  0  0  0  0  0  0  0  0  0  0
  1  2  1  0
  2  3  1  0
  3  4  1  0
  4  5  1  0
  5  6  2  0
  5  7  1  0
  7  8  1  0
  8  9  2  0
  9 10  1  0
 10 11  2  0
 11 12  1  0
 12 13  1  0
 13 14  2  0
 13 15  1  0
 15 16  1  0
 16 17  2  0
 17 18  1  0
 18 19  2  0
 19 20  1  0
 20 21  1  0
 21 22  2  3
 22 23  1  0
 23 24  2  0
 23 25  1  0
 25 26  1  0
 26 27  1  0
 27 28  2  0
 28 29  1  0
 29 30  2  0
 30 31  1  0
 30 32  1  0
 32 33  1  0
 32 34  2  0
 20 35  2  0
 12 36  2  0
 36  8  1  0
 35 16  1  0
 34 27  1  0
  1 37  1  0
  1 38  1  0
  1 39  1  0
  2 40  1  0
  2 41  1  0
  3 42  1  0
  3 43  1  0
  9 44  1  0
 10 45  1  0
 11 46  1  0
 17 47  1  0
 18 48  1  0
 19 49  1  0
 21 50  1  0
 22 51  1  0
 26 52  1  0
 26 53  1  0
 28 54  1  0
 29 55  1  0
 33 56  1  0
 34 57  1  0
 35 58  1  0
 36 59  1  0
M  CHG  4   4  -1  15  -1  25  -1  31  -1
M  END
>  <UniqueID>  (87) 
83

>  <SMILES>  (87) 
CCC[N-]C(=O)Oc1cccc(C(=O)[N-]c2cccc(C=CC(=O)[N-]Cc3ccc([O-])c(O)c3)c2)c1

>  <Energy>  (87) 
65.89909789330966

>  <Genealogy>  (87) 
CCC[N-]C(=O)Oc1cccc(C(=O)[N-]c2cccc(C=CC(=O)[N-]Cc3ccc([O-])c(O)c3)c2)c1 (protonated)
CCC[N-]C(=O)Oc1cccc(C(=O)[N-]c2cccc(C=CC(=O)[N-]Cc3ccc([O-])c(O)c3)c2)c1 (3D coordinates assigned)
CCC[N-]C(=O)Oc1cccc(C(=O)[N-]c2cccc(C=CC(=O)[N-]Cc3ccc([O-])c(O)c3)c2)c1 (optimized conformer: 65.89909789330966 kcal/mol)

>  <smiles>  (87) 
CCCNC(=O)Oc1cccc(C(=O)Nc2cccc(C=CC(=O)NCc3ccc(O)c(O)c3)c2)c1

>  <score_type>  (87) 
oracle

>  <origin>  (87) 
adg

>  <m_score__min__energy>  (87) 
-17.989999999999998

>  <m_primary>  (87) 
energy

$$$$
87:0
     RDKit          3D

 47 49  0  0  0  0  0  0  0  0999 V2000
   57.6580   25.3560   44.6610 C   0  0  0  0  0  0  0  0  0  0  0  0
   56.7780   26.0020   46.0710 S   0  0  0  0  0  0  0  0  0  0  0  0
   57.7750   26.3700   47.1320 O   0  0  0  0  0  0  0  0  0  0  0  0
   55.8410   24.9630   46.6250 O   0  0  0  0  0  0  0  0  0  0  0  0
   55.8910   27.4230   45.6260 N   0  0  0  0  0  0  0  0  0  0  0  0
   56.4400   28.5960   45.0080 C   0  0  0  0  0  0  0  0  0  0  0  0
   55.5740   29.4570   44.3250 C   0  0  0  0  0  0  0  0  0  0  0  0
   56.0610   30.6150   43.7130 C   0  0  0  0  0  0  0  0  0  0  0  0
   57.4280   30.9310   43.7720 C   0  0  0  0  0  0  0  0  0  0  0  0
   57.9520   32.1540   43.1200 C   0  0  0  0  0  0  0  0  0  0  0  0
   58.4490   32.0780   41.9660 O   0  0  0  0  0  0  0  0  0  0  0  0
   57.8680   33.4400   43.7470 N   0  0  0  0  0  0  0  0  0  0  0  0
   58.6140   33.8620   44.8990 C   0  0  0  0  0  0  0  0  0  0  0  0
   59.1740   35.1500   44.9830 C   0  0  0  0  0  0  0  0  0  0  0  0
   59.8850   35.5340   46.1220 C   0  0  0  0  0  0  0  0  0  0  0  0
   60.0290   34.6470   47.1920 C   0  0  0  0  0  0  0  0  0  0  0  0
   59.4520   33.3710   47.1310 C   0  0  0  0  0  0  0  0  0  0  0  0
   59.6530   32.2450   48.4720 S   0  0  0  0  0  0  0  0  0  0  0  0
   59.0500   32.8350   49.7180 O   0  0  0  0  0  0  0  0  0  0  0  0
   58.9350   30.9640   48.1560 O   0  0  0  0  0  0  0  0  0  0  0  0
   61.3520   31.9160   48.7040 N   0  0  0  0  0  0  0  0  0  0  0  0
   62.0200   31.6620   47.4290 C   0  0  0  0  0  0  0  0  0  0  0  0
   63.4800   32.0200   47.6380 C   0  0  0  0  0  0  0  0  0  0  0  0
   63.4750   33.0510   48.7570 C   0  0  0  0  0  0  0  0  0  0  0  0
   62.0460   33.0670   49.2930 C   0  0  0  0  0  0  0  0  0  0  0  0
   58.7430   32.9840   45.9840 C   0  0  0  0  0  0  0  0  0  0  0  0
   58.2990   30.0560   44.4400 C   0  0  0  0  0  0  0  0  0  0  0  0
   57.8100   28.9020   45.0600 C   0  0  0  0  0  0  0  0  0  0  0  0
   58.5000   24.7379   45.0060 H   0  0  0  0  0  0  0  0  0  0  0  0
   56.9769   24.7418   44.0536 H   0  0  0  0  0  0  0  0  0  0  0  0
   58.0399   26.1898   44.0536 H   0  0  0  0  0  0  0  0  0  0  0  0
   54.5012   29.2204   44.2694 H   0  0  0  0  0  0  0  0  0  0  0  0
   55.3685   31.2840   43.1811 H   0  0  0  0  0  0  0  0  0  0  0  0
   59.0514   35.8567   44.1490 H   0  0  0  0  0  0  0  0  0  0  0  0
   60.3328   36.5372   46.1769 H   0  0  0  0  0  0  0  0  0  0  0  0
   60.5964   34.9507   48.0841 H   0  0  0  0  0  0  0  0  0  0  0  0
   61.9231   30.6018   47.1521 H   0  0  0  0  0  0  0  0  0  0  0  0
   61.5738   32.2552   46.6172 H   0  0  0  0  0  0  0  0  0  0  0  0
   64.0577   31.1316   47.9331 H   0  0  0  0  0  0  0  0  0  0  0  0
   63.9463   32.4077   46.7203 H   0  0  0  0  0  0  0  0  0  0  0  0
   64.1795   32.7604   49.5502 H   0  0  0  0  0  0  0  0  0  0  0  0
   63.7866   34.0431   48.3982 H   0  0  0  0  0  0  0  0  0  0  0  0
   62.0533   32.9826   50.3897 H   0  0  0  0  0  0  0  0  0  0  0  0
   61.5392   34.0070   49.0293 H   0  0  0  0  0  0  0  0  0  0  0  0
   58.2853   31.9849   45.9358 H   0  0  0  0  0  0  0  0  0  0  0  0
   59.3753   30.2800   44.4760 H   0  0  0  0  0  0  0  0  0  0  0  0
   58.5012   28.2308   45.5908 H   0  0  0  0  0  0  0  0  0  0  0  0
  1  2  1  0
  2  3  2  0
  2  4  2  0
  2  5  1  0
  5  6  1  0
  6  7  2  0
  7  8  1  0
  8  9  2  0
  9 10  1  0
 10 11  2  0
 10 12  1  0
 12 13  1  0
 13 14  2  0
 14 15  1  0
 15 16  2  0
 16 17  1  0
 17 18  1  0
 18 19  2  0
 18 20  2  0
 18 21  1  0
 21 22  1  0
 22 23  1  0
 23 24  1  0
 24 25  1  0
 17 26  2  0
  9 27  1  0
 27 28  2  0
 28  6  1  0
 26 13  1  0
 25 21  1  0
  1 29  1  0
  1 30  1  0
  1 31  1  0
  7 32  1  0
  8 33  1  0
 14 34  1  0
 15 35  1  0
 16 36  1  0
 22 37  1  0
 22 38  1  0
 23 39  1  0
 23 40  1  0
 24 41  1  0
 24 42  1  0
 25 43  1  0
 25 44  1  0
 26 45  1  0
 27 46  1  0
 28 47  1  0
M  CHG  2   5  -1  12  -1
M  END
>  <UniqueID>  (88) 
84

>  <SMILES>  (88) 
CS(=O)(=O)[N-]c1ccc(C(=O)[N-]c2cccc(S(=O)(=O)N3CCCC3)c2)cc1

>  <Energy>  (88) 
54.45819782819891

>  <Genealogy>  (88) 
CS(=O)(=O)[N-]c1ccc(C(=O)[N-]c2cccc(S(=O)(=O)N3CCCC3)c2)cc1 (protonated)
CS(=O)(=O)[N-]c1ccc(C(=O)[N-]c2cccc(S(=O)(=O)N3CCCC3)c2)cc1 (3D coordinates assigned)
CS(=O)(=O)[N-]c1ccc(C(=O)[N-]c2cccc(S(=O)(=O)N3CCCC3)c2)cc1 (nonaromatic ring conformer: 54.45819782819891 kcal/mol)

>  <smiles>  (88) 
CS(=O)(=O)Nc1ccc(C(=O)Nc2cccc(S(=O)(=O)N3CCCC3)c2)cc1

>  <score_type>  (88) 
oracle

>  <origin>  (88) 
adg

>  <m_score__min__energy>  (88) 
-12.279999999999999

>  <m_primary>  (88) 
energy

$$$$
88:0
     RDKit          3D

 51 53  0  0  0  0  0  0  0  0999 V2000
   56.9140   30.9260   42.7880 C   0  0  0  0  0  0  0  0  0  0  0  0
   56.9990   31.3080   44.2350 C   0  0  0  0  0  0  0  0  0  0  0  0
   56.6460   30.4610   45.1010 O   0  0  0  0  0  0  0  0  0  0  0  0
   57.4380   32.6230   44.6450 N   0  0  0  0  0  0  0  0  0  0  0  0
   58.5510   33.2770   43.9310 C   0  0  0  0  0  0  0  0  0  0  0  0
   59.5030   34.0310   44.8850 C   0  0  0  0  0  0  0  0  0  0  0  0
   60.0100   33.2130   46.0920 C   0  0  0  0  0  0  0  0  0  0  0  0
   58.9420   32.5770   46.9080 N   0  0  0  0  0  0  0  0  0  0  0  0
   59.4350   32.1310   48.2280 C   0  0  0  0  0  0  0  0  0  0  0  0
   59.5160   30.6290   48.2760 C   0  0  0  0  0  0  0  0  0  0  0  0
   60.3740   29.9850   49.1810 C   0  0  0  0  0  0  0  0  0  0  0  0
   60.4350   28.5900   49.2200 C   0  0  0  0  0  0  0  0  0  0  0  0
   59.6500   27.8280   48.3520 C   0  0  0  0  0  0  0  0  0  0  0  0
   58.8070   28.4550   47.4230 C   0  0  0  0  0  0  0  0  0  0  0  0
   57.9970   27.6500   46.5490 N   0  0  0  0  0  0  0  0  0  0  0  0
   58.5310   26.7750   45.5450 C   0  0  0  0  0  0  0  0  0  0  0  0
   59.7450   26.4370   45.5670 O   0  0  0  0  0  0  0  0  0  0  0  0
   57.6410   26.2500   44.4600 C   0  0  0  0  0  0  0  0  0  0  0  0
   56.7660   25.2050   44.9960 N   0  0  0  0  0  0  0  0  0  0  0  0
   55.5930   25.4430   45.6520 C   0  0  0  0  0  0  0  0  0  0  0  0
   55.1310   26.7270   45.9180 O   0  0  0  0  0  0  0  0  0  0  0  0
   54.8850   24.3080   46.0350 C   0  0  0  0  0  0  0  0  0  0  0  0
   55.7520   22.9560   45.5200 S   0  0  0  0  0  0  0  0  0  0  0  0
   56.9820   23.8760   44.8410 C   0  0  0  0  0  0  0  0  0  0  0  0
   57.9840   23.3930   44.2500 O   0  0  0  0  0  0  0  0  0  0  0  0
   58.7260   29.8580   47.4060 C   0  0  0  0  0  0  0  0  0  0  0  0
   57.6950   33.3630   47.0450 C   0  0  0  0  0  0  0  0  0  0  0  0
   56.7940   33.2830   45.7980 C   0  0  0  0  0  0  0  0  0  0  0  0
   56.6758   29.8553   42.7048 H   0  0  0  0  0  0  0  0  0  0  0  0
   56.1252   31.5162   42.2987 H   0  0  0  0  0  0  0  0  0  0  0  0
   57.8786   31.1261   42.2987 H   0  0  0  0  0  0  0  0  0  0  0  0
   59.1258   32.5082   43.3938 H   0  0  0  0  0  0  0  0  0  0  0  0
   58.1174   34.0144   43.2394 H   0  0  0  0  0  0  0  0  0  0  0  0
   60.3780   34.3577   44.3040 H   0  0  0  0  0  0  0  0  0  0  0  0
   58.9179   34.8625   45.3048 H   0  0  0  0  0  0  0  0  0  0  0  0
   60.6703   32.4187   45.7138 H   0  0  0  0  0  0  0  0  0  0  0  0
   60.5229   33.9253   46.7549 H   0  0  0  0  0  0  0  0  0  0  0  0
   60.4351   32.5540   48.4035 H   0  0  0  0  0  0  0  0  0  0  0  0
   58.7376   32.4764   49.0054 H   0  0  0  0  0  0  0  0  0  0  0  0
   61.0002   30.5805   49.8616 H   0  0  0  0  0  0  0  0  0  0  0  0
   61.1034   28.0902   49.9366 H   0  0  0  0  0  0  0  0  0  0  0  0
   59.6931   26.7298   48.3972 H   0  0  0  0  0  0  0  0  0  0  0  0
   56.9620   27.6490   46.6970 H   0  0  0  0  0  0  0  0  0  0  0  0
   57.0270   27.0715   44.0623 H   0  0  0  0  0  0  0  0  0  0  0  0
   58.2608   25.8266   43.6559 H   0  0  0  0  0  0  0  0  0  0  0  0
   53.9284   24.2948   46.5780 H   0  0  0  0  0  0  0  0  0  0  0  0
   58.0390   30.3565   46.7064 H   0  0  0  0  0  0  0  0  0  0  0  0
   57.1324   32.9803   47.9093 H   0  0  0  0  0  0  0  0  0  0  0  0
   57.9825   34.4166   47.1766 H   0  0  0  0  0  0  0  0  0  0  0  0
   55.8870   32.7184   46.0599 H   0  0  0  0  0  0  0  0  0  0  0  0
   56.5704   34.3164   45.4947 H   0  0  0  0  0  0  0  0  0  0  0  0
  1  2  1  0
  2  3  2  0
  2  4  1  0
  4  5  1  0
  5  6  1  0
  6  7  1  0
  7  8  1  0
  8  9  1  0
  9 10  1  0
 10 11  2  0
 11 12  1  0
 12 13  2  0
 13 14  1  0
 14 15  1  0
 15 16  1  0
 16 17  2  0
 16 18  1  0
 18 19  1  0
 19 20  1  0
 20 21  1  0
 20 22  2  0
 22 23  1  0
 23 24  1  0
 24 25  2  0
 14 26  2  0
  8 27  1  0
 27 28  1  0
 28  4  1  0
 26 10  1  0
 24 19  1  0
  1 29  1  0
  1 30  1  0
  1 31  1  0
  5 32  1  0
  5 33  1  0
  6 34  1  0
  6 35  1  0
  7 36  1  0
  7 37  1  0
  9 38  1  0
  9 39  1  0
 11 40  1  0
 12 41  1  0
 13 42  1  0
 15 43  1  0
 18 44  1  0
 18 45  1  0
 22 46  1  0
 26 47  1  0
 27 48  1  0
 27 49  1  0
 28 50  1  0
 28 51  1  0
M  CHG  1  21  -1
M  END
>  <UniqueID>  (89) 
85

>  <SMILES>  (89) 
CC(=O)N1CCCN(Cc2cccc(NC(=O)Cn3c([O-])csc3=O)c2)CC1

>  <Energy>  (89) 
96.4685964339576

>  <Genealogy>  (89) 
CC(=O)N1CCCN(Cc2cccc(NC(=O)Cn3c([O-])csc3=O)c2)CC1 (protonated)
CC(=O)N1CCCN(Cc2cccc(NC(=O)Cn3c([O-])csc3=O)c2)CC1 (3D coordinates assigned)
CC(=O)N1CCCN(Cc2cccc(NC(=O)Cn3c([O-])csc3=O)c2)CC1 (nonaromatic ring conformer: 96.4685964339576 kcal/mol)

>  <smiles>  (89) 
CC(=O)N1CCCN(Cc2cccc(NC(=O)Cn3c(O)csc3=O)c2)CC1

>  <score_type>  (89) 
oracle

>  <origin>  (89) 
adg

>  <m_score__min__energy>  (89) 
-10.1

>  <m_primary>  (89) 
energy

$$$$
89:0
     RDKit          3D

 25 26  0  0  0  0  0  0  0  0999 V2000
   60.0060   35.7210   46.3490 C   0  0  0  0  0  0  0  0  0  0  0  0
   60.3110   34.3040   46.8690 C   0  0  1  0  0  0  0  0  0  0  0  0
   59.3300   33.2290   46.3870 C   0  0  0  0  0  0  0  0  0  0  0  0
   58.0810   33.6270   45.8650 C   0  0  0  0  0  0  0  0  0  0  0  0
   57.1540   32.6810   45.4190 C   0  0  0  0  0  0  0  0  0  0  0  0
   57.4500   31.3190   45.4890 C   0  0  0  0  0  0  0  0  0  0  0  0
   56.5150   30.3880   45.0410 O   0  0  0  0  0  0  0  0  0  0  0  0
   58.6810   30.9040   46.0070 C   0  0  0  0  0  0  0  0  0  0  0  0
   59.6130   31.8460   46.4540 C   0  0  0  0  0  0  0  0  0  0  0  0
   61.9970   33.8580   46.2980 S   0  0  0  0  0  0  0  0  0  0  0  0
   62.6040   33.8260   47.9790 C   0  0  0  0  0  0  0  0  0  0  0  0
   63.7810   33.6180   48.2210 O   0  0  0  0  0  0  0  0  0  0  0  0
   61.6220   34.0690   49.0630 C   0  0  0  0  0  0  0  0  0  0  0  0
   60.3310   34.3400   48.3780 C   0  0  0  0  0  0  0  0  0  0  0  0
   59.3210   34.5820   49.0230 O   0  0  0  0  0  0  0  0  0  0  0  0
   59.8597   36.4008   47.2014 H   0  0  0  0  0  0  0  0  0  0  0  0
   60.8483   36.0762   45.7371 H   0  0  0  0  0  0  0  0  0  0  0  0
   59.0922   35.6982   45.7371 H   0  0  0  0  0  0  0  0  0  0  0  0
   57.8334   34.6973   45.8083 H   0  0  0  0  0  0  0  0  0  0  0  0
   56.1873   33.0113   45.0112 H   0  0  0  0  0  0  0  0  0  0  0  0
   55.7380   30.0960   45.6230 H   0  0  0  0  0  0  0  0  0  0  0  0
   58.9174   29.8312   46.0631 H   0  0  0  0  0  0  0  0  0  0  0  0
   60.5766   31.5069   46.8621 H   0  0  0  0  0  0  0  0  0  0  0  0
   61.5356   33.1828   49.7088 H   0  0  0  0  0  0  0  0  0  0  0  0
   61.9253   34.9075   49.7072 H   0  0  0  0  0  0  0  0  0  0  0  0
  2  1  1  6
  2  3  1  0
  3  4  2  0
  4  5  1  0
  5  6  2  0
  6  7  1  0
  6  8  1  0
  8  9  2  0
  2 10  1  0
 10 11  1  0
 11 12  2  0
 11 13  1  0
 13 14  1  0
 14 15  2  0
 14  2  1  0
  9  3  1  0
  1 16  1  0
  1 17  1  0
  1 18  1  0
  4 19  1  0
  5 20  1  0
  7 21  1  0
  8 22  1  0
  9 23  1  0
 13 24  1  0
 13 25  1  0
M  END
>  <UniqueID>  (90) 
86

>  <SMILES>  (90) 
C[C@@]1(c2ccc(O)cc2)SC(=O)CC1=O

>  <Energy>  (90) 
29.885801044216556

>  <Genealogy>  (90) 
C[C@@]1(c2ccc(O)cc2)SC(=O)CC1=O (chirality)
C[C@@]1(c2ccc(O)cc2)SC(=O)CC1=O (3D coordinates assigned)
C[C@@]1(c2ccc(O)cc2)SC(=O)CC1=O (nonaromatic ring conformer: 29.885801044216556 kcal/mol)

>  <smiles>  (90) 
CC1(c2ccc(O)cc2)SC(=O)CC1=O

>  <score_type>  (90) 
oracle

>  <origin>  (90) 
adg

>  <m_score__min__energy>  (90) 
-5.9299999999999997

>  <m_primary>  (90) 
energy

$$$$
90:0
     RDKit          3D

 49 51  0  0  0  0  0  0  0  0999 V2000
   65.3620   32.6880   49.7610 C   0  0  0  0  0  0  0  0  0  0  0  0
   64.0310   33.2910   49.4570 C   0  0  0  0  0  0  0  0  0  0  0  0
   63.2230   32.9650   48.3920 C   0  0  0  0  0  0  0  0  0  0  0  0
   62.0880   33.6790   48.5020 N   0  0  0  0  0  0  0  0  0  0  0  0
   60.9540   33.6640   47.6100 C   0  0  0  0  0  0  0  0  0  0  0  0
   60.3900   34.8670   47.1530 C   0  0  0  0  0  0  0  0  0  0  0  0
   59.3000   34.8530   46.2820 C   0  0  0  0  0  0  0  0  0  0  0  0
   58.7530   33.6410   45.8600 C   0  0  0  0  0  0  0  0  0  0  0  0
   59.2890   32.4220   46.3090 C   0  0  0  0  0  0  0  0  0  0  0  0
   58.7020   31.1390   45.8510 C   0  0  0  0  0  0  0  0  0  0  0  0
   58.5430   30.9380   44.6160 O   0  0  0  0  0  0  0  0  0  0  0  0
   58.2740   30.1420   46.7940 N   0  0  0  0  0  0  0  0  0  0  0  0
   58.0930   28.7610   46.4440 C   0  0  0  0  0  0  0  0  0  0  0  0
   58.6090   27.6660   47.1090 C   0  0  0  0  0  0  0  0  0  0  0  0
   58.1200   26.5590   46.5160 N   0  0  0  0  0  0  0  0  0  0  0  0
   58.4270   25.1820   46.8920 C   0  0  0  0  0  0  0  0  0  0  0  0
   57.1570   24.4000   47.0770 C   0  0  0  0  0  0  0  0  0  0  0  0
   56.0510   24.9800   46.9090 O   0  0  0  0  0  0  0  0  0  0  0  0
   57.1620   23.0270   47.4850 N   0  0  0  0  0  0  0  0  0  0  0  0
   56.6580   22.5410   48.7650 C   0  0  0  0  0  0  0  0  0  0  0  0
   55.1600   22.2730   48.6580 C   0  0  0  0  0  0  0  0  0  0  0  0
   54.7030   22.5680   47.3660 O   0  0  0  0  0  0  0  0  0  0  0  0
   57.3180   26.8910   45.5150 N   0  0  0  0  0  0  0  0  0  0  0  0
   57.2760   28.2380   45.4510 C   0  0  0  0  0  0  0  0  0  0  0  0
   56.4910   28.9640   44.4370 C   0  0  0  0  0  0  0  0  0  0  0  0
   55.1470   29.3410   44.7250 N   0  0  0  0  0  0  0  0  0  0  0  0
   56.9840   29.2400   43.3120 O   0  0  0  0  0  0  0  0  0  0  0  0
   60.3960   32.4440   47.1780 C   0  0  0  0  0  0  0  0  0  0  0  0
   62.2310   34.4050   49.6330 C   0  0  0  0  0  0  0  0  0  0  0  0
   63.4100   34.1840   50.2510 N   0  0  0  0  0  0  0  0  0  0  0  0
   65.4966   32.6270   50.8510 H   0  0  0  0  0  0  0  0  0  0  0  0
   65.4146   31.6782   49.3280 H   0  0  0  0  0  0  0  0  0  0  0  0
   66.1558   33.3144   49.3280 H   0  0  0  0  0  0  0  0  0  0  0  0
   63.4625   32.2481   47.5928 H   0  0  0  0  0  0  0  0  0  0  0  0
   60.8111   35.8276   47.4845 H   0  0  0  0  0  0  0  0  0  0  0  0
   58.8704   35.8013   45.9267 H   0  0  0  0  0  0  0  0  0  0  0  0
   57.8958   33.6395   45.1707 H   0  0  0  0  0  0  0  0  0  0  0  0
   58.0610   30.4420   47.7700 H   0  0  0  0  0  0  0  0  0  0  0  0
   59.2955   27.6926   47.9680 H   0  0  0  0  0  0  0  0  0  0  0  0
   59.0296   24.7145   46.0993 H   0  0  0  0  0  0  0  0  0  0  0  0
   58.9885   25.1845   47.8379 H   0  0  0  0  0  0  0  0  0  0  0  0
   57.1781   21.6096   49.0332 H   0  0  0  0  0  0  0  0  0  0  0  0
   56.8383   23.3004   49.5402 H   0  0  0  0  0  0  0  0  0  0  0  0
   54.9645   21.2132   48.8787 H   0  0  0  0  0  0  0  0  0  0  0  0
   54.6301   22.9126   49.3792 H   0  0  0  0  0  0  0  0  0  0  0  0
   55.4850   22.9110   46.8590 H   0  0  0  0  0  0  0  0  0  0  0  0
   54.7840   29.3310   45.7050 H   0  0  0  0  0  0  0  0  0  0  0  0
   60.8318   31.4955   47.5249 H   0  0  0  0  0  0  0  0  0  0  0  0
   61.4676   35.1018   50.0096 H   0  0  0  0  0  0  0  0  0  0  0  0
  1  2  1  0
  2  3  2  0
  3  4  1  0
  4  5  1  0
  5  6  2  0
  6  7  1  0
  7  8  2  0
  8  9  1  0
  9 10  1  0
 10 11  2  0
 10 12  1  0
 12 13  1  0
 13 14  2  0
 14 15  1  0
 15 16  1  0
 16 17  1  0
 17 18  2  0
 17 19  1  0
 19 20  1  0
 20 21  1  0
 21 22  1  0
 15 23  1  0
 23 24  2  0
 24 25  1  0
 25 26  1  0
 25 27  2  0
  9 28  2  0
  4 29  1  0
 29 30  2  0
 30  2  1  0
 28  5  1  0
 24 13  1  0
  1 31  1  0
  1 32  1  0
  1 33  1  0
  3 34  1  0
  6 35  1  0
  7 36  1  0
  8 37  1  0
 12 38  1  0
 14 39  1  0
 16 40  1  0
 16 41  1  0
 20 42  1  0
 20 43  1  0
 21 44  1  0
 21 45  1  0
 22 46  1  0
 26 47  1  0
 28 48  1  0
 29 49  1  0
M  CHG  2  19  -1  26  -1
M  END
>  <UniqueID>  (91) 
87

>  <SMILES>  (91) 
Cc1cn(-c2cccc(C(=O)Nc3cn(CC(=O)[N-]CCO)nc3C([NH-])=O)c2)cn1

>  <Energy>  (91) 
110.66397661031445

>  <Genealogy>  (91) 
Cc1cn(-c2cccc(C(=O)Nc3cn(CC(=O)[N-]CCO)nc3C([NH-])=O)c2)cn1 (protonated)
Cc1cn(-c2cccc(C(=O)Nc3cn(CC(=O)[N-]CCO)nc3C([NH-])=O)c2)cn1 (3D coordinates assigned)
Cc1cn(-c2cccc(C(=O)Nc3cn(CC(=O)[N-]CCO)nc3C([NH-])=O)c2)cn1 (optimized conformer: 110.66397661031445 kcal/mol)

>  <smiles>  (91) 
Cc1cn(-c2cccc(C(=O)Nc3cn(CC(=O)NCCO)nc3C(N)=O)c2)cn1

>  <score_type>  (91) 
oracle

>  <origin>  (91) 
adg

>  <m_score__min__energy>  (91) 
-12.77

>  <m_primary>  (91) 
energy

$$$$
91:0
     RDKit          3D

 45 47  0  0  0  0  0  0  0  0999 V2000
   55.1590   29.2940   44.7750 N   0  0  0  0  0  0  0  0  0  0  0  0
   56.5800   29.4110   44.8080 C   0  0  0  0  0  0  0  0  0  0  0  0
   57.2660   28.4400   45.2300 O   0  0  0  0  0  0  0  0  0  0  0  0
   57.2440   30.6550   44.3540 C   0  0  0  0  0  0  0  0  0  0  0  0
   57.2470   31.0100   42.9920 C   0  0  0  0  0  0  0  0  0  0  0  0
   57.8680   32.1880   42.5690 C   0  0  0  0  0  0  0  0  0  0  0  0
   58.4960   33.0230   43.4940 C   0  0  0  0  0  0  0  0  0  0  0  0
   58.5170   32.6810   44.8540 C   0  0  0  0  0  0  0  0  0  0  0  0
   59.1660   33.5950   45.8610 C   0  0  0  0  0  0  0  0  0  0  0  0
   59.1070   33.0150   47.2500 C   0  0  0  0  0  0  0  0  0  0  0  0
   58.5250   33.6600   48.1670 O   0  0  0  0  0  0  0  0  0  0  0  0
   59.7160   31.7460   47.5580 N   0  0  0  0  0  0  0  0  0  0  0  0
   59.1250   30.9160   48.6200 C   0  0  0  0  0  0  0  0  0  0  0  0
   59.8440   29.5690   48.7470 C   0  0  0  0  0  0  0  0  0  0  0  0
   60.1050   29.0170   47.4090 N   0  0  0  0  0  0  0  0  0  0  0  0
   59.6520   27.6960   47.0570 C   0  0  0  0  0  0  0  0  0  0  0  0
   60.4840   26.8290   46.3280 C   0  0  0  0  0  0  0  0  0  0  0  0
   60.0500   25.5420   45.9990 C   0  0  0  0  0  0  0  0  0  0  0  0
   58.7840   25.1030   46.3960 C   0  0  0  0  0  0  0  0  0  0  0  0
   58.3650   23.8180   46.0610 O   0  0  0  0  0  0  0  0  0  0  0  0
   57.9510   25.9580   47.1290 C   0  0  0  0  0  0  0  0  0  0  0  0
   58.3830   27.2460   47.4600 C   0  0  0  0  0  0  0  0  0  0  0  0
   60.7680   29.8530   46.3940 C   0  0  0  0  0  0  0  0  0  0  0  0
   60.9440   31.2950   46.8860 C   0  0  0  0  0  0  0  0  0  0  0  0
   57.8820   31.5030   45.2800 C   0  0  0  0  0  0  0  0  0  0  0  0
   54.5950   29.3450   45.6530 H   0  0  0  0  0  0  0  0  0  0  0  0
   56.7572   30.3557   42.2557 H   0  0  0  0  0  0  0  0  0  0  0  0
   57.8618   32.4582   41.5027 H   0  0  0  0  0  0  0  0  0  0  0  0
   58.9763   33.9528   43.1553 H   0  0  0  0  0  0  0  0  0  0  0  0
   60.2190   33.7457   45.5808 H   0  0  0  0  0  0  0  0  0  0  0  0
   58.6211   34.5505   45.8621 H   0  0  0  0  0  0  0  0  0  0  0  0
   59.2008   31.4530   49.5770 H   0  0  0  0  0  0  0  0  0  0  0  0
   58.0735   30.7224   48.3612 H   0  0  0  0  0  0  0  0  0  0  0  0
   60.7979   29.7124   49.2756 H   0  0  0  0  0  0  0  0  0  0  0  0
   59.2096   28.8698   49.3116 H   0  0  0  0  0  0  0  0  0  0  0  0
   61.4832   27.1656   46.0144 H   0  0  0  0  0  0  0  0  0  0  0  0
   60.7073   24.8720   45.4254 H   0  0  0  0  0  0  0  0  0  0  0  0
   57.7870   23.6450   45.2470 H   0  0  0  0  0  0  0  0  0  0  0  0
   56.9546   25.6153   47.4450 H   0  0  0  0  0  0  0  0  0  0  0  0
   57.7257   27.9111   48.0393 H   0  0  0  0  0  0  0  0  0  0  0  0
   61.7575   29.4276   46.1705 H   0  0  0  0  0  0  0  0  0  0  0  0
   60.1378   29.8689   45.4926 H   0  0  0  0  0  0  0  0  0  0  0  0
   61.7848   31.3392   47.5939 H   0  0  0  0  0  0  0  0  0  0  0  0
   61.1485   31.9496   46.0259 H   0  0  0  0  0  0  0  0  0  0  0  0
   57.8829   31.2399   46.3481 H   0  0  0  0  0  0  0  0  0  0  0  0
  1  2  1  0
  2  3  2  0
  2  4  1  0
  4  5  2  0
  5  6  1  0
  6  7  2  0
  7  8  1  0
  8  9  1  0
  9 10  1  0
 10 11  2  0
 10 12  1  0
 12 13  1  0
 13 14  1  0
 14 15  1  0
 15 16  1  0
 16 17  2  0
 17 18  1  0
 18 19  2  0
 19 20  1  0
 19 21  1  0
 21 22  2  0
 15 23  1  0
 23 24  1  0
  8 25  2  0
 25  4  1  0
 24 12  1  0
 22 16  1  0
  1 26  1  0
  5 27  1  0
  6 28  1  0
  7 29  1  0
  9 30  1  0
  9 31  1  0
 13 32  1  0
 13 33  1  0
 14 34  1  0
 14 35  1  0
 17 36  1  0
 18 37  1  0
 20 38  1  0
 21 39  1  0
 22 40  1  0
 23 41  1  0
 23 42  1  0
 24 43  1  0
 24 44  1  0
 25 45  1  0
M  CHG  1   1  -1
M  END
>  <UniqueID>  (92) 
88

>  <SMILES>  (92) 
[NH-]C(=O)c1cccc(CC(=O)N2CCN(c3ccc(O)cc3)CC2)c1

>  <Energy>  (92) 
52.330972326955724

>  <Genealogy>  (92) 
[NH-]C(=O)c1cccc(CC(=O)N2CCN(c3ccc(O)cc3)CC2)c1 (protonated)
[NH-]C(=O)c1cccc(CC(=O)N2CCN(c3ccc(O)cc3)CC2)c1 (3D coordinates assigned)
[NH-]C(=O)c1cccc(CC(=O)N2CCN(c3ccc(O)cc3)CC2)c1 (nonaromatic ring conformer: 52.330972326955724 kcal/mol)

>  <smiles>  (92) 
NC(=O)c1cccc(CC(=O)N2CCN(c3ccc(O)cc3)CC2)c1

>  <score_type>  (92) 
oracle

>  <origin>  (92) 
adg

>  <m_score__min__energy>  (92) 
-11.619999999999999

>  <m_primary>  (92) 
energy

$$$$
92:0
     RDKit          3D

 48 51  0  0  0  0  0  0  0  0999 V2000
   57.6770   26.2130   44.9980 O   0  0  0  0  0  0  0  0  0  0  0  0
   56.6480   26.5190   45.6600 C   0  0  0  0  0  0  0  0  0  0  0  0
   55.9710   25.5250   46.4360 N   0  0  0  0  0  0  0  0  0  0  0  0
   56.4790   24.1720   46.6350 C   0  0  0  0  0  0  0  0  0  0  0  0
   56.3840   23.3840   45.3570 C   0  0  0  0  0  0  0  0  0  0  0  0
   55.5710   23.8390   44.3090 C   0  0  0  0  0  0  0  0  0  0  0  0
   55.5070   23.1090   43.1200 C   0  0  0  0  0  0  0  0  0  0  0  0
   56.2340   21.9680   42.9800 N   0  0  0  0  0  0  0  0  0  0  0  0
   57.0340   21.5070   43.9780 C   0  0  0  0  0  0  0  0  0  0  0  0
   57.1260   22.2070   45.1840 C   0  0  0  0  0  0  0  0  0  0  0  0
   56.1230   27.8520   45.6180 N   0  0  0  0  0  0  0  0  0  0  0  0
   56.7990   28.9630   45.0010 C   0  0  0  0  0  0  0  0  0  0  0  0
   56.1600   29.7330   44.0110 C   0  0  0  0  0  0  0  0  0  0  0  0
   56.8310   30.7900   43.3930 C   0  0  0  0  0  0  0  0  0  0  0  0
   58.1480   31.0820   43.7470 C   0  0  0  0  0  0  0  0  0  0  0  0
   58.8020   30.3150   44.7140 C   0  0  0  0  0  0  0  0  0  0  0  0
   58.1360   29.2450   45.3450 C   0  0  0  0  0  0  0  0  0  0  0  0
   58.7610   28.4490   46.3210 O   0  0  0  0  0  0  0  0  0  0  0  0
   59.0250   28.8470   47.6680 C   0  0  0  0  0  0  0  0  0  0  0  0
   59.6900   30.1920   47.7030 C   0  0  0  0  0  0  0  0  0  0  0  0
   58.9580   31.3470   47.9820 C   0  0  0  0  0  0  0  0  0  0  0  0
   59.6190   32.5750   48.0210 C   0  0  0  0  0  0  0  0  0  0  0  0
   58.9500   33.6170   48.2660 O   0  0  0  0  0  0  0  0  0  0  0  0
   60.9730   32.6400   47.7970 N   0  0  0  0  0  0  0  0  0  0  0  0
   61.6340   33.8420   47.8320 C   0  0  0  0  0  0  0  0  0  0  0  0
   63.0110   33.9070   47.6070 C   0  0  0  0  0  0  0  0  0  0  0  0
   63.7200   32.7380   47.3460 C   0  0  0  0  0  0  0  0  0  0  0  0
   63.0510   31.5170   47.3110 C   0  0  0  0  0  0  0  0  0  0  0  0
   61.6720   31.4800   47.5390 C   0  0  0  0  0  0  0  0  0  0  0  0
   61.0280   30.2840   47.5000 N   0  0  0  0  0  0  0  0  0  0  0  0
   57.5310   24.2227   46.9524 H   0  0  0  0  0  0  0  0  0  0  0  0
   55.8751   23.6737   47.4077 H   0  0  0  0  0  0  0  0  0  0  0  0
   54.9876   24.7646   44.4226 H   0  0  0  0  0  0  0  0  0  0  0  0
   54.8676   23.4574   42.2955 H   0  0  0  0  0  0  0  0  0  0  0  0
   57.6102   20.5808   43.8358 H   0  0  0  0  0  0  0  0  0  0  0  0
   57.7755   21.8375   45.9912 H   0  0  0  0  0  0  0  0  0  0  0  0
   55.1580   27.9990   45.9900 H   0  0  0  0  0  0  0  0  0  0  0  0
   55.1244   29.5003   43.7221 H   0  0  0  0  0  0  0  0  0  0  0  0
   56.3209   31.3924   42.6269 H   0  0  0  0  0  0  0  0  0  0  0  0
   58.6732   31.9187   43.2633 H   0  0  0  0  0  0  0  0  0  0  0  0
   59.8426   30.5473   44.9846 H   0  0  0  0  0  0  0  0  0  0  0  0
   58.0760   28.8989   48.2218 H   0  0  0  0  0  0  0  0  0  0  0  0
   59.6965   28.1083   48.1299 H   0  0  0  0  0  0  0  0  0  0  0  0
   57.8754   31.2900   48.1685 H   0  0  0  0  0  0  0  0  0  0  0  0
   61.0729   34.7651   48.0397 H   0  0  0  0  0  0  0  0  0  0  0  0
   63.5316   34.8756   47.6359 H   0  0  0  0  0  0  0  0  0  0  0  0
   64.8048   32.7784   47.1680 H   0  0  0  0  0  0  0  0  0  0  0  0
   63.6036   30.5883   47.1054 H   0  0  0  0  0  0  0  0  0  0  0  0
  1  2  2  0
  2  3  1  0
  3  4  1  0
  4  5  1  0
  5  6  2  0
  6  7  1  0
  7  8  2  0
  8  9  1  0
  9 10  2  0
  2 11  1  0
 11 12  1  0
 12 13  2  0
 13 14  1  0
 14 15  2  0
 15 16  1  0
 16 17  2  0
 17 18  1  0
 18 19  1  0
 19 20  1  0
 20 21  2  0
 21 22  1  0
 22 23  2  0
 22 24  1  0
 24 25  1  0
 25 26  2  0
 26 27  1  0
 27 28  2  0
 28 29  1  0
 29 30  2  0
 10  5  1  0
 17 12  1  0
 30 20  1  0
 29 24  1  0
  4 31  1  0
  4 32  1  0
  6 33  1  0
  7 34  1  0
  9 35  1  0
 10 36  1  0
 11 37  1  0
 13 38  1  0
 14 39  1  0
 15 40  1  0
 16 41  1  0
 19 42  1  0
 19 43  1  0
 21 44  1  0
 25 45  1  0
 26 46  1  0
 27 47  1  0
 28 48  1  0
M  CHG  1   3  -1
M  END
>  <UniqueID>  (93) 
89

>  <SMILES>  (93) 
O=C([N-]Cc1ccncc1)Nc1ccccc1OCc1cc(=O)n2ccccc2n1

>  <Energy>  (93) 
59.802624624176666

>  <Genealogy>  (93) 
O=C([N-]Cc1ccncc1)Nc1ccccc1OCc1cc(=O)n2ccccc2n1 (protonated)
O=C([N-]Cc1ccncc1)Nc1ccccc1OCc1cc(=O)n2ccccc2n1 (3D coordinates assigned)
O=C([N-]Cc1ccncc1)Nc1ccccc1OCc1cc(=O)n2ccccc2n1 (optimized conformer: 59.802624624176666 kcal/mol)

>  <smiles>  (93) 
O=C(NCc1ccncc1)Nc1ccccc1OCc1cc(=O)n2ccccc2n1

>  <score_type>  (93) 
oracle

>  <origin>  (93) 
adg

>  <m_score__min__energy>  (93) 
-11.52

>  <m_primary>  (93) 
energy

$$$$
93:0
     RDKit          3D

 56 59  0  0  0  0  0  0  0  0999 V2000
   58.5160   21.4830   43.7830 C   0  0  0  0  0  0  0  0  0  0  0  0
   57.2960   22.3270   43.9720 C   0  0  0  0  0  0  0  0  0  0  0  0
   56.4370   22.7500   42.9640 C   0  0  0  0  0  0  0  0  0  0  0  0
   55.3810   23.5380   43.4370 C   0  0  0  0  0  0  0  0  0  0  0  0
   55.4210   23.7480   44.8120 C   0  0  0  0  0  0  0  0  0  0  0  0
   54.4950   24.5920   45.5930 C   0  0  0  0  0  0  0  0  0  0  0  0
   53.4230   24.0970   46.0310 O   0  0  0  0  0  0  0  0  0  0  0  0
   54.7580   25.9870   45.8130 N   0  0  0  0  0  0  0  0  0  0  0  0
   55.9210   26.5360   46.0250 C   0  0  0  0  0  0  0  0  0  0  0  0
   56.9450   25.8880   46.7470 C   0  0  0  0  0  0  0  0  0  0  0  0
   58.1880   26.5040   46.8810 C   0  0  0  0  0  0  0  0  0  0  0  0
   58.4190   27.7590   46.3110 C   0  0  0  0  0  0  0  0  0  0  0  0
   59.7560   28.3850   46.3860 C   0  0  0  0  0  0  0  0  0  0  0  0
   60.7390   27.7790   45.8840 O   0  0  0  0  0  0  0  0  0  0  0  0
   59.9550   29.6400   47.0730 N   0  0  0  0  0  0  0  0  0  0  0  0
   61.1610   30.4330   46.7900 C   0  0  0  0  0  0  0  0  0  0  0  0
   60.9240   31.9470   47.0000 C   0  0  0  0  0  0  0  0  0  0  0  0
   59.8900   32.2600   48.0170 N   0  0  0  0  0  0  0  0  0  0  0  0
   58.6630   32.9670   47.5570 C   0  0  0  0  0  0  0  0  0  0  0  0
   57.9770   32.3250   46.3150 C   0  0  0  0  0  0  0  0  0  0  0  0
   57.3310   33.3720   45.4090 C   0  0  0  0  0  0  0  0  0  0  0  0
   58.3950   34.3380   44.8750 C   0  0  0  0  0  0  0  0  0  0  0  0
   59.3000   34.9360   45.9770 C   0  0  0  0  0  0  0  0  0  0  0  0
   58.9400   34.4860   47.4030 C   0  0  0  0  0  0  0  0  0  0  0  0
   59.6590   31.1810   48.9950 C   0  0  0  0  0  0  0  0  0  0  0  0
   59.1950   29.8950   48.3090 C   0  0  0  0  0  0  0  0  0  0  0  0
   57.3560   28.4080   45.6710 C   0  0  0  0  0  0  0  0  0  0  0  0
   56.1510   27.7870   45.5380 N   0  0  0  0  0  0  0  0  0  0  0  0
   56.7510   22.9270   45.4430 S   0  0  0  0  0  0  0  0  0  0  0  0
   58.9229   21.2015   44.7654 H   0  0  0  0  0  0  0  0  0  0  0  0
   58.2502   20.5747   43.2223 H   0  0  0  0  0  0  0  0  0  0  0  0
   59.2722   22.0520   43.2223 H   0  0  0  0  0  0  0  0  0  0  0  0
   56.5732   22.4919   41.9034 H   0  0  0  0  0  0  0  0  0  0  0  0
   54.5966   23.9507   42.7856 H   0  0  0  0  0  0  0  0  0  0  0  0
   56.7636   24.9028   47.2014 H   0  0  0  0  0  0  0  0  0  0  0  0
   58.9913   25.9998   47.4382 H   0  0  0  0  0  0  0  0  0  0  0  0
   61.9677   30.1037   47.4614 H   0  0  0  0  0  0  0  0  0  0  0  0
   61.4305   30.2753   45.7352 H   0  0  0  0  0  0  0  0  0  0  0  0
   61.8722   32.4048   47.3184 H   0  0  0  0  0  0  0  0  0  0  0  0
   60.5607   32.3484   46.0424 H   0  0  0  0  0  0  0  0  0  0  0  0
   57.9076   32.8436   48.3470 H   0  0  0  0  0  0  0  0  0  0  0  0
   58.7338   31.7744   45.7370 H   0  0  0  0  0  0  0  0  0  0  0  0
   57.1836   31.6539   46.6758 H   0  0  0  0  0  0  0  0  0  0  0  0
   56.8405   32.8679   44.5633 H   0  0  0  0  0  0  0  0  0  0  0  0
   56.5887   33.9401   45.9889 H   0  0  0  0  0  0  0  0  0  0  0  0
   59.0306   33.7943   44.1606 H   0  0  0  0  0  0  0  0  0  0  0  0
   57.8609   35.1778   44.4065 H   0  0  0  0  0  0  0  0  0  0  0  0
   60.3378   34.6346   45.7720 H   0  0  0  0  0  0  0  0  0  0  0  0
   59.1580   36.0263   45.9448 H   0  0  0  0  0  0  0  0  0  0  0  0
   59.7768   34.7500   48.0664 H   0  0  0  0  0  0  0  0  0  0  0  0
   58.0019   34.9990   47.6614 H   0  0  0  0  0  0  0  0  0  0  0  0
   60.5964   30.9805   49.5346 H   0  0  0  0  0  0  0  0  0  0  0  0
   58.8704   31.5065   49.6894 H   0  0  0  0  0  0  0  0  0  0  0  0
   59.3389   29.0499   48.9983 H   0  0  0  0  0  0  0  0  0  0  0  0
   58.1331   30.0075   48.0451 H   0  0  0  0  0  0  0  0  0  0  0  0
   57.4947   29.4243   45.2737 H   0  0  0  0  0  0  0  0  0  0  0  0
  1  2  1  0
  2  3  2  0
  3  4  1  0
  4  5  2  0
  5  6  1  0
  6  7  2  0
  6  8  1  0
  8  9  2  3
  9 10  1  0
 10 11  2  0
 11 12  1  0
 12 13  1  0
 13 14  2  0
 13 15  1  0
 15 16  1  0
 16 17  1  0
 17 18  1  0
 18 19  1  0
 19 20  1  0
 20 21  1  0
 21 22  1  0
 22 23  1  0
 23 24  1  0
 18 25  1  0
 25 26  1  0
 12 27  2  0
 27 28  1  0
  5 29  1  0
 29  2  1  0
 28  9  1  0
 26 15  1  0
 24 19  1  0
  1 30  1  0
  1 31  1  0
  1 32  1  0
  3 33  1  0
  4 34  1  0
 10 35  1  0
 11 36  1  0
 16 37  1  0
 16 38  1  0
 17 39  1  0
 17 40  1  0
 19 41  1  0
 20 42  1  0
 20 43  1  0
 21 44  1  0
 21 45  1  0
 22 46  1  0
 22 47  1  0
 23 48  1  0
 23 49  1  0
 24 50  1  0
 24 51  1  0
 25 52  1  0
 25 53  1  0
 26 54  1  0
 26 55  1  0
 27 56  1  0
M  CHG  1  28  -1
M  END
>  <UniqueID>  (94) 
90

>  <SMILES>  (94) 
Cc1ccc(C(=O)N=c2ccc(C(=O)N3CCN(C4CCCCC4)CC3)c[n-]2)s1

>  <Energy>  (94) 
116.0230129652672

>  <Genealogy>  (94) 
Cc1ccc(C(=O)N=c2ccc(C(=O)N3CCN(C4CCCCC4)CC3)c[n-]2)s1 (protonated)
Cc1ccc(C(=O)N=c2ccc(C(=O)N3CCN(C4CCCCC4)CC3)c[n-]2)s1 (3D coordinates assigned)
Cc1ccc(C(=O)N=c2ccc(C(=O)N3CCN(C4CCCCC4)CC3)c[n-]2)s1 (nonaromatic ring conformer: 116.0230129652672 kcal/mol)

>  <smiles>  (94) 
Cc1ccc(C(=O)N=c2ccc(C(=O)N3CCN(C4CCCCC4)CC3)c[nH]2)s1

>  <score_type>  (94) 
oracle

>  <origin>  (94) 
adg

>  <m_score__min__energy>  (94) 
-11.470000000000001

>  <m_primary>  (94) 
energy

$$$$
