0:0
     RDKit          3D

 54 57  0  0  0  0  0  0  0  0999 V2000
   54.8840   25.8970   45.6220 N   0  0  0  0  0  0  0  0  0  0  0  0
   54.8220   24.2140   46.0100 S   0  0  0  0  0  0  0  0  0  0  0  0
   55.0520   24.0440   47.4840 O   0  0  0  0  0  0  0  0  0  0  0  0
   53.4560   23.6990   45.6520 O   0  0  0  0  0  0  0  0  0  0  0  0
   56.0660   23.3300   45.1090 C   0  0  0  0  0  0  0  0  0  0  0  0
   55.7990   22.0100   44.7140 C   0  0  0  0  0  0  0  0  0  0  0  0
   56.7690   21.2570   44.0470 C   0  0  0  0  0  0  0  0  0  0  0  0
   58.0150   21.8140   43.7670 C   0  0  0  0  0  0  0  0  0  0  0  0
   58.2930   23.1290   44.1400 C   0  0  0  0  0  0  0  0  0  0  0  0
   57.3250   23.9040   44.7990 C   0  0  0  0  0  0  0  0  0  0  0  0
   57.6590   25.3010   45.1420 C   0  0  0  0  0  0  0  0  0  0  0  0
   57.8640   25.6670   46.4810 C   0  0  0  0  0  0  0  0  0  0  0  0
   58.1740   26.9880   46.8110 C   0  0  0  0  0  0  0  0  0  0  0  0
   58.3090   27.9590   45.8070 C   0  0  0  0  0  0  0  0  0  0  0  0
   58.6010   29.3160   46.1790 N   0  0  0  0  0  0  0  0  0  0  0  0
   57.7200   30.4170   45.9080 C   0  0  0  0  0  0  0  0  0  0  0  0
   56.8900   30.3380   44.9630 O   0  0  0  0  0  0  0  0  0  0  0  0
   57.8220   31.6510   46.6360 N   0  0  0  0  0  0  0  0  0  0  0  0
   58.5250   32.6950   46.3000 C   0  0  0  0  0  0  0  0  0  0  0  0
   57.9270   33.8100   45.7900 N   0  0  0  0  0  0  0  0  0  0  0  0
   58.6380   34.9010   45.4070 C   0  0  0  0  0  0  0  0  0  0  0  0
   60.0260   34.9050   45.5260 C   0  0  0  0  0  0  0  0  0  0  0  0
   60.6710   33.7780   46.0360 C   0  0  0  0  0  0  0  0  0  0  0  0
   59.9240   32.6520   46.4250 C   0  0  0  0  0  0  0  0  0  0  0  0
   60.5250   31.4870   46.9350 O   0  0  0  0  0  0  0  0  0  0  0  0
   61.1120   31.3540   48.2300 C   0  0  0  0  0  0  0  0  0  0  0  0
   60.0470   31.3020   49.3090 C   0  0  0  0  0  0  0  0  0  0  0  0
   59.5300   30.0530   49.7340 C   0  0  0  0  0  0  0  0  0  0  0  0
   60.0480   28.5310   49.0130 Cl  0  0  0  0  0  0  0  0  0  0  0  0
   58.5620   29.9990   50.7420 C   0  0  0  0  0  0  0  0  0  0  0  0
   58.0840   31.1710   51.3250 C   0  0  0  0  0  0  0  0  0  0  0  0
   58.5560   32.4090   50.8940 C   0  0  0  0  0  0  0  0  0  0  0  0
   59.5240   32.4870   49.8850 C   0  0  0  0  0  0  0  0  0  0  0  0
   60.0210   34.0960   49.3680 Cl  0  0  0  0  0  0  0  0  0  0  0  0
   58.0980   27.5930   44.4640 C   0  0  0  0  0  0  0  0  0  0  0  0
   58.1450   28.5190   43.4730 F   0  0  0  0  0  0  0  0  0  0  0  0
   57.7860   26.2690   44.1370 C   0  0  0  0  0  0  0  0  0  0  0  0
   53.9550   26.3040   45.8780 H   0  0  0  0  0  0  0  0  0  0  0  0
   54.8172   21.5641   44.9314 H   0  0  0  0  0  0  0  0  0  0  0  0
   56.5485   20.2232   43.7426 H   0  0  0  0  0  0  0  0  0  0  0  0
   58.7806   21.2159   43.2511 H   0  0  0  0  0  0  0  0  0  0  0  0
   59.2788   23.5626   43.9160 H   0  0  0  0  0  0  0  0  0  0  0  0
   57.7801   24.9098   47.2745 H   0  0  0  0  0  0  0  0  0  0  0  0
   58.3133   27.2693   47.8652 H   0  0  0  0  0  0  0  0  0  0  0  0
   59.5640   29.5370   46.5240 H   0  0  0  0  0  0  0  0  0  0  0  0
   58.1182   35.7821   45.0026 H   0  0  0  0  0  0  0  0  0  0  0  0
   60.6074   35.7876   45.2210 H   0  0  0  0  0  0  0  0  0  0  0  0
   61.7666   33.7702   46.1341 H   0  0  0  0  0  0  0  0  0  0  0  0
   61.7028   30.4267   48.2632 H   0  0  0  0  0  0  0  0  0  0  0  0
   61.7540   32.2280   48.4143 H   0  0  0  0  0  0  0  0  0  0  0  0
   58.1755   29.0251   51.0768 H   0  0  0  0  0  0  0  0  0  0  0  0
   57.3328   31.1186   52.1268 H   0  0  0  0  0  0  0  0  0  0  0  0
   58.1658   33.3312   51.3493 H   0  0  0  0  0  0  0  0  0  0  0  0
   57.6394   25.9861   43.0841 H   0  0  0  0  0  0  0  0  0  0  0  0
  1  2  1  0
  2  3  2  0
  2  4  2  0
  2  5  1  0
  5  6  2  0
  6  7  1  0
  7  8  2  0
  8  9  1  0
  9 10  2  0
 10 11  1  0
 11 12  2  0
 12 13  1  0
 13 14  2  0
 14 15  1  0
 15 16  1  0
 16 17  2  0
 16 18  1  0
 18 19  2  3
 19 20  1  0
 20 21  1  0
 21 22  2  0
 22 23  1  0
 23 24  2  0
 24 25  1  0
 25 26  1  0
 26 27  1  0
 27 28  2  0
 28 29  1  0
 28 30  1  0
 30 31  2  0
 31 32  1  0
 32 33  2  0
 33 34  1  0
 14 35  1  0
 35 36  1  0
 35 37  2  0
 10  5  1  0
 37 11  1  0
 24 19  1  0
 33 27  1  0
  1 38  1  0
  6 39  1  0
  7 40  1  0
  8 41  1  0
  9 42  1  0
 12 43  1  0
 13 44  1  0
 15 45  1  0
 21 46  1  0
 22 47  1  0
 23 48  1  0
 26 49  1  0
 26 50  1  0
 30 51  1  0
 31 52  1  0
 32 53  1  0
 37 54  1  0
M  CHG  2   1  -1  20  -1
M  END
>  <UniqueID>  (1) 
1

>  <SMILES>  (1) 
[NH-]S(=O)(=O)c1ccccc1-c1ccc(NC(=O)N=c2[n-]cccc2OCc2c(Cl)cccc2Cl)c(F)c1

>  <Energy>  (1) 
80.31539464639611

>  <Genealogy>  (1) 
[NH-]S(=O)(=O)c1ccccc1-c1ccc(NC(=O)N=c2[n-]cccc2OCc2c(Cl)cccc2Cl)c(F)c1 (protonated)
[NH-]S(=O)(=O)c1ccccc1-c1ccc(NC(=O)N=c2[n-]cccc2OCc2c(Cl)cccc2Cl)c(F)c1 (3D coordinates assigned)
[NH-]S(=O)(=O)c1ccccc1-c1ccc(NC(=O)N=c2[n-]cccc2OCc2c(Cl)cccc2Cl)c(F)c1 (optimized conformer: 80.31539464639611 kcal/mol)

>  <smiles>  (1) 
NS(=O)(=O)c1ccccc1-c1ccc(NC(=O)N=c2[nH]cccc2OCc2c(Cl)cccc2Cl)c(F)c1

>  <score_type>  (1) 
oracle

>  <origin>  (1) 
adg

>  <m_score__min__energy>  (1) 
-12.99

>  <m_primary>  (1) 
energy

$$$$
1:0
     RDKit          3D

 33 35  0  0  0  0  0  0  0  0999 V2000
   56.2360   31.5450   44.8400 O   0  0  0  0  0  0  0  0  0  0  0  0
   57.2310   30.8110   44.5900 C   0  0  0  0  0  0  0  0  0  0  0  0
   58.3540   31.3480   43.8750 N   0  0  0  0  0  0  0  0  0  0  0  0
   58.5110   32.7790   43.6280 C   0  0  0  0  0  0  0  0  0  0  0  0
   58.9550   33.4760   44.8850 C   0  0  0  0  0  0  0  0  0  0  0  0
   59.1780   34.8600   44.8800 C   0  0  0  0  0  0  0  0  0  0  0  0
   59.6140   35.4910   46.0480 C   0  0  0  0  0  0  0  0  0  0  0  0
   59.8250   34.7650   47.1770 N   0  0  0  0  0  0  0  0  0  0  0  0
   59.6230   33.4210   47.2080 C   0  0  0  0  0  0  0  0  0  0  0  0
   59.1860   32.7500   46.0620 C   0  0  0  0  0  0  0  0  0  0  0  0
   57.2200   29.3940   45.0230 C   0  0  0  0  0  0  0  0  0  0  0  0
   56.0010   28.7120   45.2150 C   0  0  0  0  0  0  0  0  0  0  0  0
   54.7860   29.3410   44.9710 O   0  0  0  0  0  0  0  0  0  0  0  0
   55.9980   27.4140   45.6150 N   0  0  0  0  0  0  0  0  0  0  0  0
   57.1440   26.7220   45.8370 C   0  0  0  0  0  0  0  0  0  0  0  0
   57.0820   25.3860   46.2490 C   0  0  0  0  0  0  0  0  0  0  0  0
   58.2580   24.6660   46.4740 C   0  0  0  0  0  0  0  0  0  0  0  0
   59.5010   25.2770   46.2880 C   0  0  0  0  0  0  0  0  0  0  0  0
   59.5750   26.6110   45.8760 C   0  0  0  0  0  0  0  0  0  0  0  0
   58.3970   27.3470   45.6460 C   0  0  0  0  0  0  0  0  0  0  0  0
   58.4270   28.6940   45.2350 C   0  0  0  0  0  0  0  0  0  0  0  0
   59.5330   29.2800   45.0700 O   0  0  0  0  0  0  0  0  0  0  0  0
   59.0760   30.6980   43.4910 H   0  0  0  0  0  0  0  0  0  0  0  0
   59.2650   32.9317   42.8418 H   0  0  0  0  0  0  0  0  0  0  0  0
   57.5452   33.1966   43.3073 H   0  0  0  0  0  0  0  0  0  0  0  0
   59.0110   35.4449   43.9635 H   0  0  0  0  0  0  0  0  0  0  0  0
   59.7867   36.5773   46.0535 H   0  0  0  0  0  0  0  0  0  0  0  0
   59.8038   32.8602   48.1369 H   0  0  0  0  0  0  0  0  0  0  0  0
   59.0248   31.6621   46.0835 H   0  0  0  0  0  0  0  0  0  0  0  0
   56.1053   24.9017   46.3960 H   0  0  0  0  0  0  0  0  0  0  0  0
   58.2054   23.6162   46.7982 H   0  0  0  0  0  0  0  0  0  0  0  0
   60.4244   24.7064   46.4664 H   0  0  0  0  0  0  0  0  0  0  0  0
   60.5562   27.0868   45.7312 H   0  0  0  0  0  0  0  0  0  0  0  0
  1  2  2  0
  2  3  1  0
  3  4  1  0
  4  5  1  0
  5  6  2  0
  6  7  1  0
  7  8  2  0
  8  9  1  0
  9 10  2  0
  2 11  1  0
 11 12  2  0
 12 13  1  0
 12 14  1  0
 14 15  1  0
 15 16  2  0
 16 17  1  0
 17 18  2  0
 18 19  1  0
 19 20  2  0
 20 21  1  0
 21 22  2  0
 10  5  1  0
 21 11  1  0
 20 15  1  0
  3 23  1  0
  4 24  1  0
  4 25  1  0
  6 26  1  0
  7 27  1  0
  9 28  1  0
 10 29  1  0
 16 30  1  0
 17 31  1  0
 18 32  1  0
 19 33  1  0
M  CHG  2  13  -1  14  -1
M  END
>  <UniqueID>  (2) 
2

>  <SMILES>  (2) 
O=C(NCc1ccncc1)c1c([O-])[n-]c2ccccc2c1=O

>  <Energy>  (2) 
44.612584436746076

>  <Genealogy>  (2) 
O=C(NCc1ccncc1)c1c([O-])[n-]c2ccccc2c1=O (protonated)
O=C(NCc1ccncc1)c1c([O-])[n-]c2ccccc2c1=O (3D coordinates assigned)
O=C(NCc1ccncc1)c1c([O-])[n-]c2ccccc2c1=O (optimized conformer: 44.612584436746076 kcal/mol)

>  <smiles>  (2) 
O=C(NCc1ccncc1)c1c(O)[nH]c2ccccc2c1=O

>  <score_type>  (2) 
oracle

>  <origin>  (2) 
adg

>  <m_score__min__energy>  (2) 
-12.859999999999999

>  <m_primary>  (2) 
energy

$$$$
2:0
     RDKit          3D

 32 33  0  0  0  0  0  0  0  0999 V2000
   58.6870   33.9740   45.3220 C   0  0  0  0  0  0  0  0  0  0  0  0
   58.8250   32.4890   45.4720 C   0  0  0  0  0  0  0  0  0  0  0  0
   59.7000   32.0470   46.2660 O   0  0  0  0  0  0  0  0  0  0  0  0
   57.9650   31.5370   44.7190 C   0  0  0  0  0  0  0  0  0  0  0  0
   57.7170   31.7460   43.3490 C   0  0  0  0  0  0  0  0  0  0  0  0
   56.9260   30.8520   42.6250 C   0  0  0  0  0  0  0  0  0  0  0  0
   56.3620   29.7440   43.2560 C   0  0  0  0  0  0  0  0  0  0  0  0
   56.5700   29.5260   44.6220 C   0  0  0  0  0  0  0  0  0  0  0  0
   55.9880   28.3630   45.2280 N   0  0  0  0  0  0  0  0  0  0  0  0
   56.6950   27.2650   45.8230 C   0  0  0  0  0  0  0  0  0  0  0  0
   57.3950   27.4510   46.8550 O   0  0  0  0  0  0  0  0  0  0  0  0
   56.5610   25.9020   45.2570 C   0  0  0  0  0  0  0  0  0  0  0  0
   57.4090   25.4730   44.2200 C   0  0  0  0  0  0  0  0  0  0  0  0
   57.2810   24.1880   43.6830 C   0  0  0  0  0  0  0  0  0  0  0  0
   56.3050   23.3040   44.1710 C   0  0  0  0  0  0  0  0  0  0  0  0
   56.1770   21.9810   43.6160 N   0  0  0  0  0  0  0  0  0  0  0  0
   56.0840   20.9840   44.3620 O   0  0  0  0  0  0  0  0  0  0  0  0
   56.1560   21.7950   42.2530 O   0  0  0  0  0  0  0  0  0  0  0  0
   55.4570   23.7330   45.2070 C   0  0  0  0  0  0  0  0  0  0  0  0
   55.5820   25.0170   45.7430 C   0  0  0  0  0  0  0  0  0  0  0  0
   57.3900   30.4120   45.3460 C   0  0  0  0  0  0  0  0  0  0  0  0
   58.6436   34.4406   46.3172 H   0  0  0  0  0  0  0  0  0  0  0  0
   59.5523   34.3687   44.7694 H   0  0  0  0  0  0  0  0  0  0  0  0
   57.7638   34.2025   44.7694 H   0  0  0  0  0  0  0  0  0  0  0  0
   58.1506   32.6219   42.8443 H   0  0  0  0  0  0  0  0  0  0  0  0
   56.7471   31.0223   41.5531 H   0  0  0  0  0  0  0  0  0  0  0  0
   55.7500   29.0373   42.6764 H   0  0  0  0  0  0  0  0  0  0  0  0
   58.1791   26.1537   43.8282 H   0  0  0  0  0  0  0  0  0  0  0  0
   57.9506   23.8670   42.8714 H   0  0  0  0  0  0  0  0  0  0  0  0
   54.6879   23.0513   45.5992 H   0  0  0  0  0  0  0  0  0  0  0  0
   54.9092   25.3384   46.5517 H   0  0  0  0  0  0  0  0  0  0  0  0
   57.5845   30.2249   46.4124 H   0  0  0  0  0  0  0  0  0  0  0  0
  1  2  1  0
  2  3  2  0
  2  4  1  0
  4  5  2  0
  5  6  1  0
  6  7  2  0
  7  8  1  0
  8  9  1  0
  9 10  1  0
 10 11  2  0
 10 12  1  0
 12 13  2  0
 13 14  1  0
 14 15  2  0
 15 16  1  0
 16 17  2  0
 16 18  1  0
 15 19  1  0
 19 20  2  0
  8 21  2  0
 21  4  1  0
 20 12  1  0
  1 22  1  0
  1 23  1  0
  1 24  1  0
  5 25  1  0
  6 26  1  0
  7 27  1  0
 13 28  1  0
 14 29  1  0
 19 30  1  0
 20 31  1  0
 21 32  1  0
M  CHG  3   9  -1  16   1  18  -1
M  END
>  <UniqueID>  (3) 
3

>  <SMILES>  (3) 
CC(=O)c1cccc([N-]C(=O)c2ccc([N+](=O)[O-])cc2)c1

>  <Energy>  (3) 
38.69554619503194

>  <Genealogy>  (3) 
CC(=O)c1cccc([N-]C(=O)c2ccc([N+](=O)[O-])cc2)c1 (protonated)
CC(=O)c1cccc([N-]C(=O)c2ccc([N+](=O)[O-])cc2)c1 (3D coordinates assigned)
CC(=O)c1cccc([N-]C(=O)c2ccc([N+](=O)[O-])cc2)c1 (optimized conformer: 38.69554619503194 kcal/mol)

>  <smiles>  (3) 
CC(=O)c1cccc(NC(=O)c2ccc([N+](=O)[O-])cc2)c1

>  <score_type>  (3) 
oracle

>  <origin>  (3) 
adg

>  <m_score__min__energy>  (3) 
-8.8399999999999999

>  <m_primary>  (3) 
energy

$$$$
3:0
     RDKit          3D

 24 25  0  0  0  0  0  0  0  0999 V2000
   56.4070   29.8550   42.3490 N   0  0  0  0  0  0  0  0  0  0  0  0
   56.2880   29.9000   44.0730 S   0  0  0  0  0  0  0  0  0  0  0  0
   55.1850   28.9690   44.4950 O   0  0  0  0  0  0  0  0  0  0  0  0
   55.9480   31.2920   44.5240 O   0  0  0  0  0  0  0  0  0  0  0  0
   57.8170   29.3900   44.8110 C   0  0  0  0  0  0  0  0  0  0  0  0
   58.1520   28.0260   44.7750 C   0  0  0  0  0  0  0  0  0  0  0  0
   59.3790   27.5800   45.2720 C   0  0  0  0  0  0  0  0  0  0  0  0
   60.2880   28.4900   45.8080 C   0  0  0  0  0  0  0  0  0  0  0  0
   59.9680   29.8480   45.8630 C   0  0  0  0  0  0  0  0  0  0  0  0
   58.7290   30.3110   45.3860 C   0  0  0  0  0  0  0  0  0  0  0  0
   58.4340   31.7500   45.5100 C   0  0  0  0  0  0  0  0  0  0  0  0
   58.1730   32.4380   46.6900 C   0  0  0  0  0  0  0  0  0  0  0  0
   57.9880   33.8120   46.4980 C   0  0  0  0  0  0  0  0  0  0  0  0
   58.1170   34.2130   45.1750 C   0  0  0  0  0  0  0  0  0  0  0  0
   58.4670   32.8580   44.2450 S   0  0  0  0  0  0  0  0  0  0  0  0
   57.3870   29.5800   42.1160 H   0  0  0  0  0  0  0  0  0  0  0  0
   55.7880   29.0820   42.0180 H   0  0  0  0  0  0  0  0  0  0  0  0
   57.4408   27.3018   44.3511 H   0  0  0  0  0  0  0  0  0  0  0  0
   59.6279   26.5090   45.2402 H   0  0  0  0  0  0  0  0  0  0  0  0
   61.2585   28.1382   46.1881 H   0  0  0  0  0  0  0  0  0  0  0  0
   60.6916   30.5620   46.2832 H   0  0  0  0  0  0  0  0  0  0  0  0
   58.1175   31.9514   47.6750 H   0  0  0  0  0  0  0  0  0  0  0  0
   57.7616   34.5089   47.3184 H   0  0  0  0  0  0  0  0  0  0  0  0
   58.0087   35.2414   44.8000 H   0  0  0  0  0  0  0  0  0  0  0  0
  1  2  1  0
  2  3  2  0
  2  4  2  0
  2  5  1  0
  5  6  2  0
  6  7  1  0
  7  8  2  0
  8  9  1  0
  9 10  2  0
 10 11  1  0
 11 12  2  0
 12 13  1  0
 13 14  2  0
 14 15  1  0
 10  5  1  0
 15 11  1  0
  1 16  1  0
  1 17  1  0
  6 18  1  0
  7 19  1  0
  8 20  1  0
  9 21  1  0
 12 22  1  0
 13 23  1  0
 14 24  1  0
M  END
>  <UniqueID>  (4) 
4

>  <SMILES>  (4) 
NS(=O)(=O)c1ccccc1-c1cccs1

>  <Energy>  (4) 
56.64575388067905

>  <Genealogy>  (4) 
NS(=O)(=O)c1ccccc1-c1cccs1 (3D coordinates assigned)
NS(=O)(=O)c1ccccc1-c1cccs1 (optimized conformer: 56.64575388067905 kcal/mol)

>  <smiles>  (4) 
NS(=O)(=O)c1ccccc1-c1cccs1

>  <score_type>  (4) 
oracle

>  <origin>  (4) 
adg

>  <m_score__min__energy>  (4) 
-7.4299999999999997

>  <m_primary>  (4) 
energy

$$$$
4:0
     RDKit          3D

 56 60  0  0  0  0  0  0  0  0999 V2000
   58.9230   25.7240   47.1460 O   0  0  0  0  0  0  0  0  0  0  0  0
   58.2760   26.7890   46.9780 C   0  0  0  0  0  0  0  0  0  0  0  0
   56.9400   26.7610   46.4340 N   0  0  0  0  0  0  0  0  0  0  0  0
   56.2760   25.6540   46.6210 C   0  0  0  0  0  0  0  0  0  0  0  0
   55.1650   25.2590   45.9580 N   0  0  0  0  0  0  0  0  0  0  0  0
   54.7980   24.0830   46.4400 N   0  0  0  0  0  0  0  0  0  0  0  0
   55.6480   23.7230   47.3910 N   0  0  0  0  0  0  0  0  0  0  0  0
   56.5710   24.6840   47.5180 N   0  0  0  0  0  0  0  0  0  0  0  0
   58.7970   28.1070   47.3050 C   0  0  0  0  0  0  0  0  0  0  0  0
   59.2470   28.3240   48.5850 C   0  0  0  0  0  0  0  0  0  0  0  0
   59.7600   29.5670   48.9550 C   0  0  0  0  0  0  0  0  0  0  0  0
   59.8500   30.6340   48.0960 C   0  0  0  0  0  0  0  0  0  0  0  0
   60.2960   31.9280   48.4350 N   0  0  0  0  0  0  0  0  0  0  0  0
   59.2490   32.9380   48.6260 C   0  0  0  0  0  0  0  0  0  0  0  0
   58.7150   33.4360   47.3380 C   0  0  0  0  0  0  0  0  0  0  0  0
   57.4660   33.1200   46.8500 C   0  0  0  0  0  0  0  0  0  0  0  0
   57.0210   33.6230   45.6210 C   0  0  0  0  0  0  0  0  0  0  0  0
   57.8440   34.4560   44.8700 C   0  0  0  0  0  0  0  0  0  0  0  0
   59.1050   34.7740   45.3640 C   0  0  0  0  0  0  0  0  0  0  0  0
   59.5070   34.2520   46.5900 C   0  0  0  0  0  0  0  0  0  0  0  0
   60.7660   34.6250   46.9850 F   0  0  0  0  0  0  0  0  0  0  0  0
   61.6230   32.3800   48.5720 C   0  0  0  0  0  0  0  0  0  0  0  0
   62.5150   32.2970   47.5120 C   0  0  0  0  0  0  0  0  0  0  0  0
   63.7940   32.8240   47.5630 C   0  0  0  0  0  0  0  0  0  0  0  0
   64.2610   33.4680   48.6800 C   0  0  0  0  0  0  0  0  0  0  0  0
   63.4010   33.5660   49.7470 C   0  0  0  0  0  0  0  0  0  0  0  0
   63.8170   34.2160   50.9290 O   0  0  0  0  0  0  0  0  0  0  0  0
   62.1060   33.0360   49.6990 C   0  0  0  0  0  0  0  0  0  0  0  0
   59.3860   30.3820   46.7950 C   0  0  0  0  0  0  0  0  0  0  0  0
   58.8770   29.1530   46.4230 C   0  0  0  0  0  0  0  0  0  0  0  0
   58.4120   28.9450   45.0900 N   0  0  0  0  0  0  0  0  0  0  0  0
   59.0550   28.0670   44.1060 C   0  0  0  0  0  0  0  0  0  0  0  0
   57.8110   27.6060   43.3430 C   0  0  0  0  0  0  0  0  0  0  0  0
   57.0990   28.8230   43.2290 O   0  0  0  0  0  0  0  0  0  0  0  0
   57.2820   29.5020   44.4290 C   0  0  0  0  0  0  0  0  0  0  0  0
   56.6080   30.4430   44.9000 O   0  0  0  0  0  0  0  0  0  0  0  0
   55.6170   22.8370   47.9590 H   0  0  0  0  0  0  0  0  0  0  0  0
   57.3770   24.7000   48.1800 H   0  0  0  0  0  0  0  0  0  0  0  0
   59.2023   27.5105   49.3241 H   0  0  0  0  0  0  0  0  0  0  0  0
   60.1108   29.6993   49.9891 H   0  0  0  0  0  0  0  0  0  0  0  0
   58.4256   32.4910   49.2024 H   0  0  0  0  0  0  0  0  0  0  0  0
   59.6935   33.7902   49.1610 H   0  0  0  0  0  0  0  0  0  0  0  0
   56.8073   32.4617   47.4354 H   0  0  0  0  0  0  0  0  0  0  0  0
   56.0199   33.3592   45.2493 H   0  0  0  0  0  0  0  0  0  0  0  0
   57.5039   34.8559   43.9033 H   0  0  0  0  0  0  0  0  0  0  0  0
   59.7769   35.4307   44.7920 H   0  0  0  0  0  0  0  0  0  0  0  0
   62.1914   31.7902   46.5909 H   0  0  0  0  0  0  0  0  0  0  0  0
   64.4514   32.7238   46.6867 H   0  0  0  0  0  0  0  0  0  0  0  0
   65.2774   33.8868   48.7199 H   0  0  0  0  0  0  0  0  0  0  0  0
   63.2660   34.9460   51.3320 H   0  0  0  0  0  0  0  0  0  0  0  0
   61.4523   33.1415   50.5774 H   0  0  0  0  0  0  0  0  0  0  0  0
   59.4292   31.1887   46.0485 H   0  0  0  0  0  0  0  0  0  0  0  0
   59.7551   28.6161   43.4592 H   0  0  0  0  0  0  0  0  0  0  0  0
   59.6761   27.2622   44.5262 H   0  0  0  0  0  0  0  0  0  0  0  0
   58.0711   27.1960   42.3560 H   0  0  0  0  0  0  0  0  0  0  0  0
   57.2510   26.7969   43.8347 H   0  0  0  0  0  0  0  0  0  0  0  0
  1  2  2  0
  2  3  1  0
  3  4  2  3
  4  5  1  0
  5  6  2  0
  6  7  1  0
  7  8  1  0
  2  9  1  0
  9 10  2  0
 10 11  1  0
 11 12  2  0
 12 13  1  0
 13 14  1  0
 14 15  1  0
 15 16  2  0
 16 17  1  0
 17 18  2  0
 18 19  1  0
 19 20  2  0
 20 21  1  0
 13 22  1  0
 22 23  2  0
 23 24  1  0
 24 25  2  0
 25 26  1  0
 26 27  1  0
 26 28  2  0
 12 29  1  0
 29 30  2  0
 30 31  1  0
 31 32  1  0
 32 33  1  0
 33 34  1  0
 34 35  1  0
 35 36  2  0
  8  4  1  0
 30  9  1  0
 35 31  1  0
 20 15  1  0
 28 22  1  0
  7 37  1  0
  8 38  1  0
 10 39  1  0
 11 40  1  0
 14 41  1  0
 14 42  1  0
 16 43  1  0
 17 44  1  0
 18 45  1  0
 19 46  1  0
 23 47  1  0
 24 48  1  0
 25 49  1  0
 27 50  1  0
 28 51  1  0
 29 52  1  0
 32 53  1  0
 32 54  1  0
 33 55  1  0
 33 56  1  0
M  END
>  <smiles>  (5) 
O=C(N=c1nn[nH][nH]1)c1ccc(N(Cc2ccccc2F)c2cccc(O)c2)cc1N1CCOC1=O

>  <score_type>  (5) 
oracle

>  <origin>  (5) 
adg

>  <m_score__min__energy>  (5) 
-10.4

>  <m_primary>  (5) 
energy

$$$$
5:0
     RDKit          3D

 66 69  0  0  0  0  0  0  0  0999 V2000
   61.0480   27.6180   50.8290 C   0  0  0  0  0  0  0  0  0  0  0  0
   59.9930   28.3750   50.2460 O   0  0  0  0  0  0  0  0  0  0  0  0
   60.1160   29.7010   49.7960 C   0  0  0  0  0  0  0  0  0  0  0  0
   61.1830   30.1090   48.9770 C   0  0  0  0  0  0  0  0  0  0  0  0
   61.2920   31.4400   48.5400 C   0  0  0  0  0  0  0  0  0  0  0  0
   62.4760   31.8370   47.6940 C   0  0  0  0  0  0  0  0  0  0  0  0
   60.2910   32.3720   48.8970 C   0  0  0  0  0  0  0  0  0  0  0  0
   60.3370   34.0580   48.3460 S   0  0  0  0  0  0  0  0  0  0  0  0
   61.7480   34.5770   48.3580 O   0  0  0  0  0  0  0  0  0  0  0  0
   59.5000   34.9030   49.2650 O   0  0  0  0  0  0  0  0  0  0  0  0
   59.6970   34.2010   46.7360 N   0  0  0  0  0  0  0  0  0  0  0  0
   58.9940   33.1410   46.0640 C   0  0  0  0  0  0  0  0  0  0  0  0
   59.5760   31.8670   45.9960 C   0  0  0  0  0  0  0  0  0  0  0  0
   58.8840   30.8010   45.4120 C   0  0  0  0  0  0  0  0  0  0  0  0
   57.6010   30.9990   44.8850 C   0  0  0  0  0  0  0  0  0  0  0  0
   56.8020   29.8630   44.4020 C   0  0  0  0  0  0  0  0  0  0  0  0
   55.7220   29.5860   44.9880 O   0  0  0  0  0  0  0  0  0  0  0  0
   57.2360   29.0360   43.3550 O   0  0  0  0  0  0  0  0  0  0  0  0
   57.7750   27.7180   43.5100 C   0  0  0  0  0  0  0  0  0  0  0  0
   58.4880   27.5320   44.8380 C   0  0  0  0  0  0  0  0  0  0  0  0
   59.8000   28.0290   44.9620 C   0  0  0  0  0  0  0  0  0  0  0  0
   60.4740   27.9740   46.1830 C   0  0  0  0  0  0  0  0  0  0  0  0
   59.8560   27.4120   47.2950 C   0  0  0  0  0  0  0  0  0  0  0  0
   58.5650   26.8940   47.1910 C   0  0  0  0  0  0  0  0  0  0  0  0
   57.8690   26.9320   45.9690 C   0  0  0  0  0  0  0  0  0  0  0  0
   56.5100   26.3480   45.9210 C   0  0  0  0  0  0  0  0  0  0  0  0
   55.5210   27.0780   45.6520 O   0  0  0  0  0  0  0  0  0  0  0  0
   56.3530   24.9320   46.1040 N   0  0  0  0  0  0  0  0  0  0  0  0
   56.6880   23.8720   45.1990 C   0  0  0  0  0  0  0  0  0  0  0  0
   57.7320   22.9590   45.4440 C   0  0  0  0  0  0  0  0  0  0  0  0
   58.0220   21.9560   44.5140 C   0  0  0  0  0  0  0  0  0  0  0  0
   57.2910   21.8710   43.3230 C   0  0  0  0  0  0  0  0  0  0  0  0
   56.2670   22.7850   43.0660 C   0  0  0  0  0  0  0  0  0  0  0  0
   55.9710   23.7830   43.9960 C   0  0  0  0  0  0  0  0  0  0  0  0
   57.0440   32.2830   44.8880 C   0  0  0  0  0  0  0  0  0  0  0  0
   57.7320   33.3470   45.4800 C   0  0  0  0  0  0  0  0  0  0  0  0
   59.2300   31.9590   49.7140 C   0  0  0  0  0  0  0  0  0  0  0  0
   59.1440   30.6390   50.1770 C   0  0  0  0  0  0  0  0  0  0  0  0
   57.9780   30.2210   51.0260 C   0  0  0  0  0  0  0  0  0  0  0  0
   60.9746   27.6706   51.9253 H   0  0  0  0  0  0  0  0  0  0  0  0
   60.9687   26.5694   50.5061 H   0  0  0  0  0  0  0  0  0  0  0  0
   62.0159   28.0289   50.5061 H   0  0  0  0  0  0  0  0  0  0  0  0
   61.9442   29.3752   48.6736 H   0  0  0  0  0  0  0  0  0  0  0  0
   63.3153   32.1184   48.3470 H   0  0  0  0  0  0  0  0  0  0  0  0
   62.7736   30.9895   47.0590 H   0  0  0  0  0  0  0  0  0  0  0  0
   62.2025   32.6926   47.0590 H   0  0  0  0  0  0  0  0  0  0  0  0
   59.9450   35.0650   46.2020 H   0  0  0  0  0  0  0  0  0  0  0  0
   60.5842   31.7048   46.4050 H   0  0  0  0  0  0  0  0  0  0  0  0
   59.3482   29.8048   45.3663 H   0  0  0  0  0  0  0  0  0  0  0  0
   56.9519   26.9909   43.4470 H   0  0  0  0  0  0  0  0  0  0  0  0
   58.5142   27.5637   42.7101 H   0  0  0  0  0  0  0  0  0  0  0  0
   60.3000   28.4662   44.0852 H   0  0  0  0  0  0  0  0  0  0  0  0
   61.4948   28.3755   46.2658 H   0  0  0  0  0  0  0  0  0  0  0  0
   60.3862   27.3759   48.2581 H   0  0  0  0  0  0  0  0  0  0  0  0
   58.0851   26.4502   48.0757 H   0  0  0  0  0  0  0  0  0  0  0  0
   58.3211   23.0352   46.3698 H   0  0  0  0  0  0  0  0  0  0  0  0
   58.8254   21.2329   44.7183 H   0  0  0  0  0  0  0  0  0  0  0  0
   57.5232   21.0845   42.5899 H   0  0  0  0  0  0  0  0  0  0  0  0
   55.6931   22.7185   42.1299 H   0  0  0  0  0  0  0  0  0  0  0  0
   55.1692   24.5056   43.7841 H   0  0  0  0  0  0  0  0  0  0  0  0
   56.0621   32.4558   44.4233 H   0  0  0  0  0  0  0  0  0  0  0  0
   57.2829   34.3511   45.4887 H   0  0  0  0  0  0  0  0  0  0  0  0
   58.4516   32.6830   49.9967 H   0  0  0  0  0  0  0  0  0  0  0  0
   58.2452   30.3168   52.0887 H   0  0  0  0  0  0  0  0  0  0  0  0
   57.1142   30.8655   50.8056 H   0  0  0  0  0  0  0  0  0  0  0  0
   57.7204   29.1745   50.8056 H   0  0  0  0  0  0  0  0  0  0  0  0
  1  2  1  0
  2  3  1  0
  3  4  2  0
  4  5  1  0
  5  6  1  0
  5  7  2  0
  7  8  1  0
  8  9  2  0
  8 10  2  0
  8 11  1  0
 11 12  1  0
 12 13  2  0
 13 14  1  0
 14 15  2  0
 15 16  1  0
 16 17  2  0
 16 18  1  0
 18 19  1  0
 19 20  1  0
 20 21  2  0
 21 22  1  0
 22 23  2  0
 23 24  1  0
 24 25  2  0
 25 26  1  0
 26 27  2  0
 26 28  1  0
 28 29  1  0
 29 30  2  0
 30 31  1  0
 31 32  2  0
 32 33  1  0
 33 34  2  0
 15 35  1  0
 35 36  2  0
  7 37  1  0
 37 38  2  0
 38 39  1  0
 38  3  1  0
 36 12  1  0
 25 20  1  0
 34 29  1  0
  1 40  1  0
  1 41  1  0
  1 42  1  0
  4 43  1  0
  6 44  1  0
  6 45  1  0
  6 46  1  0
 11 47  1  0
 13 48  1  0
 14 49  1  0
 19 50  1  0
 19 51  1  0
 21 52  1  0
 22 53  1  0
 23 54  1  0
 24 55  1  0
 30 56  1  0
 31 57  1  0
 32 58  1  0
 33 59  1  0
 34 60  1  0
 35 61  1  0
 36 62  1  0
 37 63  1  0
 39 64  1  0
 39 65  1  0
 39 66  1  0
M  CHG  1  28  -1
M  END
>  <UniqueID>  (6) 
5

>  <SMILES>  (6) 
COc1cc(C)c(S(=O)(=O)Nc2ccc(C(=O)OCc3ccccc3C(=O)[N-]c3ccccc3)cc2)cc1C

>  <Energy>  (6) 
85.76768867159142

>  <Genealogy>  (6) 
COc1cc(C)c(S(=O)(=O)Nc2ccc(C(=O)OCc3ccccc3C(=O)[N-]c3ccccc3)cc2)cc1C (protonated)
COc1cc(C)c(S(=O)(=O)Nc2ccc(C(=O)OCc3ccccc3C(=O)[N-]c3ccccc3)cc2)cc1C (3D coordinates assigned)
COc1cc(C)c(S(=O)(=O)Nc2ccc(C(=O)OCc3ccccc3C(=O)[N-]c3ccccc3)cc2)cc1C (optimized conformer: 85.76768867159142 kcal/mol)

>  <smiles>  (6) 
COc1cc(C)c(S(=O)(=O)Nc2ccc(C(=O)OCc3ccccc3C(=O)Nc3ccccc3)cc2)cc1C

>  <score_type>  (6) 
oracle

>  <origin>  (6) 
adg

>  <m_score__min__energy>  (6) 
-11.609999999999999

>  <m_primary>  (6) 
energy

$$$$
6:0
     RDKit          3D

 24 25  0  0  0  0  0  0  0  0999 V2000
   58.2113   25.7983   45.1118 H   0  0  0  0  0  0  0  0  0  0  0  0
   57.1720   25.5370   45.3600 C   0  0  0  0  0  0  0  0  0  0  0  0
   56.2810   26.5040   45.6270 C   0  0  0  0  0  0  0  0  0  0  0  0
   56.6580   27.9330   45.6530 C   0  0  0  0  0  0  0  0  0  0  0  0
   57.6520   28.2870   46.3400 O   0  0  0  0  0  0  0  0  0  0  0  0
   55.8990   28.9390   44.9670 N   0  0  0  0  0  0  0  0  0  0  0  0
   56.4010   29.9330   44.2960 C   0  0  0  0  0  0  0  0  0  0  0  0
   56.9030   31.0290   44.9060 N   0  0  0  0  0  0  0  0  0  0  0  0
   57.3990   31.9220   44.0090 C   0  0  0  0  0  0  0  0  0  0  0  0
   57.8351   32.8857   44.3109 H   0  0  0  0  0  0  0  0  0  0  0  0
   57.3120   31.5220   42.6800 C   0  0  0  0  0  0  0  0  0  0  0  0
   57.7120   32.3360   41.4960 C   0  0  0  0  0  0  0  0  0  0  0  0
   58.1734   33.2750   41.8356 H   0  0  0  0  0  0  0  0  0  0  0  0
   58.4349   31.7706   40.8896 H   0  0  0  0  0  0  0  0  0  0  0  0
   56.8227   32.5628   40.8896 H   0  0  0  0  0  0  0  0  0  0  0  0
   56.5640   30.0170   42.6160 S   0  0  0  0  0  0  0  0  0  0  0  0
   54.9460   26.1500   45.8700 O   0  0  0  0  0  0  0  0  0  0  0  0
   54.4540   24.8340   45.6050 C   0  0  0  0  0  0  0  0  0  0  0  0
   54.2025   24.7456   44.5378 H   0  0  0  0  0  0  0  0  0  0  0  0
   53.5552   24.6517   46.2124 H   0  0  0  0  0  0  0  0  0  0  0  0
   55.5240   23.8030   45.9620 C   0  0  0  0  0  0  0  0  0  0  0  0
   55.2337   22.8207   45.5611 H   0  0  0  0  0  0  0  0  0  0  0  0
   55.6202   23.7412   47.0560 H   0  0  0  0  0  0  0  0  0  0  0  0
   56.7760   24.1950   45.3980 O   0  0  0  0  0  0  0  0  0  0  0  0
  1  2  1  0
  2  3  2  0
  3  4  1  0
  4  5  2  0
  4  6  1  0
  6  7  2  0
  7  8  1  0
  8  9  1  0
  9 10  1  0
  9 11  2  0
 11 12  1  0
 12 13  1  0
 12 14  1  0
 12 15  1  0
 11 16  1  0
  3 17  1  0
 17 18  1  0
 18 19  1  0
 18 20  1  0
 18 21  1  0
 21 22  1  0
 21 23  1  0
 21 24  1  0
 24  2  1  0
 16  7  1  0
M  CHG  1   8  -1
M  END
>  <UniqueID>  (7) 
6

>  <SMILES>  (7) 
Cc1c[n-]/c(=N/C(=O)C2=COCCO2)s1

>  <Energy>  (7) 
60.216604389771945

>  <Genealogy>  (7) 
Cc1c[n-]c(=NC(=O)C2=COCCO2)s1 (protonated)
Cc1c[n-]/c(=N/C(=O)C2=COCCO2)s1 (cis-trans isomerization)
Cc1c[n-]/c(=N/C(=O)C2=COCCO2)s1 (3D coordinates assigned)
Cc1c[n-]/c(=N/C(=O)C2=COCCO2)s1 (nonaromatic ring conformer: 60.216604389771945 kcal/mol)

>  <smiles>  (7) 
Cc1c[nH]c(=NC(=O)C2=COCCO2)s1

>  <score_type>  (7) 
oracle

>  <origin>  (7) 
adg

>  <m_score__min__energy>  (7) 
-7.7599999999999998

>  <m_primary>  (7) 
energy

$$$$
7:0
     RDKit          3D

 44 45  0  0  0  0  0  0  0  0999 V2000
   62.2920   32.5030   50.0660 C   0  0  0  0  0  0  0  0  0  0  0  0
   62.9420   33.8120   49.6330 C   0  0  0  0  0  0  0  0  0  0  0  0
   63.3080   33.7620   48.2550 O   0  0  0  0  0  0  0  0  0  0  0  0
   62.3810   33.8310   47.2080 C   0  0  0  0  0  0  0  0  0  0  0  0
   62.7630   33.8010   46.0080 O   0  0  0  0  0  0  0  0  0  0  0  0
   60.9820   33.9030   47.4920 N   0  0  0  0  0  0  0  0  0  0  0  0
   59.9600   33.5720   46.5430 C   0  0  0  0  0  0  0  0  0  0  0  0
   59.6560   34.5110   45.5520 C   0  0  0  0  0  0  0  0  0  0  0  0
   58.7030   34.2280   44.5770 C   0  0  0  0  0  0  0  0  0  0  0  0
   58.0350   33.0050   44.5850 C   0  0  0  0  0  0  0  0  0  0  0  0
   58.2850   32.0610   45.5950 C   0  0  0  0  0  0  0  0  0  0  0  0
   57.6110   30.7890   45.5700 N   0  0  0  0  0  0  0  0  0  0  0  0
   58.2950   29.5330   45.4520 C   0  0  0  0  0  0  0  0  0  0  0  0
   59.5300   29.5060   45.1940 O   0  0  0  0  0  0  0  0  0  0  0  0
   57.5600   28.3090   45.6130 N   0  0  0  0  0  0  0  0  0  0  0  0
   58.1250   27.0050   45.3990 C   0  0  0  0  0  0  0  0  0  0  0  0
   59.2250   26.8840   44.7960 O   0  0  0  0  0  0  0  0  0  0  0  0
   57.4130   25.7900   45.8540 C   0  0  0  0  0  0  0  0  0  0  0  0
   56.0650   25.6620   46.1580 C   0  0  0  0  0  0  0  0  0  0  0  0
   55.1160   26.6750   46.0870 O   0  0  0  0  0  0  0  0  0  0  0  0
   55.7940   24.4420   46.5630 O   0  0  0  0  0  0  0  0  0  0  0  0
   56.9110   23.7550   46.5450 C   0  0  0  0  0  0  0  0  0  0  0  0
   57.0010   22.4210   46.9190 O   0  0  0  0  0  0  0  0  0  0  0  0
   57.9610   24.5400   46.1100 C   0  0  0  0  0  0  0  0  0  0  0  0
   59.3930   24.1230   45.9790 C   0  0  0  0  0  0  0  0  0  0  0  0
   59.2400   32.3500   46.6020 C   0  0  0  0  0  0  0  0  0  0  0  0
   59.4520   31.3750   47.7350 C   0  0  0  0  0  0  0  0  0  0  0  0
   62.2667   32.4520   51.1645 H   0  0  0  0  0  0  0  0  0  0  0  0
   61.2657   32.4556   49.6730 H   0  0  0  0  0  0  0  0  0  0  0  0
   62.8746   31.6567   49.6730 H   0  0  0  0  0  0  0  0  0  0  0  0
   62.2309   34.6368   49.7880 H   0  0  0  0  0  0  0  0  0  0  0  0
   63.8492   33.9720   50.2341 H   0  0  0  0  0  0  0  0  0  0  0  0
   60.1741   35.4813   45.5427 H   0  0  0  0  0  0  0  0  0  0  0  0
   58.4769   34.9716   43.7986 H   0  0  0  0  0  0  0  0  0  0  0  0
   57.3057   32.7768   43.7937 H   0  0  0  0  0  0  0  0  0  0  0  0
   56.5680   30.7770   45.5840 H   0  0  0  0  0  0  0  0  0  0  0  0
   56.5490   28.3830   45.8630 H   0  0  0  0  0  0  0  0  0  0  0  0
   54.3510   26.7090   46.7500 H   0  0  0  0  0  0  0  0  0  0  0  0
   59.8308   23.9955   46.9800 H   0  0  0  0  0  0  0  0  0  0  0  0
   59.4490   23.1712   45.4304 H   0  0  0  0  0  0  0  0  0  0  0  0
   59.9512   24.8959   45.4304 H   0  0  0  0  0  0  0  0  0  0  0  0
   59.3381   31.8987   48.6956 H   0  0  0  0  0  0  0  0  0  0  0  0
   58.7085   30.5671   47.6675 H   0  0  0  0  0  0  0  0  0  0  0  0
   60.4638   30.9488   47.6675 H   0  0  0  0  0  0  0  0  0  0  0  0
  1  2  1  0
  2  3  1  0
  3  4  1  0
  4  5  2  0
  4  6  1  0
  6  7  1  0
  7  8  2  0
  8  9  1  0
  9 10  2  0
 10 11  1  0
 11 12  1  0
 12 13  1  0
 13 14  2  0
 13 15  1  0
 15 16  1  0
 16 17  2  0
 16 18  1  0
 18 19  2  0
 19 20  1  0
 19 21  1  0
 21 22  1  0
 22 23  1  0
 22 24  2  0
 24 25  1  0
 11 26  2  0
 26 27  1  0
 26  7  1  0
 24 18  1  0
  1 28  1  0
  1 29  1  0
  1 30  1  0
  2 31  1  0
  2 32  1  0
  8 33  1  0
  9 34  1  0
 10 35  1  0
 12 36  1  0
 15 37  1  0
 20 38  1  0
 25 39  1  0
 25 40  1  0
 25 41  1  0
 27 42  1  0
 27 43  1  0
 27 44  1  0
M  CHG  2   6  -1  23  -1
M  END
>  <UniqueID>  (8) 
7

>  <SMILES>  (8) 
CCOC(=O)[N-]c1cccc(NC(=O)NC(=O)c2c(O)oc([O-])c2C)c1C

>  <Energy>  (8) 
80.07252868389924

>  <Genealogy>  (8) 
CCOC(=O)[N-]c1cccc(NC(=O)NC(=O)c2c(O)oc([O-])c2C)c1C (protonated)
CCOC(=O)[N-]c1cccc(NC(=O)NC(=O)c2c(O)oc([O-])c2C)c1C (3D coordinates assigned)
CCOC(=O)[N-]c1cccc(NC(=O)NC(=O)c2c(O)oc([O-])c2C)c1C (optimized conformer: 80.07252868389924 kcal/mol)

>  <smiles>  (8) 
CCOC(=O)Nc1cccc(NC(=O)NC(=O)c2c(O)oc(O)c2C)c1C

>  <score_type>  (8) 
oracle

>  <origin>  (8) 
adg

>  <m_score__min__energy>  (8) 
-10.869999999999999

>  <m_primary>  (8) 
energy

$$$$
8:0
     RDKit          3D

 31 33  0  0  0  0  0  0  0  0999 V2000
   55.1460   29.3310   44.8490 O   0  0  0  0  0  0  0  0  0  0  0  0
   56.3070   29.8050   44.7510 C   0  0  0  0  0  0  0  0  0  0  0  0
   57.4810   28.8710   44.6080 C   0  0  0  0  0  0  0  0  0  0  0  0
   58.0410   28.5340   45.9180 N   0  0  0  0  0  0  0  0  0  0  0  0
   57.7320   27.4840   46.7190 C   0  0  0  0  0  0  0  0  0  0  0  0
   56.8420   26.6360   46.4460 O   0  0  0  0  0  0  0  0  0  0  0  0
   58.4670   27.4360   47.8170 O   0  0  0  0  0  0  0  0  0  0  0  0
   59.2830   28.4610   47.7400 C   0  0  0  0  0  0  0  0  0  0  0  0
   60.2690   28.8570   48.6390 C   0  0  0  0  0  0  0  0  0  0  0  0
   61.0270   29.9980   48.3130 C   0  0  0  0  0  0  0  0  0  0  0  0
   60.7830   30.7040   47.1110 C   0  0  0  0  0  0  0  0  0  0  0  0
   59.7760   30.2760   46.2240 C   0  0  0  0  0  0  0  0  0  0  0  0
   59.0410   29.1450   46.5810 C   0  0  0  0  0  0  0  0  0  0  0  0
   56.4800   31.2260   44.8450 N   0  0  0  0  0  0  0  0  0  0  0  0
   57.5310   32.0000   44.1950 C   0  0  0  0  0  0  0  0  0  0  0  0
   58.1070   33.0080   45.1410 C   0  0  0  0  0  0  0  0  0  0  0  0
   58.9750   34.0390   44.8060 C   0  0  0  0  0  0  0  0  0  0  0  0
   59.3460   34.8230   45.9050 C   0  0  0  0  0  0  0  0  0  0  0  0
   58.7690   34.4160   47.1010 C   0  0  0  0  0  0  0  0  0  0  0  0
   57.7980   33.0770   46.7920 S   0  0  0  0  0  0  0  0  0  0  0  0
   57.1489   27.9482   44.1098 H   0  0  0  0  0  0  0  0  0  0  0  0
   58.2579   29.3708   44.0109 H   0  0  0  0  0  0  0  0  0  0  0  0
   60.4494   28.2992   49.5698 H   0  0  0  0  0  0  0  0  0  0  0  0
   61.8152   30.3434   48.9982 H   0  0  0  0  0  0  0  0  0  0  0  0
   61.3837   31.5928   46.8678 H   0  0  0  0  0  0  0  0  0  0  0  0
   59.5765   30.8132   45.2851 H   0  0  0  0  0  0  0  0  0  0  0  0
   58.3285   31.3189   43.8632 H   0  0  0  0  0  0  0  0  0  0  0  0
   57.0990   32.5297   43.3332 H   0  0  0  0  0  0  0  0  0  0  0  0
   59.3341   34.2210   43.7823 H   0  0  0  0  0  0  0  0  0  0  0  0
   60.0303   35.6808   45.8284 H   0  0  0  0  0  0  0  0  0  0  0  0
   58.9209   34.8884   48.0827 H   0  0  0  0  0  0  0  0  0  0  0  0
  1  2  2  0
  2  3  1  0
  3  4  1  0
  4  5  1  0
  5  6  2  0
  5  7  1  0
  7  8  1  0
  8  9  2  0
  9 10  1  0
 10 11  2  0
 11 12  1  0
 12 13  2  0
  2 14  1  0
 14 15  1  0
 15 16  1  0
 16 17  2  0
 17 18  1  0
 18 19  2  0
 19 20  1  0
 13  4  1  0
 20 16  1  0
 13  8  1  0
  3 21  1  0
  3 22  1  0
  9 23  1  0
 10 24  1  0
 11 25  1  0
 12 26  1  0
 15 27  1  0
 15 28  1  0
 17 29  1  0
 18 30  1  0
 19 31  1  0
M  CHG  1  14  -1
M  END
>  <UniqueID>  (9) 
8

>  <SMILES>  (9) 
O=C(Cn1c(=O)oc2ccccc21)[N-]Cc1cccs1

>  <Energy>  (9) 
97.03805116346179

>  <Genealogy>  (9) 
O=C(Cn1c(=O)oc2ccccc21)[N-]Cc1cccs1 (protonated)
O=C(Cn1c(=O)oc2ccccc21)[N-]Cc1cccs1 (3D coordinates assigned)
O=C(Cn1c(=O)oc2ccccc21)[N-]Cc1cccs1 (optimized conformer: 97.03805116346179 kcal/mol)

>  <smiles>  (9) 
O=C(Cn1c(=O)oc2ccccc21)NCc1cccs1

>  <score_type>  (9) 
oracle

>  <origin>  (9) 
adg

>  <m_score__min__energy>  (9) 
-8.7200000000000006

>  <m_primary>  (9) 
energy

$$$$
9:0
     RDKit          3D

 48 50  0  0  0  0  0  0  0  0999 V2000
   60.9030   33.4920   49.8490 C   0  0  0  0  0  0  0  0  0  0  0  0
   60.0860   33.4210   48.5910 C   0  0  0  0  0  0  0  0  0  0  0  0
   60.4500   34.1770   47.4670 C   0  0  0  0  0  0  0  0  0  0  0  0
   59.6740   34.1280   46.3030 C   0  0  0  0  0  0  0  0  0  0  0  0
   58.5220   33.3330   46.2560 C   0  0  0  0  0  0  0  0  0  0  0  0
   57.5710   33.2610   44.7710 S   0  0  0  0  0  0  0  0  0  0  0  0
   56.9010   34.5840   44.5120 O   0  0  0  0  0  0  0  0  0  0  0  0
   58.4980   32.9680   43.6250 O   0  0  0  0  0  0  0  0  0  0  0  0
   56.3640   32.0080   44.8750 N   0  0  0  0  0  0  0  0  0  0  0  0
   56.7070   30.8670   44.0200 C   0  0  0  0  0  0  0  0  0  0  0  0
   56.6780   29.5760   44.7930 C   0  0  0  0  0  0  0  0  0  0  0  0
   55.5750   28.9620   44.8820 O   0  0  0  0  0  0  0  0  0  0  0  0
   57.8540   29.0250   45.4360 N   0  0  0  0  0  0  0  0  0  0  0  0
   57.7180   27.7510   46.1700 C   0  0  0  0  0  0  0  0  0  0  0  0
   59.0520   27.2920   46.7620 C   0  0  0  0  0  0  0  0  0  0  0  0
   59.7070   28.4250   47.4260 N   0  0  0  0  0  0  0  0  0  0  0  0
   60.0990   28.3470   48.8160 C   0  0  0  0  0  0  0  0  0  0  0  0
   60.7250   27.1920   49.3140 C   0  0  0  0  0  0  0  0  0  0  0  0
   61.1300   27.1450   50.6510 C   0  0  0  0  0  0  0  0  0  0  0  0
   60.9060   28.2400   51.4840 C   0  0  0  0  0  0  0  0  0  0  0  0
   60.2670   29.3700   50.9670 C   0  0  0  0  0  0  0  0  0  0  0  0
   59.8850   29.4060   49.6580 N   0  0  0  0  0  0  0  0  0  0  0  0
   59.8890   29.6820   46.6800 C   0  0  0  0  0  0  0  0  0  0  0  0
   59.1870   29.6420   45.3120 C   0  0  0  0  0  0  0  0  0  0  0  0
   58.1470   32.5880   47.3810 C   0  0  0  0  0  0  0  0  0  0  0  0
   58.9210   32.6350   48.5460 C   0  0  0  0  0  0  0  0  0  0  0  0
   58.5290   31.9210   49.6360 F   0  0  0  0  0  0  0  0  0  0  0  0
   60.2370   33.4341   50.7225 H   0  0  0  0  0  0  0  0  0  0  0  0
   61.6130   32.6522   49.8730 H   0  0  0  0  0  0  0  0  0  0  0  0
   61.4575   34.4417   49.8730 H   0  0  0  0  0  0  0  0  0  0  0  0
   61.3485   34.8107   47.5003 H   0  0  0  0  0  0  0  0  0  0  0  0
   59.9702   34.7162   45.4219 H   0  0  0  0  0  0  0  0  0  0  0  0
   55.9821   30.8069   43.1949 H   0  0  0  0  0  0  0  0  0  0  0  0
   57.7257   31.0171   43.6330 H   0  0  0  0  0  0  0  0  0  0  0  0
   56.9935   27.8860   46.9866 H   0  0  0  0  0  0  0  0  0  0  0  0
   57.3756   26.9826   45.4613 H   0  0  0  0  0  0  0  0  0  0  0  0
   58.8722   26.4914   47.4946 H   0  0  0  0  0  0  0  0  0  0  0  0
   59.6998   26.9134   45.9576 H   0  0  0  0  0  0  0  0  0  0  0  0
   60.8957   26.3283   48.6545 H   0  0  0  0  0  0  0  0  0  0  0  0
   61.6248   26.2452   51.0453 H   0  0  0  0  0  0  0  0  0  0  0  0
   61.2283   28.2148   52.5354 H   0  0  0  0  0  0  0  0  0  0  0  0
   60.0711   30.2344   51.6185 H   0  0  0  0  0  0  0  0  0  0  0  0
   59.4380   30.2820   49.3030 H   0  0  0  0  0  0  0  0  0  0  0  0
   59.4705   30.5102   47.2707 H   0  0  0  0  0  0  0  0  0  0  0  0
   60.9661   29.8238   46.5072 H   0  0  0  0  0  0  0  0  0  0  0  0
   59.0774   30.6680   44.9308 H   0  0  0  0  0  0  0  0  0  0  0  0
   59.7940   29.0432   44.6170 H   0  0  0  0  0  0  0  0  0  0  0  0
   57.2416   31.9642   47.3488 H   0  0  0  0  0  0  0  0  0  0  0  0
  1  2  1  0
  2  3  2  0
  3  4  1  0
  4  5  2  0
  5  6  1  0
  6  7  2  0
  6  8  2  0
  6  9  1  0
  9 10  1  0
 10 11  1  0
 11 12  2  0
 11 13  1  0
 13 14  1  0
 14 15  1  0
 15 16  1  0
 16 17  1  0
 17 18  2  0
 18 19  1  0
 19 20  2  0
 20 21  1  0
 21 22  2  0
 16 23  1  0
 23 24  1  0
  5 25  1  0
 25 26  2  0
 26 27  1  0
 26  2  1  0
 24 13  1  0
 22 17  1  0
  1 28  1  0
  1 29  1  0
  1 30  1  0
  3 31  1  0
  4 32  1  0
 10 33  1  0
 10 34  1  0
 14 35  1  0
 14 36  1  0
 15 37  1  0
 15 38  1  0
 18 39  1  0
 19 40  1  0
 20 41  1  0
 21 42  1  0
 22 43  1  0
 23 44  1  0
 23 45  1  0
 24 46  1  0
 24 47  1  0
 25 48  1  0
M  CHG  2   9  -1  22   1
M  END
>  <UniqueID>  (10) 
9

>  <SMILES>  (10) 
Cc1ccc(S(=O)(=O)[N-]CC(=O)N2CCN(c3cccc[nH+]3)CC2)cc1F

>  <Energy>  (10) 
53.35034570047855

>  <Genealogy>  (10) 
Cc1ccc(S(=O)(=O)[N-]CC(=O)N2CCN(c3cccc[nH+]3)CC2)cc1F (protonated)
Cc1ccc(S(=O)(=O)[N-]CC(=O)N2CCN(c3cccc[nH+]3)CC2)cc1F (3D coordinates assigned)
Cc1ccc(S(=O)(=O)[N-]CC(=O)N2CCN(c3cccc[nH+]3)CC2)cc1F (nonaromatic ring conformer: 53.35034570047855 kcal/mol)

>  <smiles>  (10) 
Cc1ccc(S(=O)(=O)NCC(=O)N2CCN(c3ccccn3)CC2)cc1F

>  <score_type>  (10) 
oracle

>  <origin>  (10) 
adg

>  <m_score__min__energy>  (10) 
-9.0399999999999991

>  <m_primary>  (10) 
energy

$$$$
10:0
     RDKit          3D

 51 54  0  0  0  0  0  0  0  0999 V2000
   69.1650   34.5510   50.2880 C   0  0  0  0  0  0  0  0  0  0  0  0
   68.6580   33.2840   50.9780 C   0  0  0  0  0  0  0  0  0  0  0  0
   67.3140   32.9080   50.4890 N   0  0  0  0  0  0  0  0  0  0  0  0
   67.0330   31.4650   50.7080 C   0  0  0  0  0  0  0  0  0  0  0  0
   65.5330   31.1290   50.8590 C   0  0  0  0  0  0  0  0  0  0  0  0
   64.6800   32.1210   50.1900 N   0  0  0  0  0  0  0  0  0  0  0  0
   63.4270   31.7180   49.6000 C   0  0  0  0  0  0  0  0  0  0  0  0
   62.5340   30.9000   50.3120 C   0  0  0  0  0  0  0  0  0  0  0  0
   61.3220   30.5060   49.7380 C   0  0  0  0  0  0  0  0  0  0  0  0
   60.9720   30.9320   48.4500 C   0  0  0  0  0  0  0  0  0  0  0  0
   59.7300   30.4910   47.8750 N   0  0  0  0  0  0  0  0  0  0  0  0
   59.6270   29.7900   46.6250 C   0  0  0  0  0  0  0  0  0  0  0  0
   60.6240   29.7080   45.8560 O   0  0  0  0  0  0  0  0  0  0  0  0
   58.3310   29.2180   46.1930 C   0  0  0  0  0  0  0  0  0  0  0  0
   57.4350   30.0430   45.4980 C   0  0  0  0  0  0  0  0  0  0  0  0
   56.2240   29.5260   45.0330 C   0  0  0  0  0  0  0  0  0  0  0  0
   55.4240   30.2630   44.4010 O   0  0  0  0  0  0  0  0  0  0  0  0
   55.9110   28.2240   45.2530 N   0  0  0  0  0  0  0  0  0  0  0  0
   56.7420   27.3880   45.9290 C   0  0  0  0  0  0  0  0  0  0  0  0
   56.3600   26.0580   46.1380 C   0  0  0  0  0  0  0  0  0  0  0  0
   57.1920   25.1940   46.8520 C   0  0  0  0  0  0  0  0  0  0  0  0
   58.4040   25.6550   47.3670 C   0  0  0  0  0  0  0  0  0  0  0  0
   58.7980   26.9820   47.1650 C   0  0  0  0  0  0  0  0  0  0  0  0
   57.9800   27.8650   46.4290 C   0  0  0  0  0  0  0  0  0  0  0  0
   61.8730   31.7300   47.7250 C   0  0  0  0  0  0  0  0  0  0  0  0
   63.0860   32.1240   48.2980 C   0  0  0  0  0  0  0  0  0  0  0  0
   64.9650   33.5520   50.3610 C   0  0  0  0  0  0  0  0  0  0  0  0
   66.2850   33.7640   51.1000 C   0  0  0  0  0  0  0  0  0  0  0  0
   69.4604   35.2893   51.0481 H   0  0  0  0  0  0  0  0  0  0  0  0
   70.0335   34.3039   49.6598 H   0  0  0  0  0  0  0  0  0  0  0  0
   68.3658   34.9712   49.6598 H   0  0  0  0  0  0  0  0  0  0  0  0
   69.3574   32.4600   50.7734 H   0  0  0  0  0  0  0  0  0  0  0  0
   68.5927   33.4791   52.0586 H   0  0  0  0  0  0  0  0  0  0  0  0
   67.4281   30.9022   49.8494 H   0  0  0  0  0  0  0  0  0  0  0  0
   67.5164   31.1888   51.6567 H   0  0  0  0  0  0  0  0  0  0  0  0
   65.3435   30.1402   50.4158 H   0  0  0  0  0  0  0  0  0  0  0  0
   65.2880   31.1360   51.9313 H   0  0  0  0  0  0  0  0  0  0  0  0
   62.7904   30.5672   51.3286 H   0  0  0  0  0  0  0  0  0  0  0  0
   60.6372   29.8560   50.3023 H   0  0  0  0  0  0  0  0  0  0  0  0
   58.8480   30.7450   48.3750 H   0  0  0  0  0  0  0  0  0  0  0  0
   57.6864   31.0988   45.3189 H   0  0  0  0  0  0  0  0  0  0  0  0
   55.4023   25.6928   45.7389 H   0  0  0  0  0  0  0  0  0  0  0  0
   56.8915   24.1475   47.0089 H   0  0  0  0  0  0  0  0  0  0  0  0
   59.0528   24.9717   47.9346 H   0  0  0  0  0  0  0  0  0  0  0  0
   59.7510   27.3390   47.5824 H   0  0  0  0  0  0  0  0  0  0  0  0
   61.6228   32.0463   46.7016 H   0  0  0  0  0  0  0  0  0  0  0  0
   63.7795   32.7571   47.7251 H   0  0  0  0  0  0  0  0  0  0  0  0
   65.0270   34.0270   49.3708 H   0  0  0  0  0  0  0  0  0  0  0  0
   64.1554   34.0015   50.9547 H   0  0  0  0  0  0  0  0  0  0  0  0
   66.5873   34.8187   51.0214 H   0  0  0  0  0  0  0  0  0  0  0  0
   66.1646   33.5033   52.1618 H   0  0  0  0  0  0  0  0  0  0  0  0
  1  2  1  0
  2  3  1  0
  3  4  1  0
  4  5  1  0
  5  6  1  0
  6  7  1  0
  7  8  2  0
  8  9  1  0
  9 10  2  0
 10 11  1  0
 11 12  1  0
 12 13  2  0
 12 14  1  0
 14 15  2  0
 15 16  1  0
 16 17  2  0
 16 18  1  0
 18 19  1  0
 19 20  2  0
 20 21  1  0
 21 22  2  0
 22 23  1  0
 23 24  2  0
 10 25  1  0
 25 26  2  0
  6 27  1  0
 27 28  1  0
 28  3  1  0
 26  7  1  0
 24 14  1  0
 24 19  1  0
  1 29  1  0
  1 30  1  0
  1 31  1  0
  2 32  1  0
  2 33  1  0
  4 34  1  0
  4 35  1  0
  5 36  1  0
  5 37  1  0
  8 38  1  0
  9 39  1  0
 11 40  1  0
 15 41  1  0
 20 42  1  0
 21 43  1  0
 22 44  1  0
 23 45  1  0
 25 46  1  0
 26 47  1  0
 27 48  1  0
 27 49  1  0
 28 50  1  0
 28 51  1  0
M  CHG  1  18  -1
M  END
>  <UniqueID>  (11) 
10

>  <SMILES>  (11) 
CCN1CCN(c2ccc(NC(=O)c3cc(=O)[n-]c4ccccc34)cc2)CC1

>  <Energy>  (11) 
76.47160568312486

>  <Genealogy>  (11) 
CCN1CCN(c2ccc(NC(=O)c3cc(=O)[n-]c4ccccc34)cc2)CC1 (protonated)
CCN1CCN(c2ccc(NC(=O)c3cc(=O)[n-]c4ccccc34)cc2)CC1 (3D coordinates assigned)
CCN1CCN(c2ccc(NC(=O)c3cc(=O)[n-]c4ccccc34)cc2)CC1 (nonaromatic ring conformer: 76.47160568312486 kcal/mol)

>  <smiles>  (11) 
CCN1CCN(c2ccc(NC(=O)c3cc(=O)[nH]c4ccccc34)cc2)CC1

>  <score_type>  (11) 
oracle

>  <origin>  (11) 
adg

>  <m_score__min__energy>  (11) 
-9.8300000000000001

>  <m_primary>  (11) 
energy

$$$$
11:0
     RDKit          3D

 23 24  0  0  0  0  0  0  0  0999 V2000
   58.1260   32.4510   43.0700 C   0  0  0  0  0  0  0  0  0  0  0  0
   58.2880   32.8210   44.5200 C   0  0  0  0  0  0  0  0  0  0  0  0
   58.4010   34.1780   44.8700 C   0  0  0  0  0  0  0  0  0  0  0  0
   58.5640   34.5540   46.2040 C   0  0  0  0  0  0  0  0  0  0  0  0
   58.6050   33.5830   47.2050 C   0  0  0  0  0  0  0  0  0  0  0  0
   58.4740   32.2320   46.8750 C   0  0  0  0  0  0  0  0  0  0  0  0
   58.3020   31.8390   45.5380 C   0  0  0  0  0  0  0  0  0  0  0  0
   58.1410   30.4470   45.2230 N   0  0  0  0  0  0  0  0  0  0  0  0
   57.0300   29.8440   44.5690 C   0  0  0  0  0  0  0  0  0  0  0  0
   55.8860   30.3660   44.4960 O   0  0  0  0  0  0  0  0  0  0  0  0
   57.3980   28.5500   43.9980 C   0  0  0  0  0  0  0  0  0  0  0  0
   58.6890   28.3550   44.2400 C   0  0  0  0  0  0  0  0  0  0  0  0
   59.1880   29.5180   44.9700 C   0  0  0  0  0  0  0  0  0  0  0  0
   60.3930   29.7080   45.2820 O   0  0  0  0  0  0  0  0  0  0  0  0
   57.6858   31.4457   42.9951 H   0  0  0  0  0  0  0  0  0  0  0  0
   57.4641   33.1787   42.5776 H   0  0  0  0  0  0  0  0  0  0  0  0
   59.1096   32.4582   42.5776 H   0  0  0  0  0  0  0  0  0  0  0  0
   58.3606   34.9491   44.0865 H   0  0  0  0  0  0  0  0  0  0  0  0
   58.6603   35.6178   46.4667 H   0  0  0  0  0  0  0  0  0  0  0  0
   58.7406   33.8816   48.2550 H   0  0  0  0  0  0  0  0  0  0  0  0
   58.5058   31.4706   47.6682 H   0  0  0  0  0  0  0  0  0  0  0  0
   56.7265   27.8616   43.4640 H   0  0  0  0  0  0  0  0  0  0  0  0
   59.2779   27.4745   43.9436 H   0  0  0  0  0  0  0  0  0  0  0  0
  1  2  1  0
  2  3  2  0
  3  4  1  0
  4  5  2  0
  5  6  1  0
  6  7  2  0
  7  8  1  0
  8  9  1  0
  9 10  2  0
  9 11  1  0
 11 12  2  0
 12 13  1  0
 13 14  2  0
  7  2  1  0
 13  8  1  0
  1 15  1  0
  1 16  1  0
  1 17  1  0
  3 18  1  0
  4 19  1  0
  5 20  1  0
  6 21  1  0
 11 22  1  0
 12 23  1  0
M  END
>  <UniqueID>  (12) 
11

>  <SMILES>  (12) 
Cc1ccccc1N1C(=O)C=CC1=O

>  <Energy>  (12) 
55.46308680709327

>  <Genealogy>  (12) 
Cc1ccccc1N1C(=O)C=CC1=O (3D coordinates assigned)
Cc1ccccc1N1C(=O)C=CC1=O (nonaromatic ring conformer: 55.46308680709327 kcal/mol)

>  <smiles>  (12) 
Cc1ccccc1N1C(=O)C=CC1=O

>  <score_type>  (12) 
oracle

>  <origin>  (12) 
adg

>  <m_score__min__energy>  (12) 
-6.1399999999999997

>  <m_primary>  (12) 
energy

$$$$
12:0
     RDKit          3D

 45 48  0  0  0  0  0  0  0  0999 V2000
   60.0080   22.2070   44.7970 C   0  0  0  0  0  0  0  0  0  0  0  0
   58.7410   22.2220   45.4480 O   0  0  0  0  0  0  0  0  0  0  0  0
   57.5410   22.6570   44.8590 C   0  0  0  0  0  0  0  0  0  0  0  0
   57.2820   22.4420   43.4900 C   0  0  0  0  0  0  0  0  0  0  0  0
   56.0800   22.8610   42.9200 C   0  0  0  0  0  0  0  0  0  0  0  0
   55.1220   23.4980   43.7030 C   0  0  0  0  0  0  0  0  0  0  0  0
   55.3610   23.7220   45.0590 C   0  0  0  0  0  0  0  0  0  0  0  0
   56.5680   23.3110   45.6590 C   0  0  0  0  0  0  0  0  0  0  0  0
   56.8130   23.5710   47.1090 C   0  0  0  0  0  0  0  0  0  0  0  0
   57.1660   22.6240   47.8650 O   0  0  0  0  0  0  0  0  0  0  0  0
   56.6740   24.9420   47.7170 C   0  0  0  0  0  0  0  0  0  0  0  0
   57.1080   25.9820   46.7800 N   0  0  0  0  0  0  0  0  0  0  0  0
   56.3300   26.7810   46.0310 C   0  0  0  0  0  0  0  0  0  0  0  0
   54.9430   26.7160   45.9790 O   0  0  0  0  0  0  0  0  0  0  0  0
   57.1280   27.6770   45.3540 C   0  0  0  0  0  0  0  0  0  0  0  0
   56.6600   28.7850   44.4620 C   0  0  0  0  0  0  0  0  0  0  0  0
   57.2120   30.0910   44.9390 C   0  0  0  0  0  0  0  0  0  0  0  0
   57.0100   31.3200   44.3160 C   0  0  0  0  0  0  0  0  0  0  0  0
   57.7580   32.2140   45.0500 C   0  0  0  0  0  0  0  0  0  0  0  0
   57.9430   33.5870   44.8910 C   0  0  0  0  0  0  0  0  0  0  0  0
   58.7870   34.2440   45.8050 C   0  0  0  0  0  0  0  0  0  0  0  0
   59.4220   33.5220   46.8400 C   0  0  0  0  0  0  0  0  0  0  0  0
   59.2180   32.1350   46.9710 C   0  0  0  0  0  0  0  0  0  0  0  0
   58.3740   31.5130   46.0540 C   0  0  0  0  0  0  0  0  0  0  0  0
   58.0530   30.2100   45.9930 N   0  0  0  0  0  0  0  0  0  0  0  0
   58.4170   27.4810   45.7000 N   0  0  0  0  0  0  0  0  0  0  0  0
   58.3600   26.4470   46.5680 C   0  0  0  0  0  0  0  0  0  0  0  0
   59.3820   25.9790   47.1370 O   0  0  0  0  0  0  0  0  0  0  0  0
   60.8080   22.1975   45.5519 H   0  0  0  0  0  0  0  0  0  0  0  0
   60.0865   21.3079   44.1682 H   0  0  0  0  0  0  0  0  0  0  0  0
   60.1078   23.1040   44.1682 H   0  0  0  0  0  0  0  0  0  0  0  0
   58.0350   21.9390   42.8655 H   0  0  0  0  0  0  0  0  0  0  0  0
   55.8891   22.6878   41.8506 H   0  0  0  0  0  0  0  0  0  0  0  0
   54.1739   23.8257   43.2515 H   0  0  0  0  0  0  0  0  0  0  0  0
   54.5967   24.2265   45.6683 H   0  0  0  0  0  0  0  0  0  0  0  0
   55.6197   25.1130   47.9801 H   0  0  0  0  0  0  0  0  0  0  0  0
   57.3097   24.9924   48.6133 H   0  0  0  0  0  0  0  0  0  0  0  0
   57.0053   28.5966   43.4347 H   0  0  0  0  0  0  0  0  0  0  0  0
   55.5610   28.8271   44.4834 H   0  0  0  0  0  0  0  0  0  0  0  0
   56.3897   31.5305   43.4323 H   0  0  0  0  0  0  0  0  0  0  0  0
   57.4460   34.1376   44.0787 H   0  0  0  0  0  0  0  0  0  0  0  0
   58.9536   35.3274   45.7131 H   0  0  0  0  0  0  0  0  0  0  0  0
   60.0801   34.0468   47.5482 H   0  0  0  0  0  0  0  0  0  0  0  0
   59.7089   31.5616   47.7711 H   0  0  0  0  0  0  0  0  0  0  0  0
   58.3920   29.4470   46.6210 H   0  0  0  0  0  0  0  0  0  0  0  0
  1  2  1  0
  2  3  1  0
  3  4  2  0
  4  5  1  0
  5  6  2  0
  6  7  1  0
  7  8  2  0
  8  9  1  0
  9 10  2  0
  9 11  1  0
 11 12  1  0
 12 13  1  0
 13 14  1  0
 13 15  2  0
 15 16  1  0
 16 17  1  0
 17 18  2  0
 18 19  1  0
 19 20  2  0
 20 21  1  0
 21 22  2  0
 22 23  1  0
 23 24  2  0
 24 25  1  0
 15 26  1  0
 26 27  1  0
 27 28  2  0
  8  3  1  0
 27 12  1  0
 25 17  1  0
 24 19  1  0
  1 29  1  0
  1 30  1  0
  1 31  1  0
  4 32  1  0
  5 33  1  0
  6 34  1  0
  7 35  1  0
 11 36  1  0
 11 37  1  0
 16 38  1  0
 16 39  1  0
 18 40  1  0
 20 41  1  0
 21 42  1  0
 22 43  1  0
 23 44  1  0
 25 45  1  0
M  CHG  2  14  -1  26  -1
M  END
>  <UniqueID>  (13) 
12

>  <SMILES>  (13) 
COc1ccccc1C(=O)Cn1c([O-])c(Cc2cc3ccccc3[nH]2)[n-]c1=O

>  <Energy>  (13) 
114.24909170332681

>  <Genealogy>  (13) 
COc1ccccc1C(=O)Cn1c([O-])c(Cc2cc3ccccc3[nH]2)[n-]c1=O (protonated)
COc1ccccc1C(=O)Cn1c([O-])c(Cc2cc3ccccc3[nH]2)[n-]c1=O (3D coordinates assigned)
COc1ccccc1C(=O)Cn1c([O-])c(Cc2cc3ccccc3[nH]2)[n-]c1=O (optimized conformer: 114.24909170332681 kcal/mol)

>  <smiles>  (13) 
COc1ccccc1C(=O)Cn1c(O)c(Cc2cc3ccccc3[nH]2)[nH]c1=O

>  <score_type>  (13) 
oracle

>  <origin>  (13) 
adg

>  <m_score__min__energy>  (13) 
-14.220000000000001

>  <m_primary>  (13) 
energy

$$$$
13:0
     RDKit          3D

 29 30  0  0  0  0  0  0  0  0999 V2000
   61.4680   33.0840   49.9480 C   0  0  0  0  0  0  0  0  0  0  0  0
   60.6690   33.1550   48.6740 C   0  0  0  0  0  0  0  0  0  0  0  0
   59.2670   33.0660   48.7450 C   0  0  0  0  0  0  0  0  0  0  0  0
   58.4910   33.1340   47.5880 C   0  0  0  0  0  0  0  0  0  0  0  0
   59.1020   33.2930   46.3440 C   0  0  0  0  0  0  0  0  0  0  0  0
   58.1020   33.3640   44.8570 S   0  0  0  0  0  0  0  0  0  0  0  0
   57.8250   31.5980   44.8600 C   0  0  0  0  0  0  0  0  0  0  0  0
   56.5560   31.1090   44.8610 N   0  0  0  0  0  0  0  0  0  0  0  0
   56.3250   29.7700   44.8730 C   0  0  0  0  0  0  0  0  0  0  0  0
   55.1430   29.3390   44.8740 O   0  0  0  0  0  0  0  0  0  0  0  0
   57.4000   28.8800   44.8820 C   0  0  0  0  0  0  0  0  0  0  0  0
   58.6940   29.4000   44.8780 C   0  0  0  0  0  0  0  0  0  0  0  0
   58.8830   30.7450   44.8670 N   0  0  0  0  0  0  0  0  0  0  0  0
   60.4920   33.4010   46.2570 C   0  0  0  0  0  0  0  0  0  0  0  0
   61.2890   33.3430   47.4130 C   0  0  0  0  0  0  0  0  0  0  0  0
   63.0470   33.4810   47.2480 S   0  0  0  0  0  0  0  0  0  0  0  0
   63.7790   31.9150   47.1740 N   0  0  0  0  0  0  0  0  0  0  0  0
   63.3850   34.2240   45.9850 O   0  0  0  0  0  0  0  0  0  0  0  0
   63.6030   34.2210   48.4310 O   0  0  0  0  0  0  0  0  0  0  0  0
   60.7884   33.1444   50.8109 H   0  0  0  0  0  0  0  0  0  0  0  0
   62.0202   32.1332   49.9820 H   0  0  0  0  0  0  0  0  0  0  0  0
   62.1792   33.9225   49.9820 H   0  0  0  0  0  0  0  0  0  0  0  0
   58.7779   32.9416   49.7224 H   0  0  0  0  0  0  0  0  0  0  0  0
   57.3955   33.0621   47.6565 H   0  0  0  0  0  0  0  0  0  0  0  0
   57.2305   27.7932   44.8920 H   0  0  0  0  0  0  0  0  0  0  0  0
   59.5602   28.7220   44.8837 H   0  0  0  0  0  0  0  0  0  0  0  0
   60.9675   33.5328   45.2738 H   0  0  0  0  0  0  0  0  0  0  0  0
   64.3650   31.8100   48.0330 H   0  0  0  0  0  0  0  0  0  0  0  0
   64.4360   31.9200   46.3620 H   0  0  0  0  0  0  0  0  0  0  0  0
  1  2  1  0
  2  3  2  0
  3  4  1  0
  4  5  2  0
  5  6  1  0
  6  7  1  0
  7  8  2  0
  8  9  1  0
  9 10  2  0
  9 11  1  0
 11 12  2  0
 12 13  1  0
  5 14  1  0
 14 15  2  0
 15 16  1  0
 16 17  1  0
 16 18  2  0
 16 19  2  0
 15  2  1  0
 13  7  1  0
  1 20  1  0
  1 21  1  0
  1 22  1  0
  3 23  1  0
  4 24  1  0
 11 25  1  0
 12 26  1  0
 14 27  1  0
 17 28  1  0
 17 29  1  0
M  CHG  1  13  -1
M  END
>  <UniqueID>  (14) 
13

>  <SMILES>  (14) 
Cc1ccc(Sc2nc(=O)cc[n-]2)cc1S(N)(=O)=O

>  <Energy>  (14) 
26.62797361152097

>  <Genealogy>  (14) 
Cc1ccc(Sc2nc(=O)cc[n-]2)cc1S(N)(=O)=O (protonated)
Cc1ccc(Sc2nc(=O)cc[n-]2)cc1S(N)(=O)=O (3D coordinates assigned)
Cc1ccc(Sc2nc(=O)cc[n-]2)cc1S(N)(=O)=O (optimized conformer: 26.62797361152097 kcal/mol)

>  <smiles>  (14) 
Cc1ccc(Sc2nc(=O)cc[nH]2)cc1S(N)(=O)=O

>  <score_type>  (14) 
oracle

>  <origin>  (14) 
adg

>  <m_score__min__energy>  (14) 
-9.4800000000000004

>  <m_primary>  (14) 
energy

$$$$
14:0
     RDKit          3D

 54 56  0  0  0  0  0  0  0  0999 V2000
   55.8440   35.0990   45.6090 H   0  0  0  0  0  0  0  0  0  0  0  0
   56.4480   34.6650   44.9520 O   0  0  0  0  0  0  0  0  0  0  0  0
   57.7140   34.5920   45.5500 C   0  0  0  0  0  0  0  0  0  0  0  0
   57.7041   35.1590   46.4926 H   0  0  0  0  0  0  0  0  0  0  0  0
   58.4608   35.0182   44.8639 H   0  0  0  0  0  0  0  0  0  0  0  0
   58.0720   33.1520   45.8370 C   0  0  0  0  0  0  0  0  0  0  0  0
   59.1130   32.7450   46.7140 C   0  0  0  0  0  0  0  0  0  0  0  0
   60.0700   33.6850   47.4380 C   0  0  1  0  0  0  0  0  0  0  0  0
   59.5466   34.6267   47.6599 H   0  0  0  0  0  0  0  0  0  0  0  0
   60.4430   33.1560   48.8440 C   0  0  0  0  0  0  0  0  0  0  0  0
   59.5458   33.1797   49.4800 H   0  0  0  0  0  0  0  0  0  0  0  0
   60.8264   32.1317   48.7264 H   0  0  0  0  0  0  0  0  0  0  0  0
   61.5440   33.9950   49.5120 C   0  0  0  0  0  0  0  0  0  0  0  0
   61.5639   34.9881   49.0394 H   0  0  0  0  0  0  0  0  0  0  0  0
   61.3071   34.0566   50.5844 H   0  0  0  0  0  0  0  0  0  0  0  0
   62.9340   33.3650   49.3840 C   0  0  0  0  0  0  0  0  0  0  0  0
   63.5034   33.5487   50.3071 H   0  0  0  0  0  0  0  0  0  0  0  0
   62.8258   32.2825   49.2210 H   0  0  0  0  0  0  0  0  0  0  0  0
   63.6200   33.9290   48.2940 O   0  0  0  0  0  0  0  0  0  0  0  0
   62.8790   33.4720   46.8340 S   0  0  0  0  0  0  0  0  0  0  0  0
   63.7770   33.8820   45.7020 O   0  0  0  0  0  0  0  0  0  0  0  0
   62.7620   31.9740   46.8260 O   0  0  0  0  0  0  0  0  0  0  0  0
   61.2380   34.1620   46.5230 C   0  0  0  0  0  0  0  0  0  0  0  0
   61.3146   35.2542   46.6294 H   0  0  0  0  0  0  0  0  0  0  0  0
   60.9700   33.8039   45.5180 H   0  0  0  0  0  0  0  0  0  0  0  0
   59.2980   31.4140   46.9290 N   0  0  0  0  0  0  0  0  0  0  0  0
   58.5260   30.4420   46.3800 C   0  0  0  0  0  0  0  0  0  0  0  0
   58.8060   29.0270   46.7270 C   0  0  0  0  0  0  0  0  0  0  0  0
   59.9990   28.6480   46.8690 O   0  0  0  0  0  0  0  0  0  0  0  0
   57.7540   28.0830   46.9920 N   0  0  0  0  0  0  0  0  0  0  0  0
   57.4590   27.0370   46.2760 C   0  0  0  0  0  0  0  0  0  0  0  0
   56.3030   26.3460   46.3750 N   0  0  0  0  0  0  0  0  0  0  0  0
   56.2610   25.2980   45.5090 C   0  0  0  0  0  0  0  0  0  0  0  0
   55.0980   24.3880   45.4790 C   0  0  0  0  0  0  0  0  0  0  0  0
   55.2360   23.2350   44.9910 O   0  0  0  0  0  0  0  0  0  0  0  0
   53.8170   24.7800   45.9800 N   0  0  0  0  0  0  0  0  0  0  0  0
   53.0180   24.1090   45.9410 H   0  0  0  0  0  0  0  0  0  0  0  0
   53.6430   25.7250   46.3840 H   0  0  0  0  0  0  0  0  0  0  0  0
   57.3920   25.1700   44.6970 C   0  0  0  0  0  0  0  0  0  0  0  0
   57.5535   24.3959   43.9324 H   0  0  0  0  0  0  0  0  0  0  0  0
   58.4640   26.4070   45.0930 S   0  0  0  0  0  0  0  0  0  0  0  0
   57.4890   30.7980   45.5020 C   0  0  0  0  0  0  0  0  0  0  0  0
   56.6880   29.7920   44.9320 O   0  0  0  0  0  0  0  0  0  0  0  0
   56.7420   29.3540   43.5760 C   0  0  0  0  0  0  0  0  0  0  0  0
   55.7884   28.8734   43.3120 H   0  0  0  0  0  0  0  0  0  0  0  0
   57.5695   28.6378   43.4647 H   0  0  0  0  0  0  0  0  0  0  0  0
   56.9740   30.4930   42.6800 C   0  0  0  0  0  0  0  0  0  0  0  0
   57.1560   31.4300   41.9430 C   0  0  0  0  0  0  0  0  0  0  0  0
   57.3800   32.5660   41.0510 C   0  0  0  0  0  0  0  0  0  0  0  0
   57.5586   33.4719   41.6488 H   0  0  0  0  0  0  0  0  0  0  0  0
   58.2562   32.3667   40.4164 H   0  0  0  0  0  0  0  0  0  0  0  0
   56.4938   32.7143   40.4164 H   0  0  0  0  0  0  0  0  0  0  0  0
   57.2770   32.1620   45.2390 C   0  0  0  0  0  0  0  0  0  0  0  0
   56.4721   32.4597   44.5509 H   0  0  0  0  0  0  0  0  0  0  0  0
  1  2  1  0
  2  3  1  0
  3  4  1  0
  3  5  1  0
  3  6  1  0
  6  7  2  0
  7  8  1  0
  8  9  1  1
  8 10  1  0
 10 11  1  0
 10 12  1  0
 10 13  1  0
 13 14  1  0
 13 15  1  0
 13 16  1  0
 16 17  1  0
 16 18  1  0
 16 19  1  0
 19 20  1  0
 20 21  2  0
 20 22  2  0
 20 23  1  0
 23 24  1  0
 23 25  1  0
  7 26  1  0
 26 27  2  0
 27 28  1  0
 28 29  2  0
 28 30  1  0
 30 31  2  0
 31 32  1  0
 32 33  1  0
 33 34  1  0
 34 35  2  0
 34 36  1  0
 36 37  1  0
 36 38  1  0
 33 39  2  0
 39 40  1  0
 39 41  1  0
 27 42  1  0
 42 43  1  0
 43 44  1  0
 44 45  1  0
 44 46  1  0
 44 47  1  0
 47 48  3  0
 48 49  1  0
 49 50  1  0
 49 51  1  0
 49 52  1  0
 42 53  2  0
 53 54  1  0
 53  6  1  0
 23  8  1  0
 41 31  1  0
M  CHG  1  32  -1
M  END
>  <UniqueID>  (15) 
14

>  <SMILES>  (15) 
CC#CCOc1cc(CO)c([C@H]2CCCOS(=O)(=O)C2)nc1C(=O)/N=c1\[n-]c(C(N)=O)cs1

>  <Energy>  (15) 
98.05534483176693

>  <Genealogy>  (15) 
CC#CCOc1cc(CO)c(C2CCCOS(=O)(=O)C2)nc1C(=O)N=c1[n-]c(C(N)=O)cs1 (protonated)
CC#CCOc1cc(CO)c([C@H]2CCCOS(=O)(=O)C2)nc1C(=O)N=c1[n-]c(C(N)=O)cs1 (chirality)
CC#CCOc1cc(CO)c([C@H]2CCCOS(=O)(=O)C2)nc1C(=O)/N=c1\[n-]c(C(N)=O)cs1 (cis-trans isomerization)
CC#CCOc1cc(CO)c([C@H]2CCCOS(=O)(=O)C2)nc1C(=O)/N=c1\[n-]c(C(N)=O)cs1 (3D coordinates assigned)
CC#CCOc1cc(CO)c([C@H]2CCCOS(=O)(=O)C2)nc1C(=O)/N=c1\[n-]c(C(N)=O)cs1 (nonaromatic ring conformer: 98.05534483176693 kcal/mol)

>  <smiles>  (15) 
CC#CCOc1cc(CO)c(C2CCCOS(=O)(=O)C2)nc1C(=O)N=c1[nH]c(C(N)=O)cs1

>  <score_type>  (15) 
oracle

>  <origin>  (15) 
adg

>  <m_score__min__energy>  (15) 
-8.1500000000000004

>  <m_primary>  (15) 
energy

$$$$
15:0
     RDKit          3D

 41 43  0  0  0  0  0  0  0  0999 V2000
   55.4940   30.3470   44.5460 O   0  0  0  0  0  0  0  0  0  0  0  0
   56.7400   30.2300   44.6820 C   0  0  0  0  0  0  0  0  0  0  0  0
   57.3670   29.0110   44.2530 N   0  0  0  0  0  0  0  0  0  0  0  0
   58.2900   28.2320   45.0260 C   0  0  0  0  0  0  0  0  0  0  0  0
   59.6400   28.6010   45.0490 C   0  0  0  0  0  0  0  0  0  0  0  0
   60.5510   27.8880   45.8320 C   0  0  0  0  0  0  0  0  0  0  0  0
   60.1200   26.7980   46.5920 C   0  0  0  0  0  0  0  0  0  0  0  0
   58.7720   26.4050   46.5600 C   0  0  0  0  0  0  0  0  0  0  0  0
   58.3020   25.2870   47.3250 N   0  0  0  0  0  0  0  0  0  0  0  0
   57.0890   24.5690   47.0650 C   0  0  0  0  0  0  0  0  0  0  0  0
   56.2960   24.3480   48.0190 O   0  0  0  0  0  0  0  0  0  0  0  0
   56.8050   23.9930   45.7300 C   0  0  0  0  0  0  0  0  0  0  0  0
   57.8070   23.2190   45.1170 C   0  0  0  0  0  0  0  0  0  0  0  0
   57.5720   22.5840   43.8980 C   0  0  0  0  0  0  0  0  0  0  0  0
   56.3310   22.7040   43.2770 C   0  0  0  0  0  0  0  0  0  0  0  0
   55.3250   23.4730   43.8660 C   0  0  0  0  0  0  0  0  0  0  0  0
   55.5470   24.1380   45.0870 C   0  0  0  0  0  0  0  0  0  0  0  0
   54.4740   25.0130   45.6200 C   0  0  0  0  0  0  0  0  0  0  0  0
   53.2910   24.5880   45.7000 O   0  0  0  0  0  0  0  0  0  0  0  0
   54.7420   26.3250   45.9920 O   0  0  0  0  0  0  0  0  0  0  0  0
   57.8690   27.1040   45.7520 C   0  0  0  0  0  0  0  0  0  0  0  0
   57.5220   31.3610   45.2370 C   0  0  0  0  0  0  0  0  0  0  0  0
   58.3410   31.1950   46.3630 C   0  0  0  0  0  0  0  0  0  0  0  0
   59.0520   32.2770   46.8770 C   0  0  0  0  0  0  0  0  0  0  0  0
   58.9530   33.5230   46.2540 C   0  0  0  0  0  0  0  0  0  0  0  0
   59.5940   34.5040   46.7190 O   0  0  0  0  0  0  0  0  0  0  0  0
   58.1720   33.6770   45.1450 N   0  0  0  0  0  0  0  0  0  0  0  0
   58.0950   34.9170   44.5430 O   0  0  0  0  0  0  0  0  0  0  0  0
   57.4670   32.6270   44.6300 C   0  0  0  0  0  0  0  0  0  0  0  0
   59.9848   29.4556   44.4483 H   0  0  0  0  0  0  0  0  0  0  0  0
   61.6099   28.1854   45.8502 H   0  0  0  0  0  0  0  0  0  0  0  0
   60.8379   26.2464   47.2168 H   0  0  0  0  0  0  0  0  0  0  0  0
   58.7872   23.1135   45.6049 H   0  0  0  0  0  0  0  0  0  0  0  0
   58.3672   21.9879   43.4265 H   0  0  0  0  0  0  0  0  0  0  0  0
   56.1431   22.1924   42.3215 H   0  0  0  0  0  0  0  0  0  0  0  0
   54.3471   23.5602   43.3699 H   0  0  0  0  0  0  0  0  0  0  0  0
   56.8234   26.7691   45.6842 H   0  0  0  0  0  0  0  0  0  0  0  0
   58.4222   30.2079   46.8416 H   0  0  0  0  0  0  0  0  0  0  0  0
   59.6865   32.1510   47.7667 H   0  0  0  0  0  0  0  0  0  0  0  0
   58.6580   35.6970   44.8630 H   0  0  0  0  0  0  0  0  0  0  0  0
   56.8500   32.7737   43.7312 H   0  0  0  0  0  0  0  0  0  0  0  0
  1  2  2  0
  2  3  1  0
  3  4  1  0
  4  5  2  0
  5  6  1  0
  6  7  2  0
  7  8  1  0
  8  9  1  0
  9 10  1  0
 10 11  2  0
 10 12  1  0
 12 13  2  0
 13 14  1  0
 14 15  2  0
 15 16  1  0
 16 17  2  0
 17 18  1  0
 18 19  2  0
 18 20  1  0
  8 21  2  0
  2 22  1  0
 22 23  1  0
 23 24  2  0
 24 25  1  0
 25 26  2  0
 25 27  1  0
 27 28  1  0
 27 29  1  0
 21  4  1  0
 29 22  2  0
 17 12  1  0
  5 30  1  0
  6 31  1  0
  7 32  1  0
 13 33  1  0
 14 34  1  0
 15 35  1  0
 16 36  1  0
 21 37  1  0
 23 38  1  0
 24 39  1  0
 28 40  1  0
 29 41  1  0
M  CHG  3   3  -1   9  -1  20  -1
M  END
>  <UniqueID>  (16) 
15

>  <SMILES>  (16) 
O=C([N-]c1cccc([N-]C(=O)c2ccccc2C(=O)[O-])c1)c1ccc(=O)n(O)c1

>  <Energy>  (16) 
63.63195833920568

>  <Genealogy>  (16) 
O=C([N-]c1cccc([N-]C(=O)c2ccccc2C(=O)[O-])c1)c1ccc(=O)n(O)c1 (protonated)
O=C([N-]c1cccc([N-]C(=O)c2ccccc2C(=O)[O-])c1)c1ccc(=O)n(O)c1 (3D coordinates assigned)
O=C([N-]c1cccc([N-]C(=O)c2ccccc2C(=O)[O-])c1)c1ccc(=O)n(O)c1 (optimized conformer: 63.63195833920568 kcal/mol)

>  <smiles>  (16) 
O=C(Nc1cccc(NC(=O)c2ccccc2C(=O)O)c1)c1ccc(=O)n(O)c1

>  <score_type>  (16) 
oracle

>  <origin>  (16) 
adg

>  <m_score__min__energy>  (16) 
-13.779999999999999

>  <m_primary>  (16) 
energy

$$$$
16:0
     RDKit          3D

 56 59  0  0  0  0  0  0  0  0999 V2000
   56.1200   30.2370   44.5330 O   0  0  0  0  0  0  0  0  0  0  0  0
   57.1690   30.1680   43.8350 C   0  0  0  0  0  0  0  0  0  0  0  0
   58.1390   29.1410   44.0870 N   0  0  0  0  0  0  0  0  0  0  0  0
   58.1040   28.2940   45.2460 C   0  0  0  0  0  0  0  0  0  0  0  0
   57.2080   27.2150   45.2700 C   0  0  0  0  0  0  0  0  0  0  0  0
   57.1630   26.3500   46.3690 C   0  0  0  0  0  0  0  0  0  0  0  0
   56.0330   24.9940   46.3900 S   0  0  0  0  0  0  0  0  0  0  0  0
   54.6740   25.4790   45.9670 O   0  0  0  0  0  0  0  0  0  0  0  0
   55.9210   24.4660   47.7940 O   0  0  0  0  0  0  0  0  0  0  0  0
   56.5430   23.7060   45.3270 N   0  0  0  0  0  0  0  0  0  0  0  0
   56.1720   24.0060   43.9370 C   0  0  0  0  0  0  0  0  0  0  0  0
   56.6220   22.8560   43.0110 C   0  0  0  0  0  0  0  0  0  0  0  0
   57.3870   21.8830   43.7000 O   0  0  0  0  0  0  0  0  0  0  0  0
   58.4800   22.5050   44.3510 C   0  0  0  0  0  0  0  0  0  0  0  0
   57.9970   23.4970   45.4290 C   0  0  0  0  0  0  0  0  0  0  0  0
   58.0200   26.5660   47.4520 C   0  0  0  0  0  0  0  0  0  0  0  0
   58.9330   27.6200   47.4290 C   0  0  0  0  0  0  0  0  0  0  0  0
   59.0140   28.4720   46.3090 C   0  0  0  0  0  0  0  0  0  0  0  0
   59.9940   29.4730   46.2030 O   0  0  0  0  0  0  0  0  0  0  0  0
   60.7740   30.0020   47.2790 C   0  0  0  0  0  0  0  0  0  0  0  0
   59.9920   31.0620   48.0670 C   0  0  0  0  0  0  0  0  0  0  0  0
   59.4600   32.1560   47.1780 C   0  0  0  0  0  0  0  0  0  0  0  0
   60.2920   33.2190   46.7900 C   0  0  0  0  0  0  0  0  0  0  0  0
   59.8210   34.1970   45.9080 C   0  0  0  0  0  0  0  0  0  0  0  0
   58.5180   34.1200   45.4060 C   0  0  0  0  0  0  0  0  0  0  0  0
   57.6830   33.0680   45.7910 C   0  0  0  0  0  0  0  0  0  0  0  0
   58.1480   32.0910   46.6760 C   0  0  0  0  0  0  0  0  0  0  0  0
   57.3770   31.1260   42.7400 C   0  0  0  0  0  0  0  0  0  0  0  0
   58.4020   32.0480   42.6520 C   0  0  0  0  0  0  0  0  0  0  0  0
   58.1980   32.7180   41.4650 C   0  0  0  0  0  0  0  0  0  0  0  0
   57.0640   32.1650   40.9030 C   0  0  0  0  0  0  0  0  0  0  0  0
   56.5980   31.2190   41.6860 O   0  0  0  0  0  0  0  0  0  0  0  0
   58.8220   28.9100   43.3300 H   0  0  0  0  0  0  0  0  0  0  0  0
   56.5343   27.0472   44.4168 H   0  0  0  0  0  0  0  0  0  0  0  0
   55.0804   24.1231   43.8684 H   0  0  0  0  0  0  0  0  0  0  0  0
   56.6673   24.9369   43.6238 H   0  0  0  0  0  0  0  0  0  0  0  0
   55.7295   22.3711   42.5888 H   0  0  0  0  0  0  0  0  0  0  0  0
   57.2551   23.2863   42.2210 H   0  0  0  0  0  0  0  0  0  0  0  0
   59.1009   21.7320   44.8273 H   0  0  0  0  0  0  0  0  0  0  0  0
   59.0608   23.0618   43.6009 H   0  0  0  0  0  0  0  0  0  0  0  0
   58.2353   23.0936   46.4242 H   0  0  0  0  0  0  0  0  0  0  0  0
   58.5052   24.4607   45.2773 H   0  0  0  0  0  0  0  0  0  0  0  0
   57.9740   25.9011   48.3271 H   0  0  0  0  0  0  0  0  0  0  0  0
   59.5949   27.7877   48.2914 H   0  0  0  0  0  0  0  0  0  0  0  0
   61.0500   29.1820   47.9582 H   0  0  0  0  0  0  0  0  0  0  0  0
   61.6718   30.4764   46.8561 H   0  0  0  0  0  0  0  0  0  0  0  0
   59.1459   30.5742   48.5732 H   0  0  0  0  0  0  0  0  0  0  0  0
   60.6815   31.5210   48.7908 H   0  0  0  0  0  0  0  0  0  0  0  0
   61.3181   33.2826   47.1813 H   0  0  0  0  0  0  0  0  0  0  0  0
   60.4765   35.0281   45.6087 H   0  0  0  0  0  0  0  0  0  0  0  0
   58.1507   34.8872   44.7085 H   0  0  0  0  0  0  0  0  0  0  0  0
   56.6577   33.0085   45.3969 H   0  0  0  0  0  0  0  0  0  0  0  0
   57.4850   31.2680   46.9810 H   0  0  0  0  0  0  0  0  0  0  0  0
   59.2119   32.2130   43.3778 H   0  0  0  0  0  0  0  0  0  0  0  0
   58.8138   33.5291   41.0493 H   0  0  0  0  0  0  0  0  0  0  0  0
   56.6186   32.4706   39.9448 H   0  0  0  0  0  0  0  0  0  0  0  0
  1  2  2  0
  2  3  1  0
  3  4  1  0
  4  5  2  0
  5  6  1  0
  6  7  1  0
  7  8  2  0
  7  9  2  0
  7 10  1  0
 10 11  1  0
 11 12  1  0
 12 13  1  0
 13 14  1  0
 14 15  1  0
  6 16  2  0
 16 17  1  0
 17 18  2  0
 18 19  1  0
 19 20  1  0
 20 21  1  0
 21 22  1  0
 22 23  2  0
 23 24  1  0
 24 25  2  0
 25 26  1  0
 26 27  2  0
  2 28  1  0
 28 29  2  0
 29 30  1  0
 30 31  2  0
 31 32  1  0
 18  4  1  0
 27 22  1  0
 32 28  1  0
 15 10  1  0
  3 33  1  0
  5 34  1  0
 11 35  1  0
 11 36  1  0
 12 37  1  0
 12 38  1  0
 14 39  1  0
 14 40  1  0
 15 41  1  0
 15 42  1  0
 16 43  1  0
 17 44  1  0
 20 45  1  0
 20 46  1  0
 21 47  1  0
 21 48  1  0
 23 49  1  0
 24 50  1  0
 25 51  1  0
 26 52  1  0
 27 53  1  0
 29 54  1  0
 30 55  1  0
 31 56  1  0
M  END
>  <UniqueID>  (17) 
16

>  <SMILES>  (17) 
O=C(Nc1cc(S(=O)(=O)N2CCOCC2)ccc1OCCc1ccccc1)c1ccco1

>  <Energy>  (17) 
92.69969233302614

>  <Genealogy>  (17) 
O=C(Nc1cc(S(=O)(=O)N2CCOCC2)ccc1OCCc1ccccc1)c1ccco1 (3D coordinates assigned)
O=C(Nc1cc(S(=O)(=O)N2CCOCC2)ccc1OCCc1ccccc1)c1ccco1 (nonaromatic ring conformer: 92.69969233302614 kcal/mol)

>  <smiles>  (17) 
O=C(Nc1cc(S(=O)(=O)N2CCOCC2)ccc1OCCc1ccccc1)c1ccco1

>  <score_type>  (17) 
oracle

>  <origin>  (17) 
adg

>  <m_score__min__energy>  (17) 
-9.9800000000000004

>  <m_primary>  (17) 
energy

$$$$
17:0
     RDKit          3D

 36 37  0  0  1  0  0  0  0  0999 V2000
   56.7300   22.9830   46.0880 C   0  0  0  0  0  0  0  0  0  0  0  0
   56.2810   24.3480   46.5620 C   0  0  0  0  0  0  0  0  0  0  0  0
   55.1150   24.6750   46.3700 O   0  0  0  0  0  0  0  0  0  0  0  0
   57.2650   25.2650   47.2560 C   0  0  0  0  0  0  0  0  0  0  0  0
   57.2820   26.6060   46.6040 C   0  0  0  0  0  0  0  0  0  0  0  0
   58.0510   27.6730   46.7960 N   0  0  0  0  0  0  0  0  0  0  0  0
   57.6380   28.5780   45.9220 C   0  0  0  0  0  0  0  0  0  0  0  0
   58.0540   29.7520   45.7690 N   0  0  0  0  0  0  0  0  0  0  0  0
   57.3740   30.8380   45.1790 C   0  0  0  0  0  0  0  0  0  0  0  0
   56.3140   30.7370   44.5490 O   0  0  0  0  0  0  0  0  0  0  0  0
   58.0850   32.1470   45.3880 C   0  0  0  0  0  0  0  0  0  0  0  0
   58.1950   32.9700   44.2860 C   0  0  0  0  0  0  0  0  0  0  0  0
   58.8010   34.2180   44.4940 C   0  0  0  0  0  0  0  0  0  0  0  0
   59.2690   34.5920   45.7490 C   0  0  0  0  0  0  0  0  0  0  0  0
   59.8720   35.9210   45.9930 C   0  0  0  0  0  0  0  0  0  0  0  0
   59.1390   33.7310   46.8150 C   0  0  0  0  0  0  0  0  0  0  0  0
   59.6200   34.1260   48.1590 C   0  0  0  0  0  0  0  0  0  0  0  0
   58.5360   32.4840   46.6440 C   0  0  0  0  0  0  0  0  0  0  0  0
   56.6090   28.0900   45.1750 N   0  0  0  0  0  0  0  0  0  0  0  0
   56.3720   26.8530   45.5900 N   0  0  0  0  0  0  0  0  0  0  0  0
   56.9403   22.3436   46.9580 H   0  0  0  0  0  0  0  0  0  0  0  0
   55.9349   22.5259   45.4807 H   0  0  0  0  0  0  0  0  0  0  0  0
   57.6412   23.0872   45.4807 H   0  0  0  0  0  0  0  0  0  0  0  0
   56.9715   25.3791   48.3100 H   0  0  0  0  0  0  0  0  0  0  0  0
   58.2704   24.8241   47.1867 H   0  0  0  0  0  0  0  0  0  0  0  0
   57.8267   32.6635   43.2959 H   0  0  0  0  0  0  0  0  0  0  0  0
   58.9080   34.9137   43.6487 H   0  0  0  0  0  0  0  0  0  0  0  0
   59.9508   36.0946   47.0764 H   0  0  0  0  0  0  0  0  0  0  0  0
   60.8747   35.9571   45.5420 H   0  0  0  0  0  0  0  0  0  0  0  0
   59.2389   36.6993   45.5420 H   0  0  0  0  0  0  0  0  0  0  0  0
   59.0118   33.6265   48.9275 H   0  0  0  0  0  0  0  0  0  0  0  0
   60.6727   33.8283   48.2738 H   0  0  0  0  0  0  0  0  0  0  0  0
   59.5327   35.2165   48.2738 H   0  0  0  0  0  0  0  0  0  0  0  0
   58.4242   31.7896   47.4897 H   0  0  0  0  0  0  0  0  0  0  0  0
   56.0800   28.5820   44.4010 H   0  0  0  0  0  0  0  0  0  0  0  0
   55.6420   26.2110   45.2220 H   0  0  0  0  0  0  0  0  0  0  0  0
  1  2  1  0
  2  3  2  0
  2  4  1  0
  4  5  1  0
  5  6  2  0
  6  7  1  0
  7  8  2  0
  8  9  1  0
  9 10  2  0
  9 11  1  0
 11 12  2  0
 12 13  1  0
 13 14  2  0
 14 15  1  0
 14 16  1  0
 16 17  1  0
 16 18  2  0
  7 19  1  0
 19 20  1  0
 20  5  1  0
 18 11  1  0
  1 21  1  0
  1 22  1  0
  1 23  1  0
  4 24  1  0
  4 25  1  0
 12 26  1  0
 13 27  1  0
 15 28  1  0
 15 29  1  0
 15 30  1  0
 17 31  1  0
 17 32  1  0
 17 33  1  0
 18 34  1  0
 19 35  1  0
 20 36  1  0
M  END
>  <smiles>  (18) 
CC(=O)Cc1nc(=NC(=O)c2ccc(C)c(C)c2)[nH][nH]1

>  <score_type>  (18) 
oracle

>  <origin>  (18) 
adg

>  <m_score__min__energy>  (18) 
-8.2100000000000009

>  <m_primary>  (18) 
energy

$$$$
18:0
     RDKit          3D

 47 49  0  0  0  0  0  0  0  0999 V2000
   56.6410   27.5000   45.6230 C   0  0  0  0  0  0  0  0  0  0  0  0
   55.9580   28.6740   45.1990 O   0  0  0  0  0  0  0  0  0  0  0  0
   56.5180   29.5870   44.3010 C   0  0  0  0  0  0  0  0  0  0  0  0
   56.0250   29.7280   43.1460 O   0  0  0  0  0  0  0  0  0  0  0  0
   57.7560   30.3520   44.7050 C   0  0  1  0  0  0  0  0  0  0  0  0
   58.9140   29.3810   45.0350 C   0  0  0  0  0  0  0  0  0  0  0  0
   59.5360   29.6210   46.3910 C   0  0  0  0  0  0  0  0  0  0  0  0
   60.7830   30.2610   46.4960 C   0  0  0  0  0  0  0  0  0  0  0  0
   61.3490   30.5000   47.7530 C   0  0  0  0  0  0  0  0  0  0  0  0
   60.6780   30.0990   48.9110 C   0  0  0  0  0  0  0  0  0  0  0  0
   59.4380   29.4610   48.8150 C   0  0  0  0  0  0  0  0  0  0  0  0
   58.8680   29.2220   47.5610 C   0  0  0  0  0  0  0  0  0  0  0  0
   58.1480   31.3350   43.6480 C   0  0  0  0  0  0  0  0  0  0  0  0
   58.1310   32.5430   44.1430 C   0  0  0  0  0  0  0  0  0  0  0  0
   57.7390   32.4730   45.5810 C   0  0  2  0  0  0  0  0  0  0  0  0
   56.6090   33.3110   45.8090 O   0  0  0  0  0  0  0  0  0  0  0  0
   56.7410   34.5850   45.2090 C   0  0  0  0  0  0  0  0  0  0  0  0
   58.8750   32.9220   46.4960 C   0  0  0  0  0  0  0  0  0  0  0  0
   60.0380   33.4820   45.9300 C   0  0  0  0  0  0  0  0  0  0  0  0
   61.0700   33.9590   46.7420 C   0  0  0  0  0  0  0  0  0  0  0  0
   60.9590   33.8980   48.1380 C   0  0  0  0  0  0  0  0  0  0  0  0
   62.0500   34.4500   49.0080 C   0  0  0  0  0  0  0  0  0  0  0  0
   59.7850   33.3950   48.7120 C   0  0  0  0  0  0  0  0  0  0  0  0
   58.7520   32.9170   47.9020 C   0  0  0  0  0  0  0  0  0  0  0  0
   57.4580   31.1090   45.8710 O   0  0  0  0  0  0  0  0  0  0  0  0
   56.6616   27.4646   46.7222 H   0  0  0  0  0  0  0  0  0  0  0  0
   56.1184   26.6123   45.2373 H   0  0  0  0  0  0  0  0  0  0  0  0
   57.6710   27.5155   45.2373 H   0  0  0  0  0  0  0  0  0  0  0  0
   58.5241   28.3528   45.0082 H   0  0  0  0  0  0  0  0  0  0  0  0
   59.7005   29.5496   44.2846 H   0  0  0  0  0  0  0  0  0  0  0  0
   61.3159   30.5752   45.5864 H   0  0  0  0  0  0  0  0  0  0  0  0
   62.3236   31.0043   47.8296 H   0  0  0  0  0  0  0  0  0  0  0  0
   61.1256   30.2854   49.8984 H   0  0  0  0  0  0  0  0  0  0  0  0
   58.9100   29.1466   49.7273 H   0  0  0  0  0  0  0  0  0  0  0  0
   57.8922   28.7193   47.4900 H   0  0  0  0  0  0  0  0  0  0  0  0
   58.4107   31.0790   42.6110 H   0  0  0  0  0  0  0  0  0  0  0  0
   58.3675   33.4636   43.5894 H   0  0  0  0  0  0  0  0  0  0  0  0
   56.8206   35.3529   45.9926 H   0  0  0  0  0  0  0  0  0  0  0  0
   57.6459   34.6039   44.5839 H   0  0  0  0  0  0  0  0  0  0  0  0
   55.8592   34.7890   44.5839 H   0  0  0  0  0  0  0  0  0  0  0  0
   60.1343   33.5442   44.8360 H   0  0  0  0  0  0  0  0  0  0  0  0
   61.9746   34.3848   46.2833 H   0  0  0  0  0  0  0  0  0  0  0  0
   61.7801   34.3134   50.0656 H   0  0  0  0  0  0  0  0  0  0  0  0
   62.9903   33.9192   48.7981 H   0  0  0  0  0  0  0  0  0  0  0  0
   62.1793   35.5220   48.7981 H   0  0  0  0  0  0  0  0  0  0  0  0
   59.6756   33.3761   49.8064 H   0  0  0  0  0  0  0  0  0  0  0  0
   57.8317   32.5321   48.3656 H   0  0  0  0  0  0  0  0  0  0  0  0
  1  2  1  0
  2  3  1  0
  3  4  2  0
  3  5  1  0
  5  6  1  1
  6  7  1  0
  7  8  2  0
  8  9  1  0
  9 10  2  0
 10 11  1  0
 11 12  2  0
  5 13  1  0
 13 14  2  0
 14 15  1  0
 15 16  1  6
 16 17  1  0
 15 18  1  0
 18 19  2  0
 19 20  1  0
 20 21  2  0
 21 22  1  0
 21 23  1  0
 23 24  2  0
 15 25  1  0
 25  5  1  0
 12  7  1  0
 24 18  1  0
  1 26  1  0
  1 27  1  0
  1 28  1  0
  6 29  1  0
  6 30  1  0
  8 31  1  0
  9 32  1  0
 10 33  1  0
 11 34  1  0
 12 35  1  0
 13 36  1  0
 14 37  1  0
 17 38  1  0
 17 39  1  0
 17 40  1  0
 19 41  1  0
 20 42  1  0
 22 43  1  0
 22 44  1  0
 22 45  1  0
 23 46  1  0
 24 47  1  0
M  END
>  <UniqueID>  (19) 
17

>  <SMILES>  (19) 
COC(=O)[C@@]1(Cc2ccccc2)C=C[C@](OC)(c2ccc(C)cc2)O1

>  <Energy>  (19) 
56.396117976615834

>  <Genealogy>  (19) 
COC(=O)[C@@]1(Cc2ccccc2)C=C[C@](OC)(c2ccc(C)cc2)O1 (chirality)
COC(=O)[C@@]1(Cc2ccccc2)C=C[C@](OC)(c2ccc(C)cc2)O1 (3D coordinates assigned)
COC(=O)[C@@]1(Cc2ccccc2)C=C[C@](OC)(c2ccc(C)cc2)O1 (nonaromatic ring conformer: 56.396117976615834 kcal/mol)

>  <smiles>  (19) 
COC(=O)C1(Cc2ccccc2)C=CC(OC)(c2ccc(C)cc2)O1

>  <score_type>  (19) 
oracle

>  <origin>  (19) 
adg

>  <m_score__min__energy>  (19) 
-8.0399999999999991

>  <m_primary>  (19) 
energy

$$$$
19:0
     RDKit          3D

 57 60  0  0  0  0  0  0  0  0999 V2000
   63.4000   33.8470   47.2560 C   0  0  0  0  0  0  0  0  0  0  0  0
   63.0920   32.3580   47.1380 C   0  0  0  0  0  0  0  0  0  0  0  0
   62.1480   31.8650   48.2390 C   0  0  0  0  0  0  0  0  0  0  0  0
   61.3590   33.2410   49.1590 S   0  0  0  0  0  0  0  0  0  0  0  0
   60.0000   33.4780   48.0070 C   0  0  0  0  0  0  0  0  0  0  0  0
   59.9980   34.6010   47.1720 C   0  0  0  0  0  0  0  0  0  0  0  0
   58.9240   34.8370   46.3120 C   0  0  0  0  0  0  0  0  0  0  0  0
   57.8540   33.9430   46.2740 C   0  0  0  0  0  0  0  0  0  0  0  0
   57.8630   32.8070   47.0810 C   0  0  0  0  0  0  0  0  0  0  0  0
   58.9350   32.5640   47.9500 C   0  0  0  0  0  0  0  0  0  0  0  0
   58.9800   31.3710   48.7390 N   0  0  0  0  0  0  0  0  0  0  0  0
   58.8690   30.0380   48.2110 C   0  0  0  0  0  0  0  0  0  0  0  0
   58.1950   29.1630   48.8240 O   0  0  0  0  0  0  0  0  0  0  0  0
   59.5380   29.6940   46.9170 C   0  0  0  0  0  0  0  0  0  0  0  0
   58.5450   29.3470   45.8990 N   0  0  0  0  0  0  0  0  0  0  0  0
   57.7770   28.2210   45.8210 C   0  0  0  0  0  0  0  0  0  0  0  0
   57.8930   27.0540   46.7680 C   0  0  0  0  0  0  0  0  0  0  0  0
   57.3270   25.8270   46.1830 N   0  0  0  0  0  0  0  0  0  0  0  0
   58.1520   24.7760   45.8960 C   0  0  0  0  0  0  0  0  0  0  0  0
   57.6470   23.6020   45.3160 C   0  0  0  0  0  0  0  0  0  0  0  0
   58.5450   22.4110   45.0560 C   0  0  0  0  0  0  0  0  0  0  0  0
   58.2600   21.3920   45.9480 F   0  0  0  0  0  0  0  0  0  0  0  0
   59.8650   22.7920   45.2150 F   0  0  0  0  0  0  0  0  0  0  0  0
   58.3750   21.9220   43.7740 F   0  0  0  0  0  0  0  0  0  0  0  0
   56.2680   23.5400   45.0670 C   0  0  0  0  0  0  0  0  0  0  0  0
   55.7450   22.5020   44.5820 O   0  0  0  0  0  0  0  0  0  0  0  0
   55.4790   24.6080   45.3530 N   0  0  0  0  0  0  0  0  0  0  0  0
   55.9880   25.7410   45.8980 C   0  0  0  0  0  0  0  0  0  0  0  0
   55.2110   26.7080   46.1360 O   0  0  0  0  0  0  0  0  0  0  0  0
   56.9450   28.2380   44.7460 N   0  0  0  0  0  0  0  0  0  0  0  0
   57.1830   29.4220   44.1590 C   0  0  0  0  0  0  0  0  0  0  0  0
   56.5810   29.9540   43.0220 C   0  0  0  0  0  0  0  0  0  0  0  0
   57.0000   31.2300   42.5970 C   0  0  0  0  0  0  0  0  0  0  0  0
   58.0010   31.9290   43.3070 C   0  0  0  0  0  0  0  0  0  0  0  0
   58.5900   31.3610   44.4530 C   0  0  0  0  0  0  0  0  0  0  0  0
   58.1480   30.0970   44.8530 C   0  0  0  0  0  0  0  0  0  0  0  0
   63.4578   34.1264   48.3184 H   0  0  0  0  0  0  0  0  0  0  0  0
   64.3617   34.0623   46.7674 H   0  0  0  0  0  0  0  0  0  0  0  0
   62.6027   34.4262   46.7674 H   0  0  0  0  0  0  0  0  0  0  0  0
   62.6223   32.1713   46.1610 H   0  0  0  0  0  0  0  0  0  0  0  0
   64.0408   31.8113   47.2418 H   0  0  0  0  0  0  0  0  0  0  0  0
   61.3597   31.2513   47.7786 H   0  0  0  0  0  0  0  0  0  0  0  0
   62.7468   31.2846   48.9563 H   0  0  0  0  0  0  0  0  0  0  0  0
   60.8464   35.3008   47.1934 H   0  0  0  0  0  0  0  0  0  0  0  0
   58.9215   35.7268   45.6652 H   0  0  0  0  0  0  0  0  0  0  0  0
   57.0016   34.1351   45.6058 H   0  0  0  0  0  0  0  0  0  0  0  0
   57.0239   32.0971   47.0356 H   0  0  0  0  0  0  0  0  0  0  0  0
   60.1227   30.5592   46.5713 H   0  0  0  0  0  0  0  0  0  0  0  0
   60.1974   28.8285   47.0782 H   0  0  0  0  0  0  0  0  0  0  0  0
   58.9553   26.8838   46.9973 H   0  0  0  0  0  0  0  0  0  0  0  0
   57.3290   27.2931   47.6817 H   0  0  0  0  0  0  0  0  0  0  0  0
   59.2258   24.8512   46.1225 H   0  0  0  0  0  0  0  0  0  0  0  0
   56.2730   27.5010   44.4320 H   0  0  0  0  0  0  0  0  0  0  0  0
   55.8056   29.3977   42.4749 H   0  0  0  0  0  0  0  0  0  0  0  0
   56.5441   31.6854   41.7055 H   0  0  0  0  0  0  0  0  0  0  0  0
   58.3224   32.9231   42.9627 H   0  0  0  0  0  0  0  0  0  0  0  0
   59.3715   31.8941   45.0143 H   0  0  0  0  0  0  0  0  0  0  0  0
  1  2  1  0
  2  3  1  0
  3  4  1  0
  4  5  1  0
  5  6  2  0
  6  7  1  0
  7  8  2  0
  8  9  1  0
  9 10  2  0
 10 11  1  0
 11 12  1  0
 12 13  2  0
 12 14  1  0
 14 15  1  0
 15 16  1  0
 16 17  1  0
 17 18  1  0
 18 19  1  0
 19 20  2  0
 20 21  1  0
 21 22  1  0
 21 23  1  0
 21 24  1  0
 20 25  1  0
 25 26  2  0
 25 27  1  0
 27 28  1  0
 28 29  2  0
 16 30  2  0
 30 31  1  0
 31 32  2  0
 32 33  1  0
 33 34  2  0
 34 35  1  0
 35 36  2  0
 10  5  1  0
 36 15  1  0
 28 18  1  0
 36 31  1  0
  1 37  1  0
  1 38  1  0
  1 39  1  0
  2 40  1  0
  2 41  1  0
  3 42  1  0
  3 43  1  0
  6 44  1  0
  7 45  1  0
  8 46  1  0
  9 47  1  0
 14 48  1  0
 14 49  1  0
 17 50  1  0
 17 51  1  0
 19 52  1  0
 30 53  1  0
 32 54  1  0
 33 55  1  0
 34 56  1  0
 35 57  1  0
M  CHG  3  11  -1  27  -1  30   1
M  END
>  <UniqueID>  (20) 
18

>  <SMILES>  (20) 
CCCSc1ccccc1[N-]C(=O)Cn1c(Cn2cc(C(F)(F)F)c(=O)[n-]c2=O)[nH+]c2ccccc21

>  <Energy>  (20) 
95.61515794796894

>  <Genealogy>  (20) 
CCCSc1ccccc1[N-]C(=O)Cn1c(Cn2cc(C(F)(F)F)c(=O)[n-]c2=O)[nH+]c2ccccc21 (protonated)
CCCSc1ccccc1[N-]C(=O)Cn1c(Cn2cc(C(F)(F)F)c(=O)[n-]c2=O)[nH+]c2ccccc21 (3D coordinates assigned)
CCCSc1ccccc1[N-]C(=O)Cn1c(Cn2cc(C(F)(F)F)c(=O)[n-]c2=O)[nH+]c2ccccc21 (optimized conformer: 95.61515794796894 kcal/mol)

>  <smiles>  (20) 
CCCSc1ccccc1NC(=O)Cn1c(Cn2cc(C(F)(F)F)c(=O)[nH]c2=O)nc2ccccc21

>  <score_type>  (20) 
oracle

>  <origin>  (20) 
adg

>  <m_score__min__energy>  (20) 
-11.039999999999999

>  <m_primary>  (20) 
energy

$$$$
20:0
     RDKit          3D

 45 47  0  0  0  0  0  0  0  0999 V2000
   59.6300   35.7470   46.2600 C   0  0  0  0  0  0  0  0  0  0  0  0
   59.3210   34.3270   46.0230 N   0  0  0  0  0  0  0  0  0  0  0  0
   60.5460   33.4930   46.0670 C   0  0  0  0  0  0  0  0  0  0  0  0
   60.8790   32.9950   47.4840 C   0  0  0  0  0  0  0  0  0  0  0  0
   59.7080   32.3770   48.1160 N   0  0  0  0  0  0  0  0  0  0  0  0
   59.8810   31.5730   49.2950 C   0  0  0  0  0  0  0  0  0  0  0  0
   60.8530   30.7710   49.3600 O   0  0  0  0  0  0  0  0  0  0  0  0
   58.9560   31.6810   50.4460 C   0  0  0  0  0  0  0  0  0  0  0  0
   59.0090   32.7920   51.3070 C   0  0  0  0  0  0  0  0  0  0  0  0
   58.1400   32.8840   52.3950 C   0  0  0  0  0  0  0  0  0  0  0  0
   57.2220   31.8630   52.6490 C   0  0  0  0  0  0  0  0  0  0  0  0
   57.1830   30.7290   51.8230 C   0  0  0  0  0  0  0  0  0  0  0  0
   56.2650   29.6540   52.0670 N   0  0  0  0  0  0  0  0  0  0  0  0
   55.5610   29.4140   53.2940 C   0  0  0  0  0  0  0  0  0  0  0  0
   56.2200   29.1880   54.3410 O   0  0  0  0  0  0  0  0  0  0  0  0
   54.1290   29.4230   53.3620 N   0  0  0  0  0  0  0  0  0  0  0  0
   53.2500   30.1540   52.4940 C   0  0  0  0  0  0  0  0  0  0  0  0
   52.5350   31.2410   53.0120 C   0  0  0  0  0  0  0  0  0  0  0  0
   51.6640   31.9670   52.1940 C   0  0  0  0  0  0  0  0  0  0  0  0
   51.5150   31.6210   50.8480 C   0  0  0  0  0  0  0  0  0  0  0  0
   50.6460   32.3400   50.0360 O   0  0  0  0  0  0  0  0  0  0  0  0
   52.2440   30.5530   50.3170 C   0  0  0  0  0  0  0  0  0  0  0  0
   53.1170   29.8260   51.1330 C   0  0  0  0  0  0  0  0  0  0  0  0
   58.0380   30.6520   50.7170 C   0  0  0  0  0  0  0  0  0  0  0  0
   58.4110   32.4490   47.4390 C   0  0  0  0  0  0  0  0  0  0  0  0
   58.2080   33.8680   46.8950 C   0  0  0  0  0  0  0  0  0  0  0  0
   59.6715   35.9375   47.3426 H   0  0  0  0  0  0  0  0  0  0  0  0
   60.6023   35.9912   45.8072 H   0  0  0  0  0  0  0  0  0  0  0  0
   58.8471   36.3731   45.8072 H   0  0  0  0  0  0  0  0  0  0  0  0
   60.4005   32.6204   45.4132 H   0  0  0  0  0  0  0  0  0  0  0  0
   61.3851   34.1200   45.7311 H   0  0  0  0  0  0  0  0  0  0  0  0
   61.6880   32.2522   47.4228 H   0  0  0  0  0  0  0  0  0  0  0  0
   61.1903   33.8567   48.0928 H   0  0  0  0  0  0  0  0  0  0  0  0
   59.7397   33.5930   51.1216 H   0  0  0  0  0  0  0  0  0  0  0  0
   58.1783   33.7635   53.0545 H   0  0  0  0  0  0  0  0  0  0  0  0
   56.5280   31.9476   53.4982 H   0  0  0  0  0  0  0  0  0  0  0  0
   52.6592   31.5250   54.0674 H   0  0  0  0  0  0  0  0  0  0  0  0
   51.0953   32.8116   52.6103 H   0  0  0  0  0  0  0  0  0  0  0  0
   52.1310   30.2840   49.2564 H   0  0  0  0  0  0  0  0  0  0  0  0
   53.7009   28.9957   50.7091 H   0  0  0  0  0  0  0  0  0  0  0  0
   57.9907   29.7764   50.0528 H   0  0  0  0  0  0  0  0  0  0  0  0
   58.3888   31.7290   46.6077 H   0  0  0  0  0  0  0  0  0  0  0  0
   57.6075   32.2058   48.1499 H   0  0  0  0  0  0  0  0  0  0  0  0
   57.2758   33.8884   46.3114 H   0  0  0  0  0  0  0  0  0  0  0  0
   58.1698   34.5467   47.7598 H   0  0  0  0  0  0  0  0  0  0  0  0
  1  2  1  0
  2  3  1  0
  3  4  1  0
  4  5  1  0
  5  6  1  0
  6  7  2  0
  6  8  1  0
  8  9  2  0
  9 10  1  0
 10 11  2  0
 11 12  1  0
 12 13  1  0
 13 14  1  0
 14 15  2  0
 14 16  1  0
 16 17  1  0
 17 18  2  0
 18 19  1  0
 19 20  2  0
 20 21  1  0
 20 22  1  0
 22 23  2  0
 12 24  2  0
  5 25  1  0
 25 26  1  0
 26  2  1  0
 24  8  1  0
 23 17  1  0
  1 27  1  0
  1 28  1  0
  1 29  1  0
  3 30  1  0
  3 31  1  0
  4 32  1  0
  4 33  1  0
  9 34  1  0
 10 35  1  0
 11 36  1  0
 18 37  1  0
 19 38  1  0
 22 39  1  0
 23 40  1  0
 24 41  1  0
 25 42  1  0
 25 43  1  0
 26 44  1  0
 26 45  1  0
M  CHG  3  13  -1  16  -1  21  -1
M  END
>  <UniqueID>  (21) 
19

>  <SMILES>  (21) 
CN1CCN(C(=O)c2cccc([N-]C(=O)[N-]c3ccc([O-])cc3)c2)CC1

>  <Energy>  (21) 
65.57200194532254

>  <Genealogy>  (21) 
CN1CCN(C(=O)c2cccc([N-]C(=O)[N-]c3ccc([O-])cc3)c2)CC1 (protonated)
CN1CCN(C(=O)c2cccc([N-]C(=O)[N-]c3ccc([O-])cc3)c2)CC1 (3D coordinates assigned)
CN1CCN(C(=O)c2cccc([N-]C(=O)[N-]c3ccc([O-])cc3)c2)CC1 (nonaromatic ring conformer: 65.57200194532254 kcal/mol)

>  <smiles>  (21) 
CN1CCN(C(=O)c2cccc(NC(=O)Nc3ccc(O)cc3)c2)CC1

>  <score_type>  (21) 
oracle

>  <origin>  (21) 
adg

>  <m_score__min__energy>  (21) 
-14.609999999999999

>  <m_primary>  (21) 
energy

$$$$
21:0
     RDKit          3D

 25 26  0  0  0  0  0  0  0  0999 V2000
   57.7780   33.2580   45.6290 C   0  0  0  0  0  0  0  0  0  0  0  0
   57.6520   32.1850   44.7020 O   0  0  0  0  0  0  0  0  0  0  0  0
   57.5350   30.8350   45.0650 C   0  0  0  0  0  0  0  0  0  0  0  0
   58.2800   30.3730   46.1560 C   0  0  0  0  0  0  0  0  0  0  0  0
   58.1990   29.0370   46.5570 C   0  0  0  0  0  0  0  0  0  0  0  0
   57.3680   28.1390   45.8700 C   0  0  0  0  0  0  0  0  0  0  0  0
   57.2820   26.7180   46.2950 C   0  0  0  0  0  0  0  0  0  0  0  0
   56.0460   26.0490   46.3350 C   0  0  0  0  0  0  0  0  0  0  0  0
   54.8700   26.7120   45.9970 O   0  0  0  0  0  0  0  0  0  0  0  0
   55.9890   24.7470   46.7230 N   0  0  0  0  0  0  0  0  0  0  0  0
   57.1130   24.0750   47.0840 C   0  0  0  0  0  0  0  0  0  0  0  0
   57.0430   22.8710   47.4450 O   0  0  0  0  0  0  0  0  0  0  0  0
   58.3170   24.7000   47.0550 N   0  0  0  0  0  0  0  0  0  0  0  0
   58.4300   25.9970   46.6710 C   0  0  0  0  0  0  0  0  0  0  0  0
   59.5690   26.5340   46.6410 O   0  0  0  0  0  0  0  0  0  0  0  0
   56.6210   28.5990   44.7740 C   0  0  0  0  0  0  0  0  0  0  0  0
   56.7020   29.9360   44.3730 C   0  0  0  0  0  0  0  0  0  0  0  0
   57.7317   32.8636   46.6548 H   0  0  0  0  0  0  0  0  0  0  0  0
   58.7419   33.7650   45.4742 H   0  0  0  0  0  0  0  0  0  0  0  0
   56.9578   33.9745   45.4742 H   0  0  0  0  0  0  0  0  0  0  0  0
   58.9349   31.0676   46.7025 H   0  0  0  0  0  0  0  0  0  0  0  0
   58.7901   28.6872   47.4162 H   0  0  0  0  0  0  0  0  0  0  0  0
   55.0630   24.2610   46.7510 H   0  0  0  0  0  0  0  0  0  0  0  0
   55.9678   27.9031   44.2272 H   0  0  0  0  0  0  0  0  0  0  0  0
   56.1123   30.2867   43.5132 H   0  0  0  0  0  0  0  0  0  0  0  0
  1  2  1  0
  2  3  1  0
  3  4  2  0
  4  5  1  0
  5  6  2  0
  6  7  1  0
  7  8  2  0
  8  9  1  0
  8 10  1  0
 10 11  1  0
 11 12  2  0
 11 13  1  0
 13 14  1  0
 14 15  2  0
  6 16  1  0
 16 17  2  0
 17  3  1  0
 14  7  1  0
  1 18  1  0
  1 19  1  0
  1 20  1  0
  4 21  1  0
  5 22  1  0
 10 23  1  0
 16 24  1  0
 17 25  1  0
M  CHG  2   9  -1  13  -1
M  END
>  <UniqueID>  (22) 
20

>  <SMILES>  (22) 
COc1ccc(-c2c([O-])[nH]c(=O)[n-]c2=O)cc1

>  <Energy>  (22) 
33.86861925324357

>  <Genealogy>  (22) 
COc1ccc(-c2c([O-])[nH]c(=O)[n-]c2=O)cc1 (protonated)
COc1ccc(-c2c([O-])[nH]c(=O)[n-]c2=O)cc1 (3D coordinates assigned)
COc1ccc(-c2c([O-])[nH]c(=O)[n-]c2=O)cc1 (optimized conformer: 33.86861925324357 kcal/mol)

>  <smiles>  (22) 
COc1ccc(-c2c(O)[nH]c(=O)[nH]c2=O)cc1

>  <score_type>  (22) 
oracle

>  <origin>  (22) 
adg

>  <m_score__min__energy>  (22) 
-10.83

>  <m_primary>  (22) 
energy

$$$$
22:0
     RDKit          3D

 51 54  0  0  0  0  0  0  0  0999 V2000
   58.4770   27.7150   44.1490 O   0  0  0  0  0  0  0  0  0  0  0  0
   57.8890   28.3250   45.0810 C   0  0  0  0  0  0  0  0  0  0  0  0
   56.4570   28.4080   45.0730 N   0  0  0  0  0  0  0  0  0  0  0  0
   55.6900   29.5990   44.7100 C   0  0  0  0  0  0  0  0  0  0  0  0
   56.5900   30.6670   44.1330 C   0  0  0  0  0  0  0  0  0  0  0  0
   57.2300   31.5750   44.9950 C   0  0  0  0  0  0  0  0  0  0  0  0
   58.0150   32.6090   44.4770 C   0  0  0  0  0  0  0  0  0  0  0  0
   58.1700   32.7440   43.0950 C   0  0  0  0  0  0  0  0  0  0  0  0
   57.5530   31.8350   42.2290 C   0  0  0  0  0  0  0  0  0  0  0  0
   57.7000   31.9760   40.8880 F   0  0  0  0  0  0  0  0  0  0  0  0
   56.7740   30.7920   42.7410 C   0  0  0  0  0  0  0  0  0  0  0  0
   56.1740   29.9300   41.8810 F   0  0  0  0  0  0  0  0  0  0  0  0
   58.6860   28.9600   46.1390 C   0  0  0  0  0  0  0  0  0  0  0  0
   59.9940   29.3780   45.8810 C   0  0  0  0  0  0  0  0  0  0  0  0
   60.7860   29.8930   46.9090 C   0  0  0  0  0  0  0  0  0  0  0  0
   60.2820   29.9820   48.2180 C   0  0  0  0  0  0  0  0  0  0  0  0
   61.0770   30.4530   49.2800 C   0  0  0  0  0  0  0  0  0  0  0  0
   62.4040   30.8420   49.0180 O   0  0  0  0  0  0  0  0  0  0  0  0
   62.8830   32.1840   48.9460 C   0  0  0  0  0  0  0  0  0  0  0  0
   62.7310   32.7380   47.5280 C   0  0  0  0  0  0  0  0  0  0  0  0
   61.4200   33.4620   47.3850 C   0  0  0  0  0  0  0  0  0  0  0  0
   60.5290   33.5370   48.4700 C   0  0  0  0  0  0  0  0  0  0  0  0
   59.2920   34.1750   48.3240 C   0  0  0  0  0  0  0  0  0  0  0  0
   58.9300   34.7270   47.0920 C   0  0  0  0  0  0  0  0  0  0  0  0
   59.8070   34.6430   46.0060 C   0  0  0  0  0  0  0  0  0  0  0  0
   61.0480   34.0120   46.1460 C   0  0  0  0  0  0  0  0  0  0  0  0
   60.5220   30.5040   50.5730 C   0  0  0  0  0  0  0  0  0  0  0  0
   59.2030   30.0950   50.7830 C   0  0  0  0  0  0  0  0  0  0  0  0
   58.4470   29.6470   49.7470 N   0  0  0  0  0  0  0  0  0  0  0  0
   58.9490   29.5760   48.4780 C   0  0  0  0  0  0  0  0  0  0  0  0
   58.1580   29.0800   47.4320 C   0  0  0  0  0  0  0  0  0  0  0  0
   54.9319   29.3245   43.9617 H   0  0  0  0  0  0  0  0  0  0  0  0
   55.2102   29.9968   45.6164 H   0  0  0  0  0  0  0  0  0  0  0  0
   57.1122   31.4710   46.0837 H   0  0  0  0  0  0  0  0  0  0  0  0
   58.5109   33.3167   45.1576 H   0  0  0  0  0  0  0  0  0  0  0  0
   58.7776   33.5656   42.6877 H   0  0  0  0  0  0  0  0  0  0  0  0
   60.4020   29.3009   44.8624 H   0  0  0  0  0  0  0  0  0  0  0  0
   61.8103   30.2310   46.6932 H   0  0  0  0  0  0  0  0  0  0  0  0
   62.3064   32.8109   49.6421 H   0  0  0  0  0  0  0  0  0  0  0  0
   63.9491   32.1936   49.2166 H   0  0  0  0  0  0  0  0  0  0  0  0
   63.5552   33.4367   47.3217 H   0  0  0  0  0  0  0  0  0  0  0  0
   62.7563   31.9018   46.8138 H   0  0  0  0  0  0  0  0  0  0  0  0
   60.8053   33.0924   49.4375 H   0  0  0  0  0  0  0  0  0  0  0  0
   58.6040   34.2421   49.1796 H   0  0  0  0  0  0  0  0  0  0  0  0
   57.9568   35.2267   46.9768 H   0  0  0  0  0  0  0  0  0  0  0  0
   59.5196   35.0754   45.0362 H   0  0  0  0  0  0  0  0  0  0  0  0
   61.7321   33.9464   45.2871 H   0  0  0  0  0  0  0  0  0  0  0  0
   61.1269   30.8658   51.4175 H   0  0  0  0  0  0  0  0  0  0  0  0
   58.7732   30.1360   51.7947 H   0  0  0  0  0  0  0  0  0  0  0  0
   57.4590   29.3500   49.9450 H   0  0  0  0  0  0  0  0  0  0  0  0
   57.1169   28.7833   47.6271 H   0  0  0  0  0  0  0  0  0  0  0  0
  1  2  2  0
  2  3  1  0
  3  4  1  0
  4  5  1  0
  5  6  2  0
  6  7  1  0
  7  8  2  0
  8  9  1  0
  9 10  1  0
  9 11  2  0
 11 12  1  0
  2 13  1  0
 13 14  2  0
 14 15  1  0
 15 16  2  0
 16 17  1  0
 17 18  1  0
 18 19  1  0
 19 20  1  0
 20 21  1  0
 21 22  2  0
 22 23  1  0
 23 24  2  0
 24 25  1  0
 25 26  2  0
 17 27  2  0
 27 28  1  0
 28 29  2  0
 29 30  1  0
 30 31  2  0
 11  5  1  0
 31 13  1  0
 30 16  1  0
 26 21  1  0
  4 32  1  0
  4 33  1  0
  6 34  1  0
  7 35  1  0
  8 36  1  0
 14 37  1  0
 15 38  1  0
 19 39  1  0
 19 40  1  0
 20 41  1  0
 20 42  1  0
 22 43  1  0
 23 44  1  0
 24 45  1  0
 25 46  1  0
 26 47  1  0
 27 48  1  0
 28 49  1  0
 29 50  1  0
 31 51  1  0
M  CHG  2   3  -1  29   1
M  END
>  <UniqueID>  (23) 
21

>  <SMILES>  (23) 
O=C([N-]Cc1cccc(F)c1F)c1ccc2c(OCCc3ccccc3)cc[nH+]c2c1

>  <Energy>  (23) 
60.14347296422998

>  <Genealogy>  (23) 
O=C([N-]Cc1cccc(F)c1F)c1ccc2c(OCCc3ccccc3)cc[nH+]c2c1 (protonated)
O=C([N-]Cc1cccc(F)c1F)c1ccc2c(OCCc3ccccc3)cc[nH+]c2c1 (3D coordinates assigned)
O=C([N-]Cc1cccc(F)c1F)c1ccc2c(OCCc3ccccc3)cc[nH+]c2c1 (optimized conformer: 60.14347296422998 kcal/mol)

>  <smiles>  (23) 
O=C(NCc1cccc(F)c1F)c1ccc2c(OCCc3ccccc3)ccnc2c1

>  <score_type>  (23) 
oracle

>  <origin>  (23) 
adg

>  <m_score__min__energy>  (23) 
-9.2799999999999994

>  <m_primary>  (23) 
energy

$$$$
23:0
     RDKit          3D

 46 49  0  0  0  0  0  0  0  0999 V2000
   59.3060   29.2900   51.1770 O   0  0  0  0  0  0  0  0  0  0  0  0
   58.5170   30.2120   50.8330 C   0  0  0  0  0  0  0  0  0  0  0  0
   57.1400   30.1520   51.2240 N   0  0  0  0  0  0  0  0  0  0  0  0
   56.4330   31.2490   51.8820 C   0  0  1  0  0  0  0  0  0  0  0  0
   55.3500   30.7020   52.7630 C   0  0  0  0  0  0  0  0  0  0  0  0
   55.5370   30.6520   54.0090 O   0  0  0  0  0  0  0  0  0  0  0  0
   54.1050   30.2730   52.1820 N   0  0  0  0  0  0  0  0  0  0  0  0
   52.9910   30.9370   52.0430 C   0  0  0  0  0  0  0  0  0  0  0  0
   52.5940   31.2960   50.7480 C   0  0  0  0  0  0  0  0  0  0  0  0
   51.4100   32.0110   50.5540 C   0  0  0  0  0  0  0  0  0  0  0  0
   50.6350   32.3500   51.6190 N   0  0  0  0  0  0  0  0  0  0  0  0
   50.9790   32.0010   52.8860 C   0  0  0  0  0  0  0  0  0  0  0  0
   52.1540   31.2820   53.1260 C   0  0  0  0  0  0  0  0  0  0  0  0
   57.3890   32.0760   52.7100 C   0  0  0  0  0  0  0  0  0  0  0  0
   57.6240   33.4230   52.3820 C   0  0  0  0  0  0  0  0  0  0  0  0
   58.4950   34.1960   53.1550 C   0  0  0  0  0  0  0  0  0  0  0  0
   59.1360   33.6350   54.2630 C   0  0  0  0  0  0  0  0  0  0  0  0
   58.9040   32.3000   54.6030 C   0  0  0  0  0  0  0  0  0  0  0  0
   58.0320   31.5230   53.8340 C   0  0  0  0  0  0  0  0  0  0  0  0
   59.0090   31.3500   50.0230 C   0  0  0  0  0  0  0  0  0  0  0  0
   60.1090   32.1120   50.4600 C   0  0  0  0  0  0  0  0  0  0  0  0
   60.5810   33.1850   49.7010 C   0  0  0  0  0  0  0  0  0  0  0  0
   59.9620   33.5180   48.4880 C   0  0  0  0  0  0  0  0  0  0  0  0
   60.4280   34.5960   47.7200 C   0  0  0  0  0  0  0  0  0  0  0  0
   59.8010   34.9200   46.5130 C   0  0  0  0  0  0  0  0  0  0  0  0
   58.7070   34.1730   46.0670 C   0  0  0  0  0  0  0  0  0  0  0  0
   58.2330   33.0980   46.8240 C   0  0  0  0  0  0  0  0  0  0  0  0
   58.8550   32.7610   48.0370 C   0  0  0  0  0  0  0  0  0  0  0  0
   58.3860   31.6850   48.8060 C   0  0  0  0  0  0  0  0  0  0  0  0
   55.9877   31.8909   51.1076 H   0  0  0  0  0  0  0  0  0  0  0  0
   53.2147   31.0148   49.8845 H   0  0  0  0  0  0  0  0  0  0  0  0
   51.1037   32.3005   49.5379 H   0  0  0  0  0  0  0  0  0  0  0  0
   50.3300   32.2854   53.7273 H   0  0  0  0  0  0  0  0  0  0  0  0
   52.4240   30.9875   54.1509 H   0  0  0  0  0  0  0  0  0  0  0  0
   57.1199   33.8706   51.5128 H   0  0  0  0  0  0  0  0  0  0  0  0
   58.6764   35.2483   52.8907 H   0  0  0  0  0  0  0  0  0  0  0  0
   59.8234   34.2448   54.8676 H   0  0  0  0  0  0  0  0  0  0  0  0
   59.4076   31.8597   55.4762 H   0  0  0  0  0  0  0  0  0  0  0  0
   57.8474   30.4740   54.1087 H   0  0  0  0  0  0  0  0  0  0  0  0
   60.6024   31.8594   51.4101 H   0  0  0  0  0  0  0  0  0  0  0  0
   61.4415   33.7710   50.0562 H   0  0  0  0  0  0  0  0  0  0  0  0
   61.2879   35.1871   48.0681 H   0  0  0  0  0  0  0  0  0  0  0  0
   60.1696   35.7649   45.9129 H   0  0  0  0  0  0  0  0  0  0  0  0
   58.2173   34.4322   45.1167 H   0  0  0  0  0  0  0  0  0  0  0  0
   57.3708   32.5146   46.4688 H   0  0  0  0  0  0  0  0  0  0  0  0
   57.5243   31.0984   48.4548 H   0  0  0  0  0  0  0  0  0  0  0  0
  1  2  2  0
  2  3  1  0
  3  4  1  0
  4  5  1  0
  5  6  2  0
  5  7  1  0
  7  8  2  3
  8  9  1  0
  9 10  2  0
 10 11  1  0
 11 12  1  0
 12 13  2  0
  4 14  1  0
 14 15  2  0
 15 16  1  0
 16 17  2  0
 17 18  1  0
 18 19  2  0
  2 20  1  0
 20 21  2  0
 21 22  1  0
 22 23  2  0
 23 24  1  0
 24 25  2  0
 25 26  1  0
 26 27  2  0
 27 28  1  0
 28 29  2  0
 13  8  1  0
 19 14  1  0
 29 20  1  0
 28 23  1  0
  4 30  1  6
  9 31  1  0
 10 32  1  0
 12 33  1  0
 13 34  1  0
 15 35  1  0
 16 36  1  0
 17 37  1  0
 18 38  1  0
 19 39  1  0
 21 40  1  0
 22 41  1  0
 24 42  1  0
 25 43  1  0
 26 44  1  0
 27 45  1  0
 29 46  1  0
M  CHG  2   3  -1  11  -1
M  END
>  <UniqueID>  (24) 
22

>  <SMILES>  (24) 
O=C([N-][C@@H](C(=O)N=c1cc[n-]cc1)c1ccccc1)c1ccc2ccccc2c1

>  <Energy>  (24) 
60.29531178626329

>  <Genealogy>  (24) 
O=C([N-]C(C(=O)N=c1cc[n-]cc1)c1ccccc1)c1ccc2ccccc2c1 (protonated)
O=C([N-][C@@H](C(=O)N=c1cc[n-]cc1)c1ccccc1)c1ccc2ccccc2c1 (chirality)
O=C([N-][C@@H](C(=O)N=c1cc[n-]cc1)c1ccccc1)c1ccc2ccccc2c1 (3D coordinates assigned)
O=C([N-][C@@H](C(=O)N=c1cc[n-]cc1)c1ccccc1)c1ccc2ccccc2c1 (optimized conformer: 60.29531178626329 kcal/mol)

>  <smiles>  (24) 
O=C(NC(C(=O)N=c1cc[nH]cc1)c1ccccc1)c1ccc2ccccc2c1

>  <score_type>  (24) 
oracle

>  <origin>  (24) 
adg

>  <m_score__min__energy>  (24) 
-12.75

>  <m_primary>  (24) 
energy

$$$$
24:0
     RDKit          3D

 48 51  0  0  0  0  0  0  0  0999 V2000
   60.2830   26.3820   47.3710 C   0  0  0  0  0  0  0  0  0  0  0  0
   60.7140   27.8420   47.6320 C   0  0  1  0  0  0  0  0  0  0  0  0
   60.3350   28.6690   46.4160 C   0  0  0  0  0  0  0  0  0  0  0  0
   61.1780   29.5130   46.0020 O   0  0  0  0  0  0  0  0  0  0  0  0
   59.0290   28.5980   45.7100 C   0  0  0  0  0  0  0  0  0  0  0  0
   58.1890   27.4860   45.7620 C   0  0  0  0  0  0  0  0  0  0  0  0
   57.0820   27.6830   45.0170 N   0  0  0  0  0  0  0  0  0  0  0  0
   57.1970   28.9130   44.4950 C   0  0  0  0  0  0  0  0  0  0  0  0
   56.2750   29.5570   43.6710 C   0  0  0  0  0  0  0  0  0  0  0  0
   56.5660   30.8650   43.2520 C   0  0  0  0  0  0  0  0  0  0  0  0
   57.7520   31.4990   43.6700 C   0  0  0  0  0  0  0  0  0  0  0  0
   58.6630   30.8290   44.5060 C   0  0  0  0  0  0  0  0  0  0  0  0
   58.3680   29.5170   44.8960 C   0  0  0  0  0  0  0  0  0  0  0  0
   60.1760   28.4340   48.8920 N   0  0  0  0  0  0  0  0  0  0  0  0
   61.0730   29.4020   49.5630 C   0  0  0  0  0  0  0  0  0  0  0  0
   61.2260   30.6830   48.7340 C   0  0  0  0  0  0  0  0  0  0  0  0
   59.9180   31.1540   48.2610 N   0  0  0  0  0  0  0  0  0  0  0  0
   59.8390   32.3810   47.5090 C   0  0  0  0  0  0  0  0  0  0  0  0
   61.0100   33.0340   47.0800 C   0  0  0  0  0  0  0  0  0  0  0  0
   60.9290   34.2210   46.3470 C   0  0  0  0  0  0  0  0  0  0  0  0
   59.6830   34.7710   46.0380 C   0  0  0  0  0  0  0  0  0  0  0  0
   59.6070   35.9240   45.3280 F   0  0  0  0  0  0  0  0  0  0  0  0
   58.5140   34.1330   46.4610 C   0  0  0  0  0  0  0  0  0  0  0  0
   58.5900   32.9440   47.1920 C   0  0  0  0  0  0  0  0  0  0  0  0
   58.7000   30.5220   48.7800 C   0  0  0  0  0  0  0  0  0  0  0  0
   58.7990   28.9820   48.7160 C   0  0  0  0  0  0  0  0  0  0  0  0
   60.1311   25.8673   48.3312 H   0  0  0  0  0  0  0  0  0  0  0  0
   59.3441   26.3737   46.7979 H   0  0  0  0  0  0  0  0  0  0  0  0
   61.0669   25.8651   46.7979 H   0  0  0  0  0  0  0  0  0  0  0  0
   61.8032   27.8470   47.7857 H   0  0  0  0  0  0  0  0  0  0  0  0
   58.4009   26.5707   46.3341 H   0  0  0  0  0  0  0  0  0  0  0  0
   56.2940   27.0110   44.8800 H   0  0  0  0  0  0  0  0  0  0  0  0
   55.3473   29.0553   43.3585 H   0  0  0  0  0  0  0  0  0  0  0  0
   55.8638   31.3975   42.5937 H   0  0  0  0  0  0  0  0  0  0  0  0
   57.9674   32.5260   43.3401 H   0  0  0  0  0  0  0  0  0  0  0  0
   59.5850   31.3237   44.8453 H   0  0  0  0  0  0  0  0  0  0  0  0
   60.6522   29.6591   50.5463 H   0  0  0  0  0  0  0  0  0  0  0  0
   62.0644   28.9387   49.6745 H   0  0  0  0  0  0  0  0  0  0  0  0
   61.6872   31.4635   49.3570 H   0  0  0  0  0  0  0  0  0  0  0  0
   61.8606   30.4665   47.8620 H   0  0  0  0  0  0  0  0  0  0  0  0
   61.9944   32.6075   47.3231 H   0  0  0  0  0  0  0  0  0  0  0  0
   61.8487   34.7233   46.0126 H   0  0  0  0  0  0  0  0  0  0  0  0
   57.5328   34.5670   46.2184 H   0  0  0  0  0  0  0  0  0  0  0  0
   57.6665   32.4453   47.5215 H   0  0  0  0  0  0  0  0  0  0  0  0
   58.5543   30.8290   49.8262 H   0  0  0  0  0  0  0  0  0  0  0  0
   57.8499   30.8424   48.1598 H   0  0  0  0  0  0  0  0  0  0  0  0
   58.1611   28.5651   49.5093 H   0  0  0  0  0  0  0  0  0  0  0  0
   58.4787   28.6936   47.7039 H   0  0  0  0  0  0  0  0  0  0  0  0
  1  2  1  0
  2  3  1  0
  3  4  2  0
  3  5  1  0
  5  6  2  0
  6  7  1  0
  7  8  1  0
  8  9  2  0
  9 10  1  0
 10 11  2  0
 11 12  1  0
 12 13  2  0
  2 14  1  0
 14 15  1  0
 15 16  1  0
 16 17  1  0
 17 18  1  0
 18 19  2  0
 19 20  1  0
 20 21  2  0
 21 22  1  0
 21 23  1  0
 23 24  2  0
 17 25  1  0
 25 26  1  0
 13  5  1  0
 26 14  1  0
 13  8  1  0
 24 18  1  0
  1 27  1  0
  1 28  1  0
  1 29  1  0
  2 30  1  1
  6 31  1  0
  7 32  1  0
  9 33  1  0
 10 34  1  0
 11 35  1  0
 12 36  1  0
 15 37  1  0
 15 38  1  0
 16 39  1  0
 16 40  1  0
 19 41  1  0
 20 42  1  0
 23 43  1  0
 24 44  1  0
 25 45  1  0
 25 46  1  0
 26 47  1  0
 26 48  1  0
M  END
>  <UniqueID>  (25) 
23

>  <SMILES>  (25) 
C[C@@H](C(=O)c1c[nH]c2ccccc12)N1CCN(c2ccc(F)cc2)CC1

>  <Energy>  (25) 
104.73234951322404

>  <Genealogy>  (25) 
C[C@@H](C(=O)c1c[nH]c2ccccc12)N1CCN(c2ccc(F)cc2)CC1 (chirality)
C[C@@H](C(=O)c1c[nH]c2ccccc12)N1CCN(c2ccc(F)cc2)CC1 (3D coordinates assigned)
C[C@@H](C(=O)c1c[nH]c2ccccc12)N1CCN(c2ccc(F)cc2)CC1 (nonaromatic ring conformer: 104.73234951322404 kcal/mol)

>  <smiles>  (25) 
CC(C(=O)c1c[nH]c2ccccc12)N1CCN(c2ccc(F)cc2)CC1

>  <score_type>  (25) 
oracle

>  <origin>  (25) 
adg

>  <m_score__min__energy>  (25) 
-8.4900000000000002

>  <m_primary>  (25) 
energy

$$$$
25:0
     RDKit          3D

 50 52  0  0  0  0  0  0  0  0999 V2000
   57.1780   30.6440   44.4200 C   0  0  0  0  0  0  0  0  0  0  0  0
   57.3950   30.1330   45.7310 O   0  0  0  0  0  0  0  0  0  0  0  0
   57.7560   28.8090   46.0280 C   0  0  0  0  0  0  0  0  0  0  0  0
   56.9940   27.7200   45.5560 C   0  0  0  0  0  0  0  0  0  0  0  0
   57.3870   26.3990   45.8160 C   0  0  0  0  0  0  0  0  0  0  0  0
   56.5980   25.2550   45.2370 C   0  0  0  0  0  0  0  0  0  0  0  0
   55.2530   25.1830   45.8840 C   0  0  0  0  0  0  0  0  0  0  0  0
   54.8440   24.0990   46.3760 O   0  0  0  0  0  0  0  0  0  0  0  0
   54.4710   26.3260   45.9940 O   0  0  0  0  0  0  0  0  0  0  0  0
   58.5560   26.1620   46.5510 C   0  0  0  0  0  0  0  0  0  0  0  0
   58.9750   24.8950   46.7940 F   0  0  0  0  0  0  0  0  0  0  0  0
   59.3130   27.2320   47.0320 C   0  0  0  0  0  0  0  0  0  0  0  0
   58.9260   28.5590   46.7810 C   0  0  0  0  0  0  0  0  0  0  0  0
   59.7990   29.6650   47.2480 C   0  0  0  0  0  0  0  0  0  0  0  0
   59.7840   30.2130   48.5290 C   0  0  0  0  0  0  0  0  0  0  0  0
   60.8060   31.1430   48.7530 C   0  0  0  0  0  0  0  0  0  0  0  0
   61.0670   31.7050   50.0850 C   0  0  0  0  0  0  0  0  0  0  0  0
   61.4830   30.9470   50.9990 O   0  0  0  0  0  0  0  0  0  0  0  0
   60.9010   33.1040   50.3560 N   0  0  0  0  0  0  0  0  0  0  0  0
   59.6890   33.8810   50.0970 C   0  0  0  0  0  0  0  0  0  0  0  0
   59.2980   33.8380   48.6410 C   0  0  0  0  0  0  0  0  0  0  0  0
   60.0110   34.5930   47.6940 C   0  0  0  0  0  0  0  0  0  0  0  0
   59.6160   34.5990   46.3530 C   0  0  0  0  0  0  0  0  0  0  0  0
   58.4990   33.8580   45.9420 C   0  0  0  0  0  0  0  0  0  0  0  0
   58.0490   33.8830   44.5100 C   0  0  0  0  0  0  0  0  0  0  0  0
   57.8130   33.0680   46.8760 C   0  0  0  0  0  0  0  0  0  0  0  0
   58.2150   33.0510   48.2150 C   0  0  0  0  0  0  0  0  0  0  0  0
   61.5980   31.3830   47.6320 C   0  0  0  0  0  0  0  0  0  0  0  0
   62.8210   32.2370   47.5680 C   0  0  0  0  0  0  0  0  0  0  0  0
   61.0640   30.3830   46.3910 S   0  0  0  0  0  0  0  0  0  0  0  0
   56.7488   31.6546   44.4868 H   0  0  0  0  0  0  0  0  0  0  0  0
   58.1354   30.6872   43.8802 H   0  0  0  0  0  0  0  0  0  0  0  0
   56.4821   29.9850   43.8802 H   0  0  0  0  0  0  0  0  0  0  0  0
   56.0788   27.9094   44.9759 H   0  0  0  0  0  0  0  0  0  0  0  0
   56.4740   25.4088   44.1549 H   0  0  0  0  0  0  0  0  0  0  0  0
   57.1379   24.3144   45.4206 H   0  0  0  0  0  0  0  0  0  0  0  0
   60.2243   27.0334   47.6151 H   0  0  0  0  0  0  0  0  0  0  0  0
   59.0397   29.9407   49.2918 H   0  0  0  0  0  0  0  0  0  0  0  0
   58.8660   33.4687   50.6992 H   0  0  0  0  0  0  0  0  0  0  0  0
   59.8895   34.9284   50.3669 H   0  0  0  0  0  0  0  0  0  0  0  0
   60.8845   35.1823   48.0096 H   0  0  0  0  0  0  0  0  0  0  0  0
   60.1839   35.1875   45.6173 H   0  0  0  0  0  0  0  0  0  0  0  0
   56.9514   33.9440   44.4716 H   0  0  0  0  0  0  0  0  0  0  0  0
   58.4828   34.7584   44.0046 H   0  0  0  0  0  0  0  0  0  0  0  0
   58.3831   32.9649   44.0046 H   0  0  0  0  0  0  0  0  0  0  0  0
   56.9553   32.4593   46.5538 H   0  0  0  0  0  0  0  0  0  0  0  0
   57.6805   32.4181   48.9387 H   0  0  0  0  0  0  0  0  0  0  0  0
   63.1578   32.4722   48.5884 H   0  0  0  0  0  0  0  0  0  0  0  0
   63.6173   31.6976   47.0342 H   0  0  0  0  0  0  0  0  0  0  0  0
   62.5889   33.1704   47.0342 H   0  0  0  0  0  0  0  0  0  0  0  0
  1  2  1  0
  2  3  1  0
  3  4  2  0
  4  5  1  0
  5  6  1  0
  6  7  1  0
  7  8  2  0
  7  9  1  0
  5 10  2  0
 10 11  1  0
 10 12  1  0
 12 13  2  0
 13 14  1  0
 14 15  2  0
 15 16  1  0
 16 17  1  0
 17 18  2  0
 17 19  1  0
 19 20  1  0
 20 21  1  0
 21 22  2  0
 22 23  1  0
 23 24  2  0
 24 25  1  0
 24 26  1  0
 26 27  2  0
 16 28  2  0
 28 29  1  0
 28 30  1  0
 13  3  1  0
 30 14  1  0
 27 21  1  0
  1 31  1  0
  1 32  1  0
  1 33  1  0
  4 34  1  0
  6 35  1  0
  6 36  1  0
 12 37  1  0
 15 38  1  0
 20 39  1  0
 20 40  1  0
 22 41  1  0
 23 42  1  0
 25 43  1  0
 25 44  1  0
 25 45  1  0
 26 46  1  0
 27 47  1  0
 29 48  1  0
 29 49  1  0
 29 50  1  0
M  CHG  2   9  -1  19  -1
M  END
>  <UniqueID>  (26) 
24

>  <SMILES>  (26) 
COc1cc(CC(=O)[O-])c(F)cc1-c1cc(C(=O)[N-]Cc2ccc(C)cc2)c(C)s1

>  <Energy>  (26) 
77.58439901248428

>  <Genealogy>  (26) 
COc1cc(CC(=O)[O-])c(F)cc1-c1cc(C(=O)[N-]Cc2ccc(C)cc2)c(C)s1 (protonated)
COc1cc(CC(=O)[O-])c(F)cc1-c1cc(C(=O)[N-]Cc2ccc(C)cc2)c(C)s1 (3D coordinates assigned)
COc1cc(CC(=O)[O-])c(F)cc1-c1cc(C(=O)[N-]Cc2ccc(C)cc2)c(C)s1 (optimized conformer: 77.58439901248428 kcal/mol)

>  <smiles>  (26) 
COc1cc(CC(=O)O)c(F)cc1-c1cc(C(=O)NCc2ccc(C)cc2)c(C)s1

>  <score_type>  (26) 
oracle

>  <origin>  (26) 
adg

>  <m_score__min__energy>  (26) 
-12.24

>  <m_primary>  (26) 
energy

$$$$
26:0
     RDKit          3D

 66 69  0  0  0  0  0  0  0  0999 V2000
   60.0347   27.4836   50.4705 H   0  0  0  0  0  0  0  0  0  0  0  0
   60.5850   28.0490   49.7040 C   0  0  0  0  0  0  0  0  0  0  0  0
   61.3970   29.2060   50.1240 C   0  0  0  0  0  0  0  0  0  0  0  0
   62.3530   29.0130   50.9180 O   0  0  0  0  0  0  0  0  0  0  0  0
   61.1650   30.5350   49.6320 N   0  0  0  0  0  0  0  0  0  0  0  0
   62.1330   31.4150   49.0370 C   0  0  0  0  0  0  0  0  0  0  0  0
   62.0310   31.7980   47.6860 C   0  0  0  0  0  0  0  0  0  0  0  0
   61.2135   31.4016   47.0659 H   0  0  0  0  0  0  0  0  0  0  0  0
   62.9610   32.6780   47.1280 C   0  0  0  0  0  0  0  0  0  0  0  0
   62.8798   32.9633   46.0688 H   0  0  0  0  0  0  0  0  0  0  0  0
   63.9910   33.1950   47.9100 C   0  0  0  0  0  0  0  0  0  0  0  0
   64.7254   33.8831   47.4658 H   0  0  0  0  0  0  0  0  0  0  0  0
   64.0930   32.8410   49.2580 C   0  0  0  0  0  0  0  0  0  0  0  0
   64.9073   33.2530   49.8721 H   0  0  0  0  0  0  0  0  0  0  0  0
   63.1610   31.9620   49.8320 C   0  0  0  0  0  0  0  0  0  0  0  0
   63.2720   31.6320   51.2230 N   0  0  0  0  0  0  0  0  0  0  0  0
   62.6370   30.9200   51.6520 H   0  0  0  0  0  0  0  0  0  0  0  0
   63.9640   32.1040   51.8440 H   0  0  0  0  0  0  0  0  0  0  0  0
   60.4910   27.6590   48.4250 C   0  0  0  0  0  0  0  0  0  0  0  0
   61.1764   26.8769   48.0664 H   0  0  0  0  0  0  0  0  0  0  0  0
   59.5100   28.2280   47.4680 C   0  0  0  0  0  0  0  0  0  0  0  0
   59.6940   29.5460   47.0230 C   0  0  0  0  0  0  0  0  0  0  0  0
   60.5637   30.1238   47.3691 H   0  0  0  0  0  0  0  0  0  0  0  0
   58.7810   30.1270   46.1450 C   0  0  0  0  0  0  0  0  0  0  0  0
   58.9608   31.1439   45.7661 H   0  0  0  0  0  0  0  0  0  0  0  0
   57.6380   29.4290   45.7410 C   0  0  0  0  0  0  0  0  0  0  0  0
   56.6940   30.0360   44.9070 O   0  0  0  0  0  0  0  0  0  0  0  0
   56.8780   30.1390   43.4920 C   0  0  0  0  0  0  0  0  0  0  0  0
   57.6116   29.3856   43.1692 H   0  0  0  0  0  0  0  0  0  0  0  0
   55.9087   29.9700   43.0002 H   0  0  0  0  0  0  0  0  0  0  0  0
   57.3860   31.5320   43.1020 C   0  0  0  0  0  0  0  0  0  0  0  0
   58.2440   31.4247   42.4220 H   0  0  0  0  0  0  0  0  0  0  0  0
   56.5687   32.0776   42.6077 H   0  0  0  0  0  0  0  0  0  0  0  0
   57.8070   32.2940   44.2940 N   0  0  0  0  0  0  0  0  0  0  0  0
   58.7570   33.3770   43.9570 C   0  0  0  0  0  0  0  0  0  0  0  0
   59.5338   32.9878   43.2824 H   0  0  0  0  0  0  0  0  0  0  0  0
   58.2194   34.1973   43.4588 H   0  0  0  0  0  0  0  0  0  0  0  0
   59.4110   33.8980   45.2470 C   0  0  0  0  0  0  0  0  0  0  0  0
   60.2607   33.2503   45.5087 H   0  0  0  0  0  0  0  0  0  0  0  0
   59.7563   34.9287   45.0785 H   0  0  0  0  0  0  0  0  0  0  0  0
   58.4410   33.8970   46.3570 N   0  0  0  0  0  0  0  0  0  0  0  0
   58.8840   33.6340   47.7080 C   0  0  0  0  0  0  0  0  0  0  0  0
   58.3200   32.5770   48.4450 C   0  0  0  0  0  0  0  0  0  0  0  0
   57.5605   31.9325   47.9784 H   0  0  0  0  0  0  0  0  0  0  0  0
   58.7150   32.3370   49.7650 C   0  0  0  0  0  0  0  0  0  0  0  0
   58.2606   31.5116   50.3327 H   0  0  0  0  0  0  0  0  0  0  0  0
   59.6860   33.1440   50.3640 C   0  0  0  0  0  0  0  0  0  0  0  0
   60.1760   32.8410   52.0180 Cl  0  0  0  0  0  0  0  0  0  0  0  0
   60.2610   34.1940   49.6430 C   0  0  0  0  0  0  0  0  0  0  0  0
   61.0263   34.8283   50.1142 H   0  0  0  0  0  0  0  0  0  0  0  0
   59.8660   34.4410   48.3230 C   0  0  0  0  0  0  0  0  0  0  0  0
   60.3234   35.2689   47.7614 H   0  0  0  0  0  0  0  0  0  0  0  0
   57.0190   33.9680   46.0010 C   0  0  0  0  0  0  0  0  0  0  0  0
   56.4104   33.9308   46.9166 H   0  0  0  0  0  0  0  0  0  0  0  0
   56.8237   34.9091   45.4660 H   0  0  0  0  0  0  0  0  0  0  0  0
   56.6520   32.7800   45.0940 C   0  0  0  0  0  0  0  0  0  0  0  0
   56.2876   31.9551   45.7239 H   0  0  0  0  0  0  0  0  0  0  0  0
   55.8800   33.1241   44.3900 H   0  0  0  0  0  0  0  0  0  0  0  0
   57.4450   28.1010   46.1610 C   0  0  0  0  0  0  0  0  0  0  0  0
   56.3150   27.4130   45.6820 O   0  0  0  0  0  0  0  0  0  0  0  0
   56.1890   25.9970   45.6360 C   0  0  0  0  0  0  0  0  0  0  0  0
   56.1535   25.5986   46.6607 H   0  0  0  0  0  0  0  0  0  0  0  0
   55.2634   25.7283   45.1059 H   0  0  0  0  0  0  0  0  0  0  0  0
   57.0526   25.5691   45.1059 H   0  0  0  0  0  0  0  0  0  0  0  0
   58.3770   27.5100   47.0390 C   0  0  0  0  0  0  0  0  0  0  0  0
   58.2178   26.4802   47.3915 H   0  0  0  0  0  0  0  0  0  0  0  0
  1  2  1  0
  2  3  1  0
  3  4  2  0
  3  5  1  0
  5  6  1  0
  6  7  2  0
  7  8  1  0
  7  9  1  0
  9 10  1  0
  9 11  2  0
 11 12  1  0
 11 13  1  0
 13 14  1  0
 13 15  2  0
 15 16  1  0
 16 17  1  0
 16 18  1  0
  2 19  2  0
 19 20  1  0
 19 21  1  0
 21 22  2  0
 22 23  1  0
 22 24  1  0
 24 25  1  0
 24 26  2  0
 26 27  1  0
 27 28  1  0
 28 29  1  0
 28 30  1  0
 28 31  1  0
 31 32  1  0
 31 33  1  0
 31 34  1  0
 34 35  1  0
 35 36  1  0
 35 37  1  0
 35 38  1  0
 38 39  1  0
 38 40  1  0
 38 41  1  0
 41 42  1  0
 42 43  2  0
 43 44  1  0
 43 45  1  0
 45 46  1  0
 45 47  2  0
 47 48  1  0
 47 49  1  0
 49 50  1  0
 49 51  2  0
 51 52  1  0
 41 53  1  0
 53 54  1  0
 53 55  1  0
 53 56  1  0
 56 57  1  0
 56 58  1  0
 26 59  1  0
 59 60  1  0
 60 61  1  0
 61 62  1  0
 61 63  1  0
 61 64  1  0
 59 65  2  0
 65 66  1  0
 15  6  1  0
 65 21  1  0
 56 34  1  0
 51 42  1  0
M  CHG  1   5  -1
M  END
>  <UniqueID>  (27) 
25

>  <SMILES>  (27) 
COc1cc(/C=C/C(=O)[N-]c2ccccc2N)ccc1OCCN1CCN(c2ccc(Cl)cc2)CC1

>  <Energy>  (27) 
87.91979944494713

>  <Genealogy>  (27) 
COc1cc(C=CC(=O)[N-]c2ccccc2N)ccc1OCCN1CCN(c2ccc(Cl)cc2)CC1 (protonated)
COc1cc(/C=C/C(=O)[N-]c2ccccc2N)ccc1OCCN1CCN(c2ccc(Cl)cc2)CC1 (cis-trans isomerization)
COc1cc(/C=C/C(=O)[N-]c2ccccc2N)ccc1OCCN1CCN(c2ccc(Cl)cc2)CC1 (3D coordinates assigned)
COc1cc(/C=C/C(=O)[N-]c2ccccc2N)ccc1OCCN1CCN(c2ccc(Cl)cc2)CC1 (nonaromatic ring conformer: 87.91979944494713 kcal/mol)

>  <smiles>  (27) 
COc1cc(C=CC(=O)Nc2ccccc2N)ccc1OCCN1CCN(c2ccc(Cl)cc2)CC1

>  <score_type>  (27) 
oracle

>  <origin>  (27) 
adg

>  <m_score__min__energy>  (27) 
-11.85

>  <m_primary>  (27) 
energy

$$$$
27:0
     RDKit          3D

 40 43  0  0  1  0  0  0  0  0999 V2000
   56.8860   29.1920   42.8840 N   0  0  0  0  0  0  0  0  0  0  0  0
   56.5710   29.7170   44.4820 S   0  0  0  0  0  0  0  0  0  0  0  0
   55.1470   29.3520   44.8050 O   0  0  0  0  0  0  0  0  0  0  0  0
   56.7100   31.2060   44.6270 O   0  0  0  0  0  0  0  0  0  0  0  0
   57.6180   28.9180   45.6380 C   0  0  0  0  0  0  0  0  0  0  0  0
   57.8190   27.5530   45.6370 C   0  0  0  0  0  0  0  0  0  0  0  0
   58.6560   26.9300   46.5640 C   0  0  0  0  0  0  0  0  0  0  0  0
   59.3050   27.7010   47.5140 C   0  0  0  0  0  0  0  0  0  0  0  0
   59.1090   29.0660   47.5210 C   0  0  0  0  0  0  0  0  0  0  0  0
   59.7320   29.9390   48.4570 N   0  0  0  0  0  0  0  0  0  0  0  0
   60.3650   30.9880   48.1000 C   0  0  0  0  0  0  0  0  0  0  0  0
   59.6670   32.1390   47.8900 C   0  0  0  0  0  0  0  0  0  0  0  0
   60.2850   33.3290   47.4980 C   0  0  0  0  0  0  0  0  0  0  0  0
   59.5550   34.5260   47.2800 N   0  0  0  0  0  0  0  0  0  0  0  0
   59.0460   34.8600   45.9670 C   0  0  0  0  0  0  0  0  0  0  0  0
   57.7410   34.1650   45.6120 C   0  0  0  0  0  0  0  0  0  0  0  0
   58.9940   33.9090   44.8590 C   0  0  0  0  0  0  0  0  0  0  0  0
   61.6200   33.2620   47.3410 N   0  0  0  0  0  0  0  0  0  0  0  0
   62.5130   34.1660   46.9870 N   0  0  0  0  0  0  0  0  0  0  0  0
   63.7550   33.6770   46.9530 C   0  0  0  0  0  0  0  0  0  0  0  0
   63.6500   32.3540   47.3130 C   0  0  0  0  0  0  0  0  0  0  0  0
   62.3080   32.1140   47.5510 C   0  0  0  0  0  0  0  0  0  0  0  0
   61.6990   30.9690   47.9310 N   0  0  0  0  0  0  0  0  0  0  0  0
   58.2690   29.6810   46.5890 C   0  0  0  0  0  0  0  0  0  0  0  0
   56.6120   28.2030   42.8120 H   0  0  0  0  0  0  0  0  0  0  0  0
   57.8990   29.3620   42.6380 H   0  0  0  0  0  0  0  0  0  0  0  0
   57.3047   26.9380   44.8838 H   0  0  0  0  0  0  0  0  0  0  0  0
   58.7985   25.8395   46.5403 H   0  0  0  0  0  0  0  0  0  0  0  0
   59.9688   27.2302   48.2541 H   0  0  0  0  0  0  0  0  0  0  0  0
   58.5766   32.1310   48.0344 H   0  0  0  0  0  0  0  0  0  0  0  0
   59.4060   35.1470   48.1140 H   0  0  0  0  0  0  0  0  0  0  0  0
   59.4582   35.8778   46.0313 H   0  0  0  0  0  0  0  0  0  0  0  0
   57.3249   33.3929   46.2759 H   0  0  0  0  0  0  0  0  0  0  0  0
   56.7202   34.4867   45.3579 H   0  0  0  0  0  0  0  0  0  0  0  0
   59.4964   32.9351   44.9541 H   0  0  0  0  0  0  0  0  0  0  0  0
   59.2708   33.9578   43.7955 H   0  0  0  0  0  0  0  0  0  0  0  0
   64.6743   34.2212   46.6906 H   0  0  0  0  0  0  0  0  0  0  0  0
   64.4723   31.6281   47.3957 H   0  0  0  0  0  0  0  0  0  0  0  0
   62.2290   30.0900   48.0910 H   0  0  0  0  0  0  0  0  0  0  0  0
   58.1260   30.7714   46.6121 H   0  0  0  0  0  0  0  0  0  0  0  0
  1  2  1  0
  2  3  2  0
  2  4  2  0
  2  5  1  0
  5  6  2  0
  6  7  1  0
  7  8  2  0
  8  9  1  0
  9 10  1  0
 10 11  2  0
 11 12  1  0
 12 13  2  0
 13 14  1  0
 14 15  1  0
 15 16  1  0
 16 17  1  0
 13 18  1  0
 18 19  1  0
 19 20  2  0
 20 21  1  0
 21 22  2  0
 22 23  1  0
  9 24  2  0
 24  5  1  0
 23 11  1  0
 17 15  1  0
 22 18  1  0
  1 25  1  0
  1 26  1  0
  6 27  1  0
  7 28  1  0
  8 29  1  0
 12 30  1  0
 14 31  1  0
 15 32  1  0
 16 33  1  0
 16 34  1  0
 17 35  1  0
 17 36  1  0
 20 37  1  0
 21 38  1  0
 23 39  1  0
 24 40  1  0
M  END
>  <smiles>  (28) 
NS(=O)(=O)c1cccc(N=c2cc(NC3CC3)n3nccc3[nH]2)c1

>  <score_type>  (28) 
oracle

>  <origin>  (28) 
adg

>  <m_score__min__energy>  (28) 
-8.8100000000000005

>  <m_primary>  (28) 
energy

$$$$
28:0
     RDKit          3D

 45 47  0  0  0  0  0  0  0  0999 V2000
   55.9250   20.5360   44.3290 N   0  0  0  0  0  0  0  0  0  0  0  0
   56.6340   21.8290   43.4260 S   0  0  0  0  0  0  0  0  0  0  0  0
   58.0290   21.4480   43.0110 O   0  0  0  0  0  0  0  0  0  0  0  0
   55.8180   22.0860   42.1890 O   0  0  0  0  0  0  0  0  0  0  0  0
   56.6830   23.2810   44.4220 C   0  0  0  0  0  0  0  0  0  0  0  0
   55.4990   23.9570   44.7440 C   0  0  0  0  0  0  0  0  0  0  0  0
   55.5380   25.1070   45.5370 C   0  0  0  0  0  0  0  0  0  0  0  0
   56.7650   25.5890   46.0240 C   0  0  0  0  0  0  0  0  0  0  0  0
   56.8610   26.8180   46.7550 N   0  0  0  0  0  0  0  0  0  0  0  0
   57.9440   27.7550   46.7150 C   0  0  0  0  0  0  0  0  0  0  0  0
   58.1700   28.5220   47.6890 O   0  0  0  0  0  0  0  0  0  0  0  0
   58.8350   27.7880   45.5120 C   0  0  0  0  0  0  0  0  0  0  0  0
   57.9410   28.2410   43.9760 S   0  0  0  0  0  0  0  0  0  0  0  0
   57.5100   29.9020   44.4910 C   0  0  0  0  0  0  0  0  0  0  0  0
   56.2510   30.3760   44.5020 N   0  0  0  0  0  0  0  0  0  0  0  0
   56.3380   31.6450   44.8700 N   0  0  0  0  0  0  0  0  0  0  0  0
   57.6460   31.8880   45.0690 C   0  0  0  0  0  0  0  0  0  0  0  0
   58.2030   33.2290   45.4120 C   0  0  0  0  0  0  0  0  0  0  0  0
   59.4920   33.0560   46.0770 N   0  0  0  0  0  0  0  0  0  0  0  0
   60.1120   34.1040   46.8370 C   0  0  0  0  0  0  0  0  0  0  0  0
   59.5870   35.2500   46.8730 O   0  0  0  0  0  0  0  0  0  0  0  0
   61.3320   33.8420   47.6330 C   0  0  0  0  0  0  0  0  0  0  0  0
   62.5710   33.7240   46.9720 C   0  0  0  0  0  0  0  0  0  0  0  0
   62.6530   33.8670   45.6240 F   0  0  0  0  0  0  0  0  0  0  0  0
   63.7410   33.4910   47.7000 C   0  0  0  0  0  0  0  0  0  0  0  0
   63.6920   33.3710   49.0880 C   0  0  0  0  0  0  0  0  0  0  0  0
   62.4720   33.4730   49.7550 C   0  0  0  0  0  0  0  0  0  0  0  0
   61.2900   33.6990   49.0400 C   0  0  0  0  0  0  0  0  0  0  0  0
   59.7770   33.7100   49.9410 Cl  0  0  0  0  0  0  0  0  0  0  0  0
   58.3750   30.8210   44.8480 O   0  0  0  0  0  0  0  0  0  0  0  0
   57.9430   24.9020   45.7090 C   0  0  0  0  0  0  0  0  0  0  0  0
   57.9050   23.7530   44.9160 C   0  0  0  0  0  0  0  0  0  0  0  0
   56.4850   19.6790   44.1220 H   0  0  0  0  0  0  0  0  0  0  0  0
   54.5348   23.5811   44.3712 H   0  0  0  0  0  0  0  0  0  0  0  0
   54.6053   25.6367   45.7808 H   0  0  0  0  0  0  0  0  0  0  0  0
   59.6319   28.5262   45.6853 H   0  0  0  0  0  0  0  0  0  0  0  0
   59.2398   26.7748   45.3724 H   0  0  0  0  0  0  0  0  0  0  0  0
   58.3390   33.8174   44.4926 H   0  0  0  0  0  0  0  0  0  0  0  0
   57.5089   33.7580   46.0816 H   0  0  0  0  0  0  0  0  0  0  0  0
   59.8610   32.0820   46.1620 H   0  0  0  0  0  0  0  0  0  0  0  0
   64.7040   33.4020   47.1759 H   0  0  0  0  0  0  0  0  0  0  0  0
   64.6167   33.1957   49.6574 H   0  0  0  0  0  0  0  0  0  0  0  0
   62.4380   33.3753   50.8501 H   0  0  0  0  0  0  0  0  0  0  0  0
   58.9072   25.2703   46.0893 H   0  0  0  0  0  0  0  0  0  0  0  0
   58.8365   23.2181   44.6792 H   0  0  0  0  0  0  0  0  0  0  0  0
  1  2  1  0
  2  3  2  0
  2  4  2  0
  2  5  1  0
  5  6  2  0
  6  7  1  0
  7  8  2  0
  8  9  1  0
  9 10  1  0
 10 11  2  0
 10 12  1  0
 12 13  1  0
 13 14  1  0
 14 15  2  0
 15 16  1  0
 16 17  2  0
 17 18  1  0
 18 19  1  0
 19 20  1  0
 20 21  2  0
 20 22  1  0
 22 23  2  0
 23 24  1  0
 23 25  1  0
 25 26  2  0
 26 27  1  0
 27 28  2  0
 28 29  1  0
 17 30  1  0
  8 31  1  0
 31 32  2  0
 32  5  1  0
 30 14  1  0
 28 22  1  0
  1 33  1  0
  6 34  1  0
  7 35  1  0
 12 36  1  0
 12 37  1  0
 18 38  1  0
 18 39  1  0
 19 40  1  0
 25 41  1  0
 26 42  1  0
 27 43  1  0
 31 44  1  0
 32 45  1  0
M  CHG  2   1  -1   9  -1
M  END
>  <UniqueID>  (29) 
26

>  <SMILES>  (29) 
[NH-]S(=O)(=O)c1ccc([N-]C(=O)CSc2nnc(CNC(=O)c3c(F)cccc3Cl)o2)cc1

>  <Energy>  (29) 
79.53955058395549

>  <Genealogy>  (29) 
[NH-]S(=O)(=O)c1ccc([N-]C(=O)CSc2nnc(CNC(=O)c3c(F)cccc3Cl)o2)cc1 (protonated)
[NH-]S(=O)(=O)c1ccc([N-]C(=O)CSc2nnc(CNC(=O)c3c(F)cccc3Cl)o2)cc1 (3D coordinates assigned)
[NH-]S(=O)(=O)c1ccc([N-]C(=O)CSc2nnc(CNC(=O)c3c(F)cccc3Cl)o2)cc1 (optimized conformer: 79.53955058395549 kcal/mol)

>  <smiles>  (29) 
NS(=O)(=O)c1ccc(NC(=O)CSc2nnc(CNC(=O)c3c(F)cccc3Cl)o2)cc1

>  <score_type>  (29) 
oracle

>  <origin>  (29) 
adg

>  <m_score__min__energy>  (29) 
-12.01

>  <m_primary>  (29) 
energy

$$$$
29:0
     RDKit          3D

 57 60  0  0  0  0  0  0  0  0999 V2000
   58.1670   32.7180   42.6260 C   0  0  0  0  0  0  0  0  0  0  0  0
   57.7460   31.6040   43.5270 C   0  0  0  0  0  0  0  0  0  0  0  0
   57.8930   30.3330   43.2520 O   0  0  0  0  0  0  0  0  0  0  0  0
   57.4070   29.6580   44.2710 C   0  0  0  0  0  0  0  0  0  0  0  0
   57.3890   28.1840   44.3440 C   0  0  0  0  0  0  0  0  0  0  0  0
   56.9450   27.5390   45.5100 C   0  0  0  0  0  0  0  0  0  0  0  0
   56.9150   26.1440   45.5780 C   0  0  0  0  0  0  0  0  0  0  0  0
   57.3310   25.3730   44.4850 C   0  0  0  0  0  0  0  0  0  0  0  0
   57.2580   23.6160   44.5740 S   0  0  0  0  0  0  0  0  0  0  0  0
   56.4640   23.0050   43.1650 N   0  0  0  0  0  0  0  0  0  0  0  0
   58.6470   23.0450   44.6490 O   0  0  0  0  0  0  0  0  0  0  0  0
   56.5000   23.2060   45.8050 O   0  0  0  0  0  0  0  0  0  0  0  0
   57.7730   26.0110   43.3180 C   0  0  0  0  0  0  0  0  0  0  0  0
   57.8060   27.4070   43.2490 C   0  0  0  0  0  0  0  0  0  0  0  0
   56.9280   30.4630   45.2460 N   0  0  0  0  0  0  0  0  0  0  0  0
   57.1440   31.7020   44.7670 C   0  0  0  0  0  0  0  0  0  0  0  0
   56.7470   32.9650   45.4890 C   0  0  0  0  0  0  0  0  0  0  0  0
   57.7540   33.4100   46.4750 N   0  0  0  0  0  0  0  0  0  0  0  0
   58.6930   34.4430   45.9600 C   0  0  0  0  0  0  0  0  0  0  0  0
   60.1380   33.9350   45.8460 C   0  0  0  0  0  0  0  0  0  0  0  0
   60.6620   33.4140   47.1960 C   0  0  0  0  0  0  0  0  0  0  0  0
   59.5500   32.7870   48.0710 C   0  0  2  0  0  0  0  0  0  0  0  0
   60.0950   31.6790   48.9300 C   0  0  0  0  0  0  0  0  0  0  0  0
   61.0510   31.9160   49.7160 O   0  0  0  0  0  0  0  0  0  0  0  0
   59.5780   30.3480   48.7930 N   0  0  0  0  0  0  0  0  0  0  0  0
   59.8670   29.4400   47.7210 C   0  0  0  0  0  0  0  0  0  0  0  0
   60.3860   29.8850   46.4900 C   0  0  0  0  0  0  0  0  0  0  0  0
   60.6660   28.9690   45.4720 C   0  0  0  0  0  0  0  0  0  0  0  0
   60.4390   27.6050   45.6750 C   0  0  0  0  0  0  0  0  0  0  0  0
   59.9480   27.1530   46.9040 C   0  0  0  0  0  0  0  0  0  0  0  0
   59.7380   25.8300   47.1050 F   0  0  0  0  0  0  0  0  0  0  0  0
   59.6750   28.0670   47.9270 C   0  0  0  0  0  0  0  0  0  0  0  0
   58.3860   32.2850   47.2000 C   0  0  0  0  0  0  0  0  0  0  0  0
   58.4916   33.5768   43.2318 H   0  0  0  0  0  0  0  0  0  0  0  0
   58.9999   32.3814   41.9912 H   0  0  0  0  0  0  0  0  0  0  0  0
   57.3196   33.0164   41.9912 H   0  0  0  0  0  0  0  0  0  0  0  0
   56.6190   28.1357   46.3746 H   0  0  0  0  0  0  0  0  0  0  0  0
   56.5628   25.6484   46.4947 H   0  0  0  0  0  0  0  0  0  0  0  0
   56.6530   23.6810   42.3900 H   0  0  0  0  0  0  0  0  0  0  0  0
   56.9410   22.1120   42.9090 H   0  0  0  0  0  0  0  0  0  0  0  0
   58.0949   25.4115   42.4537 H   0  0  0  0  0  0  0  0  0  0  0  0
   58.1605   27.9006   42.3321 H   0  0  0  0  0  0  0  0  0  0  0  0
   56.6077   33.7640   44.7459 H   0  0  0  0  0  0  0  0  0  0  0  0
   55.8202   32.7498   46.0410 H   0  0  0  0  0  0  0  0  0  0  0  0
   58.3530   34.7603   44.9631 H   0  0  0  0  0  0  0  0  0  0  0  0
   58.6922   35.2765   46.6779 H   0  0  0  0  0  0  0  0  0  0  0  0
   60.1725   33.1181   45.1101 H   0  0  0  0  0  0  0  0  0  0  0  0
   60.7746   34.7746   45.5300 H   0  0  0  0  0  0  0  0  0  0  0  0
   61.4299   32.6503   47.0035 H   0  0  0  0  0  0  0  0  0  0  0  0
   61.0701   34.2745   47.7465 H   0  0  0  0  0  0  0  0  0  0  0  0
   59.1639   33.5710   48.7391 H   0  0  0  0  0  0  0  0  0  0  0  0
   60.5717   30.9572   46.3289 H   0  0  0  0  0  0  0  0  0  0  0  0
   61.0655   29.3222   44.5099 H   0  0  0  0  0  0  0  0  0  0  0  0
   60.6465   26.8869   44.8680 H   0  0  0  0  0  0  0  0  0  0  0  0
   59.3074   27.7061   48.8989 H   0  0  0  0  0  0  0  0  0  0  0  0
   58.7685   31.5550   46.4715 H   0  0  0  0  0  0  0  0  0  0  0  0
   57.6335   31.8154   47.8506 H   0  0  0  0  0  0  0  0  0  0  0  0
  1  2  1  0
  2  3  1  0
  3  4  1  0
  4  5  1  0
  5  6  2  0
  6  7  1  0
  7  8  2  0
  8  9  1  0
  9 10  1  0
  9 11  2  0
  9 12  2  0
  8 13  1  0
 13 14  2  0
  4 15  2  0
 15 16  1  0
 16 17  1  0
 17 18  1  0
 18 19  1  0
 19 20  1  0
 20 21  1  0
 21 22  1  0
 22 23  1  0
 23 24  2  0
 23 25  1  0
 25 26  1  0
 26 27  2  0
 27 28  1  0
 28 29  2  0
 29 30  1  0
 30 31  1  0
 30 32  2  0
 22 33  1  0
 16  2  2  0
 33 18  1  0
 14  5  1  0
 32 26  1  0
  1 34  1  0
  1 35  1  0
  1 36  1  0
  6 37  1  0
  7 38  1  0
 10 39  1  0
 10 40  1  0
 13 41  1  0
 14 42  1  0
 17 43  1  0
 17 44  1  0
 19 45  1  0
 19 46  1  0
 20 47  1  0
 20 48  1  0
 21 49  1  0
 21 50  1  0
 22 51  1  1
 27 52  1  0
 28 53  1  0
 29 54  1  0
 32 55  1  0
 33 56  1  0
 33 57  1  0
M  CHG  1  25  -1
M  END
>  <UniqueID>  (30) 
27

>  <SMILES>  (30) 
Cc1oc(-c2ccc(S(N)(=O)=O)cc2)nc1CN1CCC[C@H](C(=O)[N-]c2cccc(F)c2)C1

>  <Energy>  (30) 
98.5959188133084

>  <Genealogy>  (30) 
Cc1oc(-c2ccc(S(N)(=O)=O)cc2)nc1CN1CCCC(C(=O)[N-]c2cccc(F)c2)C1 (protonated)
Cc1oc(-c2ccc(S(N)(=O)=O)cc2)nc1CN1CCC[C@H](C(=O)[N-]c2cccc(F)c2)C1 (chirality)
Cc1oc(-c2ccc(S(N)(=O)=O)cc2)nc1CN1CCC[C@H](C(=O)[N-]c2cccc(F)c2)C1 (3D coordinates assigned)
Cc1oc(-c2ccc(S(N)(=O)=O)cc2)nc1CN1CCC[C@H](C(=O)[N-]c2cccc(F)c2)C1 (nonaromatic ring conformer: 98.5959188133084 kcal/mol)

>  <smiles>  (30) 
Cc1oc(-c2ccc(S(N)(=O)=O)cc2)nc1CN1CCCC(C(=O)Nc2cccc(F)c2)C1

>  <score_type>  (30) 
oracle

>  <origin>  (30) 
adg

>  <m_score__min__energy>  (30) 
-10.869999999999999

>  <m_primary>  (30) 
energy

$$$$
30:0
     RDKit          3D

 49 52  0  0  0  0  0  0  0  0999 V2000
   61.2880   26.4580   47.1860 N   0  0  0  0  0  0  0  0  0  0  0  0
   60.5560   27.5500   47.7540 C   0  0  0  0  0  0  0  0  0  0  0  0
   60.7820   27.8950   48.9920 N   0  0  0  0  0  0  0  0  0  0  0  0
   59.5620   28.2860   46.9290 C   0  0  0  0  0  0  0  0  0  0  0  0
   59.9210   29.4900   46.2990 C   0  0  0  0  0  0  0  0  0  0  0  0
   58.9980   30.1820   45.5110 C   0  0  0  0  0  0  0  0  0  0  0  0
   57.7020   29.6830   45.3390 C   0  0  0  0  0  0  0  0  0  0  0  0
   56.5840   30.5250   44.2700 S   0  0  0  0  0  0  0  0  0  0  0  0
   56.9550   30.3250   42.8270 O   0  0  0  0  0  0  0  0  0  0  0  0
   55.2010   29.9790   44.5010 O   0  0  0  0  0  0  0  0  0  0  0  0
   56.5980   32.2170   44.6440 N   0  0  0  0  0  0  0  0  0  0  0  0
   57.6200   32.8600   45.4140 C   0  0  0  0  0  0  0  0  0  0  0  0
   57.3900   33.1050   46.7730 C   0  0  0  0  0  0  0  0  0  0  0  0
   58.4030   33.6320   47.5790 C   0  0  0  0  0  0  0  0  0  0  0  0
   59.6600   33.9290   47.0290 C   0  0  0  0  0  0  0  0  0  0  0  0
   60.7370   34.4060   47.8550 N   0  0  0  0  0  0  0  0  0  0  0  0
   61.7810   33.5560   48.3610 C   0  0  0  0  0  0  0  0  0  0  0  0
   63.1280   33.9250   48.1800 C   0  0  0  0  0  0  0  0  0  0  0  0
   64.1590   33.1470   48.7050 C   0  0  0  0  0  0  0  0  0  0  0  0
   63.8670   31.9930   49.4320 C   0  0  0  0  0  0  0  0  0  0  0  0
   62.5390   31.6110   49.6380 C   0  0  0  0  0  0  0  0  0  0  0  0
   62.2670   30.4870   50.3530 N   0  0  0  0  0  0  0  0  0  0  0  0
   60.9940   30.0670   50.5780 C   0  0  0  0  0  0  0  0  0  0  0  0
   60.7890   29.0210   51.2470 O   0  0  0  0  0  0  0  0  0  0  0  0
   59.9170   30.7920   50.0650 C   0  0  0  0  0  0  0  0  0  0  0  0
   60.1580   31.9490   49.3230 C   0  0  0  0  0  0  0  0  0  0  0  0
   61.4800   32.3880   49.1050 C   0  0  0  0  0  0  0  0  0  0  0  0
   59.8640   33.7600   45.6510 C   0  0  0  0  0  0  0  0  0  0  0  0
   58.8530   33.2250   44.8470 C   0  0  0  0  0  0  0  0  0  0  0  0
   57.3320   28.4870   45.9700 C   0  0  0  0  0  0  0  0  0  0  0  0
   58.2560   27.7930   46.7570 C   0  0  0  0  0  0  0  0  0  0  0  0
   62.0250   25.9670   47.7410 H   0  0  0  0  0  0  0  0  0  0  0  0
   61.0810   26.1140   46.2220 H   0  0  0  0  0  0  0  0  0  0  0  0
   60.2430   27.4880   49.7870 H   0  0  0  0  0  0  0  0  0  0  0  0
   61.5060   28.6140   49.2240 H   0  0  0  0  0  0  0  0  0  0  0  0
   60.9373   29.8908   46.4275 H   0  0  0  0  0  0  0  0  0  0  0  0
   59.2914   31.1234   45.0235 H   0  0  0  0  0  0  0  0  0  0  0  0
   56.4054   32.8812   47.2094 H   0  0  0  0  0  0  0  0  0  0  0  0
   58.2148   33.8145   48.6473 H   0  0  0  0  0  0  0  0  0  0  0  0
   60.8510   35.4400   47.9570 H   0  0  0  0  0  0  0  0  0  0  0  0
   63.3698   34.8387   47.6172 H   0  0  0  0  0  0  0  0  0  0  0  0
   65.2060   33.4442   48.5454 H   0  0  0  0  0  0  0  0  0  0  0  0
   64.6840   31.3824   49.8440 H   0  0  0  0  0  0  0  0  0  0  0  0
   58.8858   30.4537   50.2444 H   0  0  0  0  0  0  0  0  0  0  0  0
   59.3146   32.5199   48.9072 H   0  0  0  0  0  0  0  0  0  0  0  0
   60.8248   34.0501   45.2008 H   0  0  0  0  0  0  0  0  0  0  0  0
   59.0230   33.0895   43.7687 H   0  0  0  0  0  0  0  0  0  0  0  0
   56.3123   28.0937   45.8456 H   0  0  0  0  0  0  0  0  0  0  0  0
   57.9590   26.8534   47.2458 H   0  0  0  0  0  0  0  0  0  0  0  0
  1  2  1  0
  2  3  2  0
  2  4  1  0
  4  5  2  0
  5  6  1  0
  6  7  2  0
  7  8  1  0
  8  9  2  0
  8 10  2  0
  8 11  1  0
 11 12  1  0
 12 13  2  0
 13 14  1  0
 14 15  2  0
 15 16  1  0
 16 17  1  0
 17 18  2  0
 18 19  1  0
 19 20  2  0
 20 21  1  0
 21 22  1  0
 22 23  1  0
 23 24  2  0
 23 25  1  0
 25 26  2  0
 26 27  1  0
 15 28  1  0
 28 29  2  0
  7 30  1  0
 30 31  2  0
 31  4  1  0
 29 12  1  0
 27 17  1  0
 27 21  2  0
  1 32  1  0
  1 33  1  0
  3 34  1  0
  3 35  1  0
  5 36  1  0
  6 37  1  0
 13 38  1  0
 14 39  1  0
 16 40  1  0
 18 41  1  0
 19 42  1  0
 20 43  1  0
 25 44  1  0
 26 45  1  0
 28 46  1  0
 29 47  1  0
 30 48  1  0
 31 49  1  0
M  CHG  3   3   1  11  -1  22  -1
M  END
>  <UniqueID>  (31) 
28

>  <SMILES>  (31) 
NC(=[NH2+])c1ccc(S(=O)(=O)[N-]c2ccc(Nc3cccc4[n-]c(=O)ccc34)cc2)cc1

>  <Energy>  (31) 
71.1877420193555

>  <Genealogy>  (31) 
NC(=[NH2+])c1ccc(S(=O)(=O)[N-]c2ccc(Nc3cccc4[n-]c(=O)ccc34)cc2)cc1 (protonated)
NC(=[NH2+])c1ccc(S(=O)(=O)[N-]c2ccc(Nc3cccc4[n-]c(=O)ccc34)cc2)cc1 (3D coordinates assigned)
NC(=[NH2+])c1ccc(S(=O)(=O)[N-]c2ccc(Nc3cccc4[n-]c(=O)ccc34)cc2)cc1 (optimized conformer: 71.1877420193555 kcal/mol)

>  <smiles>  (31) 
N=C(N)c1ccc(S(=O)(=O)Nc2ccc(Nc3cccc4[nH]c(=O)ccc34)cc2)cc1

>  <score_type>  (31) 
oracle

>  <origin>  (31) 
adg

>  <m_score__min__energy>  (31) 
-10.09

>  <m_primary>  (31) 
energy

$$$$
31:0
     RDKit          3D

 41 43  0  0  0  0  0  0  0  0999 V2000
   60.1991   31.0182   45.0314 H   0  0  0  0  0  0  0  0  0  0  0  0
   59.1620   30.7740   45.3050 C   0  0  0  0  0  0  0  0  0  0  0  0
   58.3110   31.7830   45.7640 O   0  0  0  0  0  0  0  0  0  0  0  0
   58.0760   32.9690   45.0620 C   0  0  0  0  0  0  0  0  0  0  0  0
   58.4320   33.0920   43.8580 O   0  0  0  0  0  0  0  0  0  0  0  0
   57.3720   34.0990   45.7440 C   0  0  0  0  0  0  0  0  0  0  0  0
   57.0341   34.8233   44.9882 H   0  0  0  0  0  0  0  0  0  0  0  0
   56.5106   33.6977   46.2980 H   0  0  0  0  0  0  0  0  0  0  0  0
   58.2470   34.7540   46.6640 O   0  0  0  0  0  0  0  0  0  0  0  0
   59.5310   34.3090   47.0200 C   0  0  0  0  0  0  0  0  0  0  0  0
   59.7350   33.8570   48.3310 C   0  0  0  0  0  0  0  0  0  0  0  0
   58.9008   33.8682   49.0479 H   0  0  0  0  0  0  0  0  0  0  0  0
   60.9900   33.3920   48.7350 C   0  0  0  0  0  0  0  0  0  0  0  0
   61.1401   33.0409   49.7666 H   0  0  0  0  0  0  0  0  0  0  0  0
   62.0540   33.3730   47.8290 C   0  0  0  0  0  0  0  0  0  0  0  0
   63.7680   32.7380   48.3800 Br  0  0  0  0  0  0  0  0  0  0  0  0
   61.8660   33.8280   46.5210 C   0  0  0  0  0  0  0  0  0  0  0  0
   62.7045   33.8159   45.8092 H   0  0  0  0  0  0  0  0  0  0  0  0
   60.6120   34.2990   46.1160 C   0  0  0  0  0  0  0  0  0  0  0  0
   60.4695   34.6629   45.0878 H   0  0  0  0  0  0  0  0  0  0  0  0
   58.7250   29.5090   45.1950 C   0  0  0  0  0  0  0  0  0  0  0  0
   59.5910   28.4840   44.5220 C   0  0  0  0  0  0  0  0  0  0  0  0
   60.3284   28.9928   43.8838 H   0  0  0  0  0  0  0  0  0  0  0  0
   60.1084   27.8890   45.2891 H   0  0  0  0  0  0  0  0  0  0  0  0
   58.5720   27.3830   43.5020 S   0  0  0  0  0  0  0  0  0  0  0  0
   57.3860   26.7910   44.7910 C   0  0  1  0  0  0  0  0  0  0  0  0
   56.4067   26.8439   44.2929 H   0  0  0  0  0  0  0  0  0  0  0  0
   57.7450   25.3800   45.2220 C   0  0  0  0  0  0  0  0  0  0  0  0
   56.8428   24.8456   45.5543 H   0  0  0  0  0  0  0  0  0  0  0  0
   58.1843   24.8146   44.3869 H   0  0  0  0  0  0  0  0  0  0  0  0
   58.9140   25.5260   46.5840 S   0  0  0  0  0  0  0  0  0  0  0  0
   58.1840   27.1270   47.0640 C   0  0  0  0  0  0  0  0  0  0  0  0
   57.6169   26.9992   47.9979 H   0  0  0  0  0  0  0  0  0  0  0  0
   58.9955   27.8561   47.2052 H   0  0  0  0  0  0  0  0  0  0  0  0
   57.2730   27.6290   46.0070 N   0  0  1  0  0  0  0  0  0  0  0  0
   56.3040   27.4630   46.3760 H   0  0  0  0  0  0  0  0  0  0  0  0
   57.3890   29.0960   45.7920 C   0  0  2  0  0  0  0  0  0  0  0  0
   57.3413   29.5611   46.7877 H   0  0  0  0  0  0  0  0  0  0  0  0
   56.2360   29.6140   44.9620 C   0  0  0  0  0  0  0  0  0  0  0  0
   55.1600   28.9670   44.8670 O   0  0  0  0  0  0  0  0  0  0  0  0
   56.3430   30.8520   44.3380 O   0  0  0  0  0  0  0  0  0  0  0  0
  1  2  1  0
  2  3  1  0
  3  4  1  0
  4  5  2  0
  4  6  1  0
  6  7  1  0
  6  8  1  0
  6  9  1  0
  9 10  1  0
 10 11  2  0
 11 12  1  0
 11 13  1  0
 13 14  1  0
 13 15  2  0
 15 16  1  0
 15 17  1  0
 17 18  1  0
 17 19  2  0
 19 20  1  0
  2 21  2  0
 21 22  1  0
 22 23  1  0
 22 24  1  0
 22 25  1  0
 25 26  1  0
 26 27  1  6
 26 28  1  0
 28 29  1  0
 28 30  1  0
 28 31  1  0
 31 32  1  0
 32 33  1  0
 32 34  1  0
 32 35  1  0
 35 36  1  1
 35 37  1  0
 37 38  1  1
 37 39  1  0
 39 40  2  0
 39 41  1  0
 19 10  1  0
 37 21  1  0
 35 26  1  0
M  CHG  2  35   1  41  -1
M  END
>  <UniqueID>  (32) 
29

>  <SMILES>  (32) 
O=C(COc1ccc(Br)cc1)O/C=C1/CS[C@H]2CSC[N@H+]2C1C(=O)[O-]

>  <Energy>  (32) 
48.25889190515185

>  <Genealogy>  (32) 
O=C(COc1ccc(Br)cc1)OC=C1CSC2CSC[NH+]2C1C(=O)[O-] (protonated)
O=C(COc1ccc(Br)cc1)OC=C1CS[C@H]2CSC[N@H+]2C1C(=O)[O-] (chirality)
O=C(COc1ccc(Br)cc1)O/C=C1/CS[C@H]2CSC[N@H+]2C1C(=O)[O-] (cis-trans isomerization)
O=C(COc1ccc(Br)cc1)O/C=C1/CS[C@H]2CSC[N@H+]2C1C(=O)[O-] (3D coordinates assigned)
O=C(COc1ccc(Br)cc1)O/C=C1/CS[C@H]2CSC[N@H+]2C1C(=O)[O-] (nonaromatic ring conformer: 48.25889190515185 kcal/mol)

>  <smiles>  (32) 
O=C(COc1ccc(Br)cc1)OC=C1CSC2CSCN2C1C(=O)O

>  <score_type>  (32) 
oracle

>  <origin>  (32) 
adg

>  <m_score__min__energy>  (32) 
-9.3399999999999999

>  <m_primary>  (32) 
energy

$$$$
32:0
     RDKit          3D

 39 41  0  0  0  0  0  0  0  0999 V2000
   55.5600   25.0950   46.6150 O   0  0  0  0  0  0  0  0  0  0  0  0
   56.8050   25.2560   46.3690 C   0  0  0  0  0  0  0  0  0  0  0  0
   57.7690   24.2100   46.7990 C   0  0  0  0  0  0  0  0  0  0  0  0
   56.9670   22.6190   46.4230 S   0  0  0  0  0  0  0  0  0  0  0  0
   56.7090   22.5140   44.6510 C   0  0  0  0  0  0  0  0  0  0  0  0
   56.3190   21.4540   43.9080 N   0  0  0  0  0  0  0  0  0  0  0  0
   56.2770   21.8610   42.6270 C   0  0  0  0  0  0  0  0  0  0  0  0
   56.6350   23.1410   42.5870 N   0  0  0  0  0  0  0  0  0  0  0  0
   56.9010   23.5620   43.7900 N   0  0  0  0  0  0  0  0  0  0  0  0
   57.1940   26.4720   45.6780 C   0  0  0  0  0  0  0  0  0  0  0  0
   57.0250   27.6620   46.3100 C   0  0  0  0  0  0  0  0  0  0  0  0
   57.4170   28.8210   45.6790 C   0  0  0  0  0  0  0  0  0  0  0  0
   57.9860   28.7900   44.3960 C   0  0  0  0  0  0  0  0  0  0  0  0
   58.3850   30.0380   43.8720 N   0  0  0  0  0  0  0  0  0  0  0  0
   57.4900   31.4940   43.9300 S   0  0  0  0  0  0  0  0  0  0  0  0
   56.1010   31.2010   44.4420 O   0  0  0  0  0  0  0  0  0  0  0  0
   57.3790   32.0830   42.5440 O   0  0  0  0  0  0  0  0  0  0  0  0
   58.3010   32.6180   44.9950 C   0  0  0  0  0  0  0  0  0  0  0  0
   58.6240   32.1760   46.2630 C   0  0  0  0  0  0  0  0  0  0  0  0
   59.2930   32.9860   47.1600 C   0  0  0  0  0  0  0  0  0  0  0  0
   59.6410   34.2780   46.7510 C   0  0  0  0  0  0  0  0  0  0  0  0
   59.3190   34.7290   45.4750 C   0  0  0  0  0  0  0  0  0  0  0  0
   58.6480   33.9070   44.5840 C   0  0  0  0  0  0  0  0  0  0  0  0
   58.1570   27.5810   43.7540 C   0  0  0  0  0  0  0  0  0  0  0  0
   57.7530   26.4110   44.4070 C   0  0  0  0  0  0  0  0  0  0  0  0
   58.7126   24.3053   46.2418 H   0  0  0  0  0  0  0  0  0  0  0  0
   58.0155   24.2987   47.8673 H   0  0  0  0  0  0  0  0  0  0  0  0
   55.9953   21.2423   41.7622 H   0  0  0  0  0  0  0  0  0  0  0  0
   56.7140   23.7820   41.7420 H   0  0  0  0  0  0  0  0  0  0  0  0
   56.5797   27.6994   47.3152 H   0  0  0  0  0  0  0  0  0  0  0  0
   57.2822   29.7867   46.1882 H   0  0  0  0  0  0  0  0  0  0  0  0
   59.3410   30.0640   43.3940 H   0  0  0  0  0  0  0  0  0  0  0  0
   58.3423   31.1565   46.5653 H   0  0  0  0  0  0  0  0  0  0  0  0
   59.5452   32.6252   48.1681 H   0  0  0  0  0  0  0  0  0  0  0  0
   60.1745   34.9438   47.4453 H   0  0  0  0  0  0  0  0  0  0  0  0
   59.5998   35.7480   45.1705 H   0  0  0  0  0  0  0  0  0  0  0  0
   58.3940   34.2621   43.5743 H   0  0  0  0  0  0  0  0  0  0  0  0
   58.6020   27.5375   42.7490 H   0  0  0  0  0  0  0  0  0  0  0  0
   57.8786   25.4371   43.9113 H   0  0  0  0  0  0  0  0  0  0  0  0
  1  2  2  0
  2  3  1  0
  3  4  1  0
  4  5  1  0
  5  6  1  0
  6  7  2  0
  7  8  1  0
  8  9  1  0
  2 10  1  0
 10 11  2  0
 11 12  1  0
 12 13  2  0
 13 14  1  0
 14 15  1  0
 15 16  2  0
 15 17  2  0
 15 18  1  0
 18 19  2  0
 19 20  1  0
 20 21  2  0
 21 22  1  0
 22 23  2  0
 13 24  1  0
 24 25  2  0
  9  5  2  0
 25 10  1  0
 23 18  1  0
  3 26  1  0
  3 27  1  0
  7 28  1  0
  8 29  1  0
 11 30  1  0
 12 31  1  0
 14 32  1  0
 19 33  1  0
 20 34  1  0
 21 35  1  0
 22 36  1  0
 23 37  1  0
 24 38  1  0
 25 39  1  0
M  END
>  <smiles>  (33) 
O=C(CSc1nc[nH]n1)c1ccc(NS(=O)(=O)c2ccccc2)cc1

>  <score_type>  (33) 
oracle

>  <origin>  (33) 
adg

>  <m_score__min__energy>  (33) 
-9.0800000000000001

>  <m_primary>  (33) 
energy

$$$$
33:0
     RDKit          3D

 53 57  0  0  0  0  0  0  0  0999 V2000
   51.3830   32.7160   50.4700 O   0  0  0  0  0  0  0  0  0  0  0  0
   51.8120   31.9650   51.5570 C   0  0  0  0  0  0  0  0  0  0  0  0
   51.0490   31.9330   52.7260 C   0  0  0  0  0  0  0  0  0  0  0  0
   51.4790   31.1780   53.8190 C   0  0  0  0  0  0  0  0  0  0  0  0
   52.6720   30.4550   53.7480 C   0  0  0  0  0  0  0  0  0  0  0  0
   53.4570   30.4790   52.5770 C   0  0  0  0  0  0  0  0  0  0  0  0
   54.7370   29.6460   52.5190 C   0  0  2  0  0  0  0  0  0  0  0  0
   54.6870   28.4550   53.4860 C   0  0  0  0  0  0  0  0  0  0  0  0
   55.5530   28.7480   54.6320 N   0  0  0  0  0  0  0  0  0  0  0  0
   56.1300   30.0770   54.4220 C   0  0  0  0  0  0  0  0  0  0  0  0
   56.0300   30.4000   52.9220 C   0  0  0  0  0  0  0  0  0  0  0  0
   55.9630   31.9440   52.6640 C   0  0  0  0  0  0  0  0  0  0  0  0
   57.3450   32.5150   52.3450 C   0  0  0  0  0  0  0  0  0  0  0  0
   57.8340   31.9570   51.0670 N   0  0  0  0  0  0  0  0  0  0  0  0
   59.1650   32.4070   50.5870 C   0  0  0  0  0  0  0  0  0  0  0  0
   59.2070   32.9790   49.1950 C   0  0  0  0  0  0  0  0  0  0  0  0
   60.0190   34.0920   48.9270 C   0  0  0  0  0  0  0  0  0  0  0  0
   60.0390   34.6590   47.6490 C   0  0  0  0  0  0  0  0  0  0  0  0
   59.2400   34.1250   46.6330 C   0  0  0  0  0  0  0  0  0  0  0  0
   59.2660   34.9010   44.8880 Br  0  0  0  0  0  0  0  0  0  0  0  0
   58.4160   33.0260   46.8980 C   0  0  0  0  0  0  0  0  0  0  0  0
   58.3940   32.4570   48.1740 C   0  0  0  0  0  0  0  0  0  0  0  0
   60.3630   31.5820   51.0540 C   0  0  0  0  0  0  0  0  0  0  0  0
   60.1780   33.0020   51.5750 C   0  0  0  0  0  0  0  0  0  0  0  0
   57.5870   30.5060   50.8700 C   0  0  0  0  0  0  0  0  0  0  0  0
   57.2660   29.7750   52.1830 C   0  0  0  0  0  0  0  0  0  0  0  0
   53.0080   31.2420   51.4790 C   0  0  0  0  0  0  0  0  0  0  0  0
   50.1097   32.5023   52.7858 H   0  0  0  0  0  0  0  0  0  0  0  0
   50.8764   31.1525   54.7389 H   0  0  0  0  0  0  0  0  0  0  0  0
   53.0021   29.8616   54.6134 H   0  0  0  0  0  0  0  0  0  0  0  0
   54.7781   29.3541   51.4592 H   0  0  0  0  0  0  0  0  0  0  0  0
   53.6541   28.3010   53.8315 H   0  0  0  0  0  0  0  0  0  0  0  0
   55.0316   27.5426   52.9774 H   0  0  0  0  0  0  0  0  0  0  0  0
   54.9760   28.7610   55.5060 H   0  0  0  0  0  0  0  0  0  0  0  0
   55.5706   30.8242   55.0040 H   0  0  0  0  0  0  0  0  0  0  0  0
   57.1796   30.0970   54.7506 H   0  0  0  0  0  0  0  0  0  0  0  0
   55.2911   32.1364   51.8146 H   0  0  0  0  0  0  0  0  0  0  0  0
   55.5879   32.4321   53.5756 H   0  0  0  0  0  0  0  0  0  0  0  0
   57.2779   33.6099   52.2636 H   0  0  0  0  0  0  0  0  0  0  0  0
   58.0442   32.2455   53.1503 H   0  0  0  0  0  0  0  0  0  0  0  0
   60.6424   34.5201   49.7258 H   0  0  0  0  0  0  0  0  0  0  0  0
   60.6838   35.5259   47.4426 H   0  0  0  0  0  0  0  0  0  0  0  0
   57.7840   32.6089   46.1001 H   0  0  0  0  0  0  0  0  0  0  0  0
   57.7385   31.5980   48.3801 H   0  0  0  0  0  0  0  0  0  0  0  0
   60.2108   30.7259   51.7278 H   0  0  0  0  0  0  0  0  0  0  0  0
   61.1767   31.0414   50.5484 H   0  0  0  0  0  0  0  0  0  0  0  0
   59.8904   33.1703   52.6233 H   0  0  0  0  0  0  0  0  0  0  0  0
   60.8000   33.9089   51.6003 H   0  0  0  0  0  0  0  0  0  0  0  0
   56.7370   30.3840   50.1825 H   0  0  0  0  0  0  0  0  0  0  0  0
   58.5079   30.0649   50.4610 H   0  0  0  0  0  0  0  0  0  0  0  0
   57.0481   28.7207   51.9575 H   0  0  0  0  0  0  0  0  0  0  0  0
   58.1393   29.8702   52.8451 H   0  0  0  0  0  0  0  0  0  0  0  0
   53.6025   31.2691   50.5539 H   0  0  0  0  0  0  0  0  0  0  0  0
  1  2  1  0
  2  3  2  0
  3  4  1  0
  4  5  2  0
  5  6  1  0
  6  7  1  0
  7  8  1  0
  8  9  1  0
  9 10  1  0
 10 11  1  0
 11 12  1  0
 12 13  1  0
 13 14  1  0
 14 15  1  0
 15 16  1  0
 16 17  2  0
 17 18  1  0
 18 19  2  0
 19 20  1  0
 19 21  1  0
 21 22  2  0
 15 23  1  0
 23 24  1  0
 14 25  1  0
 25 26  1  0
  6 27  2  0
 27  2  1  0
 11  7  1  0
 24 15  1  0
 26 11  1  0
 22 16  1  0
  3 28  1  0
  4 29  1  0
  5 30  1  0
  7 31  1  6
  8 32  1  0
  8 33  1  0
  9 34  1  0
 10 35  1  0
 10 36  1  0
 12 37  1  0
 12 38  1  0
 13 39  1  0
 13 40  1  0
 17 41  1  0
 18 42  1  0
 21 43  1  0
 22 44  1  0
 23 45  1  0
 23 46  1  0
 24 47  1  0
 24 48  1  0
 25 49  1  0
 25 50  1  0
 26 51  1  0
 26 52  1  0
 27 53  1  0
M  CHG  1   1  -1
M  END
>  <UniqueID>  (34) 
30

>  <SMILES>  (34) 
[O-]c1cccc([C@@H]2CNCC23CCN(C2(c4ccc(Br)cc4)CC2)CC3)c1

>  <Energy>  (34) 
350.2703658206181

>  <Genealogy>  (34) 
[O-]c1cccc(C2CNCC23CCN(C2(c4ccc(Br)cc4)CC2)CC3)c1 (protonated)
[O-]c1cccc([C@@H]2CNCC23CCN(C2(c4ccc(Br)cc4)CC2)CC3)c1 (chirality)
[O-]c1cccc([C@@H]2CNCC23CCN(C2(c4ccc(Br)cc4)CC2)CC3)c1 (3D coordinates assigned)
[O-]c1cccc([C@@H]2CNCC23CCN(C2(c4ccc(Br)cc4)CC2)CC3)c1 (nonaromatic ring conformer: 350.2703658206181 kcal/mol)

>  <smiles>  (34) 
Oc1cccc(C2CNCC23CCN(C2(c4ccc(Br)cc4)CC2)CC3)c1

>  <score_type>  (34) 
oracle

>  <origin>  (34) 
adg

>  <m_score__min__energy>  (34) 
-12.65

>  <m_primary>  (34) 
energy

$$$$
34:0
     RDKit          3D

 45 47  0  0  0  0  0  0  0  0999 V2000
   57.8760   27.9300   43.8490 C   0  0  0  0  0  0  0  0  0  0  0  0
   57.4390   29.3480   44.0160 C   0  0  0  0  0  0  0  0  0  0  0  0
   58.2060   30.4780   43.8160 C   0  0  0  0  0  0  0  0  0  0  0  0
   57.3920   31.5390   44.1740 C   0  0  0  0  0  0  0  0  0  0  0  0
   57.7620   32.9860   44.0920 C   0  0  0  0  0  0  0  0  0  0  0  0
   58.3420   33.4420   45.4020 C   0  0  0  0  0  0  0  0  0  0  0  0
   57.8120   32.9700   46.6120 C   0  0  0  0  0  0  0  0  0  0  0  0
   58.3760   33.3640   47.8290 C   0  0  0  0  0  0  0  0  0  0  0  0
   59.4840   34.2210   47.8580 C   0  0  0  0  0  0  0  0  0  0  0  0
   60.0080   34.5820   49.1110 O   0  0  0  0  0  0  0  0  0  0  0  0
   60.4330   33.6730   50.1270 C   0  0  0  0  0  0  0  0  0  0  0  0
   61.9410   33.8060   50.3780 C   0  0  0  0  0  0  0  0  0  0  0  0
   62.7070   32.7990   49.6100 N   0  0  0  0  0  0  0  0  0  0  0  0
   61.8480   32.0830   48.6360 C   0  0  0  0  0  0  0  0  0  0  0  0
   62.6760   31.5270   47.4650 C   0  0  0  0  0  0  0  0  0  0  0  0
   63.3480   32.5310   46.7170 O   0  0  0  0  0  0  0  0  0  0  0  0
   63.6760   33.6860   47.4770 C   0  0  0  0  0  0  0  0  0  0  0  0
   63.9060   33.3970   48.9730 C   0  0  0  0  0  0  0  0  0  0  0  0
   60.0220   34.6860   46.6420 C   0  0  0  0  0  0  0  0  0  0  0  0
   59.4570   34.2930   45.4240 C   0  0  0  0  0  0  0  0  0  0  0  0
   56.2170   31.1040   44.5710 O   0  0  0  0  0  0  0  0  0  0  0  0
   56.2260   29.7940   44.4940 C   0  0  0  0  0  0  0  0  0  0  0  0
   55.1530   28.9890   44.8540 O   0  0  0  0  0  0  0  0  0  0  0  0
   58.0175   27.4710   44.8386 H   0  0  0  0  0  0  0  0  0  0  0  0
   57.1079   27.3727   43.2927 H   0  0  0  0  0  0  0  0  0  0  0  0
   58.8245   27.9017   43.2927 H   0  0  0  0  0  0  0  0  0  0  0  0
   59.2424   30.5254   43.4504 H   0  0  0  0  0  0  0  0  0  0  0  0
   58.5066   33.1272   43.2948 H   0  0  0  0  0  0  0  0  0  0  0  0
   56.8616   33.5775   43.8696 H   0  0  0  0  0  0  0  0  0  0  0  0
   56.9495   32.2874   46.6032 H   0  0  0  0  0  0  0  0  0  0  0  0
   57.9458   32.9977   48.7728 H   0  0  0  0  0  0  0  0  0  0  0  0
   59.8911   33.8936   51.0585 H   0  0  0  0  0  0  0  0  0  0  0  0
   60.2191   32.6464   49.7948 H   0  0  0  0  0  0  0  0  0  0  0  0
   62.2671   34.8117   50.0743 H   0  0  0  0  0  0  0  0  0  0  0  0
   62.1296   33.6415   51.4491 H   0  0  0  0  0  0  0  0  0  0  0  0
   61.3448   31.2490   49.1471 H   0  0  0  0  0  0  0  0  0  0  0  0
   61.1111   32.7939   48.2340 H   0  0  0  0  0  0  0  0  0  0  0  0
   63.4275   30.8327   47.8691 H   0  0  0  0  0  0  0  0  0  0  0  0
   61.9733   31.0301   46.7800 H   0  0  0  0  0  0  0  0  0  0  0  0
   64.5955   34.1251   47.0625 H   0  0  0  0  0  0  0  0  0  0  0  0
   62.8174   34.3703   47.4096 H   0  0  0  0  0  0  0  0  0  0  0  0
   64.7492   32.6980   49.0749 H   0  0  0  0  0  0  0  0  0  0  0  0
   64.1201   34.3514   49.4763 H   0  0  0  0  0  0  0  0  0  0  0  0
   60.8903   35.3612   46.6502 H   0  0  0  0  0  0  0  0  0  0  0  0
   59.8893   34.6531   44.4788 H   0  0  0  0  0  0  0  0  0  0  0  0
  1  2  1  0
  2  3  1  0
  3  4  2  0
  4  5  1  0
  5  6  1  0
  6  7  2  0
  7  8  1  0
  8  9  2  0
  9 10  1  0
 10 11  1  0
 11 12  1  0
 12 13  1  0
 13 14  1  0
 14 15  1  0
 15 16  1  0
 16 17  1  0
 17 18  1  0
  9 19  1  0
 19 20  2  0
  4 21  1  0
 21 22  1  0
 22 23  1  0
 22  2  2  0
 20  6  1  0
 18 13  1  0
  1 24  1  0
  1 25  1  0
  1 26  1  0
  3 27  1  0
  5 28  1  0
  5 29  1  0
  7 30  1  0
  8 31  1  0
 11 32  1  0
 11 33  1  0
 12 34  1  0
 12 35  1  0
 14 36  1  0
 14 37  1  0
 15 38  1  0
 15 39  1  0
 17 40  1  0
 17 41  1  0
 18 42  1  0
 18 43  1  0
 19 44  1  0
 20 45  1  0
M  CHG  1  23  -1
M  END
>  <UniqueID>  (35) 
31

>  <SMILES>  (35) 
Cc1cc(Cc2ccc(OCCN3CCOCC3)cc2)oc1[O-]

>  <Energy>  (35) 
84.18916723800129

>  <Genealogy>  (35) 
Cc1cc(Cc2ccc(OCCN3CCOCC3)cc2)oc1[O-] (protonated)
Cc1cc(Cc2ccc(OCCN3CCOCC3)cc2)oc1[O-] (3D coordinates assigned)
Cc1cc(Cc2ccc(OCCN3CCOCC3)cc2)oc1[O-] (nonaromatic ring conformer: 84.18916723800129 kcal/mol)

>  <smiles>  (35) 
Cc1cc(Cc2ccc(OCCN3CCOCC3)cc2)oc1O

>  <score_type>  (35) 
oracle

>  <origin>  (35) 
adg

>  <m_score__min__energy>  (35) 
-10.69

>  <m_primary>  (35) 
energy

$$$$
35:0
     RDKit          3D

 55 58  0  0  0  0  0  0  0  0999 V2000
   60.0240   33.9480   48.3430 C   0  0  0  0  0  0  0  0  0  0  0  0
   59.2470   33.7660   47.0670 C   0  0  0  0  0  0  0  0  0  0  0  0
   59.2580   34.7770   46.0910 C   0  0  0  0  0  0  0  0  0  0  0  0
   58.5520   34.6130   44.8970 C   0  0  0  0  0  0  0  0  0  0  0  0
   57.8250   33.4460   44.6710 C   0  0  0  0  0  0  0  0  0  0  0  0
   57.8040   32.4370   45.6350 C   0  0  0  0  0  0  0  0  0  0  0  0
   58.5260   32.5790   46.8350 C   0  0  0  0  0  0  0  0  0  0  0  0
   58.5520   31.5350   47.8220 N   0  0  0  0  0  0  0  0  0  0  0  0
   59.5370   30.1100   47.7420 S   0  0  0  0  0  0  0  0  0  0  0  0
   59.5020   29.4110   49.0720 O   0  0  0  0  0  0  0  0  0  0  0  0
   60.9520   30.5020   47.4280 O   0  0  0  0  0  0  0  0  0  0  0  0
   58.9370   29.0590   46.4620 C   0  0  0  0  0  0  0  0  0  0  0  0
   59.6040   28.9800   45.2340 C   0  0  0  0  0  0  0  0  0  0  0  0
   59.1940   28.0500   44.2750 C   0  0  0  0  0  0  0  0  0  0  0  0
   58.1260   27.1900   44.5430 C   0  0  0  0  0  0  0  0  0  0  0  0
   57.4360   27.2740   45.7640 C   0  0  0  0  0  0  0  0  0  0  0  0
   56.3430   26.3330   46.0710 C   0  0  0  0  0  0  0  0  0  0  0  0
   55.1420   26.7100   45.9960 O   0  0  0  0  0  0  0  0  0  0  0  0
   56.6600   25.0190   46.5420 N   0  0  0  0  0  0  0  0  0  0  0  0
   57.0750   23.9180   45.7270 C   0  0  0  0  0  0  0  0  0  0  0  0
   58.4310   23.7150   45.4180 C   0  0  0  0  0  0  0  0  0  0  0  0
   58.8230   22.5920   44.6860 C   0  0  0  0  0  0  0  0  0  0  0  0
   57.8700   21.6610   44.2640 C   0  0  0  0  0  0  0  0  0  0  0  0
   56.5190   21.8550   44.5700 C   0  0  0  0  0  0  0  0  0  0  0  0
   56.1150   22.9830   45.2980 C   0  0  0  0  0  0  0  0  0  0  0  0
   54.7220   23.2030   45.5730 N   0  0  0  0  0  0  0  0  0  0  0  0
   54.1120   22.6320   46.7800 C   0  0  0  0  0  0  0  0  0  0  0  0
   52.6670   22.1540   46.5000 C   0  0  0  0  0  0  0  0  0  0  0  0
   52.1640   22.5520   45.2340 O   0  0  0  0  0  0  0  0  0  0  0  0
   52.4450   23.9160   44.9980 C   0  0  0  0  0  0  0  0  0  0  0  0
   53.9370   24.0800   44.7020 C   0  0  0  0  0  0  0  0  0  0  0  0
   57.8400   28.2260   46.7140 C   0  0  0  0  0  0  0  0  0  0  0  0
   59.3572   33.7918   49.2038 H   0  0  0  0  0  0  0  0  0  0  0  0
   60.8462   33.2181   48.3789 H   0  0  0  0  0  0  0  0  0  0  0  0
   60.4365   34.9671   48.3789 H   0  0  0  0  0  0  0  0  0  0  0  0
   59.8256   35.7024   46.2683 H   0  0  0  0  0  0  0  0  0  0  0  0
   58.5699   35.4057   44.1346 H   0  0  0  0  0  0  0  0  0  0  0  0
   57.2669   33.3198   43.7315 H   0  0  0  0  0  0  0  0  0  0  0  0
   57.2184   31.5233   45.4556 H   0  0  0  0  0  0  0  0  0  0  0  0
   60.4508   29.6499   45.0239 H   0  0  0  0  0  0  0  0  0  0  0  0
   59.7133   27.9949   43.3069 H   0  0  0  0  0  0  0  0  0  0  0  0
   57.8238   26.4432   43.7941 H   0  0  0  0  0  0  0  0  0  0  0  0
   59.1851   24.4422   45.7534 H   0  0  0  0  0  0  0  0  0  0  0  0
   59.8845   22.4399   44.4410 H   0  0  0  0  0  0  0  0  0  0  0  0
   58.1824   20.7755   43.6911 H   0  0  0  0  0  0  0  0  0  0  0  0
   55.7709   21.1200   44.2383 H   0  0  0  0  0  0  0  0  0  0  0  0
   54.7149   21.7758   47.1168 H   0  0  0  0  0  0  0  0  0  0  0  0
   54.0787   23.4102   47.5567 H   0  0  0  0  0  0  0  0  0  0  0  0
   52.6501   21.0552   46.5494 H   0  0  0  0  0  0  0  0  0  0  0  0
   52.0236   22.6212   47.2601 H   0  0  0  0  0  0  0  0  0  0  0  0
   51.8584   24.2685   44.1368 H   0  0  0  0  0  0  0  0  0  0  0  0
   52.1781   24.5068   45.8867 H   0  0  0  0  0  0  0  0  0  0  0  0
   54.1305   23.8174   43.6515 H   0  0  0  0  0  0  0  0  0  0  0  0
   54.2280   25.1247   44.8863 H   0  0  0  0  0  0  0  0  0  0  0  0
   57.2909   28.3180   47.6627 H   0  0  0  0  0  0  0  0  0  0  0  0
  1  2  1  0
  2  3  2  0
  3  4  1  0
  4  5  2  0
  5  6  1  0
  6  7  2  0
  7  8  1  0
  8  9  1  0
  9 10  2  0
  9 11  2  0
  9 12  1  0
 12 13  2  0
 13 14  1  0
 14 15  2  0
 15 16  1  0
 16 17  1  0
 17 18  2  0
 17 19  1  0
 19 20  1  0
 20 21  2  0
 21 22  1  0
 22 23  2  0
 23 24  1  0
 24 25  2  0
 25 26  1  0
 26 27  1  0
 27 28  1  0
 28 29  1  0
 29 30  1  0
 30 31  1  0
 16 32  2  0
  7  2  1  0
 32 12  1  0
 25 20  1  0
 31 26  1  0
  1 33  1  0
  1 34  1  0
  1 35  1  0
  3 36  1  0
  4 37  1  0
  5 38  1  0
  6 39  1  0
 13 40  1  0
 14 41  1  0
 15 42  1  0
 21 43  1  0
 22 44  1  0
 23 45  1  0
 24 46  1  0
 27 47  1  0
 27 48  1  0
 28 49  1  0
 28 50  1  0
 30 51  1  0
 30 52  1  0
 31 53  1  0
 31 54  1  0
 32 55  1  0
M  CHG  2   8  -1  19  -1
M  END
>  <UniqueID>  (36) 
32

>  <SMILES>  (36) 
Cc1ccccc1[N-]S(=O)(=O)c1cccc(C(=O)[N-]c2ccccc2N2CCOCC2)c1

>  <Energy>  (36) 
77.10209342061967

>  <Genealogy>  (36) 
Cc1ccccc1[N-]S(=O)(=O)c1cccc(C(=O)[N-]c2ccccc2N2CCOCC2)c1 (protonated)
Cc1ccccc1[N-]S(=O)(=O)c1cccc(C(=O)[N-]c2ccccc2N2CCOCC2)c1 (3D coordinates assigned)
Cc1ccccc1[N-]S(=O)(=O)c1cccc(C(=O)[N-]c2ccccc2N2CCOCC2)c1 (nonaromatic ring conformer: 77.10209342061967 kcal/mol)

>  <smiles>  (36) 
Cc1ccccc1NS(=O)(=O)c1cccc(C(=O)Nc2ccccc2N2CCOCC2)c1

>  <score_type>  (36) 
oracle

>  <origin>  (36) 
adg

>  <m_score__min__energy>  (36) 
-13.31

>  <m_primary>  (36) 
energy

$$$$
36:0
     RDKit          3D

 36 38  0  0  0  0  0  0  0  0999 V2000
   57.1175   32.1462   43.6763 H   0  0  0  0  0  0  0  0  0  0  0  0
   58.2420   32.5850   45.3900 C   0  0  0  0  0  0  0  0  0  0  0  0
   59.4340   33.8240   47.2160 C   0  0  0  0  0  0  0  0  0  0  0  0
   59.4980   32.1350   46.6060 S   0  0  0  0  0  0  0  0  0  0  0  0
   57.6600   31.7280   44.5370 C   0  0  0  0  0  0  0  0  0  0  0  0
   60.1280   34.1850   48.2560 N   0  0  0  0  0  0  0  0  0  0  0  0
   61.4980   33.8520   48.5200 C   0  0  0  0  0  0  0  0  0  0  0  0
   61.9440   33.8080   49.8460 C   0  0  0  0  0  0  0  0  0  0  0  0
   61.2544   34.0655   50.6634 H   0  0  0  0  0  0  0  0  0  0  0  0
   63.2600   33.4390   50.1380 C   0  0  0  0  0  0  0  0  0  0  0  0
   63.6065   33.4267   51.1819 H   0  0  0  0  0  0  0  0  0  0  0  0
   64.1440   33.0830   49.1020 C   0  0  0  0  0  0  0  0  0  0  0  0
   65.4750   32.7080   49.3410 O   0  0  0  0  0  0  0  0  0  0  0  0
   65.9270   32.0720   50.5330 C   0  0  0  0  0  0  0  0  0  0  0  0
   65.5407   32.6156   51.4078 H   0  0  0  0  0  0  0  0  0  0  0  0
   65.5626   31.0344   50.5558 H   0  0  0  0  0  0  0  0  0  0  0  0
   67.0268   32.0750   50.5558 H   0  0  0  0  0  0  0  0  0  0  0  0
   63.6850   33.0960   47.7800 C   0  0  0  0  0  0  0  0  0  0  0  0
   64.3659   32.8133   46.9636 H   0  0  0  0  0  0  0  0  0  0  0  0
   62.3690   33.4650   47.4880 C   0  0  0  0  0  0  0  0  0  0  0  0
   62.0142   33.4524   46.4469 H   0  0  0  0  0  0  0  0  0  0  0  0
   58.5020   34.6810   46.5560 N   0  0  0  0  0  0  0  0  0  0  0  0
   58.2350   35.6420   46.8600 H   0  0  0  0  0  0  0  0  0  0  0  0
   57.8280   33.9800   45.5290 C   0  0  0  0  0  0  0  0  0  0  0  0
   56.9420   34.5250   44.8170 O   0  0  0  0  0  0  0  0  0  0  0  0
   57.7020   30.2580   44.6810 C   0  0  0  0  0  0  0  0  0  0  0  0
   58.9210   29.5870   44.4900 C   0  0  0  0  0  0  0  0  0  0  0  0
   59.8207   30.1556   44.2122 H   0  0  0  0  0  0  0  0  0  0  0  0
   58.9970   28.2010   44.6510 C   0  0  0  0  0  0  0  0  0  0  0  0
   59.9515   27.6803   44.4840 H   0  0  0  0  0  0  0  0  0  0  0  0
   57.8620   27.4750   45.0240 C   0  0  0  0  0  0  0  0  0  0  0  0
   57.9210   26.3828   45.1404 H   0  0  0  0  0  0  0  0  0  0  0  0
   56.6520   28.1380   45.2490 C   0  0  0  0  0  0  0  0  0  0  0  0
   55.5290   27.4180   45.6400 O   0  0  0  0  0  0  0  0  0  0  0  0
   56.5720   29.5240   45.0850 C   0  0  0  0  0  0  0  0  0  0  0  0
   55.6206   30.0433   45.2728 H   0  0  0  0  0  0  0  0  0  0  0  0
  1  2  1  0
  2  3  2  0
  3  4  1  0
  4  5  1  0
  5  6  2  0
  6  7  1  0
  7  8  2  0
  8  9  1  0
  8 10  1  0
 10 11  1  0
 10 12  2  0
 12 13  1  0
 13 14  1  0
 14 15  1  0
 14 16  1  0
 14 17  1  0
 12 18  1  0
 18 19  1  0
 18 20  2  0
 20 21  1  0
  5 22  1  0
 22 23  1  0
 22 24  1  0
 24 25  2  0
  2 26  1  0
 26 27  2  0
 27 28  1  0
 27 29  1  0
 29 30  1  0
 29 31  2  0
 31 32  1  0
 31 33  1  0
 33 34  1  0
 33 35  2  0
 35 36  1  0
 24  3  1  0
 35 26  1  0
 20  7  1  0
M  CHG  1  34  -1
M  END
>  <UniqueID>  (37) 
33

>  <SMILES>  (37) 
COc1ccc(/N=C2\NC(=O)/C(=C/c3cccc([O-])c3)S2)cc1

>  <Energy>  (37) 
69.0702906418412

>  <Genealogy>  (37) 
COc1ccc(N=C2NC(=O)C(=Cc3cccc([O-])c3)S2)cc1 (protonated)
COc1ccc(/N=C2\NC(=O)/C(=C/c3cccc([O-])c3)S2)cc1 (cis-trans isomerization)
COc1ccc(/N=C2\NC(=O)/C(=C/c3cccc([O-])c3)S2)cc1 (3D coordinates assigned)
COc1ccc(/N=C2\NC(=O)/C(=C/c3cccc([O-])c3)S2)cc1 (nonaromatic ring conformer: 69.0702906418412 kcal/mol)

>  <smiles>  (37) 
COc1ccc(N=C2NC(=O)C(=Cc3cccc(O)c3)S2)cc1

>  <score_type>  (37) 
oracle

>  <origin>  (37) 
adg

>  <m_score__min__energy>  (37) 
-11.35

>  <m_primary>  (37) 
energy

$$$$
37:0
     RDKit          3D

 34 36  0  0  0  0  0  0  0  0999 V2000
   55.5340   29.1880   44.8560 N   0  0  0  0  0  0  0  0  0  0  0  0
   57.2400   29.3180   45.1020 S   0  0  0  0  0  0  0  0  0  0  0  0
   57.5670   29.0080   46.5340 O   0  0  0  0  0  0  0  0  0  0  0  0
   57.9460   28.3280   44.2200 O   0  0  0  0  0  0  0  0  0  0  0  0
   57.7660   30.9530   44.7110 C   0  0  0  0  0  0  0  0  0  0  0  0
   57.7000   31.4200   43.3930 C   0  0  0  0  0  0  0  0  0  0  0  0
   58.1050   32.7210   43.0900 C   0  0  0  0  0  0  0  0  0  0  0  0
   58.5750   33.5640   44.0990 C   0  0  0  0  0  0  0  0  0  0  0  0
   58.6510   33.1110   45.4300 C   0  0  0  0  0  0  0  0  0  0  0  0
   59.1360   34.0020   46.5150 C   0  0  0  0  0  0  0  0  0  0  0  0
   58.3890   34.9250   46.9420 O   0  0  0  0  0  0  0  0  0  0  0  0
   60.4640   33.8170   47.1420 C   0  0  0  0  0  0  0  0  0  0  0  0
   61.5130   33.2950   46.3660 C   0  0  0  0  0  0  0  0  0  0  0  0
   62.7680   33.0580   46.9290 C   0  0  0  0  0  0  0  0  0  0  0  0
   62.9920   33.3340   48.2820 C   0  0  0  0  0  0  0  0  0  0  0  0
   64.2410   33.0990   48.8720 C   0  0  0  0  0  0  0  0  0  0  0  0
   64.4350   33.3870   50.2240 C   0  0  0  0  0  0  0  0  0  0  0  0
   63.3790   33.9090   50.9740 C   0  0  0  0  0  0  0  0  0  0  0  0
   62.1720   34.1320   50.3900 N   0  0  0  0  0  0  0  0  0  0  0  0
   61.9480   33.8610   49.0750 C   0  0  0  0  0  0  0  0  0  0  0  0
   60.6880   34.1100   48.5080 C   0  0  0  0  0  0  0  0  0  0  0  0
   59.6910   34.6680   49.3150 O   0  0  0  0  0  0  0  0  0  0  0  0
   58.2310   31.8010   45.7260 C   0  0  0  0  0  0  0  0  0  0  0  0
   55.1580   28.6010   45.6340 H   0  0  0  0  0  0  0  0  0  0  0  0
   57.3284   30.7606   42.5948 H   0  0  0  0  0  0  0  0  0  0  0  0
   58.0537   33.0834   42.0527 H   0  0  0  0  0  0  0  0  0  0  0  0
   58.8881   34.5892   43.8523 H   0  0  0  0  0  0  0  0  0  0  0  0
   61.3430   33.0706   45.3026 H   0  0  0  0  0  0  0  0  0  0  0  0
   63.5814   32.6540   46.3084 H   0  0  0  0  0  0  0  0  0  0  0  0
   65.0663   32.6887   48.2715 H   0  0  0  0  0  0  0  0  0  0  0  0
   65.4121   33.2042   50.6950 H   0  0  0  0  0  0  0  0  0  0  0  0
   63.5243   34.1402   52.0396 H   0  0  0  0  0  0  0  0  0  0  0  0
   59.0240   35.3500   48.9780 H   0  0  0  0  0  0  0  0  0  0  0  0
   58.2679   31.4387   46.7640 H   0  0  0  0  0  0  0  0  0  0  0  0
  1  2  1  0
  2  3  2  0
  2  4  2  0
  2  5  1  0
  5  6  2  0
  6  7  1  0
  7  8  2  0
  8  9  1  0
  9 10  1  0
 10 11  2  0
 10 12  1  0
 12 13  2  0
 13 14  1  0
 14 15  2  0
 15 16  1  0
 16 17  2  0
 17 18  1  0
 18 19  2  0
 19 20  1  0
 20 21  2  0
 21 22  1  0
  9 23  2  0
 23  5  1  0
 21 12  1  0
 20 15  1  0
  1 24  1  0
  6 25  1  0
  7 26  1  0
  8 27  1  0
 13 28  1  0
 14 29  1  0
 16 30  1  0
 17 31  1  0
 18 32  1  0
 22 33  1  0
 23 34  1  0
M  CHG  1   1  -1
M  END
>  <UniqueID>  (38) 
34

>  <SMILES>  (38) 
[NH-]S(=O)(=O)c1cccc(C(=O)c2ccc3cccnc3c2O)c1

>  <Energy>  (38) 
48.85858983136026

>  <Genealogy>  (38) 
[NH-]S(=O)(=O)c1cccc(C(=O)c2ccc3cccnc3c2O)c1 (protonated)
[NH-]S(=O)(=O)c1cccc(C(=O)c2ccc3cccnc3c2O)c1 (3D coordinates assigned)
[NH-]S(=O)(=O)c1cccc(C(=O)c2ccc3cccnc3c2O)c1 (optimized conformer: 48.85858983136026 kcal/mol)

>  <smiles>  (38) 
NS(=O)(=O)c1cccc(C(=O)c2ccc3cccnc3c2O)c1

>  <score_type>  (38) 
oracle

>  <origin>  (38) 
adg

>  <m_score__min__energy>  (38) 
-10.9

>  <m_primary>  (38) 
energy

$$$$
38:0
     RDKit          3D

 52 55  0  0  0  0  0  0  0  0999 V2000
   56.5250   29.3270   42.5560 N   0  0  0  0  0  0  0  0  0  0  0  0
   55.9910   29.6620   43.8380 C   0  0  0  0  0  0  0  0  0  0  0  0
   54.7840   29.4040   44.0890 O   0  0  0  0  0  0  0  0  0  0  0  0
   56.8210   30.3080   44.8720 C   0  0  0  0  0  0  0  0  0  0  0  0
   57.4930   29.6820   45.9090 C   0  0  0  0  0  0  0  0  0  0  0  0
   58.1260   30.7120   46.5650 C   0  0  0  0  0  0  0  0  0  0  0  0
   58.8590   30.5390   47.6300 N   0  0  0  0  0  0  0  0  0  0  0  0
   59.9290   29.6040   47.8150 C   0  0  0  0  0  0  0  0  0  0  0  0
   60.6910   29.3330   46.8460 O   0  0  0  0  0  0  0  0  0  0  0  0
   60.2000   29.0240   49.1550 C   0  0  0  0  0  0  0  0  0  0  0  0
   60.6970   27.7100   49.2490 C   0  0  0  0  0  0  0  0  0  0  0  0
   60.9670   27.1360   50.4930 C   0  0  0  0  0  0  0  0  0  0  0  0
   60.7510   27.8630   51.6620 C   0  0  0  0  0  0  0  0  0  0  0  0
   60.2440   29.1620   51.5920 C   0  0  0  0  0  0  0  0  0  0  0  0
   59.9330   29.7430   50.3470 C   0  0  0  0  0  0  0  0  0  0  0  0
   59.3710   31.0640   50.2750 N   0  0  0  0  0  0  0  0  0  0  0  0
   60.0770   32.3080   50.3580 C   0  0  0  0  0  0  0  0  0  0  0  0
   59.4670   33.4070   50.2640 O   0  0  0  0  0  0  0  0  0  0  0  0
   61.5590   32.2910   50.5520 C   0  0  0  0  0  0  0  0  0  0  0  0
   62.2470   32.5990   49.2490 C   0  0  0  0  0  0  0  0  0  0  0  0
   62.5480   31.5600   48.3520 C   0  0  0  0  0  0  0  0  0  0  0  0
   63.2360   31.8300   47.1650 C   0  0  0  0  0  0  0  0  0  0  0  0
   63.6340   33.1360   46.8680 C   0  0  0  0  0  0  0  0  0  0  0  0
   63.3470   34.1750   47.7580 C   0  0  0  0  0  0  0  0  0  0  0  0
   62.6610   33.9120   48.9490 C   0  0  0  0  0  0  0  0  0  0  0  0
   62.4160   34.9290   49.8100 F   0  0  0  0  0  0  0  0  0  0  0  0
   57.8650   31.8830   45.9300 N   0  0  0  0  0  0  0  0  0  0  0  0
   58.4900   33.1630   46.1010 C   0  0  0  0  0  0  0  0  0  0  0  0
   58.8670   33.5950   47.3820 C   0  0  0  0  0  0  0  0  0  0  0  0
   59.4630   34.8510   47.5540 C   0  0  0  0  0  0  0  0  0  0  0  0
   59.6620   35.6880   46.4530 C   0  0  0  0  0  0  0  0  0  0  0  0
   59.2590   35.2750   45.1770 C   0  0  0  0  0  0  0  0  0  0  0  0
   58.6650   34.0210   45.0020 C   0  0  0  0  0  0  0  0  0  0  0  0
   57.0710   31.6340   44.8990 N   0  0  0  0  0  0  0  0  0  0  0  0
   55.9100   28.8910   41.8330 H   0  0  0  0  0  0  0  0  0  0  0  0
   57.5290   29.4800   42.3230 H   0  0  0  0  0  0  0  0  0  0  0  0
   57.5153   28.6093   46.1517 H   0  0  0  0  0  0  0  0  0  0  0  0
   60.8746   27.1290   48.3320 H   0  0  0  0  0  0  0  0  0  0  0  0
   61.3513   26.1069   50.5503 H   0  0  0  0  0  0  0  0  0  0  0  0
   60.9798   27.4136   52.6396 H   0  0  0  0  0  0  0  0  0  0  0  0
   60.0861   29.7365   52.5167 H   0  0  0  0  0  0  0  0  0  0  0  0
   61.8381   33.0475   51.3002 H   0  0  0  0  0  0  0  0  0  0  0  0
   61.8685   31.2943   50.8996 H   0  0  0  0  0  0  0  0  0  0  0  0
   62.2410   30.5297   48.5847 H   0  0  0  0  0  0  0  0  0  0  0  0
   63.4641   31.0133   46.4643 H   0  0  0  0  0  0  0  0  0  0  0  0
   64.1737   33.3468   45.9329 H   0  0  0  0  0  0  0  0  0  0  0  0
   63.6613   35.2023   47.5215 H   0  0  0  0  0  0  0  0  0  0  0  0
   58.6941   32.9458   48.2530 H   0  0  0  0  0  0  0  0  0  0  0  0
   59.7746   35.1787   48.5568 H   0  0  0  0  0  0  0  0  0  0  0  0
   60.1354   36.6716   46.5886 H   0  0  0  0  0  0  0  0  0  0  0  0
   59.4097   35.9373   44.3118 H   0  0  0  0  0  0  0  0  0  0  0  0
   58.3340   33.7056   44.0015 H   0  0  0  0  0  0  0  0  0  0  0  0
  1  2  1  0
  2  3  2  0
  2  4  1  0
  4  5  2  0
  5  6  1  0
  6  7  2  3
  7  8  1  0
  8  9  2  0
  8 10  1  0
 10 11  2  0
 11 12  1  0
 12 13  2  0
 13 14  1  0
 14 15  2  0
 15 16  1  0
 16 17  1  0
 17 18  2  0
 17 19  1  0
 19 20  1  0
 20 21  2  0
 21 22  1  0
 22 23  2  0
 23 24  1  0
 24 25  2  0
 25 26  1  0
  6 27  1  0
 27 28  1  0
 28 29  2  0
 29 30  1  0
 30 31  2  0
 31 32  1  0
 32 33  2  0
 27 34  1  0
 34  4  1  0
 15 10  1  0
 25 20  1  0
 33 28  1  0
  1 35  1  0
  1 36  1  0
  5 37  1  0
 11 38  1  0
 12 39  1  0
 13 40  1  0
 14 41  1  0
 19 42  1  0
 19 43  1  0
 21 44  1  0
 22 45  1  0
 23 46  1  0
 24 47  1  0
 29 48  1  0
 30 49  1  0
 31 50  1  0
 32 51  1  0
 33 52  1  0
M  CHG  2  16  -1  34  -1
M  END
>  <UniqueID>  (39) 
35

>  <SMILES>  (39) 
NC(=O)c1cc(=NC(=O)c2ccccc2[N-]C(=O)Cc2ccccc2F)n(-c2ccccc2)[n-]1

>  <Energy>  (39) 
105.47413950631655

>  <Genealogy>  (39) 
NC(=O)c1cc(=NC(=O)c2ccccc2[N-]C(=O)Cc2ccccc2F)n(-c2ccccc2)[n-]1 (protonated)
NC(=O)c1cc(=NC(=O)c2ccccc2[N-]C(=O)Cc2ccccc2F)n(-c2ccccc2)[n-]1 (3D coordinates assigned)
NC(=O)c1cc(=NC(=O)c2ccccc2[N-]C(=O)Cc2ccccc2F)n(-c2ccccc2)[n-]1 (optimized conformer: 105.47413950631655 kcal/mol)

>  <smiles>  (39) 
NC(=O)c1cc(=NC(=O)c2ccccc2NC(=O)Cc2ccccc2F)n(-c2ccccc2)[nH]1

>  <score_type>  (39) 
oracle

>  <origin>  (39) 
adg

>  <m_score__min__energy>  (39) 
-12.35

>  <m_primary>  (39) 
energy

$$$$
39:0
     RDKit          3D

 52 55  0  0  0  0  0  0  0  0999 V2000
   65.4970   31.8710   50.5190 C   0  0  0  0  0  0  0  0  0  0  0  0
   65.3120   33.0590   49.5790 C   0  0  0  0  0  0  0  0  0  0  0  0
   63.9050   33.1020   49.0470 C   0  0  0  0  0  0  0  0  0  0  0  0
   62.8360   33.4180   49.8970 C   0  0  0  0  0  0  0  0  0  0  0  0
   61.5300   33.4830   49.4000 C   0  0  0  0  0  0  0  0  0  0  0  0
   61.2740   33.2400   48.0380 C   0  0  0  0  0  0  0  0  0  0  0  0
   59.9000   33.2890   47.4860 C   0  0  0  0  0  0  0  0  0  0  0  0
   58.8770   32.4900   47.8650 N   0  0  0  0  0  0  0  0  0  0  0  0
   57.8390   32.8650   47.1000 C   0  0  0  0  0  0  0  0  0  0  0  0
   58.2660   33.8860   46.2820 C   0  0  0  0  0  0  0  0  0  0  0  0
   57.4660   34.5780   45.2260 C   0  0  0  0  0  0  0  0  0  0  0  0
   57.0410   33.6360   44.2440 O   0  0  0  0  0  0  0  0  0  0  0  0
   57.7790   32.4950   43.9040 C   0  0  0  0  0  0  0  0  0  0  0  0
   58.8380   32.6060   43.2280 O   0  0  0  0  0  0  0  0  0  0  0  0
   57.3150   31.1610   44.3410 C   0  0  0  0  0  0  0  0  0  0  0  0
   55.9640   30.8000   44.2060 C   0  0  0  0  0  0  0  0  0  0  0  0
   55.5190   29.5480   44.6380 C   0  0  0  0  0  0  0  0  0  0  0  0
   56.4110   28.6320   45.2050 C   0  0  0  0  0  0  0  0  0  0  0  0
   55.9080   27.3590   45.6340 N   0  0  0  0  0  0  0  0  0  0  0  0
   56.8860   26.0010   46.0890 S   0  0  0  0  0  0  0  0  0  0  0  0
   58.3370   26.3980   46.0710 O   0  0  0  0  0  0  0  0  0  0  0  0
   56.5120   25.5660   47.4770 O   0  0  0  0  0  0  0  0  0  0  0  0
   56.6040   24.6720   44.9790 C   0  0  0  0  0  0  0  0  0  0  0  0
   56.9880   24.6280   43.6470 C   0  0  0  0  0  0  0  0  0  0  0  0
   56.6000   23.4450   43.0070 C   0  0  0  0  0  0  0  0  0  0  0  0
   55.9130   22.5650   43.8340 C   0  0  0  0  0  0  0  0  0  0  0  0
   55.7870   23.2570   45.3630 S   0  0  0  0  0  0  0  0  0  0  0  0
   57.7630   28.9880   45.3440 C   0  0  0  0  0  0  0  0  0  0  0  0
   58.2100   30.2410   44.9150 C   0  0  0  0  0  0  0  0  0  0  0  0
   59.5320   34.1230   46.5370 O   0  0  0  0  0  0  0  0  0  0  0  0
   62.3520   32.9430   47.1860 C   0  0  0  0  0  0  0  0  0  0  0  0
   63.6560   32.8790   47.6850 C   0  0  0  0  0  0  0  0  0  0  0  0
   65.4432   32.2167   51.5619 H   0  0  0  0  0  0  0  0  0  0  0  0
   64.7031   31.1318   50.3363 H   0  0  0  0  0  0  0  0  0  0  0  0
   66.4780   31.4082   50.3363 H   0  0  0  0  0  0  0  0  0  0  0  0
   65.5191   33.9895   50.1279 H   0  0  0  0  0  0  0  0  0  0  0  0
   66.0069   32.9523   48.7330 H   0  0  0  0  0  0  0  0  0  0  0  0
   63.0255   33.6162   50.9623 H   0  0  0  0  0  0  0  0  0  0  0  0
   60.6984   33.7255   50.0779 H   0  0  0  0  0  0  0  0  0  0  0  0
   58.8720   31.7290   48.5780 H   0  0  0  0  0  0  0  0  0  0  0  0
   56.8276   32.4330   47.1231 H   0  0  0  0  0  0  0  0  0  0  0  0
   56.5844   35.0484   45.6859 H   0  0  0  0  0  0  0  0  0  0  0  0
   58.0890   35.3465   44.7450 H   0  0  0  0  0  0  0  0  0  0  0  0
   55.2517   31.5079   43.7571 H   0  0  0  0  0  0  0  0  0  0  0  0
   54.4574   29.2803   44.5312 H   0  0  0  0  0  0  0  0  0  0  0  0
   57.5394   25.4374   43.1462 H   0  0  0  0  0  0  0  0  0  0  0  0
   56.8182   23.2324   41.9500 H   0  0  0  0  0  0  0  0  0  0  0  0
   55.5180   21.5816   43.5391 H   0  0  0  0  0  0  0  0  0  0  0  0
   58.4730   28.2775   45.7925 H   0  0  0  0  0  0  0  0  0  0  0  0
   59.2708   30.5095   45.0274 H   0  0  0  0  0  0  0  0  0  0  0  0
   62.1676   32.7594   46.1172 H   0  0  0  0  0  0  0  0  0  0  0  0
   64.4912   32.6526   47.0060 H   0  0  0  0  0  0  0  0  0  0  0  0
  1  2  1  0
  2  3  1  0
  3  4  2  0
  4  5  1  0
  5  6  2  0
  6  7  1  0
  7  8  2  0
  8  9  1  0
  9 10  2  0
 10 11  1  0
 11 12  1  0
 12 13  1  0
 13 14  2  0
 13 15  1  0
 15 16  2  0
 16 17  1  0
 17 18  2  0
 18 19  1  0
 19 20  1  0
 20 21  2  0
 20 22  2  0
 20 23  1  0
 23 24  2  0
 24 25  1  0
 25 26  2  0
 26 27  1  0
 18 28  1  0
 28 29  2  0
 10 30  1  0
  6 31  1  0
 31 32  2  0
 32  3  1  0
 30  7  1  0
 29 15  1  0
 27 23  1  0
  1 33  1  0
  1 34  1  0
  1 35  1  0
  2 36  1  0
  2 37  1  0
  4 38  1  0
  5 39  1  0
  8 40  1  0
  9 41  1  0
 11 42  1  0
 11 43  1  0
 16 44  1  0
 17 45  1  0
 24 46  1  0
 25 47  1  0
 26 48  1  0
 28 49  1  0
 29 50  1  0
 31 51  1  0
 32 52  1  0
M  CHG  2   8   1  19  -1
M  END
>  <UniqueID>  (40) 
36

>  <SMILES>  (40) 
CCc1ccc(-c2[nH+]cc(COC(=O)c3ccc([N-]S(=O)(=O)c4cccs4)cc3)o2)cc1

>  <Energy>  (40) 
111.9666431965144

>  <Genealogy>  (40) 
CCc1ccc(-c2[nH+]cc(COC(=O)c3ccc([N-]S(=O)(=O)c4cccs4)cc3)o2)cc1 (protonated)
CCc1ccc(-c2[nH+]cc(COC(=O)c3ccc([N-]S(=O)(=O)c4cccs4)cc3)o2)cc1 (3D coordinates assigned)
CCc1ccc(-c2[nH+]cc(COC(=O)c3ccc([N-]S(=O)(=O)c4cccs4)cc3)o2)cc1 (optimized conformer: 111.9666431965144 kcal/mol)

>  <smiles>  (40) 
CCc1ccc(-c2ncc(COC(=O)c3ccc(NS(=O)(=O)c4cccs4)cc3)o2)cc1

>  <score_type>  (40) 
oracle

>  <origin>  (40) 
adg

>  <m_score__min__energy>  (40) 
-9.1600000000000001

>  <m_primary>  (40) 
energy

$$$$
40:0
     RDKit          3D

 81 83  0  0  0  0  0  0  0  0999 V2000
   55.7050   20.7590   44.5780 N   0  0  0  0  0  0  0  0  0  0  0  0
   56.6050   21.7770   43.5080 S   0  0  0  0  0  0  0  0  0  0  0  0
   57.9140   21.1100   43.1820 O   0  0  0  0  0  0  0  0  0  0  0  0
   55.8310   21.9840   42.2340 O   0  0  0  0  0  0  0  0  0  0  0  0
   56.8960   23.3300   44.2850 C   0  0  0  0  0  0  0  0  0  0  0  0
   56.7010   23.4580   45.6650 C   0  0  0  0  0  0  0  0  0  0  0  0
   56.9590   24.6720   46.3010 C   0  0  0  0  0  0  0  0  0  0  0  0
   57.4380   25.7720   45.5640 C   0  0  0  0  0  0  0  0  0  0  0  0
   57.6810   27.0290   46.2040 N   0  0  0  0  0  0  0  0  0  0  0  0
   57.0050   28.2610   45.9220 C   0  0  0  0  0  0  0  0  0  0  0  0
   55.9460   28.2180   45.2470 O   0  0  0  0  0  0  0  0  0  0  0  0
   57.6110   29.5930   46.3390 C   0  0  0  0  0  0  0  0  0  0  0  0
   59.0470   29.5420   46.6880 N   0  0  0  0  0  0  0  0  0  0  0  0
   59.3060   29.6820   48.1390 C   0  0  0  0  0  0  0  0  0  0  0  0
   60.6490   29.0400   48.4870 C   0  0  0  0  0  0  0  0  0  0  0  0
   60.6660   28.6920   49.9280 N   0  0  0  0  0  0  0  0  0  0  0  0
   59.5120   29.2750   50.6510 C   0  0  0  0  0  0  0  0  0  0  0  0
   59.8420   29.5610   52.1320 C   0  0  0  0  0  0  0  0  0  0  0  0
   60.2990   30.9420   52.3710 N   0  0  0  0  0  0  0  0  0  0  0  0
   60.2610   31.4790   53.7450 C   0  0  0  0  0  0  0  0  0  0  0  0
   61.3990   32.4140   54.0410 C   0  0  0  0  0  0  0  0  0  0  0  0
   62.4150   32.0040   54.6620 O   0  0  0  0  0  0  0  0  0  0  0  0
   61.3190   33.7480   53.6650 O   0  0  0  0  0  0  0  0  0  0  0  0
   61.2820   31.4520   51.4520 C   0  0  0  0  0  0  0  0  0  0  0  0
   62.5740   30.9060   51.4590 C   0  0  0  0  0  0  0  0  0  0  0  0
   63.5540   31.3960   50.5960 C   0  0  0  0  0  0  0  0  0  0  0  0
   63.2630   32.4350   49.7030 C   0  0  0  0  0  0  0  0  0  0  0  0
   64.2800   32.9360   48.8170 N   0  0  0  0  0  0  0  0  0  0  0  0
   65.4460   33.1130   49.2240 O   0  0  0  0  0  0  0  0  0  0  0  0
   63.9990   33.1640   47.4870 O   0  0  0  0  0  0  0  0  0  0  0  0
   61.9600   32.9680   49.6790 C   0  0  0  0  0  0  0  0  0  0  0  0
   60.9670   32.4860   50.5460 C   0  0  0  0  0  0  0  0  0  0  0  0
   59.3360   33.1650   50.4450 S   0  0  0  0  0  0  0  0  0  0  0  0
   58.6940   33.3370   52.0420 N   0  0  0  0  0  0  0  0  0  0  0  0
   58.4540   32.2480   49.6460 O   0  0  0  0  0  0  0  0  0  0  0  0
   59.3600   34.5040   49.7650 O   0  0  0  0  0  0  0  0  0  0  0  0
   60.7230   27.2270   50.1130 C   0  0  0  0  0  0  0  0  0  0  0  0
   61.5830   26.8720   51.2840 C   0  0  0  0  0  0  0  0  0  0  0  0
   61.4780   25.7390   51.8230 O   0  0  0  0  0  0  0  0  0  0  0  0
   62.4770   27.8020   51.8010 O   0  0  0  0  0  0  0  0  0  0  0  0
   59.8920   30.3920   45.8260 C   0  0  0  0  0  0  0  0  0  0  0  0
   59.5410   31.8540   45.9850 C   0  0  0  0  0  0  0  0  0  0  0  0
   60.3190   32.6270   46.8690 C   0  0  0  0  0  0  0  0  0  0  0  0
   60.0540   33.9830   47.0570 C   0  0  0  0  0  0  0  0  0  0  0  0
   58.9990   34.5890   46.3780 C   0  0  0  0  0  0  0  0  0  0  0  0
   58.2050   33.8400   45.5110 C   0  0  0  0  0  0  0  0  0  0  0  0
   58.4610   32.4710   45.2910 C   0  0  0  0  0  0  0  0  0  0  0  0
   57.6010   31.7390   44.3930 N   0  0  0  0  0  0  0  0  0  0  0  0
   58.0740   31.2320   43.3510 O   0  0  0  0  0  0  0  0  0  0  0  0
   56.2990   31.4450   44.7290 O   0  0  0  0  0  0  0  0  0  0  0  0
   57.5940   25.6550   44.1730 C   0  0  0  0  0  0  0  0  0  0  0  0
   58.1820   27.1480   43.1250 Br  0  0  0  0  0  0  0  0  0  0  0  0
   57.3370   24.4330   43.5390 C   0  0  0  0  0  0  0  0  0  0  0  0
   55.2500   20.0240   43.9890 H   0  0  0  0  0  0  0  0  0  0  0  0
   56.3430   22.5980   46.2500 H   0  0  0  0  0  0  0  0  0  0  0  0
   56.7876   24.7706   47.3831 H   0  0  0  0  0  0  0  0  0  0  0  0
   57.4868   30.3006   45.5060 H   0  0  0  0  0  0  0  0  0  0  0  0
   57.0821   29.8996   47.2535 H   0  0  0  0  0  0  0  0  0  0  0  0
   59.3311   30.7491   48.4046 H   0  0  0  0  0  0  0  0  0  0  0  0
   58.5054   29.1799   48.7020 H   0  0  0  0  0  0  0  0  0  0  0  0
   60.7871   28.1284   47.8870 H   0  0  0  0  0  0  0  0  0  0  0  0
   61.4632   29.7466   48.2686 H   0  0  0  0  0  0  0  0  0  0  0  0
   59.2264   30.2181   50.1622 H   0  0  0  0  0  0  0  0  0  0  0  0
   58.6887   28.5461   50.6209 H   0  0  0  0  0  0  0  0  0  0  0  0
   58.9372   29.3838   52.7319 H   0  0  0  0  0  0  0  0  0  0  0  0
   60.6662   28.8909   52.4176 H   0  0  0  0  0  0  0  0  0  0  0  0
   59.3151   32.0233   53.8827 H   0  0  0  0  0  0  0  0  0  0  0  0
   60.3478   30.6262   54.4343 H   0  0  0  0  0  0  0  0  0  0  0  0
   62.8161   30.0853   52.1502 H   0  0  0  0  0  0  0  0  0  0  0  0
   64.5647   30.9625   50.6169 H   0  0  0  0  0  0  0  0  0  0  0  0
   61.7168   33.7737   48.9707 H   0  0  0  0  0  0  0  0  0  0  0  0
   59.4210   33.8300   52.6160 H   0  0  0  0  0  0  0  0  0  0  0  0
   59.7056   26.8454   50.2840 H   0  0  0  0  0  0  0  0  0  0  0  0
   61.1551   26.7742   49.2084 H   0  0  0  0  0  0  0  0  0  0  0  0
   60.9469   30.2446   46.1006 H   0  0  0  0  0  0  0  0  0  0  0  0
   59.7195   30.1049   44.7782 H   0  0  0  0  0  0  0  0  0  0  0  0
   61.1467   32.1546   47.4184 H   0  0  0  0  0  0  0  0  0  0  0  0
   60.6786   34.5750   47.7422 H   0  0  0  0  0  0  0  0  0  0  0  0
   58.7925   35.6592   46.5262 H   0  0  0  0  0  0  0  0  0  0  0  0
   57.3658   34.3244   44.9904 H   0  0  0  0  0  0  0  0  0  0  0  0
   57.4814   24.3378   42.4527 H   0  0  0  0  0  0  0  0  0  0  0  0
  1  2  1  0
  2  3  2  0
  2  4  2  0
  2  5  1  0
  5  6  2  0
  6  7  1  0
  7  8  2  0
  8  9  1  0
  9 10  1  0
 10 11  2  0
 10 12  1  0
 12 13  1  0
 13 14  1  0
 14 15  1  0
 15 16  1  0
 16 17  1  0
 17 18  1  0
 18 19  1  0
 19 20  1  0
 20 21  1  0
 21 22  2  0
 21 23  1  0
 19 24  1  0
 24 25  2  0
 25 26  1  0
 26 27  2  0
 27 28  1  0
 28 29  2  0
 28 30  1  0
 27 31  1  0
 31 32  2  0
 32 33  1  0
 33 34  1  0
 33 35  2  0
 33 36  2  0
 16 37  1  0
 37 38  1  0
 38 39  2  0
 38 40  1  0
 13 41  1  0
 41 42  1  0
 42 43  2  0
 43 44  1  0
 44 45  2  0
 45 46  1  0
 46 47  2  0
 47 48  1  0
 48 49  2  0
 48 50  1  0
  8 51  1  0
 51 52  1  0
 51 53  2  0
 53  5  1  0
 32 24  1  0
 47 42  1  0
  1 54  1  0
  6 55  1  0
  7 56  1  0
 12 57  1  0
 12 58  1  0
 14 59  1  0
 14 60  1  0
 15 61  1  0
 15 62  1  0
 17 63  1  0
 17 64  1  0
 18 65  1  0
 18 66  1  0
 20 67  1  0
 20 68  1  0
 25 69  1  0
 26 70  1  0
 31 71  1  0
 34 72  1  0
 37 73  1  0
 37 74  1  0
 41 75  1  0
 41 76  1  0
 43 77  1  0
 44 78  1  0
 45 79  1  0
 46 80  1  0
 53 81  1  0
M  CHG  8   1  -1   9  -1  23  -1  28   1  30  -1  34  -1  40  -1  48   1
M  CHG  1  50  -1
M  END
>  <UniqueID>  (41) 
37

>  <SMILES>  (41) 
[NH-]S(=O)(=O)c1ccc([N-]C(=O)CN(CCN(CCN(CC(=O)[O-])c2ccc([N+](=O)[O-])cc2S([NH-])(=O)=O)CC(=O)[O-])Cc2ccccc2[N+](=O)[O-])c(Br)c1

>  <Energy>  (41) 
107.90702174517477

>  <Genealogy>  (41) 
[NH-]S(=O)(=O)c1ccc([N-]C(=O)CN(CCN(CCN(CC(=O)[O-])c2ccc([N+](=O)[O-])cc2S([NH-])(=O)=O)CC(=O)[O-])Cc2ccccc2[N+](=O)[O-])c(Br)c1 (protonated)
[NH-]S(=O)(=O)c1ccc([N-]C(=O)CN(CCN(CCN(CC(=O)[O-])c2ccc([N+](=O)[O-])cc2S([NH-])(=O)=O)CC(=O)[O-])Cc2ccccc2[N+](=O)[O-])c(Br)c1 (3D coordinates assigned)
[NH-]S(=O)(=O)c1ccc([N-]C(=O)CN(CCN(CCN(CC(=O)[O-])c2ccc([N+](=O)[O-])cc2S([NH-])(=O)=O)CC(=O)[O-])Cc2ccccc2[N+](=O)[O-])c(Br)c1 (optimized conformer: 107.90702174517477 kcal/mol)

>  <smiles>  (41) 
NS(=O)(=O)c1ccc(NC(=O)CN(CCN(CCN(CC(=O)O)c2ccc([N+](=O)[O-])cc2S(N)(=O)=O)CC(=O)O)Cc2ccccc2[N+](=O)[O-])c(Br)c1

>  <score_type>  (41) 
oracle

>  <origin>  (41) 
adg

>  <m_score__min__energy>  (41) 
-18.68

>  <m_primary>  (41) 
energy

$$$$
41:0
     RDKit          3D

 29 30  0  0  0  0  0  0  0  0999 V2000
   57.1960   32.3330   44.6400 C   0  0  0  0  0  0  0  0  0  0  0  0
   56.7490   30.9890   44.4900 O   0  0  0  0  0  0  0  0  0  0  0  0
   57.5470   29.8570   44.7180 C   0  0  0  0  0  0  0  0  0  0  0  0
   58.9490   29.8930   44.6000 C   0  0  0  0  0  0  0  0  0  0  0  0
   59.7040   28.7470   44.8490 C   0  0  0  0  0  0  0  0  0  0  0  0
   59.0750   27.5530   45.2030 C   0  0  0  0  0  0  0  0  0  0  0  0
   57.6760   27.4880   45.3060 C   0  0  0  0  0  0  0  0  0  0  0  0
   57.0450   26.1900   45.6490 C   0  0  0  0  0  0  0  0  0  0  0  0
   56.8950   25.8840   46.8630 O   0  0  0  0  0  0  0  0  0  0  0  0
   56.6220   25.2000   44.5960 C   0  0  0  0  0  0  0  0  0  0  0  0
   55.4140   24.4810   45.0090 N   0  0  0  0  0  0  0  0  0  0  0  0
   54.3310   25.0020   45.6230 C   0  0  0  0  0  0  0  0  0  0  0  0
   54.2070   26.3390   45.9830 O   0  0  0  0  0  0  0  0  0  0  0  0
   53.3700   24.0350   45.8390 C   0  0  0  0  0  0  0  0  0  0  0  0
   53.8860   22.8600   45.3200 C   0  0  0  0  0  0  0  0  0  0  0  0
   55.1320   23.1780   44.8170 C   0  0  0  0  0  0  0  0  0  0  0  0
   55.9830   22.2780   44.1850 O   0  0  0  0  0  0  0  0  0  0  0  0
   56.9160   28.6560   45.0810 C   0  0  0  0  0  0  0  0  0  0  0  0
   55.5350   28.6460   45.2420 O   0  0  0  0  0  0  0  0  0  0  0  0
   57.2766   32.5754   45.7099 H   0  0  0  0  0  0  0  0  0  0  0  0
   58.1806   32.4474   44.1630 H   0  0  0  0  0  0  0  0  0  0  0  0
   56.4761   33.0143   44.1630 H   0  0  0  0  0  0  0  0  0  0  0  0
   59.4510   30.8280   44.3105 H   0  0  0  0  0  0  0  0  0  0  0  0
   60.8002   28.7847   44.7659 H   0  0  0  0  0  0  0  0  0  0  0  0
   59.6794   26.6559   45.4029 H   0  0  0  0  0  0  0  0  0  0  0  0
   56.4183   25.7371   43.6579 H   0  0  0  0  0  0  0  0  0  0  0  0
   57.4332   24.4709   44.4532 H   0  0  0  0  0  0  0  0  0  0  0  0
   52.3925   24.1706   46.3249 H   0  0  0  0  0  0  0  0  0  0  0  0
   53.4014   21.8726   45.3103 H   0  0  0  0  0  0  0  0  0  0  0  0
  1  2  1  0
  2  3  1  0
  3  4  2  0
  4  5  1  0
  5  6  2  0
  6  7  1  0
  7  8  1  0
  8  9  2  0
  8 10  1  0
 10 11  1  0
 11 12  1  0
 12 13  1  0
 12 14  2  0
 14 15  1  0
 15 16  2  0
 16 17  1  0
  7 18  2  0
 18 19  1  0
 18  3  1  0
 16 11  1  0
  1 20  1  0
  1 21  1  0
  1 22  1  0
  4 23  1  0
  5 24  1  0
  6 25  1  0
 10 26  1  0
 10 27  1  0
 14 28  1  0
 15 29  1  0
M  CHG  3  13  -1  17  -1  19  -1
M  END
>  <UniqueID>  (42) 
38

>  <SMILES>  (42) 
COc1cccc(C(=O)Cn2c([O-])ccc2[O-])c1[O-]

>  <Energy>  (42) 
61.02633234711182

>  <Genealogy>  (42) 
COc1cccc(C(=O)Cn2c([O-])ccc2[O-])c1[O-] (protonated)
COc1cccc(C(=O)Cn2c([O-])ccc2[O-])c1[O-] (3D coordinates assigned)
COc1cccc(C(=O)Cn2c([O-])ccc2[O-])c1[O-] (optimized conformer: 61.02633234711182 kcal/mol)

>  <smiles>  (42) 
COc1cccc(C(=O)Cn2c(O)ccc2O)c1O

>  <score_type>  (42) 
oracle

>  <origin>  (42) 
adg

>  <m_score__min__energy>  (42) 
-14.710000000000001

>  <m_primary>  (42) 
energy

$$$$
42:0
     RDKit          3D

 43 45  0  0  0  0  0  0  0  0999 V2000
   56.3240   25.1920   46.8760 O   0  0  0  0  0  0  0  0  0  0  0  0
   56.1200   26.3360   46.3920 C   0  0  0  0  0  0  0  0  0  0  0  0
   54.8390   26.7010   46.0010 O   0  0  0  0  0  0  0  0  0  0  0  0
   57.2530   27.2980   46.2290 C   0  0  0  0  0  0  0  0  0  0  0  0
   57.1610   27.9810   44.9430 N   0  0  0  0  0  0  0  0  0  0  0  0
   56.4040   29.1730   44.6990 C   0  0  0  0  0  0  0  0  0  0  0  0
   55.1550   29.1500   44.8550 O   0  0  0  0  0  0  0  0  0  0  0  0
   57.0480   30.4210   44.2400 C   0  0  0  0  0  0  0  0  0  0  0  0
   56.8050   30.8470   42.9260 C   0  0  0  0  0  0  0  0  0  0  0  0
   57.4130   32.0010   42.4310 C   0  0  0  0  0  0  0  0  0  0  0  0
   58.2630   32.7520   43.2420 C   0  0  0  0  0  0  0  0  0  0  0  0
   58.5040   32.3610   44.5670 C   0  0  0  0  0  0  0  0  0  0  0  0
   59.3240   33.1090   45.3640 N   0  0  0  0  0  0  0  0  0  0  0  0
   59.5700   32.7810   46.6620 C   0  0  0  0  0  0  0  0  0  0  0  0
   60.4290   33.6070   47.4070 O   0  0  0  0  0  0  0  0  0  0  0  0
   61.6370   34.1990   46.9280 C   0  0  0  0  0  0  0  0  0  0  0  0
   62.7240   33.1350   46.7470 C   0  0  0  0  0  0  0  0  0  0  0  0
   63.1870   32.6200   48.0830 C   0  0  0  0  0  0  0  0  0  0  0  0
   62.4260   31.6640   48.7770 C   0  0  0  0  0  0  0  0  0  0  0  0
   62.8430   31.2110   50.0330 C   0  0  0  0  0  0  0  0  0  0  0  0
   64.0130   31.7150   50.6080 C   0  0  0  0  0  0  0  0  0  0  0  0
   64.7670   32.6760   49.9290 C   0  0  0  0  0  0  0  0  0  0  0  0
   64.3550   33.1320   48.6730 C   0  0  0  0  0  0  0  0  0  0  0  0
   58.9690   31.6340   47.2080 C   0  0  0  0  0  0  0  0  0  0  0  0
   58.1280   30.8500   46.4210 C   0  0  0  0  0  0  0  0  0  0  0  0
   57.8890   31.1920   45.0790 C   0  0  0  0  0  0  0  0  0  0  0  0
   57.2153   28.0424   47.0380 H   0  0  0  0  0  0  0  0  0  0  0  0
   58.2012   26.7419   46.2700 H   0  0  0  0  0  0  0  0  0  0  0  0
   56.1295   30.2665   42.2804 H   0  0  0  0  0  0  0  0  0  0  0  0
   57.2209   32.3200   41.3959 H   0  0  0  0  0  0  0  0  0  0  0  0
   58.7465   33.6549   42.8408 H   0  0  0  0  0  0  0  0  0  0  0  0
   59.7780   33.9670   44.9770 H   0  0  0  0  0  0  0  0  0  0  0  0
   61.4425   34.6853   45.9607 H   0  0  0  0  0  0  0  0  0  0  0  0
   61.9847   34.9397   47.6632 H   0  0  0  0  0  0  0  0  0  0  0  0
   62.3178   32.2994   46.1582 H   0  0  0  0  0  0  0  0  0  0  0  0
   63.5800   33.5870   46.2246 H   0  0  0  0  0  0  0  0  0  0  0  0
   61.5002   31.2710   48.3315 H   0  0  0  0  0  0  0  0  0  0  0  0
   62.2488   30.4565   50.5693 H   0  0  0  0  0  0  0  0  0  0  0  0
   64.3402   31.3553   51.5947 H   0  0  0  0  0  0  0  0  0  0  0  0
   65.6861   33.0744   50.3834 H   0  0  0  0  0  0  0  0  0  0  0  0
   64.9472   33.8940   48.1451 H   0  0  0  0  0  0  0  0  0  0  0  0
   59.1621   31.3557   48.2545 H   0  0  0  0  0  0  0  0  0  0  0  0
   57.6487   29.9588   46.8523 H   0  0  0  0  0  0  0  0  0  0  0  0
  1  2  2  0
  2  3  1  0
  2  4  1  0
  4  5  1  0
  5  6  1  0
  6  7  2  0
  6  8  1  0
  8  9  2  0
  9 10  1  0
 10 11  2  0
 11 12  1  0
 12 13  2  0
 13 14  1  0
 14 15  1  0
 15 16  1  0
 16 17  1  0
 17 18  1  0
 18 19  2  0
 19 20  1  0
 20 21  2  0
 21 22  1  0
 22 23  2  0
 14 24  2  0
 24 25  1  0
 25 26  2  0
 26  8  1  0
 26 12  1  0
 23 18  1  0
  4 27  1  0
  4 28  1  0
  9 29  1  0
 10 30  1  0
 11 31  1  0
 13 32  1  0
 16 33  1  0
 16 34  1  0
 17 35  1  0
 17 36  1  0
 19 37  1  0
 20 38  1  0
 21 39  1  0
 22 40  1  0
 23 41  1  0
 24 42  1  0
 25 43  1  0
M  CHG  3   3  -1   5  -1  13   1
M  END
>  <UniqueID>  (43) 
39

>  <SMILES>  (43) 
O=C([O-])C[N-]C(=O)c1cccc2[nH+]c(OCCc3ccccc3)ccc12

>  <Energy>  (43) 
51.82823069442399

>  <Genealogy>  (43) 
O=C([O-])C[N-]C(=O)c1cccc2[nH+]c(OCCc3ccccc3)ccc12 (protonated)
O=C([O-])C[N-]C(=O)c1cccc2[nH+]c(OCCc3ccccc3)ccc12 (3D coordinates assigned)
O=C([O-])C[N-]C(=O)c1cccc2[nH+]c(OCCc3ccccc3)ccc12 (optimized conformer: 51.82823069442399 kcal/mol)

>  <smiles>  (43) 
O=C(O)CNC(=O)c1cccc2nc(OCCc3ccccc3)ccc12

>  <score_type>  (43) 
oracle

>  <origin>  (43) 
adg

>  <m_score__min__energy>  (43) 
-11.619999999999999

>  <m_primary>  (43) 
energy

$$$$
43:0
     RDKit          3D

 51 53  0  0  0  0  0  0  0  0999 V2000
   54.7110   26.9660   46.8940 H   0  0  0  0  0  0  0  0  0  0  0  0
   55.2120   26.6930   46.0180 N   0  0  0  0  0  0  0  0  0  0  0  0
   56.4780   26.4280   46.0180 C   0  0  0  0  0  0  0  0  0  0  0  0
   57.3460   27.2320   46.6920 N   0  0  0  0  0  0  0  0  0  0  0  0
   58.6850   26.9850   46.7200 C   0  0  0  0  0  0  0  0  0  0  0  0
   59.5940   27.9350   47.4380 C   0  0  0  0  0  0  0  0  0  0  0  0
   60.1401   27.3944   48.2251 H   0  0  0  0  0  0  0  0  0  0  0  0
   60.3092   28.3664   46.7222 H   0  0  0  0  0  0  0  0  0  0  0  0
   58.8080   29.0060   48.0410 N   0  0  0  0  0  0  0  0  0  0  0  0
   57.9400   29.2970   47.5410 H   0  0  0  0  0  0  0  0  0  0  0  0
   59.2680   29.7630   49.1730 C   0  0  0  0  0  0  0  0  0  0  0  0
   60.3590   29.4650   49.7310 O   0  0  0  0  0  0  0  0  0  0  0  0
   58.4930   30.9510   49.6810 C   0  0  0  0  0  0  0  0  0  0  0  0
   57.4237   30.7954   49.4750 H   0  0  0  0  0  0  0  0  0  0  0  0
   58.6727   31.0449   50.7621 H   0  0  0  0  0  0  0  0  0  0  0  0
   58.9320   32.2020   49.0260 N   0  0  0  0  0  0  0  0  0  0  0  0
   59.6840   33.1330   49.7130 C   0  0  0  0  0  0  0  0  0  0  0  0
   60.1760   32.8870   51.1200 C   0  0  0  0  0  0  0  0  0  0  0  0
   59.4315   33.2593   51.8391 H   0  0  0  0  0  0  0  0  0  0  0  0
   60.3257   31.8080   51.2727 H   0  0  0  0  0  0  0  0  0  0  0  0
   61.1290   33.4146   51.2727 H   0  0  0  0  0  0  0  0  0  0  0  0
   60.0180   34.3440   49.0900 C   0  0  0  0  0  0  0  0  0  0  0  0
   60.6359   35.0836   49.6202 H   0  0  0  0  0  0  0  0  0  0  0  0
   59.5800   34.6020   47.8370 N   0  0  0  0  0  0  0  0  0  0  0  0
   58.8370   33.7020   47.1450 C   0  0  0  0  0  0  0  0  0  0  0  0
   58.3800   33.9840   45.9590 N   0  0  0  0  0  0  0  0  0  0  0  0
   58.9480   33.5010   44.7000 C   0  0  0  0  0  0  0  0  0  0  0  0
   59.4872   34.3258   44.2111 H   0  0  0  0  0  0  0  0  0  0  0  0
   59.6298   32.6677   44.9253 H   0  0  0  0  0  0  0  0  0  0  0  0
   57.8540   32.9870   43.7510 C   0  0  0  0  0  0  0  0  0  0  0  0
   56.8876   33.4142   44.0568 H   0  0  0  0  0  0  0  0  0  0  0  0
   58.1159   33.2949   42.7280 H   0  0  0  0  0  0  0  0  0  0  0  0
   57.7530   31.4820   43.7770 C   0  0  0  0  0  0  0  0  0  0  0  0
   58.7290   30.7190   44.4370 C   0  0  0  0  0  0  0  0  0  0  0  0
   59.5892   31.2176   44.9077 H   0  0  0  0  0  0  0  0  0  0  0  0
   58.6110   29.3260   44.4980 C   0  0  0  0  0  0  0  0  0  0  0  0
   59.3822   28.7315   45.0096 H   0  0  0  0  0  0  0  0  0  0  0  0
   57.5150   28.6890   43.9100 C   0  0  0  0  0  0  0  0  0  0  0  0
   57.4249   27.5938   43.9587 H   0  0  0  0  0  0  0  0  0  0  0  0
   56.5330   29.4420   43.2600 C   0  0  0  0  0  0  0  0  0  0  0  0
   55.6690   28.9396   42.8004 H   0  0  0  0  0  0  0  0  0  0  0  0
   56.6490   30.8340   43.1940 C   0  0  0  0  0  0  0  0  0  0  0  0
   55.8737   31.4247   42.6841 H   0  0  0  0  0  0  0  0  0  0  0  0
   58.5210   32.4730   47.7400 C   0  0  0  0  0  0  0  0  0  0  0  0
   57.8290   31.6360   47.0950 O   0  0  0  0  0  0  0  0  0  0  0  0
   59.2010   25.8850   46.0200 C   0  0  0  0  0  0  0  0  0  0  0  0
   60.2826   25.6846   46.0204 H   0  0  0  0  0  0  0  0  0  0  0  0
   58.3300   25.0470   45.3230 C   0  0  0  0  0  0  0  0  0  0  0  0
   58.7221   24.1768   44.7761 H   0  0  0  0  0  0  0  0  0  0  0  0
   56.9600   25.3150   45.3210 C   0  0  0  0  0  0  0  0  0  0  0  0
   56.2663   24.6574   44.7767 H   0  0  0  0  0  0  0  0  0  0  0  0
  1  2  1  0
  2  3  2  0
  3  4  1  0
  4  5  1  0
  5  6  1  0
  6  7  1  0
  6  8  1  0
  6  9  1  0
  9 10  1  0
  9 11  1  0
 11 12  2  0
 11 13  1  0
 13 14  1  0
 13 15  1  0
 13 16  1  0
 16 17  1  0
 17 18  1  0
 18 19  1  0
 18 20  1  0
 18 21  1  0
 17 22  2  0
 22 23  1  0
 22 24  1  0
 24 25  1  0
 25 26  2  3
 26 27  1  0
 27 28  1  0
 27 29  1  0
 27 30  1  0
 30 31  1  0
 30 32  1  0
 30 33  1  0
 33 34  2  0
 34 35  1  0
 34 36  1  0
 36 37  1  0
 36 38  2  0
 38 39  1  0
 38 40  1  0
 40 41  1  0
 40 42  2  0
 42 43  1  0
 25 44  1  0
 44 45  2  0
  5 46  2  0
 46 47  1  0
 46 48  1  0
 48 49  1  0
 48 50  2  0
 50 51  1  0
 50  3  1  0
 44 16  1  0
 42 33  1  0
M  CHG  2   4  -1  24  -1
M  END
>  <UniqueID>  (44) 
40

>  <SMILES>  (44) 
[H]/N=c1/cccc(CNC(=O)Cn2c(C)c[n-]c(=NCCc3ccccc3)c2=O)[n-]1

>  <Energy>  (44) 
52.166330777962074

>  <Genealogy>  (44) 
Cc1c[n-]c(=NCCc2ccccc2)c(=O)n1CC(=O)NCc1cccc(=N)[n-]1 (protonated)
[H]/N=c1/cccc(CNC(=O)Cn2c(C)c[n-]c(=NCCc3ccccc3)c2=O)[n-]1 (cis-trans isomerization)
[H]/N=c1/cccc(CNC(=O)Cn2c(C)c[n-]c(=NCCc3ccccc3)c2=O)[n-]1 (3D coordinates assigned)
[H]/N=c1/cccc(CNC(=O)Cn2c(C)c[n-]c(=NCCc3ccccc3)c2=O)[n-]1 (optimized conformer: 52.166330777962074 kcal/mol)

>  <smiles>  (44) 
Cc1c[nH]c(=NCCc2ccccc2)c(=O)n1CC(=O)NCc1cccc(=N)[nH]1

>  <score_type>  (44) 
oracle

>  <origin>  (44) 
adg

>  <m_score__min__energy>  (44) 
-11.66

>  <m_primary>  (44) 
energy

$$$$
44:0
     RDKit          3D

 45 47  0  0  0  0  0  0  0  0999 V2000
   56.6880   25.1980   46.5700 C   0  0  0  0  0  0  0  0  0  0  0  0
   56.6270   26.6820   46.2090 C   0  0  0  0  0  0  0  0  0  0  0  0
   58.0190   27.2590   46.0430 C   0  0  0  0  0  0  0  0  0  0  0  0
   58.9920   27.0080   47.0280 C   0  0  0  0  0  0  0  0  0  0  0  0
   60.2760   27.5450   46.9100 C   0  0  0  0  0  0  0  0  0  0  0  0
   60.6030   28.3400   45.8100 C   0  0  0  0  0  0  0  0  0  0  0  0
   59.6500   28.5900   44.8180 C   0  0  0  0  0  0  0  0  0  0  0  0
   58.3620   28.0420   44.9180 C   0  0  0  0  0  0  0  0  0  0  0  0
   57.3960   28.3100   43.8930 N   0  0  0  0  0  0  0  0  0  0  0  0
   56.4360   29.7480   43.9420 S   0  0  0  0  0  0  0  0  0  0  0  0
   55.8950   30.0580   42.5700 O   0  0  0  0  0  0  0  0  0  0  0  0
   55.2810   29.5480   44.8840 O   0  0  0  0  0  0  0  0  0  0  0  0
   57.4530   31.0590   44.5270 C   0  0  0  0  0  0  0  0  0  0  0  0
   57.8420   31.1130   45.8720 C   0  0  0  0  0  0  0  0  0  0  0  0
   58.5560   32.2160   46.3570 C   0  0  0  0  0  0  0  0  0  0  0  0
   58.8660   33.2900   45.5030 C   0  0  0  0  0  0  0  0  0  0  0  0
   59.5690   34.4870   46.0290 C   0  0  0  0  0  0  0  0  0  0  0  0
   59.3610   35.6120   45.5060 O   0  0  0  0  0  0  0  0  0  0  0  0
   60.4360   34.4110   47.1760 N   0  0  0  0  0  0  0  0  0  0  0  0
   61.4960   33.6620   47.3070 C   0  0  0  0  0  0  0  0  0  0  0  0
   61.4550   32.6010   48.2250 C   0  0  0  0  0  0  0  0  0  0  0  0
   62.5660   31.7680   48.3680 C   0  0  0  0  0  0  0  0  0  0  0  0
   63.6980   32.0030   47.6500 N   0  0  0  0  0  0  0  0  0  0  0  0
   63.7800   33.0410   46.7720 C   0  0  0  0  0  0  0  0  0  0  0  0
   62.6860   33.8880   46.5800 C   0  0  0  0  0  0  0  0  0  0  0  0
   58.4890   33.2210   44.1490 C   0  0  0  0  0  0  0  0  0  0  0  0
   57.7830   32.1140   43.6670 C   0  0  0  0  0  0  0  0  0  0  0  0
   56.6926   25.0867   47.6643 H   0  0  0  0  0  0  0  0  0  0  0  0
   55.8103   24.6828   46.1527 H   0  0  0  0  0  0  0  0  0  0  0  0
   57.6051   24.7565   46.1527 H   0  0  0  0  0  0  0  0  0  0  0  0
   56.0739   26.8001   45.2655 H   0  0  0  0  0  0  0  0  0  0  0  0
   56.1197   27.2200   47.0234 H   0  0  0  0  0  0  0  0  0  0  0  0
   58.7394   26.3839   47.8979 H   0  0  0  0  0  0  0  0  0  0  0  0
   61.0302   27.3413   47.6844 H   0  0  0  0  0  0  0  0  0  0  0  0
   61.6117   28.7702   45.7236 H   0  0  0  0  0  0  0  0  0  0  0  0
   59.9112   29.2196   43.9546 H   0  0  0  0  0  0  0  0  0  0  0  0
   57.5855   30.2856   46.5499 H   0  0  0  0  0  0  0  0  0  0  0  0
   58.8754   32.2426   47.4093 H   0  0  0  0  0  0  0  0  0  0  0  0
   60.5521   32.4268   48.8286 H   0  0  0  0  0  0  0  0  0  0  0  0
   62.5263   30.9175   49.0644 H   0  0  0  0  0  0  0  0  0  0  0  0
   64.5230   31.3750   47.7770 H   0  0  0  0  0  0  0  0  0  0  0  0
   64.7111   33.2129   46.2121 H   0  0  0  0  0  0  0  0  0  0  0  0
   62.7506   34.7243   45.8684 H   0  0  0  0  0  0  0  0  0  0  0  0
   58.7510   34.0423   43.4658 H   0  0  0  0  0  0  0  0  0  0  0  0
   57.4859   32.0718   42.6087 H   0  0  0  0  0  0  0  0  0  0  0  0
  1  2  1  0
  2  3  1  0
  3  4  2  0
  4  5  1  0
  5  6  2  0
  6  7  1  0
  7  8  2  0
  8  9  1  0
  9 10  1  0
 10 11  2  0
 10 12  2  0
 10 13  1  0
 13 14  2  0
 14 15  1  0
 15 16  2  0
 16 17  1  0
 17 18  2  0
 17 19  1  0
 19 20  2  3
 20 21  1  0
 21 22  2  0
 22 23  1  0
 23 24  1  0
 24 25  2  0
 16 26  1  0
 26 27  2  0
  8  3  1  0
 27 13  1  0
 25 20  1  0
  1 28  1  0
  1 29  1  0
  1 30  1  0
  2 31  1  0
  2 32  1  0
  4 33  1  0
  5 34  1  0
  6 35  1  0
  7 36  1  0
 14 37  1  0
 15 38  1  0
 21 39  1  0
 22 40  1  0
 23 41  1  0
 24 42  1  0
 25 43  1  0
 26 44  1  0
 27 45  1  0
M  CHG  1   9  -1
M  END
>  <UniqueID>  (45) 
41

>  <SMILES>  (45) 
CCc1ccccc1[N-]S(=O)(=O)c1ccc(C(=O)N=c2cc[nH]cc2)cc1

>  <Energy>  (45) 
61.8452596096147

>  <Genealogy>  (45) 
CCc1ccccc1[N-]S(=O)(=O)c1ccc(C(=O)N=c2cc[nH]cc2)cc1 (protonated)
CCc1ccccc1[N-]S(=O)(=O)c1ccc(C(=O)N=c2cc[nH]cc2)cc1 (3D coordinates assigned)
CCc1ccccc1[N-]S(=O)(=O)c1ccc(C(=O)N=c2cc[nH]cc2)cc1 (optimized conformer: 61.8452596096147 kcal/mol)

>  <smiles>  (45) 
CCc1ccccc1NS(=O)(=O)c1ccc(C(=O)N=c2cc[nH]cc2)cc1

>  <score_type>  (45) 
oracle

>  <origin>  (45) 
adg

>  <m_score__min__energy>  (45) 
-10.449999999999999

>  <m_primary>  (45) 
energy

$$$$
45:0
     RDKit          3D

 70 75  0  0  0  0  0  0  0  0999 V2000
   58.2180   29.0090   48.1380 C   0  0  0  0  0  0  0  0  0  0  0  0
   59.3680   29.8920   48.3500 N   0  0  0  0  0  0  0  0  0  0  0  0
   59.8360   30.8430   47.4960 C   0  0  0  0  0  0  0  0  0  0  0  0
   59.2570   31.1140   46.1650 C   0  0  0  0  0  0  0  0  0  0  0  0
   58.9890   30.0860   45.3140 N   0  0  0  0  0  0  0  0  0  0  0  0
   58.4420   30.3120   44.0920 C   0  0  0  0  0  0  0  0  0  0  0  0
   58.1480   31.6160   43.6920 C   0  0  0  0  0  0  0  0  0  0  0  0
   57.3930   31.9680   41.9750 Br  0  0  0  0  0  0  0  0  0  0  0  0
   58.4220   32.6590   44.5770 C   0  0  0  0  0  0  0  0  0  0  0  0
   58.9660   32.3900   45.7920 N   0  0  0  0  0  0  0  0  0  0  0  0
   60.9330   31.5130   48.0560 C   0  0  0  0  0  0  0  0  0  0  0  0
   61.6620   32.6980   47.4390 C   0  0  0  0  0  0  0  0  0  0  0  0
   63.1610   32.5070   47.2240 C   0  0  0  0  0  0  0  0  0  0  0  0
   63.4360   33.7180   48.1120 C   0  0  0  0  0  0  0  0  0  0  0  0
   61.9400   33.8630   48.3860 C   0  0  0  0  0  0  0  0  0  0  0  0
   61.1040   30.9350   49.3120 C   0  0  0  0  0  0  0  0  0  0  0  0
   62.0050   31.2110   50.3430 C   0  0  0  0  0  0  0  0  0  0  0  0
   61.9020   30.4820   51.5370 C   0  0  0  0  0  0  0  0  0  0  0  0
   60.8970   29.4940   51.7040 C   0  0  0  0  0  0  0  0  0  0  0  0
   60.7270   28.8140   53.0090 C   0  0  0  0  0  0  0  0  0  0  0  0
   60.2470   27.6440   53.0680 O   0  0  0  0  0  0  0  0  0  0  0  0
   61.0430   29.5090   54.2220 N   0  0  0  0  0  0  0  0  0  0  0  0
   60.5070   30.8420   54.5150 C   0  0  0  0  0  0  0  0  0  0  0  0
   59.0620   30.9500   54.0410 C   0  0  0  0  0  0  0  0  0  0  0  0
   58.6070   32.1180   53.8580 O   0  0  0  0  0  0  0  0  0  0  0  0
   58.2240   29.8120   53.7580 N   0  0  0  0  0  0  0  0  0  0  0  0
   56.8970   29.9370   53.2190 C   0  0  0  0  0  0  0  0  0  0  0  0
   55.8180   29.2210   53.7570 C   0  0  0  0  0  0  0  0  0  0  0  0
   54.5280   29.3980   53.2450 C   0  0  0  0  0  0  0  0  0  0  0  0
   54.3030   30.2610   52.1630 C   0  0  0  0  0  0  0  0  0  0  0  0
   52.9130   30.5040   51.7100 C   0  0  0  0  0  0  0  0  0  0  0  0
   52.0330   31.3330   52.2970 C   0  0  0  0  0  0  0  0  0  0  0  0
   51.1880   32.3120   51.5920 C   0  0  0  0  0  0  0  0  0  0  0  0
   50.5370   33.1600   52.2620 O   0  0  0  0  0  0  0  0  0  0  0  0
   51.0360   32.2680   50.2100 O   0  0  0  0  0  0  0  0  0  0  0  0
   55.3860   30.9730   51.6210 C   0  0  0  0  0  0  0  0  0  0  0  0
   56.6750   30.7950   52.1330 C   0  0  0  0  0  0  0  0  0  0  0  0
   60.9080   31.3270   55.9200 C   0  0  0  0  0  0  0  0  0  0  0  0
   61.7650   32.4240   55.2940 C   0  0  0  0  0  0  0  0  0  0  0  0
   61.3900   31.9340   53.9010 C   0  0  0  0  0  0  0  0  0  0  0  0
   60.0070   29.2290   50.6390 C   0  0  0  0  0  0  0  0  0  0  0  0
   60.1390   29.9660   49.4550 C   0  0  0  0  0  0  0  0  0  0  0  0
   57.8112   28.6967   49.1111 H   0  0  0  0  0  0  0  0  0  0  0  0
   57.4428   29.5461   47.5719 H   0  0  0  0  0  0  0  0  0  0  0  0
   58.5367   28.1214   47.5719 H   0  0  0  0  0  0  0  0  0  0  0  0
   58.2310   29.4684   43.4184 H   0  0  0  0  0  0  0  0  0  0  0  0
   58.1979   33.6973   44.2913 H   0  0  0  0  0  0  0  0  0  0  0  0
   60.9938   32.8353   46.5761 H   0  0  0  0  0  0  0  0  0  0  0  0
   63.5553   31.5596   47.6202 H   0  0  0  0  0  0  0  0  0  0  0  0
   63.5774   32.4534   46.2073 H   0  0  0  0  0  0  0  0  0  0  0  0
   64.0357   33.4915   49.0059 H   0  0  0  0  0  0  0  0  0  0  0  0
   64.0146   34.5699   47.7254 H   0  0  0  0  0  0  0  0  0  0  0  0
   61.6530   33.6724   49.4307 H   0  0  0  0  0  0  0  0  0  0  0  0
   61.4367   34.8309   48.2451 H   0  0  0  0  0  0  0  0  0  0  0  0
   62.7787   31.9834   50.2213 H   0  0  0  0  0  0  0  0  0  0  0  0
   62.6102   30.6789   52.3554 H   0  0  0  0  0  0  0  0  0  0  0  0
   58.6080   28.8430   53.8060 H   0  0  0  0  0  0  0  0  0  0  0  0
   55.9865   28.5170   54.5853 H   0  0  0  0  0  0  0  0  0  0  0  0
   53.6834   28.8557   53.6950 H   0  0  0  0  0  0  0  0  0  0  0  0
   52.5725   29.9593   50.8170 H   0  0  0  0  0  0  0  0  0  0  0  0
   51.9361   31.2758   53.3912 H   0  0  0  0  0  0  0  0  0  0  0  0
   55.2192   31.6739   50.7898 H   0  0  0  0  0  0  0  0  0  0  0  0
   57.5212   31.3324   51.6801 H   0  0  0  0  0  0  0  0  0  0  0  0
   60.0678   31.7020   56.5228 H   0  0  0  0  0  0  0  0  0  0  0  0
   61.3431   30.6269   56.6484 H   0  0  0  0  0  0  0  0  0  0  0  0
   61.4200   33.4443   55.5178 H   0  0  0  0  0  0  0  0  0  0  0  0
   62.8225   32.5304   55.5777 H   0  0  0  0  0  0  0  0  0  0  0  0
   60.8377   32.6716   53.3002 H   0  0  0  0  0  0  0  0  0  0  0  0
   62.1744   31.6703   53.1763 H   0  0  0  0  0  0  0  0  0  0  0  0
   59.2267   28.4600   50.7376 H   0  0  0  0  0  0  0  0  0  0  0  0
  1  2  1  0
  2  3  1  0
  3  4  1  0
  4  5  2  0
  5  6  1  0
  6  7  2  0
  7  8  1  0
  7  9  1  0
  9 10  2  0
  3 11  2  0
 11 12  1  0
 12 13  1  0
 13 14  1  0
 14 15  1  0
 11 16  1  0
 16 17  2  0
 17 18  1  0
 18 19  2  0
 19 20  1  0
 20 21  2  0
 20 22  1  0
 22 23  1  0
 23 24  1  0
 24 25  2  0
 24 26  1  0
 26 27  1  0
 27 28  2  0
 28 29  1  0
 29 30  2  0
 30 31  1  0
 31 32  2  3
 32 33  1  0
 33 34  2  0
 33 35  1  0
 30 36  1  0
 36 37  2  0
 23 38  1  0
 38 39  1  0
 39 40  1  0
 19 41  1  0
 41 42  2  0
 42  2  1  0
 10  4  1  0
 15 12  1  0
 42 16  1  0
 40 23  1  0
 37 27  1  0
  1 43  1  0
  1 44  1  0
  1 45  1  0
  6 46  1  0
  9 47  1  0
 12 48  1  0
 13 49  1  0
 13 50  1  0
 14 51  1  0
 14 52  1  0
 15 53  1  0
 15 54  1  0
 17 55  1  0
 18 56  1  0
 26 57  1  0
 28 58  1  0
 29 59  1  0
 31 60  1  0
 32 61  1  0
 36 62  1  0
 37 63  1  0
 38 64  1  0
 38 65  1  0
 39 66  1  0
 39 67  1  0
 40 68  1  0
 40 69  1  0
 41 70  1  0
M  CHG  2  22  -1  35  -1
M  END
>  <UniqueID>  (46) 
42

>  <SMILES>  (46) 
Cn1c(-c2ncc(Br)cn2)c(C2CCC2)c2ccc(C(=O)[N-]C3(C(=O)Nc4ccc(C=CC(=O)[O-])cc4)CCC3)cc21

>  <Energy>  (46) 
260.2413038156408

>  <Genealogy>  (46) 
Cn1c(-c2ncc(Br)cn2)c(C2CCC2)c2ccc(C(=O)[N-]C3(C(=O)Nc4ccc(C=CC(=O)[O-])cc4)CCC3)cc21 (protonated)
Cn1c(-c2ncc(Br)cn2)c(C2CCC2)c2ccc(C(=O)[N-]C3(C(=O)Nc4ccc(C=CC(=O)[O-])cc4)CCC3)cc21 (3D coordinates assigned)
Cn1c(-c2ncc(Br)cn2)c(C2CCC2)c2ccc(C(=O)[N-]C3(C(=O)Nc4ccc(C=CC(=O)[O-])cc4)CCC3)cc21 (nonaromatic ring conformer: 260.2413038156408 kcal/mol)

>  <smiles>  (46) 
Cn1c(-c2ncc(Br)cn2)c(C2CCC2)c2ccc(C(=O)NC3(C(=O)Nc4ccc(C=CC(=O)O)cc4)CCC3)cc21

>  <score_type>  (46) 
oracle

>  <origin>  (46) 
adg

>  <m_score__min__energy>  (46) 
-15.130000000000001

>  <m_primary>  (46) 
energy

$$$$
46:0
     RDKit          3D

 54 57  0  0  0  0  0  0  0  0999 V2000
   58.8440   30.9020   49.4310 C   0  0  0  0  0  0  0  0  0  0  0  0
   59.3520   29.5210   49.1250 C   0  0  0  0  0  0  0  0  0  0  0  0
   60.3350   28.9580   49.9530 C   0  0  0  0  0  0  0  0  0  0  0  0
   60.8360   27.6840   49.6930 C   0  0  0  0  0  0  0  0  0  0  0  0
   60.3690   26.9580   48.5980 C   0  0  0  0  0  0  0  0  0  0  0  0
   59.3900   27.4970   47.7510 C   0  0  0  0  0  0  0  0  0  0  0  0
   58.9160   26.6930   46.6020 C   0  0  0  0  0  0  0  0  0  0  0  0
   59.2330   27.0490   45.4350 O   0  0  0  0  0  0  0  0  0  0  0  0
   58.1270   25.5080   46.7660 N   0  0  0  0  0  0  0  0  0  0  0  0
   56.7690   25.3320   46.3410 C   0  0  0  0  0  0  0  0  0  0  0  0
   56.0110   24.1780   46.3760 C   0  0  0  0  0  0  0  0  0  0  0  0
   54.7590   24.5560   45.9210 C   0  0  0  0  0  0  0  0  0  0  0  0
   54.7460   25.8430   45.6430 O   0  0  0  0  0  0  0  0  0  0  0  0
   55.9390   26.3300   45.8940 C   0  0  0  0  0  0  0  0  0  0  0  0
   56.2910   27.6640   45.7310 O   0  0  0  0  0  0  0  0  0  0  0  0
   58.8460   28.7700   48.0380 C   0  0  0  0  0  0  0  0  0  0  0  0
   57.7740   29.2770   47.2340 N   0  0  0  0  0  0  0  0  0  0  0  0
   58.0510   30.1350   45.7550 S   0  0  0  0  0  0  0  0  0  0  0  0
   59.1880   29.4830   45.0190 O   0  0  0  0  0  0  0  0  0  0  0  0
   56.8120   30.0950   44.9070 O   0  0  0  0  0  0  0  0  0  0  0  0
   58.4710   31.8130   46.1090 C   0  0  0  0  0  0  0  0  0  0  0  0
   57.4610   32.7850   46.1470 C   0  0  0  0  0  0  0  0  0  0  0  0
   57.7720   34.1180   46.4160 C   0  0  0  0  0  0  0  0  0  0  0  0
   59.0960   34.4950   46.6390 C   0  0  0  0  0  0  0  0  0  0  0  0
   60.1140   33.5390   46.5880 C   0  0  0  0  0  0  0  0  0  0  0  0
   59.8140   32.1900   46.3140 C   0  0  0  0  0  0  0  0  0  0  0  0
   60.8140   31.2060   46.2350 O   0  0  0  0  0  0  0  0  0  0  0  0
   61.4930   30.6210   47.3470 C   0  0  0  0  0  0  0  0  0  0  0  0
   62.4320   31.6140   47.9790 C   0  0  0  0  0  0  0  0  0  0  0  0
   62.5740   31.6570   49.3770 C   0  0  0  0  0  0  0  0  0  0  0  0
   63.4400   32.5820   49.9690 C   0  0  0  0  0  0  0  0  0  0  0  0
   64.1600   33.4760   49.1720 C   0  0  0  0  0  0  0  0  0  0  0  0
   64.0150   33.4480   47.7820 C   0  0  0  0  0  0  0  0  0  0  0  0
   63.1510   32.5240   47.1860 C   0  0  0  0  0  0  0  0  0  0  0  0
   58.7930   31.0407   50.5210 H   0  0  0  0  0  0  0  0  0  0  0  0
   59.5265   31.6481   48.9980 H   0  0  0  0  0  0  0  0  0  0  0  0
   57.8407   31.0279   48.9980 H   0  0  0  0  0  0  0  0  0  0  0  0
   60.7134   29.5273   50.8148 H   0  0  0  0  0  0  0  0  0  0  0  0
   61.6016   27.2501   50.3530 H   0  0  0  0  0  0  0  0  0  0  0  0
   60.7718   25.9543   48.3969 H   0  0  0  0  0  0  0  0  0  0  0  0
   56.3323   23.1758   46.6960 H   0  0  0  0  0  0  0  0  0  0  0  0
   53.8994   23.8789   45.8081 H   0  0  0  0  0  0  0  0  0  0  0  0
   57.2610   27.9310   45.6250 H   0  0  0  0  0  0  0  0  0  0  0  0
   56.4161   32.4943   45.9634 H   0  0  0  0  0  0  0  0  0  0  0  0
   56.9722   34.8724   46.4523 H   0  0  0  0  0  0  0  0  0  0  0  0
   59.3392   35.5458   46.8552 H   0  0  0  0  0  0  0  0  0  0  0  0
   61.1569   33.8419   46.7630 H   0  0  0  0  0  0  0  0  0  0  0  0
   60.7523   30.2986   48.0936 H   0  0  0  0  0  0  0  0  0  0  0  0
   62.0765   29.7589   46.9916 H   0  0  0  0  0  0  0  0  0  0  0  0
   62.0019   30.9605   50.0076 H   0  0  0  0  0  0  0  0  0  0  0  0
   63.5544   32.6058   51.0628 H   0  0  0  0  0  0  0  0  0  0  0  0
   64.8415   34.2024   49.6389 H   0  0  0  0  0  0  0  0  0  0  0  0
   64.5812   34.1536   47.1563 H   0  0  0  0  0  0  0  0  0  0  0  0
   63.0339   32.5096   46.0923 H   0  0  0  0  0  0  0  0  0  0  0  0
  1  2  1  0
  2  3  2  0
  3  4  1  0
  4  5  2  0
  5  6  1  0
  6  7  1  0
  7  8  2  0
  7  9  1  0
  9 10  1  0
 10 11  1  0
 11 12  2  0
 12 13  1  0
 13 14  1  0
 14 15  1  0
  6 16  2  0
 16 17  1  0
 17 18  1  0
 18 19  2  0
 18 20  2  0
 18 21  1  0
 21 22  2  0
 22 23  1  0
 23 24  2  0
 24 25  1  0
 25 26  2  0
 26 27  1  0
 27 28  1  0
 28 29  1  0
 29 30  2  0
 30 31  1  0
 31 32  2  0
 32 33  1  0
 33 34  2  0
 16  2  1  0
 26 21  1  0
 34 29  1  0
 14 10  2  0
  1 35  1  0
  1 36  1  0
  1 37  1  0
  3 38  1  0
  4 39  1  0
  5 40  1  0
 11 41  1  0
 12 42  1  0
 15 43  1  0
 22 44  1  0
 23 45  1  0
 24 46  1  0
 25 47  1  0
 28 48  1  0
 28 49  1  0
 30 50  1  0
 31 51  1  0
 32 52  1  0
 33 53  1  0
 34 54  1  0
M  CHG  2   9  -1  17  -1
M  END
>  <UniqueID>  (47) 
43

>  <SMILES>  (47) 
Cc1cccc(C(=O)[N-]c2ccoc2O)c1[N-]S(=O)(=O)c1ccccc1OCc1ccccc1

>  <Energy>  (47) 
102.00001413146944

>  <Genealogy>  (47) 
Cc1cccc(C(=O)[N-]c2ccoc2O)c1[N-]S(=O)(=O)c1ccccc1OCc1ccccc1 (protonated)
Cc1cccc(C(=O)[N-]c2ccoc2O)c1[N-]S(=O)(=O)c1ccccc1OCc1ccccc1 (3D coordinates assigned)
Cc1cccc(C(=O)[N-]c2ccoc2O)c1[N-]S(=O)(=O)c1ccccc1OCc1ccccc1 (optimized conformer: 102.00001413146944 kcal/mol)

>  <smiles>  (47) 
Cc1cccc(C(=O)Nc2ccoc2O)c1NS(=O)(=O)c1ccccc1OCc1ccccc1

>  <score_type>  (47) 
oracle

>  <origin>  (47) 
adg

>  <m_score__min__energy>  (47) 
-13.460000000000001

>  <m_primary>  (47) 
energy

$$$$
47:0
     RDKit          3D

 69 71  0  0  0  0  0  0  0  0999 V2000
   58.2551   32.3298   47.4239 H   0  0  0  0  0  0  0  0  0  0  0  0
   58.8440   31.9290   48.2620 C   0  0  0  0  0  0  0  0  0  0  0  0
   59.2270   30.4960   48.1900 C   0  0  0  0  0  0  0  0  0  0  0  0
   58.5430   29.6210   48.7780 O   0  0  0  0  0  0  0  0  0  0  0  0
   60.3380   30.0530   47.3990 N   0  0  0  0  0  0  0  0  0  0  0  0
   60.3300   29.0210   46.3660 C   0  0  0  0  0  0  0  0  0  0  0  0
   61.2081   29.1561   45.7173 H   0  0  0  0  0  0  0  0  0  0  0  0
   60.3576   28.0371   46.8570 H   0  0  0  0  0  0  0  0  0  0  0  0
   59.0570   29.1010   45.5090 C   0  0  0  0  0  0  0  0  0  0  0  0
   58.8565   30.1544   45.2639 H   0  0  0  0  0  0  0  0  0  0  0  0
   59.2181   28.5107   44.5949 H   0  0  0  0  0  0  0  0  0  0  0  0
   57.9290   28.5620   46.1980 O   0  0  0  0  0  0  0  0  0  0  0  0
   56.6640   28.4470   45.6150 C   0  0  0  0  0  0  0  0  0  0  0  0
   56.0790   27.3290   45.5710 O   0  0  0  0  0  0  0  0  0  0  0  0
   56.0490   29.6100   45.0560 N   0  0  0  0  0  0  0  0  0  0  0  0
   56.7320   30.6220   44.3040 C   0  0  0  0  0  0  0  0  0  0  0  0
   56.8130   30.5710   42.9000 C   0  0  0  0  0  0  0  0  0  0  0  0
   56.3796   29.7186   42.3563 H   0  0  0  0  0  0  0  0  0  0  0  0
   57.4430   31.6010   42.1940 C   0  0  0  0  0  0  0  0  0  0  0  0
   57.5054   31.5554   41.0967 H   0  0  0  0  0  0  0  0  0  0  0  0
   57.9930   32.6870   42.8780 C   0  0  0  0  0  0  0  0  0  0  0  0
   58.4988   33.4896   42.3212 H   0  0  0  0  0  0  0  0  0  0  0  0
   57.9000   32.7530   44.2720 C   0  0  0  0  0  0  0  0  0  0  0  0
   58.5570   34.1330   45.1310 Cl  0  0  0  0  0  0  0  0  0  0  0  0
   57.2660   31.7250   44.9820 C   0  0  0  0  0  0  0  0  0  0  0  0
   57.1872   31.7845   46.0776 H   0  0  0  0  0  0  0  0  0  0  0  0
   59.1510   32.7880   49.2610 C   0  0  0  0  0  0  0  0  0  0  0  0
   58.7160   32.4600   50.6440 C   0  0  0  0  0  0  0  0  0  0  0  0
   57.4250   31.9480   50.8670 C   0  0  0  0  0  0  0  0  0  0  0  0
   56.7595   31.7542   50.0128 H   0  0  0  0  0  0  0  0  0  0  0  0
   56.9820   31.6840   52.1640 C   0  0  0  0  0  0  0  0  0  0  0  0
   55.9658   31.2969   52.3297 H   0  0  0  0  0  0  0  0  0  0  0  0
   57.8280   31.9110   53.2510 C   0  0  0  0  0  0  0  0  0  0  0  0
   57.4783   31.6998   54.2723 H   0  0  0  0  0  0  0  0  0  0  0  0
   59.1180   32.4060   53.0440 C   0  0  0  0  0  0  0  0  0  0  0  0
   59.7861   32.5670   53.9029 H   0  0  0  0  0  0  0  0  0  0  0  0
   59.5680   32.7000   51.7430 C   0  0  0  0  0  0  0  0  0  0  0  0
   60.8570   33.1990   51.5010 O   0  0  0  0  0  0  0  0  0  0  0  0
   62.0530   32.6700   51.9980 C   0  0  0  0  0  0  0  0  0  0  0  0
   62.6890   33.2740   52.9060 O   0  0  0  0  0  0  0  0  0  0  0  0
   62.5930   31.4700   51.4110 N   0  0  0  0  0  0  0  0  0  0  0  0
   63.8330   30.8810   51.9370 C   0  0  0  0  0  0  0  0  0  0  0  0
   63.7311   29.7860   51.9604 H   0  0  0  0  0  0  0  0  0  0  0  0
   64.0069   31.2696   52.9513 H   0  0  0  0  0  0  0  0  0  0  0  0
   65.0230   31.2550   51.0570 C   0  0  0  0  0  0  0  0  0  0  0  0
   65.8792   31.5241   51.6931 H   0  0  0  0  0  0  0  0  0  0  0  0
   65.2930   30.3984   50.4219 H   0  0  0  0  0  0  0  0  0  0  0  0
   64.7544   32.1120   50.4219 H   0  0  0  0  0  0  0  0  0  0  0  0
   61.9300   30.8750   50.2410 C   0  0  0  0  0  0  0  0  0  0  0  0
   61.1328   31.5498   49.8958 H   0  0  0  0  0  0  0  0  0  0  0  0
   62.6775   30.7295   49.4472 H   0  0  0  0  0  0  0  0  0  0  0  0
   61.3210   29.5200   50.5960 C   0  0  0  0  0  0  0  0  0  0  0  0
   61.2736   29.4146   51.6899 H   0  0  0  0  0  0  0  0  0  0  0  0
   60.3062   29.4530   50.1769 H   0  0  0  0  0  0  0  0  0  0  0  0
   61.9446   28.7166   50.1769 H   0  0  0  0  0  0  0  0  0  0  0  0
   59.9160   34.0830   49.0490 C   0  0  0  0  0  0  0  0  0  0  0  0
   59.3190   34.7429   48.4024 H   0  0  0  0  0  0  0  0  0  0  0  0
   60.0901   34.5324   50.0378 H   0  0  0  0  0  0  0  0  0  0  0  0
   61.2660   33.8630   48.4020 C   0  0  0  0  0  0  0  0  0  0  0  0
   61.3520   33.6820   47.0090 C   0  0  0  0  0  0  0  0  0  0  0  0
   60.4341   33.6646   46.4031 H   0  0  0  0  0  0  0  0  0  0  0  0
   62.5960   33.5240   46.3890 C   0  0  0  0  0  0  0  0  0  0  0  0
   62.6517   33.3673   45.3017 H   0  0  0  0  0  0  0  0  0  0  0  0
   63.7680   33.5650   47.1490 C   0  0  0  0  0  0  0  0  0  0  0  0
   64.7454   33.4331   46.6619 H   0  0  0  0  0  0  0  0  0  0  0  0
   63.6960   33.7740   48.5300 C   0  0  0  0  0  0  0  0  0  0  0  0
   64.6184   33.8112   49.1281 H   0  0  0  0  0  0  0  0  0  0  0  0
   62.4530   33.9360   49.1530 C   0  0  0  0  0  0  0  0  0  0  0  0
   62.4043   34.1215   50.2362 H   0  0  0  0  0  0  0  0  0  0  0  0
  1  2  1  0
  2  3  1  0
  3  4  2  0
  3  5  1  0
  5  6  1  0
  6  7  1  0
  6  8  1  0
  6  9  1  0
  9 10  1  0
  9 11  1  0
  9 12  1  0
 12 13  1  0
 13 14  2  0
 13 15  1  0
 15 16  1  0
 16 17  2  0
 17 18  1  0
 17 19  1  0
 19 20  1  0
 19 21  2  0
 21 22  1  0
 21 23  1  0
 23 24  1  0
 23 25  2  0
 25 26  1  0
  2 27  2  0
 27 28  1  0
 28 29  2  0
 29 30  1  0
 29 31  1  0
 31 32  1  0
 31 33  2  0
 33 34  1  0
 33 35  1  0
 35 36  1  0
 35 37  2  0
 37 38  1  0
 38 39  1  0
 39 40  2  0
 39 41  1  0
 41 42  1  0
 42 43  1  0
 42 44  1  0
 42 45  1  0
 45 46  1  0
 45 47  1  0
 45 48  1  0
 41 49  1  0
 49 50  1  0
 49 51  1  0
 49 52  1  0
 52 53  1  0
 52 54  1  0
 52 55  1  0
 27 56  1  0
 56 57  1  0
 56 58  1  0
 56 59  1  0
 59 60  2  0
 60 61  1  0
 60 62  1  0
 62 63  1  0
 62 64  2  0
 64 65  1  0
 64 66  1  0
 66 67  1  0
 66 68  2  0
 68 69  1  0
 25 16  1  0
 37 28  1  0
 68 59  1  0
M  CHG  2   5  -1  15  -1
M  END
>  <UniqueID>  (48) 
44

>  <SMILES>  (48) 
CCN(CC)C(=O)Oc1ccccc1/C(=C/C(=O)[N-]CCOC(=O)[N-]c1cccc(Cl)c1)Cc1ccccc1

>  <Energy>  (48) 
67.49657046997704

>  <Genealogy>  (48) 
CCN(CC)C(=O)Oc1ccccc1C(=CC(=O)[N-]CCOC(=O)[N-]c1cccc(Cl)c1)Cc1ccccc1 (protonated)
CCN(CC)C(=O)Oc1ccccc1/C(=C/C(=O)[N-]CCOC(=O)[N-]c1cccc(Cl)c1)Cc1ccccc1 (cis-trans isomerization)
CCN(CC)C(=O)Oc1ccccc1/C(=C/C(=O)[N-]CCOC(=O)[N-]c1cccc(Cl)c1)Cc1ccccc1 (3D coordinates assigned)
CCN(CC)C(=O)Oc1ccccc1/C(=C/C(=O)[N-]CCOC(=O)[N-]c1cccc(Cl)c1)Cc1ccccc1 (optimized conformer: 67.49657046997704 kcal/mol)

>  <smiles>  (48) 
CCN(CC)C(=O)Oc1ccccc1C(=CC(=O)NCCOC(=O)Nc1cccc(Cl)c1)Cc1ccccc1

>  <score_type>  (48) 
oracle

>  <origin>  (48) 
adg

>  <m_score__min__energy>  (48) 
-11.91

>  <m_primary>  (48) 
energy

$$$$
48:0
     RDKit          3D

 56 60  0  0  0  0  0  0  0  0999 V2000
   60.4020   27.4060   50.0430 O   0  0  0  0  0  0  0  0  0  0  0  0
   60.1030   28.6260   49.8920 C   0  0  0  0  0  0  0  0  0  0  0  0
   60.5010   29.3580   48.7210 N   0  0  0  0  0  0  0  0  0  0  0  0
   59.6510   29.8940   47.6940 C   0  0  0  0  0  0  0  0  0  0  0  0
   59.8840   31.1960   47.2430 C   0  0  0  0  0  0  0  0  0  0  0  0
   59.1640   31.7010   46.1530 C   0  0  0  0  0  0  0  0  0  0  0  0
   58.1970   30.9100   45.5180 C   0  0  0  0  0  0  0  0  0  0  0  0
   57.9150   29.6360   46.0170 C   0  0  0  0  0  0  0  0  0  0  0  0
   56.8680   28.5240   45.1540 S   0  0  0  0  0  0  0  0  0  0  0  0
   57.4710   28.0710   43.8460 O   0  0  0  0  0  0  0  0  0  0  0  0
   55.5530   29.2080   44.8790 O   0  0  0  0  0  0  0  0  0  0  0  0
   56.6100   27.1380   46.1970 N   0  0  0  0  0  0  0  0  0  0  0  0
   56.0320   26.0380   45.8290 C   0  0  0  0  0  0  0  0  0  0  0  0
   54.6820   25.9250   45.8100 N   0  0  0  0  0  0  0  0  0  0  0  0
   54.3020   24.6220   45.6150 C   0  0  0  0  0  0  0  0  0  0  0  0
   55.3580   23.7390   45.3760 C   0  0  0  0  0  0  0  0  0  0  0  0
   56.7970   24.5940   45.4680 S   0  0  0  0  0  0  0  0  0  0  0  0
   58.6020   29.1450   47.1310 C   0  0  0  0  0  0  0  0  0  0  0  0
   59.5050   29.3720   51.0480 C   0  0  1  0  0  0  0  0  0  0  0  0
   60.1750   30.7730   51.1650 C   0  0  0  0  0  0  0  0  0  0  0  0
   59.2350   31.7870   50.6720 N   0  0  0  0  0  0  0  0  0  0  0  0
   59.9620   33.3730   50.6400 S   0  0  0  0  0  0  0  0  0  0  0  0
   59.0120   34.3710   51.2480 O   0  0  0  0  0  0  0  0  0  0  0  0
   61.2400   33.3540   51.4300 O   0  0  0  0  0  0  0  0  0  0  0  0
   60.2680   33.8570   48.9690 C   0  0  0  0  0  0  0  0  0  0  0  0
   59.2600   34.5060   48.2380 C   0  0  0  0  0  0  0  0  0  0  0  0
   59.4810   34.8910   46.9120 C   0  0  0  0  0  0  0  0  0  0  0  0
   60.7150   34.6250   46.3040 C   0  0  0  0  0  0  0  0  0  0  0  0
   61.7280   33.9760   47.0200 C   0  0  0  0  0  0  0  0  0  0  0  0
   62.9730   33.7050   46.4310 C   0  0  0  0  0  0  0  0  0  0  0  0
   63.9650   33.0720   47.1750 C   0  0  0  0  0  0  0  0  0  0  0  0
   63.7110   32.6850   48.4940 C   0  0  0  0  0  0  0  0  0  0  0  0
   62.4960   32.9550   49.0510 N   0  0  0  0  0  0  0  0  0  0  0  0
   61.5070   33.5880   48.3590 C   0  0  0  0  0  0  0  0  0  0  0  0
   58.0410   31.8040   51.5350 C   0  0  0  0  0  0  0  0  0  0  0  0
   57.5500   30.3670   51.8080 C   0  0  0  0  0  0  0  0  0  0  0  0
   58.0920   29.4540   50.8730 O   0  0  0  0  0  0  0  0  0  0  0  0
   60.6339   31.8251   47.7448 H   0  0  0  0  0  0  0  0  0  0  0  0
   59.3583   32.7224   45.7939 H   0  0  0  0  0  0  0  0  0  0  0  0
   57.6642   31.2893   44.6336 H   0  0  0  0  0  0  0  0  0  0  0  0
   53.2511   24.2982   45.6444 H   0  0  0  0  0  0  0  0  0  0  0  0
   55.2615   22.6641   45.1633 H   0  0  0  0  0  0  0  0  0  0  0  0
   58.3227   28.1743   47.5667 H   0  0  0  0  0  0  0  0  0  0  0  0
   59.6920   28.8409   51.9930 H   0  0  0  0  0  0  0  0  0  0  0  0
   60.4226   30.9782   52.2169 H   0  0  0  0  0  0  0  0  0  0  0  0
   61.0992   30.7974   50.5689 H   0  0  0  0  0  0  0  0  0  0  0  0
   58.2892   34.7131   48.7120 H   0  0  0  0  0  0  0  0  0  0  0  0
   58.6873   35.4019   46.3471 H   0  0  0  0  0  0  0  0  0  0  0  0
   60.8884   34.9271   45.2606 H   0  0  0  0  0  0  0  0  0  0  0  0
   63.1640   33.9915   45.3863 H   0  0  0  0  0  0  0  0  0  0  0  0
   64.9493   32.8763   46.7246 H   0  0  0  0  0  0  0  0  0  0  0  0
   64.4855   32.1665   49.0783 H   0  0  0  0  0  0  0  0  0  0  0  0
   58.2919   32.2883   52.4903 H   0  0  0  0  0  0  0  0  0  0  0  0
   57.2418   32.3618   51.0250 H   0  0  0  0  0  0  0  0  0  0  0  0
   57.8588   30.0688   52.8208 H   0  0  0  0  0  0  0  0  0  0  0  0
   56.4540   30.3503   51.7155 H   0  0  0  0  0  0  0  0  0  0  0  0
  1  2  2  0
  2  3  1  0
  3  4  1  0
  4  5  2  0
  5  6  1  0
  6  7  2  0
  7  8  1  0
  8  9  1  0
  9 10  2  0
  9 11  2  0
  9 12  1  0
 12 13  2  3
 13 14  1  0
 14 15  1  0
 15 16  2  0
 16 17  1  0
  8 18  2  0
  2 19  1  0
 19 20  1  0
 20 21  1  0
 21 22  1  0
 22 23  2  0
 22 24  2  0
 22 25  1  0
 25 26  2  0
 26 27  1  0
 27 28  2  0
 28 29  1  0
 29 30  2  0
 30 31  1  0
 31 32  2  0
 32 33  1  0
 33 34  2  0
 21 35  1  0
 35 36  1  0
 36 37  1  0
 18  4  1  0
 37 19  1  0
 17 13  1  0
 34 25  1  0
 34 29  1  0
  5 38  1  0
  6 39  1  0
  7 40  1  0
 15 41  1  0
 16 42  1  0
 18 43  1  0
 19 44  1  1
 20 45  1  0
 20 46  1  0
 26 47  1  0
 27 48  1  0
 28 49  1  0
 30 50  1  0
 31 51  1  0
 32 52  1  0
 35 53  1  0
 35 54  1  0
 36 55  1  0
 36 56  1  0
M  CHG  2   3  -1  14  -1
M  END
>  <UniqueID>  (49) 
45

>  <SMILES>  (49) 
O=C([N-]c1cccc(S(=O)(=O)N=c2[n-]ccs2)c1)[C@H]1CN(S(=O)(=O)c2cccc3cccnc23)CCO1

>  <Energy>  (49) 
117.27464011903038

>  <Genealogy>  (49) 
O=C([N-]c1cccc(S(=O)(=O)N=c2[n-]ccs2)c1)C1CN(S(=O)(=O)c2cccc3cccnc23)CCO1 (protonated)
O=C([N-]c1cccc(S(=O)(=O)N=c2[n-]ccs2)c1)[C@H]1CN(S(=O)(=O)c2cccc3cccnc23)CCO1 (chirality)
O=C([N-]c1cccc(S(=O)(=O)N=c2[n-]ccs2)c1)[C@H]1CN(S(=O)(=O)c2cccc3cccnc23)CCO1 (3D coordinates assigned)
O=C([N-]c1cccc(S(=O)(=O)N=c2[n-]ccs2)c1)[C@H]1CN(S(=O)(=O)c2cccc3cccnc23)CCO1 (nonaromatic ring conformer: 117.27464011903038 kcal/mol)

>  <smiles>  (49) 
O=C(Nc1cccc(S(=O)(=O)N=c2[nH]ccs2)c1)C1CN(S(=O)(=O)c2cccc3cccnc23)CCO1

>  <score_type>  (49) 
oracle

>  <origin>  (49) 
adg

>  <m_score__min__energy>  (49) 
-13.960000000000001

>  <m_primary>  (49) 
energy

$$$$
49:0
     RDKit          3D

 25 26  0  0  0  0  0  0  0  0999 V2000
   55.1470   29.5740   44.6570 N   0  0  0  0  0  0  0  0  0  0  0  0
   56.5140   29.9660   44.7850 C   0  0  0  0  0  0  0  0  0  0  0  0
   56.8330   31.1620   44.5460 O   0  0  0  0  0  0  0  0  0  0  0  0
   57.5450   28.9830   45.1920 C   0  0  0  0  0  0  0  0  0  0  0  0
   58.8380   29.4080   45.5470 C   0  0  0  0  0  0  0  0  0  0  0  0
   59.8110   28.4750   45.9160 C   0  0  0  0  0  0  0  0  0  0  0  0
   59.5040   27.1140   45.9480 C   0  0  0  0  0  0  0  0  0  0  0  0
   58.2090   26.6750   45.6310 C   0  0  0  0  0  0  0  0  0  0  0  0
   57.8710   25.2790   45.6220 N   0  0  0  0  0  0  0  0  0  0  0  0
   56.9680   24.7230   46.3370 N   0  0  0  0  0  0  0  0  0  0  0  0
   55.6980   24.2480   45.8580 C   0  0  0  0  0  0  0  0  0  0  0  0
   54.6330   25.1420   45.7050 C   0  0  0  0  0  0  0  0  0  0  0  0
   54.8040   26.4930   45.9790 O   0  0  0  0  0  0  0  0  0  0  0  0
   53.4250   24.6940   45.2760 N   0  0  0  0  0  0  0  0  0  0  0  0
   53.2230   23.3780   45.0070 C   0  0  0  0  0  0  0  0  0  0  0  0
   52.0990   22.9840   44.6040 O   0  0  0  0  0  0  0  0  0  0  0  0
   54.2310   22.4850   45.1820 N   0  0  0  0  0  0  0  0  0  0  0  0
   55.4570   22.8850   45.6110 C   0  0  0  0  0  0  0  0  0  0  0  0
   56.3560   22.0260   45.8020 O   0  0  0  0  0  0  0  0  0  0  0  0
   57.2450   27.6080   45.2260 C   0  0  0  0  0  0  0  0  0  0  0  0
   54.5750   29.3390   45.4980 H   0  0  0  0  0  0  0  0  0  0  0  0
   59.0846   30.4799   45.5341 H   0  0  0  0  0  0  0  0  0  0  0  0
   60.8228   28.8148   46.1822 H   0  0  0  0  0  0  0  0  0  0  0  0
   60.2790   26.3832   46.2224 H   0  0  0  0  0  0  0  0  0  0  0  0
   56.2431   27.2622   44.9315 H   0  0  0  0  0  0  0  0  0  0  0  0
  1  2  1  0
  2  3  2  0
  2  4  1  0
  4  5  2  0
  5  6  1  0
  6  7  2  0
  7  8  1  0
  8  9  1  0
  9 10  2  3
 10 11  1  0
 11 12  2  0
 12 13  1  0
 12 14  1  0
 14 15  1  0
 15 16  2  0
 15 17  1  0
 17 18  1  0
 18 19  2  0
  8 20  2  0
 20  4  1  0
 18 11  1  0
  1 21  1  0
  5 22  1  0
  6 23  1  0
  7 24  1  0
 20 25  1  0
M  CHG  4   1  -1  13  -1  14  -1  17  -1
M  END
>  <UniqueID>  (50) 
46

>  <SMILES>  (50) 
[NH-]C(=O)c1cccc(N=Nc2c([O-])[n-]c(=O)[n-]c2=O)c1

>  <Energy>  (50) 
42.37858909850158

>  <Genealogy>  (50) 
[NH-]C(=O)c1cccc(N=Nc2c([O-])[n-]c(=O)[n-]c2=O)c1 (protonated)
[NH-]C(=O)c1cccc(N=Nc2c([O-])[n-]c(=O)[n-]c2=O)c1 (3D coordinates assigned)
[NH-]C(=O)c1cccc(N=Nc2c([O-])[n-]c(=O)[n-]c2=O)c1 (optimized conformer: 42.37858909850158 kcal/mol)

>  <smiles>  (50) 
NC(=O)c1cccc(N=Nc2c(O)[nH]c(=O)[nH]c2=O)c1

>  <score_type>  (50) 
oracle

>  <origin>  (50) 
adg

>  <m_score__min__energy>  (50) 
-17.27

>  <m_primary>  (50) 
energy

$$$$
50:0
     RDKit          3D

 46 47  0  0  0  0  0  0  0  0999 V2000
   57.3900   21.1080   43.0200 C   0  0  0  0  0  0  0  0  0  0  0  0
   56.2630   21.5760   43.7480 O   0  0  0  0  0  0  0  0  0  0  0  0
   55.9020   22.9270   43.7980 C   0  0  0  0  0  0  0  0  0  0  0  0
   54.8810   23.3300   43.1740 O   0  0  0  0  0  0  0  0  0  0  0  0
   56.7190   23.8810   44.5810 C   0  0  0  0  0  0  0  0  0  0  0  0
   58.0310   23.5580   44.9580 C   0  0  0  0  0  0  0  0  0  0  0  0
   58.8070   24.4680   45.6760 C   0  0  0  0  0  0  0  0  0  0  0  0
   58.2900   25.7210   46.0510 C   0  0  0  0  0  0  0  0  0  0  0  0
   59.1540   26.6590   46.8170 C   0  0  0  0  0  0  0  0  0  0  0  0
   60.3620   26.8120   46.4850 O   0  0  0  0  0  0  0  0  0  0  0  0
   58.6440   27.3680   47.9100 O   0  0  0  0  0  0  0  0  0  0  0  0
   58.9510   28.7350   48.1520 C   0  0  0  0  0  0  0  0  0  0  0  0
   56.9590   26.0480   45.6930 C   0  0  0  0  0  0  0  0  0  0  0  0
   56.4280   27.3470   46.0010 N   0  0  0  0  0  0  0  0  0  0  0  0
   56.5290   28.5210   45.1860 C   0  0  0  0  0  0  0  0  0  0  0  0
   55.5100   29.2240   44.9550 O   0  0  0  0  0  0  0  0  0  0  0  0
   57.8400   28.9920   44.7040 C   0  0  0  0  0  0  0  0  0  0  0  0
   58.0550   30.1680   44.1000 C   0  0  0  0  0  0  0  0  0  0  0  0
   58.0670   31.4210   44.8000 N   0  0  0  0  0  0  0  0  0  0  0  0
   57.8050   32.6340   44.0130 C   0  0  0  0  0  0  0  0  0  0  0  0
   58.0070   33.9090   44.8410 C   0  0  0  0  0  0  0  0  0  0  0  0
   57.4330   33.7200   46.2440 C   0  0  0  0  0  0  0  0  0  0  0  0
   58.1520   32.5920   47.0070 C   0  0  0  0  0  0  0  0  0  0  0  0
   58.7640   31.5110   46.0920 C   0  0  0  0  0  0  0  0  0  0  0  0
   56.1950   25.1300   44.9450 C   0  0  0  0  0  0  0  0  0  0  0  0
   58.1715   20.7835   43.7228 H   0  0  0  0  0  0  0  0  0  0  0  0
   57.0910   20.2597   42.3868 H   0  0  0  0  0  0  0  0  0  0  0  0
   57.7799   21.9186   42.3868 H   0  0  0  0  0  0  0  0  0  0  0  0
   58.4514   22.5788   44.6851 H   0  0  0  0  0  0  0  0  0  0  0  0
   59.8378   24.2018   45.9528 H   0  0  0  0  0  0  0  0  0  0  0  0
   58.9915   28.9153   49.2364 H   0  0  0  0  0  0  0  0  0  0  0  0
   59.9258   28.9769   47.7034 H   0  0  0  0  0  0  0  0  0  0  0  0
   58.1732   29.3705   47.7034 H   0  0  0  0  0  0  0  0  0  0  0  0
   58.7053   28.3290   44.8512 H   0  0  0  0  0  0  0  0  0  0  0  0
   58.2310   30.1738   43.0142 H   0  0  0  0  0  0  0  0  0  0  0  0
   58.4917   32.6556   43.1540 H   0  0  0  0  0  0  0  0  0  0  0  0
   56.7562   32.6054   43.6824 H   0  0  0  0  0  0  0  0  0  0  0  0
   59.0823   34.1287   44.9144 H   0  0  0  0  0  0  0  0  0  0  0  0
   57.4872   34.7442   44.3488 H   0  0  0  0  0  0  0  0  0  0  0  0
   57.5473   34.6591   46.8053 H   0  0  0  0  0  0  0  0  0  0  0  0
   56.3723   33.4455   46.1462 H   0  0  0  0  0  0  0  0  0  0  0  0
   58.9604   33.0384   47.6046 H   0  0  0  0  0  0  0  0  0  0  0  0
   57.3941   32.0930   47.6287 H   0  0  0  0  0  0  0  0  0  0  0  0
   59.8202   31.7576   45.9089 H   0  0  0  0  0  0  0  0  0  0  0  0
   58.6633   30.5404   46.5998 H   0  0  0  0  0  0  0  0  0  0  0  0
   55.1719   25.3972   44.6419 H   0  0  0  0  0  0  0  0  0  0  0  0
  1  2  1  0
  2  3  1  0
  3  4  2  0
  3  5  1  0
  5  6  2  0
  6  7  1  0
  7  8  2  0
  8  9  1  0
  9 10  2  0
  9 11  1  0
 11 12  1  0
  8 13  1  0
 13 14  1  0
 14 15  1  0
 15 16  2  0
 15 17  1  0
 17 18  2  3
 18 19  1  0
 19 20  1  0
 20 21  1  0
 21 22  1  0
 22 23  1  0
 23 24  1  0
 13 25  2  0
 25  5  1  0
 24 19  1  0
  1 26  1  0
  1 27  1  0
  1 28  1  0
  6 29  1  0
  7 30  1  0
 12 31  1  0
 12 32  1  0
 12 33  1  0
 17 34  1  0
 18 35  1  0
 20 36  1  0
 20 37  1  0
 21 38  1  0
 21 39  1  0
 22 40  1  0
 22 41  1  0
 23 42  1  0
 23 43  1  0
 24 44  1  0
 24 45  1  0
 25 46  1  0
M  CHG  1  14  -1
M  END
>  <UniqueID>  (51) 
47

>  <SMILES>  (51) 
COC(=O)c1ccc(C(=O)OC)c([N-]C(=O)C=CN2CCCCC2)c1

>  <Energy>  (51) 
49.85493259772627

>  <Genealogy>  (51) 
COC(=O)c1ccc(C(=O)OC)c([N-]C(=O)C=CN2CCCCC2)c1 (protonated)
COC(=O)c1ccc(C(=O)OC)c([N-]C(=O)C=CN2CCCCC2)c1 (3D coordinates assigned)
COC(=O)c1ccc(C(=O)OC)c([N-]C(=O)C=CN2CCCCC2)c1 (nonaromatic ring conformer: 49.85493259772627 kcal/mol)

>  <smiles>  (51) 
COC(=O)c1ccc(C(=O)OC)c(NC(=O)C=CN2CCCCC2)c1

>  <score_type>  (51) 
oracle

>  <origin>  (51) 
adg

>  <m_score__min__energy>  (51) 
-9.3900000000000006

>  <m_primary>  (51) 
energy

$$$$
51:0
     RDKit          3D

 30 31  0  0  0  0  0  0  0  0999 V2000
   55.7520   22.4540   42.6700 N   0  0  0  0  0  0  0  0  0  0  0  0
   56.7240   22.5890   44.0920 S   0  0  0  0  0  0  0  0  0  0  0  0
   58.1030   22.0620   43.8070 O   0  0  0  0  0  0  0  0  0  0  0  0
   56.1150   21.7710   45.1970 O   0  0  0  0  0  0  0  0  0  0  0  0
   56.8190   24.2760   44.5830 C   0  0  0  0  0  0  0  0  0  0  0  0
   57.7030   25.1510   43.9360 C   0  0  0  0  0  0  0  0  0  0  0  0
   57.7740   26.4920   44.3230 C   0  0  0  0  0  0  0  0  0  0  0  0
   56.9700   26.9690   45.3730 C   0  0  0  0  0  0  0  0  0  0  0  0
   57.0330   28.3360   45.8060 N   0  0  0  0  0  0  0  0  0  0  0  0
   56.3540   29.4420   45.1950 C   0  0  0  0  0  0  0  0  0  0  0  0
   55.1480   29.3110   44.8640 O   0  0  0  0  0  0  0  0  0  0  0  0
   57.0120   30.6930   44.9490 N   0  0  0  0  0  0  0  0  0  0  0  0
   58.1650   31.1860   45.6490 C   0  0  0  0  0  0  0  0  0  0  0  0
   59.1560   30.3100   46.1270 C   0  0  0  0  0  0  0  0  0  0  0  0
   60.2750   30.8110   46.7980 C   0  0  0  0  0  0  0  0  0  0  0  0
   60.4070   32.1850   47.0120 C   0  0  0  0  0  0  0  0  0  0  0  0
   59.4140   33.0600   46.5620 C   0  0  0  0  0  0  0  0  0  0  0  0
   58.2910   32.5660   45.8880 C   0  0  0  0  0  0  0  0  0  0  0  0
   57.0680   33.6930   45.3190 Cl  0  0  0  0  0  0  0  0  0  0  0  0
   56.0620   26.1020   45.9910 C   0  0  0  0  0  0  0  0  0  0  0  0
   55.9900   24.7610   45.6020 C   0  0  0  0  0  0  0  0  0  0  0  0
   56.3800   22.6260   41.8540 H   0  0  0  0  0  0  0  0  0  0  0  0
   58.3427   24.7809   43.1212 H   0  0  0  0  0  0  0  0  0  0  0  0
   58.4613   27.1766   43.8043 H   0  0  0  0  0  0  0  0  0  0  0  0
   59.0500   29.2261   45.9721 H   0  0  0  0  0  0  0  0  0  0  0  0
   61.0532   30.1220   47.1582 H   0  0  0  0  0  0  0  0  0  0  0  0
   61.2917   32.5782   47.5342 H   0  0  0  0  0  0  0  0  0  0  0  0
   59.5155   34.1410   46.7383 H   0  0  0  0  0  0  0  0  0  0  0  0
   55.4017   26.4773   46.7867 H   0  0  0  0  0  0  0  0  0  0  0  0
   55.2792   24.0841   46.0985 H   0  0  0  0  0  0  0  0  0  0  0  0
  1  2  1  0
  2  3  2  0
  2  4  2  0
  2  5  1  0
  5  6  2  0
  6  7  1  0
  7  8  2  0
  8  9  1  0
  9 10  1  0
 10 11  2  0
 10 12  1  0
 12 13  1  0
 13 14  2  0
 14 15  1  0
 15 16  2  0
 16 17  1  0
 17 18  2  0
 18 19  1  0
  8 20  1  0
 20 21  2  0
 21  5  1  0
 18 13  1  0
  1 22  1  0
  6 23  1  0
  7 24  1  0
 14 25  1  0
 15 26  1  0
 16 27  1  0
 17 28  1  0
 20 29  1  0
 21 30  1  0
M  CHG  3   1  -1   9  -1  12  -1
M  END
>  <UniqueID>  (52) 
48

>  <SMILES>  (52) 
[NH-]S(=O)(=O)c1ccc([N-]C(=O)[N-]c2ccccc2Cl)cc1

>  <Energy>  (52) 
37.717270486619604

>  <Genealogy>  (52) 
[NH-]S(=O)(=O)c1ccc([N-]C(=O)[N-]c2ccccc2Cl)cc1 (protonated)
[NH-]S(=O)(=O)c1ccc([N-]C(=O)[N-]c2ccccc2Cl)cc1 (3D coordinates assigned)
[NH-]S(=O)(=O)c1ccc([N-]C(=O)[N-]c2ccccc2Cl)cc1 (optimized conformer: 37.717270486619604 kcal/mol)

>  <smiles>  (52) 
NS(=O)(=O)c1ccc(NC(=O)Nc2ccccc2Cl)cc1

>  <score_type>  (52) 
oracle

>  <origin>  (52) 
adg

>  <m_score__min__energy>  (52) 
-11.68

>  <m_primary>  (52) 
energy

$$$$
52:0
     RDKit          3D

 76 80  0  0  0  0  0  0  0  0999 V2000
   54.8160   25.8950   45.6340 N   0  0  0  0  0  0  0  0  0  0  0  0
   54.7030   24.2110   46.0110 S   0  0  0  0  0  0  0  0  0  0  0  0
   53.3240   23.7340   45.6450 O   0  0  0  0  0  0  0  0  0  0  0  0
   54.9120   24.0110   47.4850 O   0  0  0  0  0  0  0  0  0  0  0  0
   55.9200   23.2940   45.1070 C   0  0  0  0  0  0  0  0  0  0  0  0
   55.5620   22.0520   44.5590 C   0  0  0  0  0  0  0  0  0  0  0  0
   56.4760   21.3210   43.7960 C   0  0  0  0  0  0  0  0  0  0  0  0
   57.7560   21.8220   43.5680 C   0  0  0  0  0  0  0  0  0  0  0  0
   58.1340   23.0510   44.1140 C   0  0  0  0  0  0  0  0  0  0  0  0
   57.2310   23.7910   44.8950 C   0  0  0  0  0  0  0  0  0  0  0  0
   57.6860   25.0730   45.4690 C   0  0  0  0  0  0  0  0  0  0  0  0
   57.8910   26.1810   44.6320 C   0  0  0  0  0  0  0  0  0  0  0  0
   58.3110   27.4010   45.1720 C   0  0  0  0  0  0  0  0  0  0  0  0
   58.5580   27.5190   46.5440 C   0  0  0  0  0  0  0  0  0  0  0  0
   58.9680   28.7900   47.0670 N   0  0  0  0  0  0  0  0  0  0  0  0
   59.2130   29.9850   46.3090 C   0  0  0  0  0  0  0  0  0  0  0  0
   60.3880   30.2300   45.9280 O   0  0  0  0  0  0  0  0  0  0  0  0
   58.1270   30.9870   46.0170 C   0  0  0  0  0  0  0  0  0  0  0  0
   58.5750   32.3480   46.3770 N   0  0  0  0  0  0  0  0  0  0  0  0
   58.6070   33.3510   45.4380 C   0  0  0  0  0  0  0  0  0  0  0  0
   58.1720   33.0870   43.7490 Cl  0  0  0  0  0  0  0  0  0  0  0  0
   59.0110   34.6310   45.8060 C   0  0  0  0  0  0  0  0  0  0  0  0
   59.3850   34.8780   47.0810 N   0  0  0  0  0  0  0  0  0  0  0  0
   59.3950   33.9100   48.0320 C   0  0  0  0  0  0  0  0  0  0  0  0
   59.7920   34.2500   49.2300 N   0  0  0  0  0  0  0  0  0  0  0  0
   61.1320   34.2130   49.8200 C   0  0  0  0  0  0  0  0  0  0  0  0
   61.1890   33.2610   51.0370 C   0  0  2  0  0  0  0  0  0  0  0  0
   62.0790   32.0290   50.7320 C   0  0  0  0  0  0  0  0  0  0  0  0
   61.9570   31.5300   49.2780 C   0  0  0  0  0  0  0  0  0  0  0  0
   63.2650   31.5630   48.5820 N   0  0  0  0  0  0  0  0  0  0  0  0
   63.1080   31.6900   47.1240 C   0  0  0  0  0  0  0  0  0  0  0  0
   63.2690   33.1590   46.7490 C   0  0  0  0  0  0  0  0  0  0  0  0
   63.7330   33.8560   48.0100 C   0  0  0  0  0  0  0  0  0  0  0  0
   64.0550   32.7350   48.9800 C   0  0  0  0  0  0  0  0  0  0  0  0
   59.7810   32.8630   51.4430 C   0  0  0  0  0  0  0  0  0  0  0  0
   59.3240   31.5420   51.2720 C   0  0  0  0  0  0  0  0  0  0  0  0
   58.0240   31.1910   51.6490 C   0  0  0  0  0  0  0  0  0  0  0  0
   57.1670   32.1510   52.1930 C   0  0  0  0  0  0  0  0  0  0  0  0
   57.6090   33.4640   52.3680 C   0  0  0  0  0  0  0  0  0  0  0  0
   58.9090   33.8210   51.9940 C   0  0  0  0  0  0  0  0  0  0  0  0
   58.9920   32.5990   47.6630 C   0  0  0  0  0  0  0  0  0  0  0  0
   59.0230   31.6560   48.4980 O   0  0  0  0  0  0  0  0  0  0  0  0
   58.3350   26.4140   47.3850 C   0  0  0  0  0  0  0  0  0  0  0  0
   57.9180   25.1940   46.8470 C   0  0  0  0  0  0  0  0  0  0  0  0
   53.8800   26.3170   45.8380 H   0  0  0  0  0  0  0  0  0  0  0  0
   54.5525   21.6507   44.7320 H   0  0  0  0  0  0  0  0  0  0  0  0
   56.1845   20.3478   43.3743 H   0  0  0  0  0  0  0  0  0  0  0  0
   58.4696   21.2492   42.9575 H   0  0  0  0  0  0  0  0  0  0  0  0
   59.1458   23.4419   43.9311 H   0  0  0  0  0  0  0  0  0  0  0  0
   57.7210   26.0897   43.5491 H   0  0  0  0  0  0  0  0  0  0  0  0
   58.4478   28.2722   44.5145 H   0  0  0  0  0  0  0  0  0  0  0  0
   57.8841   30.9567   44.9446 H   0  0  0  0  0  0  0  0  0  0  0  0
   57.2372   30.7340   46.6122 H   0  0  0  0  0  0  0  0  0  0  0  0
   59.0259   35.4399   45.0607 H   0  0  0  0  0  0  0  0  0  0  0  0
   61.8476   33.8653   49.0604 H   0  0  0  0  0  0  0  0  0  0  0  0
   61.3865   35.2268   50.1626 H   0  0  0  0  0  0  0  0  0  0  0  0
   61.6516   33.7843   51.8868 H   0  0  0  0  0  0  0  0  0  0  0  0
   63.1280   32.3015   50.9202 H   0  0  0  0  0  0  0  0  0  0  0  0
   61.7378   31.2123   51.3852 H   0  0  0  0  0  0  0  0  0  0  0  0
   61.5816   30.4961   49.2850 H   0  0  0  0  0  0  0  0  0  0  0  0
   61.2633   32.1942   48.7417 H   0  0  0  0  0  0  0  0  0  0  0  0
   63.8760   31.0900   46.6140 H   0  0  0  0  0  0  0  0  0  0  0  0
   62.1154   31.3283   46.8177 H   0  0  0  0  0  0  0  0  0  0  0  0
   64.0180   33.2712   45.9512 H   0  0  0  0  0  0  0  0  0  0  0  0
   62.3285   33.5868   46.3717 H   0  0  0  0  0  0  0  0  0  0  0  0
   64.6280   34.4633   47.8095 H   0  0  0  0  0  0  0  0  0  0  0  0
   62.9708   34.5419   48.4083 H   0  0  0  0  0  0  0  0  0  0  0  0
   65.1280   32.4969   48.9353 H   0  0  0  0  0  0  0  0  0  0  0  0
   63.8111   33.0336   50.0102 H   0  0  0  0  0  0  0  0  0  0  0  0
   59.9926   30.7829   50.8399 H   0  0  0  0  0  0  0  0  0  0  0  0
   57.6751   30.1562   51.5169 H   0  0  0  0  0  0  0  0  0  0  0  0
   56.1433   31.8723   52.4837 H   0  0  0  0  0  0  0  0  0  0  0  0
   56.9347   34.2180   52.8001 H   0  0  0  0  0  0  0  0  0  0  0  0
   59.2520   34.8571   52.1314 H   0  0  0  0  0  0  0  0  0  0  0  0
   58.4894   26.5107   48.4698 H   0  0  0  0  0  0  0  0  0  0  0  0
   57.7712   24.3256   47.5061 H   0  0  0  0  0  0  0  0  0  0  0  0
  1  2  1  0
  2  3  2  0
  2  4  2  0
  2  5  1  0
  5  6  2  0
  6  7  1  0
  7  8  2  0
  8  9  1  0
  9 10  2  0
 10 11  1  0
 11 12  2  0
 12 13  1  0
 13 14  2  0
 14 15  1  0
 15 16  1  0
 16 17  2  0
 16 18  1  0
 18 19  1  0
 19 20  1  0
 20 21  1  0
 20 22  2  0
 22 23  1  0
 23 24  1  0
 24 25  2  3
 25 26  1  0
 26 27  1  0
 27 28  1  0
 28 29  1  0
 29 30  1  0
 30 31  1  0
 31 32  1  0
 32 33  1  0
 33 34  1  0
 27 35  1  0
 35 36  2  0
 36 37  1  0
 37 38  2  0
 38 39  1  0
 39 40  2  0
 24 41  1  0
 41 42  2  0
 14 43  1  0
 43 44  2  0
 10  5  1  0
 44 11  1  0
 41 19  1  0
 34 30  1  0
 40 35  1  0
  1 45  1  0
  6 46  1  0
  7 47  1  0
  8 48  1  0
  9 49  1  0
 12 50  1  0
 13 51  1  0
 18 52  1  0
 18 53  1  0
 22 54  1  0
 26 55  1  0
 26 56  1  0
 27 57  1  1
 28 58  1  0
 28 59  1  0
 29 60  1  0
 29 61  1  0
 31 62  1  0
 31 63  1  0
 32 64  1  0
 32 65  1  0
 33 66  1  0
 33 67  1  0
 34 68  1  0
 34 69  1  0
 36 70  1  0
 37 71  1  0
 38 72  1  0
 39 73  1  0
 40 74  1  0
 43 75  1  0
 44 76  1  0
M  CHG  3   1  -1  15  -1  23  -1
M  END
>  <UniqueID>  (53) 
49

>  <SMILES>  (53) 
[NH-]S(=O)(=O)c1ccccc1-c1ccc([N-]C(=O)Cn2c(Cl)c[n-]c(=NC[C@H](CCN3CCCC3)c3ccccc3)c2=O)cc1

>  <Energy>  (53) 
103.52640030837023

>  <Genealogy>  (53) 
[NH-]S(=O)(=O)c1ccccc1-c1ccc([N-]C(=O)Cn2c(Cl)c[n-]c(=NCC(CCN3CCCC3)c3ccccc3)c2=O)cc1 (protonated)
[NH-]S(=O)(=O)c1ccccc1-c1ccc([N-]C(=O)Cn2c(Cl)c[n-]c(=NC[C@H](CCN3CCCC3)c3ccccc3)c2=O)cc1 (chirality)
[NH-]S(=O)(=O)c1ccccc1-c1ccc([N-]C(=O)Cn2c(Cl)c[n-]c(=NC[C@H](CCN3CCCC3)c3ccccc3)c2=O)cc1 (3D coordinates assigned)
[NH-]S(=O)(=O)c1ccccc1-c1ccc([N-]C(=O)Cn2c(Cl)c[n-]c(=NC[C@H](CCN3CCCC3)c3ccccc3)c2=O)cc1 (nonaromatic ring conformer: 103.52640030837023 kcal/mol)

>  <smiles>  (53) 
NS(=O)(=O)c1ccccc1-c1ccc(NC(=O)Cn2c(Cl)c[nH]c(=NCC(CCN3CCCC3)c3ccccc3)c2=O)cc1

>  <score_type>  (53) 
oracle

>  <origin>  (53) 
adg

>  <m_score__min__energy>  (53) 
-14.789999999999999

>  <m_primary>  (53) 
energy

$$$$
53:0
     RDKit          3D

 47 50  0  0  0  0  0  0  0  0999 V2000
   58.1142   34.8616   44.4984 H   0  0  0  0  0  0  0  0  0  0  0  0
   58.5390   33.8620   44.6730 C   0  0  0  0  0  0  0  0  0  0  0  0
   56.2470   29.5050   44.8090 N   0  0  0  0  0  0  0  0  0  0  0  0
   59.3350   33.6210   46.8710 O   0  0  0  0  0  0  0  0  0  0  0  0
   60.0200   34.4670   47.7830 C   0  0  0  0  0  0  0  0  0  0  0  0
   60.0682   35.4851   47.3693 H   0  0  0  0  0  0  0  0  0  0  0  0
   59.4789   34.4782   48.7407 H   0  0  0  0  0  0  0  0  0  0  0  0
   61.4150   33.9560   48.0110 C   0  0  0  0  0  0  0  0  0  0  0  0
   62.2030   33.5300   46.9300 C   0  0  0  0  0  0  0  0  0  0  0  0
   61.7898   33.5454   45.9107 H   0  0  0  0  0  0  0  0  0  0  0  0
   63.5120   33.0860   47.1450 C   0  0  0  0  0  0  0  0  0  0  0  0
   64.1235   32.7467   46.2959 H   0  0  0  0  0  0  0  0  0  0  0  0
   64.0440   33.0730   48.4380 C   0  0  0  0  0  0  0  0  0  0  0  0
   65.0717   32.7188   48.6065 H   0  0  0  0  0  0  0  0  0  0  0  0
   63.2700   33.5100   49.5160 C   0  0  0  0  0  0  0  0  0  0  0  0
   63.6912   33.5050   50.5322 H   0  0  0  0  0  0  0  0  0  0  0  0
   61.9600   33.9540   49.3050 C   0  0  0  0  0  0  0  0  0  0  0  0
   61.3554   34.3025   50.1553 H   0  0  0  0  0  0  0  0  0  0  0  0
   57.9590   32.7150   43.9400 C   0  0  0  0  0  0  0  0  0  0  0  0
   57.8960   32.6890   42.5370 C   0  0  0  0  0  0  0  0  0  0  0  0
   58.3141   33.5231   41.9544 H   0  0  0  0  0  0  0  0  0  0  0  0
   57.3050   31.6090   41.8790 C   0  0  0  0  0  0  0  0  0  0  0  0
   57.2622   31.5937   40.7799 H   0  0  0  0  0  0  0  0  0  0  0  0
   56.7680   30.5480   42.6110 C   0  0  0  0  0  0  0  0  0  0  0  0
   56.2964   29.7037   42.0868 H   0  0  0  0  0  0  0  0  0  0  0  0
   56.8280   30.5550   44.0160 C   0  0  0  0  0  0  0  0  0  0  0  0
   59.5240   33.7490   45.5120 N   0  0  0  0  0  0  0  0  0  0  0  0
   56.8780   28.6890   45.6020 C   0  0  0  0  0  0  0  0  0  0  0  0
   57.8550   29.1320   46.4390 N   0  0  0  0  0  0  0  0  0  0  0  0
   58.5100   28.2970   47.2930 C   0  0  0  0  0  0  0  0  0  0  0  0
   59.5640   28.8760   48.1670 C   0  0  0  0  0  0  0  0  0  0  0  0
   59.9380   28.1760   49.2760 N   0  0  0  0  0  0  0  0  0  0  0  0
   60.8970   28.6180   50.1310 C   0  0  0  0  0  0  0  0  0  0  0  0
   61.1657   28.0184   51.0132 H   0  0  0  0  0  0  0  0  0  0  0  0
   61.5400   29.8300   49.8910 C   0  0  0  0  0  0  0  0  0  0  0  0
   62.3169   30.1938   50.5795 H   0  0  0  0  0  0  0  0  0  0  0  0
   61.1870   30.5770   48.7670 C   0  0  0  0  0  0  0  0  0  0  0  0
   61.6865   31.5360   48.5648 H   0  0  0  0  0  0  0  0  0  0  0  0
   60.1990   30.1070   47.8980 C   0  0  0  0  0  0  0  0  0  0  0  0
   59.9181   30.6926   47.0102 H   0  0  0  0  0  0  0  0  0  0  0  0
   58.1550   26.9360   47.3050 C   0  0  0  0  0  0  0  0  0  0  0  0
   58.6659   26.2291   47.9753 H   0  0  0  0  0  0  0  0  0  0  0  0
   57.1420   26.5000   46.4500 C   0  0  0  0  0  0  0  0  0  0  0  0
   56.8448   25.4409   46.4467 H   0  0  0  0  0  0  0  0  0  0  0  0
   56.5230   27.3790   45.6230 N   0  0  0  0  0  0  0  0  0  0  0  0
   57.3920   31.6570   44.6700 C   0  0  0  0  0  0  0  0  0  0  0  0
   57.3912   31.6949   45.7693 H   0  0  0  0  0  0  0  0  0  0  0  0
  1  2  1  0
  2  3  2  0
  3  4  1  0
  4  5  1  0
  5  6  1  0
  5  7  1  0
  5  8  1  0
  8  9  2  0
  9 10  1  0
  9 11  1  0
 11 12  1  0
 11 13  2  0
 13 14  1  0
 13 15  1  0
 15 16  1  0
 15 17  2  0
 17 18  1  0
  2 19  1  0
 19 20  2  0
 20 21  1  0
 20 22  1  0
 22 23  1  0
 22 24  2  0
 24 25  1  0
 24 26  1  0
 26 27  1  0
 27 28  2  0
 28 29  1  0
 29 30  2  0
 30 31  1  0
 31 32  2  0
 32 33  1  0
 33 34  1  0
 33 35  2  0
 35 36  1  0
 35 37  1  0
 37 38  1  0
 37 39  2  0
 39 40  1  0
 30 41  1  0
 41 42  1  0
 41 43  2  0
 43 44  1  0
 43 45  1  0
 26 46  2  0
 46 47  1  0
 17  8  1  0
 46 19  1  0
 45 28  1  0
 39 31  1  0
M  CHG  1  45  -1
M  END
>  <UniqueID>  (54) 
50

>  <SMILES>  (54) 
C(=N\OCc1ccccc1)\c1cccc(/N=c2\nc(-c3ccccn3)cc[n-]2)c1

>  <Energy>  (54) 
63.514618571777554

>  <Genealogy>  (54) 
C(=NOCc1ccccc1)c1cccc(N=c2nc(-c3ccccn3)cc[n-]2)c1 (protonated)
C(=N\OCc1ccccc1)\c1cccc(/N=c2\nc(-c3ccccn3)cc[n-]2)c1 (cis-trans isomerization)
C(=N\OCc1ccccc1)\c1cccc(/N=c2\nc(-c3ccccn3)cc[n-]2)c1 (3D coordinates assigned)
C(=N\OCc1ccccc1)\c1cccc(/N=c2\nc(-c3ccccn3)cc[n-]2)c1 (optimized conformer: 63.514618571777554 kcal/mol)

>  <smiles>  (54) 
C(=NOCc1ccccc1)c1cccc(N=c2nc(-c3ccccn3)cc[nH]2)c1

>  <score_type>  (54) 
oracle

>  <origin>  (54) 
adg

>  <m_score__min__energy>  (54) 
-10.970000000000001

>  <m_primary>  (54) 
energy

$$$$
54:0
     RDKit          3D

 47 51  0  0  0  0  0  0  0  0999 V2000
   56.8250   30.5760   45.1040 O   0  0  0  0  0  0  0  0  0  0  0  0
   58.0430   30.8190   45.3180 C   0  0  0  0  0  0  0  0  0  0  0  0
   58.9930   29.7440   45.4360 N   0  0  0  0  0  0  0  0  0  0  0  0
   58.6280   28.3830   45.7100 C   0  0  0  0  0  0  0  0  0  0  0  0
   58.7110   27.9070   47.0270 C   0  0  0  0  0  0  0  0  0  0  0  0
   58.3670   26.5890   47.3310 C   0  0  0  0  0  0  0  0  0  0  0  0
   57.9480   25.7200   46.3120 C   0  0  0  0  0  0  0  0  0  0  0  0
   57.9100   26.1730   44.9770 C   0  0  0  0  0  0  0  0  0  0  0  0
   58.2390   27.5050   44.6850 C   0  0  0  0  0  0  0  0  0  0  0  0
   57.4030   25.2510   43.8790 C   0  0  0  0  0  0  0  0  0  0  0  0
   57.7000   23.7610   44.1500 C   0  0  0  0  0  0  0  0  0  0  0  0
   57.4530   23.4360   45.5920 C   0  0  0  0  0  0  0  0  0  0  0  0
   57.1640   22.2170   46.0860 N   0  0  0  0  0  0  0  0  0  0  0  0
   57.1070   22.3450   47.4060 N   0  0  0  0  0  0  0  0  0  0  0  0
   57.3790   23.6350   47.6810 C   0  0  0  0  0  0  0  0  0  0  0  0
   57.3920   24.1080   48.8470 O   0  0  0  0  0  0  0  0  0  0  0  0
   57.6140   24.3450   46.5620 N   0  0  0  0  0  0  0  0  0  0  0  0
   58.4830   32.2260   45.4460 C   0  0  0  0  0  0  0  0  0  0  0  0
   57.7440   33.2410   44.8150 C   0  0  0  0  0  0  0  0  0  0  0  0
   58.1390   34.5760   44.9200 C   0  0  0  0  0  0  0  0  0  0  0  0
   59.2670   34.9140   45.6690 C   0  0  0  0  0  0  0  0  0  0  0  0
   59.9990   33.9190   46.3190 C   0  0  0  0  0  0  0  0  0  0  0  0
   59.6190   32.5700   46.2120 C   0  0  0  0  0  0  0  0  0  0  0  0
   60.3060   31.5720   46.9190 O   0  0  0  0  0  0  0  0  0  0  0  0
   61.4560   31.7630   47.6970 C   0  0  0  0  0  0  0  0  0  0  0  0
   61.5200   31.3770   49.0510 C   0  0  0  0  0  0  0  0  0  0  0  0
   62.6810   31.6060   49.7940 C   0  0  0  0  0  0  0  0  0  0  0  0
   63.7790   32.2350   49.2010 C   0  0  0  0  0  0  0  0  0  0  0  0
   63.7140   32.6400   47.8650 C   0  0  0  0  0  0  0  0  0  0  0  0
   62.5550   32.4080   47.1180 C   0  0  0  0  0  0  0  0  0  0  0  0
   60.0070   29.9850   45.4840 H   0  0  0  0  0  0  0  0  0  0  0  0
   59.0507   28.5795   47.8284 H   0  0  0  0  0  0  0  0  0  0  0  0
   58.4243   26.2313   48.3696 H   0  0  0  0  0  0  0  0  0  0  0  0
   58.1920   27.8643   43.6464 H   0  0  0  0  0  0  0  0  0  0  0  0
   56.3142   25.3797   43.7897 H   0  0  0  0  0  0  0  0  0  0  0  0
   57.9293   25.5257   42.9530 H   0  0  0  0  0  0  0  0  0  0  0  0
   57.0455   23.1401   43.5207 H   0  0  0  0  0  0  0  0  0  0  0  0
   58.7545   23.5571   43.9125 H   0  0  0  0  0  0  0  0  0  0  0  0
   56.8470   32.9816   44.2336 H   0  0  0  0  0  0  0  0  0  0  0  0
   57.5608   35.3619   44.4120 H   0  0  0  0  0  0  0  0  0  0  0  0
   59.5796   35.9657   45.7472 H   0  0  0  0  0  0  0  0  0  0  0  0
   60.8794   34.1925   46.9191 H   0  0  0  0  0  0  0  0  0  0  0  0
   60.6528   30.8937   49.5246 H   0  0  0  0  0  0  0  0  0  0  0  0
   62.7308   31.2909   50.8467 H   0  0  0  0  0  0  0  0  0  0  0  0
   64.6940   32.4113   49.7855 H   0  0  0  0  0  0  0  0  0  0  0  0
   64.5756   33.1419   47.4006 H   0  0  0  0  0  0  0  0  0  0  0  0
   62.5066   32.7345   46.0687 H   0  0  0  0  0  0  0  0  0  0  0  0
  1  2  2  0
  2  3  1  0
  3  4  1  0
  4  5  2  0
  5  6  1  0
  6  7  2  0
  7  8  1  0
  8  9  2  0
  8 10  1  0
 10 11  1  0
 11 12  1  0
 12 13  2  0
 13 14  1  0
 14 15  1  0
 15 16  2  0
 15 17  1  0
  2 18  1  0
 18 19  2  0
 19 20  1  0
 20 21  2  0
 21 22  1  0
 22 23  2  0
 23 24  1  0
 24 25  1  0
 25 26  2  0
 26 27  1  0
 27 28  2  0
 28 29  1  0
 29 30  2  0
  9  4  1  0
 17 12  1  0
 23 18  1  0
 30 25  1  0
 17  7  1  0
  3 31  1  0
  5 32  1  0
  6 33  1  0
  9 34  1  0
 10 35  1  0
 10 36  1  0
 11 37  1  0
 11 38  1  0
 19 39  1  0
 20 40  1  0
 21 41  1  0
 22 42  1  0
 26 43  1  0
 27 44  1  0
 28 45  1  0
 29 46  1  0
 30 47  1  0
M  CHG  1  14  -1
M  END
>  <UniqueID>  (55) 
51

>  <SMILES>  (55) 
O=C(Nc1ccc2c(c1)CCc1n[n-]c(=O)n1-2)c1ccccc1Oc1ccccc1

>  <Energy>  (55) 
110.88822076370444

>  <Genealogy>  (55) 
O=C(Nc1ccc2c(c1)CCc1n[n-]c(=O)n1-2)c1ccccc1Oc1ccccc1 (protonated)
O=C(Nc1ccc2c(c1)CCc1n[n-]c(=O)n1-2)c1ccccc1Oc1ccccc1 (3D coordinates assigned)
O=C(Nc1ccc2c(c1)CCc1n[n-]c(=O)n1-2)c1ccccc1Oc1ccccc1 (nonaromatic ring conformer: 110.88822076370444 kcal/mol)

>  <smiles>  (55) 
O=C(Nc1ccc2c(c1)CCc1n[nH]c(=O)n1-2)c1ccccc1Oc1ccccc1

>  <score_type>  (55) 
oracle

>  <origin>  (55) 
adg

>  <m_score__min__energy>  (55) 
-10.43

>  <m_primary>  (55) 
energy

$$$$
56:0
     RDKit          3D

 35 37  0  0  0  0  0  0  0  0999 V2000
   55.2370   29.3600   44.8870 O   0  0  0  0  0  0  0  0  0  0  0  0
   56.0650   30.0020   44.1980 C   0  0  0  0  0  0  0  0  0  0  0  0
   56.6380   29.3380   43.0170 C   0  0  0  0  0  0  0  0  0  0  0  0
   57.7650   27.9890   43.3920 S   0  0  0  0  0  0  0  0  0  0  0  0
   58.3500   28.1950   45.0660 C   0  0  0  0  0  0  0  0  0  0  0  0
   59.3550   27.4290   45.5770 N   0  0  0  0  0  0  0  0  0  0  0  0
   59.6010   27.7810   46.8460 C   0  0  0  0  0  0  0  0  0  0  0  0
   60.5050   27.3250   47.8000 C   0  0  0  0  0  0  0  0  0  0  0  0
   60.5290   27.8940   49.0560 C   0  0  0  0  0  0  0  0  0  0  0  0
   59.6370   28.9140   49.3230 C   0  0  0  0  0  0  0  0  0  0  0  0
   58.7290   29.3770   48.3770 C   0  0  0  0  0  0  0  0  0  0  0  0
   58.7120   28.8030   47.1230 C   0  0  0  0  0  0  0  0  0  0  0  0
   57.9460   29.0510   46.0190 N   0  0  0  0  0  0  0  0  0  0  0  0
   56.4370   31.2680   44.5100 O   0  0  0  0  0  0  0  0  0  0  0  0
   57.6790   31.8330   44.2570 C   0  0  0  0  0  0  0  0  0  0  0  0
   58.2040   32.7460   45.2750 C   0  0  0  0  0  0  0  0  0  0  0  0
   58.1790   32.5320   46.6300 C   0  0  0  0  0  0  0  0  0  0  0  0
   58.6920   33.4650   47.5120 C   0  0  0  0  0  0  0  0  0  0  0  0
   59.2440   34.6350   47.0680 C   0  0  0  0  0  0  0  0  0  0  0  0
   59.2850   34.8800   45.7070 C   0  0  0  0  0  0  0  0  0  0  0  0
   58.7680   33.9370   44.8440 C   0  0  0  0  0  0  0  0  0  0  0  0
   55.8105   28.9364   42.4137 H   0  0  0  0  0  0  0  0  0  0  0  0
   57.2282   30.0995   42.4862 H   0  0  0  0  0  0  0  0  0  0  0  0
   61.2011   26.5101   47.5524 H   0  0  0  0  0  0  0  0  0  0  0  0
   61.2374   27.5459   49.8222 H   0  0  0  0  0  0  0  0  0  0  0  0
   59.6451   29.3772   50.3207 H   0  0  0  0  0  0  0  0  0  0  0  0
   58.0326   30.1913   48.6258 H   0  0  0  0  0  0  0  0  0  0  0  0
   57.1900   29.7630   45.9200 H   0  0  0  0  0  0  0  0  0  0  0  0
   58.4017   31.0119   44.1406 H   0  0  0  0  0  0  0  0  0  0  0  0
   57.5387   32.4510   43.3579 H   0  0  0  0  0  0  0  0  0  0  0  0
   57.7429   31.6012   47.0217 H   0  0  0  0  0  0  0  0  0  0  0  0
   58.6555   33.2623   48.5925 H   0  0  0  0  0  0  0  0  0  0  0  0
   59.6484   35.3686   47.7809 H   0  0  0  0  0  0  0  0  0  0  0  0
   59.7229   35.8118   45.3197 H   0  0  0  0  0  0  0  0  0  0  0  0
   58.8047   34.1390   43.7633 H   0  0  0  0  0  0  0  0  0  0  0  0
  1  2  2  0
  2  3  1  0
  3  4  1  0
  4  5  1  0
  5  6  2  0
  6  7  1  0
  7  8  2  0
  8  9  1  0
  9 10  2  0
 10 11  1  0
 11 12  2  0
 12 13  1  0
  2 14  1  0
 14 15  1  0
 15 16  1  0
 16 17  2  0
 17 18  1  0
 18 19  2  0
 19 20  1  0
 20 21  2  0
 13  5  1  0
 21 16  1  0
 12  7  1  0
  3 22  1  0
  3 23  1  0
  8 24  1  0
  9 25  1  0
 10 26  1  0
 11 27  1  0
 13 28  1  0
 15 29  1  0
 15 30  1  0
 17 31  1  0
 18 32  1  0
 19 33  1  0
 20 34  1  0
 21 35  1  0
M  END
>  <smiles>  (56) 
O=C(CSc1nc2ccccc2[nH]1)OCc1ccccc1

>  <score_type>  (56) 
oracle

>  <origin>  (56) 
adg

>  <m_score__min__energy>  (56) 
-7.3499999999999996

>  <m_primary>  (56) 
energy

$$$$
57:0
     RDKit          3D

 40 42  0  0  0  0  0  0  0  0999 V2000
   61.3172   34.1009   46.9628 H   0  0  0  0  0  0  0  0  0  0  0  0
   60.3330   33.6890   46.6950 C   0  0  0  0  0  0  0  0  0  0  0  0
   60.0280   32.3590   47.0010 C   0  0  0  0  0  0  0  0  0  0  0  0
   60.7785   31.7256   47.4966 H   0  0  0  0  0  0  0  0  0  0  0  0
   58.7690   31.8280   46.6790 C   0  0  0  0  0  0  0  0  0  0  0  0
   58.4530   30.3820   46.9930 C   0  0  0  0  0  0  0  0  0  0  0  0
   57.4308   30.1601   46.6527 H   0  0  0  0  0  0  0  0  0  0  0  0
   58.5504   30.2416   48.0796 H   0  0  0  0  0  0  0  0  0  0  0  0
   59.3930   29.4490   46.3250 N   0  0  2  0  0  0  0  0  0  0  0  0
   59.9960   30.0240   45.6890 H   0  0  0  0  0  0  0  0  0  0  0  0
   58.7120   28.5010   45.4590 C   0  0  0  0  0  0  0  0  0  0  0  0
   58.8990   28.5750   44.2140 O   0  0  0  0  0  0  0  0  0  0  0  0
   57.8610   27.3940   45.9560 C   0  0  0  0  0  0  0  0  0  0  0  0
   56.5600   27.2920   45.5660 N   0  0  0  0  0  0  0  0  0  0  0  0
   55.9500   26.2210   46.1120 C   0  0  0  0  0  0  0  0  0  0  0  0
   54.7050   25.9340   45.8740 N   0  0  0  0  0  0  0  0  0  0  0  0
   54.2060   24.5810   45.6570 C   0  0  0  0  0  0  0  0  0  0  0  0
   54.0271   24.0960   46.6280 H   0  0  0  0  0  0  0  0  0  0  0  0
   53.2646   24.6240   45.0897 H   0  0  0  0  0  0  0  0  0  0  0  0
   54.9499   24.0024   45.0897 H   0  0  0  0  0  0  0  0  0  0  0  0
   56.9850   25.3500   47.1190 S   0  0  0  0  0  0  0  0  0  0  0  0
   58.2820   26.3830   46.8230 C   0  0  0  0  0  0  0  0  0  0  0  0
   59.5810   26.3300   47.5580 C   0  0  0  0  0  0  0  0  0  0  0  0
   59.3915   26.5667   48.6154 H   0  0  0  0  0  0  0  0  0  0  0  0
   59.9867   25.3168   47.4206 H   0  0  0  0  0  0  0  0  0  0  0  0
   60.6340   27.3110   47.0230 C   0  0  0  0  0  0  0  0  0  0  0  0
   61.5929   27.0671   47.5037 H   0  0  0  0  0  0  0  0  0  0  0  0
   60.6247   27.1812   45.9307 H   0  0  0  0  0  0  0  0  0  0  0  0
   60.3590   28.8140   47.2590 C   0  0  0  0  0  0  0  0  0  0  0  0
   59.9666   28.9291   48.2802 H   0  0  0  0  0  0  0  0  0  0  0  0
   61.3187   29.3238   47.0885 H   0  0  0  0  0  0  0  0  0  0  0  0
   57.8200   32.6450   46.0440 C   0  0  0  0  0  0  0  0  0  0  0  0
   56.8316   32.2370   45.7861 H   0  0  0  0  0  0  0  0  0  0  0  0
   58.1250   33.9740   45.7380 C   0  0  0  0  0  0  0  0  0  0  0  0
   57.3712   34.6108   45.2520 H   0  0  0  0  0  0  0  0  0  0  0  0
   59.3890   34.5000   46.0480 C   0  0  0  0  0  0  0  0  0  0  0  0
   59.7020   35.9380   45.7550 C   0  0  0  0  0  0  0  0  0  0  0  0
   59.8216   36.4872   46.7005 H   0  0  0  0  0  0  0  0  0  0  0  0
   60.6345   35.9994   45.1748 H   0  0  0  0  0  0  0  0  0  0  0  0
   58.8794   36.3815   45.1748 H   0  0  0  0  0  0  0  0  0  0  0  0
  1  2  1  0
  2  3  2  0
  3  4  1  0
  3  5  1  0
  5  6  1  0
  6  7  1  0
  6  8  1  0
  6  9  1  0
  9 10  1  6
  9 11  1  0
 11 12  2  0
 11 13  1  0
 13 14  1  0
 14 15  1  0
 15 16  2  0
 16 17  1  0
 17 18  1  0
 17 19  1  0
 17 20  1  0
 15 21  1  0
 21 22  1  0
 22 23  1  0
 23 24  1  0
 23 25  1  0
 23 26  1  0
 26 27  1  0
 26 28  1  0
 26 29  1  0
 29 30  1  0
 29 31  1  0
  5 32  2  0
 32 33  1  0
 32 34  1  0
 34 35  1  0
 34 36  2  0
 36 37  1  0
 37 38  1  0
 37 39  1  0
 37 40  1  0
 36  2  1  0
 29  9  1  0
 22 13  2  0
M  CHG  2   9   1  14  -1
M  END
>  <UniqueID>  (57) 
52

>  <SMILES>  (57) 
C/N=c1/[n-]c2c(s1)CCC[N@H+](Cc1ccc(C)cc1)C2=O

>  <Energy>  (57) 
84.41901821636459

>  <Genealogy>  (57) 
CN=c1[n-]c2c(s1)CCC[NH+](Cc1ccc(C)cc1)C2=O (protonated)
CN=c1[n-]c2c(s1)CCC[N@H+](Cc1ccc(C)cc1)C2=O (chirality)
C/N=c1/[n-]c2c(s1)CCC[N@H+](Cc1ccc(C)cc1)C2=O (cis-trans isomerization)
C/N=c1/[n-]c2c(s1)CCC[N@H+](Cc1ccc(C)cc1)C2=O (3D coordinates assigned)
C/N=c1/[n-]c2c(s1)CCC[N@H+](Cc1ccc(C)cc1)C2=O (nonaromatic ring conformer: 84.41901821636459 kcal/mol)

>  <smiles>  (57) 
CN=c1[nH]c2c(s1)CCCN(Cc1ccc(C)cc1)C2=O

>  <score_type>  (57) 
oracle

>  <origin>  (57) 
adg

>  <m_score__min__energy>  (57) 
-6.71

>  <m_primary>  (57) 
energy

$$$$
58:0
     RDKit          3D

 30 31  0  0  0  0  0  0  0  0999 V2000
   64.0090   32.7070   48.6720 C   0  0  0  0  0  0  0  0  0  0  0  0
   63.0620   31.9560   47.9470 O   0  0  0  0  0  0  0  0  0  0  0  0
   61.8390   32.4560   47.5230 C   0  0  0  0  0  0  0  0  0  0  0  0
   61.8940   33.6210   46.7560 C   0  0  0  0  0  0  0  0  0  0  0  0
   60.7100   34.1820   46.2940 C   0  0  0  0  0  0  0  0  0  0  0  0
   59.4960   33.5950   46.5880 C   0  0  0  0  0  0  0  0  0  0  0  0
   58.2010   34.1610   46.1140 C   0  0  0  0  0  0  0  0  0  0  0  0
   57.7470   33.4530   44.5180 S   0  0  0  0  0  0  0  0  0  0  0  0
   57.7160   31.6760   44.6410 C   0  0  0  0  0  0  0  0  0  0  0  0
   58.8950   30.9960   44.6630 N   0  0  0  0  0  0  0  0  0  0  0  0
   58.8920   29.6530   44.7560 C   0  0  0  0  0  0  0  0  0  0  0  0
   60.0000   29.0480   44.7750 O   0  0  0  0  0  0  0  0  0  0  0  0
   57.6770   28.9970   44.8260 C   0  0  0  0  0  0  0  0  0  0  0  0
   56.4690   29.6720   44.8040 C   0  0  0  0  0  0  0  0  0  0  0  0
   55.2450   29.0100   44.8740 O   0  0  0  0  0  0  0  0  0  0  0  0
   56.5490   31.0230   44.7100 N   0  0  0  0  0  0  0  0  0  0  0  0
   59.4540   32.4390   47.3510 C   0  0  0  0  0  0  0  0  0  0  0  0
   60.6310   31.8670   47.8200 C   0  0  0  0  0  0  0  0  0  0  0  0
   63.8374   32.5709   49.7500 H   0  0  0  0  0  0  0  0  0  0  0  0
   65.0224   32.3644   48.4159 H   0  0  0  0  0  0  0  0  0  0  0  0
   63.9063   33.7718   48.4159 H   0  0  0  0  0  0  0  0  0  0  0  0
   62.8615   34.0884   46.5206 H   0  0  0  0  0  0  0  0  0  0  0  0
   60.7403   35.1006   45.6896 H   0  0  0  0  0  0  0  0  0  0  0  0
   57.4152   33.9310   46.8485 H   0  0  0  0  0  0  0  0  0  0  0  0
   58.3090   35.2499   46.0018 H   0  0  0  0  0  0  0  0  0  0  0  0
   57.6702   27.8996   44.9019 H   0  0  0  0  0  0  0  0  0  0  0  0
   55.1510   28.0000   44.9040 H   0  0  0  0  0  0  0  0  0  0  0  0
   55.6720   31.6030   44.6870 H   0  0  0  0  0  0  0  0  0  0  0  0
   58.4861   31.9724   47.5863 H   0  0  0  0  0  0  0  0  0  0  0  0
   60.5971   30.9489   48.4250 H   0  0  0  0  0  0  0  0  0  0  0  0
  1  2  1  0
  2  3  1  0
  3  4  2  0
  4  5  1  0
  5  6  2  0
  6  7  1  0
  7  8  1  0
  8  9  1  0
  9 10  2  0
 10 11  1  0
 11 12  2  0
 11 13  1  0
 13 14  2  0
 14 15  1  0
 14 16  1  0
  6 17  1  0
 17 18  2  0
 18  3  1  0
 16  9  1  0
  1 19  1  0
  1 20  1  0
  1 21  1  0
  4 22  1  0
  5 23  1  0
  7 24  1  0
  7 25  1  0
 13 26  1  0
 15 27  1  0
 16 28  1  0
 17 29  1  0
 18 30  1  0
M  END
>  <smiles>  (58) 
COc1ccc(CSc2nc(=O)cc(O)[nH]2)cc1

>  <score_type>  (58) 
oracle

>  <origin>  (58) 
adg

>  <m_score__min__energy>  (58) 
-6.6500000000000004

>  <m_primary>  (58) 
energy

$$$$
59:0
     RDKit          3D

 34 35  0  0  0  0  0  0  0  0999 V2000
   60.5970   26.5030   46.3430 C   0  0  0  0  0  0  0  0  0  0  0  0
   59.1440   26.7910   46.1350 C   0  0  0  0  0  0  0  0  0  0  0  0
   58.5490   28.2510   45.5550 S   0  0  0  0  0  0  0  0  0  0  0  0
   56.9350   27.8050   45.5880 C   0  0  0  0  0  0  0  0  0  0  0  0
   55.8730   28.6990   45.2390 N   0  0  0  0  0  0  0  0  0  0  0  0
   56.0200   29.8220   44.3630 C   0  0  0  0  0  0  0  0  0  0  0  0
   55.2610   30.8230   44.4710 O   0  0  0  0  0  0  0  0  0  0  0  0
   57.1230   29.8330   43.3560 C   0  0  0  0  0  0  0  0  0  0  0  0
   57.4000   31.5220   42.7190 S   0  0  0  0  0  0  0  0  0  0  0  0
   57.8350   32.2230   44.3140 C   0  0  0  0  0  0  0  0  0  0  0  0
   57.4560   33.5330   44.6330 C   0  0  0  0  0  0  0  0  0  0  0  0
   57.7960   34.0780   45.8750 C   0  0  0  0  0  0  0  0  0  0  0  0
   58.5200   33.3160   46.7990 C   0  0  0  0  0  0  0  0  0  0  0  0
   58.9050   32.0110   46.4800 C   0  0  0  0  0  0  0  0  0  0  0  0
   58.5670   31.4650   45.2380 C   0  0  0  0  0  0  0  0  0  0  0  0
   56.8170   26.4820   46.0310 C   0  0  0  0  0  0  0  0  0  0  0  0
   55.5360   25.7400   46.0660 C   0  0  0  0  0  0  0  0  0  0  0  0
   54.4440   26.3380   45.8830 O   0  0  0  0  0  0  0  0  0  0  0  0
   55.5240   24.3730   46.3130 O   0  0  0  0  0  0  0  0  0  0  0  0
   58.0760   25.9080   46.3410 C   0  0  0  0  0  0  0  0  0  0  0  0
   58.2550   24.4900   46.8130 C   0  0  0  0  0  0  0  0  0  0  0  0
   60.8117   26.4604   47.4210 H   0  0  0  0  0  0  0  0  0  0  0  0
   60.8493   25.5374   45.8805 H   0  0  0  0  0  0  0  0  0  0  0  0
   61.1985   27.2994   45.8805 H   0  0  0  0  0  0  0  0  0  0  0  0
   58.0472   29.4695   43.8290 H   0  0  0  0  0  0  0  0  0  0  0  0
   56.8414   29.1805   42.5164 H   0  0  0  0  0  0  0  0  0  0  0  0
   56.8902   34.1338   43.9057 H   0  0  0  0  0  0  0  0  0  0  0  0
   57.4944   35.1057   46.1258 H   0  0  0  0  0  0  0  0  0  0  0  0
   58.7861   33.7444   47.7766 H   0  0  0  0  0  0  0  0  0  0  0  0
   59.4744   31.4129   47.2066 H   0  0  0  0  0  0  0  0  0  0  0  0
   58.8758   30.4398   44.9859 H   0  0  0  0  0  0  0  0  0  0  0  0
   58.2579   24.4672   47.9128 H   0  0  0  0  0  0  0  0  0  0  0  0
   57.4279   23.8708   46.4356 H   0  0  0  0  0  0  0  0  0  0  0  0
   59.2100   24.0957   46.4356 H   0  0  0  0  0  0  0  0  0  0  0  0
  1  2  1  0
  2  3  1  0
  3  4  1  0
  4  5  1  0
  5  6  1  0
  6  7  2  0
  6  8  1  0
  8  9  1  0
  9 10  1  0
 10 11  2  0
 11 12  1  0
 12 13  2  0
 13 14  1  0
 14 15  2  0
  4 16  2  0
 16 17  1  0
 17 18  2  0
 17 19  1  0
 16 20  1  0
 20 21  1  0
 20  2  2  0
 15 10  1  0
  1 22  1  0
  1 23  1  0
  1 24  1  0
  8 25  1  0
  8 26  1  0
 11 27  1  0
 12 28  1  0
 13 29  1  0
 14 30  1  0
 15 31  1  0
 21 32  1  0
 21 33  1  0
 21 34  1  0
M  CHG  2   5  -1  19  -1
M  END
>  <UniqueID>  (59) 
53

>  <SMILES>  (59) 
Cc1sc([N-]C(=O)CSc2ccccc2)c(C(=O)[O-])c1C

>  <Energy>  (59) 
62.95171146508861

>  <Genealogy>  (59) 
Cc1sc([N-]C(=O)CSc2ccccc2)c(C(=O)[O-])c1C (protonated)
Cc1sc([N-]C(=O)CSc2ccccc2)c(C(=O)[O-])c1C (3D coordinates assigned)
Cc1sc([N-]C(=O)CSc2ccccc2)c(C(=O)[O-])c1C (optimized conformer: 62.95171146508861 kcal/mol)

>  <smiles>  (59) 
Cc1sc(NC(=O)CSc2ccccc2)c(C(=O)O)c1C

>  <score_type>  (59) 
oracle

>  <origin>  (59) 
adg

>  <m_score__min__energy>  (59) 
-13.050000000000001

>  <m_primary>  (59) 
energy

$$$$
60:0
     RDKit          3D

 36 37  0  0  0  0  0  0  0  0999 V2000
   55.1410   29.2600   44.8790 O   0  0  0  0  0  0  0  0  0  0  0  0
   56.2620   29.8330   44.8370 C   0  0  0  0  0  0  0  0  0  0  0  0
   56.3590   31.1960   44.4220 N   0  0  0  0  0  0  0  0  0  0  0  0
   57.8620   31.9210   43.9570 S   0  0  0  0  0  0  0  0  0  0  0  0
   58.8770   30.8350   43.7300 O   0  0  0  0  0  0  0  0  0  0  0  0
   57.6680   32.6870   42.6800 O   0  0  0  0  0  0  0  0  0  0  0  0
   58.4100   33.0260   45.2130 C   0  0  0  0  0  0  0  0  0  0  0  0
   59.1730   34.1550   44.8820 C   0  0  0  0  0  0  0  0  0  0  0  0
   59.6040   35.0300   45.8850 C   0  0  0  0  0  0  0  0  0  0  0  0
   59.2730   34.7810   47.2200 C   0  0  0  0  0  0  0  0  0  0  0  0
   58.5090   33.6600   47.5530 C   0  0  0  0  0  0  0  0  0  0  0  0
   58.0750   32.7840   46.5540 C   0  0  0  0  0  0  0  0  0  0  0  0
   57.4500   29.1230   45.2040 N   0  0  0  0  0  0  0  0  0  0  0  0
   57.4030   27.7230   45.6270 C   0  0  0  0  0  0  0  0  0  0  0  0
   58.5790   27.3710   46.5490 C   0  0  0  0  0  0  0  0  0  0  0  0
   59.2810   28.6050   47.0520 C   0  0  0  0  0  0  0  0  0  0  0  0
   58.8650   29.2160   48.2470 C   0  0  0  0  0  0  0  0  0  0  0  0
   59.5020   30.3730   48.7070 C   0  0  0  0  0  0  0  0  0  0  0  0
   60.5560   30.9300   47.9780 C   0  0  0  0  0  0  0  0  0  0  0  0
   60.9740   30.3310   46.7870 C   0  0  0  0  0  0  0  0  0  0  0  0
   60.3400   29.1730   46.3230 C   0  0  0  0  0  0  0  0  0  0  0  0
   59.4332   34.3531   43.8317 H   0  0  0  0  0  0  0  0  0  0  0  0
   60.2036   35.9142   45.6229 H   0  0  0  0  0  0  0  0  0  0  0  0
   59.6142   35.4679   48.0085 H   0  0  0  0  0  0  0  0  0  0  0  0
   58.2483   33.4662   48.6039 H   0  0  0  0  0  0  0  0  0  0  0  0
   57.4704   31.9042   46.8192 H   0  0  0  0  0  0  0  0  0  0  0  0
   58.3620   29.6290   45.1490 H   0  0  0  0  0  0  0  0  0  0  0  0
   56.4609   27.5445   46.1661 H   0  0  0  0  0  0  0  0  0  0  0  0
   57.4683   27.0902   44.7296 H   0  0  0  0  0  0  0  0  0  0  0  0
   58.1990   26.8012   47.4098 H   0  0  0  0  0  0  0  0  0  0  0  0
   59.3020   26.7767   45.9710 H   0  0  0  0  0  0  0  0  0  0  0  0
   58.0345   28.7823   48.8234 H   0  0  0  0  0  0  0  0  0  0  0  0
   59.1727   30.8453   49.6443 H   0  0  0  0  0  0  0  0  0  0  0  0
   61.0564   31.8396   48.3416 H   0  0  0  0  0  0  0  0  0  0  0  0
   61.8030   30.7705   46.2129 H   0  0  0  0  0  0  0  0  0  0  0  0
   60.6717   28.7055   45.3842 H   0  0  0  0  0  0  0  0  0  0  0  0
  1  2  2  0
  2  3  1  0
  3  4  1  0
  4  5  2  0
  4  6  2  0
  4  7  1  0
  7  8  2  0
  8  9  1  0
  9 10  2  0
 10 11  1  0
 11 12  2  0
  2 13  1  0
 13 14  1  0
 14 15  1  0
 15 16  1  0
 16 17  2  0
 17 18  1  0
 18 19  2  0
 19 20  1  0
 20 21  2  0
 12  7  1  0
 21 16  1  0
  8 22  1  0
  9 23  1  0
 10 24  1  0
 11 25  1  0
 12 26  1  0
 13 27  1  0
 14 28  1  0
 14 29  1  0
 15 30  1  0
 15 31  1  0
 17 32  1  0
 18 33  1  0
 19 34  1  0
 20 35  1  0
 21 36  1  0
M  CHG  1   3  -1
M  END
>  <UniqueID>  (60) 
54

>  <SMILES>  (60) 
O=C([N-]S(=O)(=O)c1ccccc1)NCCc1ccccc1

>  <Energy>  (60) 
33.43994552172189

>  <Genealogy>  (60) 
O=C([N-]S(=O)(=O)c1ccccc1)NCCc1ccccc1 (protonated)
O=C([N-]S(=O)(=O)c1ccccc1)NCCc1ccccc1 (3D coordinates assigned)
O=C([N-]S(=O)(=O)c1ccccc1)NCCc1ccccc1 (optimized conformer: 33.43994552172189 kcal/mol)

>  <smiles>  (60) 
O=C(NCCc1ccccc1)NS(=O)(=O)c1ccccc1

>  <score_type>  (60) 
oracle

>  <origin>  (60) 
adg

>  <m_score__min__energy>  (60) 
-9.7899999999999991

>  <m_primary>  (60) 
energy

$$$$
61:0
     RDKit          3D

 53 55  0  0  0  0  0  0  0  0999 V2000
   62.8910   33.4210   47.3320 C   0  0  0  0  0  0  0  0  0  0  0  0
   62.1940   32.0680   47.4330 C   0  0  0  0  0  0  0  0  0  0  0  0
   60.9050   32.1840   48.1280 N   0  0  0  0  0  0  0  0  0  0  0  0
   60.2490   33.4960   48.2630 C   0  0  0  0  0  0  0  0  0  0  0  0
   59.3210   33.7540   47.1040 C   0  0  0  0  0  0  0  0  0  0  0  0
   59.7730   34.4620   45.9770 C   0  0  0  0  0  0  0  0  0  0  0  0
   58.9230   34.6670   44.8850 C   0  0  0  0  0  0  0  0  0  0  0  0
   57.6180   34.1680   44.9100 C   0  0  0  0  0  0  0  0  0  0  0  0
   57.1580   33.4690   46.0300 C   0  0  0  0  0  0  0  0  0  0  0  0
   58.0050   33.2620   47.1230 C   0  0  0  0  0  0  0  0  0  0  0  0
   60.2930   30.9980   48.6700 C   0  0  0  0  0  0  0  0  0  0  0  0
   60.2810   30.8220   49.9190 O   0  0  0  0  0  0  0  0  0  0  0  0
   59.6950   29.9680   47.7920 C   0  0  0  0  0  0  0  0  0  0  0  0
   59.3790   30.2740   46.4590 C   0  0  0  0  0  0  0  0  0  0  0  0
   58.8100   29.3060   45.6260 C   0  0  0  0  0  0  0  0  0  0  0  0
   58.5460   28.0150   46.1110 C   0  0  0  0  0  0  0  0  0  0  0  0
   57.9460   27.0200   45.2580 N   0  0  0  0  0  0  0  0  0  0  0  0
   58.1500   27.0720   43.8100 C   0  0  0  0  0  0  0  0  0  0  0  0
   56.9130   25.7890   45.9290 S   0  0  0  0  0  0  0  0  0  0  0  0
   55.5060   26.3160   45.9980 O   0  0  0  0  0  0  0  0  0  0  0  0
   57.3730   25.4250   47.3130 O   0  0  0  0  0  0  0  0  0  0  0  0
   56.9820   24.3400   44.9310 C   0  0  0  0  0  0  0  0  0  0  0  0
   56.0070   24.0970   43.9510 C   0  0  0  0  0  0  0  0  0  0  0  0
   56.0770   22.9440   43.1630 C   0  0  0  0  0  0  0  0  0  0  0  0
   57.1190   22.0300   43.3500 C   0  0  0  0  0  0  0  0  0  0  0  0
   58.0920   22.2690   44.3250 C   0  0  0  0  0  0  0  0  0  0  0  0
   58.0230   23.4210   45.1150 C   0  0  0  0  0  0  0  0  0  0  0  0
   58.8420   27.7180   47.4520 C   0  0  0  0  0  0  0  0  0  0  0  0
   59.4080   28.6870   48.2850 C   0  0  0  0  0  0  0  0  0  0  0  0
   63.0900   33.8073   48.3425 H   0  0  0  0  0  0  0  0  0  0  0  0
   63.8413   33.3044   46.7903 H   0  0  0  0  0  0  0  0  0  0  0  0
   62.2444   34.1270   46.7903 H   0  0  0  0  0  0  0  0  0  0  0  0
   62.0211   31.6771   46.4194 H   0  0  0  0  0  0  0  0  0  0  0  0
   62.8388   31.3865   48.0072 H   0  0  0  0  0  0  0  0  0  0  0  0
   59.6709   33.5152   49.1987 H   0  0  0  0  0  0  0  0  0  0  0  0
   61.0234   34.2771   48.2743 H   0  0  0  0  0  0  0  0  0  0  0  0
   60.7995   34.8566   45.9536 H   0  0  0  0  0  0  0  0  0  0  0  0
   59.2823   35.2216   44.0056 H   0  0  0  0  0  0  0  0  0  0  0  0
   56.9525   34.3252   44.0483 H   0  0  0  0  0  0  0  0  0  0  0  0
   56.1287   33.0815   46.0513 H   0  0  0  0  0  0  0  0  0  0  0  0
   57.6393   32.7112   48.0022 H   0  0  0  0  0  0  0  0  0  0  0  0
   59.5804   31.2820   46.0672 H   0  0  0  0  0  0  0  0  0  0  0  0
   58.5674   29.5576   44.5830 H   0  0  0  0  0  0  0  0  0  0  0  0
   59.1956   27.3385   43.5964 H   0  0  0  0  0  0  0  0  0  0  0  0
   57.9257   26.0880   43.3725 H   0  0  0  0  0  0  0  0  0  0  0  0
   57.4820   27.8286   43.3725 H   0  0  0  0  0  0  0  0  0  0  0  0
   55.1866   24.8146   43.8027 H   0  0  0  0  0  0  0  0  0  0  0  0
   55.3119   22.7557   42.3954 H   0  0  0  0  0  0  0  0  0  0  0  0
   57.1729   21.1231   42.7299 H   0  0  0  0  0  0  0  0  0  0  0  0
   58.9122   21.5507   44.4709 H   0  0  0  0  0  0  0  0  0  0  0  0
   58.7884   23.6059   45.8831 H   0  0  0  0  0  0  0  0  0  0  0  0
   58.6266   26.7151   47.8493 H   0  0  0  0  0  0  0  0  0  0  0  0
   59.6299   28.4432   49.3344 H   0  0  0  0  0  0  0  0  0  0  0  0
  1  2  1  0
  2  3  1  0
  3  4  1  0
  4  5  1  0
  5  6  2  0
  6  7  1  0
  7  8  2  0
  8  9  1  0
  9 10  2  0
  3 11  1  0
 11 12  2  0
 11 13  1  0
 13 14  2  0
 14 15  1  0
 15 16  2  0
 16 17  1  0
 17 18  1  0
 17 19  1  0
 19 20  2  0
 19 21  2  0
 19 22  1  0
 22 23  2  0
 23 24  1  0
 24 25  2  0
 25 26  1  0
 26 27  2  0
 16 28  1  0
 28 29  2  0
 10  5  1  0
 29 13  1  0
 27 22  1  0
  1 30  1  0
  1 31  1  0
  1 32  1  0
  2 33  1  0
  2 34  1  0
  4 35  1  0
  4 36  1  0
  6 37  1  0
  7 38  1  0
  8 39  1  0
  9 40  1  0
 10 41  1  0
 14 42  1  0
 15 43  1  0
 18 44  1  0
 18 45  1  0
 18 46  1  0
 23 47  1  0
 24 48  1  0
 25 49  1  0
 26 50  1  0
 27 51  1  0
 28 52  1  0
 29 53  1  0
M  END
>  <UniqueID>  (61) 
55

>  <SMILES>  (61) 
CCN(Cc1ccccc1)C(=O)c1ccc(N(C)S(=O)(=O)c2ccccc2)cc1

>  <Energy>  (61) 
60.39902794279934

>  <Genealogy>  (61) 
CCN(Cc1ccccc1)C(=O)c1ccc(N(C)S(=O)(=O)c2ccccc2)cc1 (3D coordinates assigned)
CCN(Cc1ccccc1)C(=O)c1ccc(N(C)S(=O)(=O)c2ccccc2)cc1 (optimized conformer: 60.39902794279934 kcal/mol)

>  <smiles>  (61) 
CCN(Cc1ccccc1)C(=O)c1ccc(N(C)S(=O)(=O)c2ccccc2)cc1

>  <score_type>  (61) 
oracle

>  <origin>  (61) 
adg

>  <m_score__min__energy>  (61) 
-9.3499999999999996

>  <m_primary>  (61) 
energy

$$$$
62:0
     RDKit          3D

 56 59  0  0  0  0  0  0  0  0999 V2000
   58.0730   29.9320   50.4490 O   0  0  0  0  0  0  0  0  0  0  0  0
   58.9560   29.6890   49.5850 C   0  0  0  0  0  0  0  0  0  0  0  0
   60.3870   29.5900   50.0280 C   0  0  0  0  0  0  0  0  0  0  0  0
   61.4290   30.6610   48.9760 S   0  0  0  0  0  0  0  0  0  0  0  0
   60.6210   32.1740   49.5010 C   0  0  0  0  0  0  0  0  0  0  0  0
   60.1800   32.3690   50.7570 N   0  0  0  0  0  0  0  0  0  0  0  0
   59.6550   33.6070   50.7670 C   0  0  0  0  0  0  0  0  0  0  0  0
   59.7960   34.1550   49.5090 C   0  0  0  0  0  0  0  0  0  0  0  0
   60.4050   33.2520   48.7160 N   0  0  0  0  0  0  0  0  0  0  0  0
   60.8200   33.4580   47.3270 C   0  0  0  0  0  0  0  0  0  0  0  0
   59.6530   33.3030   46.3870 C   0  0  0  0  0  0  0  0  0  0  0  0
   59.1090   32.0300   46.1400 C   0  0  0  0  0  0  0  0  0  0  0  0
   58.0110   31.8860   45.2880 C   0  0  0  0  0  0  0  0  0  0  0  0
   57.4500   33.0060   44.6720 C   0  0  0  0  0  0  0  0  0  0  0  0
   57.9890   34.2740   44.9010 C   0  0  0  0  0  0  0  0  0  0  0  0
   59.0900   34.4260   45.7530 C   0  0  0  0  0  0  0  0  0  0  0  0
   59.6000   35.6650   45.9610 F   0  0  0  0  0  0  0  0  0  0  0  0
   58.5430   29.4220   48.2370 N   0  0  0  0  0  0  0  0  0  0  0  0
   58.8040   28.2480   47.4550 C   0  0  0  0  0  0  0  0  0  0  0  0
   60.1010   28.0360   46.9710 C   0  0  0  0  0  0  0  0  0  0  0  0
   60.3990   26.8960   46.2200 C   0  0  0  0  0  0  0  0  0  0  0  0
   59.4050   25.9520   45.9570 C   0  0  0  0  0  0  0  0  0  0  0  0
   58.1100   26.1370   46.4590 C   0  0  0  0  0  0  0  0  0  0  0  0
   56.8580   24.9520   46.0860 S   0  0  0  0  0  0  0  0  0  0  0  0
   55.5120   25.6240   46.0470 O   0  0  0  0  0  0  0  0  0  0  0  0
   56.8460   23.9080   47.1670 O   0  0  0  0  0  0  0  0  0  0  0  0
   57.1870   24.1930   44.5450 N   0  0  0  0  0  0  0  0  0  0  0  0
   55.9470   24.0830   43.7490 C   0  0  0  0  0  0  0  0  0  0  0  0
   56.0310   22.9180   42.7510 C   0  0  0  0  0  0  0  0  0  0  0  0
   56.2080   21.6500   43.3690 O   0  0  0  0  0  0  0  0  0  0  0  0
   56.9000   21.7080   44.6090 C   0  0  0  0  0  0  0  0  0  0  0  0
   57.8720   22.8960   44.7290 C   0  0  0  0  0  0  0  0  0  0  0  0
   57.8170   27.2730   47.2260 C   0  0  0  0  0  0  0  0  0  0  0  0
   60.4692   29.9144   51.0759 H   0  0  0  0  0  0  0  0  0  0  0  0
   60.7263   28.5475   49.9379 H   0  0  0  0  0  0  0  0  0  0  0  0
   60.2520   31.7050   51.5580 H   0  0  0  0  0  0  0  0  0  0  0  0
   59.1907   34.1003   51.6336 H   0  0  0  0  0  0  0  0  0  0  0  0
   59.4668   35.1595   49.2047 H   0  0  0  0  0  0  0  0  0  0  0  0
   61.2346   34.4714   47.2218 H   0  0  0  0  0  0  0  0  0  0  0  0
   61.5785   32.7033   47.0719 H   0  0  0  0  0  0  0  0  0  0  0  0
   59.5498   31.1437   46.6197 H   0  0  0  0  0  0  0  0  0  0  0  0
   57.5877   30.8878   45.1022 H   0  0  0  0  0  0  0  0  0  0  0  0
   56.5826   32.8898   44.0056 H   0  0  0  0  0  0  0  0  0  0  0  0
   57.5479   35.1547   44.4113 H   0  0  0  0  0  0  0  0  0  0  0  0
   60.8905   28.7719   47.1835 H   0  0  0  0  0  0  0  0  0  0  0  0
   61.4181   26.7423   45.8356 H   0  0  0  0  0  0  0  0  0  0  0  0
   59.6386   25.0616   45.3548 H   0  0  0  0  0  0  0  0  0  0  0  0
   55.0982   23.9138   44.4280 H   0  0  0  0  0  0  0  0  0  0  0  0
   55.8106   25.0171   43.1844 H   0  0  0  0  0  0  0  0  0  0  0  0
   55.0993   22.8929   42.1667 H   0  0  0  0  0  0  0  0  0  0  0  0
   56.9154   23.0960   42.1215 H   0  0  0  0  0  0  0  0  0  0  0  0
   56.1570   21.7861   45.4164 H   0  0  0  0  0  0  0  0  0  0  0  0
   57.5062   20.7927   44.6782 H   0  0  0  0  0  0  0  0  0  0  0  0
   58.3344   22.8771   45.7269 H   0  0  0  0  0  0  0  0  0  0  0  0
   58.6293   22.7965   43.9375 H   0  0  0  0  0  0  0  0  0  0  0  0
   56.8106   27.4024   47.6506 H   0  0  0  0  0  0  0  0  0  0  0  0
  1  2  2  0
  2  3  1  0
  3  4  1  0
  4  5  1  0
  5  6  2  0
  6  7  1  0
  7  8  2  0
  8  9  1  0
  9 10  1  0
 10 11  1  0
 11 12  2  0
 12 13  1  0
 13 14  2  0
 14 15  1  0
 15 16  2  0
 16 17  1  0
  2 18  1  0
 18 19  1  0
 19 20  2  0
 20 21  1  0
 21 22  2  0
 22 23  1  0
 23 24  1  0
 24 25  2  0
 24 26  2  0
 24 27  1  0
 27 28  1  0
 28 29  1  0
 29 30  1  0
 30 31  1  0
 31 32  1  0
 23 33  2  0
  9  5  1  0
 16 11  1  0
 33 19  1  0
 32 27  1  0
  3 34  1  0
  3 35  1  0
  6 36  1  0
  7 37  1  0
  8 38  1  0
 10 39  1  0
 10 40  1  0
 12 41  1  0
 13 42  1  0
 14 43  1  0
 15 44  1  0
 20 45  1  0
 21 46  1  0
 22 47  1  0
 28 48  1  0
 28 49  1  0
 29 50  1  0
 29 51  1  0
 31 52  1  0
 31 53  1  0
 32 54  1  0
 32 55  1  0
 33 56  1  0
M  CHG  2   6   1  18  -1
M  END
>  <UniqueID>  (62) 
56

>  <SMILES>  (62) 
O=C(CSc1[nH+]ccn1Cc1ccccc1F)[N-]c1cccc(S(=O)(=O)N2CCOCC2)c1

>  <Energy>  (62) 
97.27403497072785

>  <Genealogy>  (62) 
O=C(CSc1[nH+]ccn1Cc1ccccc1F)[N-]c1cccc(S(=O)(=O)N2CCOCC2)c1 (protonated)
O=C(CSc1[nH+]ccn1Cc1ccccc1F)[N-]c1cccc(S(=O)(=O)N2CCOCC2)c1 (3D coordinates assigned)
O=C(CSc1[nH+]ccn1Cc1ccccc1F)[N-]c1cccc(S(=O)(=O)N2CCOCC2)c1 (nonaromatic ring conformer: 97.27403497072785 kcal/mol)

>  <smiles>  (62) 
O=C(CSc1nccn1Cc1ccccc1F)Nc1cccc(S(=O)(=O)N2CCOCC2)c1

>  <score_type>  (62) 
oracle

>  <origin>  (62) 
adg

>  <m_score__min__energy>  (62) 
-10.199999999999999

>  <m_primary>  (62) 
energy

$$$$
63:0
     RDKit          3D

 39 41  0  0  0  0  0  0  0  0999 V2000
   61.1590   30.7110   46.9890 C   0  0  0  0  0  0  0  0  0  0  0  0
   62.0680   31.6670   47.7200 C   0  0  0  0  0  0  0  0  0  0  0  0
   63.2940   31.9940   47.1200 C   0  0  0  0  0  0  0  0  0  0  0  0
   64.1660   32.8350   47.7350 N   0  0  0  0  0  0  0  0  0  0  0  0
   63.8950   33.3680   48.9520 C   0  0  0  0  0  0  0  0  0  0  0  0
   62.7010   33.0640   49.6020 C   0  0  0  0  0  0  0  0  0  0  0  0
   61.7630   32.2090   49.0010 C   0  0  0  0  0  0  0  0  0  0  0  0
   60.4860   31.9030   49.7130 C   0  0  0  0  0  0  0  0  0  0  0  0
   60.3020   30.7910   50.4120 C   0  0  0  0  0  0  0  0  0  0  0  0
   58.9060   30.6400   50.8870 C   0  0  0  0  0  0  0  0  0  0  0  0
   58.1480   31.7320   50.1330 C   0  0  0  0  0  0  0  0  0  0  0  0
   59.2300   32.7560   49.7010 C   0  0  1  0  0  0  0  0  0  0  0  0
   59.3340   33.8450   50.8040 C   0  0  0  0  0  0  0  0  0  0  0  0
   58.9190   33.3230   48.3050 C   0  0  0  0  0  0  0  0  0  0  0  0
   59.6270   34.4500   47.8320 C   0  0  0  0  0  0  0  0  0  0  0  0
   59.3740   34.9810   46.5640 C   0  0  0  0  0  0  0  0  0  0  0  0
   58.4260   34.3870   45.7330 C   0  0  0  0  0  0  0  0  0  0  0  0
   58.1840   34.9030   44.5020 F   0  0  0  0  0  0  0  0  0  0  0  0
   57.7370   33.2530   46.1630 C   0  0  0  0  0  0  0  0  0  0  0  0
   57.9850   32.7170   47.4310 C   0  0  0  0  0  0  0  0  0  0  0  0
   60.5916   30.1143   47.7184 H   0  0  0  0  0  0  0  0  0  0  0  0
   60.4603   31.2796   46.3577 H   0  0  0  0  0  0  0  0  0  0  0  0
   61.7621   30.0418   46.3577 H   0  0  0  0  0  0  0  0  0  0  0  0
   63.5518   31.5645   46.1407 H   0  0  0  0  0  0  0  0  0  0  0  0
   65.0700   33.0680   47.2660 H   0  0  0  0  0  0  0  0  0  0  0  0
   64.6211   34.0434   49.4281 H   0  0  0  0  0  0  0  0  0  0  0  0
   62.4917   33.4961   50.5917 H   0  0  0  0  0  0  0  0  0  0  0  0
   61.0985   30.0605   50.6169 H   0  0  0  0  0  0  0  0  0  0  0  0
   58.5117   29.6441   50.6365 H   0  0  0  0  0  0  0  0  0  0  0  0
   58.8144   30.7333   51.9792 H   0  0  0  0  0  0  0  0  0  0  0  0
   57.6415   31.3114   49.2517 H   0  0  0  0  0  0  0  0  0  0  0  0
   57.3691   32.1960   50.7559 H   0  0  0  0  0  0  0  0  0  0  0  0
   59.2885   33.3690   51.7946 H   0  0  0  0  0  0  0  0  0  0  0  0
   60.2876   34.3832   50.6992 H   0  0  0  0  0  0  0  0  0  0  0  0
   58.4995   34.5539   50.6992 H   0  0  0  0  0  0  0  0  0  0  0  0
   60.3899   34.9174   48.4719 H   0  0  0  0  0  0  0  0  0  0  0  0
   59.9244   35.8696   46.2213 H   0  0  0  0  0  0  0  0  0  0  0  0
   56.9961   32.7786   45.5027 H   0  0  0  0  0  0  0  0  0  0  0  0
   57.4473   31.8130   47.7530 H   0  0  0  0  0  0  0  0  0  0  0  0
  1  2  1  0
  2  3  2  0
  3  4  1  0
  4  5  2  0
  5  6  1  0
  6  7  2  0
  7  8  1  0
  8  9  2  0
  9 10  1  0
 10 11  1  0
 11 12  1  0
 12 13  1  1
 12 14  1  0
 14 15  2  0
 15 16  1  0
 16 17  2  0
 17 18  1  0
 17 19  1  0
 19 20  2  0
  7  2  1  0
 12  8  1  0
 20 14  1  0
  1 21  1  0
  1 22  1  0
  1 23  1  0
  3 24  1  0
  4 25  1  0
  5 26  1  0
  6 27  1  0
  9 28  1  0
 10 29  1  0
 10 30  1  0
 11 31  1  0
 11 32  1  0
 13 33  1  0
 13 34  1  0
 13 35  1  0
 15 36  1  0
 16 37  1  0
 19 38  1  0
 20 39  1  0
M  CHG  1   4   1
M  END
>  <UniqueID>  (63) 
57

>  <SMILES>  (63) 
Cc1c[nH+]ccc1C1=CCC[C@]1(C)c1ccc(F)cc1

>  <Energy>  (63) 
58.64163193498693

>  <Genealogy>  (63) 
Cc1c[nH+]ccc1C1=CCCC1(C)c1ccc(F)cc1 (protonated)
Cc1c[nH+]ccc1C1=CCC[C@]1(C)c1ccc(F)cc1 (chirality)
Cc1c[nH+]ccc1C1=CCC[C@]1(C)c1ccc(F)cc1 (3D coordinates assigned)
Cc1c[nH+]ccc1C1=CCC[C@]1(C)c1ccc(F)cc1 (nonaromatic ring conformer: 58.64163193498693 kcal/mol)

>  <smiles>  (63) 
Cc1cnccc1C1=CCCC1(C)c1ccc(F)cc1

>  <score_type>  (63) 
oracle

>  <origin>  (63) 
adg

>  <m_score__min__energy>  (63) 
-5.5199999999999996

>  <m_primary>  (63) 
energy

$$$$
64:0
     RDKit          3D

 54 57  0  0  0  0  0  0  0  0999 V2000
   66.9490   33.0610   50.5610 C   0  0  0  0  0  0  0  0  0  0  0  0
   65.7940   32.1630   50.1170 C   0  0  1  0  0  0  0  0  0  0  0  0
   64.7860   31.8890   51.2500 C   0  0  0  0  0  0  0  0  0  0  0  0
   63.5150   32.4020   50.7550 N   0  0  0  0  0  0  0  0  0  0  0  0
   63.6680   32.9110   49.5810 C   0  0  0  0  0  0  0  0  0  0  0  0
   62.5440   33.5110   48.8200 C   0  0  0  0  0  0  0  0  0  0  0  0
   62.5860   33.5580   47.4150 C   0  0  0  0  0  0  0  0  0  0  0  0
   61.5310   34.1210   46.6900 C   0  0  0  0  0  0  0  0  0  0  0  0
   60.4100   34.6440   47.3490 C   0  0  0  0  0  0  0  0  0  0  0  0
   59.3400   35.2160   46.5720 N   0  0  0  0  0  0  0  0  0  0  0  0
   58.1930   34.4410   46.0930 C   0  0  0  0  0  0  0  0  0  0  0  0
   58.4200   32.9690   46.3130 C   0  0  0  0  0  0  0  0  0  0  0  0
   58.2840   32.4170   47.5970 C   0  0  0  0  0  0  0  0  0  0  0  0
   58.5370   31.0590   47.8100 C   0  0  0  0  0  0  0  0  0  0  0  0
   58.9470   30.2420   46.7470 C   0  0  0  0  0  0  0  0  0  0  0  0
   59.2120   28.8080   46.9760 C   0  0  0  0  0  0  0  0  0  0  0  0
   60.3040   28.4540   47.7850 C   0  0  0  0  0  0  0  0  0  0  0  0
   60.5830   27.1120   48.0530 C   0  0  0  0  0  0  0  0  0  0  0  0
   59.7760   26.1110   47.5140 C   0  0  0  0  0  0  0  0  0  0  0  0
   58.6940   26.4460   46.6980 C   0  0  0  0  0  0  0  0  0  0  0  0
   58.4030   27.7900   46.4110 C   0  0  0  0  0  0  0  0  0  0  0  0
   57.0560   28.1630   45.3210 S   0  0  0  0  0  0  0  0  0  0  0  0
   57.5370   27.9620   43.6700 N   0  0  0  0  0  0  0  0  0  0  0  0
   56.6250   29.5900   45.5160 O   0  0  0  0  0  0  0  0  0  0  0  0
   55.9010   27.2450   45.6110 O   0  0  0  0  0  0  0  0  0  0  0  0
   59.0820   30.7920   45.4640 C   0  0  0  0  0  0  0  0  0  0  0  0
   58.8310   32.1500   45.2500 C   0  0  0  0  0  0  0  0  0  0  0  0
   60.3620   34.5920   48.7540 C   0  0  0  0  0  0  0  0  0  0  0  0
   61.4160   34.0300   49.4800 C   0  0  0  0  0  0  0  0  0  0  0  0
   65.0000   32.8290   49.1020 N   0  0  0  0  0  0  0  0  0  0  0  0
   66.9882   33.0915   51.6599 H   0  0  0  0  0  0  0  0  0  0  0  0
   67.8962   32.6597   50.1713 H   0  0  0  0  0  0  0  0  0  0  0  0
   66.7936   34.0778   50.1713 H   0  0  0  0  0  0  0  0  0  0  0  0
   66.2706   31.2348   49.7688 H   0  0  0  0  0  0  0  0  0  0  0  0
   64.7152   30.8101   51.4522 H   0  0  0  0  0  0  0  0  0  0  0  0
   65.0853   32.3670   52.1944 H   0  0  0  0  0  0  0  0  0  0  0  0
   63.4564   33.1483   46.8817 H   0  0  0  0  0  0  0  0  0  0  0  0
   61.5814   34.1537   45.5916 H   0  0  0  0  0  0  0  0  0  0  0  0
   59.3900   36.2350   46.3420 H   0  0  0  0  0  0  0  0  0  0  0  0
   57.2914   34.7536   46.6401 H   0  0  0  0  0  0  0  0  0  0  0  0
   58.0663   34.6235   45.0157 H   0  0  0  0  0  0  0  0  0  0  0  0
   57.9772   33.0558   48.4383 H   0  0  0  0  0  0  0  0  0  0  0  0
   58.4140   30.6297   48.8153 H   0  0  0  0  0  0  0  0  0  0  0  0
   60.9448   29.2401   48.2110 H   0  0  0  0  0  0  0  0  0  0  0  0
   61.4395   26.8448   48.6894 H   0  0  0  0  0  0  0  0  0  0  0  0
   59.9924   25.0548   47.7322 H   0  0  0  0  0  0  0  0  0  0  0  0
   58.0632   25.6499   46.2757 H   0  0  0  0  0  0  0  0  0  0  0  0
   57.8110   28.9060   43.3150 H   0  0  0  0  0  0  0  0  0  0  0  0
   56.6870   27.6810   43.1330 H   0  0  0  0  0  0  0  0  0  0  0  0
   59.3866   30.1520   44.6228 H   0  0  0  0  0  0  0  0  0  0  0  0
   58.9560   32.5786   44.2447 H   0  0  0  0  0  0  0  0  0  0  0  0
   59.4881   34.9968   49.2855 H   0  0  0  0  0  0  0  0  0  0  0  0
   61.3625   33.9934   50.5781 H   0  0  0  0  0  0  0  0  0  0  0  0
   65.3430   33.0870   48.1500 H   0  0  0  0  0  0  0  0  0  0  0  0
  1  2  1  0
  2  3  1  0
  3  4  1  0
  4  5  2  0
  5  6  1  0
  6  7  2  0
  7  8  1  0
  8  9  2  0
  9 10  1  0
 10 11  1  0
 11 12  1  0
 12 13  2  0
 13 14  1  0
 14 15  2  0
 15 16  1  0
 16 17  2  0
 17 18  1  0
 18 19  2  0
 19 20  1  0
 20 21  2  0
 21 22  1  0
 22 23  1  0
 22 24  2  0
 22 25  2  0
 15 26  1  0
 26 27  2  0
  9 28  1  0
 28 29  2  0
  5 30  1  0
 30  2  1  0
 29  6  1  0
 27 12  1  0
 21 16  1  0
  1 31  1  0
  1 32  1  0
  1 33  1  0
  2 34  1  6
  3 35  1  0
  3 36  1  0
  7 37  1  0
  8 38  1  0
 10 39  1  0
 11 40  1  0
 11 41  1  0
 13 42  1  0
 14 43  1  0
 17 44  1  0
 18 45  1  0
 19 46  1  0
 20 47  1  0
 23 48  1  0
 23 49  1  0
 26 50  1  0
 27 51  1  0
 28 52  1  0
 29 53  1  0
 30 54  1  0
M  END
>  <UniqueID>  (64) 
58

>  <SMILES>  (64) 
C[C@H]1CN=C(c2ccc(NCc3ccc(-c4ccccc4S(N)(=O)=O)cc3)cc2)N1

>  <Energy>  (64) 
76.02499067678433

>  <Genealogy>  (64) 
C[C@H]1CN=C(c2ccc(NCc3ccc(-c4ccccc4S(N)(=O)=O)cc3)cc2)N1 (chirality)
C[C@H]1CN=C(c2ccc(NCc3ccc(-c4ccccc4S(N)(=O)=O)cc3)cc2)N1 (3D coordinates assigned)
C[C@H]1CN=C(c2ccc(NCc3ccc(-c4ccccc4S(N)(=O)=O)cc3)cc2)N1 (nonaromatic ring conformer: 76.02499067678433 kcal/mol)

>  <smiles>  (64) 
CC1CN=C(c2ccc(NCc3ccc(-c4ccccc4S(N)(=O)=O)cc3)cc2)N1

>  <score_type>  (64) 
oracle

>  <origin>  (64) 
adg

>  <m_score__min__energy>  (64) 
-10.140000000000001

>  <m_primary>  (64) 
energy

$$$$
65:0
     RDKit          3D

 50 51  0  0  0  0  0  0  0  0999 V2000
   57.7550   33.2130   45.1260 C   0  0  0  0  0  0  0  0  0  0  0  0
   58.5470   32.0550   44.8860 O   0  0  0  0  0  0  0  0  0  0  0  0
   58.1110   30.7340   45.0820 C   0  0  0  0  0  0  0  0  0  0  0  0
   57.4470   30.0140   44.0710 C   0  0  0  0  0  0  0  0  0  0  0  0
   57.0360   28.6990   44.2910 C   0  0  0  0  0  0  0  0  0  0  0  0
   57.2890   28.0780   45.5190 C   0  0  0  0  0  0  0  0  0  0  0  0
   56.7880   26.4140   45.8040 S   0  0  0  0  0  0  0  0  0  0  0  0
   55.0660   26.3350   45.8820 N   0  0  0  0  0  0  0  0  0  0  0  0
   57.2780   25.5330   44.6910 O   0  0  0  0  0  0  0  0  0  0  0  0
   57.3730   25.9270   47.0990 O   0  0  0  0  0  0  0  0  0  0  0  0
   57.9360   28.7900   46.5330 C   0  0  0  0  0  0  0  0  0  0  0  0
   58.3410   30.1230   46.3310 C   0  0  0  0  0  0  0  0  0  0  0  0
   59.0470   30.8420   47.3580 N   0  0  0  0  0  0  0  0  0  0  0  0
   59.9450   30.2280   48.2930 C   0  0  0  0  0  0  0  0  0  0  0  0
   59.8510   29.0000   48.5620 O   0  0  0  0  0  0  0  0  0  0  0  0
   61.0070   31.0480   48.9550 C   0  0  0  0  0  0  0  0  0  0  0  0
   60.5300   32.4170   49.1540 N   0  0  0  0  0  0  0  0  0  0  0  0
   59.6470   32.7150   50.2410 C   0  0  0  0  0  0  0  0  0  0  0  0
   59.9600   33.7480   51.1400 C   0  0  0  0  0  0  0  0  0  0  0  0
   59.0990   34.0360   52.2030 C   0  0  0  0  0  0  0  0  0  0  0  0
   57.9220   33.2980   52.3710 C   0  0  0  0  0  0  0  0  0  0  0  0
   57.6070   32.2690   51.4750 C   0  0  0  0  0  0  0  0  0  0  0  0
   58.4700   31.9740   50.4150 C   0  0  0  0  0  0  0  0  0  0  0  0
   60.8120   33.6170   47.9310 S   0  0  0  0  0  0  0  0  0  0  0  0
   59.8650   34.7720   48.1260 O   0  0  0  0  0  0  0  0  0  0  0  0
   60.5520   33.0030   46.5830 O   0  0  0  0  0  0  0  0  0  0  0  0
   62.4650   34.1740   48.0260 N   0  0  0  0  0  0  0  0  0  0  0  0
   63.2760   33.4750   47.0220 C   0  0  0  0  0  0  0  0  0  0  0  0
   62.9900   33.9100   49.3730 C   0  0  0  0  0  0  0  0  0  0  0  0
   57.6497   33.3670   46.2101 H   0  0  0  0  0  0  0  0  0  0  0  0
   58.2429   34.0905   44.6767 H   0  0  0  0  0  0  0  0  0  0  0  0
   56.7603   33.0765   44.6767 H   0  0  0  0  0  0  0  0  0  0  0  0
   57.2506   30.4919   43.0999 H   0  0  0  0  0  0  0  0  0  0  0  0
   56.5112   28.1485   43.4963 H   0  0  0  0  0  0  0  0  0  0  0  0
   54.7590   27.0640   46.5620 H   0  0  0  0  0  0  0  0  0  0  0  0
   58.1309   28.3031   47.4999 H   0  0  0  0  0  0  0  0  0  0  0  0
   58.9110   31.8770   47.4260 H   0  0  0  0  0  0  0  0  0  0  0  0
   61.2559   30.6035   49.9299 H   0  0  0  0  0  0  0  0  0  0  0  0
   61.9012   31.0664   48.3146 H   0  0  0  0  0  0  0  0  0  0  0  0
   60.8834   34.3308   51.0074 H   0  0  0  0  0  0  0  0  0  0  0  0
   59.3469   34.8433   52.9079 H   0  0  0  0  0  0  0  0  0  0  0  0
   57.2443   33.5262   53.2068 H   0  0  0  0  0  0  0  0  0  0  0  0
   56.6795   31.6920   51.6052 H   0  0  0  0  0  0  0  0  0  0  0  0
   58.2250   31.1598   49.7172 H   0  0  0  0  0  0  0  0  0  0  0  0
   64.0160   32.8372   47.5277 H   0  0  0  0  0  0  0  0  0  0  0  0
   62.6236   32.8516   46.3929 H   0  0  0  0  0  0  0  0  0  0  0  0
   63.7963   34.2123   46.3929 H   0  0  0  0  0  0  0  0  0  0  0  0
   62.2717   34.2712   50.1238 H   0  0  0  0  0  0  0  0  0  0  0  0
   63.1421   32.8282   49.5017 H   0  0  0  0  0  0  0  0  0  0  0  0
   63.9491   34.4330   49.5017 H   0  0  0  0  0  0  0  0  0  0  0  0
  1  2  1  0
  2  3  1  0
  3  4  2  0
  4  5  1  0
  5  6  2  0
  6  7  1  0
  7  8  1  0
  7  9  2  0
  7 10  2  0
  6 11  1  0
 11 12  2  0
 12 13  1  0
 13 14  1  0
 14 15  2  0
 14 16  1  0
 16 17  1  0
 17 18  1  0
 18 19  2  0
 19 20  1  0
 20 21  2  0
 21 22  1  0
 22 23  2  0
 17 24  1  0
 24 25  2  0
 24 26  2  0
 24 27  1  0
 27 28  1  0
 27 29  1  0
 12  3  1  0
 23 18  1  0
  1 30  1  0
  1 31  1  0
  1 32  1  0
  4 33  1  0
  5 34  1  0
  8 35  1  0
 11 36  1  0
 13 37  1  0
 16 38  1  0
 16 39  1  0
 19 40  1  0
 20 41  1  0
 21 42  1  0
 22 43  1  0
 23 44  1  0
 28 45  1  0
 28 46  1  0
 28 47  1  0
 29 48  1  0
 29 49  1  0
 29 50  1  0
M  CHG  1   8  -1
M  END
>  <UniqueID>  (65) 
59

>  <SMILES>  (65) 
COc1ccc(S([NH-])(=O)=O)cc1NC(=O)CN(c1ccccc1)S(=O)(=O)N(C)C

>  <Energy>  (65) 
51.242425863470096

>  <Genealogy>  (65) 
COc1ccc(S([NH-])(=O)=O)cc1NC(=O)CN(c1ccccc1)S(=O)(=O)N(C)C (protonated)
COc1ccc(S([NH-])(=O)=O)cc1NC(=O)CN(c1ccccc1)S(=O)(=O)N(C)C (3D coordinates assigned)
COc1ccc(S([NH-])(=O)=O)cc1NC(=O)CN(c1ccccc1)S(=O)(=O)N(C)C (optimized conformer: 51.242425863470096 kcal/mol)

>  <smiles>  (65) 
COc1ccc(S(N)(=O)=O)cc1NC(=O)CN(c1ccccc1)S(=O)(=O)N(C)C

>  <score_type>  (65) 
oracle

>  <origin>  (65) 
adg

>  <m_score__min__energy>  (65) 
-10.449999999999999

>  <m_primary>  (65) 
energy

$$$$
66:0
     RDKit          3D

 44 46  0  0  0  0  0  0  0  0999 V2000
   54.3800   25.9040   45.9910 N   0  0  0  0  0  0  0  0  0  0  0  0
   54.3080   24.2250   45.5880 S   0  0  0  0  0  0  0  0  0  0  0  0
   53.4490   23.4980   46.5840 O   0  0  0  0  0  0  0  0  0  0  0  0
   53.6980   24.0760   44.2220 O   0  0  0  0  0  0  0  0  0  0  0  0
   55.9410   23.5500   45.6110 C   0  0  0  0  0  0  0  0  0  0  0  0
   56.1470   22.2480   46.0930 C   0  0  0  0  0  0  0  0  0  0  0  0
   57.4270   21.6900   46.0950 C   0  0  0  0  0  0  0  0  0  0  0  0
   58.5110   22.4260   45.6130 C   0  0  0  0  0  0  0  0  0  0  0  0
   58.3180   23.7220   45.1300 C   0  0  0  0  0  0  0  0  0  0  0  0
   57.0340   24.2980   45.1260 C   0  0  0  0  0  0  0  0  0  0  0  0
   56.8140   25.6320   44.6420 N   0  0  0  0  0  0  0  0  0  0  0  0
   57.1730   27.0890   45.5130 S   0  0  0  0  0  0  0  0  0  0  0  0
   55.9410   27.9420   45.6090 O   0  0  0  0  0  0  0  0  0  0  0  0
   57.6620   26.7410   46.8910 O   0  0  0  0  0  0  0  0  0  0  0  0
   58.4460   28.0060   44.6600 C   0  0  0  0  0  0  0  0  0  0  0  0
   58.3370   29.4770   44.9740 C   0  0  0  0  0  0  0  0  0  0  0  0
   59.1890   30.0310   45.9450 C   0  0  0  0  0  0  0  0  0  0  0  0
   59.1460   31.3970   46.2300 C   0  0  0  0  0  0  0  0  0  0  0  0
   58.2530   32.2280   45.5490 C   0  0  0  0  0  0  0  0  0  0  0  0
   58.2010   33.9820   45.9140 S   0  0  0  0  0  0  0  0  0  0  0  0
   59.6730   33.9060   46.9350 C   0  0  0  0  0  0  0  0  0  0  0  0
   59.5590   33.8740   48.3310 C   0  0  0  0  0  0  0  0  0  0  0  0
   60.7080   33.8200   49.1270 C   0  0  0  0  0  0  0  0  0  0  0  0
   61.9720   33.7950   48.5300 C   0  0  0  0  0  0  0  0  0  0  0  0
   62.0880   33.8230   47.1350 C   0  0  0  0  0  0  0  0  0  0  0  0
   60.9400   33.8770   46.3380 C   0  0  0  0  0  0  0  0  0  0  0  0
   57.4080   31.6910   44.5720 C   0  0  0  0  0  0  0  0  0  0  0  0
   57.4460   30.3240   44.2760 C   0  0  0  0  0  0  0  0  0  0  0  0
   56.3730   29.7200   43.0190 Cl  0  0  0  0  0  0  0  0  0  0  0  0
   54.8410   26.3900   45.1890 H   0  0  0  0  0  0  0  0  0  0  0  0
   55.2952   21.6638   46.4714 H   0  0  0  0  0  0  0  0  0  0  0  0
   57.5813   20.6699   46.4766 H   0  0  0  0  0  0  0  0  0  0  0  0
   59.5185   21.9845   45.6137 H   0  0  0  0  0  0  0  0  0  0  0  0
   59.1756   24.2966   44.7500 H   0  0  0  0  0  0  0  0  0  0  0  0
   59.4325   27.6395   44.9802 H   0  0  0  0  0  0  0  0  0  0  0  0
   58.3221   27.8632   43.5764 H   0  0  0  0  0  0  0  0  0  0  0  0
   59.8953   29.3830   46.4847 H   0  0  0  0  0  0  0  0  0  0  0  0
   59.8167   31.8199   46.9924 H   0  0  0  0  0  0  0  0  0  0  0  0
   58.5649   33.8914   48.8016 H   0  0  0  0  0  0  0  0  0  0  0  0
   60.6170   33.7972   50.2230 H   0  0  0  0  0  0  0  0  0  0  0  0
   62.8753   33.7533   49.1563 H   0  0  0  0  0  0  0  0  0  0  0  0
   63.0826   33.8025   46.6656 H   0  0  0  0  0  0  0  0  0  0  0  0
   61.0320   33.8967   45.2420 H   0  0  0  0  0  0  0  0  0  0  0  0
   56.7092   32.3476   44.0330 H   0  0  0  0  0  0  0  0  0  0  0  0
  1  2  1  0
  2  3  2  0
  2  4  2  0
  2  5  1  0
  5  6  2  0
  6  7  1  0
  7  8  2  0
  8  9  1  0
  9 10  2  0
 10 11  1  0
 11 12  1  0
 12 13  2  0
 12 14  2  0
 12 15  1  0
 15 16  1  0
 16 17  2  0
 17 18  1  0
 18 19  2  0
 19 20  1  0
 20 21  1  0
 21 22  2  0
 22 23  1  0
 23 24  2  0
 24 25  1  0
 25 26  2  0
 19 27  1  0
 27 28  2  0
 28 29  1  0
 10  5  1  0
 28 16  1  0
 26 21  1  0
  1 30  1  0
  6 31  1  0
  7 32  1  0
  8 33  1  0
  9 34  1  0
 15 35  1  0
 15 36  1  0
 17 37  1  0
 18 38  1  0
 22 39  1  0
 23 40  1  0
 24 41  1  0
 25 42  1  0
 26 43  1  0
 27 44  1  0
M  CHG  2   1  -1  11  -1
M  END
>  <UniqueID>  (66) 
60

>  <SMILES>  (66) 
[NH-]S(=O)(=O)c1ccccc1[N-]S(=O)(=O)Cc1ccc(Sc2ccccc2)cc1Cl

>  <Energy>  (66) 
40.47266433276142

>  <Genealogy>  (66) 
[NH-]S(=O)(=O)c1ccccc1[N-]S(=O)(=O)Cc1ccc(Sc2ccccc2)cc1Cl (protonated)
[NH-]S(=O)(=O)c1ccccc1[N-]S(=O)(=O)Cc1ccc(Sc2ccccc2)cc1Cl (3D coordinates assigned)
[NH-]S(=O)(=O)c1ccccc1[N-]S(=O)(=O)Cc1ccc(Sc2ccccc2)cc1Cl (optimized conformer: 40.47266433276142 kcal/mol)

>  <smiles>  (66) 
NS(=O)(=O)c1ccccc1NS(=O)(=O)Cc1ccc(Sc2ccccc2)cc1Cl

>  <score_type>  (66) 
oracle

>  <origin>  (66) 
adg

>  <m_score__min__energy>  (66) 
-15.43

>  <m_primary>  (66) 
energy

$$$$
67:0
     RDKit          3D

 53 56  0  0  0  0  0  0  0  0999 V2000
   64.3680   30.6940   51.4220 C   0  0  0  0  0  0  0  0  0  0  0  0
   63.8690   31.4750   50.2440 C   0  0  0  0  0  0  0  0  0  0  0  0
   64.6340   32.5280   49.7230 C   0  0  0  0  0  0  0  0  0  0  0  0
   64.1580   33.2810   48.6460 C   0  0  0  0  0  0  0  0  0  0  0  0
   62.8970   33.0120   48.0890 C   0  0  0  0  0  0  0  0  0  0  0  0
   62.3680   33.8270   46.9690 C   0  0  0  0  0  0  0  0  0  0  0  0
   63.1320   34.1370   46.0170 O   0  0  0  0  0  0  0  0  0  0  0  0
   61.0170   34.3080   46.9510 N   0  0  0  0  0  0  0  0  0  0  0  0
   59.8970   33.6400   46.3510 C   0  0  0  0  0  0  0  0  0  0  0  0
   59.4090   34.1030   45.1230 C   0  0  0  0  0  0  0  0  0  0  0  0
   58.3080   33.4850   44.5210 C   0  0  0  0  0  0  0  0  0  0  0  0
   57.6780   32.4010   45.1460 C   0  0  0  0  0  0  0  0  0  0  0  0
   56.5570   31.7810   44.5020 N   0  0  0  0  0  0  0  0  0  0  0  0
   56.6160   30.8400   43.4230 C   0  0  0  0  0  0  0  0  0  0  0  0
   56.9520   31.2490   42.2800 O   0  0  0  0  0  0  0  0  0  0  0  0
   56.2510   29.3920   43.6110 C   0  0  0  0  0  0  0  0  0  0  0  0
   57.1290   28.7690   44.6020 N   0  0  0  0  0  0  0  0  0  0  0  0
   56.7950   27.8220   45.5050 C   0  0  0  0  0  0  0  0  0  0  0  0
   55.5240   27.2680   45.6270 O   0  0  0  0  0  0  0  0  0  0  0  0
   57.8850   27.4910   46.2830 C   0  0  0  0  0  0  0  0  0  0  0  0
   58.9190   28.3030   45.8710 C   0  0  0  0  0  0  0  0  0  0  0  0
   58.4300   29.0610   44.8210 C   0  0  0  0  0  0  0  0  0  0  0  0
   59.1530   29.9940   44.0810 O   0  0  0  0  0  0  0  0  0  0  0  0
   60.3100   28.2350   46.4310 C   0  0  0  0  0  0  0  0  0  0  0  0
   60.3040   27.5190   47.7980 C   0  0  0  0  0  0  0  0  0  0  0  0
   59.4450   26.2360   47.7690 C   0  0  0  0  0  0  0  0  0  0  0  0
   57.9710   26.5460   47.4420 C   0  0  0  0  0  0  0  0  0  0  0  0
   58.2030   31.9000   46.3490 C   0  0  0  0  0  0  0  0  0  0  0  0
   59.3040   32.5160   46.9480 C   0  0  0  0  0  0  0  0  0  0  0  0
   62.1350   31.9540   48.6110 C   0  0  0  0  0  0  0  0  0  0  0  0
   62.6130   31.1990   49.6870 C   0  0  0  0  0  0  0  0  0  0  0  0
   64.0512   31.1898   52.3514 H   0  0  0  0  0  0  0  0  0  0  0  0
   63.9526   29.6760   51.3895 H   0  0  0  0  0  0  0  0  0  0  0  0
   65.4663   30.6431   51.3895 H   0  0  0  0  0  0  0  0  0  0  0  0
   65.6139   32.7628   50.1641 H   0  0  0  0  0  0  0  0  0  0  0  0
   64.7760   34.0909   48.2312 H   0  0  0  0  0  0  0  0  0  0  0  0
   59.8942   34.9576   44.6289 H   0  0  0  0  0  0  0  0  0  0  0  0
   57.9354   33.8516   43.5531 H   0  0  0  0  0  0  0  0  0  0  0  0
   55.2087   29.3228   43.9558 H   0  0  0  0  0  0  0  0  0  0  0  0
   56.3674   28.8672   42.6513 H   0  0  0  0  0  0  0  0  0  0  0  0
   58.7660   30.4170   43.2450 H   0  0  0  0  0  0  0  0  0  0  0  0
   60.9549   27.6800   45.7338 H   0  0  0  0  0  0  0  0  0  0  0  0
   60.6915   29.2580   46.5652 H   0  0  0  0  0  0  0  0  0  0  0  0
   61.3370   27.2501   48.0637 H   0  0  0  0  0  0  0  0  0  0  0  0
   59.8705   28.2043   48.5413 H   0  0  0  0  0  0  0  0  0  0  0  0
   59.8451   25.5560   47.0025 H   0  0  0  0  0  0  0  0  0  0  0  0
   59.4857   25.7727   48.7658 H   0  0  0  0  0  0  0  0  0  0  0  0
   57.4510   25.6107   47.1874 H   0  0  0  0  0  0  0  0  0  0  0  0
   57.4992   27.0115   48.3199 H   0  0  0  0  0  0  0  0  0  0  0  0
   57.7448   31.0185   46.8213 H   0  0  0  0  0  0  0  0  0  0  0  0
   59.7081   32.1191   47.8910 H   0  0  0  0  0  0  0  0  0  0  0  0
   61.1552   31.7174   48.1705 H   0  0  0  0  0  0  0  0  0  0  0  0
   61.9995   30.3839   50.0984 H   0  0  0  0  0  0  0  0  0  0  0  0
  1  2  1  0
  2  3  2  0
  3  4  1  0
  4  5  2  0
  5  6  1  0
  6  7  2  0
  6  8  1  0
  8  9  1  0
  9 10  2  0
 10 11  1  0
 11 12  2  0
 12 13  1  0
 13 14  1  0
 14 15  2  0
 14 16  1  0
 16 17  1  0
 17 18  1  0
 18 19  1  0
 18 20  2  0
 20 21  1  0
 21 22  2  0
 22 23  1  0
 21 24  1  0
 24 25  1  0
 25 26  1  0
 26 27  1  0
 12 28  1  0
 28 29  2  0
  5 30  1  0
 30 31  2  0
 31  2  1  0
 29  9  1  0
 22 17  1  0
 27 20  1  0
  1 32  1  0
  1 33  1  0
  1 34  1  0
  3 35  1  0
  4 36  1  0
 10 37  1  0
 11 38  1  0
 16 39  1  0
 16 40  1  0
 23 41  1  0
 24 42  1  0
 24 43  1  0
 25 44  1  0
 25 45  1  0
 26 46  1  0
 26 47  1  0
 27 48  1  0
 27 49  1  0
 28 50  1  0
 29 51  1  0
 30 52  1  0
 31 53  1  0
M  CHG  3   8  -1  13  -1  19  -1
M  END
>  <UniqueID>  (67) 
61

>  <SMILES>  (67) 
Cc1ccc(C(=O)[N-]c2ccc([N-]C(=O)Cn3c([O-])c4c(c3O)CCCC4)cc2)cc1

>  <Energy>  (67) 
93.85694799895168

>  <Genealogy>  (67) 
Cc1ccc(C(=O)[N-]c2ccc([N-]C(=O)Cn3c([O-])c4c(c3O)CCCC4)cc2)cc1 (protonated)
Cc1ccc(C(=O)[N-]c2ccc([N-]C(=O)Cn3c([O-])c4c(c3O)CCCC4)cc2)cc1 (3D coordinates assigned)
Cc1ccc(C(=O)[N-]c2ccc([N-]C(=O)Cn3c([O-])c4c(c3O)CCCC4)cc2)cc1 (nonaromatic ring conformer: 93.85694799895168 kcal/mol)

>  <smiles>  (67) 
Cc1ccc(C(=O)Nc2ccc(NC(=O)Cn3c(O)c4c(c3O)CCCC4)cc2)cc1

>  <score_type>  (67) 
oracle

>  <origin>  (67) 
adg

>  <m_score__min__energy>  (67) 
-14.789999999999999

>  <m_primary>  (67) 
energy

$$$$
68:0
     RDKit          3D

 49 51  0  0  0  0  0  0  0  0999 V2000
   51.7600   23.5740   45.2080 C   0  0  0  0  0  0  0  0  0  0  0  0
   52.5920   22.4640   45.5290 O   0  0  0  0  0  0  0  0  0  0  0  0
   53.2970   22.3190   46.7340 C   0  0  0  0  0  0  0  0  0  0  0  0
   52.9740   21.3190   47.6730 C   0  0  0  0  0  0  0  0  0  0  0  0
   53.7050   21.1990   48.8570 C   0  0  0  0  0  0  0  0  0  0  0  0
   54.7700   22.0640   49.1120 C   0  0  0  0  0  0  0  0  0  0  0  0
   55.1000   23.0590   48.1890 C   0  0  0  0  0  0  0  0  0  0  0  0
   54.3520   23.2090   47.0060 C   0  0  0  0  0  0  0  0  0  0  0  0
   54.6920   24.2010   46.0210 N   0  0  0  0  0  0  0  0  0  0  0  0
   55.6120   25.1160   46.1190 C   0  0  0  0  0  0  0  0  0  0  0  0
   55.3620   26.3600   45.6350 N   0  0  0  0  0  0  0  0  0  0  0  0
   56.2780   27.3630   45.7330 C   0  0  0  0  0  0  0  0  0  0  0  0
   55.9940   28.6760   45.2220 N   0  0  0  0  0  0  0  0  0  0  0  0
   56.8970   29.4410   44.4060 C   0  0  0  0  0  0  0  0  0  0  0  0
   58.0640   29.0260   44.1740 O   0  0  0  0  0  0  0  0  0  0  0  0
   56.4780   30.7700   43.8590 C   0  0  0  0  0  0  0  0  0  0  0  0
   57.8600   31.9560   43.9990 S   0  0  0  0  0  0  0  0  0  0  0  0
   57.1460   32.9840   45.3370 C   0  0  0  0  0  0  0  0  0  0  0  0
   58.1870   33.3290   46.3840 C   0  0  0  0  0  0  0  0  0  0  0  0
   58.1350   32.6610   47.6230 C   0  0  0  0  0  0  0  0  0  0  0  0
   59.0690   32.9330   48.6220 C   0  0  0  0  0  0  0  0  0  0  0  0
   60.0620   33.8870   48.4090 C   0  0  0  0  0  0  0  0  0  0  0  0
   60.1150   34.5830   47.2000 C   0  0  0  0  0  0  0  0  0  0  0  0
   59.1780   34.3270   46.1820 C   0  0  0  0  0  0  0  0  0  0  0  0
   59.2590   35.1280   44.9090 C   0  0  0  0  0  0  0  0  0  0  0  0
   57.5030   27.1090   46.3600 C   0  0  0  0  0  0  0  0  0  0  0  0
   57.7450   25.8290   46.8620 C   0  0  0  0  0  0  0  0  0  0  0  0
   58.8360   25.5690   47.4330 O   0  0  0  0  0  0  0  0  0  0  0  0
   56.7990   24.8630   46.7380 N   0  0  0  0  0  0  0  0  0  0  0  0
   51.4055   24.0469   46.1357 H   0  0  0  0  0  0  0  0  0  0  0  0
   52.3345   24.3050   44.6201 H   0  0  0  0  0  0  0  0  0  0  0  0
   50.8972   23.2276   44.6201 H   0  0  0  0  0  0  0  0  0  0  0  0
   52.1412   20.6289   47.4722 H   0  0  0  0  0  0  0  0  0  0  0  0
   53.4410   20.4218   49.5893 H   0  0  0  0  0  0  0  0  0  0  0  0
   55.3502   21.9621   50.0410 H   0  0  0  0  0  0  0  0  0  0  0  0
   55.9493   23.7293   48.3877 H   0  0  0  0  0  0  0  0  0  0  0  0
   55.0700   29.1010   45.4560 H   0  0  0  0  0  0  0  0  0  0  0  0
   56.1977   30.6582   42.8012 H   0  0  0  0  0  0  0  0  0  0  0  0
   55.6167   31.1447   44.4315 H   0  0  0  0  0  0  0  0  0  0  0  0
   56.7532   33.9150   44.9023 H   0  0  0  0  0  0  0  0  0  0  0  0
   56.3425   32.4110   45.8229 H   0  0  0  0  0  0  0  0  0  0  0  0
   57.3473   31.9150   47.8049 H   0  0  0  0  0  0  0  0  0  0  0  0
   59.0218   32.3937   49.5796 H   0  0  0  0  0  0  0  0  0  0  0  0
   60.8047   34.0919   49.1941 H   0  0  0  0  0  0  0  0  0  0  0  0
   60.8976   35.3396   47.0415 H   0  0  0  0  0  0  0  0  0  0  0  0
   59.3669   36.1951   45.1534 H   0  0  0  0  0  0  0  0  0  0  0  0
   60.1282   34.7966   44.3219 H   0  0  0  0  0  0  0  0  0  0  0  0
   58.3410   34.9773   44.3219 H   0  0  0  0  0  0  0  0  0  0  0  0
   58.2597   27.9016   46.4554 H   0  0  0  0  0  0  0  0  0  0  0  0
  1  2  1  0
  2  3  1  0
  3  4  2  0
  4  5  1  0
  5  6  2  0
  6  7  1  0
  7  8  2  0
  8  9  1  0
  9 10  2  3
 10 11  1  0
 11 12  1  0
 12 13  1  0
 13 14  1  0
 14 15  2  0
 14 16  1  0
 16 17  1  0
 17 18  1  0
 18 19  1  0
 19 20  2  0
 20 21  1  0
 21 22  2  0
 22 23  1  0
 23 24  2  0
 24 25  1  0
 12 26  2  0
 26 27  1  0
 27 28  2  0
 27 29  1  0
  8  3  1  0
 29 10  1  0
 24 19  1  0
  1 30  1  0
  1 31  1  0
  1 32  1  0
  4 33  1  0
  5 34  1  0
  6 35  1  0
  7 36  1  0
 13 37  1  0
 16 38  1  0
 16 39  1  0
 18 40  1  0
 18 41  1  0
 20 42  1  0
 21 43  1  0
 22 44  1  0
 23 45  1  0
 25 46  1  0
 25 47  1  0
 25 48  1  0
 26 49  1  0
M  CHG  2  11  -1  29  -1
M  END
>  <UniqueID>  (68) 
62

>  <SMILES>  (68) 
COc1ccccc1N=c1[n-]c(NC(=O)CSCc2ccccc2C)cc(=O)[n-]1

>  <Energy>  (68) 
56.81072730731726

>  <Genealogy>  (68) 
COc1ccccc1N=c1[n-]c(NC(=O)CSCc2ccccc2C)cc(=O)[n-]1 (protonated)
COc1ccccc1N=c1[n-]c(NC(=O)CSCc2ccccc2C)cc(=O)[n-]1 (3D coordinates assigned)
COc1ccccc1N=c1[n-]c(NC(=O)CSCc2ccccc2C)cc(=O)[n-]1 (optimized conformer: 56.81072730731726 kcal/mol)

>  <smiles>  (68) 
COc1ccccc1N=c1[nH]c(NC(=O)CSCc2ccccc2C)cc(=O)[nH]1

>  <score_type>  (68) 
oracle

>  <origin>  (68) 
adg

>  <m_score__min__energy>  (68) 
-11.84

>  <m_primary>  (68) 
energy

$$$$
69:0
     RDKit          3D

 34 35  0  0  0  0  0  0  0  0999 V2000
   55.1400   29.3510   44.7750 N   0  0  0  0  0  0  0  0  0  0  0  0
   56.7580   29.8920   44.5030 S   0  0  0  0  0  0  0  0  0  0  0  0
   57.0140   29.9960   43.0260 O   0  0  0  0  0  0  0  0  0  0  0  0
   56.9440   31.2490   45.1230 O   0  0  0  0  0  0  0  0  0  0  0  0
   57.8860   28.7450   45.2200 C   0  0  0  0  0  0  0  0  0  0  0  0
   59.2670   28.9350   45.0930 C   0  0  0  0  0  0  0  0  0  0  0  0
   60.1560   28.0090   45.6470 C   0  0  0  0  0  0  0  0  0  0  0  0
   59.6680   26.8940   46.3360 C   0  0  0  0  0  0  0  0  0  0  0  0
   58.2890   26.7080   46.4970 C   0  0  0  0  0  0  0  0  0  0  0  0
   57.8290   25.5330   47.1810 N   0  0  0  0  0  0  0  0  0  0  0  0
   56.5420   24.9200   47.0400 C   0  0  0  0  0  0  0  0  0  0  0  0
   55.5580   25.5780   46.6080 O   0  0  0  0  0  0  0  0  0  0  0  0
   56.3530   23.4950   47.4520 C   0  0  0  0  0  0  0  0  0  0  0  0
   54.8500   22.7790   46.6970 S   0  0  0  0  0  0  0  0  0  0  0  0
   55.6780   22.1870   45.2140 C   0  0  0  0  0  0  0  0  0  0  0  0
   55.9680   20.8620   45.1180 N   0  0  0  0  0  0  0  0  0  0  0  0
   56.5690   20.3330   44.0200 C   0  0  0  0  0  0  0  0  0  0  0  0
   56.9090   21.1540   42.9450 C   0  0  0  0  0  0  0  0  0  0  0  0
   56.6360   22.5200   43.0180 C   0  0  0  0  0  0  0  0  0  0  0  0
   56.0240   23.0570   44.1580 C   0  0  0  0  0  0  0  0  0  0  0  0
   55.7840   24.4680   44.2310 N   0  0  0  0  0  0  0  0  0  0  0  0
   57.3990   27.6350   45.9250 C   0  0  0  0  0  0  0  0  0  0  0  0
   55.1600   28.7460   45.6260 H   0  0  0  0  0  0  0  0  0  0  0  0
   59.6534   29.8142   44.5565 H   0  0  0  0  0  0  0  0  0  0  0  0
   61.2407   28.1576   45.5408 H   0  0  0  0  0  0  0  0  0  0  0  0
   60.3713   26.1587   46.7540 H   0  0  0  0  0  0  0  0  0  0  0  0
   57.2281   22.9104   47.1319 H   0  0  0  0  0  0  0  0  0  0  0  0
   56.2416   23.4617   48.5458 H   0  0  0  0  0  0  0  0  0  0  0  0
   56.7877   19.2557   43.9790 H   0  0  0  0  0  0  0  0  0  0  0  0
   57.3869   20.7292   42.0499 H   0  0  0  0  0  0  0  0  0  0  0  0
   56.9022   23.1778   42.1775 H   0  0  0  0  0  0  0  0  0  0  0  0
   55.2220   24.8700   45.0150 H   0  0  0  0  0  0  0  0  0  0  0  0
   56.1520   25.1310   43.5150 H   0  0  0  0  0  0  0  0  0  0  0  0
   56.3140   27.4882   46.0314 H   0  0  0  0  0  0  0  0  0  0  0  0
  1  2  1  0
  2  3  2  0
  2  4  2  0
  2  5  1  0
  5  6  2  0
  6  7  1  0
  7  8  2  0
  8  9  1  0
  9 10  1  0
 10 11  1  0
 11 12  2  0
 11 13  1  0
 13 14  1  0
 14 15  1  0
 15 16  2  0
 16 17  1  0
 17 18  2  0
 18 19  1  0
 19 20  2  0
 20 21  1  0
  9 22  2  0
 22  5  1  0
 20 15  1  0
  1 23  1  0
  6 24  1  0
  7 25  1  0
  8 26  1  0
 13 27  1  0
 13 28  1  0
 17 29  1  0
 18 30  1  0
 19 31  1  0
 21 32  1  0
 21 33  1  0
 22 34  1  0
M  CHG  2   1  -1  10  -1
M  END
>  <UniqueID>  (69) 
63

>  <SMILES>  (69) 
[NH-]S(=O)(=O)c1cccc([N-]C(=O)CSc2ncccc2N)c1

>  <Energy>  (69) 
32.1748887370006

>  <Genealogy>  (69) 
[NH-]S(=O)(=O)c1cccc([N-]C(=O)CSc2ncccc2N)c1 (protonated)
[NH-]S(=O)(=O)c1cccc([N-]C(=O)CSc2ncccc2N)c1 (3D coordinates assigned)
[NH-]S(=O)(=O)c1cccc([N-]C(=O)CSc2ncccc2N)c1 (optimized conformer: 32.1748887370006 kcal/mol)

>  <smiles>  (69) 
Nc1cccnc1SCC(=O)Nc1cccc(S(N)(=O)=O)c1

>  <score_type>  (69) 
oracle

>  <origin>  (69) 
adg

>  <m_score__min__energy>  (69) 
-11.92

>  <m_primary>  (69) 
energy

$$$$
70:0
     RDKit          3D

 63 65  0  0  0  0  0  0  0  0999 V2000
   56.7220   21.7960   42.9660 C   0  0  0  0  0  0  0  0  0  0  0  0
   56.5640   23.3000   43.1930 C   0  0  0  0  0  0  0  0  0  0  0  0
   55.1960   23.6700   43.7950 C   0  0  0  0  0  0  0  0  0  0  0  0
   54.9220   23.0260   45.1680 C   0  0  0  0  0  0  0  0  0  0  0  0
   55.3540   23.8820   46.3330 C   0  0  0  0  0  0  0  0  0  0  0  0
   54.8080   23.7170   47.4580 O   0  0  0  0  0  0  0  0  0  0  0  0
   56.5190   24.7890   46.2190 C   0  0  0  0  0  0  0  0  0  0  0  0
   57.8250   24.2700   46.3170 C   0  0  0  0  0  0  0  0  0  0  0  0
   58.0330   22.9120   46.5460 O   0  0  0  0  0  0  0  0  0  0  0  0
   58.9290   25.1100   46.1660 C   0  0  0  0  0  0  0  0  0  0  0  0
   58.7550   26.4700   45.9060 C   0  0  0  0  0  0  0  0  0  0  0  0
   59.8800   27.2740   45.7410 O   0  0  0  0  0  0  0  0  0  0  0  0
   57.4590   27.0180   45.8160 C   0  0  0  0  0  0  0  0  0  0  0  0
   57.2750   28.4850   45.4790 C   0  0  0  0  0  0  0  0  0  0  0  0
   58.3550   29.3250   46.1310 C   0  0  0  0  0  0  0  0  0  0  0  0
   59.0580   30.3040   45.3950 C   0  0  0  0  0  0  0  0  0  0  0  0
   58.7730   30.4870   44.0350 O   0  0  0  0  0  0  0  0  0  0  0  0
   57.2390   30.9650   43.4480 S   0  0  0  0  0  0  0  0  0  0  0  0
   57.3910   32.2340   42.6620 O   0  0  0  0  0  0  0  0  0  0  0  0
   56.6440   29.9010   42.5660 O   0  0  0  0  0  0  0  0  0  0  0  0
   56.2170   31.2550   44.7540 O   0  0  0  0  0  0  0  0  0  0  0  0
   60.0240   31.0930   46.0410 C   0  0  0  0  0  0  0  0  0  0  0  0
   60.2650   30.9430   47.4070 C   0  0  0  0  0  0  0  0  0  0  0  0
   59.5740   29.9790   48.1440 C   0  0  0  0  0  0  0  0  0  0  0  0
   59.8140   29.8530   49.6020 C   0  0  0  0  0  0  0  0  0  0  0  0
   60.8230   29.1620   50.0560 N   0  0  0  0  0  0  0  0  0  0  0  0
   60.7450   27.8270   50.6520 C   0  0  0  0  0  0  0  0  0  0  0  0
   60.7380   26.7630   49.5590 C   0  0  0  0  0  0  0  0  0  0  0  0
   61.0290   27.3320   48.3120 O   0  0  0  0  0  0  0  0  0  0  0  0
   58.8830   30.4970   50.5710 C   0  0  0  0  0  0  0  0  0  0  0  0
   58.7170   31.8980   50.5950 C   0  0  0  0  0  0  0  0  0  0  0  0
   57.8330   32.4950   51.5010 C   0  0  0  0  0  0  0  0  0  0  0  0
   57.1130   31.7060   52.4010 C   0  0  0  0  0  0  0  0  0  0  0  0
   57.2660   30.3190   52.3890 C   0  0  0  0  0  0  0  0  0  0  0  0
   58.1440   29.7170   51.4830 C   0  0  0  0  0  0  0  0  0  0  0  0
   58.6650   29.1290   47.4940 C   0  0  0  0  0  0  0  0  0  0  0  0
   58.0800   28.0820   48.2020 O   0  0  0  0  0  0  0  0  0  0  0  0
   56.3420   26.1730   46.0010 C   0  0  0  0  0  0  0  0  0  0  0  0
   55.0600   26.7120   45.9960 O   0  0  0  0  0  0  0  0  0  0  0  0
   56.7760   21.2823   43.9372 H   0  0  0  0  0  0  0  0  0  0  0  0
   55.8586   21.4181   42.3988 H   0  0  0  0  0  0  0  0  0  0  0  0
   57.6451   21.6058   42.3988 H   0  0  0  0  0  0  0  0  0  0  0  0
   57.3537   23.6369   43.8806 H   0  0  0  0  0  0  0  0  0  0  0  0
   56.6399   23.7936   42.2129 H   0  0  0  0  0  0  0  0  0  0  0  0
   55.1529   24.7631   43.9106 H   0  0  0  0  0  0  0  0  0  0  0  0
   54.4299   23.2872   43.1047 H   0  0  0  0  0  0  0  0  0  0  0  0
   53.8415   22.8393   45.2553 H   0  0  0  0  0  0  0  0  0  0  0  0
   55.5114   22.0983   45.2129 H   0  0  0  0  0  0  0  0  0  0  0  0
   59.9447   24.6968   46.2526 H   0  0  0  0  0  0  0  0  0  0  0  0
   57.3270   28.6139   44.3878 H   0  0  0  0  0  0  0  0  0  0  0  0
   56.2956   28.8140   45.8564 H   0  0  0  0  0  0  0  0  0  0  0  0
   60.5955   31.8356   45.4649 H   0  0  0  0  0  0  0  0  0  0  0  0
   61.0034   31.5877   47.9062 H   0  0  0  0  0  0  0  0  0  0  0  0
   61.6148   27.6698   51.3068 H   0  0  0  0  0  0  0  0  0  0  0  0
   59.8165   27.7480   51.2364 H   0  0  0  0  0  0  0  0  0  0  0  0
   61.4948   25.9998   49.7931 H   0  0  0  0  0  0  0  0  0  0  0  0
   59.7376   26.3076   49.5152 H   0  0  0  0  0  0  0  0  0  0  0  0
   60.1610   27.5120   47.8700 H   0  0  0  0  0  0  0  0  0  0  0  0
   59.2875   32.5266   49.8954 H   0  0  0  0  0  0  0  0  0  0  0  0
   57.7050   33.5875   51.5043 H   0  0  0  0  0  0  0  0  0  0  0  0
   56.4258   32.1777   53.1188 H   0  0  0  0  0  0  0  0  0  0  0  0
   56.6943   29.6978   53.0942 H   0  0  0  0  0  0  0  0  0  0  0  0
   58.2593   28.6231   51.4819 H   0  0  0  0  0  0  0  0  0  0  0  0
  1  2  1  0
  2  3  1  0
  3  4  1  0
  4  5  1  0
  5  6  2  0
  5  7  1  0
  7  8  2  0
  8  9  1  0
  8 10  1  0
 10 11  2  0
 11 12  1  0
 11 13  1  0
 13 14  1  0
 14 15  1  0
 15 16  2  0
 16 17  1  0
 17 18  1  0
 18 19  2  0
 18 20  2  0
 18 21  1  0
 16 22  1  0
 22 23  2  0
 23 24  1  0
 24 25  1  0
 25 26  2  3
 26 27  1  0
 27 28  1  0
 28 29  1  0
 25 30  1  0
 30 31  2  0
 31 32  1  0
 32 33  2  0
 33 34  1  0
 34 35  2  0
 24 36  2  0
 36 37  1  0
 13 38  2  0
 38 39  1  0
 38  7  1  0
 36 15  1  0
 35 30  1  0
  1 40  1  0
  1 41  1  0
  1 42  1  0
  2 43  1  0
  2 44  1  0
  3 45  1  0
  3 46  1  0
  4 47  1  0
  4 48  1  0
 10 49  1  0
 14 50  1  0
 14 51  1  0
 22 52  1  0
 23 53  1  0
 27 54  1  0
 27 55  1  0
 28 56  1  0
 28 57  1  0
 29 58  1  0
 31 59  1  0
 32 60  1  0
 33 61  1  0
 34 62  1  0
 35 63  1  0
M  CHG  5   9  -1  12  -1  21  -1  37  -1  39  -1
M  END
>  <UniqueID>  (70) 
64

>  <SMILES>  (70) 
CCCCC(=O)c1c([O-])cc([O-])c(Cc2c(OS(=O)(=O)[O-])ccc(C(=NCCO)c3ccccc3)c2[O-])c1[O-]

>  <Energy>  (70) 
76.74802634655192

>  <Genealogy>  (70) 
CCCCC(=O)c1c([O-])cc([O-])c(Cc2c(OS(=O)(=O)[O-])ccc(C(=NCCO)c3ccccc3)c2[O-])c1[O-] (protonated)
CCCCC(=O)c1c([O-])cc([O-])c(Cc2c(OS(=O)(=O)[O-])ccc(C(=NCCO)c3ccccc3)c2[O-])c1[O-] (3D coordinates assigned)
CCCCC(=O)c1c([O-])cc([O-])c(Cc2c(OS(=O)(=O)[O-])ccc(C(=NCCO)c3ccccc3)c2[O-])c1[O-] (optimized conformer: 76.74802634655192 kcal/mol)

>  <smiles>  (70) 
CCCCC(=O)c1c(O)cc(O)c(Cc2c(OS(=O)(=O)O)ccc(C(=NCCO)c3ccccc3)c2O)c1O

>  <score_type>  (70) 
oracle

>  <origin>  (70) 
adg

>  <m_score__min__energy>  (70) 
-16.75

>  <m_primary>  (70) 
energy

$$$$
71:0
     RDKit          3D

 49 51  0  0  0  0  0  0  0  0999 V2000
   55.5155   29.2850   43.4363 H   0  0  0  0  0  0  0  0  0  0  0  0
   56.4650   29.4280   43.9730 C   0  0  0  0  0  0  0  0  0  0  0  0
   56.5830   30.4200   44.8930 N   0  0  0  0  0  0  0  0  0  0  0  0
   57.7390   30.6460   45.5800 C   0  0  0  0  0  0  0  0  0  0  0  0
   57.8030   31.6070   46.4600 N   0  0  0  0  0  0  0  0  0  0  0  0
   58.3780   32.9110   46.2670 C   0  0  0  0  0  0  0  0  0  0  0  0
   58.4810   33.4530   44.9710 C   0  0  0  0  0  0  0  0  0  0  0  0
   58.0698   32.8982   44.1148 H   0  0  0  0  0  0  0  0  0  0  0  0
   59.0990   34.6860   44.7620 C   0  0  0  0  0  0  0  0  0  0  0  0
   59.1576   35.1066   43.7473 H   0  0  0  0  0  0  0  0  0  0  0  0
   59.6420   35.3850   45.8380 C   0  0  0  0  0  0  0  0  0  0  0  0
   60.1244   36.3596   45.6724 H   0  0  0  0  0  0  0  0  0  0  0  0
   59.5750   34.8510   47.1250 C   0  0  0  0  0  0  0  0  0  0  0  0
   60.0162   35.4057   47.9662 H   0  0  0  0  0  0  0  0  0  0  0  0
   58.9500   33.6110   47.3620 C   0  0  0  0  0  0  0  0  0  0  0  0
   58.8890   33.0860   48.7530 C   0  0  0  0  0  0  0  0  0  0  0  0
   58.1630   32.0940   49.0340 O   0  0  0  0  0  0  0  0  0  0  0  0
   59.6450   33.7200   49.7920 N   0  0  0  0  0  0  0  0  0  0  0  0
   59.4150   33.4610   51.2050 C   0  0  0  0  0  0  0  0  0  0  0  0
   60.0259   34.1489   51.8080 H   0  0  0  0  0  0  0  0  0  0  0  0
   58.3510   33.6155   51.4377 H   0  0  0  0  0  0  0  0  0  0  0  0
   59.6942   32.4228   51.4377 H   0  0  0  0  0  0  0  0  0  0  0  0
   58.8630   29.8150   45.3470 C   0  0  0  0  0  0  0  0  0  0  0  0
   60.1480   29.9930   46.0760 C   0  0  0  0  0  0  0  0  0  0  0  0
   61.1970   29.4430   45.6440 O   0  0  0  0  0  0  0  0  0  0  0  0
   60.1970   30.7650   47.2890 N   0  0  0  0  0  0  0  0  0  0  0  0
   59.3110   30.8780   47.8320 H   0  0  0  0  0  0  0  0  0  0  0  0
   61.4160   31.2720   47.8600 C   0  0  0  0  0  0  0  0  0  0  0  0
   62.2560   32.1210   47.1170 C   0  0  0  0  0  0  0  0  0  0  0  0
   61.9895   32.3843   46.0828 H   0  0  0  0  0  0  0  0  0  0  0  0
   63.4260   32.6320   47.6830 C   0  0  0  0  0  0  0  0  0  0  0  0
   64.0816   33.2878   47.0912 H   0  0  0  0  0  0  0  0  0  0  0  0
   63.7640   32.3120   48.9970 C   0  0  0  0  0  0  0  0  0  0  0  0
   64.6881   32.7127   49.4392 H   0  0  0  0  0  0  0  0  0  0  0  0
   62.9320   31.4840   49.7530 C   0  0  0  0  0  0  0  0  0  0  0  0
   63.2016   31.2389   50.7909 H   0  0  0  0  0  0  0  0  0  0  0  0
   61.7480   30.9600   49.1940 C   0  0  0  0  0  0  0  0  0  0  0  0
   60.8910   30.1220   49.9260 O   0  0  0  0  0  0  0  0  0  0  0  0
   60.9730   28.7000   49.9490 C   0  0  0  0  0  0  0  0  0  0  0  0
   60.7057   28.3333   50.9510 H   0  0  0  0  0  0  0  0  0  0  0  0
   61.9994   28.3876   49.7064 H   0  0  0  0  0  0  0  0  0  0  0  0
   60.0110   28.1210   48.9240 C   0  0  0  0  0  0  0  0  0  0  0  0
   59.1799   27.6208   49.4427 H   0  0  0  0  0  0  0  0  0  0  0  0
   59.6154   28.9312   48.2938 H   0  0  0  0  0  0  0  0  0  0  0  0
   60.5417   27.3921   48.2938 H   0  0  0  0  0  0  0  0  0  0  0  0
   58.7430   28.7860   44.3970 C   0  0  0  0  0  0  0  0  0  0  0  0
   59.6007   28.1278   44.1942 H   0  0  0  0  0  0  0  0  0  0  0  0
   57.5460   28.5930   43.7100 C   0  0  0  0  0  0  0  0  0  0  0  0
   57.4568   27.7874   42.9663 H   0  0  0  0  0  0  0  0  0  0  0  0
  1  2  1  0
  2  3  1  0
  3  4  1  0
  4  5  2  0
  5  6  1  0
  6  7  2  0
  7  8  1  0
  7  9  1  0
  9 10  1  0
  9 11  2  0
 11 12  1  0
 11 13  1  0
 13 14  1  0
 13 15  2  0
 15 16  1  0
 16 17  2  0
 16 18  1  0
 18 19  1  0
 19 20  1  0
 19 21  1  0
 19 22  1  0
  4 23  1  0
 23 24  1  0
 24 25  2  0
 24 26  1  0
 26 27  1  0
 26 28  1  0
 28 29  2  0
 29 30  1  0
 29 31  1  0
 31 32  1  0
 31 33  2  0
 33 34  1  0
 33 35  1  0
 35 36  1  0
 35 37  2  0
 37 38  1  0
 38 39  1  0
 39 40  1  0
 39 41  1  0
 39 42  1  0
 42 43  1  0
 42 44  1  0
 42 45  1  0
 23 46  2  0
 46 47  1  0
 46 48  1  0
 48 49  1  0
 48  2  2  0
 15  6  1  0
 37 28  1  0
M  CHG  2   3  -1  18  -1
M  END
>  <UniqueID>  (71) 
65

>  <SMILES>  (71) 
CCOc1ccccc1NC(=O)c1ccc[n-]/c1=N\c1ccccc1C(=O)[N-]C

>  <Energy>  (71) 
63.809872281238285

>  <Genealogy>  (71) 
CCOc1ccccc1NC(=O)c1ccc[n-]c1=Nc1ccccc1C(=O)[N-]C (protonated)
CCOc1ccccc1NC(=O)c1ccc[n-]/c1=N\c1ccccc1C(=O)[N-]C (cis-trans isomerization)
CCOc1ccccc1NC(=O)c1ccc[n-]/c1=N\c1ccccc1C(=O)[N-]C (3D coordinates assigned)
CCOc1ccccc1NC(=O)c1ccc[n-]/c1=N\c1ccccc1C(=O)[N-]C (optimized conformer: 63.809872281238285 kcal/mol)

>  <smiles>  (71) 
CCOc1ccccc1NC(=O)c1ccc[nH]c1=Nc1ccccc1C(=O)NC

>  <score_type>  (71) 
oracle

>  <origin>  (71) 
adg

>  <m_score__min__energy>  (71) 
-12.109999999999999

>  <m_primary>  (71) 
energy

$$$$
72:0
     RDKit          3D

 27 28  0  0  0  0  0  0  0  0999 V2000
   60.0060   34.9760   47.2010 C   0  0  0  0  0  0  0  0  0  0  0  0
   59.3510   34.7320   45.8740 C   0  0  0  0  0  0  0  0  0  0  0  0
   59.3740   35.6570   45.0160 O   0  0  0  0  0  0  0  0  0  0  0  0
   58.6840   33.4420   45.5510 C   0  0  0  0  0  0  0  0  0  0  0  0
   58.4010   32.4940   46.5520 C   0  0  0  0  0  0  0  0  0  0  0  0
   57.7730   31.2880   46.2310 C   0  0  0  0  0  0  0  0  0  0  0  0
   57.4020   31.0070   44.9130 C   0  0  0  0  0  0  0  0  0  0  0  0
   56.7700   29.7900   44.6390 O   0  0  0  0  0  0  0  0  0  0  0  0
   57.1040   28.5690   45.2430 C   0  0  0  0  0  0  0  0  0  0  0  0
   58.4400   28.3210   45.5640 C   0  0  0  0  0  0  0  0  0  0  0  0
   58.7690   27.1070   46.1660 C   0  0  0  0  0  0  0  0  0  0  0  0
   59.9660   26.8490   46.4600 O   0  0  0  0  0  0  0  0  0  0  0  0
   57.7960   26.2000   46.4370 N   0  0  0  0  0  0  0  0  0  0  0  0
   56.4980   26.4560   46.1330 C   0  0  0  0  0  0  0  0  0  0  0  0
   55.6130   25.6000   46.4010 O   0  0  0  0  0  0  0  0  0  0  0  0
   56.1530   27.6350   45.5440 N   0  0  0  0  0  0  0  0  0  0  0  0
   57.7050   31.9350   43.8970 C   0  0  0  0  0  0  0  0  0  0  0  0
   57.3730   31.5840   42.2060 Cl  0  0  0  0  0  0  0  0  0  0  0  0
   58.3340   33.1430   44.2210 C   0  0  0  0  0  0  0  0  0  0  0  0
   59.3063   34.7153   48.0087 H   0  0  0  0  0  0  0  0  0  0  0  0
   60.9096   34.3542   47.2838 H   0  0  0  0  0  0  0  0  0  0  0  0
   60.2825   36.0375   47.2838 H   0  0  0  0  0  0  0  0  0  0  0  0
   58.6766   32.7044   47.5959 H   0  0  0  0  0  0  0  0  0  0  0  0
   57.5686   30.5526   47.0231 H   0  0  0  0  0  0  0  0  0  0  0  0
   59.2174   29.0682   45.3464 H   0  0  0  0  0  0  0  0  0  0  0  0
   55.1460   27.8200   45.3370 H   0  0  0  0  0  0  0  0  0  0  0  0
   58.5578   33.8685   43.4251 H   0  0  0  0  0  0  0  0  0  0  0  0
  1  2  1  0
  2  3  2  0
  2  4  1  0
  4  5  2  0
  5  6  1  0
  6  7  2  0
  7  8  1  0
  8  9  1  0
  9 10  2  0
 10 11  1  0
 11 12  2  0
 11 13  1  0
 13 14  1  0
 14 15  2  0
 14 16  1  0
  7 17  1  0
 17 18  1  0
 17 19  2  0
 19  4  1  0
 16  9  1  0
  1 20  1  0
  1 21  1  0
  1 22  1  0
  5 23  1  0
  6 24  1  0
 10 25  1  0
 16 26  1  0
 19 27  1  0
M  CHG  1  13  -1
M  END
>  <UniqueID>  (72) 
66

>  <SMILES>  (72) 
CC(=O)c1ccc(Oc2cc(=O)[n-]c(=O)[nH]2)c(Cl)c1

>  <Energy>  (72) 
37.00301042856616

>  <Genealogy>  (72) 
CC(=O)c1ccc(Oc2cc(=O)[n-]c(=O)[nH]2)c(Cl)c1 (protonated)
CC(=O)c1ccc(Oc2cc(=O)[n-]c(=O)[nH]2)c(Cl)c1 (3D coordinates assigned)
CC(=O)c1ccc(Oc2cc(=O)[n-]c(=O)[nH]2)c(Cl)c1 (optimized conformer: 37.00301042856616 kcal/mol)

>  <smiles>  (72) 
CC(=O)c1ccc(Oc2cc(=O)[nH]c(=O)[nH]2)c(Cl)c1

>  <score_type>  (72) 
oracle

>  <origin>  (72) 
adg

>  <m_score__min__energy>  (72) 
-9.2100000000000009

>  <m_primary>  (72) 
energy

$$$$
73:0
     RDKit          3D

 42 45  0  0  0  0  0  0  0  0999 V2000
   58.9250   29.7450   48.8640 C   0  0  0  0  0  0  0  0  0  0  0  0
   59.8450   30.8510   48.3610 C   0  0  0  0  0  0  0  0  0  0  0  0
   59.7000   31.0270   46.9520 O   0  0  0  0  0  0  0  0  0  0  0  0
   59.0680   32.1110   46.3130 C   0  0  0  0  0  0  0  0  0  0  0  0
   59.4890   33.4420   46.5180 C   0  0  0  0  0  0  0  0  0  0  0  0
   58.8710   34.4930   45.8380 C   0  0  0  0  0  0  0  0  0  0  0  0
   57.8300   34.2360   44.9480 C   0  0  0  0  0  0  0  0  0  0  0  0
   57.3940   32.9260   44.7440 C   0  0  0  0  0  0  0  0  0  0  0  0
   57.9920   31.8560   45.4310 C   0  0  0  0  0  0  0  0  0  0  0  0
   57.4960   30.4790   45.1960 C   0  0  0  0  0  0  0  0  0  0  0  0
   56.2920   30.3030   44.8570 O   0  0  0  0  0  0  0  0  0  0  0  0
   58.3470   29.3430   45.4190 N   0  0  0  0  0  0  0  0  0  0  0  0
   58.1260   28.0490   44.8340 C   0  0  0  0  0  0  0  0  0  0  0  0
   58.0820   27.9260   43.4200 C   0  0  0  0  0  0  0  0  0  0  0  0
   57.8420   26.6790   42.8120 C   0  0  0  0  0  0  0  0  0  0  0  0
   57.6380   25.5860   43.6460 C   0  0  0  0  0  0  0  0  0  0  0  0
   57.3940   24.3450   43.3260 O   0  0  0  0  0  0  0  0  0  0  0  0
   57.2700   23.6990   44.4740 C   0  0  0  0  0  0  0  0  0  0  0  0
   56.9880   22.2650   44.5670 C   0  0  0  0  0  0  0  0  0  0  0  0
   57.3730   21.4310   45.5970 C   0  0  0  0  0  0  0  0  0  0  0  0
   56.8940   20.1830   45.2620 C   0  0  0  0  0  0  0  0  0  0  0  0
   56.2480   20.3330   44.0500 C   0  0  0  0  0  0  0  0  0  0  0  0
   56.3220   21.5860   43.6620 O   0  0  0  0  0  0  0  0  0  0  0  0
   57.4260   24.4960   45.5650 N   0  0  0  0  0  0  0  0  0  0  0  0
   57.6630   25.6930   45.0020 C   0  0  0  0  0  0  0  0  0  0  0  0
   57.8960   26.9070   45.6410 C   0  0  0  0  0  0  0  0  0  0  0  0
   58.9226   29.7421   49.9640 H   0  0  0  0  0  0  0  0  0  0  0  0
   57.9037   29.9217   48.4955 H   0  0  0  0  0  0  0  0  0  0  0  0
   59.2847   28.7730   48.4955 H   0  0  0  0  0  0  0  0  0  0  0  0
   59.5902   31.7920   48.8704 H   0  0  0  0  0  0  0  0  0  0  0  0
   60.8863   30.5697   48.5766 H   0  0  0  0  0  0  0  0  0  0  0  0
   60.3102   33.6531   47.2188 H   0  0  0  0  0  0  0  0  0  0  0  0
   59.2068   35.5271   46.0052 H   0  0  0  0  0  0  0  0  0  0  0  0
   57.3520   35.0655   44.4063 H   0  0  0  0  0  0  0  0  0  0  0  0
   56.5737   32.7291   44.0381 H   0  0  0  0  0  0  0  0  0  0  0  0
   59.1210   29.4440   46.1150 H   0  0  0  0  0  0  0  0  0  0  0  0
   58.2373   28.8157   42.7921 H   0  0  0  0  0  0  0  0  0  0  0  0
   57.8169   26.5737   41.7173 H   0  0  0  0  0  0  0  0  0  0  0  0
   57.9429   21.7051   46.4970 H   0  0  0  0  0  0  0  0  0  0  0  0
   57.0038   19.2550   45.8423 H   0  0  0  0  0  0  0  0  0  0  0  0
   55.7478   19.5261   43.4944 H   0  0  0  0  0  0  0  0  0  0  0  0
   57.9015   26.9780   46.7387 H   0  0  0  0  0  0  0  0  0  0  0  0
  1  2  1  0
  2  3  1  0
  3  4  1  0
  4  5  2  0
  5  6  1  0
  6  7  2  0
  7  8  1  0
  8  9  2  0
  9 10  1  0
 10 11  2  0
 10 12  1  0
 12 13  1  0
 13 14  2  0
 14 15  1  0
 15 16  2  0
 16 17  1  0
 17 18  1  0
 18 19  1  0
 19 20  2  0
 20 21  1  0
 21 22  2  0
 22 23  1  0
 18 24  2  0
 24 25  1  0
 25 26  2  0
  9  4  1  0
 26 13  1  0
 25 16  1  0
 23 19  1  0
  1 27  1  0
  1 28  1  0
  1 29  1  0
  2 30  1  0
  2 31  1  0
  5 32  1  0
  6 33  1  0
  7 34  1  0
  8 35  1  0
 12 36  1  0
 14 37  1  0
 15 38  1  0
 20 39  1  0
 21 40  1  0
 22 41  1  0
 26 42  1  0
M  END
>  <UniqueID>  (73) 
67

>  <SMILES>  (73) 
CCOc1ccccc1C(=O)Nc1ccc2oc(-c3ccco3)nc2c1

>  <Energy>  (73) 
113.71525455878565

>  <Genealogy>  (73) 
CCOc1ccccc1C(=O)Nc1ccc2oc(-c3ccco3)nc2c1 (3D coordinates assigned)
CCOc1ccccc1C(=O)Nc1ccc2oc(-c3ccco3)nc2c1 (optimized conformer: 113.71525455878565 kcal/mol)

>  <smiles>  (73) 
CCOc1ccccc1C(=O)Nc1ccc2oc(-c3ccco3)nc2c1

>  <score_type>  (73) 
oracle

>  <origin>  (73) 
adg

>  <m_score__min__energy>  (73) 
-7.2300000000000004

>  <m_primary>  (73) 
energy

$$$$
74:0
     RDKit          3D

 46 50  0  0  0  0  0  0  0  0999 V2000
   61.2050   29.2950   46.9150 H   0  0  0  0  0  0  0  0  0  0  0  0
   60.7400   29.6370   46.1060 O   0  0  0  0  0  0  0  0  0  0  0  0
   59.3690   29.7340   46.4100 C   0  0  2  0  0  0  0  0  0  0  0  0
   58.6680   28.3780   46.3970 C   0  0  0  0  0  0  0  0  0  0  0  0
   59.4360   27.1830   46.4820 C   0  0  0  0  0  0  0  0  0  0  0  0
   60.5281   27.2477   46.5971 H   0  0  0  0  0  0  0  0  0  0  0  0
   58.8190   25.9200   46.4210 C   0  0  0  0  0  0  0  0  0  0  0  0
   59.4083   24.9945   46.4996 H   0  0  0  0  0  0  0  0  0  0  0  0
   57.4390   25.8820   46.2580 C   0  0  0  0  0  0  0  0  0  0  0  0
   56.6560   24.7980   46.1630 N   0  0  0  0  0  0  0  0  0  0  0  0
   55.4210   25.3480   46.0010 C   0  0  0  0  0  0  0  0  0  0  0  0
   54.3330   24.6480   45.8650 N   0  0  0  0  0  0  0  0  0  0  0  0
   54.0700   23.6760   44.8430 C   0  0  0  0  0  0  0  0  0  0  0  0
   54.9420   23.3890   43.9770 O   0  0  0  0  0  0  0  0  0  0  0  0
   52.8220   23.0470   44.8200 O   0  0  0  0  0  0  0  0  0  0  0  0
   51.5980   23.7710   44.8480 C   0  0  0  0  0  0  0  0  0  0  0  0
   51.3000   23.9472   45.8921 H   0  0  0  0  0  0  0  0  0  0  0  0
   51.7309   24.7359   44.3368 H   0  0  0  0  0  0  0  0  0  0  0  0
   50.8164   23.1898   44.3368 H   0  0  0  0  0  0  0  0  0  0  0  0
   55.4000   26.7060   45.9870 N   0  0  0  0  0  0  0  0  0  0  0  0
   56.6950   27.0140   46.1550 C   0  0  0  0  0  0  0  0  0  0  0  0
   57.2650   28.2830   46.2100 C   0  0  0  0  0  0  0  0  0  0  0  0
   56.6451   29.1863   46.1113 H   0  0  0  0  0  0  0  0  0  0  0  0
   58.7050   30.7250   45.4720 C   0  0  0  0  0  0  0  0  0  0  0  0
   58.5270   30.6260   44.0900 C   0  0  0  0  0  0  0  0  0  0  0  0
   58.8869   29.7445   43.5391 H   0  0  0  0  0  0  0  0  0  0  0  0
   57.8780   31.6770   43.4180 C   0  0  0  0  0  0  0  0  0  0  0  0
   57.7254   31.6196   42.3302 H   0  0  0  0  0  0  0  0  0  0  0  0
   57.4220   32.8040   44.1320 C   0  0  0  0  0  0  0  0  0  0  0  0
   56.9180   33.6231   43.5980 H   0  0  0  0  0  0  0  0  0  0  0  0
   57.6080   32.8860   45.5210 C   0  0  0  0  0  0  0  0  0  0  0  0
   57.2557   33.7599   46.0886 H   0  0  0  0  0  0  0  0  0  0  0  0
   58.2520   31.8280   46.1600 C   0  0  0  0  0  0  0  0  0  0  0  0
   58.5670   31.6340   47.5520 C   0  0  0  0  0  0  0  0  0  0  0  0
   58.3700   32.4770   48.4660 O   0  0  0  0  0  0  0  0  0  0  0  0
   59.2080   30.3680   47.7320 N   0  0  0  0  0  0  0  0  0  0  0  0
   59.6700   29.8030   48.9730 C   0  0  0  0  0  0  0  0  0  0  0  0
   60.6790   28.8850   48.9580 N   0  0  0  0  0  0  0  0  0  0  0  0
   61.1400   28.2950   50.0910 C   0  0  0  0  0  0  0  0  0  0  0  0
   61.9595   27.5633   50.0359 H   0  0  0  0  0  0  0  0  0  0  0  0
   60.5740   28.6170   51.3250 C   0  0  0  0  0  0  0  0  0  0  0  0
   60.9472   28.1480   52.2474 H   0  0  0  0  0  0  0  0  0  0  0  0
   59.5300   29.5400   51.3760 C   0  0  0  0  0  0  0  0  0  0  0  0
   59.0703   29.7991   52.3411 H   0  0  0  0  0  0  0  0  0  0  0  0
   59.0690   30.1350   50.1990 C   0  0  0  0  0  0  0  0  0  0  0  0
   58.2411   30.8585   50.2318 H   0  0  0  0  0  0  0  0  0  0  0  0
  1  2  1  0
  3  2  1  6
  3  4  1  0
  4  5  2  0
  5  6  1  0
  5  7  1  0
  7  8  1  0
  7  9  2  0
  9 10  1  0
 10 11  1  0
 11 12  2  0
 12 13  1  0
 13 14  2  0
 13 15  1  0
 15 16  1  0
 16 17  1  0
 16 18  1  0
 16 19  1  0
 11 20  1  0
 20 21  1  0
 21 22  2  0
 22 23  1  0
  3 24  1  0
 24 25  2  0
 25 26  1  0
 25 27  1  0
 27 28  1  0
 27 29  2  0
 29 30  1  0
 29 31  1  0
 31 32  1  0
 31 33  2  0
 33 34  1  0
 34 35  2  0
 34 36  1  0
 36 37  1  0
 37 38  2  0
 38 39  1  0
 39 40  1  0
 39 41  2  0
 41 42  1  0
 41 43  1  0
 43 44  1  0
 43 45  2  0
 45 46  1  0
 36  3  1  0
 45 37  1  0
 22  4  1  0
 33 24  1  0
 21  9  1  0
M  CHG  2  10  -1  20  -1
M  END
>  <UniqueID>  (74) 
68

>  <SMILES>  (74) 
COC(=O)/N=c1\[n-]c2ccc([C@@]3(O)c4ccccc4C(=O)N3c3ccccn3)cc2[n-]1

>  <Energy>  (74) 
115.20237592092994

>  <Genealogy>  (74) 
COC(=O)N=c1[n-]c2ccc(C3(O)c4ccccc4C(=O)N3c3ccccn3)cc2[n-]1 (protonated)
COC(=O)N=c1[n-]c2ccc([C@@]3(O)c4ccccc4C(=O)N3c3ccccn3)cc2[n-]1 (chirality)
COC(=O)/N=c1\[n-]c2ccc([C@@]3(O)c4ccccc4C(=O)N3c3ccccn3)cc2[n-]1 (cis-trans isomerization)
COC(=O)/N=c1\[n-]c2ccc([C@@]3(O)c4ccccc4C(=O)N3c3ccccn3)cc2[n-]1 (3D coordinates assigned)
COC(=O)/N=c1\[n-]c2ccc([C@@]3(O)c4ccccc4C(=O)N3c3ccccn3)cc2[n-]1 (nonaromatic ring conformer: 115.20237592092994 kcal/mol)

>  <smiles>  (74) 
COC(=O)N=c1[nH]c2ccc(C3(O)c4ccccc4C(=O)N3c3ccccn3)cc2[nH]1

>  <score_type>  (74) 
oracle

>  <origin>  (74) 
adg

>  <m_score__min__energy>  (74) 
-11.539999999999999

>  <m_primary>  (74) 
energy

$$$$
75:0
     RDKit          3D

 50 53  0  0  0  0  0  0  0  0999 V2000
   59.0180   32.5060   49.5590 C   0  0  0  0  0  0  0  0  0  0  0  0
   59.7090   33.8640   49.6860 C   0  0  0  0  0  0  0  0  0  0  0  0
   60.5800   34.2810   48.4810 C   0  0  2  0  0  0  0  0  0  0  0  0
   59.6670   35.1970   47.1860 S   0  0  0  0  0  0  0  0  0  0  0  0
   58.9210   33.7760   46.3790 C   0  0  0  0  0  0  0  0  0  0  0  0
   57.6020   33.8710   45.9270 C   0  0  0  0  0  0  0  0  0  0  0  0
   57.0220   32.8170   45.2190 C   0  0  0  0  0  0  0  0  0  0  0  0
   57.7600   31.6550   44.9450 C   0  0  0  0  0  0  0  0  0  0  0  0
   57.1500   30.5300   44.2000 C   0  0  0  0  0  0  0  0  0  0  0  0
   56.2570   30.7750   43.3450 O   0  0  0  0  0  0  0  0  0  0  0  0
   57.5580   29.1650   44.4230 N   0  0  0  0  0  0  0  0  0  0  0  0
   57.5120   28.2180   43.3000 C   0  0  0  0  0  0  0  0  0  0  0  0
   58.1220   26.8630   43.6750 C   0  0  0  0  0  0  0  0  0  0  0  0
   57.5740   26.3810   44.9530 N   0  0  0  0  0  0  0  0  0  0  0  0
   57.4170   24.9650   45.1900 C   0  0  0  0  0  0  0  0  0  0  0  0
   57.3890   24.4570   46.5030 C   0  0  0  0  0  0  0  0  0  0  0  0
   57.2410   23.0860   46.7300 C   0  0  0  0  0  0  0  0  0  0  0  0
   57.1210   22.2050   45.6550 C   0  0  0  0  0  0  0  0  0  0  0  0
   57.1510   22.6930   44.3460 C   0  0  0  0  0  0  0  0  0  0  0  0
   57.0080   21.5840   42.9930 Cl  0  0  0  0  0  0  0  0  0  0  0  0
   57.2990   24.0650   44.1120 C   0  0  0  0  0  0  0  0  0  0  0  0
   57.3110   27.3330   46.0460 C   0  0  0  0  0  0  0  0  0  0  0  0
   57.9390   28.7010   45.7640 C   0  0  0  0  0  0  0  0  0  0  0  0
   59.0730   31.5470   45.4350 C   0  0  0  0  0  0  0  0  0  0  0  0
   59.6530   32.5970   46.1620 C   0  0  0  0  0  0  0  0  0  0  0  0
   60.9490   32.4170   46.7500 N   0  0  0  0  0  0  0  0  0  0  0  0
   61.3890   33.1490   47.9010 C   0  0  0  0  0  0  0  0  0  0  0  0
   62.4690   32.8220   48.4620 O   0  0  0  0  0  0  0  0  0  0  0  0
   58.8132   32.1036   50.5620 H   0  0  0  0  0  0  0  0  0  0  0  0
   58.0713   32.6260   49.0118 H   0  0  0  0  0  0  0  0  0  0  0  0
   59.6723   31.8114   49.0118 H   0  0  0  0  0  0  0  0  0  0  0  0
   58.9305   34.6291   49.8226 H   0  0  0  0  0  0  0  0  0  0  0  0
   60.3968   33.7746   50.5398 H   0  0  0  0  0  0  0  0  0  0  0  0
   61.3006   34.9938   48.9083 H   0  0  0  0  0  0  0  0  0  0  0  0
   57.0180   34.7808   46.1301 H   0  0  0  0  0  0  0  0  0  0  0  0
   55.9807   32.8976   44.8739 H   0  0  0  0  0  0  0  0  0  0  0  0
   56.4634   28.0671   43.0038 H   0  0  0  0  0  0  0  0  0  0  0  0
   58.0991   28.6405   42.4713 H   0  0  0  0  0  0  0  0  0  0  0  0
   57.8921   26.1326   42.8853 H   0  0  0  0  0  0  0  0  0  0  0  0
   59.2105   26.9823   43.7798 H   0  0  0  0  0  0  0  0  0  0  0  0
   57.4843   25.1444   47.3564 H   0  0  0  0  0  0  0  0  0  0  0  0
   57.2191   22.7002   47.7599 H   0  0  0  0  0  0  0  0  0  0  0  0
   57.0028   21.1267   45.8377 H   0  0  0  0  0  0  0  0  0  0  0  0
   57.3234   24.4434   43.0794 H   0  0  0  0  0  0  0  0  0  0  0  0
   56.2237   27.4556   46.1590 H   0  0  0  0  0  0  0  0  0  0  0  0
   57.7584   26.9319   46.9674 H   0  0  0  0  0  0  0  0  0  0  0  0
   57.5859   29.4248   46.5133 H   0  0  0  0  0  0  0  0  0  0  0  0
   59.0341   28.6120   45.8164 H   0  0  0  0  0  0  0  0  0  0  0  0
   59.6512   30.6304   45.2465 H   0  0  0  0  0  0  0  0  0  0  0  0
   61.5460   31.6250   46.4190 H   0  0  0  0  0  0  0  0  0  0  0  0
  1  2  1  0
  2  3  1  0
  3  4  1  0
  4  5  1  0
  5  6  2  0
  6  7  1  0
  7  8  2  0
  8  9  1  0
  9 10  2  0
  9 11  1  0
 11 12  1  0
 12 13  1  0
 13 14  1  0
 14 15  1  0
 15 16  2  0
 16 17  1  0
 17 18  2  0
 18 19  1  0
 19 20  1  0
 19 21  2  0
 14 22  1  0
 22 23  1  0
  8 24  1  0
 24 25  2  0
 25 26  1  0
 26 27  1  0
 27 28  2  0
 27  3  1  0
 25  5  1  0
 23 11  1  0
 21 15  1  0
  1 29  1  0
  1 30  1  0
  1 31  1  0
  2 32  1  0
  2 33  1  0
  3 34  1  1
  6 35  1  0
  7 36  1  0
 12 37  1  0
 12 38  1  0
 13 39  1  0
 13 40  1  0
 16 41  1  0
 17 42  1  0
 18 43  1  0
 21 44  1  0
 22 45  1  0
 22 46  1  0
 23 47  1  0
 23 48  1  0
 24 49  1  0
 26 50  1  0
M  END
>  <UniqueID>  (75) 
69

>  <SMILES>  (75) 
CC[C@@H]1Sc2ccc(C(=O)N3CCN(c4cccc(Cl)c4)CC3)cc2NC1=O

>  <Energy>  (75) 
64.61325105909313

>  <Genealogy>  (75) 
CC[C@@H]1Sc2ccc(C(=O)N3CCN(c4cccc(Cl)c4)CC3)cc2NC1=O (chirality)
CC[C@@H]1Sc2ccc(C(=O)N3CCN(c4cccc(Cl)c4)CC3)cc2NC1=O (3D coordinates assigned)
CC[C@@H]1Sc2ccc(C(=O)N3CCN(c4cccc(Cl)c4)CC3)cc2NC1=O (nonaromatic ring conformer: 64.61325105909313 kcal/mol)

>  <smiles>  (75) 
CCC1Sc2ccc(C(=O)N3CCN(c4cccc(Cl)c4)CC3)cc2NC1=O

>  <score_type>  (75) 
oracle

>  <origin>  (75) 
adg

>  <m_score__min__energy>  (75) 
-8.6099999999999994

>  <m_primary>  (75) 
energy

$$$$
76:0
     RDKit          3D

 75 79  0  0  0  0  0  0  0  0999 V2000
   64.3290   32.7730   53.1370 C   0  0  0  0  0  0  0  0  0  0  0  0
   64.0390   32.9010   51.7080 N   0  0  0  0  0  0  0  0  0  0  0  0
   62.8620   33.3120   51.1990 C   0  0  0  0  0  0  0  0  0  0  0  0
   62.9690   33.4040   49.8230 C   0  0  0  0  0  0  0  0  0  0  0  0
   61.9810   33.9060   48.9150 N   0  0  0  0  0  0  0  0  0  0  0  0
   61.7630   33.3560   47.6090 C   0  0  0  0  0  0  0  0  0  0  0  0
   62.7390   32.9070   46.9470 O   0  0  0  0  0  0  0  0  0  0  0  0
   60.4250   33.3730   46.9890 C   0  0  0  0  0  0  0  0  0  0  0  0
   60.2590   33.4450   45.6500 N   0  0  0  0  0  0  0  0  0  0  0  0
   58.9230   33.4020   45.4820 C   0  0  0  0  0  0  0  0  0  0  0  0
   58.3130   33.4330   44.1840 N   0  0  0  0  0  0  0  0  0  0  0  0
   57.9960   32.3150   43.3420 C   0  0  0  0  0  0  0  0  0  0  0  0
   58.1850   32.3790   42.0990 O   0  0  0  0  0  0  0  0  0  0  0  0
   57.4390   31.0780   43.9370 C   0  0  0  0  0  0  0  0  0  0  0  0
   56.0520   30.8450   43.9440 C   0  0  0  0  0  0  0  0  0  0  0  0
   55.5320   29.6710   44.5000 C   0  0  0  0  0  0  0  0  0  0  0  0
   56.3840   28.7170   45.0680 C   0  0  0  0  0  0  0  0  0  0  0  0
   55.8160   27.5180   45.6130 N   0  0  0  0  0  0  0  0  0  0  0  0
   56.5270   26.4920   46.3210 C   0  0  0  0  0  0  0  0  0  0  0  0
   55.9030   25.4500   46.6590 O   0  0  0  0  0  0  0  0  0  0  0  0
   57.9510   26.6430   46.7010 C   0  0  0  0  0  0  0  0  0  0  0  0
   58.9590   25.9410   46.0140 C   0  0  0  0  0  0  0  0  0  0  0  0
   60.2990   26.0880   46.3820 C   0  0  0  0  0  0  0  0  0  0  0  0
   60.6480   26.9430   47.4310 C   0  0  0  0  0  0  0  0  0  0  0  0
   59.6570   27.6570   48.1090 C   0  0  0  0  0  0  0  0  0  0  0  0
   58.3150   27.5160   47.7430 C   0  0  0  0  0  0  0  0  0  0  0  0
   57.7720   28.9320   45.0410 C   0  0  0  0  0  0  0  0  0  0  0  0
   58.2940   30.1050   44.4900 C   0  0  0  0  0  0  0  0  0  0  0  0
   58.2930   33.2940   46.7050 C   0  0  0  0  0  0  0  0  0  0  0  0
   59.2480   33.2650   47.6520 N   0  0  0  0  0  0  0  0  0  0  0  0
   59.0150   33.1020   49.0860 C   0  0  0  0  0  0  0  0  0  0  0  0
   64.2550   33.0420   49.4770 C   0  0  0  0  0  0  0  0  0  0  0  0
   64.8830   32.7090   50.6650 C   0  0  0  0  0  0  0  0  0  0  0  0
   66.2970   32.3010   50.7700 C   0  0  0  0  0  0  0  0  0  0  0  0
   67.0610   32.4680   49.7820 O   0  0  0  0  0  0  0  0  0  0  0  0
   66.8300   31.7340   51.9690 N   0  0  0  0  0  0  0  0  0  0  0  0
   67.8250   30.6640   51.9940 C   0  0  0  0  0  0  0  0  0  0  0  0
   67.3100   29.4400   51.2230 C   0  0  0  0  0  0  0  0  0  0  0  0
   67.8270   28.1620   51.7750 N   0  0  0  0  0  0  0  0  0  0  0  0
   69.1550   27.8170   51.2100 C   0  0  0  0  0  0  0  0  0  0  0  0
   69.0570   26.9120   49.9620 C   0  0  0  0  0  0  0  0  0  0  0  0
   67.8150   27.0850   49.3130 O   0  0  0  0  0  0  0  0  0  0  0  0
   66.7620   26.6000   50.1290 C   0  0  0  0  0  0  0  0  0  0  0  0
   66.8940   27.0280   51.6100 C   0  0  0  0  0  0  0  0  0  0  0  0
   63.4754   33.1498   53.7196 H   0  0  0  0  0  0  0  0  0  0  0  0
   64.5021   31.7148   53.3827 H   0  0  0  0  0  0  0  0  0  0  0  0
   65.2275   33.3582   53.3827 H   0  0  0  0  0  0  0  0  0  0  0  0
   61.9588   33.5386   51.7845 H   0  0  0  0  0  0  0  0  0  0  0  0
   61.4040   34.7230   49.2160 H   0  0  0  0  0  0  0  0  0  0  0  0
   55.3709   31.5913   43.5091 H   0  0  0  0  0  0  0  0  0  0  0  0
   54.4459   29.4967   44.4906 H   0  0  0  0  0  0  0  0  0  0  0  0
   58.6904   25.2727   45.1826 H   0  0  0  0  0  0  0  0  0  0  0  0
   61.0803   25.5299   45.8452 H   0  0  0  0  0  0  0  0  0  0  0  0
   61.7028   27.0537   47.7227 H   0  0  0  0  0  0  0  0  0  0  0  0
   59.9331   28.3317   48.9327 H   0  0  0  0  0  0  0  0  0  0  0  0
   57.5401   28.0901   48.2720 H   0  0  0  0  0  0  0  0  0  0  0  0
   58.4514   28.1728   45.4558 H   0  0  0  0  0  0  0  0  0  0  0  0
   59.3816   30.2699   44.4881 H   0  0  0  0  0  0  0  0  0  0  0  0
   57.2074   33.2412   46.8747 H   0  0  0  0  0  0  0  0  0  0  0  0
   59.7901   33.6442   49.6474 H   0  0  0  0  0  0  0  0  0  0  0  0
   58.0249   33.5055   49.3448 H   0  0  0  0  0  0  0  0  0  0  0  0
   59.0546   32.0336   49.3448 H   0  0  0  0  0  0  0  0  0  0  0  0
   64.6906   33.0222   48.4671 H   0  0  0  0  0  0  0  0  0  0  0  0
   68.7547   31.0219   51.5276 H   0  0  0  0  0  0  0  0  0  0  0  0
   68.0144   30.3756   53.0385 H   0  0  0  0  0  0  0  0  0  0  0  0
   66.2112   29.4275   51.2739 H   0  0  0  0  0  0  0  0  0  0  0  0
   67.6656   29.5243   50.1855 H   0  0  0  0  0  0  0  0  0  0  0  0
   69.6704   28.7475   50.9299 H   0  0  0  0  0  0  0  0  0  0  0  0
   69.7086   27.2603   51.9805 H   0  0  0  0  0  0  0  0  0  0  0  0
   69.8674   27.1706   49.2646 H   0  0  0  0  0  0  0  0  0  0  0  0
   69.1454   25.8626   50.2798 H   0  0  0  0  0  0  0  0  0  0  0  0
   65.8094   26.9857   49.7369 H   0  0  0  0  0  0  0  0  0  0  0  0
   66.8050   25.5012   50.1005 H   0  0  0  0  0  0  0  0  0  0  0  0
   65.9032   27.3255   51.9838 H   0  0  0  0  0  0  0  0  0  0  0  0
   67.2920   26.1738   52.1774 H   0  0  0  0  0  0  0  0  0  0  0  0
  1  2  1  0
  2  3  1  0
  3  4  2  0
  4  5  1  0
  5  6  1  0
  6  7  2  0
  6  8  1  0
  8  9  2  0
  9 10  1  0
 10 11  1  0
 11 12  1  0
 12 13  2  0
 12 14  1  0
 14 15  2  0
 15 16  1  0
 16 17  2  0
 17 18  1  0
 18 19  1  0
 19 20  2  0
 19 21  1  0
 21 22  2  0
 22 23  1  0
 23 24  2  0
 24 25  1  0
 25 26  2  0
 17 27  1  0
 27 28  2  0
 10 29  2  0
 29 30  1  0
 30 31  1  0
  4 32  1  0
 32 33  2  0
 33 34  1  0
 34 35  2  0
 34 36  1  0
 36 37  1  0
 37 38  1  0
 38 39  1  0
 39 40  1  0
 40 41  1  0
 41 42  1  0
 42 43  1  0
 43 44  1  0
 33  2  1  0
 44 39  1  0
 30  8  1  0
 28 14  1  0
 26 21  1  0
  1 45  1  0
  1 46  1  0
  1 47  1  0
  3 48  1  0
  5 49  1  0
 15 50  1  0
 16 51  1  0
 22 52  1  0
 23 53  1  0
 24 54  1  0
 25 55  1  0
 26 56  1  0
 27 57  1  0
 28 58  1  0
 29 59  1  0
 31 60  1  0
 31 61  1  0
 31 62  1  0
 32 63  1  0
 37 64  1  0
 37 65  1  0
 38 66  1  0
 38 67  1  0
 40 68  1  0
 40 69  1  0
 41 70  1  0
 41 71  1  0
 43 72  1  0
 43 73  1  0
 44 74  1  0
 44 75  1  0
M  CHG  3  11  -1  18  -1  36  -1
M  END
>  <UniqueID>  (76) 
70

>  <SMILES>  (76) 
Cn1cc(NC(=O)c2nc([N-]C(=O)c3ccc([N-]C(=O)c4ccccc4)cc3)cn2C)cc1C(=O)[N-]CCN1CCOCC1

>  <Energy>  (76) 
168.55394735045917

>  <Genealogy>  (76) 
Cn1cc(NC(=O)c2nc([N-]C(=O)c3ccc([N-]C(=O)c4ccccc4)cc3)cn2C)cc1C(=O)[N-]CCN1CCOCC1 (protonated)
Cn1cc(NC(=O)c2nc([N-]C(=O)c3ccc([N-]C(=O)c4ccccc4)cc3)cn2C)cc1C(=O)[N-]CCN1CCOCC1 (3D coordinates assigned)
Cn1cc(NC(=O)c2nc([N-]C(=O)c3ccc([N-]C(=O)c4ccccc4)cc3)cn2C)cc1C(=O)[N-]CCN1CCOCC1 (nonaromatic ring conformer: 168.55394735045917 kcal/mol)

>  <smiles>  (76) 
Cn1cc(NC(=O)c2nc(NC(=O)c3ccc(NC(=O)c4ccccc4)cc3)cn2C)cc1C(=O)NCCN1CCOCC1

>  <score_type>  (76) 
oracle

>  <origin>  (76) 
adg

>  <m_score__min__energy>  (76) 
-14.869999999999999

>  <m_primary>  (76) 
energy

$$$$
77:0
     RDKit          3D

 92 98  0  0  0  0  0  0  0  0999 V2000
   58.7896   18.7798   49.8718 H   0  0  0  0  0  0  0  0  0  0  0  0
   58.1560   19.6260   50.1760 C   0  0  0  0  0  0  0  0  0  0  0  0
   57.7190   20.5180   49.2450 N   0  0  0  0  0  0  0  0  0  0  0  0
   56.9350   21.5830   49.5740 C   0  0  0  0  0  0  0  0  0  0  0  0
   56.4740   22.5020   48.5160 C   0  0  0  0  0  0  0  0  0  0  0  0
   55.3550   23.0660   48.6320 O   0  0  0  0  0  0  0  0  0  0  0  0
   57.3510   22.8340   47.4270 N   0  0  0  0  0  0  0  0  0  0  0  0
   57.0740   22.8300   46.1570 C   0  0  0  0  0  0  0  0  0  0  0  0
   55.8200   22.5080   45.7240 N   0  0  0  0  0  0  0  0  0  0  0  0
   55.4870   22.5020   44.4090 C   0  0  0  0  0  0  0  0  0  0  0  0
   54.4651   22.2352   44.1017 H   0  0  0  0  0  0  0  0  0  0  0  0
   56.4400   22.8340   43.4470 C   0  0  0  0  0  0  0  0  0  0  0  0
   56.1735   22.8324   42.3798 H   0  0  0  0  0  0  0  0  0  0  0  0
   57.7330   23.1680   43.8470 C   0  0  0  0  0  0  0  0  0  0  0  0
   58.4879   23.4337   43.0923 H   0  0  0  0  0  0  0  0  0  0  0  0
   58.0770   23.1670   45.2100 C   0  0  0  0  0  0  0  0  0  0  0  0
   59.4470   23.5780   45.6190 C   0  0  0  0  0  0  0  0  0  0  0  0
   60.3930   22.7440   45.5910 O   0  0  0  0  0  0  0  0  0  0  0  0
   59.6760   24.9040   46.1180 N   0  0  0  0  0  0  0  0  0  0  0  0
   58.7950   26.0230   45.9450 C   0  0  0  0  0  0  0  0  0  0  0  0
   59.3300   27.2500   45.5320 C   0  0  0  0  0  0  0  0  0  0  0  0
   60.4201   27.3729   45.4513 H   0  0  0  0  0  0  0  0  0  0  0  0
   58.4840   28.3190   45.2220 C   0  0  0  0  0  0  0  0  0  0  0  0
   58.9114   29.2844   44.9134 H   0  0  0  0  0  0  0  0  0  0  0  0
   57.0930   28.1650   45.3030 C   0  0  0  0  0  0  0  0  0  0  0  0
   56.2590   29.1940   44.8510 O   0  0  0  0  0  0  0  0  0  0  0  0
   56.7540   30.2400   44.0620 C   0  0  0  0  0  0  0  0  0  0  0  0
   56.4600   30.2750   42.6960 C   0  0  0  0  0  0  0  0  0  0  0  0
   55.7985   29.5152   42.2542 H   0  0  0  0  0  0  0  0  0  0  0  0
   57.0090   31.2780   41.8940 C   0  0  0  0  0  0  0  0  0  0  0  0
   56.8007   31.2926   40.8140 H   0  0  0  0  0  0  0  0  0  0  0  0
   57.8000   32.2360   42.4450 N   0  0  0  0  0  0  0  0  0  0  0  0
   58.0740   32.2580   43.7790 C   0  0  0  0  0  0  0  0  0  0  0  0
   58.8510   33.2910   44.3110 C   0  0  0  0  0  0  0  0  0  0  0  0
   59.2941   34.0432   43.6418 H   0  0  0  0  0  0  0  0  0  0  0  0
   59.0690   33.3730   45.6990 C   0  0  0  0  0  0  0  0  0  0  0  0
   59.7970   34.4250   46.2770 O   0  0  0  0  0  0  0  0  0  0  0  0
   59.5830   34.9530   47.5860 C   0  0  0  0  0  0  0  0  0  0  0  0
   59.4996   36.0482   47.5252 H   0  0  0  0  0  0  0  0  0  0  0  0
   58.6565   34.5238   47.9952 H   0  0  0  0  0  0  0  0  0  0  0  0
   60.7480   34.5870   48.5100 C   0  0  0  0  0  0  0  0  0  0  0  0
   61.1720   35.5098   48.9327 H   0  0  0  0  0  0  0  0  0  0  0  0
   60.3638   33.9312   49.3052 H   0  0  0  0  0  0  0  0  0  0  0  0
   61.8610   33.8250   47.7490 C   0  0  0  0  0  0  0  0  0  0  0  0
   61.3849   33.1911   46.9865 H   0  0  0  0  0  0  0  0  0  0  0  0
   62.5258   34.5875   47.3170 H   0  0  0  0  0  0  0  0  0  0  0  0
   62.7050   32.9640   48.6060 N   0  0  0  0  0  0  0  0  0  0  0  0
   62.3260   31.5280   48.6350 C   0  0  0  0  0  0  0  0  0  0  0  0
   61.3299   31.4197   48.1810 H   0  0  0  0  0  0  0  0  0  0  0  0
   63.0956   30.9745   48.0770 H   0  0  0  0  0  0  0  0  0  0  0  0
   62.2820   30.9460   50.0520 C   0  0  0  0  0  0  0  0  0  0  0  0
   61.7239   29.9982   50.0419 H   0  0  0  0  0  0  0  0  0  0  0  0
   63.3076   30.7640   50.4055 H   0  0  0  0  0  0  0  0  0  0  0  0
   61.6170   31.8950   50.9500 N   0  0  0  0  0  0  0  0  0  0  0  0
   60.4310   31.5120   51.6860 C   0  0  0  0  0  0  0  0  0  0  0  0
   59.8800   30.4020   51.4490 O   0  0  0  0  0  0  0  0  0  0  0  0
   59.7950   32.4530   52.6870 C   0  0  0  0  0  0  0  0  0  0  0  0
   60.6202   32.4955   53.4131 H   0  0  0  0  0  0  0  0  0  0  0  0
   58.3850   32.0360   53.0950 C   0  0  0  0  0  0  0  0  0  0  0  0
   58.0150   31.1400   52.5751 H   0  0  0  0  0  0  0  0  0  0  0  0
   58.1744   31.7364   54.1322 H   0  0  0  0  0  0  0  0  0  0  0  0
   57.8310   33.3420   52.5480 C   0  0  0  0  0  0  0  0  0  0  0  0
   57.1209   33.2153   51.7175 H   0  0  0  0  0  0  0  0  0  0  0  0
   57.2308   34.0034   53.1900 H   0  0  0  0  0  0  0  0  0  0  0  0
   59.2280   33.7550   52.1120 C   0  0  0  0  0  0  0  0  0  0  0  0
   59.3473   33.8540   51.0230 H   0  0  0  0  0  0  0  0  0  0  0  0
   59.6424   34.7260   52.4208 H   0  0  0  0  0  0  0  0  0  0  0  0
   62.1630   33.2580   51.0440 C   0  0  0  0  0  0  0  0  0  0  0  0
   61.3315   33.9775   51.0137 H   0  0  0  0  0  0  0  0  0  0  0  0
   62.7212   33.3384   51.9884 H   0  0  0  0  0  0  0  0  0  0  0  0
   63.1290   33.5660   49.8910 C   0  0  0  0  0  0  0  0  0  0  0  0
   63.1878   34.6571   49.7647 H   0  0  0  0  0  0  0  0  0  0  0  0
   64.1045   33.1304   50.1530 H   0  0  0  0  0  0  0  0  0  0  0  0
   58.5290   32.3970   46.5480 C   0  0  0  0  0  0  0  0  0  0  0  0
   58.7720   32.5100   47.9260 O   0  0  0  0  0  0  0  0  0  0  0  0
   58.9020   31.4060   48.8200 C   0  0  0  0  0  0  0  0  0  0  0  0
   58.8594   31.7677   49.8580 H   0  0  0  0  0  0  0  0  0  0  0  0
   58.0814   30.6945   48.6457 H   0  0  0  0  0  0  0  0  0  0  0  0
   59.8654   30.9045   48.6457 H   0  0  0  0  0  0  0  0  0  0  0  0
   57.7750   31.3380   46.0080 C   0  0  0  0  0  0  0  0  0  0  0  0
   57.3649   30.5646   46.6740 H   0  0  0  0  0  0  0  0  0  0  0  0
   57.5430   31.2620   44.6270 C   0  0  0  0  0  0  0  0  0  0  0  0
   56.5620   26.9720   45.8270 C   0  0  0  0  0  0  0  0  0  0  0  0
   55.2290   26.8320   46.0260 F   0  0  0  0  0  0  0  0  0  0  0  0
   57.4100   25.9150   46.1590 C   0  0  0  0  0  0  0  0  0  0  0  0
   56.9928   24.9930   46.5902 H   0  0  0  0  0  0  0  0  0  0  0  0
   56.5630   21.7750   50.9180 C   0  0  0  0  0  0  0  0  0  0  0  0
   55.9315   22.6297   51.2020 H   0  0  0  0  0  0  0  0  0  0  0  0
   57.0020   20.8720   51.8870 C   0  0  0  0  0  0  0  0  0  0  0  0
   56.7203   21.0153   52.9406 H   0  0  0  0  0  0  0  0  0  0  0  0
   57.8000   19.7850   51.5180 C   0  0  0  0  0  0  0  0  0  0  0  0
   58.1433   19.0640   52.2745 H   0  0  0  0  0  0  0  0  0  0  0  0
  1  2  1  0
  2  3  2  0
  3  4  1  0
  4  5  1  0
  5  6  2  0
  5  7  1  0
  7  8  2  0
  8  9  1  0
  9 10  1  0
 10 11  1  0
 10 12  2  0
 12 13  1  0
 12 14  1  0
 14 15  1  0
 14 16  2  0
 16 17  1  0
 17 18  2  0
 17 19  1  0
 19 20  1  0
 20 21  2  0
 21 22  1  0
 21 23  1  0
 23 24  1  0
 23 25  2  0
 25 26  1  0
 26 27  1  0
 27 28  2  0
 28 29  1  0
 28 30  1  0
 30 31  1  0
 30 32  2  0
 32 33  1  0
 33 34  2  0
 34 35  1  0
 34 36  1  0
 36 37  1  0
 37 38  1  0
 38 39  1  0
 38 40  1  0
 38 41  1  0
 41 42  1  0
 41 43  1  0
 41 44  1  0
 44 45  1  0
 44 46  1  0
 44 47  1  0
 47 48  1  0
 48 49  1  0
 48 50  1  0
 48 51  1  0
 51 52  1  0
 51 53  1  0
 51 54  1  0
 54 55  1  0
 55 56  2  0
 55 57  1  0
 57 58  1  0
 57 59  1  0
 59 60  1  0
 59 61  1  0
 59 62  1  0
 62 63  1  0
 62 64  1  0
 62 65  1  0
 65 66  1  0
 65 67  1  0
 54 68  1  0
 68 69  1  0
 68 70  1  0
 68 71  1  0
 71 72  1  0
 71 73  1  0
 36 74  2  0
 74 75  1  0
 75 76  1  0
 76 77  1  0
 76 78  1  0
 76 79  1  0
 74 80  1  0
 80 81  1  0
 80 82  2  0
 25 83  1  0
 83 84  1  0
 83 85  2  0
 85 86  1  0
  4 87  2  0
 87 88  1  0
 87 89  1  0
 89 90  1  0
 89 91  2  0
 91 92  1  0
 91  2  1  0
 16  8  1  0
 85 20  1  0
 82 27  1  0
 82 33  1  0
 71 47  1  0
 65 57  1  0
M  CHG  2   9  -1  19  -1
M  END
>  <UniqueID>  (77) 
71

>  <SMILES>  (77) 
COc1cc2c(Oc3ccc([N-]C(=O)c4ccc[n-]/c4=N\C(=O)c4ccccn4)cc3F)ccnc2cc1OCCCN1CCN(C(=O)C2CCC2)CC1

>  <Energy>  (77) 
193.79889802196647

>  <Genealogy>  (77) 
COc1cc2c(Oc3ccc([N-]C(=O)c4ccc[n-]c4=NC(=O)c4ccccn4)cc3F)ccnc2cc1OCCCN1CCN(C(=O)C2CCC2)CC1 (protonated)
COc1cc2c(Oc3ccc([N-]C(=O)c4ccc[n-]/c4=N\C(=O)c4ccccn4)cc3F)ccnc2cc1OCCCN1CCN(C(=O)C2CCC2)CC1 (cis-trans isomerization)
COc1cc2c(Oc3ccc([N-]C(=O)c4ccc[n-]/c4=N\C(=O)c4ccccn4)cc3F)ccnc2cc1OCCCN1CCN(C(=O)C2CCC2)CC1 (3D coordinates assigned)
COc1cc2c(Oc3ccc([N-]C(=O)c4ccc[n-]/c4=N\C(=O)c4ccccn4)cc3F)ccnc2cc1OCCCN1CCN(C(=O)C2CCC2)CC1 (nonaromatic ring conformer: 193.79889802196647 kcal/mol)

>  <smiles>  (77) 
COc1cc2c(Oc3ccc(NC(=O)c4ccc[nH]c4=NC(=O)c4ccccn4)cc3F)ccnc2cc1OCCCN1CCN(C(=O)C2CCC2)CC1

>  <score_type>  (77) 
oracle

>  <origin>  (77) 
adg

>  <m_score__min__energy>  (77) 
-13.35

>  <m_primary>  (77) 
energy

$$$$
78:0
     RDKit          3D

 45 47  0  0  0  0  0  0  0  0999 V2000
   54.8450   29.4380   45.7200 H   0  0  0  0  0  0  0  0  0  0  0  0
   55.1450   29.2880   44.7310 N   0  0  0  0  0  0  0  0  0  0  0  0
   56.5850   30.2170   44.4950 S   0  0  0  0  0  0  0  0  0  0  0  0
   57.0990   30.0060   43.0970 O   0  0  0  0  0  0  0  0  0  0  0  0
   56.2770   31.6780   44.6820 O   0  0  0  0  0  0  0  0  0  0  0  0
   57.8060   29.7040   45.6570 C   0  0  0  0  0  0  0  0  0  0  0  0
   57.9110   28.3570   46.0280 C   0  0  0  0  0  0  0  0  0  0  0  0
   57.2060   27.6193   45.6173 H   0  0  0  0  0  0  0  0  0  0  0  0
   58.9070   27.9470   46.9170 C   0  0  0  0  0  0  0  0  0  0  0  0
   58.9808   26.8876   47.2038 H   0  0  0  0  0  0  0  0  0  0  0  0
   59.8160   28.8790   47.4480 C   0  0  0  0  0  0  0  0  0  0  0  0
   60.9210   28.4340   48.3710 C   0  0  0  0  0  0  0  0  0  0  0  0
   61.4564   29.3195   48.7442 H   0  0  0  0  0  0  0  0  0  0  0  0
   61.6036   27.7789   47.8099 H   0  0  0  0  0  0  0  0  0  0  0  0
   60.3690   27.6620   49.5420 C   0  0  0  0  0  0  0  0  0  0  0  0
   60.3960   26.4000   49.5010 O   0  0  0  0  0  0  0  0  0  0  0  0
   59.9870   28.2940   50.7750 N   0  0  0  0  0  0  0  0  0  0  0  0
   59.5640   29.5100   50.9550 C   0  0  0  0  0  0  0  0  0  0  0  0
   58.2460   29.8010   51.0510 N   0  0  0  0  0  0  0  0  0  0  0  0
   58.0250   31.1420   51.1260 C   0  0  0  0  0  0  0  0  0  0  0  0
   57.0180   31.5748   51.2186 H   0  0  0  0  0  0  0  0  0  0  0  0
   59.1750   31.9190   51.0760 C   0  0  0  0  0  0  0  0  0  0  0  0
   59.2420   33.7100   51.0930 S   0  0  0  0  0  0  0  0  0  0  0  0
   60.8150   33.8150   50.1680 C   0  0  0  0  0  0  0  0  0  0  0  0
   61.4433   32.9504   50.4283 H   0  0  0  0  0  0  0  0  0  0  0  0
   61.3183   34.7545   50.4401 H   0  0  0  0  0  0  0  0  0  0  0  0
   60.5710   33.8160   48.6820 C   0  0  0  0  0  0  0  0  0  0  0  0
   61.6510   33.8210   47.7860 C   0  0  0  0  0  0  0  0  0  0  0  0
   62.6844   33.7983   48.1623 H   0  0  0  0  0  0  0  0  0  0  0  0
   61.4020   33.8550   46.4130 C   0  0  0  0  0  0  0  0  0  0  0  0
   62.2409   33.8597   45.7015 H   0  0  0  0  0  0  0  0  0  0  0  0
   60.0870   33.8830   45.9430 C   0  0  0  0  0  0  0  0  0  0  0  0
   59.8843   33.8971   44.8619 H   0  0  0  0  0  0  0  0  0  0  0  0
   59.0280   33.8930   46.8610 C   0  0  0  0  0  0  0  0  0  0  0  0
   57.6090   33.8820   46.3710 C   0  0  0  0  0  0  0  0  0  0  0  0
   56.9239   33.8767   47.2316 H   0  0  0  0  0  0  0  0  0  0  0  0
   57.4247   34.7787   45.7612 H   0  0  0  0  0  0  0  0  0  0  0  0
   57.4386   32.9825   45.7612 H   0  0  0  0  0  0  0  0  0  0  0  0
   59.2920   33.8410   48.1990 N   0  0  0  0  0  0  0  0  0  0  0  0
   58.4960   33.8280   48.8750 H   0  0  0  0  0  0  0  0  0  0  0  0
   60.5100   30.9080   50.9450 S   0  0  0  0  0  0  0  0  0  0  0  0
   59.7160   30.2270   47.0650 C   0  0  0  0  0  0  0  0  0  0  0  0
   60.4295   30.9636   47.4628 H   0  0  0  0  0  0  0  0  0  0  0  0
   58.7120   30.6370   46.1790 C   0  0  0  0  0  0  0  0  0  0  0  0
   58.6342   31.6959   45.8916 H   0  0  0  0  0  0  0  0  0  0  0  0
  1  2  1  0
  2  3  1  0
  3  4  2  0
  3  5  2  0
  3  6  1  0
  6  7  2  0
  7  8  1  0
  7  9  1  0
  9 10  1  0
  9 11  2  0
 11 12  1  0
 12 13  1  0
 12 14  1  0
 12 15  1  0
 15 16  2  0
 15 17  1  0
 17 18  2  0
 18 19  1  0
 19 20  1  0
 20 21  1  0
 20 22  2  0
 22 23  1  0
 23 24  1  0
 24 25  1  0
 24 26  1  0
 24 27  1  0
 27 28  2  0
 28 29  1  0
 28 30  1  0
 30 31  1  0
 30 32  2  0
 32 33  1  0
 32 34  1  0
 34 35  1  0
 35 36  1  0
 35 37  1  0
 35 38  1  0
 34 39  2  0
 39 40  1  0
 22 41  1  0
 11 42  1  0
 42 43  1  0
 42 44  2  0
 44 45  1  0
 44  6  1  0
 41 18  1  0
 39 27  1  0
M  CHG  3   2  -1  19  -1  39   1
M  END
>  <UniqueID>  (78) 
72

>  <SMILES>  (78) 
Cc1cccc(CSc2c[n-]/c(=N/C(=O)Cc3ccc(S([NH-])(=O)=O)cc3)s2)[nH+]1

>  <Energy>  (78) 
76.48636467969159

>  <Genealogy>  (78) 
Cc1cccc(CSc2c[n-]c(=NC(=O)Cc3ccc(S([NH-])(=O)=O)cc3)s2)[nH+]1 (protonated)
Cc1cccc(CSc2c[n-]/c(=N/C(=O)Cc3ccc(S([NH-])(=O)=O)cc3)s2)[nH+]1 (cis-trans isomerization)
Cc1cccc(CSc2c[n-]/c(=N/C(=O)Cc3ccc(S([NH-])(=O)=O)cc3)s2)[nH+]1 (3D coordinates assigned)
Cc1cccc(CSc2c[n-]/c(=N/C(=O)Cc3ccc(S([NH-])(=O)=O)cc3)s2)[nH+]1 (optimized conformer: 76.48636467969159 kcal/mol)

>  <smiles>  (78) 
Cc1cccc(CSc2c[nH]c(=NC(=O)Cc3ccc(S(N)(=O)=O)cc3)s2)n1

>  <score_type>  (78) 
oracle

>  <origin>  (78) 
adg

>  <m_score__min__energy>  (78) 
-10.800000000000001

>  <m_primary>  (78) 
energy

$$$$
79:0
     RDKit          3D

 38 40  0  0  0  0  0  0  0  0999 V2000
   55.1720   26.0220   46.3210 O   0  0  0  0  0  0  0  0  0  0  0  0
   56.2820   25.5810   45.9200 C   0  0  0  0  0  0  0  0  0  0  0  0
   57.4800   26.1980   46.4100 N   0  0  0  0  0  0  0  0  0  0  0  0
   58.0280   27.4480   45.9690 C   0  0  0  0  0  0  0  0  0  0  0  0
   59.3820   27.7130   46.2040 C   0  0  0  0  0  0  0  0  0  0  0  0
   59.9400   28.9330   45.8140 C   0  0  0  0  0  0  0  0  0  0  0  0
   59.1460   29.9030   45.2000 C   0  0  0  0  0  0  0  0  0  0  0  0
   57.7850   29.6570   44.9740 C   0  0  0  0  0  0  0  0  0  0  0  0
   56.7680   30.8800   44.2210 S   0  0  0  0  0  0  0  0  0  0  0  0
   57.3820   31.2870   42.9120 O   0  0  0  0  0  0  0  0  0  0  0  0
   55.3870   30.3410   43.9630 O   0  0  0  0  0  0  0  0  0  0  0  0
   56.6470   32.2710   45.2480 N   0  0  0  0  0  0  0  0  0  0  0  0
   57.7440   33.1060   45.6400 C   0  0  0  0  0  0  0  0  0  0  0  0
   58.2010   34.1690   44.8370 C   0  0  0  0  0  0  0  0  0  0  0  0
   59.2830   34.9510   45.2560 C   0  0  0  0  0  0  0  0  0  0  0  0
   59.9190   34.6760   46.4690 C   0  0  0  0  0  0  0  0  0  0  0  0
   59.4720   33.6210   47.2680 C   0  0  0  0  0  0  0  0  0  0  0  0
   58.3840   32.8440   46.8580 C   0  0  0  0  0  0  0  0  0  0  0  0
   57.2260   28.4330   45.3650 C   0  0  0  0  0  0  0  0  0  0  0  0
   56.3140   24.4080   45.0120 C   0  0  0  0  0  0  0  0  0  0  0  0
   57.5270   23.7930   44.6590 C   0  0  0  0  0  0  0  0  0  0  0  0
   57.5270   22.6580   43.8450 C   0  0  0  0  0  0  0  0  0  0  0  0
   56.3110   22.1390   43.3950 C   0  0  0  0  0  0  0  0  0  0  0  0
   56.2900   21.1090   42.6730 O   0  0  0  0  0  0  0  0  0  0  0  0
   55.1450   22.7440   43.7420 N   0  0  0  0  0  0  0  0  0  0  0  0
   55.1180   23.8500   44.5310 C   0  0  0  0  0  0  0  0  0  0  0  0
   60.0099   26.9570   46.6982 H   0  0  0  0  0  0  0  0  0  0  0  0
   61.0077   29.1296   45.9912 H   0  0  0  0  0  0  0  0  0  0  0  0
   59.5892   30.8619   44.8931 H   0  0  0  0  0  0  0  0  0  0  0  0
   57.7063   34.3849   43.8785 H   0  0  0  0  0  0  0  0  0  0  0  0
   59.6335   35.7840   44.6290 H   0  0  0  0  0  0  0  0  0  0  0  0
   60.7715   35.2900   46.7948 H   0  0  0  0  0  0  0  0  0  0  0  0
   59.9763   33.4012   48.2206 H   0  0  0  0  0  0  0  0  0  0  0  0
   58.0285   32.0217   47.4962 H   0  0  0  0  0  0  0  0  0  0  0  0
   56.1556   28.2417   45.1989 H   0  0  0  0  0  0  0  0  0  0  0  0
   58.4786   24.2063   45.0245 H   0  0  0  0  0  0  0  0  0  0  0  0
   58.4751   22.1778   43.5612 H   0  0  0  0  0  0  0  0  0  0  0  0
   54.1545   24.3108   44.7944 H   0  0  0  0  0  0  0  0  0  0  0  0
  1  2  2  0
  2  3  1  0
  3  4  1  0
  4  5  2  0
  5  6  1  0
  6  7  2  0
  7  8  1  0
  8  9  1  0
  9 10  2  0
  9 11  2  0
  9 12  1  0
 12 13  1  0
 13 14  2  0
 14 15  1  0
 15 16  2  0
 16 17  1  0
 17 18  2  0
  8 19  2  0
  2 20  1  0
 20 21  1  0
 21 22  2  0
 22 23  1  0
 23 24  2  0
 23 25  1  0
 25 26  1  0
 19  4  1  0
 26 20  2  0
 18 13  1  0
  5 27  1  0
  6 28  1  0
  7 29  1  0
 14 30  1  0
 15 31  1  0
 16 32  1  0
 17 33  1  0
 18 34  1  0
 19 35  1  0
 21 36  1  0
 22 37  1  0
 26 38  1  0
M  CHG  3   3  -1  12  -1  25  -1
M  END
>  <UniqueID>  (79) 
73

>  <SMILES>  (79) 
O=C([N-]c1cccc(S(=O)(=O)[N-]c2ccccc2)c1)c1ccc(=O)[n-]c1

>  <Energy>  (79) 
48.15786515077588

>  <Genealogy>  (79) 
O=C([N-]c1cccc(S(=O)(=O)[N-]c2ccccc2)c1)c1ccc(=O)[n-]c1 (protonated)
O=C([N-]c1cccc(S(=O)(=O)[N-]c2ccccc2)c1)c1ccc(=O)[n-]c1 (3D coordinates assigned)
O=C([N-]c1cccc(S(=O)(=O)[N-]c2ccccc2)c1)c1ccc(=O)[n-]c1 (optimized conformer: 48.15786515077588 kcal/mol)

>  <smiles>  (79) 
O=C(Nc1cccc(S(=O)(=O)Nc2ccccc2)c1)c1ccc(=O)[nH]c1

>  <score_type>  (79) 
oracle

>  <origin>  (79) 
adg

>  <m_score__min__energy>  (79) 
-14.109999999999999

>  <m_primary>  (79) 
energy

$$$$
80:0
     RDKit          3D

 34 35  0  0  0  0  0  0  0  0999 V2000
   57.9486   32.9445   43.0911 H   0  0  0  0  0  0  0  0  0  0  0  0
   57.9490   32.7250   44.1690 C   0  0  0  0  0  0  0  0  0  0  0  0
   58.2160   33.7280   45.0200 C   0  0  0  0  0  0  0  0  0  0  0  0
   57.8408   34.7321   44.7732 H   0  0  0  0  0  0  0  0  0  0  0  0
   58.9890   33.5580   46.2750 C   0  0  0  0  0  0  0  0  0  0  0  0
   58.3030   33.1690   47.4370 C   0  0  0  0  0  0  0  0  0  0  0  0
   57.2180   32.9925   47.3960 H   0  0  0  0  0  0  0  0  0  0  0  0
   58.9860   33.0040   48.6450 C   0  0  0  0  0  0  0  0  0  0  0  0
   58.2960   32.6090   49.7830 O   0  0  0  0  0  0  0  0  0  0  0  0
   60.3620   33.2380   48.7090 C   0  0  0  0  0  0  0  0  0  0  0  0
   60.8973   33.1017   49.6602 H   0  0  0  0  0  0  0  0  0  0  0  0
   61.0650   33.6470   47.5620 C   0  0  0  0  0  0  0  0  0  0  0  0
   62.4430   33.9080   47.5790 O   0  0  0  0  0  0  0  0  0  0  0  0
   63.2860   33.8540   46.4320 C   0  0  0  0  0  0  0  0  0  0  0  0
   64.3363   33.7867   46.7518 H   0  0  0  0  0  0  0  0  0  0  0  0
   63.0289   32.9705   45.8293 H   0  0  0  0  0  0  0  0  0  0  0  0
   63.1437   34.7631   45.8293 H   0  0  0  0  0  0  0  0  0  0  0  0
   60.3730   33.8080   46.3540 C   0  0  0  0  0  0  0  0  0  0  0  0
   60.9178   34.1339   45.4557 H   0  0  0  0  0  0  0  0  0  0  0  0
   57.6540   31.3350   44.6020 C   0  0  0  0  0  0  0  0  0  0  0  0
   58.6180   30.5090   45.2110 C   0  0  0  0  0  0  0  0  0  0  0  0
   59.6328   30.8942   45.3891 H   0  0  0  0  0  0  0  0  0  0  0  0
   58.2950   29.2030   45.5910 C   0  0  0  0  0  0  0  0  0  0  0  0
   59.0549   28.5702   46.0728 H   0  0  0  0  0  0  0  0  0  0  0  0
   57.0040   28.6930   45.3610 C   0  0  0  0  0  0  0  0  0  0  0  0
   56.6360   27.3890   45.7270 O   0  0  0  0  0  0  0  0  0  0  0  0
   57.5530   26.3810   46.1400 C   0  0  0  0  0  0  0  0  0  0  0  0
   57.5867   26.3439   47.2389 H   0  0  0  0  0  0  0  0  0  0  0  0
   57.2260   25.4058   45.7501 H   0  0  0  0  0  0  0  0  0  0  0  0
   58.5547   26.6146   45.7501 H   0  0  0  0  0  0  0  0  0  0  0  0
   56.0490   29.5080   44.7400 C   0  0  0  0  0  0  0  0  0  0  0  0
   54.7700   29.0210   44.4980 O   0  0  0  0  0  0  0  0  0  0  0  0
   56.3730   30.8150   44.3590 C   0  0  0  0  0  0  0  0  0  0  0  0
   55.6161   31.4412   43.8641 H   0  0  0  0  0  0  0  0  0  0  0  0
  1  2  1  0
  2  3  2  0
  3  4  1  0
  3  5  1  0
  5  6  2  0
  6  7  1  0
  6  8  1  0
  8  9  1  0
  8 10  2  0
 10 11  1  0
 10 12  1  0
 12 13  1  0
 13 14  1  0
 14 15  1  0
 14 16  1  0
 14 17  1  0
 12 18  2  0
 18 19  1  0
  2 20  1  0
 20 21  2  0
 21 22  1  0
 21 23  1  0
 23 24  1  0
 23 25  2  0
 25 26  1  0
 26 27  1  0
 27 28  1  0
 27 29  1  0
 27 30  1  0
 25 31  1  0
 31 32  1  0
 31 33  2  0
 33 34  1  0
 18  5  1  0
 33 20  1  0
M  CHG  2   9  -1  32  -1
M  END
>  <UniqueID>  (80) 
74

>  <SMILES>  (80) 
COc1cc([O-])cc(/C=C/c2ccc(OC)c([O-])c2)c1

>  <Energy>  (80) 
38.78058043021478

>  <Genealogy>  (80) 
COc1cc([O-])cc(C=Cc2ccc(OC)c([O-])c2)c1 (protonated)
COc1cc([O-])cc(/C=C/c2ccc(OC)c([O-])c2)c1 (cis-trans isomerization)
COc1cc([O-])cc(/C=C/c2ccc(OC)c([O-])c2)c1 (3D coordinates assigned)
COc1cc([O-])cc(/C=C/c2ccc(OC)c([O-])c2)c1 (optimized conformer: 38.78058043021478 kcal/mol)

>  <smiles>  (80) 
COc1cc(O)cc(C=Cc2ccc(OC)c(O)c2)c1

>  <score_type>  (80) 
oracle

>  <origin>  (80) 
adg

>  <m_score__min__energy>  (80) 
-12.880000000000001

>  <m_primary>  (80) 
energy

$$$$
81:0
     RDKit          3D

 39 41  0  0  0  0  0  0  0  0999 V2000
   58.1557   32.4767   49.4592 H   0  0  0  0  0  0  0  0  0  0  0  0
   58.8160   31.8650   48.8270 C   0  0  0  0  0  0  0  0  0  0  0  0
   59.7630   31.1400   49.4360 C   0  0  0  0  0  0  0  0  0  0  0  0
   59.9392   31.3077   50.5088 H   0  0  0  0  0  0  0  0  0  0  0  0
   60.5610   30.1540   48.7600 N   0  0  0  0  0  0  0  0  0  0  0  0
   61.4940   30.5530   47.7040 C   0  0  0  0  0  0  0  0  0  0  0  0
   62.4152   30.9469   48.1582 H   0  0  0  0  0  0  0  0  0  0  0  0
   61.7370   29.6801   47.0803 H   0  0  0  0  0  0  0  0  0  0  0  0
   61.0307   31.3317   47.0803 H   0  0  0  0  0  0  0  0  0  0  0  0
   60.0880   28.7710   48.7670 C   0  0  0  0  0  0  0  0  0  0  0  0
   59.9710   28.4288   49.8058 H   0  0  0  0  0  0  0  0  0  0  0  0
   59.1187   28.7124   48.2502 H   0  0  0  0  0  0  0  0  0  0  0  0
   60.8184   28.1311   48.2502 H   0  0  0  0  0  0  0  0  0  0  0  0
   58.5950   31.9020   47.3690 C   0  0  0  0  0  0  0  0  0  0  0  0
   58.7570   32.9990   46.5170 C   0  0  0  0  0  0  0  0  0  0  0  0
   59.2170   34.6820   46.9480 S   0  0  0  0  0  0  0  0  0  0  0  0
   60.8900   34.2120   47.3880 C   0  0  0  0  0  0  0  0  0  0  0  0
   61.8000   33.8440   46.3880 C   0  0  0  0  0  0  0  0  0  0  0  0
   61.4894   33.8501   45.3328 H   0  0  0  0  0  0  0  0  0  0  0  0
   63.1030   33.4690   46.7310 C   0  0  0  0  0  0  0  0  0  0  0  0
   63.8160   33.1778   45.9456 H   0  0  0  0  0  0  0  0  0  0  0  0
   63.5000   33.4640   48.0720 C   0  0  0  0  0  0  0  0  0  0  0  0
   64.5242   33.1666   48.3414 H   0  0  0  0  0  0  0  0  0  0  0  0
   62.5950   33.8370   49.0700 C   0  0  0  0  0  0  0  0  0  0  0  0
   62.9080   33.8340   50.1245 H   0  0  0  0  0  0  0  0  0  0  0  0
   61.2920   34.2140   48.7290 C   0  0  0  0  0  0  0  0  0  0  0  0
   60.5826   34.5123   49.5150 H   0  0  0  0  0  0  0  0  0  0  0  0
   58.3610   32.5620   45.2710 C   0  0  0  0  0  0  0  0  0  0  0  0
   58.2910   33.2240   44.0450 C   0  0  0  0  0  0  0  0  0  0  0  0
   58.6020   34.2746   43.9472 H   0  0  0  0  0  0  0  0  0  0  0  0
   57.8090   32.5020   42.9380 C   0  0  0  0  0  0  0  0  0  0  0  0
   57.7448   32.9895   41.9540 H   0  0  0  0  0  0  0  0  0  0  0  0
   57.4070   31.1560   43.0810 C   0  0  0  0  0  0  0  0  0  0  0  0
   57.0318   30.6023   42.2077 H   0  0  0  0  0  0  0  0  0  0  0  0
   57.4830   30.5180   44.3330 C   0  0  0  0  0  0  0  0  0  0  0  0
   57.1704   29.4706   44.4565 H   0  0  0  0  0  0  0  0  0  0  0  0
   57.9670   31.2560   45.4110 C   0  0  0  0  0  0  0  0  0  0  0  0
   58.0950   30.8470   46.6850 N   0  0  0  0  0  0  0  0  0  0  0  0
   57.8520   29.9070   47.0700 H   0  0  0  0  0  0  0  0  0  0  0  0
  1  2  1  0
  2  3  2  0
  3  4  1  0
  3  5  1  0
  5  6  1  0
  6  7  1  0
  6  8  1  0
  6  9  1  0
  5 10  1  0
 10 11  1  0
 10 12  1  0
 10 13  1  0
  2 14  1  0
 14 15  2  0
 15 16  1  0
 16 17  1  0
 17 18  2  0
 18 19  1  0
 18 20  1  0
 20 21  1  0
 20 22  2  0
 22 23  1  0
 22 24  1  0
 24 25  1  0
 24 26  2  0
 26 27  1  0
 15 28  1  0
 28 29  2  0
 29 30  1  0
 29 31  1  0
 31 32  1  0
 31 33  2  0
 33 34  1  0
 33 35  1  0
 35 36  1  0
 35 37  2  0
 37 38  1  0
 38 39  1  0
 38 14  1  0
 26 17  1  0
 37 28  1  0
M  END
>  <UniqueID>  (81) 
75

>  <SMILES>  (81) 
CN(C)/C=C\c1[nH]c2ccccc2c1Sc1ccccc1

>  <Energy>  (81) 
75.22748805458079

>  <Genealogy>  (81) 
CN(C)/C=C\c1[nH]c2ccccc2c1Sc1ccccc1 (cis-trans isomerization)
CN(C)/C=C\c1[nH]c2ccccc2c1Sc1ccccc1 (3D coordinates assigned)
CN(C)/C=C\c1[nH]c2ccccc2c1Sc1ccccc1 (optimized conformer: 75.22748805458079 kcal/mol)

>  <smiles>  (81) 
CN(C)C=Cc1[nH]c2ccccc2c1Sc1ccccc1

>  <score_type>  (81) 
oracle

>  <origin>  (81) 
adg

>  <m_score__min__energy>  (81) 
-6.6200000000000001

>  <m_primary>  (81) 
energy

$$$$
82:0
     RDKit          3D

 49 52  0  0  0  0  0  0  0  0999 V2000
   60.8960   28.2520   55.9580 C   0  0  0  0  0  0  0  0  0  0  0  0
   60.6380   29.1140   54.8550 O   0  0  0  0  0  0  0  0  0  0  0  0
   59.3800   29.3100   54.2640 C   0  0  0  0  0  0  0  0  0  0  0  0
   58.3920   28.2890   54.3080 C   0  0  0  0  0  0  0  0  0  0  0  0
   57.1300   28.4770   53.7300 C   0  0  0  0  0  0  0  0  0  0  0  0
   56.8750   29.6870   53.0980 C   0  0  0  0  0  0  0  0  0  0  0  0
   55.7370   30.1420   52.4580 C   0  0  0  0  0  0  0  0  0  0  0  0
   54.4690   29.3870   52.1900 C   0  0  0  0  0  0  0  0  0  0  0  0
   53.3040   30.3360   52.1320 C   0  0  0  0  0  0  0  0  0  0  0  0
   52.9400   30.9450   50.9190 C   0  0  0  0  0  0  0  0  0  0  0  0
   51.8790   31.8540   50.8770 C   0  0  0  0  0  0  0  0  0  0  0  0
   51.1800   32.1700   52.0460 C   0  0  0  0  0  0  0  0  0  0  0  0
   50.1260   33.0750   52.0030 O   0  0  0  0  0  0  0  0  0  0  0  0
   51.5410   31.5740   53.2590 C   0  0  0  0  0  0  0  0  0  0  0  0
   52.6010   30.6640   53.3030 C   0  0  0  0  0  0  0  0  0  0  0  0
   56.0480   31.4100   51.9900 C   0  0  0  0  0  0  0  0  0  0  0  0
   57.3130   31.7420   52.3400 N   0  0  0  0  0  0  0  0  0  0  0  0
   57.9860   32.9400   51.9260 C   0  0  0  0  0  0  0  0  0  0  0  0
   57.8190   34.0010   52.5860 O   0  0  0  0  0  0  0  0  0  0  0  0
   58.9060   32.9340   50.7620 C   0  0  0  0  0  0  0  0  0  0  0  0
   58.5280   32.3070   49.5610 C   0  0  0  0  0  0  0  0  0  0  0  0
   59.3950   32.2940   48.4640 C   0  0  0  0  0  0  0  0  0  0  0  0
   60.6510   32.9010   48.5550 C   0  0  0  0  0  0  0  0  0  0  0  0
   61.7380   32.8810   47.1790 Cl  0  0  0  0  0  0  0  0  0  0  0  0
   61.0420   33.5170   49.7480 C   0  0  0  0  0  0  0  0  0  0  0  0
   60.1770   33.5320   50.8460 C   0  0  0  0  0  0  0  0  0  0  0  0
   57.8180   30.6820   53.0170 C   0  0  0  0  0  0  0  0  0  0  0  0
   59.0860   30.5460   53.6130 C   0  0  0  0  0  0  0  0  0  0  0  0
   59.9770   31.6330   53.5540 O   0  0  0  0  0  0  0  0  0  0  0  0
   61.3840   31.5650   53.3480 C   0  0  0  0  0  0  0  0  0  0  0  0
   60.7320   28.7998   56.8977 H   0  0  0  0  0  0  0  0  0  0  0  0
   60.2172   27.3875   55.9143 H   0  0  0  0  0  0  0  0  0  0  0  0
   61.9381   27.9026   55.9143 H   0  0  0  0  0  0  0  0  0  0  0  0
   58.6224   27.3349   54.8045 H   0  0  0  0  0  0  0  0  0  0  0  0
   56.3635   27.6894   53.7754 H   0  0  0  0  0  0  0  0  0  0  0  0
   54.5563   28.8591   51.2289 H   0  0  0  0  0  0  0  0  0  0  0  0
   54.3031   28.6630   53.0014 H   0  0  0  0  0  0  0  0  0  0  0  0
   53.4925   30.7053   49.9985 H   0  0  0  0  0  0  0  0  0  0  0  0
   51.5936   32.3214   49.9230 H   0  0  0  0  0  0  0  0  0  0  0  0
   50.9904   31.8216   54.1786 H   0  0  0  0  0  0  0  0  0  0  0  0
   52.8862   30.2022   54.2598 H   0  0  0  0  0  0  0  0  0  0  0  0
   55.3647   32.0537   51.4166 H   0  0  0  0  0  0  0  0  0  0  0  0
   57.5430   31.8233   49.4842 H   0  0  0  0  0  0  0  0  0  0  0  0
   59.0881   31.8052   47.5276 H   0  0  0  0  0  0  0  0  0  0  0  0
   62.0320   33.9906   49.8225 H   0  0  0  0  0  0  0  0  0  0  0  0
   60.4922   34.0149   51.7827 H   0  0  0  0  0  0  0  0  0  0  0  0
   61.8963   31.5402   54.3211 H   0  0  0  0  0  0  0  0  0  0  0  0
   61.6281   30.6540   52.7819 H   0  0  0  0  0  0  0  0  0  0  0  0
   61.7148   32.4482   52.7819 H   0  0  0  0  0  0  0  0  0  0  0  0
  1  2  1  0
  2  3  1  0
  3  4  2  0
  4  5  1  0
  5  6  2  0
  6  7  1  0
  7  8  1  0
  8  9  1  0
  9 10  2  0
 10 11  1  0
 11 12  2  0
 12 13  1  0
 12 14  1  0
 14 15  2  0
  7 16  2  0
 16 17  1  0
 17 18  1  0
 18 19  2  0
 18 20  1  0
 20 21  2  0
 21 22  1  0
 22 23  2  0
 23 24  1  0
 23 25  1  0
 25 26  2  0
 17 27  1  0
 27 28  2  0
 28 29  1  0
 29 30  1  0
 28  3  1  0
 27  6  1  0
 15  9  1  0
 26 20  1  0
  1 31  1  0
  1 32  1  0
  1 33  1  0
  4 34  1  0
  5 35  1  0
  8 36  1  0
  8 37  1  0
 10 38  1  0
 11 39  1  0
 14 40  1  0
 15 41  1  0
 16 42  1  0
 21 43  1  0
 22 44  1  0
 25 45  1  0
 26 46  1  0
 30 47  1  0
 30 48  1  0
 30 49  1  0
M  CHG  1  13  -1
M  END
>  <UniqueID>  (82) 
76

>  <SMILES>  (82) 
COc1ccc2c(Cc3ccc([O-])cc3)cn(C(=O)c3ccc(Cl)cc3)c2c1OC

>  <Energy>  (82) 
94.18184312226511

>  <Genealogy>  (82) 
COc1ccc2c(Cc3ccc([O-])cc3)cn(C(=O)c3ccc(Cl)cc3)c2c1OC (protonated)
COc1ccc2c(Cc3ccc([O-])cc3)cn(C(=O)c3ccc(Cl)cc3)c2c1OC (3D coordinates assigned)
COc1ccc2c(Cc3ccc([O-])cc3)cn(C(=O)c3ccc(Cl)cc3)c2c1OC (optimized conformer: 94.18184312226511 kcal/mol)

>  <smiles>  (82) 
COc1ccc2c(Cc3ccc(O)cc3)cn(C(=O)c3ccc(Cl)cc3)c2c1OC

>  <score_type>  (82) 
oracle

>  <origin>  (82) 
adg

>  <m_score__min__energy>  (82) 
-11.199999999999999

>  <m_primary>  (82) 
energy

$$$$
83:0
     RDKit          3D

 39 41  0  0  0  0  0  0  0  0999 V2000
   63.2550   33.3900   47.0890 C   0  0  0  0  0  0  0  0  0  0  0  0
   61.9110   32.7250   47.1290 C   0  0  0  0  0  0  0  0  0  0  0  0
   61.8030   31.3710   47.4770 C   0  0  0  0  0  0  0  0  0  0  0  0
   60.5490   30.7610   47.5490 C   0  0  0  0  0  0  0  0  0  0  0  0
   59.3920   31.5000   47.2860 C   0  0  0  0  0  0  0  0  0  0  0  0
   59.4840   32.8660   46.9500 C   0  0  0  0  0  0  0  0  0  0  0  0
   58.3550   33.6570   46.6800 O   0  0  0  0  0  0  0  0  0  0  0  0
   57.8800   33.9970   45.3780 C   0  0  0  0  0  0  0  0  0  0  0  0
   57.5260   32.7620   44.6090 C   0  0  0  0  0  0  0  0  0  0  0  0
   58.0620   32.3870   43.3940 C   0  0  0  0  0  0  0  0  0  0  0  0
   57.4570   31.1910   43.0730 C   0  0  0  0  0  0  0  0  0  0  0  0
   56.5990   30.9080   44.1230 C   0  0  0  0  0  0  0  0  0  0  0  0
   55.7100   29.7390   44.2430 C   0  0  0  0  0  0  0  0  0  0  0  0
   54.7750   29.5970   43.4120 O   0  0  0  0  0  0  0  0  0  0  0  0
   55.9100   28.7270   45.2380 N   0  0  0  0  0  0  0  0  0  0  0  0
   57.1520   28.0770   45.5430 C   0  0  0  0  0  0  0  0  0  0  0  0
   57.1380   26.9280   46.3440 C   0  0  0  0  0  0  0  0  0  0  0  0
   58.3340   26.2820   46.6720 C   0  0  0  0  0  0  0  0  0  0  0  0
   59.5530   26.7880   46.2130 C   0  0  0  0  0  0  0  0  0  0  0  0
   59.5780   27.9470   45.4320 C   0  0  0  0  0  0  0  0  0  0  0  0
   61.1100   28.5930   44.8700 Cl  0  0  0  0  0  0  0  0  0  0  0  0
   58.3840   28.5980   45.1040 C   0  0  0  0  0  0  0  0  0  0  0  0
   56.6610   31.8640   45.0200 O   0  0  0  0  0  0  0  0  0  0  0  0
   60.7460   33.4690   46.8830 C   0  0  0  0  0  0  0  0  0  0  0  0
   63.6083   33.5648   48.1159 H   0  0  0  0  0  0  0  0  0  0  0  0
   63.9694   32.7414   46.5609 H   0  0  0  0  0  0  0  0  0  0  0  0
   63.1728   34.3514   46.5609 H   0  0  0  0  0  0  0  0  0  0  0  0
   62.7096   30.7871   47.6941 H   0  0  0  0  0  0  0  0  0  0  0  0
   60.4714   29.6961   47.8134 H   0  0  0  0  0  0  0  0  0  0  0  0
   58.4067   31.0141   47.3414 H   0  0  0  0  0  0  0  0  0  0  0  0
   56.9871   34.6324   45.4731 H   0  0  0  0  0  0  0  0  0  0  0  0
   58.6737   34.5357   44.8396 H   0  0  0  0  0  0  0  0  0  0  0  0
   58.8154   32.9298   42.8043 H   0  0  0  0  0  0  0  0  0  0  0  0
   57.6216   30.5859   42.1693 H   0  0  0  0  0  0  0  0  0  0  0  0
   56.1818   26.5320   46.7167 H   0  0  0  0  0  0  0  0  0  0  0  0
   58.3152   25.3739   47.2925 H   0  0  0  0  0  0  0  0  0  0  0  0
   60.4923   26.2746   46.4661 H   0  0  0  0  0  0  0  0  0  0  0  0
   58.4078   29.5184   44.5021 H   0  0  0  0  0  0  0  0  0  0  0  0
   60.8255   34.5377   46.6348 H   0  0  0  0  0  0  0  0  0  0  0  0
  1  2  1  0
  2  3  2  0
  3  4  1  0
  4  5  2  0
  5  6  1  0
  6  7  1  0
  7  8  1  0
  8  9  1  0
  9 10  2  0
 10 11  1  0
 11 12  2  0
 12 13  1  0
 13 14  2  0
 13 15  1  0
 15 16  1  0
 16 17  2  0
 17 18  1  0
 18 19  2  0
 19 20  1  0
 20 21  1  0
 20 22  2  0
 12 23  1  0
  6 24  2  0
 24  2  1  0
 23  9  1  0
 22 16  1  0
  1 25  1  0
  1 26  1  0
  1 27  1  0
  3 28  1  0
  4 29  1  0
  5 30  1  0
  8 31  1  0
  8 32  1  0
 10 33  1  0
 11 34  1  0
 17 35  1  0
 18 36  1  0
 19 37  1  0
 22 38  1  0
 24 39  1  0
M  CHG  1  15  -1
M  END
>  <UniqueID>  (83) 
77

>  <SMILES>  (83) 
Cc1cccc(OCc2ccc(C(=O)[N-]c3cccc(Cl)c3)o2)c1

>  <Energy>  (83) 
70.47037218512796

>  <Genealogy>  (83) 
Cc1cccc(OCc2ccc(C(=O)[N-]c3cccc(Cl)c3)o2)c1 (protonated)
Cc1cccc(OCc2ccc(C(=O)[N-]c3cccc(Cl)c3)o2)c1 (3D coordinates assigned)
Cc1cccc(OCc2ccc(C(=O)[N-]c3cccc(Cl)c3)o2)c1 (optimized conformer: 70.47037218512796 kcal/mol)

>  <smiles>  (83) 
Cc1cccc(OCc2ccc(C(=O)Nc3cccc(Cl)c3)o2)c1

>  <score_type>  (83) 
oracle

>  <origin>  (83) 
adg

>  <m_score__min__energy>  (83) 
-10.67

>  <m_primary>  (83) 
energy

$$$$
84:0
     RDKit          3D

 82 87  0  0  0  0  0  0  0  0999 V2000
   55.7850   21.5940   51.3630 C   0  0  0  0  0  0  0  0  0  0  0  0
   57.0250   21.8210   50.7070 O   0  0  0  0  0  0  0  0  0  0  0  0
   58.2120   21.1200   50.9790 C   0  0  0  0  0  0  0  0  0  0  0  0
   59.2300   21.6600   51.7930 C   0  0  0  0  0  0  0  0  0  0  0  0
   60.3980   20.9250   52.0580 C   0  0  0  0  0  0  0  0  0  0  0  0
   61.4110   21.4260   52.9000 C   0  0  0  0  0  0  0  0  0  0  0  0
   61.2670   22.6900   53.4970 O   0  0  0  0  0  0  0  0  0  0  0  0
   61.3380   23.8880   52.7830 C   0  0  0  0  0  0  0  0  0  0  0  0
   62.5510   24.3030   52.2260 C   0  0  0  0  0  0  0  0  0  0  0  0
   62.6440   25.5450   51.5910 C   0  0  0  0  0  0  0  0  0  0  0  0
   61.5170   26.3810   51.5030 C   0  0  0  0  0  0  0  0  0  0  0  0
   61.5930   27.6790   50.8930 N   0  0  0  0  0  0  0  0  0  0  0  0
   60.9890   28.8530   51.4550 C   0  0  0  0  0  0  0  0  0  0  0  0
   60.2910   28.7690   52.4990 O   0  0  0  0  0  0  0  0  0  0  0  0
   61.1140   30.1560   50.7730 C   0  0  0  0  0  0  0  0  0  0  0  0
   59.9970   30.9940   50.6450 C   0  0  0  0  0  0  0  0  0  0  0  0
   60.1020   32.2150   49.9740 C   0  0  0  0  0  0  0  0  0  0  0  0
   61.3380   32.6430   49.4570 C   0  0  0  0  0  0  0  0  0  0  0  0
   61.4660   33.9380   48.7400 C   0  0  0  0  0  0  0  0  0  0  0  0
   61.8620   34.9560   49.3690 O   0  0  0  0  0  0  0  0  0  0  0  0
   61.2200   34.0610   47.3310 N   0  0  0  0  0  0  0  0  0  0  0  0
   59.9830   33.7960   46.6530 C   0  0  0  0  0  0  0  0  0  0  0  0
   59.3770   34.8250   45.9210 C   0  0  0  0  0  0  0  0  0  0  0  0
   58.1790   34.5970   45.2370 C   0  0  0  0  0  0  0  0  0  0  0  0
   57.5630   33.3430   45.3030 C   0  0  0  0  0  0  0  0  0  0  0  0
   58.1450   32.3180   46.0540 C   0  0  0  0  0  0  0  0  0  0  0  0
   59.3480   32.5420   46.7320 C   0  0  0  0  0  0  0  0  0  0  0  0
   62.4560   31.7990   49.5870 C   0  0  0  0  0  0  0  0  0  0  0  0
   62.3430   30.5650   50.2350 C   0  0  0  0  0  0  0  0  0  0  0  0
   60.2880   25.9290   52.0040 C   0  0  0  0  0  0  0  0  0  0  0  0
   60.2010   24.6900   52.6450 C   0  0  0  0  0  0  0  0  0  0  0  0
   59.0120   24.2770   53.1520 F   0  0  0  0  0  0  0  0  0  0  0  0
   62.5560   20.6370   53.1280 C   0  0  0  0  0  0  0  0  0  0  0  0
   62.6700   19.3820   52.5270 C   0  0  0  0  0  0  0  0  0  0  0  0
   61.6770   18.9160   51.7280 N   0  0  0  0  0  0  0  0  0  0  0  0
   60.5560   19.6440   51.4810 C   0  0  0  0  0  0  0  0  0  0  0  0
   59.5500   19.1120   50.6710 C   0  0  0  0  0  0  0  0  0  0  0  0
   58.3670   19.8380   50.4290 C   0  0  0  0  0  0  0  0  0  0  0  0
   57.3170   19.3190   49.6490 O   0  0  0  0  0  0  0  0  0  0  0  0
   56.7190   19.9710   48.5260 C   0  0  0  0  0  0  0  0  0  0  0  0
   57.7420   20.1410   47.3970 C   0  0  0  0  0  0  0  0  0  0  0  0
   57.3140   21.2570   46.4320 C   0  0  0  0  0  0  0  0  0  0  0  0
   57.0610   22.5530   47.1000 N   0  0  0  0  0  0  0  0  0  0  0  0
   55.6920   22.7580   47.6100 C   0  0  0  0  0  0  0  0  0  0  0  0
   54.8620   23.6740   46.7000 C   0  0  0  0  0  0  0  0  0  0  0  0
   55.5500   24.8790   46.4500 O   0  0  0  0  0  0  0  0  0  0  0  0
   56.7020   24.5970   45.6850 C   0  0  0  0  0  0  0  0  0  0  0  0
   57.6950   23.7360   46.4800 C   0  0  0  0  0  0  0  0  0  0  0  0
   55.9360   21.6216   52.4522 H   0  0  0  0  0  0  0  0  0  0  0  0
   55.0679   22.3758   51.0723 H   0  0  0  0  0  0  0  0  0  0  0  0
   55.3913   20.6089   51.0723 H   0  0  0  0  0  0  0  0  0  0  0  0
   59.1084   22.6648   52.2238 H   0  0  0  0  0  0  0  0  0  0  0  0
   63.4346   23.6507   52.2875 H   0  0  0  0  0  0  0  0  0  0  0  0
   63.6021   25.8693   51.1588 H   0  0  0  0  0  0  0  0  0  0  0  0
   61.9320   27.7290   49.9080 H   0  0  0  0  0  0  0  0  0  0  0  0
   59.0321   30.6882   51.0756 H   0  0  0  0  0  0  0  0  0  0  0  0
   59.2104   32.8470   49.8490 H   0  0  0  0  0  0  0  0  0  0  0  0
   59.8466   35.8190   45.8840 H   0  0  0  0  0  0  0  0  0  0  0  0
   57.7208   35.4042   44.6467 H   0  0  0  0  0  0  0  0  0  0  0  0
   56.6210   33.1636   44.7641 H   0  0  0  0  0  0  0  0  0  0  0  0
   57.6566   31.3341   46.1120 H   0  0  0  0  0  0  0  0  0  0  0  0
   59.7993   31.7357   47.3288 H   0  0  0  0  0  0  0  0  0  0  0  0
   63.4269   32.1123   49.1756 H   0  0  0  0  0  0  0  0  0  0  0  0
   63.2232   29.9112   50.3233 H   0  0  0  0  0  0  0  0  0  0  0  0
   59.3884   26.5521   51.8921 H   0  0  0  0  0  0  0  0  0  0  0  0
   63.3600   21.0099   53.7795 H   0  0  0  0  0  0  0  0  0  0  0  0
   63.5669   18.7695   52.7015 H   0  0  0  0  0  0  0  0  0  0  0  0
   59.6825   18.1182   50.2184 H   0  0  0  0  0  0  0  0  0  0  0  0
   55.8758   19.3653   48.1624 H   0  0  0  0  0  0  0  0  0  0  0  0
   56.3651   20.9646   48.8382 H   0  0  0  0  0  0  0  0  0  0  0  0
   58.7194   20.3966   47.8322 H   0  0  0  0  0  0  0  0  0  0  0  0
   57.8059   19.1970   46.8360 H   0  0  0  0  0  0  0  0  0  0  0  0
   58.1122   21.3989   45.6885 H   0  0  0  0  0  0  0  0  0  0  0  0
   56.3660   20.9403   45.9727 H   0  0  0  0  0  0  0  0  0  0  0  0
   55.1909   21.7813   47.6805 H   0  0  0  0  0  0  0  0  0  0  0  0
   55.7689   23.2423   48.5947 H   0  0  0  0  0  0  0  0  0  0  0  0
   54.6730   23.1607   45.7456 H   0  0  0  0  0  0  0  0  0  0  0  0
   53.9109   23.9057   47.2018 H   0  0  0  0  0  0  0  0  0  0  0  0
   56.4053   24.0556   44.7746 H   0  0  0  0  0  0  0  0  0  0  0  0
   57.1917   25.5474   45.4265 H   0  0  0  0  0  0  0  0  0  0  0  0
   58.4870   23.3931   45.7980 H   0  0  0  0  0  0  0  0  0  0  0  0
   58.0968   24.3595   47.2922 H   0  0  0  0  0  0  0  0  0  0  0  0
  1  2  1  0
  2  3  1  0
  3  4  2  0
  4  5  1  0
  5  6  2  0
  6  7  1  0
  7  8  1  0
  8  9  2  0
  9 10  1  0
 10 11  2  0
 11 12  1  0
 12 13  1  0
 13 14  2  0
 13 15  1  0
 15 16  2  0
 16 17  1  0
 17 18  2  0
 18 19  1  0
 19 20  2  0
 19 21  1  0
 21 22  1  0
 22 23  2  0
 23 24  1  0
 24 25  2  0
 25 26  1  0
 26 27  2  0
 18 28  1  0
 28 29  2  0
 11 30  1  0
 30 31  2  0
 31 32  1  0
  6 33  1  0
 33 34  2  0
 34 35  1  0
 35 36  2  0
 36 37  1  0
 37 38  2  0
 38 39  1  0
 39 40  1  0
 40 41  1  0
 41 42  1  0
 42 43  1  0
 43 44  1  0
 44 45  1  0
 45 46  1  0
 46 47  1  0
 47 48  1  0
 38  3  1  0
 48 43  1  0
 36  5  1  0
 31  8  1  0
 29 15  1  0
 27 22  1  0
  1 49  1  0
  1 50  1  0
  1 51  1  0
  4 52  1  0
  9 53  1  0
 10 54  1  0
 12 55  1  0
 16 56  1  0
 17 57  1  0
 23 58  1  0
 24 59  1  0
 25 60  1  0
 26 61  1  0
 27 62  1  0
 28 63  1  0
 29 64  1  0
 30 65  1  0
 33 66  1  0
 34 67  1  0
 37 68  1  0
 40 69  1  0
 40 70  1  0
 41 71  1  0
 41 72  1  0
 42 73  1  0
 42 74  1  0
 44 75  1  0
 44 76  1  0
 45 77  1  0
 45 78  1  0
 47 79  1  0
 47 80  1  0
 48 81  1  0
 48 82  1  0
M  CHG  1  21  -1
M  END
>  <UniqueID>  (84) 
78

>  <SMILES>  (84) 
COc1cc2c(Oc3ccc(NC(=O)c4ccc(C(=O)[N-]c5ccccc5)cc4)cc3F)ccnc2cc1OCCCN1CCOCC1

>  <Energy>  (84) 
124.5136980713579

>  <Genealogy>  (84) 
COc1cc2c(Oc3ccc(NC(=O)c4ccc(C(=O)[N-]c5ccccc5)cc4)cc3F)ccnc2cc1OCCCN1CCOCC1 (protonated)
COc1cc2c(Oc3ccc(NC(=O)c4ccc(C(=O)[N-]c5ccccc5)cc4)cc3F)ccnc2cc1OCCCN1CCOCC1 (3D coordinates assigned)
COc1cc2c(Oc3ccc(NC(=O)c4ccc(C(=O)[N-]c5ccccc5)cc4)cc3F)ccnc2cc1OCCCN1CCOCC1 (nonaromatic ring conformer: 124.5136980713579 kcal/mol)

>  <smiles>  (84) 
COc1cc2c(Oc3ccc(NC(=O)c4ccc(C(=O)Nc5ccccc5)cc4)cc3F)ccnc2cc1OCCCN1CCOCC1

>  <score_type>  (84) 
oracle

>  <origin>  (84) 
adg

>  <m_score__min__energy>  (84) 
-9.9299999999999997

>  <m_primary>  (84) 
energy

$$$$
85:0
     RDKit          3D

 50 52  0  0  0  0  0  0  0  0999 V2000
   56.7730   29.2890   42.6660 N   0  0  0  0  0  0  0  0  0  0  0  0
   56.6210   29.7840   44.3150 S   0  0  0  0  0  0  0  0  0  0  0  0
   55.5370   28.9840   44.9820 O   0  0  0  0  0  0  0  0  0  0  0  0
   56.2470   31.2390   44.3680 O   0  0  0  0  0  0  0  0  0  0  0  0
   58.1480   29.5270   45.1540 C   0  0  0  0  0  0  0  0  0  0  0  0
   59.2240   28.9190   44.4930 C   0  0  0  0  0  0  0  0  0  0  0  0
   60.4320   28.7150   45.1640 C   0  0  0  0  0  0  0  0  0  0  0  0
   60.5730   29.1190   46.4940 C   0  0  0  0  0  0  0  0  0  0  0  0
   59.5020   29.7250   47.1640 C   0  0  0  0  0  0  0  0  0  0  0  0
   59.6840   30.2030   48.8500 S   0  0  0  0  0  0  0  0  0  0  0  0
   59.4630   28.9950   49.7150 O   0  0  0  0  0  0  0  0  0  0  0  0
   61.0780   30.7170   49.0780 O   0  0  0  0  0  0  0  0  0  0  0  0
   58.5250   31.4250   49.2980 N   0  0  0  0  0  0  0  0  0  0  0  0
   59.0090   32.7700   48.9720 C   0  0  0  0  0  0  0  0  0  0  0  0
   58.7250   33.1300   47.5260 C   0  0  0  0  0  0  0  0  0  0  0  0
   57.3990   33.4210   47.1530 C   0  0  0  0  0  0  0  0  0  0  0  0
   57.0840   33.7560   45.8360 C   0  0  0  0  0  0  0  0  0  0  0  0
   58.0820   33.7890   44.8660 C   0  0  0  0  0  0  0  0  0  0  0  0
   59.3980   33.4720   45.2060 C   0  0  0  0  0  0  0  0  0  0  0  0
   59.7370   33.1260   46.5270 C   0  0  0  0  0  0  0  0  0  0  0  0
   61.1720   32.7510   46.8280 C   0  0  0  0  0  0  0  0  0  0  0  0
   61.9540   33.9350   47.2480 N   0  0  0  0  0  0  0  0  0  0  0  0
   61.7730   34.2370   48.6840 C   0  0  0  0  0  0  0  0  0  0  0  0
   62.5930   33.2890   49.5690 C   0  0  0  0  0  0  0  0  0  0  0  0
   63.9640   33.3590   49.2350 O   0  0  0  0  0  0  0  0  0  0  0  0
   64.1500   32.9260   47.9020 C   0  0  0  0  0  0  0  0  0  0  0  0
   63.3910   33.8300   46.9150 C   0  0  0  0  0  0  0  0  0  0  0  0
   58.2840   29.9110   46.4950 C   0  0  0  0  0  0  0  0  0  0  0  0
   57.7680   29.4500   42.3910 H   0  0  0  0  0  0  0  0  0  0  0  0
   56.6190   28.2560   42.6430 H   0  0  0  0  0  0  0  0  0  0  0  0
   59.1171   28.6022   43.4450 H   0  0  0  0  0  0  0  0  0  0  0  0
   61.2743   28.2351   44.6441 H   0  0  0  0  0  0  0  0  0  0  0  0
   61.5278   28.9608   47.0168 H   0  0  0  0  0  0  0  0  0  0  0  0
   58.5075   33.4983   49.6264 H   0  0  0  0  0  0  0  0  0  0  0  0
   60.0982   32.7902   49.1242 H   0  0  0  0  0  0  0  0  0  0  0  0
   56.6014   33.3837   47.9096 H   0  0  0  0  0  0  0  0  0  0  0  0
   56.0453   33.9945   45.5635 H   0  0  0  0  0  0  0  0  0  0  0  0
   57.8332   34.0652   43.8307 H   0  0  0  0  0  0  0  0  0  0  0  0
   60.1794   33.4929   44.4321 H   0  0  0  0  0  0  0  0  0  0  0  0
   61.1866   32.0053   47.6365 H   0  0  0  0  0  0  0  0  0  0  0  0
   61.6249   32.3387   45.9143 H   0  0  0  0  0  0  0  0  0  0  0  0
   62.0954   35.2713   48.8745 H   0  0  0  0  0  0  0  0  0  0  0  0
   60.7095   34.1047   48.9317 H   0  0  0  0  0  0  0  0  0  0  0  0
   62.4626   33.5750   50.6231 H   0  0  0  0  0  0  0  0  0  0  0  0
   62.2406   32.2595   49.4079 H   0  0  0  0  0  0  0  0  0  0  0  0
   65.2231   32.9533   47.6618 H   0  0  0  0  0  0  0  0  0  0  0  0
   63.7590   31.9020   47.8095 H   0  0  0  0  0  0  0  0  0  0  0  0
   63.8355   34.8358   46.9416 H   0  0  0  0  0  0  0  0  0  0  0  0
   63.4745   33.3827   45.9135 H   0  0  0  0  0  0  0  0  0  0  0  0
   57.4313   30.3604   47.0250 H   0  0  0  0  0  0  0  0  0  0  0  0
  1  2  1  0
  2  3  2  0
  2  4  2  0
  2  5  1  0
  5  6  2  0
  6  7  1  0
  7  8  2  0
  8  9  1  0
  9 10  1  0
 10 11  2  0
 10 12  2  0
 10 13  1  0
 13 14  1  0
 14 15  1  0
 15 16  2  0
 16 17  1  0
 17 18  2  0
 18 19  1  0
 19 20  2  0
 20 21  1  0
 21 22  1  0
 22 23  1  0
 23 24  1  0
 24 25  1  0
 25 26  1  0
 26 27  1  0
  9 28  2  0
 28  5  1  0
 20 15  1  0
 27 22  1  0
  1 29  1  0
  1 30  1  0
  6 31  1  0
  7 32  1  0
  8 33  1  0
 14 34  1  0
 14 35  1  0
 16 36  1  0
 17 37  1  0
 18 38  1  0
 19 39  1  0
 21 40  1  0
 21 41  1  0
 23 42  1  0
 23 43  1  0
 24 44  1  0
 24 45  1  0
 26 46  1  0
 26 47  1  0
 27 48  1  0
 27 49  1  0
 28 50  1  0
M  CHG  1  13  -1
M  END
>  <UniqueID>  (85) 
79

>  <SMILES>  (85) 
NS(=O)(=O)c1cccc(S(=O)(=O)[N-]Cc2ccccc2CN2CCOCC2)c1

>  <Energy>  (85) 
52.124522590841174

>  <Genealogy>  (85) 
NS(=O)(=O)c1cccc(S(=O)(=O)[N-]Cc2ccccc2CN2CCOCC2)c1 (protonated)
NS(=O)(=O)c1cccc(S(=O)(=O)[N-]Cc2ccccc2CN2CCOCC2)c1 (3D coordinates assigned)
NS(=O)(=O)c1cccc(S(=O)(=O)[N-]Cc2ccccc2CN2CCOCC2)c1 (nonaromatic ring conformer: 52.124522590841174 kcal/mol)

>  <smiles>  (85) 
NS(=O)(=O)c1cccc(S(=O)(=O)NCc2ccccc2CN2CCOCC2)c1

>  <score_type>  (85) 
oracle

>  <origin>  (85) 
adg

>  <m_score__min__energy>  (85) 
-10.81

>  <m_primary>  (85) 
energy

$$$$
86:0
     RDKit          3D

 27 29  0  0  0  0  0  0  0  0999 V2000
   54.9580   29.3520   44.0530 O   0  0  0  0  0  0  0  0  0  0  0  0
   56.0060   29.8080   44.5810 C   0  0  0  0  0  0  0  0  0  0  0  0
   56.2720   31.1340   44.5030 N   0  0  0  0  0  0  0  0  0  0  0  0
   57.3910   31.6600   45.0610 C   0  0  0  0  0  0  0  0  0  0  0  0
   57.6430   33.0300   44.9740 C   0  0  0  0  0  0  0  0  0  0  0  0
   58.7910   33.5590   45.5610 C   0  0  0  0  0  0  0  0  0  0  0  0
   59.6710   32.7100   46.2330 C   0  0  0  0  0  0  0  0  0  0  0  0
   59.4170   31.3750   46.3130 N   0  0  0  0  0  0  0  0  0  0  0  0
   58.3020   30.8190   45.7390 C   0  0  0  0  0  0  0  0  0  0  0  0
   58.0400   29.4700   45.8140 N   0  0  0  0  0  0  0  0  0  0  0  0
   58.9520   28.5720   46.4730 C   0  0  0  0  0  0  0  0  0  0  0  0
   59.7110   27.6600   45.7220 C   0  0  0  0  0  0  0  0  0  0  0  0
   60.5950   26.7880   46.3640 C   0  0  0  0  0  0  0  0  0  0  0  0
   60.7240   26.8210   47.7560 C   0  0  0  0  0  0  0  0  0  0  0  0
   59.9680   27.7260   48.5080 C   0  0  0  0  0  0  0  0  0  0  0  0
   59.0830   28.5990   47.8690 C   0  0  0  0  0  0  0  0  0  0  0  0
   56.9010   28.9570   45.2450 C   0  0  0  0  0  0  0  0  0  0  0  0
   56.6520   27.7210   45.3080 O   0  0  0  0  0  0  0  0  0  0  0  0
   56.9390   33.6890   44.4447 H   0  0  0  0  0  0  0  0  0  0  0  0
   59.0015   34.6367   45.4951 H   0  0  0  0  0  0  0  0  0  0  0  0
   60.5767   33.1225   46.7016 H   0  0  0  0  0  0  0  0  0  0  0  0
   60.1060   30.7910   46.8370 H   0  0  0  0  0  0  0  0  0  0  0  0
   59.6098   27.6317   44.6270 H   0  0  0  0  0  0  0  0  0  0  0  0
   61.1896   26.0753   45.7737 H   0  0  0  0  0  0  0  0  0  0  0  0
   61.4205   26.1347   48.2599 H   0  0  0  0  0  0  0  0  0  0  0  0
   60.0699   27.7508   49.6030 H   0  0  0  0  0  0  0  0  0  0  0  0
   58.4880   29.3088   48.4624 H   0  0  0  0  0  0  0  0  0  0  0  0
  1  2  2  0
  2  3  1  0
  3  4  1  0
  4  5  2  0
  5  6  1  0
  6  7  2  0
  7  8  1  0
  8  9  2  0
  9 10  1  0
 10 11  1  0
 11 12  2  0
 12 13  1  0
 13 14  2  0
 14 15  1  0
 15 16  2  0
 10 17  1  0
 17 18  2  0
 17  2  1  0
  9  4  1  0
 16 11  1  0
  5 19  1  0
  6 20  1  0
  7 21  1  0
  8 22  1  0
 12 23  1  0
 13 24  1  0
 14 25  1  0
 15 26  1  0
 16 27  1  0
M  CHG  2   3  -1   8   1
M  END
>  <UniqueID>  (86) 
80

>  <SMILES>  (86) 
O=c1[n-]c2ccc[nH+]c2n(-c2ccccc2)c1=O

>  <Energy>  (86) 
45.94740063608613

>  <Genealogy>  (86) 
O=c1[n-]c2ccc[nH+]c2n(-c2ccccc2)c1=O (protonated)
O=c1[n-]c2ccc[nH+]c2n(-c2ccccc2)c1=O (3D coordinates assigned)
O=c1[n-]c2ccc[nH+]c2n(-c2ccccc2)c1=O (optimized conformer: 45.94740063608613 kcal/mol)

>  <smiles>  (86) 
O=c1[nH]c2cccnc2n(-c2ccccc2)c1=O

>  <score_type>  (86) 
oracle

>  <origin>  (86) 
adg

>  <m_score__min__energy>  (86) 
-6.71

>  <m_primary>  (86) 
energy

$$$$
87:0
     RDKit          3D

 34 35  0  0  0  0  0  0  0  0999 V2000
   54.3890   26.7690   45.9560 H   0  0  0  0  0  0  0  0  0  0  0  0
   55.3340   26.4040   45.9300 O   0  0  0  0  0  0  0  0  0  0  0  0
   56.4420   27.2480   45.9790 C   0  0  0  0  0  0  0  0  0  0  0  0
   57.6400   26.8150   46.5630 C   0  0  0  0  0  0  0  0  0  0  0  0
   57.7080   25.8031   46.9889 H   0  0  0  0  0  0  0  0  0  0  0  0
   58.7490   27.6650   46.6060 C   0  0  0  0  0  0  0  0  0  0  0  0
   59.6804   27.3251   47.0825 H   0  0  0  0  0  0  0  0  0  0  0  0
   58.6810   28.9490   46.0450 C   0  0  0  0  0  0  0  0  0  0  0  0
   59.8630   29.8380   46.1370 C   0  0  0  0  0  0  0  0  0  0  0  0
   60.3918   30.0810   45.2035 H   0  0  0  0  0  0  0  0  0  0  0  0
   60.3380   30.3710   47.2810 C   0  0  0  0  0  0  0  0  0  0  0  0
   61.7020   30.8420   47.3800 C   0  0  0  0  0  0  0  0  0  0  0  0
   62.7930   31.2190   47.4600 N   0  0  0  0  0  0  0  0  0  0  0  0
   59.4940   30.4280   48.4980 C   0  0  0  0  0  0  0  0  0  0  0  0
   59.5260   29.4910   49.3430 O   0  0  0  0  0  0  0  0  0  0  0  0
   58.6360   31.5540   48.7160 N   0  0  0  0  0  0  0  0  0  0  0  0
   59.0990   32.9370   48.7200 C   0  0  0  0  0  0  0  0  0  0  0  0
   58.5433   33.5036   49.4817 H   0  0  0  0  0  0  0  0  0  0  0  0
   60.1749   32.9537   48.9485 H   0  0  0  0  0  0  0  0  0  0  0  0
   58.8750   33.5660   47.3720 C   0  0  0  0  0  0  0  0  0  0  0  0
   59.7330   34.5840   46.9210 C   0  0  0  0  0  0  0  0  0  0  0  0
   60.5570   34.9308   47.5619 H   0  0  0  0  0  0  0  0  0  0  0  0
   59.5420   35.1570   45.6600 C   0  0  0  0  0  0  0  0  0  0  0  0
   60.2139   35.9557   45.3125 H   0  0  0  0  0  0  0  0  0  0  0  0
   58.4990   34.7170   44.8400 C   0  0  0  0  0  0  0  0  0  0  0  0
   58.3501   35.1699   43.8487 H   0  0  0  0  0  0  0  0  0  0  0  0
   57.6450   33.7010   45.2800 C   0  0  0  0  0  0  0  0  0  0  0  0
   56.8250   33.3545   44.6339 H   0  0  0  0  0  0  0  0  0  0  0  0
   57.8320   33.1250   46.5400 C   0  0  0  0  0  0  0  0  0  0  0  0
   57.1602   32.3236   46.8814 H   0  0  0  0  0  0  0  0  0  0  0  0
   57.4690   29.3900   45.4850 C   0  0  0  0  0  0  0  0  0  0  0  0
   57.3933   30.4088   45.0771 H   0  0  0  0  0  0  0  0  0  0  0  0
   56.3580   28.5390   45.4440 C   0  0  0  0  0  0  0  0  0  0  0  0
   55.1690   28.9830   44.8760 O   0  0  0  0  0  0  0  0  0  0  0  0
  1  2  1  0
  2  3  1  0
  3  4  2  0
  4  5  1  0
  4  6  1  0
  6  7  1  0
  6  8  2  0
  8  9  1  0
  9 10  1  0
  9 11  2  0
 11 12  1  0
 12 13  3  0
 11 14  1  0
 14 15  2  0
 14 16  1  0
 16 17  1  0
 17 18  1  0
 17 19  1  0
 17 20  1  0
 20 21  2  0
 21 22  1  0
 21 23  1  0
 23 24  1  0
 23 25  2  0
 25 26  1  0
 25 27  1  0
 27 28  1  0
 27 29  2  0
 29 30  1  0
  8 31  1  0
 31 32  1  0
 31 33  2  0
 33 34  1  0
 33  3  1  0
 29 20  1  0
M  CHG  2  16  -1  34  -1
M  END
>  <UniqueID>  (87) 
81

>  <SMILES>  (87) 
N#C/C(=C\c1ccc(O)c([O-])c1)C(=O)[N-]Cc1ccccc1

>  <Energy>  (87) 
37.74062779890189

>  <Genealogy>  (87) 
N#CC(=Cc1ccc(O)c([O-])c1)C(=O)[N-]Cc1ccccc1 (protonated)
N#C/C(=C\c1ccc(O)c([O-])c1)C(=O)[N-]Cc1ccccc1 (cis-trans isomerization)
N#C/C(=C\c1ccc(O)c([O-])c1)C(=O)[N-]Cc1ccccc1 (3D coordinates assigned)
N#C/C(=C\c1ccc(O)c([O-])c1)C(=O)[N-]Cc1ccccc1 (optimized conformer: 37.74062779890189 kcal/mol)

>  <smiles>  (87) 
N#CC(=Cc1ccc(O)c(O)c1)C(=O)NCc1ccccc1

>  <score_type>  (87) 
oracle

>  <origin>  (87) 
adg

>  <m_score__min__energy>  (87) 
-12.289999999999999

>  <m_primary>  (87) 
energy

$$$$
88:0
     RDKit          3D

 38 39  0  0  0  0  0  0  0  0999 V2000
   59.3370   33.2860   50.0590 C   0  0  0  0  0  0  0  0  0  0  0  0
   60.2800   34.2170   49.5380 O   0  0  0  0  0  0  0  0  0  0  0  0
   61.3260   33.8940   48.6570 C   0  0  0  0  0  0  0  0  0  0  0  0
   62.5200   33.3090   49.1290 C   0  0  0  0  0  0  0  0  0  0  0  0
   63.5440   32.9710   48.2440 C   0  0  0  0  0  0  0  0  0  0  0  0
   63.3970   33.2110   46.8810 C   0  0  0  0  0  0  0  0  0  0  0  0
   62.2250   33.7930   46.3950 C   0  0  0  0  0  0  0  0  0  0  0  0
   61.1790   34.1500   47.2700 C   0  0  0  0  0  0  0  0  0  0  0  0
   59.9510   34.7770   46.7090 C   0  0  0  0  0  0  0  0  0  0  0  0
   60.0270   35.9030   46.1480 O   0  0  0  0  0  0  0  0  0  0  0  0
   58.6720   34.1440   46.8610 N   0  0  0  0  0  0  0  0  0  0  0  0
   58.2230   32.9510   46.2030 C   0  0  0  0  0  0  0  0  0  0  0  0
   57.4480   32.9910   45.0290 C   0  0  0  0  0  0  0  0  0  0  0  0
   57.0500   31.8040   44.4060 C   0  0  0  0  0  0  0  0  0  0  0  0
   57.4310   30.5660   44.9400 C   0  0  0  0  0  0  0  0  0  0  0  0
   56.9230   29.0650   44.1740 S   0  0  0  0  0  0  0  0  0  0  0  0
   56.1730   29.3390   42.9010 O   0  0  0  0  0  0  0  0  0  0  0  0
   58.1440   28.2500   43.8520 O   0  0  0  0  0  0  0  0  0  0  0  0
   55.9070   28.1610   45.2500 N   0  0  0  0  0  0  0  0  0  0  0  0
   56.2660   26.9070   45.8420 C   0  0  0  0  0  0  0  0  0  0  0  0
   57.6850   26.5650   46.1740 C   0  0  0  0  0  0  0  0  0  0  0  0
   55.3620   26.0600   46.0650 O   0  0  0  0  0  0  0  0  0  0  0  0
   58.2260   30.5240   46.0910 C   0  0  0  0  0  0  0  0  0  0  0  0
   58.6250   31.7110   46.7130 C   0  0  0  0  0  0  0  0  0  0  0  0
   59.3642   33.3129   51.1583 H   0  0  0  0  0  0  0  0  0  0  0  0
   58.3281   33.5521   49.7106 H   0  0  0  0  0  0  0  0  0  0  0  0
   59.5902   32.2738   49.7106 H   0  0  0  0  0  0  0  0  0  0  0  0
   62.6446   33.1176   50.2050 H   0  0  0  0  0  0  0  0  0  0  0  0
   64.4695   32.5139   48.6242 H   0  0  0  0  0  0  0  0  0  0  0  0
   64.2056   32.9416   46.1856 H   0  0  0  0  0  0  0  0  0  0  0  0
   62.1163   33.9753   45.3157 H   0  0  0  0  0  0  0  0  0  0  0  0
   57.1541   33.9601   44.5996 H   0  0  0  0  0  0  0  0  0  0  0  0
   56.4360   31.8424   43.4941 H   0  0  0  0  0  0  0  0  0  0  0  0
   57.8090   26.5351   47.2666 H   0  0  0  0  0  0  0  0  0  0  0  0
   57.9340   25.5811   45.7497 H   0  0  0  0  0  0  0  0  0  0  0  0
   58.3548   27.3274   45.7497 H   0  0  0  0  0  0  0  0  0  0  0  0
   58.5378   29.5548   46.5074 H   0  0  0  0  0  0  0  0  0  0  0  0
   59.2599   31.6700   47.6103 H   0  0  0  0  0  0  0  0  0  0  0  0
  1  2  1  0
  2  3  1  0
  3  4  2  0
  4  5  1  0
  5  6  2  0
  6  7  1  0
  7  8  2  0
  8  9  1  0
  9 10  2  0
  9 11  1  0
 11 12  1  0
 12 13  2  0
 13 14  1  0
 14 15  2  0
 15 16  1  0
 16 17  2  0
 16 18  2  0
 16 19  1  0
 19 20  1  0
 20 21  1  0
 20 22  2  0
 15 23  1  0
 23 24  2  0
  8  3  1  0
 24 12  1  0
  1 25  1  0
  1 26  1  0
  1 27  1  0
  4 28  1  0
  5 29  1  0
  6 30  1  0
  7 31  1  0
 13 32  1  0
 14 33  1  0
 21 34  1  0
 21 35  1  0
 21 36  1  0
 23 37  1  0
 24 38  1  0
M  CHG  2  11  -1  19  -1
M  END
>  <UniqueID>  (88) 
82

>  <SMILES>  (88) 
COc1ccccc1C(=O)[N-]c1ccc(S(=O)(=O)[N-]C(C)=O)cc1

>  <Energy>  (88) 
44.925844974804065

>  <Genealogy>  (88) 
COc1ccccc1C(=O)[N-]c1ccc(S(=O)(=O)[N-]C(C)=O)cc1 (protonated)
COc1ccccc1C(=O)[N-]c1ccc(S(=O)(=O)[N-]C(C)=O)cc1 (3D coordinates assigned)
COc1ccccc1C(=O)[N-]c1ccc(S(=O)(=O)[N-]C(C)=O)cc1 (optimized conformer: 44.925844974804065 kcal/mol)

>  <smiles>  (88) 
COc1ccccc1C(=O)Nc1ccc(S(=O)(=O)NC(C)=O)cc1

>  <score_type>  (88) 
oracle

>  <origin>  (88) 
adg

>  <m_score__min__energy>  (88) 
-10.699999999999999

>  <m_primary>  (88) 
energy

$$$$
89:0
     RDKit          3D

 31 32  0  0  0  0  0  0  0  0999 V2000
   60.0950   27.1240   48.2340 C   0  0  0  0  0  0  0  0  0  0  0  0
   59.5580   28.3440   48.1790 C   0  0  0  0  0  0  0  0  0  0  0  0
   60.2890   29.4930   47.5420 C   0  0  0  0  0  0  0  0  0  0  0  0
   59.7660   29.7680   46.2430 O   0  0  0  0  0  0  0  0  0  0  0  0
   58.8410   30.7810   45.9310 C   0  0  0  0  0  0  0  0  0  0  0  0
   58.7920   31.9930   46.6500 C   0  0  0  0  0  0  0  0  0  0  0  0
   57.8600   32.9770   46.3140 C   0  0  0  0  0  0  0  0  0  0  0  0
   56.9700   32.7690   45.2620 C   0  0  0  0  0  0  0  0  0  0  0  0
   57.0070   31.5750   44.5390 C   0  0  0  0  0  0  0  0  0  0  0  0
   57.9390   30.5730   44.8650 C   0  0  0  0  0  0  0  0  0  0  0  0
   57.9490   29.2800   44.0820 C   0  0  0  0  0  0  0  0  0  0  0  0
   57.3830   28.1390   44.9030 C   0  0  0  0  0  0  0  0  0  0  0  0
   56.0200   28.0900   45.2490 C   0  0  0  0  0  0  0  0  0  0  0  0
   55.1460   29.1010   44.8630 O   0  0  0  0  0  0  0  0  0  0  0  0
   55.5400   27.0450   45.9710 N   0  0  0  0  0  0  0  0  0  0  0  0
   56.3530   26.0370   46.3750 C   0  0  0  0  0  0  0  0  0  0  0  0
   55.8830   25.0790   47.0400 O   0  0  0  0  0  0  0  0  0  0  0  0
   57.6740   26.0650   46.0650 N   0  0  0  0  0  0  0  0  0  0  0  0
   58.2060   27.0860   45.3460 C   0  0  0  0  0  0  0  0  0  0  0  0
   59.4380   27.0770   45.0840 O   0  0  0  0  0  0  0  0  0  0  0  0
   59.5400   26.2995   48.7055 H   0  0  0  0  0  0  0  0  0  0  0  0
   61.0927   26.9425   47.8079 H   0  0  0  0  0  0  0  0  0  0  0  0
   58.5596   28.5128   48.6087 H   0  0  0  0  0  0  0  0  0  0  0  0
   60.1759   30.3868   48.1731 H   0  0  0  0  0  0  0  0  0  0  0  0
   61.3514   29.2250   47.4451 H   0  0  0  0  0  0  0  0  0  0  0  0
   59.4923   32.1644   47.4808 H   0  0  0  0  0  0  0  0  0  0  0  0
   57.8282   33.9189   46.8812 H   0  0  0  0  0  0  0  0  0  0  0  0
   56.2372   33.5467   45.0008 H   0  0  0  0  0  0  0  0  0  0  0  0
   56.3027   31.4169   43.7090 H   0  0  0  0  0  0  0  0  0  0  0  0
   57.3406   29.4054   43.1742 H   0  0  0  0  0  0  0  0  0  0  0  0
   58.9899   29.0387   43.8205 H   0  0  0  0  0  0  0  0  0  0  0  0
  1  2  2  0
  2  3  1  0
  3  4  1  0
  4  5  1  0
  5  6  2  0
  6  7  1  0
  7  8  2  0
  8  9  1  0
  9 10  2  0
 10 11  1  0
 11 12  1  0
 12 13  2  0
 13 14  1  0
 13 15  1  0
 15 16  1  0
 16 17  2  0
 16 18  1  0
 18 19  1  0
 19 20  2  0
 10  5  1  0
 19 12  1  0
  1 21  1  0
  1 22  1  0
  2 23  1  0
  3 24  1  0
  3 25  1  0
  6 26  1  0
  7 27  1  0
  8 28  1  0
  9 29  1  0
 11 30  1  0
 11 31  1  0
M  CHG  3  14  -1  15  -1  18  -1
M  END
>  <UniqueID>  (89) 
83

>  <SMILES>  (89) 
C=CCOc1ccccc1Cc1c([O-])[n-]c(=O)[n-]c1=O

>  <Energy>  (89) 
30.491786944695214

>  <Genealogy>  (89) 
C=CCOc1ccccc1Cc1c([O-])[n-]c(=O)[n-]c1=O (protonated)
C=CCOc1ccccc1Cc1c([O-])[n-]c(=O)[n-]c1=O (3D coordinates assigned)
C=CCOc1ccccc1Cc1c([O-])[n-]c(=O)[n-]c1=O (optimized conformer: 30.491786944695214 kcal/mol)

>  <smiles>  (89) 
C=CCOc1ccccc1Cc1c(O)[nH]c(=O)[nH]c1=O

>  <score_type>  (89) 
oracle

>  <origin>  (89) 
adg

>  <m_score__min__energy>  (89) 
-14.16

>  <m_primary>  (89) 
energy

$$$$
90:0
     RDKit          3D

 52 54  0  0  0  0  0  0  0  0999 V2000
   57.4650   25.8910   44.5760 C   0  0  0  0  0  0  0  0  0  0  0  0
   56.4690   26.6650   45.8320 S   0  0  0  0  0  0  0  0  0  0  0  0
   55.2970   25.7740   46.1350 O   0  0  0  0  0  0  0  0  0  0  0  0
   57.2670   26.8560   47.0910 O   0  0  0  0  0  0  0  0  0  0  0  0
   55.8740   28.1920   45.2660 N   0  0  0  0  0  0  0  0  0  0  0  0
   56.6750   29.3360   44.9380 C   0  0  0  0  0  0  0  0  0  0  0  0
   56.3220   30.0980   43.8170 C   0  0  0  0  0  0  0  0  0  0  0  0
   57.0720   31.2220   43.4590 C   0  0  0  0  0  0  0  0  0  0  0  0
   58.1830   31.5950   44.2180 C   0  0  0  0  0  0  0  0  0  0  0  0
   58.5470   30.8420   45.3420 C   0  0  0  0  0  0  0  0  0  0  0  0
   59.6910   31.2260   46.1240 C   0  0  0  0  0  0  0  0  0  0  0  0
   60.6510   31.5480   46.7800 C   0  0  0  0  0  0  0  0  0  0  0  0
   61.7970   31.9320   47.5600 C   0  0  0  0  0  0  0  0  0  0  0  0
   62.6530   32.9410   47.1000 C   0  0  0  0  0  0  0  0  0  0  0  0
   63.7680   33.3140   47.8570 C   0  0  0  0  0  0  0  0  0  0  0  0
   64.0320   32.6870   49.0850 C   0  0  0  0  0  0  0  0  0  0  0  0
   65.2540   33.0690   49.8840 C   0  0  0  0  0  0  0  0  0  0  0  0
   65.1060   32.6920   51.3710 C   0  0  1  0  0  0  0  0  0  0  0  0
   65.3240   31.2530   51.5590 N   0  0  0  0  0  0  0  0  0  0  0  0
   66.5600   30.6180   51.1900 C   0  0  0  0  0  0  0  0  0  0  0  0
   67.5480   31.3270   50.8520 O   0  0  0  0  0  0  0  0  0  0  0  0
   66.7020   29.1420   51.2150 C   0  0  0  0  0  0  0  0  0  0  0  0
   65.8030   28.3310   51.9300 C   0  0  0  0  0  0  0  0  0  0  0  0
   65.9580   26.9440   51.9280 C   0  0  0  0  0  0  0  0  0  0  0  0
   67.0060   26.3730   51.2060 C   0  0  0  0  0  0  0  0  0  0  0  0
   67.8620   27.1640   50.5090 N   0  0  0  0  0  0  0  0  0  0  0  0
   67.7340   28.5180   50.4930 C   0  0  0  0  0  0  0  0  0  0  0  0
   66.0790   33.4660   52.2170 C   0  0  0  0  0  0  0  0  0  0  0  0
   66.3630   33.0780   53.3810 O   0  0  0  0  0  0  0  0  0  0  0  0
   66.6930   34.6030   51.7040 O   0  0  0  0  0  0  0  0  0  0  0  0
   63.1760   31.6700   49.5370 C   0  0  0  0  0  0  0  0  0  0  0  0
   62.0610   31.2960   48.7790 C   0  0  0  0  0  0  0  0  0  0  0  0
   57.7940   29.7160   45.7030 C   0  0  0  0  0  0  0  0  0  0  0  0
   58.2480   25.2826   45.0522 H   0  0  0  0  0  0  0  0  0  0  0  0
   56.8301   25.2469   43.9498 H   0  0  0  0  0  0  0  0  0  0  0  0
   57.9324   26.6653   43.9498 H   0  0  0  0  0  0  0  0  0  0  0  0
   55.4483   29.8099   43.2140 H   0  0  0  0  0  0  0  0  0  0  0  0
   56.7862   31.8141   42.5771 H   0  0  0  0  0  0  0  0  0  0  0  0
   58.7720   32.4794   43.9337 H   0  0  0  0  0  0  0  0  0  0  0  0
   62.4477   33.4407   46.1418 H   0  0  0  0  0  0  0  0  0  0  0  0
   64.4412   34.1021   47.4887 H   0  0  0  0  0  0  0  0  0  0  0  0
   66.1284   32.5460   49.4693 H   0  0  0  0  0  0  0  0  0  0  0  0
   65.3782   34.1600   49.8184 H   0  0  0  0  0  0  0  0  0  0  0  0
   64.0830   32.9459   51.6856 H   0  0  0  0  0  0  0  0  0  0  0  0
   64.5810   30.6840   52.0250 H   0  0  0  0  0  0  0  0  0  0  0  0
   64.9763   28.7904   52.4917 H   0  0  0  0  0  0  0  0  0  0  0  0
   65.2599   26.3068   52.4908 H   0  0  0  0  0  0  0  0  0  0  0  0
   67.1392   25.2811   51.2012 H   0  0  0  0  0  0  0  0  0  0  0  0
   68.4417   29.1278   49.9121 H   0  0  0  0  0  0  0  0  0  0  0  0
   63.3830   31.1647   50.4919 H   0  0  0  0  0  0  0  0  0  0  0  0
   61.3915   30.5018   49.1410 H   0  0  0  0  0  0  0  0  0  0  0  0
   58.0786   29.1271   46.5874 H   0  0  0  0  0  0  0  0  0  0  0  0
  1  2  1  0
  2  3  2  0
  2  4  2  0
  2  5  1  0
  5  6  1  0
  6  7  2  0
  7  8  1  0
  8  9  2  0
  9 10  1  0
 10 11  1  0
 11 12  3  0
 12 13  1  0
 13 14  2  0
 14 15  1  0
 15 16  2  0
 16 17  1  0
 17 18  1  0
 18 19  1  0
 19 20  1  0
 20 21  2  0
 20 22  1  0
 22 23  2  0
 23 24  1  0
 24 25  2  0
 25 26  1  0
 26 27  2  0
 18 28  1  0
 28 29  2  0
 28 30  1  0
 16 31  1  0
 31 32  2  0
 10 33  2  0
 33  6  1  0
 32 13  1  0
 27 22  1  0
  1 34  1  0
  1 35  1  0
  1 36  1  0
  7 37  1  0
  8 38  1  0
  9 39  1  0
 14 40  1  0
 15 41  1  0
 17 42  1  0
 17 43  1  0
 18 44  1  1
 19 45  1  0
 23 46  1  0
 24 47  1  0
 25 48  1  0
 27 49  1  0
 31 50  1  0
 32 51  1  0
 33 52  1  0
M  CHG  2   5  -1  30  -1
M  END
>  <UniqueID>  (90) 
84

>  <SMILES>  (90) 
CS(=O)(=O)[N-]c1cccc(C#Cc2ccc(C[C@@H](NC(=O)c3cccnc3)C(=O)[O-])cc2)c1

>  <Energy>  (90) 
49.24716922803603

>  <Genealogy>  (90) 
CS(=O)(=O)[N-]c1cccc(C#Cc2ccc(CC(NC(=O)c3cccnc3)C(=O)[O-])cc2)c1 (protonated)
CS(=O)(=O)[N-]c1cccc(C#Cc2ccc(C[C@@H](NC(=O)c3cccnc3)C(=O)[O-])cc2)c1 (chirality)
CS(=O)(=O)[N-]c1cccc(C#Cc2ccc(C[C@@H](NC(=O)c3cccnc3)C(=O)[O-])cc2)c1 (3D coordinates assigned)
CS(=O)(=O)[N-]c1cccc(C#Cc2ccc(C[C@@H](NC(=O)c3cccnc3)C(=O)[O-])cc2)c1 (optimized conformer: 49.24716922803603 kcal/mol)

>  <smiles>  (90) 
CS(=O)(=O)Nc1cccc(C#Cc2ccc(CC(NC(=O)c3cccnc3)C(=O)O)cc2)c1

>  <score_type>  (90) 
oracle

>  <origin>  (90) 
adg

>  <m_score__min__energy>  (90) 
-10.99

>  <m_primary>  (90) 
energy

$$$$
91:0
     RDKit          3D

 56 58  0  0  0  0  0  0  0  0999 V2000
   59.1960   35.0670   44.9810 C   0  0  0  0  0  0  0  0  0  0  0  0
   59.5970   34.3760   46.2510 C   0  0  0  0  0  0  0  0  0  0  0  0
   59.2820   34.9430   47.4900 C   0  0  0  0  0  0  0  0  0  0  0  0
   59.6200   34.2840   48.6730 C   0  0  0  0  0  0  0  0  0  0  0  0
   60.2610   33.0330   48.6410 C   0  0  0  0  0  0  0  0  0  0  0  0
   60.6500   32.3840   49.9440 C   0  0  0  0  0  0  0  0  0  0  0  0
   60.5670   32.4430   47.3870 C   0  0  0  0  0  0  0  0  0  0  0  0
   61.2250   31.0780   47.2750 C   0  0  0  0  0  0  0  0  0  0  0  0
   60.2610   30.0270   46.8560 N   0  0  2  0  0  0  0  0  0  0  0  0
   60.7230   29.3950   45.6080 C   0  0  0  0  0  0  0  0  0  0  0  0
   59.8360   28.1970   45.2170 C   0  0  0  0  0  0  0  0  0  0  0  0
   58.4670   28.2570   45.7830 N   0  0  0  0  0  0  0  0  0  0  0  0
   58.2740   27.4480   47.0080 C   0  0  0  0  0  0  0  0  0  0  0  0
   57.2700   26.3700   46.7400 C   0  0  0  0  0  0  0  0  0  0  0  0
   56.1080   26.4790   46.0010 C   0  0  0  0  0  0  0  0  0  0  0  0
   55.4290   25.3180   46.0740 N   0  0  0  0  0  0  0  0  0  0  0  0
   56.1340   24.4880   46.8280 N   0  0  0  0  0  0  0  0  0  0  0  0
   55.6850   23.1560   47.2070 C   0  0  0  0  0  0  0  0  0  0  0  0
   57.2500   25.0980   47.2690 C   0  0  0  0  0  0  0  0  0  0  0  0
   57.9280   29.6320   45.9080 C   0  0  2  0  0  0  0  0  0  0  0  0
   57.5510   30.1660   44.5050 C   0  0  0  0  0  0  0  0  0  0  0  0
   56.0420   30.1270   44.2220 C   0  0  0  0  0  0  0  0  0  0  0  0
   55.3850   29.3100   45.1550 O   0  0  0  0  0  0  0  0  0  0  0  0
   58.8980   30.5860   46.6720 C   0  0  0  0  0  0  0  0  0  0  0  0
   60.2270   33.1260   46.2040 C   0  0  0  0  0  0  0  0  0  0  0  0
   58.6574   35.9951   45.2229 H   0  0  0  0  0  0  0  0  0  0  0  0
   60.0951   35.3070   44.3945 H   0  0  0  0  0  0  0  0  0  0  0  0
   58.5415   34.4054   44.3945 H   0  0  0  0  0  0  0  0  0  0  0  0
   58.7653   35.9132   47.5324 H   0  0  0  0  0  0  0  0  0  0  0  0
   59.3822   34.7486   49.6413 H   0  0  0  0  0  0  0  0  0  0  0  0
   60.2836   32.9953   50.7819 H   0  0  0  0  0  0  0  0  0  0  0  0
   60.2048   31.3797   50.0007 H   0  0  0  0  0  0  0  0  0  0  0  0
   61.7456   32.3032   50.0007 H   0  0  0  0  0  0  0  0  0  0  0  0
   62.0343   31.1339   46.5321 H   0  0  0  0  0  0  0  0  0  0  0  0
   61.6135   30.8060   48.2675 H   0  0  0  0  0  0  0  0  0  0  0  0
   60.2390   29.2970   47.6040 H   0  0  0  0  0  0  0  0  0  0  0  0
   60.6943   30.1396   44.7988 H   0  0  0  0  0  0  0  0  0  0  0  0
   61.7474   29.0273   45.7672 H   0  0  0  0  0  0  0  0  0  0  0  0
   59.7570   28.1672   44.1202 H   0  0  0  0  0  0  0  0  0  0  0  0
   60.3141   27.2961   45.6289 H   0  0  0  0  0  0  0  0  0  0  0  0
   59.2314   26.9929   47.3017 H   0  0  0  0  0  0  0  0  0  0  0  0
   57.9109   28.0939   47.8210 H   0  0  0  0  0  0  0  0  0  0  0  0
   55.7884   27.3711   45.4424 H   0  0  0  0  0  0  0  0  0  0  0  0
   55.6582   23.0764   48.3038 H   0  0  0  0  0  0  0  0  0  0  0  0
   54.6777   22.9795   46.8018 H   0  0  0  0  0  0  0  0  0  0  0  0
   56.3799   22.4057   46.8018 H   0  0  0  0  0  0  0  0  0  0  0  0
   58.0098   24.6595   47.9327 H   0  0  0  0  0  0  0  0  0  0  0  0
   57.0170   29.5968   46.5235 H   0  0  0  0  0  0  0  0  0  0  0  0
   57.8938   31.2082   44.4250 H   0  0  0  0  0  0  0  0  0  0  0  0
   58.0365   29.5104   43.7671 H   0  0  0  0  0  0  0  0  0  0  0  0
   55.6358   31.1473   44.2857 H   0  0  0  0  0  0  0  0  0  0  0  0
   55.8808   29.7153   43.2148 H   0  0  0  0  0  0  0  0  0  0  0  0
   55.5480   29.7030   46.0520 H   0  0  0  0  0  0  0  0  0  0  0  0
   58.9810   31.5245   46.1043 H   0  0  0  0  0  0  0  0  0  0  0  0
   58.4747   30.7393   47.6756 H   0  0  0  0  0  0  0  0  0  0  0  0
   60.4593   32.6718   45.2294 H   0  0  0  0  0  0  0  0  0  0  0  0
  1  2  1  0
  2  3  2  0
  3  4  1  0
  4  5  2  0
  5  6  1  0
  5  7  1  0
  7  8  1  0
  8  9  1  0
  9 10  1  0
 10 11  1  0
 11 12  1  0
 12 13  1  0
 13 14  1  0
 14 15  1  0
 15 16  2  0
 16 17  1  0
 17 18  1  0
 17 19  1  0
 12 20  1  0
 20 21  1  0
 21 22  1  0
 22 23  1  0
 20 24  1  0
  7 25  2  0
 25  2  1  0
 24  9  1  0
 19 14  2  0
  1 26  1  0
  1 27  1  0
  1 28  1  0
  3 29  1  0
  4 30  1  0
  6 31  1  0
  6 32  1  0
  6 33  1  0
  8 34  1  0
  8 35  1  0
  9 36  1  1
 10 37  1  0
 10 38  1  0
 11 39  1  0
 11 40  1  0
 13 41  1  0
 13 42  1  0
 15 43  1  0
 18 44  1  0
 18 45  1  0
 18 46  1  0
 19 47  1  0
 20 48  1  1
 21 49  1  0
 21 50  1  0
 22 51  1  0
 22 52  1  0
 23 53  1  0
 24 54  1  0
 24 55  1  0
 25 56  1  0
M  CHG  1   9   1
M  END
>  <UniqueID>  (91) 
85

>  <SMILES>  (91) 
Cc1ccc(C)c(C[N@@H+]2CCN(Cc3cnn(C)c3)[C@H](CCO)C2)c1

>  <Energy>  (91) 
98.76101374085651

>  <Genealogy>  (91) 
Cc1ccc(C)c(C[NH+]2CCN(Cc3cnn(C)c3)C(CCO)C2)c1 (protonated)
Cc1ccc(C)c(C[N@@H+]2CCN(Cc3cnn(C)c3)[C@H](CCO)C2)c1 (chirality)
Cc1ccc(C)c(C[N@@H+]2CCN(Cc3cnn(C)c3)[C@H](CCO)C2)c1 (3D coordinates assigned)
Cc1ccc(C)c(C[N@@H+]2CCN(Cc3cnn(C)c3)[C@H](CCO)C2)c1 (nonaromatic ring conformer: 98.76101374085651 kcal/mol)

>  <smiles>  (91) 
Cc1ccc(C)c(CN2CCN(Cc3cnn(C)c3)C(CCO)C2)c1

>  <score_type>  (91) 
oracle

>  <origin>  (91) 
adg

>  <m_score__min__energy>  (91) 
-7.6200000000000001

>  <m_primary>  (91) 
energy

$$$$
92:0
     RDKit          3D

 43 45  0  0  0  0  0  0  0  0999 V2000
   62.9240   34.2630   49.7330 C   0  0  0  0  0  0  0  0  0  0  0  0
   61.8930   34.1740   48.6480 C   0  0  0  0  0  0  0  0  0  0  0  0
   62.2320   33.6530   47.3910 C   0  0  0  0  0  0  0  0  0  0  0  0
   61.2640   33.5360   46.3890 C   0  0  0  0  0  0  0  0  0  0  0  0
   59.9340   33.9250   46.6390 C   0  0  0  0  0  0  0  0  0  0  0  0
   58.9060   33.8130   45.6460 N   0  0  0  0  0  0  0  0  0  0  0  0
   58.0920   32.3460   45.2080 S   0  0  0  0  0  0  0  0  0  0  0  0
   58.4790   31.9650   43.8060 O   0  0  0  0  0  0  0  0  0  0  0  0
   56.6080   32.5740   45.2550 O   0  0  0  0  0  0  0  0  0  0  0  0
   58.5070   31.0710   46.3500 C   0  0  0  0  0  0  0  0  0  0  0  0
   59.1000   31.4050   47.5720 C   0  0  0  0  0  0  0  0  0  0  0  0
   59.4560   30.4040   48.4770 C   0  0  0  0  0  0  0  0  0  0  0  0
   59.2210   29.0610   48.1660 C   0  0  0  0  0  0  0  0  0  0  0  0
   58.6190   28.7070   46.9450 C   0  0  0  0  0  0  0  0  0  0  0  0
   58.3900   27.2790   46.6150 C   0  0  0  0  0  0  0  0  0  0  0  0
   59.3630   26.5610   46.2540 O   0  0  0  0  0  0  0  0  0  0  0  0
   57.0830   26.6930   46.7420 N   0  0  0  0  0  0  0  0  0  0  0  0
   56.6720   25.5090   46.0330 C   0  0  0  0  0  0  0  0  0  0  0  0
   57.6040   24.5120   45.6850 C   0  0  0  0  0  0  0  0  0  0  0  0
   57.1960   23.3780   44.9750 C   0  0  0  0  0  0  0  0  0  0  0  0
   58.3670   22.1420   44.5500 Cl  0  0  0  0  0  0  0  0  0  0  0  0
   55.8600   23.2350   44.5930 C   0  0  0  0  0  0  0  0  0  0  0  0
   54.9310   24.2260   44.9160 C   0  0  0  0  0  0  0  0  0  0  0  0
   55.3310   25.3610   45.6300 C   0  0  0  0  0  0  0  0  0  0  0  0
   54.3900   26.3360   45.9430 O   0  0  0  0  0  0  0  0  0  0  0  0
   58.2690   29.7240   46.0380 C   0  0  0  0  0  0  0  0  0  0  0  0
   59.5960   34.4290   47.9000 C   0  0  0  0  0  0  0  0  0  0  0  0
   60.5640   34.5490   48.9010 C   0  0  0  0  0  0  0  0  0  0  0  0
   62.4284   34.2202   50.7141 H   0  0  0  0  0  0  0  0  0  0  0  0
   63.6272   33.4222   49.6404 H   0  0  0  0  0  0  0  0  0  0  0  0
   63.4727   35.2119   49.6404 H   0  0  0  0  0  0  0  0  0  0  0  0
   63.2659   33.3344   47.1921 H   0  0  0  0  0  0  0  0  0  0  0  0
   61.5424   33.1386   45.4018 H   0  0  0  0  0  0  0  0  0  0  0  0
   59.2864   32.4602   47.8205 H   0  0  0  0  0  0  0  0  0  0  0  0
   59.9223   30.6719   49.4366 H   0  0  0  0  0  0  0  0  0  0  0  0
   59.5088   28.2762   48.8810 H   0  0  0  0  0  0  0  0  0  0  0  0
   56.4330   27.0950   47.4520 H   0  0  0  0  0  0  0  0  0  0  0  0
   58.6594   24.6259   45.9734 H   0  0  0  0  0  0  0  0  0  0  0  0
   55.5397   22.3413   44.0375 H   0  0  0  0  0  0  0  0  0  0  0  0
   53.8809   24.1141   44.6081 H   0  0  0  0  0  0  0  0  0  0  0  0
   57.8048   29.4608   45.0761 H   0  0  0  0  0  0  0  0  0  0  0  0
   58.5591   34.7335   48.1052 H   0  0  0  0  0  0  0  0  0  0  0  0
   60.2835   34.9387   49.8907 H   0  0  0  0  0  0  0  0  0  0  0  0
  1  2  1  0
  2  3  2  0
  3  4  1  0
  4  5  2  0
  5  6  1  0
  6  7  1  0
  7  8  2  0
  7  9  2  0
  7 10  1  0
 10 11  2  0
 11 12  1  0
 12 13  2  0
 13 14  1  0
 14 15  1  0
 15 16  2  0
 15 17  1  0
 17 18  1  0
 18 19  2  0
 19 20  1  0
 20 21  1  0
 20 22  2  0
 22 23  1  0
 23 24  2  0
 24 25  1  0
 14 26  2  0
  5 27  1  0
 27 28  2  0
 28  2  1  0
 26 10  1  0
 24 18  1  0
  1 29  1  0
  1 30  1  0
  1 31  1  0
  3 32  1  0
  4 33  1  0
 11 34  1  0
 12 35  1  0
 13 36  1  0
 17 37  1  0
 19 38  1  0
 22 39  1  0
 23 40  1  0
 26 41  1  0
 27 42  1  0
 28 43  1  0
M  CHG  2   6  -1  25  -1
M  END
>  <UniqueID>  (92) 
86

>  <SMILES>  (92) 
Cc1ccc([N-]S(=O)(=O)c2cccc(C(=O)Nc3cc(Cl)ccc3[O-])c2)cc1

>  <Energy>  (92) 
54.028041858498824

>  <Genealogy>  (92) 
Cc1ccc([N-]S(=O)(=O)c2cccc(C(=O)Nc3cc(Cl)ccc3[O-])c2)cc1 (protonated)
Cc1ccc([N-]S(=O)(=O)c2cccc(C(=O)Nc3cc(Cl)ccc3[O-])c2)cc1 (3D coordinates assigned)
Cc1ccc([N-]S(=O)(=O)c2cccc(C(=O)Nc3cc(Cl)ccc3[O-])c2)cc1 (optimized conformer: 54.028041858498824 kcal/mol)

>  <smiles>  (92) 
Cc1ccc(NS(=O)(=O)c2cccc(C(=O)Nc3cc(Cl)ccc3O)c2)cc1

>  <score_type>  (92) 
oracle

>  <origin>  (92) 
adg

>  <m_score__min__energy>  (92) 
-14.02

>  <m_primary>  (92) 
energy

$$$$
93:0
     RDKit          3D

 24 26  0  0  0  0  0  0  0  0999 V2000
   57.8260   26.6380   46.9110 O   0  0  0  0  0  0  0  0  0  0  0  0
   57.3790   27.6450   46.3010 C   0  0  0  0  0  0  0  0  0  0  0  0
   56.1850   27.5850   45.6400 N   0  0  0  0  0  0  0  0  0  0  0  0
   55.6880   28.6460   44.9820 N   0  0  0  0  0  0  0  0  0  0  0  0
   56.3590   29.8380   44.9430 C   0  0  0  0  0  0  0  0  0  0  0  0
   55.8850   30.8260   44.3220 O   0  0  0  0  0  0  0  0  0  0  0  0
   57.5750   29.9210   45.6070 C   0  0  0  0  0  0  0  0  0  0  0  0
   58.3850   30.9460   45.7060 O   0  0  0  0  0  0  0  0  0  0  0  0
   59.4240   30.5660   46.4330 C   0  0  0  0  0  0  0  0  0  0  0  0
   60.5560   31.4650   46.7620 C   0  0  0  0  0  0  0  0  0  0  0  0
   61.7780   30.9140   47.1880 C   0  0  0  0  0  0  0  0  0  0  0  0
   62.8590   31.7450   47.5020 C   0  0  0  0  0  0  0  0  0  0  0  0
   62.7300   33.1310   47.3960 C   0  0  0  0  0  0  0  0  0  0  0  0
   61.5220   33.6900   46.9750 C   0  0  0  0  0  0  0  0  0  0  0  0
   60.4390   32.8640   46.6590 C   0  0  0  0  0  0  0  0  0  0  0  0
   59.2780   29.2310   46.8230 C   0  0  0  0  0  0  0  0  0  0  0  0
   58.0760   28.8470   46.2730 C   0  0  0  0  0  0  0  0  0  0  0  0
   54.7710   28.5510   44.4920 H   0  0  0  0  0  0  0  0  0  0  0  0
   61.8845   29.8226   47.2749 H   0  0  0  0  0  0  0  0  0  0  0  0
   63.8117   31.3057   47.8328 H   0  0  0  0  0  0  0  0  0  0  0  0
   63.5805   33.7829   47.6443 H   0  0  0  0  0  0  0  0  0  0  0  0
   61.4220   34.7823   46.8917 H   0  0  0  0  0  0  0  0  0  0  0  0
   59.4897   33.3102   46.3279 H   0  0  0  0  0  0  0  0  0  0  0  0
   59.9667   28.6257   47.4307 H   0  0  0  0  0  0  0  0  0  0  0  0
  1  2  2  0
  2  3  1  0
  3  4  1  0
  4  5  1  0
  5  6  2  0
  5  7  1  0
  7  8  1  0
  8  9  1  0
  9 10  1  0
 10 11  2  0
 11 12  1  0
 12 13  2  0
 13 14  1  0
 14 15  2  0
  9 16  2  0
 16 17  1  0
 17  2  1  0
 17  7  2  0
 15 10  1  0
  4 18  1  0
 11 19  1  0
 12 20  1  0
 13 21  1  0
 14 22  1  0
 15 23  1  0
 16 24  1  0
M  CHG  1   3  -1
M  END
>  <UniqueID>  (93) 
87

>  <SMILES>  (93) 
O=c1[n-][nH]c(=O)c2oc(-c3ccccc3)cc12

>  <Energy>  (93) 
64.4130456005588

>  <Genealogy>  (93) 
O=c1[n-][nH]c(=O)c2oc(-c3ccccc3)cc12 (protonated)
O=c1[n-][nH]c(=O)c2oc(-c3ccccc3)cc12 (3D coordinates assigned)
O=c1[n-][nH]c(=O)c2oc(-c3ccccc3)cc12 (optimized conformer: 64.4130456005588 kcal/mol)

>  <smiles>  (93) 
O=c1[nH][nH]c(=O)c2oc(-c3ccccc3)cc12

>  <score_type>  (93) 
oracle

>  <origin>  (93) 
adg

>  <m_score__min__energy>  (93) 
-8.2300000000000004

>  <m_primary>  (93) 
energy

$$$$
94:0
     RDKit          3D

 56 58  0  0  0  0  0  0  0  0999 V2000
   54.9230   23.0070   46.6080 C   0  0  0  0  0  0  0  0  0  0  0  0
   55.3790   24.6120   45.9910 S   0  0  0  0  0  0  0  0  0  0  0  0
   56.2730   24.4160   44.4670 C   0  0  0  0  0  0  0  0  0  0  0  0
   54.1410   25.4240   45.7220 O   0  0  0  0  0  0  0  0  0  0  0  0
   56.3100   25.3370   47.0360 N   0  0  0  0  0  0  0  0  0  0  0  0
   57.2390   26.3770   46.7060 C   0  0  0  0  0  0  0  0  0  0  0  0
   58.5600   26.2580   47.1510 C   0  0  0  0  0  0  0  0  0  0  0  0
   59.5000   27.2440   46.8510 C   0  0  0  0  0  0  0  0  0  0  0  0
   59.1300   28.3710   46.1110 C   0  0  0  0  0  0  0  0  0  0  0  0
   60.3520   29.5930   45.7700 Cl  0  0  0  0  0  0  0  0  0  0  0  0
   57.7980   28.5170   45.6760 C   0  0  0  0  0  0  0  0  0  0  0  0
   57.3950   29.6830   44.8660 C   0  0  0  0  0  0  0  0  0  0  0  0
   57.3700   29.5850   43.6120 O   0  0  0  0  0  0  0  0  0  0  0  0
   57.0400   30.9290   45.4790 N   0  0  0  0  0  0  0  0  0  0  0  0
   57.9980   31.9930   45.7780 C   0  0  1  0  0  0  0  0  0  0  0  0
   58.1460   32.9430   44.5640 C   0  0  0  0  0  0  0  0  0  0  0  0
   58.4480   34.4040   44.9590 C   0  0  0  0  0  0  0  0  0  0  0  0
   59.2990   34.5140   46.2420 C   0  0  2  0  0  0  0  0  0  0  0  0
   60.7440   34.0280   45.9790 C   0  0  0  0  0  0  0  0  0  0  0  0
   60.9950   32.7400   46.6300 N   0  0  0  0  0  0  0  0  0  0  0  0
   62.0100   32.5310   47.6300 C   0  0  0  0  0  0  0  0  0  0  0  0
   61.8140   31.6400   48.7030 C   0  0  0  0  0  0  0  0  0  0  0  0
   62.8110   31.4590   49.6650 C   0  0  0  0  0  0  0  0  0  0  0  0
   62.6130   30.5960   50.6930 F   0  0  0  0  0  0  0  0  0  0  0  0
   64.0090   32.1720   49.5750 C   0  0  0  0  0  0  0  0  0  0  0  0
   64.2070   33.0730   48.5270 C   0  0  0  0  0  0  0  0  0  0  0  0
   63.2130   33.2590   47.5610 C   0  0  0  0  0  0  0  0  0  0  0  0
   63.4290   34.1340   46.5470 F   0  0  0  0  0  0  0  0  0  0  0  0
   58.6160   33.7910   47.4420 C   0  0  0  0  0  0  0  0  0  0  0  0
   57.5550   32.7520   47.0290 C   0  0  0  0  0  0  0  0  0  0  0  0
   56.8480   27.5310   45.9960 C   0  0  0  0  0  0  0  0  0  0  0  0
   55.5200   27.7050   45.6180 O   0  0  0  0  0  0  0  0  0  0  0  0
   54.9273   23.0222   47.7079 H   0  0  0  0  0  0  0  0  0  0  0  0
   53.9159   22.7486   46.2488 H   0  0  0  0  0  0  0  0  0  0  0  0
   55.6438   22.2577   46.2488 H   0  0  0  0  0  0  0  0  0  0  0  0
   57.3258   24.1852   44.6866 H   0  0  0  0  0  0  0  0  0  0  0  0
   55.8308   23.5935   43.8857 H   0  0  0  0  0  0  0  0  0  0  0  0
   56.2155   25.3481   43.8857 H   0  0  0  0  0  0  0  0  0  0  0  0
   58.8597   25.3801   47.7421 H   0  0  0  0  0  0  0  0  0  0  0  0
   60.5379   27.1342   47.1985 H   0  0  0  0  0  0  0  0  0  0  0  0
   58.9847   31.5486   45.9756 H   0  0  0  0  0  0  0  0  0  0  0  0
   57.2074   32.9242   43.9907 H   0  0  0  0  0  0  0  0  0  0  0  0
   59.0022   32.5836   43.9743 H   0  0  0  0  0  0  0  0  0  0  0  0
   57.4947   34.9276   45.1238 H   0  0  0  0  0  0  0  0  0  0  0  0
   59.0257   34.8557   44.1391 H   0  0  0  0  0  0  0  0  0  0  0  0
   59.3683   35.5732   46.5305 H   0  0  0  0  0  0  0  0  0  0  0  0
   60.8940   33.9176   44.8949 H   0  0  0  0  0  0  0  0  0  0  0  0
   61.4425   34.7701   46.3929 H   0  0  0  0  0  0  0  0  0  0  0  0
   60.2870   31.9870   46.4720 H   0  0  0  0  0  0  0  0  0  0  0  0
   60.8692   31.0826   48.7843 H   0  0  0  0  0  0  0  0  0  0  0  0
   64.7958   32.0236   50.3293 H   0  0  0  0  0  0  0  0  0  0  0  0
   65.1482   33.6386   48.4609 H   0  0  0  0  0  0  0  0  0  0  0  0
   58.1292   34.5506   48.0713 H   0  0  0  0  0  0  0  0  0  0  0  0
   59.4072   33.2424   47.9740 H   0  0  0  0  0  0  0  0  0  0  0  0
   56.6063   33.2683   46.8207 H   0  0  0  0  0  0  0  0  0  0  0  0
   57.4264   32.0327   47.8513 H   0  0  0  0  0  0  0  0  0  0  0  0
  1  2  1  0
  2  3  1  0
  2  4  2  0
  2  5  2  0
  5  6  1  0
  6  7  2  0
  7  8  1  0
  8  9  2  0
  9 10  1  0
  9 11  1  0
 11 12  1  0
 12 13  2  0
 12 14  1  0
 14 15  1  0
 15 16  1  0
 16 17  1  0
 17 18  1  0
 18 19  1  0
 19 20  1  0
 20 21  1  0
 21 22  2  0
 22 23  1  0
 23 24  1  0
 23 25  2  0
 25 26  1  0
 26 27  2  0
 27 28  1  0
 18 29  1  0
 29 30  1  0
 11 31  2  0
 31 32  1  0
 31  6  1  0
 30 15  1  0
 27 21  1  0
  1 33  1  0
  1 34  1  0
  1 35  1  0
  3 36  1  0
  3 37  1  0
  3 38  1  0
  7 39  1  0
  8 40  1  0
 15 41  1  1
 16 42  1  0
 16 43  1  0
 17 44  1  0
 17 45  1  0
 18 46  1  1
 19 47  1  0
 19 48  1  0
 20 49  1  0
 22 50  1  0
 25 51  1  0
 26 52  1  0
 29 53  1  0
 29 54  1  0
 30 55  1  0
 30 56  1  0
M  CHG  2  14  -1  32  -1
M  END
>  <UniqueID>  (94) 
88

>  <SMILES>  (94) 
CS(C)(=O)=Nc1ccc(Cl)c(C(=O)[N-]C2CCC(CNc3cc(F)ccc3F)CC2)c1[O-]

>  <Energy>  (94) 
63.253871758913235

>  <Genealogy>  (94) 
CS(C)(=O)=Nc1ccc(Cl)c(C(=O)[N-]C2CCC(CNc3cc(F)ccc3F)CC2)c1[O-] (protonated)
CS(C)(=O)=Nc1ccc(Cl)c(C(=O)[N-]C2CCC(CNc3cc(F)ccc3F)CC2)c1[O-] (3D coordinates assigned)
CS(C)(=O)=Nc1ccc(Cl)c(C(=O)[N-]C2CCC(CNc3cc(F)ccc3F)CC2)c1[O-] (nonaromatic ring conformer: 63.253871758913235 kcal/mol)

>  <smiles>  (94) 
CS(C)(=O)=Nc1ccc(Cl)c(C(=O)NC2CCC(CNc3cc(F)ccc3F)CC2)c1O

>  <score_type>  (94) 
oracle

>  <origin>  (94) 
adg

>  <m_score__min__energy>  (94) 
-15.039999999999999

>  <m_primary>  (94) 
energy

$$$$
95:0
     RDKit          3D

 43 46  0  0  0  0  0  0  0  0999 V2000
   59.2910   34.8550   47.8210 C   0  0  0  0  0  0  0  0  0  0  0  0
   59.4360   34.4200   46.4740 O   0  0  0  0  0  0  0  0  0  0  0  0
   58.7410   33.3400   45.9040 C   0  0  0  0  0  0  0  0  0  0  0  0
   57.7230   33.5340   44.9500 C   0  0  0  0  0  0  0  0  0  0  0  0
   57.0400   32.4430   44.4130 C   0  0  0  0  0  0  0  0  0  0  0  0
   57.3570   31.1420   44.8140 C   0  0  0  0  0  0  0  0  0  0  0  0
   56.5010   29.7780   44.1020 S   0  0  0  0  0  0  0  0  0  0  0  0
   56.2680   30.0580   42.6450 O   0  0  0  0  0  0  0  0  0  0  0  0
   55.1720   29.5680   44.7730 O   0  0  0  0  0  0  0  0  0  0  0  0
   57.4560   28.3390   44.2620 N   0  0  0  0  0  0  0  0  0  0  0  0
   57.2780   27.4430   45.1860 C   0  0  0  0  0  0  0  0  0  0  0  0
   56.0550   27.0750   45.6160 N   0  0  0  0  0  0  0  0  0  0  0  0
   56.1130   26.1210   46.5830 C   0  0  0  0  0  0  0  0  0  0  0  0
   57.3990   25.7220   46.9310 C   0  0  0  0  0  0  0  0  0  0  0  0
   58.4920   26.5960   45.9940 S   0  0  0  0  0  0  0  0  0  0  0  0
   58.3690   30.9380   45.7600 C   0  0  0  0  0  0  0  0  0  0  0  0
   59.0660   32.0280   46.3080 C   0  0  0  0  0  0  0  0  0  0  0  0
   60.1510   31.7820   47.2880 C   0  0  0  0  0  0  0  0  0  0  0  0
   61.3670   32.4660   47.1590 C   0  0  0  0  0  0  0  0  0  0  0  0
   62.4140   32.2470   48.0580 C   0  0  0  0  0  0  0  0  0  0  0  0
   63.9040   33.1550   47.8130 Cl  0  0  0  0  0  0  0  0  0  0  0  0
   62.2570   31.3220   49.1110 C   0  0  0  0  0  0  0  0  0  0  0  0
   63.2930   31.0740   50.0340 C   0  0  0  0  0  0  0  0  0  0  0  0
   63.1160   30.1530   51.0690 C   0  0  0  0  0  0  0  0  0  0  0  0
   64.4160   29.8560   52.2100 Cl  0  0  0  0  0  0  0  0  0  0  0  0
   61.9070   29.4690   51.2010 C   0  0  0  0  0  0  0  0  0  0  0  0
   60.8680   29.7000   50.2980 C   0  0  0  0  0  0  0  0  0  0  0  0
   61.0270   30.6220   49.2480 C   0  0  0  0  0  0  0  0  0  0  0  0
   59.9800   30.8590   48.3350 C   0  0  0  0  0  0  0  0  0  0  0  0
   58.7650   30.1910   48.4760 O   0  0  0  0  0  0  0  0  0  0  0  0
   59.5641   34.0357   48.5023 H   0  0  0  0  0  0  0  0  0  0  0  0
   59.9505   35.7168   48.0010 H   0  0  0  0  0  0  0  0  0  0  0  0
   58.2463   35.1488   48.0010 H   0  0  0  0  0  0  0  0  0  0  0  0
   57.4649   34.5531   44.6263 H   0  0  0  0  0  0  0  0  0  0  0  0
   56.2466   32.6074   43.6690 H   0  0  0  0  0  0  0  0  0  0  0  0
   55.1600   27.4730   45.2500 H   0  0  0  0  0  0  0  0  0  0  0  0
   55.2131   25.6979   47.0533 H   0  0  0  0  0  0  0  0  0  0  0  0
   57.6576   24.9663   47.6874 H   0  0  0  0  0  0  0  0  0  0  0  0
   58.6206   29.9152   46.0770 H   0  0  0  0  0  0  0  0  0  0  0  0
   61.4994   33.1860   46.3379 H   0  0  0  0  0  0  0  0  0  0  0  0
   64.2487   31.6102   49.9384 H   0  0  0  0  0  0  0  0  0  0  0  0
   61.7723   28.7458   52.0188 H   0  0  0  0  0  0  0  0  0  0  0  0
   59.9178   29.1569   50.4085 H   0  0  0  0  0  0  0  0  0  0  0  0
  1  2  1  0
  2  3  1  0
  3  4  2  0
  4  5  1  0
  5  6  2  0
  6  7  1  0
  7  8  2  0
  7  9  2  0
  7 10  1  0
 10 11  2  3
 11 12  1  0
 12 13  1  0
 13 14  2  0
 14 15  1  0
  6 16  1  0
 16 17  2  0
 17 18  1  0
 18 19  2  0
 19 20  1  0
 20 21  1  0
 20 22  2  0
 22 23  1  0
 23 24  2  0
 24 25  1  0
 24 26  1  0
 26 27  2  0
 27 28  1  0
 28 29  2  0
 29 30  1  0
 17  3  1  0
 29 18  1  0
 15 11  1  0
 28 22  1  0
  1 31  1  0
  1 32  1  0
  1 33  1  0
  4 34  1  0
  5 35  1  0
 12 36  1  0
 13 37  1  0
 14 38  1  0
 16 39  1  0
 19 40  1  0
 23 41  1  0
 26 42  1  0
 27 43  1  0
M  CHG  1  30  -1
M  END
>  <UniqueID>  (95) 
89

>  <SMILES>  (95) 
COc1ccc(S(=O)(=O)N=c2[nH]ccs2)cc1-c1cc(Cl)c2cc(Cl)ccc2c1[O-]

>  <Energy>  (95) 
93.21059899807109

>  <Genealogy>  (95) 
COc1ccc(S(=O)(=O)N=c2[nH]ccs2)cc1-c1cc(Cl)c2cc(Cl)ccc2c1[O-] (protonated)
COc1ccc(S(=O)(=O)N=c2[nH]ccs2)cc1-c1cc(Cl)c2cc(Cl)ccc2c1[O-] (3D coordinates assigned)
COc1ccc(S(=O)(=O)N=c2[nH]ccs2)cc1-c1cc(Cl)c2cc(Cl)ccc2c1[O-] (optimized conformer: 93.21059899807109 kcal/mol)

>  <smiles>  (95) 
COc1ccc(S(=O)(=O)N=c2[nH]ccs2)cc1-c1cc(Cl)c2cc(Cl)ccc2c1O

>  <score_type>  (95) 
oracle

>  <origin>  (95) 
adg

>  <m_score__min__energy>  (95) 
-12.869999999999999

>  <m_primary>  (95) 
energy

$$$$
