0:0
     RDKit          3D

 43 44  0  0  1  0  0  0  0  0999 V2000
   57.3590   32.3440   40.9910 C   0  0  0  0  0  0  0  0  0  0  0  0
   57.8640   31.9950   42.3630 C   0  0  0  0  0  0  0  0  0  0  0  0
   56.9750   30.9150   42.9860 C   0  0  0  0  0  0  0  0  0  0  0  0
   57.5140   30.5540   44.3690 C   0  0  0  0  0  0  0  0  0  0  0  0
   56.6150   29.5810   44.9530 N   0  0  0  0  0  0  0  0  0  0  0  0
   57.0120   28.4660   45.4690 C   0  0  0  0  0  0  0  0  0  0  0  0
   58.3040   28.3710   45.8360 N   0  0  0  0  0  0  0  0  0  0  0  0
   58.7240   27.2050   46.3760 C   0  0  0  0  0  0  0  0  0  0  0  0
   60.1360   27.0230   46.8050 C   0  0  0  0  0  0  0  0  0  0  0  0
   60.3060   27.1180   48.3060 C   0  0  0  0  0  0  0  0  0  0  0  0
   57.8510   26.1910   46.5290 N   0  0  0  0  0  0  0  0  0  0  0  0
   56.5610   26.2860   46.1640 C   0  0  0  0  0  0  0  0  0  0  0  0
   55.8030   25.2660   46.3490 N   0  0  0  0  0  0  0  0  0  0  0  0
   55.1580   24.6410   45.2080 C   0  0  0  0  0  0  0  0  0  0  0  0
   56.0000   23.5630   44.6300 C   0  0  0  0  0  0  0  0  0  0  0  0
   57.1920   23.1580   45.2040 C   0  0  0  0  0  0  0  0  0  0  0  0
   57.9100   22.1420   44.5910 C   0  0  0  0  0  0  0  0  0  0  0  0
   57.4200   21.5570   43.4200 C   0  0  0  0  0  0  0  0  0  0  0  0
   56.2550   21.9900   42.9050 N   0  0  0  0  0  0  0  0  0  0  0  0
   55.5180   22.9730   43.4600 C   0  0  0  0  0  0  0  0  0  0  0  0
   56.1400   27.4440   45.6250 N   0  0  0  0  0  0  0  0  0  0  0  0
   56.4570   32.9673   41.0799 H   0  0  0  0  0  0  0  0  0  0  0  0
   58.1358   32.8989   40.4445 H   0  0  0  0  0  0  0  0  0  0  0  0
   57.1146   31.4212   40.4445 H   0  0  0  0  0  0  0  0  0  0  0  0
   58.8953   31.6199   42.2876 H   0  0  0  0  0  0  0  0  0  0  0  0
   57.8408   32.8936   42.9971 H   0  0  0  0  0  0  0  0  0  0  0  0
   55.9468   31.2944   43.0798 H   0  0  0  0  0  0  0  0  0  0  0  0
   56.9765   30.0212   42.3449 H   0  0  0  0  0  0  0  0  0  0  0  0
   58.5225   30.1243   44.2774 H   0  0  0  0  0  0  0  0  0  0  0  0
   57.5759   31.4502   45.0038 H   0  0  0  0  0  0  0  0  0  0  0  0
   58.9960   29.1490   45.7230 H   0  0  0  0  0  0  0  0  0  0  0  0
   60.4798   26.0320   46.4737 H   0  0  0  0  0  0  0  0  0  0  0  0
   60.7285   27.8311   46.3512 H   0  0  0  0  0  0  0  0  0  0  0  0
   59.4494   26.6393   48.8031 H   0  0  0  0  0  0  0  0  0  0  0  0
   61.2342   26.6078   48.6029 H   0  0  0  0  0  0  0  0  0  0  0  0
   60.3579   28.1759   48.6029 H   0  0  0  0  0  0  0  0  0  0  0  0
   54.1986   24.2108   45.5311 H   0  0  0  0  0  0  0  0  0  0  0  0
   55.0025   25.4090   44.4360 H   0  0  0  0  0  0  0  0  0  0  0  0
   57.5618   23.6311   46.1256 H   0  0  0  0  0  0  0  0  0  0  0  0
   58.8607   21.7982   45.0244 H   0  0  0  0  0  0  0  0  0  0  0  0
   57.9811   20.7509   42.9246 H   0  0  0  0  0  0  0  0  0  0  0  0
   54.5701   23.2988   43.0069 H   0  0  0  0  0  0  0  0  0  0  0  0
   55.1450   27.5270   45.3390 H   0  0  0  0  0  0  0  0  0  0  0  0
  1  2  1  0
  2  3  1  0
  3  4  1  0
  4  5  1  0
  5  6  2  0
  6  7  1  0
  7  8  1  0
  8  9  1  0
  9 10  1  0
  8 11  2  0
 11 12  1  0
 12 13  2  0
 13 14  1  0
 14 15  1  0
 15 16  2  0
 16 17  1  0
 17 18  2  0
 18 19  1  0
 19 20  2  0
 12 21  1  0
 21  6  1  0
 20 15  1  0
  1 22  1  0
  1 23  1  0
  1 24  1  0
  2 25  1  0
  2 26  1  0
  3 27  1  0
  3 28  1  0
  4 29  1  0
  4 30  1  0
  7 31  1  0
  9 32  1  0
  9 33  1  0
 10 34  1  0
 10 35  1  0
 10 36  1  0
 14 37  1  0
 14 38  1  0
 16 39  1  0
 17 40  1  0
 18 41  1  0
 20 42  1  0
 21 43  1  0
M  END
>  <smiles>  (1) 
CCCCN=c1[nH]c(CC)nc(=NCc2cccnc2)[nH]1

>  <score_type>  (1) 
oracle

>  <origin>  (1) 
adg

>  <m_score__min__energy>  (1) 
-7.21

>  <m_primary>  (1) 
energy

$$$$
1:0
     RDKit          3D

 33 35  0  0  0  0  0  0  0  0999 V2000
   55.2300   29.6420   44.5540 O   0  0  0  0  0  0  0  0  0  0  0  0
   56.3800   29.9130   44.1150 C   0  0  0  0  0  0  0  0  0  0  0  0
   57.0120   29.0120   43.0910 C   0  0  0  0  0  0  0  0  0  0  0  0
   57.7810   27.8550   43.7450 C   0  0  0  0  0  0  0  0  0  0  0  0
   58.5540   28.3090   44.9560 C   0  0  0  0  0  0  0  0  0  0  0  0
   58.0880   28.0120   46.2490 C   0  0  0  0  0  0  0  0  0  0  0  0
   58.8250   28.4060   47.3700 C   0  0  0  0  0  0  0  0  0  0  0  0
   60.0310   29.0930   47.2100 C   0  0  0  0  0  0  0  0  0  0  0  0
   60.5050   29.3840   45.9280 C   0  0  0  0  0  0  0  0  0  0  0  0
   59.7720   28.9920   44.8040 C   0  0  0  0  0  0  0  0  0  0  0  0
   57.1030   31.0810   44.6400 C   0  0  0  0  0  0  0  0  0  0  0  0
   57.5000   32.1300   43.8750 N   0  0  0  0  0  0  0  0  0  0  0  0
   58.0990   32.9450   44.7550 C   0  0  0  0  0  0  0  0  0  0  0  0
   58.6980   34.1820   44.5270 C   0  0  0  0  0  0  0  0  0  0  0  0
   59.2610   34.8440   45.6350 C   0  0  0  0  0  0  0  0  0  0  0  0
   59.2100   34.2580   46.9230 C   0  0  0  0  0  0  0  0  0  0  0  0
   58.5950   33.0050   47.1130 C   0  0  0  0  0  0  0  0  0  0  0  0
   58.0500   32.3820   45.9950 C   0  0  0  0  0  0  0  0  0  0  0  0
   57.4330   31.2290   45.9150 O   0  0  0  0  0  0  0  0  0  0  0  0
   56.2228   28.5960   42.4475 H   0  0  0  0  0  0  0  0  0  0  0  0
   57.7265   29.6091   42.5054 H   0  0  0  0  0  0  0  0  0  0  0  0
   57.0638   27.0791   44.0510 H   0  0  0  0  0  0  0  0  0  0  0  0
   58.4986   27.4630   43.0092 H   0  0  0  0  0  0  0  0  0  0  0  0
   57.1408   27.4680   46.3790 H   0  0  0  0  0  0  0  0  0  0  0  0
   58.4547   28.1747   48.3796 H   0  0  0  0  0  0  0  0  0  0  0  0
   60.6075   29.4049   48.0934 H   0  0  0  0  0  0  0  0  0  0  0  0
   61.4562   29.9222   45.8031 H   0  0  0  0  0  0  0  0  0  0  0  0
   60.1506   29.2193   43.7965 H   0  0  0  0  0  0  0  0  0  0  0  0
   57.3690   32.2740   42.8490 H   0  0  0  0  0  0  0  0  0  0  0  0
   58.7299   34.6244   43.5204 H   0  0  0  0  0  0  0  0  0  0  0  0
   59.7437   35.8230   45.4990 H   0  0  0  0  0  0  0  0  0  0  0  0
   59.6535   34.7847   47.7809 H   0  0  0  0  0  0  0  0  0  0  0  0
   58.5475   32.5371   48.1074 H   0  0  0  0  0  0  0  0  0  0  0  0
  1  2  2  0
  2  3  1  0
  3  4  1  0
  4  5  1  0
  5  6  2  0
  6  7  1  0
  7  8  2  0
  8  9  1  0
  9 10  2  0
  2 11  1  0
 11 12  2  0
 12 13  1  0
 13 14  2  0
 14 15  1  0
 15 16  2  0
 16 17  1  0
 17 18  2  0
 18 19  1  0
 10  5  1  0
 19 11  1  0
 18 13  1  0
  3 20  1  0
  3 21  1  0
  4 22  1  0
  4 23  1  0
  6 24  1  0
  7 25  1  0
  8 26  1  0
  9 27  1  0
 10 28  1  0
 12 29  1  0
 14 30  1  0
 15 31  1  0
 16 32  1  0
 17 33  1  0
M  CHG  1  12   1
M  END
>  <UniqueID>  (2) 
1

>  <SMILES>  (2) 
O=C(CCc1ccccc1)c1[nH+]c2ccccc2o1

>  <Energy>  (2) 
69.6898487245981

>  <Genealogy>  (2) 
O=C(CCc1ccccc1)c1[nH+]c2ccccc2o1 (protonated)
O=C(CCc1ccccc1)c1[nH+]c2ccccc2o1 (3D coordinates assigned)
O=C(CCc1ccccc1)c1[nH+]c2ccccc2o1 (optimized conformer: 69.6898487245981 kcal/mol)

>  <smiles>  (2) 
O=C(CCc1ccccc1)c1nc2ccccc2o1

>  <score_type>  (2) 
oracle

>  <origin>  (2) 
adg

>  <m_score__min__energy>  (2) 
-5.7800000000000002

>  <m_primary>  (2) 
energy

$$$$
2:0
     RDKit          3D

 22 23  0  0  0  0  0  0  0  0999 V2000
   57.7570   30.3440   52.6890 C   0  0  0  0  0  0  0  0  0  0  0  0
   56.9440   31.3480   52.1550 C   0  0  0  0  0  0  0  0  0  0  0  0
   55.5590   31.1690   52.0900 C   0  0  0  0  0  0  0  0  0  0  0  0
   54.9760   29.9870   52.5810 C   0  0  0  0  0  0  0  0  0  0  0  0
   53.5630   29.7530   52.4720 N   0  0  0  0  0  0  0  0  0  0  0  0
   52.6340   30.6180   52.1690 C   0  0  0  0  0  0  0  0  0  0  0  0
   51.8950   31.1960   53.2110 C   0  0  0  0  0  0  0  0  0  0  0  0
   50.9000   32.1330   52.9210 C   0  0  0  0  0  0  0  0  0  0  0  0
   50.6600   32.4960   51.6340 N   0  0  0  0  0  0  0  0  0  0  0  0
   51.3690   31.9690   50.6010 C   0  0  0  0  0  0  0  0  0  0  0  0
   52.3720   31.0280   50.8460 C   0  0  0  0  0  0  0  0  0  0  0  0
   55.7990   28.9710   53.0820 C   0  0  0  0  0  0  0  0  0  0  0  0
   57.1850   29.1530   53.1470 C   0  0  0  0  0  0  0  0  0  0  0  0
   58.8455   30.4907   52.7489 H   0  0  0  0  0  0  0  0  0  0  0  0
   57.3949   32.2807   51.7852 H   0  0  0  0  0  0  0  0  0  0  0  0
   54.9239   31.9542   51.6540 H   0  0  0  0  0  0  0  0  0  0  0  0
   52.0981   30.9124   54.2542 H   0  0  0  0  0  0  0  0  0  0  0  0
   50.3100   32.5775   53.7361 H   0  0  0  0  0  0  0  0  0  0  0  0
   51.1525   32.2842   49.5696 H   0  0  0  0  0  0  0  0  0  0  0  0
   52.9538   30.6095   50.0115 H   0  0  0  0  0  0  0  0  0  0  0  0
   55.3541   28.0256   53.4260 H   0  0  0  0  0  0  0  0  0  0  0  0
   57.8249   28.3586   53.5587 H   0  0  0  0  0  0  0  0  0  0  0  0
  1  2  2  0
  2  3  1  0
  3  4  2  0
  4  5  1  0
  5  6  2  3
  6  7  1  0
  7  8  2  0
  8  9  1  0
  9 10  1  0
 10 11  2  0
  4 12  1  0
 12 13  2  0
 13  1  1  0
 11  6  1  0
  1 14  1  0
  2 15  1  0
  3 16  1  0
  7 17  1  0
  8 18  1  0
 10 19  1  0
 11 20  1  0
 12 21  1  0
 13 22  1  0
M  CHG  1   9  -1
M  END
>  <UniqueID>  (3) 
2

>  <SMILES>  (3) 
c1ccc(N=c2cc[n-]cc2)cc1

>  <Energy>  (3) 
33.28726523155437

>  <Genealogy>  (3) 
c1ccc(N=c2cc[n-]cc2)cc1 (protonated)
c1ccc(N=c2cc[n-]cc2)cc1 (3D coordinates assigned)
c1ccc(N=c2cc[n-]cc2)cc1 (optimized conformer: 33.28726523155437 kcal/mol)

>  <smiles>  (3) 
c1ccc(N=c2cc[nH]cc2)cc1

>  <score_type>  (3) 
oracle

>  <origin>  (3) 
adg

>  <m_score__min__energy>  (3) 
-7.5599999999999996

>  <m_primary>  (3) 
energy

$$$$
3:0
     RDKit          3D

 39 41  0  0  0  0  0  0  0  0999 V2000
   53.7319   23.8826   45.7247 H   0  0  0  0  0  0  0  0  0  0  0  0
   54.6650   24.4540   45.6110 C   0  0  0  0  0  0  0  0  0  0  0  0
   54.7750   25.7540   45.9920 N   0  0  0  0  0  0  0  0  0  0  0  0
   56.0150   26.2360   45.7530 C   0  0  0  0  0  0  0  0  0  0  0  0
   56.3970   27.4490   46.0210 N   0  0  0  0  0  0  0  0  0  0  0  0
   57.6650   28.0310   45.6830 C   0  0  0  0  0  0  0  0  0  0  0  0
   58.7010   27.7730   46.3580 O   0  0  0  0  0  0  0  0  0  0  0  0
   57.7520   28.9770   44.5140 C   0  0  2  0  0  0  0  0  0  0  0  0
   58.2721   28.4612   43.6933 H   0  0  0  0  0  0  0  0  0  0  0  0
   58.5620   30.2120   44.8570 C   0  0  0  0  0  0  0  0  0  0  0  0
   59.5270   30.1110   45.6020 O   0  0  0  0  0  0  0  0  0  0  0  0
   58.2680   31.4930   44.2390 N   0  0  2  0  0  0  0  0  0  0  0  0
   59.1790   31.9810   44.0580 H   0  0  0  0  0  0  0  0  0  0  0  0
   57.4450   32.3550   45.1190 C   0  0  0  0  0  0  0  0  0  0  0  0
   56.9501   33.1215   44.5046 H   0  0  0  0  0  0  0  0  0  0  0  0
   56.7064   31.7179   45.6274 H   0  0  0  0  0  0  0  0  0  0  0  0
   58.2810   33.0400   46.1760 C   0  0  0  0  0  0  0  0  0  0  0  0
   58.4340   32.4540   47.4440 C   0  0  0  0  0  0  0  0  0  0  0  0
   57.9629   31.4837   47.6599 H   0  0  0  0  0  0  0  0  0  0  0  0
   59.1830   33.1000   48.4320 C   0  0  0  0  0  0  0  0  0  0  0  0
   59.3027   32.6359   49.4221 H   0  0  0  0  0  0  0  0  0  0  0  0
   59.7800   34.3350   48.1630 C   0  0  0  0  0  0  0  0  0  0  0  0
   60.5060   34.9600   49.1230 F   0  0  0  0  0  0  0  0  0  0  0  0
   59.6280   34.9270   46.9060 C   0  0  0  0  0  0  0  0  0  0  0  0
   60.0981   35.8991   46.6961 H   0  0  0  0  0  0  0  0  0  0  0  0
   58.8790   34.2850   45.9150 C   0  0  0  0  0  0  0  0  0  0  0  0
   58.7574   34.7557   44.9282 H   0  0  0  0  0  0  0  0  0  0  0  0
   57.6410   31.2970   42.9130 C   0  0  0  0  0  0  0  0  0  0  0  0
   58.3610   30.7822   42.2599 H   0  0  0  0  0  0  0  0  0  0  0  0
   57.3709   32.2929   42.5319 H   0  0  0  0  0  0  0  0  0  0  0  0
   56.3430   30.4620   42.9640 C   0  0  0  0  0  0  0  0  0  0  0  0
   56.2030   29.9815   41.9844 H   0  0  0  0  0  0  0  0  0  0  0  0
   55.5292   31.1574   43.2173 H   0  0  0  0  0  0  0  0  0  0  0  0
   56.3410   29.3640   44.0460 C   0  0  0  0  0  0  0  0  0  0  0  0
   55.8504   28.4690   43.6357 H   0  0  0  0  0  0  0  0  0  0  0  0
   55.8041   29.7643   44.9187 H   0  0  0  0  0  0  0  0  0  0  0  0
   57.0180   25.0790   45.0650 S   0  0  0  0  0  0  0  0  0  0  0  0
   55.8180   23.8990   45.0670 C   0  0  0  0  0  0  0  0  0  0  0  0
   55.9270   22.8673   44.7013 H   0  0  0  0  0  0  0  0  0  0  0  0
  1  2  1  0
  2  3  1  0
  3  4  1  0
  4  5  2  0
  5  6  1  0
  6  7  2  0
  6  8  1  0
  8  9  1  6
  8 10  1  0
 10 11  2  0
 10 12  1  0
 12 13  1  6
 12 14  1  0
 14 15  1  0
 14 16  1  0
 14 17  1  0
 17 18  2  0
 18 19  1  0
 18 20  1  0
 20 21  1  0
 20 22  2  0
 22 23  1  0
 22 24  1  0
 24 25  1  0
 24 26  2  0
 26 27  1  0
 12 28  1  0
 28 29  1  0
 28 30  1  0
 28 31  1  0
 31 32  1  0
 31 33  1  0
 31 34  1  0
 34 35  1  0
 34 36  1  0
  4 37  1  0
 37 38  1  0
 38 39  1  0
 38  2  2  0
 34  8  1  0
 26 17  1  0
M  CHG  2   3  -1  12   1
M  END
>  <UniqueID>  (4) 
3

>  <SMILES>  (4) 
O=C(/N=c1\[n-]ccs1)[C@H]1CCC[N@@H+](Cc2ccc(F)cc2)C1=O

>  <Energy>  (4) 
78.50135956222628

>  <Genealogy>  (4) 
O=C(N=c1[n-]ccs1)C1CCC[NH+](Cc2ccc(F)cc2)C1=O (protonated)
O=C(N=c1[n-]ccs1)[C@H]1CCC[N@@H+](Cc2ccc(F)cc2)C1=O (chirality)
O=C(/N=c1\[n-]ccs1)[C@H]1CCC[N@@H+](Cc2ccc(F)cc2)C1=O (cis-trans isomerization)
O=C(/N=c1\[n-]ccs1)[C@H]1CCC[N@@H+](Cc2ccc(F)cc2)C1=O (3D coordinates assigned)
O=C(/N=c1\[n-]ccs1)[C@H]1CCC[N@@H+](Cc2ccc(F)cc2)C1=O (nonaromatic ring conformer: 78.50135956222628 kcal/mol)

>  <smiles>  (4) 
O=C(N=c1[nH]ccs1)C1CCCN(Cc2ccc(F)cc2)C1=O

>  <score_type>  (4) 
oracle

>  <origin>  (4) 
adg

>  <m_score__min__energy>  (4) 
-7.9900000000000002

>  <m_primary>  (4) 
energy

$$$$
4:0
     RDKit          3D

 45 47  0  0  0  0  0  0  0  0999 V2000
   58.1100   32.5310   41.2920 C   0  0  0  0  0  0  0  0  0  0  0  0
   57.4460   31.7170   42.3970 C   0  0  0  0  0  0  0  0  0  0  0  0
   58.0180   32.0760   43.7370 C   0  0  0  0  0  0  0  0  0  0  0  0
   58.4880   33.2990   44.0420 N   0  0  0  0  0  0  0  0  0  0  0  0
   58.8750   33.3090   45.3080 N   0  0  0  0  0  0  0  0  0  0  0  0
   59.4080   34.4980   45.9760 C   0  0  0  0  0  0  0  0  0  0  0  0
   60.6680   34.1640   46.7170 C   0  0  0  0  0  0  0  0  0  0  0  0
   61.8380   33.8270   46.0200 C   0  0  0  0  0  0  0  0  0  0  0  0
   63.0080   33.5520   46.7300 C   0  0  0  0  0  0  0  0  0  0  0  0
   63.0050   33.6120   48.1290 C   0  0  0  0  0  0  0  0  0  0  0  0
   64.1640   33.3460   48.8720 C   0  0  0  0  0  0  0  0  0  0  0  0
   64.1290   33.4180   50.2690 C   0  0  0  0  0  0  0  0  0  0  0  0
   62.9410   33.7530   50.9270 C   0  0  0  0  0  0  0  0  0  0  0  0
   61.7810   34.0190   50.1920 C   0  0  0  0  0  0  0  0  0  0  0  0
   61.8060   33.9490   48.7950 C   0  0  0  0  0  0  0  0  0  0  0  0
   60.6820   34.2130   48.0780 N   0  0  0  0  0  0  0  0  0  0  0  0
   58.6520   32.0850   45.8470 C   0  0  0  0  0  0  0  0  0  0  0  0
   58.9180   31.7050   47.2830 C   0  0  0  0  0  0  0  0  0  0  0  0
   58.1450   32.6010   48.2460 C   0  0  0  0  0  0  0  0  0  0  0  0
   58.0920   31.2690   44.8670 C   0  0  0  0  0  0  0  0  0  0  0  0
   57.6510   29.8360   44.9940 C   0  0  0  0  0  0  0  0  0  0  0  0
   56.1630   29.7210   44.8810 C   0  0  0  0  0  0  0  0  0  0  0  0
   55.4760   30.7000   44.4900 O   0  0  0  0  0  0  0  0  0  0  0  0
   55.5320   28.5290   45.2150 O   0  0  0  0  0  0  0  0  0  0  0  0
   58.7448   33.3092   41.7408 H   0  0  0  0  0  0  0  0  0  0  0  0
   58.7281   31.8678   40.6690 H   0  0  0  0  0  0  0  0  0  0  0  0
   57.3362   33.0033   40.6690 H   0  0  0  0  0  0  0  0  0  0  0  0
   56.3656   31.9239   42.3984 H   0  0  0  0  0  0  0  0  0  0  0  0
   57.6298   30.6490   42.2086 H   0  0  0  0  0  0  0  0  0  0  0  0
   58.5310   34.1210   43.3970 H   0  0  0  0  0  0  0  0  0  0  0  0
   59.6249   35.2697   45.2227 H   0  0  0  0  0  0  0  0  0  0  0  0
   58.6608   34.8677   46.6936 H   0  0  0  0  0  0  0  0  0  0  0  0
   61.8334   33.7798   44.9210 H   0  0  0  0  0  0  0  0  0  0  0  0
   63.9304   33.2887   46.1916 H   0  0  0  0  0  0  0  0  0  0  0  0
   65.0994   33.0811   48.3574 H   0  0  0  0  0  0  0  0  0  0  0  0
   65.0387   33.2105   50.8516 H   0  0  0  0  0  0  0  0  0  0  0  0
   62.9189   33.8074   52.0254 H   0  0  0  0  0  0  0  0  0  0  0  0
   60.8488   34.2833   50.7126 H   0  0  0  0  0  0  0  0  0  0  0  0
   58.6104   30.6606   47.4401 H   0  0  0  0  0  0  0  0  0  0  0  0
   59.9929   31.8282   47.4813 H   0  0  0  0  0  0  0  0  0  0  0  0
   58.3868   32.3207   49.2818 H   0  0  0  0  0  0  0  0  0  0  0  0
   58.4255   33.6508   48.0752 H   0  0  0  0  0  0  0  0  0  0  0  0
   57.0654   32.4775   48.0752 H   0  0  0  0  0  0  0  0  0  0  0  0
   58.1194   29.2432   44.1945 H   0  0  0  0  0  0  0  0  0  0  0  0
   57.9576   29.4611   45.9816 H   0  0  0  0  0  0  0  0  0  0  0  0
  1  2  1  0
  2  3  1  0
  3  4  2  0
  4  5  1  0
  5  6  1  0
  6  7  1  0
  7  8  2  0
  8  9  1  0
  9 10  2  0
 10 11  1  0
 11 12  2  0
 12 13  1  0
 13 14  2  0
 14 15  1  0
 15 16  2  0
  5 17  1  0
 17 18  1  0
 18 19  1  0
 17 20  2  0
 20 21  1  0
 21 22  1  0
 22 23  2  0
 22 24  1  0
 20  3  1  0
 16  7  1  0
 15 10  1  0
  1 25  1  0
  1 26  1  0
  1 27  1  0
  2 28  1  0
  2 29  1  0
  4 30  1  0
  6 31  1  0
  6 32  1  0
  8 33  1  0
  9 34  1  0
 11 35  1  0
 12 36  1  0
 13 37  1  0
 14 38  1  0
 18 39  1  0
 18 40  1  0
 19 41  1  0
 19 42  1  0
 19 43  1  0
 21 44  1  0
 21 45  1  0
M  CHG  2   4   1  24  -1
M  END
>  <UniqueID>  (5) 
4

>  <SMILES>  (5) 
CCc1[nH+]n(Cc2ccc3ccccc3n2)c(CC)c1CC(=O)[O-]

>  <Energy>  (5) 
68.88574523156777

>  <Genealogy>  (5) 
CCc1[nH+]n(Cc2ccc3ccccc3n2)c(CC)c1CC(=O)[O-] (protonated)
CCc1[nH+]n(Cc2ccc3ccccc3n2)c(CC)c1CC(=O)[O-] (3D coordinates assigned)
CCc1[nH+]n(Cc2ccc3ccccc3n2)c(CC)c1CC(=O)[O-] (optimized conformer: 68.88574523156777 kcal/mol)

>  <smiles>  (5) 
CCc1nn(Cc2ccc3ccccc3n2)c(CC)c1CC(=O)O

>  <score_type>  (5) 
oracle

>  <origin>  (5) 
adg

>  <m_score__min__energy>  (5) 
-9.9600000000000009

>  <m_primary>  (5) 
energy

$$$$
5:0
     RDKit          3D

 28 30  0  0  0  0  0  0  0  0999 V2000
   57.3940   30.9340   44.6620 C   0  0  0  0  0  0  0  0  0  0  0  0
   58.0360   32.2220   45.0710 C   0  0  0  0  0  0  0  0  0  0  0  0
   59.1270   32.2210   45.9500 C   0  0  0  0  0  0  0  0  0  0  0  0
   59.7310   33.4370   46.3150 C   0  0  0  0  0  0  0  0  0  0  0  0
   60.8870   33.4610   47.2470 C   0  0  0  0  0  0  0  0  0  0  0  0
   60.8870   34.0330   48.5260 C   0  0  0  0  0  0  0  0  0  0  0  0
   62.1560   33.8180   49.0140 C   0  0  0  0  0  0  0  0  0  0  0  0
   62.7460   34.1600   50.2250 C   0  0  0  0  0  0  0  0  0  0  0  0
   64.0870   33.7850   50.4200 C   0  0  0  0  0  0  0  0  0  0  0  0
   64.7770   33.0890   49.4010 C   0  0  0  0  0  0  0  0  0  0  0  0
   64.1490   32.7780   48.2260 N   0  0  0  0  0  0  0  0  0  0  0  0
   62.8550   33.1480   48.0530 C   0  0  0  0  0  0  0  0  0  0  0  0
   62.1010   32.9200   46.9660 N   0  0  0  0  0  0  0  0  0  0  0  0
   59.2180   34.6320   45.7810 C   0  0  0  0  0  0  0  0  0  0  0  0
   58.1310   34.5890   44.9050 C   0  0  0  0  0  0  0  0  0  0  0  0
   57.5710   33.3980   44.5700 N   0  0  0  0  0  0  0  0  0  0  0  0
   57.1102   30.3646   45.5593 H   0  0  0  0  0  0  0  0  0  0  0  0
   56.4961   31.1459   44.0630 H   0  0  0  0  0  0  0  0  0  0  0  0
   58.1037   30.3445   44.0630 H   0  0  0  0  0  0  0  0  0  0  0  0
   59.5098   31.2719   46.3533 H   0  0  0  0  0  0  0  0  0  0  0  0
   60.0535   34.5433   49.0308 H   0  0  0  0  0  0  0  0  0  0  0  0
   62.1858   34.7028   51.0006 H   0  0  0  0  0  0  0  0  0  0  0  0
   64.5976   34.0323   51.3624 H   0  0  0  0  0  0  0  0  0  0  0  0
   65.8260   32.7955   49.5540 H   0  0  0  0  0  0  0  0  0  0  0  0
   64.6610   32.2640   47.4750 H   0  0  0  0  0  0  0  0  0  0  0  0
   62.3970   32.4110   46.1040 H   0  0  0  0  0  0  0  0  0  0  0  0
   59.6709   35.5971   46.0520 H   0  0  0  0  0  0  0  0  0  0  0  0
   57.7274   35.5223   44.4853 H   0  0  0  0  0  0  0  0  0  0  0  0
  1  2  1  0
  2  3  2  0
  3  4  1  0
  4  5  1  0
  5  6  2  0
  6  7  1  0
  7  8  2  0
  8  9  1  0
  9 10  2  0
 10 11  1  0
 11 12  2  0
 12 13  1  0
  4 14  2  0
 14 15  1  0
 15 16  2  0
 16  2  1  0
 13  5  1  0
 12  7  1  0
  1 17  1  0
  1 18  1  0
  1 19  1  0
  3 20  1  0
  6 21  1  0
  8 22  1  0
  9 23  1  0
 10 24  1  0
 11 25  1  0
 13 26  1  0
 14 27  1  0
 15 28  1  0
M  CHG  1  11   1
M  END
>  <UniqueID>  (6) 
5

>  <SMILES>  (6) 
Cc1cc(-c2cc3ccc[nH+]c3[nH]2)ccn1

>  <Energy>  (6) 
66.34638437036588

>  <Genealogy>  (6) 
Cc1cc(-c2cc3ccc[nH+]c3[nH]2)ccn1 (protonated)
Cc1cc(-c2cc3ccc[nH+]c3[nH]2)ccn1 (3D coordinates assigned)
Cc1cc(-c2cc3ccc[nH+]c3[nH]2)ccn1 (optimized conformer: 66.34638437036588 kcal/mol)

>  <smiles>  (6) 
Cc1cc(-c2cc3cccnc3[nH]2)ccn1

>  <score_type>  (6) 
oracle

>  <origin>  (6) 
adg

>  <m_score__min__energy>  (6) 
-4.8700000000000001

>  <m_primary>  (6) 
energy

$$$$
6:0
     RDKit          3D

 43 45  0  0  0  0  0  0  0  0999 V2000
   64.1470   33.0480   48.7540 C   0  0  0  0  0  0  0  0  0  0  0  0
   63.0600   33.9470   48.9180 O   0  0  0  0  0  0  0  0  0  0  0  0
   61.8590   33.8070   48.2360 C   0  0  0  0  0  0  0  0  0  0  0  0
   61.9050   33.5970   46.8730 C   0  0  0  0  0  0  0  0  0  0  0  0
   60.7130   33.4590   46.1990 C   0  0  0  0  0  0  0  0  0  0  0  0
   59.4780   33.5190   46.8240 C   0  0  0  0  0  0  0  0  0  0  0  0
   58.0650   33.3260   45.8270 S   0  0  0  0  0  0  0  0  0  0  0  0
   56.8450   33.3640   46.6900 O   0  0  0  0  0  0  0  0  0  0  0  0
   58.0010   34.4860   44.8640 O   0  0  0  0  0  0  0  0  0  0  0  0
   58.0710   31.9000   44.9460 O   0  0  0  0  0  0  0  0  0  0  0  0
   58.0120   30.6160   45.4490 C   0  0  0  0  0  0  0  0  0  0  0  0
   59.1020   30.2090   46.2240 C   0  0  0  0  0  0  0  0  0  0  0  0
   59.1710   28.9530   46.7870 C   0  0  0  0  0  0  0  0  0  0  0  0
   60.2600   28.5810   47.5480 O   0  0  0  0  0  0  0  0  0  0  0  0
   58.1190   28.0750   46.5700 C   0  0  0  0  0  0  0  0  0  0  0  0
   58.1800   26.8020   47.1350 C   0  0  0  0  0  0  0  0  0  0  0  0
   59.2080   26.4770   47.8420 N   0  0  0  0  0  0  0  0  0  0  0  0
   57.1450   25.9690   46.9070 N   0  0  0  0  0  0  0  0  0  0  0  0
   56.0720   26.3440   46.1540 C   0  0  0  0  0  0  0  0  0  0  0  0
   55.1420   25.4640   46.0060 N   0  0  0  0  0  0  0  0  0  0  0  0
   56.0030   27.5820   45.5990 N   0  0  0  0  0  0  0  0  0  0  0  0
   57.0230   28.4660   45.7970 C   0  0  0  0  0  0  0  0  0  0  0  0
   56.9710   29.7420   45.2350 C   0  0  0  0  0  0  0  0  0  0  0  0
   55.8680   30.0880   44.4780 O   0  0  0  0  0  0  0  0  0  0  0  0
   55.8760   30.0140   43.0830 C   0  0  0  0  0  0  0  0  0  0  0  0
   59.4380   33.7290   48.1840 C   0  0  0  0  0  0  0  0  0  0  0  0
   60.6260   33.8700   48.8760 C   0  0  0  0  0  0  0  0  0  0  0  0
   64.5200   32.7396   49.7418 H   0  0  0  0  0  0  0  0  0  0  0  0
   63.8091   32.1619   48.1966 H   0  0  0  0  0  0  0  0  0  0  0  0
   64.9539   33.5462   48.1966 H   0  0  0  0  0  0  0  0  0  0  0  0
   62.8661   33.5415   46.3408 H   0  0  0  0  0  0  0  0  0  0  0  0
   60.7423   33.2931   45.1120 H   0  0  0  0  0  0  0  0  0  0  0  0
   59.9305   30.9133   46.3896 H   0  0  0  0  0  0  0  0  0  0  0  0
   60.1130   28.1630   48.4510 H   0  0  0  0  0  0  0  0  0  0  0  0
   60.1590   26.6340   47.4880 H   0  0  0  0  0  0  0  0  0  0  0  0
   57.1980   25.0050   47.3400 H   0  0  0  0  0  0  0  0  0  0  0  0
   54.7650   24.8520   46.7390 H   0  0  0  0  0  0  0  0  0  0  0  0
   55.1640   27.8400   45.0250 H   0  0  0  0  0  0  0  0  0  0  0  0
   55.9894   28.9650   42.7721 H   0  0  0  0  0  0  0  0  0  0  0  0
   54.9295   30.4129   42.6892 H   0  0  0  0  0  0  0  0  0  0  0  0
   56.7154   30.6059   42.6892 H   0  0  0  0  0  0  0  0  0  0  0  0
   58.4746   33.7838   48.7121 H   0  0  0  0  0  0  0  0  0  0  0  0
   60.5954   34.0366   49.9629 H   0  0  0  0  0  0  0  0  0  0  0  0
  1  2  1  0
  2  3  1  0
  3  4  2  0
  4  5  1  0
  5  6  2  0
  6  7  1  0
  7  8  2  0
  7  9  2  0
  7 10  1  0
 10 11  1  0
 11 12  2  0
 12 13  1  0
 13 14  1  0
 13 15  2  0
 15 16  1  0
 16 17  2  3
 16 18  1  0
 18 19  1  0
 19 20  2  3
 19 21  1  0
 21 22  1  0
 22 23  2  0
 23 24  1  0
 24 25  1  0
  6 26  1  0
 26 27  2  0
 27  3  1  0
 23 11  1  0
 22 15  1  0
  1 28  1  0
  1 29  1  0
  1 30  1  0
  4 31  1  0
  5 32  1  0
 12 33  1  0
 14 34  1  0
 17 35  1  0
 18 36  1  0
 20 37  1  0
 21 38  1  0
 25 39  1  0
 25 40  1  0
 25 41  1  0
 26 42  1  0
 27 43  1  0
M  END
>  <smiles>  (7) 
COc1ccc(S(=O)(=O)Oc2cc(O)c3c(=N)[nH]c(=N)[nH]c3c2OC)cc1

>  <score_type>  (7) 
oracle

>  <origin>  (7) 
adg

>  <m_score__min__energy>  (7) 
-7.7800000000000002

>  <m_primary>  (7) 
energy

$$$$
7:0
     RDKit          3D

 27 29  0  0  0  0  0  0  0  0999 V2000
   64.5250   33.4290   49.0640 C   0  0  0  0  0  0  0  0  0  0  0  0
   63.3150   32.8620   48.3820 C   0  0  0  0  0  0  0  0  0  0  0  0
   62.7730   31.6410   48.8060 C   0  0  0  0  0  0  0  0  0  0  0  0
   61.6240   31.1290   48.1960 C   0  0  0  0  0  0  0  0  0  0  0  0
   60.9890   31.8330   47.1560 C   0  0  0  0  0  0  0  0  0  0  0  0
   59.7680   31.2810   46.5130 C   0  0  0  0  0  0  0  0  0  0  0  0
   59.3130   29.9560   46.5960 C   0  0  0  0  0  0  0  0  0  0  0  0
   58.1270   29.7490   45.8800 C   0  0  0  0  0  0  0  0  0  0  0  0
   57.3980   28.5680   45.7460 C   0  0  0  0  0  0  0  0  0  0  0  0
   57.7810   27.5050   46.3040 O   0  0  0  0  0  0  0  0  0  0  0  0
   56.2550   28.5820   44.9970 N   0  0  0  0  0  0  0  0  0  0  0  0
   55.8220   29.7280   44.3850 C   0  0  0  0  0  0  0  0  0  0  0  0
   54.7660   29.7160   43.6990 O   0  0  0  0  0  0  0  0  0  0  0  0
   56.5290   30.8870   44.5110 N   0  0  0  0  0  0  0  0  0  0  0  0
   57.6630   30.8820   45.2510 C   0  0  0  0  0  0  0  0  0  0  0  0
   58.6830   32.1730   45.5510 S   0  0  0  0  0  0  0  0  0  0  0  0
   61.5280   33.0700   46.7510 C   0  0  0  0  0  0  0  0  0  0  0  0
   62.6760   33.5800   47.3630 C   0  0  0  0  0  0  0  0  0  0  0  0
   64.3938   33.3675   50.1544 H   0  0  0  0  0  0  0  0  0  0  0  0
   65.4153   32.8543   48.7688 H   0  0  0  0  0  0  0  0  0  0  0  0
   64.6531   34.4809   48.7688 H   0  0  0  0  0  0  0  0  0  0  0  0
   63.2540   31.0828   49.6227 H   0  0  0  0  0  0  0  0  0  0  0  0
   61.2121   30.1661   48.5324 H   0  0  0  0  0  0  0  0  0  0  0  0
   59.8307   29.1669   47.1611 H   0  0  0  0  0  0  0  0  0  0  0  0
   55.7010   27.7010   44.8900 H   0  0  0  0  0  0  0  0  0  0  0  0
   61.0408   33.6395   45.9458 H   0  0  0  0  0  0  0  0  0  0  0  0
   63.0805   34.5514   47.0426 H   0  0  0  0  0  0  0  0  0  0  0  0
  1  2  1  0
  2  3  2  0
  3  4  1  0
  4  5  2  0
  5  6  1  0
  6  7  2  0
  7  8  1  0
  8  9  1  0
  9 10  2  0
  9 11  1  0
 11 12  1  0
 12 13  2  0
 12 14  1  0
 14 15  1  0
 15 16  1  0
  5 17  1  0
 17 18  2  0
 18  2  1  0
 16  6  1  0
 15  8  2  0
  1 19  1  0
  1 20  1  0
  1 21  1  0
  3 22  1  0
  4 23  1  0
  7 24  1  0
 11 25  1  0
 17 26  1  0
 18 27  1  0
M  CHG  1  14  -1
M  END
>  <UniqueID>  (8) 
6

>  <SMILES>  (8) 
Cc1ccc(-c2cc3c(=O)[nH]c(=O)[n-]c3s2)cc1

>  <Energy>  (8) 
65.30668050290541

>  <Genealogy>  (8) 
Cc1ccc(-c2cc3c(=O)[nH]c(=O)[n-]c3s2)cc1 (protonated)
Cc1ccc(-c2cc3c(=O)[nH]c(=O)[n-]c3s2)cc1 (3D coordinates assigned)
Cc1ccc(-c2cc3c(=O)[nH]c(=O)[n-]c3s2)cc1 (optimized conformer: 65.30668050290541 kcal/mol)

>  <smiles>  (8) 
Cc1ccc(-c2cc3c(=O)[nH]c(=O)[nH]c3s2)cc1

>  <score_type>  (8) 
oracle

>  <origin>  (8) 
adg

>  <m_score__min__energy>  (8) 
-8.8100000000000005

>  <m_primary>  (8) 
energy

$$$$
8:0
     RDKit          3D

 54 57  0  0  0  0  0  0  0  0999 V2000
   59.5574   34.1282   51.6320 H   0  0  0  0  0  0  0  0  0  0  0  0
   59.0800   33.1580   51.4300 C   0  0  0  0  0  0  0  0  0  0  0  0
   59.1380   32.6190   50.1820 N   0  0  0  0  0  0  0  0  0  0  0  0
   58.5630   31.4170   49.8900 C   0  0  0  0  0  0  0  0  0  0  0  0
   58.6080   30.9180   48.6870 N   0  0  0  0  0  0  0  0  0  0  0  0
   59.4810   29.8790   48.2070 C   0  0  0  0  0  0  0  0  0  0  0  0
   60.6970   29.8650   48.5440 O   0  0  0  0  0  0  0  0  0  0  0  0
   58.9350   28.8130   47.3210 C   0  0  0  0  0  0  0  0  0  0  0  0
   58.8760   27.4880   47.8000 C   0  0  0  0  0  0  0  0  0  0  0  0
   59.2402   27.2598   48.8126 H   0  0  0  0  0  0  0  0  0  0  0  0
   58.3610   26.4620   47.0050 C   0  0  0  0  0  0  0  0  0  0  0  0
   58.3347   25.4314   47.3885 H   0  0  0  0  0  0  0  0  0  0  0  0
   57.8810   26.7400   45.7290 C   0  0  0  0  0  0  0  0  0  0  0  0
   57.4652   25.9316   45.1096 H   0  0  0  0  0  0  0  0  0  0  0  0
   57.9270   28.0440   45.2350 C   0  0  0  0  0  0  0  0  0  0  0  0
   57.5295   28.2605   44.2325 H   0  0  0  0  0  0  0  0  0  0  0  0
   58.4760   29.0840   46.0050 C   0  0  0  0  0  0  0  0  0  0  0  0
   58.4810   30.4240   45.4900 N   0  0  0  0  0  0  0  0  0  0  0  0
   57.3810   31.0850   44.8460 C   0  0  0  0  0  0  0  0  0  0  0  0
   56.2490   30.5320   44.8590 O   0  0  0  0  0  0  0  0  0  0  0  0
   57.5250   32.4450   44.2140 C   0  0  0  0  0  0  0  0  0  0  0  0
   58.4475   32.4686   43.6152 H   0  0  0  0  0  0  0  0  0  0  0  0
   56.6491   32.6316   43.5752 H   0  0  0  0  0  0  0  0  0  0  0  0
   57.5910   33.5000   45.2480 N   0  0  0  0  0  0  0  0  0  0  0  0
   58.5430   34.5760   44.8820 C   0  0  0  0  0  0  0  0  0  0  0  0
   58.4921   34.7399   43.7955 H   0  0  0  0  0  0  0  0  0  0  0  0
   58.2586   35.4823   45.4367 H   0  0  0  0  0  0  0  0  0  0  0  0
   59.9880   34.2240   45.2620 C   0  0  0  0  0  0  0  0  0  0  0  0
   60.3466   33.4169   44.6063 H   0  0  0  0  0  0  0  0  0  0  0  0
   60.6121   35.1218   45.1419 H   0  0  0  0  0  0  0  0  0  0  0  0
   60.0680   33.7800   46.6590 N   0  0  0  0  0  0  0  0  0  0  0  0
   61.3300   33.3600   47.2170 C   0  0  0  0  0  0  0  0  0  0  0  0
   62.5360   33.8680   46.7070 C   0  0  0  0  0  0  0  0  0  0  0  0
   62.5252   34.5945   45.8811 H   0  0  0  0  0  0  0  0  0  0  0  0
   63.7490   33.4450   47.2550 C   0  0  0  0  0  0  0  0  0  0  0  0
   64.6983   33.8371   46.8612 H   0  0  0  0  0  0  0  0  0  0  0  0
   63.7540   32.5240   48.3030 C   0  0  0  0  0  0  0  0  0  0  0  0
   64.7043   32.1885   48.7438 H   0  0  0  0  0  0  0  0  0  0  0  0
   62.5400   32.0330   48.7860 C   0  0  0  0  0  0  0  0  0  0  0  0
   62.5324   31.3045   49.6102 H   0  0  0  0  0  0  0  0  0  0  0  0
   61.3640   32.4530   48.2400 N   0  0  0  0  0  0  0  0  0  0  0  0
   60.4730   32.0470   48.6050 H   0  0  0  0  0  0  0  0  0  0  0  0
   58.8340   33.6840   47.4460 C   0  0  0  0  0  0  0  0  0  0  0  0
   59.0311   33.1296   48.3754 H   0  0  0  0  0  0  0  0  0  0  0  0
   58.4735   34.6923   47.6977 H   0  0  0  0  0  0  0  0  0  0  0  0
   57.7730   32.9440   46.6200 C   0  0  0  0  0  0  0  0  0  0  0  0
   58.0742   31.8898   46.5311 H   0  0  0  0  0  0  0  0  0  0  0  0
   56.8141   33.0617   47.1460 H   0  0  0  0  0  0  0  0  0  0  0  0
   57.8850   30.7140   50.8950 C   0  0  0  0  0  0  0  0  0  0  0  0
   57.4138   29.7453   50.6721 H   0  0  0  0  0  0  0  0  0  0  0  0
   57.8120   31.2520   52.1810 C   0  0  0  0  0  0  0  0  0  0  0  0
   57.2807   30.7090   52.9765 H   0  0  0  0  0  0  0  0  0  0  0  0
   58.4150   32.4810   52.4550 C   0  0  0  0  0  0  0  0  0  0  0  0
   58.3670   32.9112   53.4663 H   0  0  0  0  0  0  0  0  0  0  0  0
  1  2  1  0
  2  3  1  0
  3  4  1  0
  4  5  2  0
  5  6  1  0
  6  7  2  0
  6  8  1  0
  8  9  2  0
  9 10  1  0
  9 11  1  0
 11 12  1  0
 11 13  2  0
 13 14  1  0
 13 15  1  0
 15 16  1  0
 15 17  2  0
 17 18  1  0
 18 19  1  0
 19 20  2  0
 19 21  1  0
 21 22  1  0
 21 23  1  0
 21 24  1  0
 24 25  1  0
 25 26  1  0
 25 27  1  0
 25 28  1  0
 28 29  1  0
 28 30  1  0
 28 31  1  0
 31 32  1  0
 32 33  2  0
 33 34  1  0
 33 35  1  0
 35 36  1  0
 35 37  2  0
 37 38  1  0
 37 39  1  0
 39 40  1  0
 39 41  2  0
 41 42  1  0
 31 43  1  0
 43 44  1  0
 43 45  1  0
 43 46  1  0
 46 47  1  0
 46 48  1  0
  4 49  1  0
 49 50  1  0
 49 51  2  0
 51 52  1  0
 51 53  1  0
 53 54  1  0
 53  2  2  0
 17  8  1  0
 46 24  1  0
 41 32  1  0
M  CHG  3   3  -1  18  -1  41   1
M  END
>  <UniqueID>  (9) 
7

>  <SMILES>  (9) 
O=C(CN1CCN(c2cccc[nH+]2)CC1)[N-]c1ccccc1C(=O)/N=c1/cccc[n-]1

>  <Energy>  (9) 
81.60976263777007

>  <Genealogy>  (9) 
O=C(CN1CCN(c2cccc[nH+]2)CC1)[N-]c1ccccc1C(=O)N=c1cccc[n-]1 (protonated)
O=C(CN1CCN(c2cccc[nH+]2)CC1)[N-]c1ccccc1C(=O)/N=c1/cccc[n-]1 (cis-trans isomerization)
O=C(CN1CCN(c2cccc[nH+]2)CC1)[N-]c1ccccc1C(=O)/N=c1/cccc[n-]1 (3D coordinates assigned)
O=C(CN1CCN(c2cccc[nH+]2)CC1)[N-]c1ccccc1C(=O)/N=c1/cccc[n-]1 (nonaromatic ring conformer: 81.60976263777007 kcal/mol)

>  <smiles>  (9) 
O=C(CN1CCN(c2ccccn2)CC1)Nc1ccccc1C(=O)N=c1cccc[nH]1

>  <score_type>  (9) 
oracle

>  <origin>  (9) 
adg

>  <m_score__min__energy>  (9) 
-11.17

>  <m_primary>  (9) 
energy

$$$$
9:0
     RDKit          3D

 31 33  0  0  0  0  0  0  0  0999 V2000
   57.4690   24.1360   45.4350 C   0  0  0  0  0  0  0  0  0  0  0  0
   56.7330   24.8690   46.5500 C   0  0  0  0  0  0  0  0  0  0  0  0
   56.5070   26.3030   46.1820 C   0  0  0  0  0  0  0  0  0  0  0  0
   55.3300   26.7140   45.9940 O   0  0  0  0  0  0  0  0  0  0  0  0
   57.6170   27.2150   46.1340 N   0  0  0  0  0  0  0  0  0  0  0  0
   57.5370   28.5570   45.6250 C   0  0  0  0  0  0  0  0  0  0  0  0
   56.7020   28.8230   44.5100 C   0  0  0  0  0  0  0  0  0  0  0  0
   56.5760   30.1260   43.9920 C   0  0  0  0  0  0  0  0  0  0  0  0
   57.2830   31.1470   44.6170 C   0  0  0  0  0  0  0  0  0  0  0  0
   57.2970   32.4270   44.2970 O   0  0  0  0  0  0  0  0  0  0  0  0
   58.0930   33.0210   45.1660 C   0  0  0  0  0  0  0  0  0  0  0  0
   58.4200   34.3730   45.2300 C   0  0  0  0  0  0  0  0  0  0  0  0
   59.2950   34.7920   46.2500 C   0  0  0  0  0  0  0  0  0  0  0  0
   59.8190   33.8610   47.1750 C   0  0  0  0  0  0  0  0  0  0  0  0
   59.4750   32.4980   47.0910 C   0  0  0  0  0  0  0  0  0  0  0  0
   58.6070   32.1150   46.0700 C   0  0  0  0  0  0  0  0  0  0  0  0
   58.0820   30.8980   45.7120 C   0  0  0  0  0  0  0  0  0  0  0  0
   58.2290   29.6210   46.2500 C   0  0  0  0  0  0  0  0  0  0  0  0
   58.1838   23.4242   45.8736 H   0  0  0  0  0  0  0  0  0  0  0  0
   56.7435   23.5910   44.8133 H   0  0  0  0  0  0  0  0  0  0  0  0
   58.0110   24.8637   44.8133 H   0  0  0  0  0  0  0  0  0  0  0  0
   55.7613   24.3828   46.7216 H   0  0  0  0  0  0  0  0  0  0  0  0
   57.3456   24.8306   47.4628 H   0  0  0  0  0  0  0  0  0  0  0  0
   58.5140   26.9090   46.5720 H   0  0  0  0  0  0  0  0  0  0  0  0
   56.1440   27.9983   44.0425 H   0  0  0  0  0  0  0  0  0  0  0  0
   55.9378   30.3300   43.1196 H   0  0  0  0  0  0  0  0  0  0  0  0
   58.0075   35.0912   44.5061 H   0  0  0  0  0  0  0  0  0  0  0  0
   59.5733   35.8534   46.3277 H   0  0  0  0  0  0  0  0  0  0  0  0
   60.5011   34.2037   47.9670 H   0  0  0  0  0  0  0  0  0  0  0  0
   59.8763   31.7632   47.8044 H   0  0  0  0  0  0  0  0  0  0  0  0
   58.8625   29.4459   47.1320 H   0  0  0  0  0  0  0  0  0  0  0  0
  1  2  1  0
  2  3  1  0
  3  4  2  0
  3  5  1  0
  5  6  1  0
  6  7  2  0
  7  8  1  0
  8  9  2  0
  9 10  1  0
 10 11  1  0
 11 12  2  0
 12 13  1  0
 13 14  2  0
 14 15  1  0
 15 16  2  0
 16 17  1  0
 17 18  2  0
 18  6  1  0
 17  9  1  0
 16 11  1  0
  1 19  1  0
  1 20  1  0
  1 21  1  0
  2 22  1  0
  2 23  1  0
  5 24  1  0
  7 25  1  0
  8 26  1  0
 12 27  1  0
 13 28  1  0
 14 29  1  0
 15 30  1  0
 18 31  1  0
M  END
>  <UniqueID>  (10) 
8

>  <SMILES>  (10) 
CCC(=O)Nc1ccc2oc3ccccc3c2c1

>  <Energy>  (10) 
74.05300851364252

>  <Genealogy>  (10) 
CCC(=O)Nc1ccc2oc3ccccc3c2c1 (3D coordinates assigned)
CCC(=O)Nc1ccc2oc3ccccc3c2c1 (optimized conformer: 74.05300851364252 kcal/mol)

>  <smiles>  (10) 
CCC(=O)Nc1ccc2oc3ccccc3c2c1

>  <score_type>  (10) 
oracle

>  <origin>  (10) 
adg

>  <m_score__min__energy>  (10) 
-6.9000000000000004

>  <m_primary>  (10) 
energy

$$$$
10:0
     RDKit          3D

 26 28  0  0  0  0  0  0  0  0999 V2000
   63.7840   32.5380   48.3230 C   0  0  0  0  0  0  0  0  0  0  0  0
   62.5330   31.8960   48.5420 O   0  0  0  0  0  0  0  0  0  0  0  0
   61.5390   31.8270   47.5610 C   0  0  0  0  0  0  0  0  0  0  0  0
   61.5450   30.8940   46.7130 O   0  0  0  0  0  0  0  0  0  0  0  0
   60.5350   32.9010   47.4740 C   0  0  0  0  0  0  0  0  0  0  0  0
   60.9060   34.1690   47.5290 C   0  0  0  0  0  0  0  0  0  0  0  0
   59.6440   35.3390   47.0630 S   0  0  0  0  0  0  0  0  0  0  0  0
   58.4500   33.9620   46.9340 C   0  0  1  0  0  0  0  0  0  0  0  0
   57.9020   33.7920   45.5510 C   0  0  0  0  0  0  0  0  0  0  0  0
   57.3370   34.6860   44.8680 O   0  0  0  0  0  0  0  0  0  0  0  0
   58.0100   32.3940   45.1910 C   0  0  0  0  0  0  0  0  0  0  0  0
   57.3990   31.6970   44.1540 C   0  0  0  0  0  0  0  0  0  0  0  0
   57.4450   30.2940   44.1770 C   0  0  0  0  0  0  0  0  0  0  0  0
   56.6220   29.3420   42.7320 Br  0  0  0  0  0  0  0  0  0  0  0  0
   58.0240   29.6190   45.2830 C   0  0  0  0  0  0  0  0  0  0  0  0
   57.9740   27.6980   45.3710 Br  0  0  0  0  0  0  0  0  0  0  0  0
   58.6040   30.3620   46.3400 C   0  0  0  0  0  0  0  0  0  0  0  0
   59.0870   29.5140   47.9970 Br  0  0  0  0  0  0  0  0  0  0  0  0
   58.6710   31.7580   46.2120 C   0  0  0  0  0  0  0  0  0  0  0  0
   59.1460   32.6960   47.1860 N   0  0  0  0  0  0  0  0  0  0  0  0
   64.2483   32.7763   49.2913 H   0  0  0  0  0  0  0  0  0  0  0  0
   64.4454   31.8679   47.7542 H   0  0  0  0  0  0  0  0  0  0  0  0
   63.6253   33.4660   47.7542 H   0  0  0  0  0  0  0  0  0  0  0  0
   61.9153   34.4781   47.8384 H   0  0  0  0  0  0  0  0  0  0  0  0
   57.6488   34.1966   47.6502 H   0  0  0  0  0  0  0  0  0  0  0  0
   56.8926   32.2314   43.3367 H   0  0  0  0  0  0  0  0  0  0  0  0
  1  2  1  0
  2  3  1  0
  3  4  2  0
  3  5  1  0
  5  6  2  0
  6  7  1  0
  7  8  1  0
  8  9  1  0
  9 10  2  0
  9 11  1  0
 11 12  2  0
 12 13  1  0
 13 14  1  0
 13 15  2  0
 15 16  1  0
 15 17  1  0
 17 18  1  0
 17 19  2  0
 19 20  1  0
 20  5  1  0
 20  8  1  0
 19 11  1  0
  1 21  1  0
  1 22  1  0
  1 23  1  0
  6 24  1  0
  8 25  1  1
 12 26  1  0
M  END
>  <UniqueID>  (11) 
9

>  <SMILES>  (11) 
COC(=O)C1=CS[C@H]2C(=O)c3cc(Br)c(Br)c(Br)c3N12

>  <Energy>  (11) 
77.78842348182498

>  <Genealogy>  (11) 
COC(=O)C1=CS[C@H]2C(=O)c3cc(Br)c(Br)c(Br)c3N12 (chirality)
COC(=O)C1=CS[C@H]2C(=O)c3cc(Br)c(Br)c(Br)c3N12 (3D coordinates assigned)
COC(=O)C1=CS[C@H]2C(=O)c3cc(Br)c(Br)c(Br)c3N12 (nonaromatic ring conformer: 77.78842348182498 kcal/mol)

>  <smiles>  (11) 
COC(=O)C1=CSC2C(=O)c3cc(Br)c(Br)c(Br)c3N12

>  <score_type>  (11) 
oracle

>  <origin>  (11) 
adg

>  <m_score__min__energy>  (11) 
-7.4299999999999997

>  <m_primary>  (11) 
energy

$$$$
11:0
     RDKit          3D

 29 30  0  0  0  0  0  0  0  0999 V2000
   60.8110   33.6590   47.2480 C   0  0  0  0  0  0  0  0  0  0  0  0
   59.6350   33.4110   46.4030 N   0  0  0  0  0  0  0  0  0  0  0  0
   58.9490   34.4740   45.8840 C   0  0  0  0  0  0  0  0  0  0  0  0
   57.8100   34.2730   45.1060 C   0  0  0  0  0  0  0  0  0  0  0  0
   57.3720   32.9780   44.8540 C   0  0  0  0  0  0  0  0  0  0  0  0
   58.0740   31.8830   45.3740 C   0  0  0  0  0  0  0  0  0  0  0  0
   57.5870   30.5130   45.0890 C   0  0  0  0  0  0  0  0  0  0  0  0
   56.3570   30.3370   44.8710 O   0  0  0  0  0  0  0  0  0  0  0  0
   58.4980   29.3990   45.0530 N   0  0  0  0  0  0  0  0  0  0  0  0
   58.1070   28.0490   44.7480 C   0  0  0  0  0  0  0  0  0  0  0  0
   57.7580   27.1830   45.7960 C   0  0  0  0  0  0  0  0  0  0  0  0
   57.3980   25.8590   45.5280 C   0  0  0  0  0  0  0  0  0  0  0  0
   57.4000   25.3840   44.2130 C   0  0  0  0  0  0  0  0  0  0  0  0
   57.0540   24.0990   43.9560 F   0  0  0  0  0  0  0  0  0  0  0  0
   57.7710   26.2310   43.1670 C   0  0  0  0  0  0  0  0  0  0  0  0
   58.1310   27.5570   43.4300 C   0  0  0  0  0  0  0  0  0  0  0  0
   59.2060   32.1250   46.1820 C   0  0  0  0  0  0  0  0  0  0  0  0
   59.8080   31.1580   46.7250 O   0  0  0  0  0  0  0  0  0  0  0  0
   60.5208   33.5978   48.3073 H   0  0  0  0  0  0  0  0  0  0  0  0
   61.5816   32.9036   47.0347 H   0  0  0  0  0  0  0  0  0  0  0  0
   61.2110   34.6613   47.0347 H   0  0  0  0  0  0  0  0  0  0  0  0
   59.2994   35.4976   46.0824 H   0  0  0  0  0  0  0  0  0  0  0  0
   57.2616   35.1331   44.6943 H   0  0  0  0  0  0  0  0  0  0  0  0
   56.4714   32.8126   44.2444 H   0  0  0  0  0  0  0  0  0  0  0  0
   59.4970   29.5590   45.3110 H   0  0  0  0  0  0  0  0  0  0  0  0
   57.7678   27.5480   46.8336 H   0  0  0  0  0  0  0  0  0  0  0  0
   57.1127   25.1898   46.3531 H   0  0  0  0  0  0  0  0  0  0  0  0
   57.7803   25.8547   42.1334 H   0  0  0  0  0  0  0  0  0  0  0  0
   58.4338   28.2171   42.6038 H   0  0  0  0  0  0  0  0  0  0  0  0
  1  2  1  0
  2  3  1  0
  3  4  2  0
  4  5  1  0
  5  6  2  0
  6  7  1  0
  7  8  2  0
  7  9  1  0
  9 10  1  0
 10 11  2  0
 11 12  1  0
 12 13  2  0
 13 14  1  0
 13 15  1  0
 15 16  2  0
  6 17  1  0
 17 18  2  0
 17  2  1  0
 16 10  1  0
  1 19  1  0
  1 20  1  0
  1 21  1  0
  3 22  1  0
  4 23  1  0
  5 24  1  0
  9 25  1  0
 11 26  1  0
 12 27  1  0
 15 28  1  0
 16 29  1  0
M  END
>  <UniqueID>  (12) 
10

>  <SMILES>  (12) 
Cn1cccc(C(=O)Nc2ccc(F)cc2)c1=O

>  <Energy>  (12) 
40.874712420478424

>  <Genealogy>  (12) 
Cn1cccc(C(=O)Nc2ccc(F)cc2)c1=O (3D coordinates assigned)
Cn1cccc(C(=O)Nc2ccc(F)cc2)c1=O (optimized conformer: 40.874712420478424 kcal/mol)

>  <smiles>  (12) 
Cn1cccc(C(=O)Nc2ccc(F)cc2)c1=O

>  <score_type>  (12) 
oracle

>  <origin>  (12) 
adg

>  <m_score__min__energy>  (12) 
-5.8600000000000003

>  <m_primary>  (12) 
energy

$$$$
12:0
     RDKit          3D

 44 45  0  0  0  0  0  0  0  0999 V2000
   56.8650   29.3350   43.3140 C   0  0  0  0  0  0  0  0  0  0  0  0
   58.1570   29.5220   43.9620 N   0  0  0  0  0  0  0  0  0  0  0  0
   58.3890   29.1100   45.3140 C   0  0  0  0  0  0  0  0  0  0  0  0
   57.4810   28.5180   45.9590 O   0  0  0  0  0  0  0  0  0  0  0  0
   59.7090   29.3840   45.9820 C   0  0  0  0  0  0  0  0  0  0  0  0
   59.5400   30.2210   47.2750 C   0  0  2  0  0  0  0  0  0  0  0  0
   58.4420   31.3210   47.1850 C   0  0  0  0  0  0  0  0  0  0  0  0
   58.7340   32.5370   46.2590 C   0  0  0  0  0  0  0  0  0  0  0  0
   59.0910   33.7730   47.1110 C   0  0  0  0  0  0  0  0  0  0  0  0
   59.5310   34.9660   46.2360 C   0  0  0  0  0  0  0  0  0  0  0  0
   58.8660   34.9860   44.8480 C   0  0  0  0  0  0  0  0  0  0  0  0
   57.4790   34.3420   44.8840 C   0  0  0  0  0  0  0  0  0  0  0  0
   57.5500   32.8610   45.3090 C   0  0  0  0  0  0  0  0  0  0  0  0
   60.8530   30.7600   47.8280 C   0  0  0  0  0  0  0  0  0  0  0  0
   61.2650   30.3630   49.1130 C   0  0  0  0  0  0  0  0  0  0  0  0
   62.4360   30.8770   49.6760 C   0  0  0  0  0  0  0  0  0  0  0  0
   63.2090   31.8050   48.9730 C   0  0  0  0  0  0  0  0  0  0  0  0
   64.6730   32.4320   49.7180 Cl  0  0  0  0  0  0  0  0  0  0  0  0
   62.8050   32.2210   47.6950 C   0  0  0  0  0  0  0  0  0  0  0  0
   63.7420   33.3970   46.7820 Cl  0  0  0  0  0  0  0  0  0  0  0  0
   61.6330   31.7040   47.1300 C   0  0  0  0  0  0  0  0  0  0  0  0
   56.0836   29.2219   44.0799 H   0  0  0  0  0  0  0  0  0  0  0  0
   56.6395   30.2099   42.6865 H   0  0  0  0  0  0  0  0  0  0  0  0
   56.8968   28.4321   42.6865 H   0  0  0  0  0  0  0  0  0  0  0  0
   58.9280   29.9690   43.4170 H   0  0  0  0  0  0  0  0  0  0  0  0
   60.1834   28.4253   46.2385 H   0  0  0  0  0  0  0  0  0  0  0  0
   60.3319   29.9603   45.2821 H   0  0  0  0  0  0  0  0  0  0  0  0
   59.1691   29.4950   48.0135 H   0  0  0  0  0  0  0  0  0  0  0  0
   57.5209   30.8414   46.8223 H   0  0  0  0  0  0  0  0  0  0  0  0
   58.3771   31.7432   48.1987 H   0  0  0  0  0  0  0  0  0  0  0  0
   59.5891   32.2655   45.6225 H   0  0  0  0  0  0  0  0  0  0  0  0
   58.2083   34.0681   47.6972 H   0  0  0  0  0  0  0  0  0  0  0  0
   59.9308   33.5036   47.7683 H   0  0  0  0  0  0  0  0  0  0  0  0
   59.2709   35.8973   46.7604 H   0  0  0  0  0  0  0  0  0  0  0  0
   60.6146   34.8674   46.0748 H   0  0  0  0  0  0  0  0  0  0  0  0
   58.7676   36.0292   44.5134 H   0  0  0  0  0  0  0  0  0  0  0  0
   59.4966   34.4111   44.1538 H   0  0  0  0  0  0  0  0  0  0  0  0
   56.8501   34.8893   45.6016 H   0  0  0  0  0  0  0  0  0  0  0  0
   57.0523   34.3886   43.8712 H   0  0  0  0  0  0  0  0  0  0  0  0
   56.6124   32.6025   45.8230 H   0  0  0  0  0  0  0  0  0  0  0  0
   57.7045   32.2722   44.3928 H   0  0  0  0  0  0  0  0  0  0  0  0
   60.6594   29.6408   49.6802 H   0  0  0  0  0  0  0  0  0  0  0  0
   62.7510   30.5495   50.6777 H   0  0  0  0  0  0  0  0  0  0  0  0
   61.3175   32.0381   46.1306 H   0  0  0  0  0  0  0  0  0  0  0  0
  1  2  1  0
  2  3  1  0
  3  4  2  0
  3  5  1  0
  5  6  1  0
  6  7  1  0
  7  8  1  0
  8  9  1  0
  9 10  1  0
 10 11  1  0
 11 12  1  0
 12 13  1  0
  6 14  1  0
 14 15  2  0
 15 16  1  0
 16 17  2  0
 17 18  1  0
 17 19  1  0
 19 20  1  0
 19 21  2  0
 13  8  1  0
 21 14  1  0
  1 22  1  0
  1 23  1  0
  1 24  1  0
  2 25  1  0
  5 26  1  0
  5 27  1  0
  6 28  1  1
  7 29  1  0
  7 30  1  0
  8 31  1  0
  9 32  1  0
  9 33  1  0
 10 34  1  0
 10 35  1  0
 11 36  1  0
 11 37  1  0
 12 38  1  0
 12 39  1  0
 13 40  1  0
 13 41  1  0
 15 42  1  0
 16 43  1  0
 21 44  1  0
M  END
>  <UniqueID>  (13) 
11

>  <SMILES>  (13) 
CNC(=O)C[C@H](CC1CCCCC1)c1ccc(Cl)c(Cl)c1

>  <Energy>  (13) 
43.1762273697113

>  <Genealogy>  (13) 
CNC(=O)C[C@H](CC1CCCCC1)c1ccc(Cl)c(Cl)c1 (chirality)
CNC(=O)C[C@H](CC1CCCCC1)c1ccc(Cl)c(Cl)c1 (3D coordinates assigned)
CNC(=O)C[C@H](CC1CCCCC1)c1ccc(Cl)c(Cl)c1 (nonaromatic ring conformer: 43.1762273697113 kcal/mol)

>  <smiles>  (13) 
CNC(=O)CC(CC1CCCCC1)c1ccc(Cl)c(Cl)c1

>  <score_type>  (13) 
oracle

>  <origin>  (13) 
adg

>  <m_score__min__energy>  (13) 
-7.8099999999999996

>  <m_primary>  (13) 
energy

$$$$
13:0
     RDKit          3D

 28 30  0  0  0  0  0  0  0  0999 V2000
   59.2820   35.0410   46.7460 C   0  0  0  0  0  0  0  0  0  0  0  0
   58.9000   33.9450   47.5250 C   0  0  0  0  0  0  0  0  0  0  0  0
   58.5110   32.7510   46.9120 C   0  0  0  0  0  0  0  0  0  0  0  0
   58.5130   32.6420   45.5110 C   0  0  0  0  0  0  0  0  0  0  0  0
   58.0790   31.3860   44.8570 C   0  0  0  0  0  0  0  0  0  0  0  0
   57.0150   31.4490   43.9430 C   0  0  0  0  0  0  0  0  0  0  0  0
   56.5320   30.2940   43.3290 C   0  0  0  0  0  0  0  0  0  0  0  0
   57.1070   29.0550   43.6100 C   0  0  0  0  0  0  0  0  0  0  0  0
   58.1820   28.9620   44.5040 C   0  0  0  0  0  0  0  0  0  0  0  0
   58.7660   27.7140   44.7700 C   0  0  0  0  0  0  0  0  0  0  0  0
   59.8530   27.6170   45.6400 C   0  0  0  0  0  0  0  0  0  0  0  0
   60.3700   28.7620   46.2470 C   0  0  0  0  0  0  0  0  0  0  0  0
   59.7990   30.0120   45.9940 C   0  0  0  0  0  0  0  0  0  0  0  0
   58.6870   30.1330   45.1330 C   0  0  0  0  0  0  0  0  0  0  0  0
   58.8850   33.7510   44.7340 C   0  0  0  0  0  0  0  0  0  0  0  0
   59.2730   34.9440   45.3510 C   0  0  0  0  0  0  0  0  0  0  0  0
   59.5896   35.9796   47.2302 H   0  0  0  0  0  0  0  0  0  0  0  0
   58.9056   34.0225   48.6223 H   0  0  0  0  0  0  0  0  0  0  0  0
   58.2022   31.8937   47.5281 H   0  0  0  0  0  0  0  0  0  0  0  0
   56.5569   32.4212   43.7085 H   0  0  0  0  0  0  0  0  0  0  0  0
   55.6937   30.3605   42.6199 H   0  0  0  0  0  0  0  0  0  0  0  0
   56.7152   28.1472   43.1280 H   0  0  0  0  0  0  0  0  0  0  0  0
   58.3654   26.8085   44.2908 H   0  0  0  0  0  0  0  0  0  0  0  0
   60.3034   26.6352   45.8477 H   0  0  0  0  0  0  0  0  0  0  0  0
   61.2305   28.6804   46.9274 H   0  0  0  0  0  0  0  0  0  0  0  0
   60.2199   30.9099   46.4701 H   0  0  0  0  0  0  0  0  0  0  0  0
   58.8711   33.6808   43.6363 H   0  0  0  0  0  0  0  0  0  0  0  0
   59.5716   35.8075   44.7384 H   0  0  0  0  0  0  0  0  0  0  0  0
  1  2  2  0
  2  3  1  0
  3  4  2  0
  4  5  1  0
  5  6  2  0
  6  7  1  0
  7  8  2  0
  8  9  1  0
  9 10  2  0
 10 11  1  0
 11 12  2  0
 12 13  1  0
 13 14  2  0
  4 15  1  0
 15 16  2  0
 16  1  1  0
 14  5  1  0
 14  9  1  0
  1 17  1  0
  2 18  1  0
  3 19  1  0
  6 20  1  0
  7 21  1  0
  8 22  1  0
 10 23  1  0
 11 24  1  0
 12 25  1  0
 13 26  1  0
 15 27  1  0
 16 28  1  0
M  END
>  <UniqueID>  (14) 
12

>  <SMILES>  (14) 
c1ccc(-c2cccc3ccccc23)cc1

>  <Energy>  (14) 
42.7698558688383

>  <Genealogy>  (14) 
c1ccc(-c2cccc3ccccc23)cc1 (3D coordinates assigned)
c1ccc(-c2cccc3ccccc23)cc1 (optimized conformer: 42.7698558688383 kcal/mol)

>  <smiles>  (14) 
c1ccc(-c2cccc3ccccc23)cc1

>  <score_type>  (14) 
oracle

>  <origin>  (14) 
adg

>  <m_score__min__energy>  (14) 
-6.8499999999999996

>  <m_primary>  (14) 
energy

$$$$
14:0
     RDKit          3D

 39 42  0  0  0  0  0  0  0  0999 V2000
   60.4730   29.2080   44.6580 O   0  0  0  0  0  0  0  0  0  0  0  0
   59.9720   28.6340   45.6630 C   0  0  0  0  0  0  0  0  0  0  0  0
   60.3160   27.3010   45.9120 C   0  0  0  0  0  0  0  0  0  0  0  0
   59.7620   26.6380   47.0040 C   0  0  0  0  0  0  0  0  0  0  0  0
   58.8680   27.3050   47.8340 C   0  0  0  0  0  0  0  0  0  0  0  0
   58.5420   28.6350   47.5640 C   0  0  0  0  0  0  0  0  0  0  0  0
   59.1010   29.2980   46.4980 N   0  0  0  0  0  0  0  0  0  0  0  0
   58.7160   30.7150   46.2400 C   0  0  0  0  0  0  0  0  0  0  0  0
   59.8920   31.6570   46.5730 C   0  0  0  0  0  0  0  0  0  0  0  0
   61.1200   31.1570   47.0750 C   0  0  0  0  0  0  0  0  0  0  0  0
   62.1380   32.0170   47.4910 C   0  0  0  0  0  0  0  0  0  0  0  0
   61.9540   33.3930   47.4440 C   0  0  0  0  0  0  0  0  0  0  0  0
   60.7510   33.9140   46.9780 C   0  0  0  0  0  0  0  0  0  0  0  0
   59.7130   33.0600   46.5600 C   0  0  0  0  0  0  0  0  0  0  0  0
   58.4890   33.6600   45.9490 C   0  0  0  0  0  0  0  0  0  0  0  0
   58.5350   33.3970   44.4490 C   0  0  0  0  0  0  0  0  0  0  0  0
   57.9900   32.0450   44.0500 C   0  0  0  0  0  0  0  0  0  0  0  0
   57.3840   31.9930   42.7770 C   0  0  0  0  0  0  0  0  0  0  0  0
   56.7360   30.8480   42.3300 C   0  0  0  0  0  0  0  0  0  0  0  0
   56.6600   29.7340   43.1520 C   0  0  0  0  0  0  0  0  0  0  0  0
   57.2830   29.7430   44.3990 C   0  0  0  0  0  0  0  0  0  0  0  0
   58.0440   30.8530   44.8480 C   0  0  0  0  0  0  0  0  0  0  0  0
   61.0209   26.7790   45.2482 H   0  0  0  0  0  0  0  0  0  0  0  0
   60.0305   25.5912   47.2091 H   0  0  0  0  0  0  0  0  0  0  0  0
   58.4212   26.7887   48.6965 H   0  0  0  0  0  0  0  0  0  0  0  0
   57.8270   29.1603   48.2142 H   0  0  0  0  0  0  0  0  0  0  0  0
   57.9245   31.0534   46.9248 H   0  0  0  0  0  0  0  0  0  0  0  0
   61.2738   30.0696   47.1380 H   0  0  0  0  0  0  0  0  0  0  0  0
   63.0892   31.6035   47.8573 H   0  0  0  0  0  0  0  0  0  0  0  0
   62.7568   34.0686   47.7742 H   0  0  0  0  0  0  0  0  0  0  0  0
   60.6096   35.0041   46.9358 H   0  0  0  0  0  0  0  0  0  0  0  0
   57.5901   33.1968   46.3819 H   0  0  0  0  0  0  0  0  0  0  0  0
   58.4538   34.7415   46.1467 H   0  0  0  0  0  0  0  0  0  0  0  0
   57.9424   34.1731   43.9425 H   0  0  0  0  0  0  0  0  0  0  0  0
   59.5942   33.4157   44.1527 H   0  0  0  0  0  0  0  0  0  0  0  0
   57.4254   32.8776   42.1245 H   0  0  0  0  0  0  0  0  0  0  0  0
   56.2847   30.8254   41.3271 H   0  0  0  0  0  0  0  0  0  0  0  0
   56.1077   28.8425   42.8199 H   0  0  0  0  0  0  0  0  0  0  0  0
   57.1817   28.8646   45.0534 H   0  0  0  0  0  0  0  0  0  0  0  0
  1  2  2  0
  2  3  1  0
  3  4  2  0
  4  5  1  0
  5  6  2  0
  6  7  1  0
  7  8  1  0
  8  9  1  0
  9 10  2  0
 10 11  1  0
 11 12  2  0
 12 13  1  0
 13 14  2  0
 14 15  1  0
 15 16  1  0
 16 17  1  0
 17 18  2  0
 18 19  1  0
 19 20  2  0
 20 21  1  0
 21 22  2  0
  7  2  1  0
 22  8  1  0
 14  9  1  0
 22 17  1  0
  3 23  1  0
  4 24  1  0
  5 25  1  0
  6 26  1  0
  8 27  1  0
 10 28  1  0
 11 29  1  0
 12 30  1  0
 13 31  1  0
 15 32  1  0
 15 33  1  0
 16 34  1  0
 16 35  1  0
 18 36  1  0
 19 37  1  0
 20 38  1  0
 21 39  1  0
M  END
>  <UniqueID>  (15) 
13

>  <SMILES>  (15) 
O=c1ccccn1C1c2ccccc2CCc2ccccc21

>  <Energy>  (15) 
69.77967800080124

>  <Genealogy>  (15) 
O=c1ccccn1C1c2ccccc2CCc2ccccc21 (3D coordinates assigned)
O=c1ccccn1C1c2ccccc2CCc2ccccc21 (nonaromatic ring conformer: 69.77967800080124 kcal/mol)

>  <smiles>  (15) 
O=c1ccccn1C1c2ccccc2CCc2ccccc21

>  <score_type>  (15) 
oracle

>  <origin>  (15) 
adg

>  <m_score__min__energy>  (15) 
-6.75

>  <m_primary>  (15) 
energy

$$$$
15:0
     RDKit          3D

 39 40  0  0  0  0  0  0  0  0999 V2000
   57.9580   28.3260   44.2310 C   0  0  0  0  0  0  0  0  0  0  0  0
   57.0600   29.0080   45.2600 C   0  0  0  0  0  0  0  0  0  0  0  0
   57.2670   30.4740   45.2440 N   0  0  0  0  0  0  0  0  0  0  0  0
   56.8280   31.0630   43.9570 C   0  0  0  0  0  0  0  0  0  0  0  0
   58.0050   31.7200   43.2420 C   0  0  0  0  0  0  0  0  0  0  0  0
   58.6710   30.8390   45.5710 C   0  0  0  0  0  0  0  0  0  0  0  0
   58.9640   30.5350   47.0400 C   0  0  0  0  0  0  0  0  0  0  0  0
   58.4910   31.9400   48.1090 S   0  0  0  0  0  0  0  0  0  0  0  0
   58.4720   33.1320   46.7670 C   0  0  0  0  0  0  0  0  0  0  0  0
   57.3200   33.3610   46.0780 N   0  0  0  0  0  0  0  0  0  0  0  0
   57.7770   34.5680   45.0490 S   0  0  0  0  0  0  0  0  0  0  0  0
   59.3550   34.8430   45.4230 N   0  0  0  0  0  0  0  0  0  0  0  0
   59.5960   33.9450   46.4110 C   0  0  0  0  0  0  0  0  0  0  0  0
   60.9100   33.8980   47.0880 C   0  0  0  0  0  0  0  0  0  0  0  0
   60.9980   34.1970   48.4580 C   0  0  0  0  0  0  0  0  0  0  0  0
   62.2360   34.1720   49.1080 C   0  0  0  0  0  0  0  0  0  0  0  0
   63.3960   33.8650   48.3930 C   0  0  0  0  0  0  0  0  0  0  0  0
   63.3210   33.5880   47.0260 C   0  0  0  0  0  0  0  0  0  0  0  0
   62.0830   33.6070   46.3740 C   0  0  0  0  0  0  0  0  0  0  0  0
   58.7304   27.7394   44.7499 H   0  0  0  0  0  0  0  0  0  0  0  0
   57.3521   27.6583   43.6008 H   0  0  0  0  0  0  0  0  0  0  0  0
   58.4385   29.0888   43.6008 H   0  0  0  0  0  0  0  0  0  0  0  0
   56.0083   28.7890   45.0233 H   0  0  0  0  0  0  0  0  0  0  0  0
   57.3133   28.6255   46.2598 H   0  0  0  0  0  0  0  0  0  0  0  0
   56.4135   30.2693   43.3181 H   0  0  0  0  0  0  0  0  0  0  0  0
   56.0620   31.8265   44.1576 H   0  0  0  0  0  0  0  0  0  0  0  0
   58.7122   32.1147   43.9864 H   0  0  0  0  0  0  0  0  0  0  0  0
   58.5134   30.9752   42.6121 H   0  0  0  0  0  0  0  0  0  0  0  0
   57.6379   32.5437   42.6121 H   0  0  0  0  0  0  0  0  0  0  0  0
   59.3555   30.2578   44.9356 H   0  0  0  0  0  0  0  0  0  0  0  0
   58.8150   31.9144   45.3902 H   0  0  0  0  0  0  0  0  0  0  0  0
   58.3937   29.6447   47.3434 H   0  0  0  0  0  0  0  0  0  0  0  0
   60.0440   30.3586   47.1519 H   0  0  0  0  0  0  0  0  0  0  0  0
   60.0100   35.5410   45.0050 H   0  0  0  0  0  0  0  0  0  0  0  0
   60.0887   34.4520   49.0221 H   0  0  0  0  0  0  0  0  0  0  0  0
   62.2963   34.3944   50.1836 H   0  0  0  0  0  0  0  0  0  0  0  0
   64.3685   33.8414   48.9064 H   0  0  0  0  0  0  0  0  0  0  0  0
   64.2359   33.3547   46.4615 H   0  0  0  0  0  0  0  0  0  0  0  0
   62.0287   33.3928   45.2964 H   0  0  0  0  0  0  0  0  0  0  0  0
  1  2  1  0
  2  3  1  0
  3  4  1  0
  4  5  1  0
  3  6  1  0
  6  7  1  0
  7  8  1  0
  8  9  1  0
  9 10  2  0
 10 11  1  0
 11 12  1  0
 12 13  2  0
 13 14  1  0
 14 15  2  0
 15 16  1  0
 16 17  2  0
 17 18  1  0
 18 19  2  0
 13  9  1  0
 19 14  1  0
  1 20  1  0
  1 21  1  0
  1 22  1  0
  2 23  1  0
  2 24  1  0
  4 25  1  0
  4 26  1  0
  5 27  1  0
  5 28  1  0
  5 29  1  0
  6 30  1  0
  6 31  1  0
  7 32  1  0
  7 33  1  0
 12 34  1  0
 15 35  1  0
 16 36  1  0
 17 37  1  0
 18 38  1  0
 19 39  1  0
M  CHG  1  12   1
M  END
>  <UniqueID>  (16) 
14

>  <SMILES>  (16) 
CCN(CC)CCSc1ns[nH+]c1-c1ccccc1

>  <Energy>  (16) 
74.47611532147221

>  <Genealogy>  (16) 
CCN(CC)CCSc1ns[nH+]c1-c1ccccc1 (protonated)
CCN(CC)CCSc1ns[nH+]c1-c1ccccc1 (3D coordinates assigned)
CCN(CC)CCSc1ns[nH+]c1-c1ccccc1 (optimized conformer: 74.47611532147221 kcal/mol)

>  <smiles>  (16) 
CCN(CC)CCSc1nsnc1-c1ccccc1

>  <score_type>  (16) 
oracle

>  <origin>  (16) 
adg

>  <m_score__min__energy>  (16) 
-5.3899999999999997

>  <m_primary>  (16) 
energy

$$$$
16:0
     RDKit          3D

 36 38  0  0  0  0  0  0  0  0999 V2000
   59.1044   33.7311   45.1284 H   0  0  0  0  0  0  0  0  0  0  0  0
   59.2630   32.9040   45.8360 C   0  0  0  0  0  0  0  0  0  0  0  0
   60.2330   33.0440   46.7540 C   0  0  0  0  0  0  0  0  0  0  0  0
   60.2950   34.0050   47.8630 C   0  0  0  0  0  0  0  0  0  0  0  0
   59.4660   34.9170   48.1250 O   0  0  0  0  0  0  0  0  0  0  0  0
   61.5390   33.7860   48.5620 C   0  0  0  0  0  0  0  0  0  0  0  0
   62.0480   34.4420   49.6840 C   0  0  0  0  0  0  0  0  0  0  0  0
   61.4807   35.2481   50.1722 H   0  0  0  0  0  0  0  0  0  0  0  0
   63.3030   34.0460   50.1730 C   0  0  0  0  0  0  0  0  0  0  0  0
   63.7276   34.5431   51.0576 H   0  0  0  0  0  0  0  0  0  0  0  0
   64.0210   33.0150   49.5360 C   0  0  0  0  0  0  0  0  0  0  0  0
   65.0033   32.7103   49.9262 H   0  0  0  0  0  0  0  0  0  0  0  0
   63.4890   32.3740   48.4050 C   0  0  0  0  0  0  0  0  0  0  0  0
   64.0465   31.5699   47.9023 H   0  0  0  0  0  0  0  0  0  0  0  0
   62.2390   32.7770   47.9310 C   0  0  0  0  0  0  0  0  0  0  0  0
   61.5050   32.2350   46.7410 C   0  0  0  0  0  0  0  0  0  0  0  0
   61.2957   31.1613   46.8568 H   0  0  0  0  0  0  0  0  0  0  0  0
   62.0694   32.3158   45.8003 H   0  0  0  0  0  0  0  0  0  0  0  0
   58.3950   31.7170   45.7110 C   0  0  0  0  0  0  0  0  0  0  0  0
   58.5510   30.6110   46.5610 C   0  0  0  0  0  0  0  0  0  0  0  0
   59.3054   30.6372   47.3611 H   0  0  0  0  0  0  0  0  0  0  0  0
   57.7520   29.4770   46.3950 C   0  0  0  0  0  0  0  0  0  0  0  0
   57.8689   28.6223   47.0775 H   0  0  0  0  0  0  0  0  0  0  0  0
   56.8030   29.4200   45.3660 C   0  0  0  0  0  0  0  0  0  0  0  0
   56.0070   28.2340   45.2360 N   0  0  0  0  0  0  0  0  0  0  0  0
   56.4190   26.6630   45.8440 S   0  0  0  0  0  0  0  0  0  0  0  0
   55.1710   25.8740   46.1200 O   0  0  0  0  0  0  0  0  0  0  0  0
   57.1790   26.8280   47.1290 O   0  0  0  0  0  0  0  0  0  0  0  0
   57.4520   25.8050   44.6760 C   0  0  0  0  0  0  0  0  0  0  0  0
   58.1884   25.1934   45.2179 H   0  0  0  0  0  0  0  0  0  0  0  0
   56.8292   25.1548   44.0441 H   0  0  0  0  0  0  0  0  0  0  0  0
   57.9769   26.5366   44.0441 H   0  0  0  0  0  0  0  0  0  0  0  0
   56.6690   30.5160   44.4960 C   0  0  0  0  0  0  0  0  0  0  0  0
   55.9317   30.4803   43.6805 H   0  0  0  0  0  0  0  0  0  0  0  0
   57.4680   31.6510   44.6620 C   0  0  0  0  0  0  0  0  0  0  0  0
   57.3686   32.4967   43.9656 H   0  0  0  0  0  0  0  0  0  0  0  0
  1  2  1  0
  2  3  2  0
  3  4  1  0
  4  5  2  0
  4  6  1  0
  6  7  2  0
  7  8  1  0
  7  9  1  0
  9 10  1  0
  9 11  2  0
 11 12  1  0
 11 13  1  0
 13 14  1  0
 13 15  2  0
 15 16  1  0
 16 17  1  0
 16 18  1  0
  2 19  1  0
 19 20  2  0
 20 21  1  0
 20 22  1  0
 22 23  1  0
 22 24  2  0
 24 25  1  0
 25 26  1  0
 26 27  2  0
 26 28  2  0
 26 29  1  0
 29 30  1  0
 29 31  1  0
 29 32  1  0
 24 33  1  0
 33 34  1  0
 33 35  2  0
 35 36  1  0
 16  3  1  0
 35 19  1  0
 15  6  1  0
M  CHG  1  25  -1
M  END
>  <UniqueID>  (17) 
15

>  <SMILES>  (17) 
CS(=O)(=O)[N-]c1ccc(/C=C2/Cc3ccccc3C2=O)cc1

>  <Energy>  (17) 
62.83043175561571

>  <Genealogy>  (17) 
CS(=O)(=O)[N-]c1ccc(C=C2Cc3ccccc3C2=O)cc1 (protonated)
CS(=O)(=O)[N-]c1ccc(/C=C2/Cc3ccccc3C2=O)cc1 (cis-trans isomerization)
CS(=O)(=O)[N-]c1ccc(/C=C2/Cc3ccccc3C2=O)cc1 (3D coordinates assigned)
CS(=O)(=O)[N-]c1ccc(/C=C2/Cc3ccccc3C2=O)cc1 (nonaromatic ring conformer: 62.83043175561571 kcal/mol)

>  <smiles>  (17) 
CS(=O)(=O)Nc1ccc(C=C2Cc3ccccc3C2=O)cc1

>  <score_type>  (17) 
oracle

>  <origin>  (17) 
adg

>  <m_score__min__energy>  (17) 
-10.15

>  <m_primary>  (17) 
energy

$$$$
17:0
     RDKit          3D

 27 28  0  0  0  0  0  0  0  0999 V2000
   61.0210   26.7090   46.1060 C   0  0  0  0  0  0  0  0  0  0  0  0
   59.8240   27.5440   45.7810 C   0  0  0  0  0  0  0  0  0  0  0  0
   59.7470   28.2400   44.5710 C   0  0  0  0  0  0  0  0  0  0  0  0
   58.6400   28.9790   44.2900 N   0  0  0  0  0  0  0  0  0  0  0  0
   57.5990   29.0600   45.1700 C   0  0  0  0  0  0  0  0  0  0  0  0
   56.4000   29.8720   44.8560 C   0  0  0  0  0  0  0  0  0  0  0  0
   55.2650   29.3250   44.8600 O   0  0  0  0  0  0  0  0  0  0  0  0
   56.4940   31.2570   44.4960 N   0  0  0  0  0  0  0  0  0  0  0  0
   57.3630   32.2320   45.0900 C   0  0  0  0  0  0  0  0  0  0  0  0
   57.7620   33.3370   44.3280 C   0  0  0  0  0  0  0  0  0  0  0  0
   58.5970   34.3130   44.8810 C   0  0  0  0  0  0  0  0  0  0  0  0
   59.0290   34.1960   46.2060 C   0  0  0  0  0  0  0  0  0  0  0  0
   59.8370   35.1430   46.7420 F   0  0  0  0  0  0  0  0  0  0  0  0
   58.6170   33.1080   46.9800 C   0  0  0  0  0  0  0  0  0  0  0  0
   57.7810   32.1310   46.4300 C   0  0  0  0  0  0  0  0  0  0  0  0
   57.6720   28.3410   46.3730 C   0  0  0  0  0  0  0  0  0  0  0  0
   58.7800   27.6040   46.6490 N   0  0  0  0  0  0  0  0  0  0  0  0
   61.1296   26.6332   47.1980 H   0  0  0  0  0  0  0  0  0  0  0  0
   60.8931   25.7031   45.6796 H   0  0  0  0  0  0  0  0  0  0  0  0
   61.9208   27.1764   45.6796 H   0  0  0  0  0  0  0  0  0  0  0  0
   60.5766   28.1904   43.8504 H   0  0  0  0  0  0  0  0  0  0  0  0
   58.5950   29.4690   43.3690 H   0  0  0  0  0  0  0  0  0  0  0  0
   57.4167   33.4379   43.2885 H   0  0  0  0  0  0  0  0  0  0  0  0
   58.9142   35.1733   44.2734 H   0  0  0  0  0  0  0  0  0  0  0  0
   58.9510   33.0198   48.0243 H   0  0  0  0  0  0  0  0  0  0  0  0
   57.4496   31.2820   47.0459 H   0  0  0  0  0  0  0  0  0  0  0  0
   56.8371   28.3738   47.0885 H   0  0  0  0  0  0  0  0  0  0  0  0
  1  2  1  0
  2  3  2  0
  3  4  1  0
  4  5  2  0
  5  6  1  0
  6  7  2  0
  6  8  1  0
  8  9  1  0
  9 10  2  0
 10 11  1  0
 11 12  2  0
 12 13  1  0
 12 14  1  0
 14 15  2  0
  5 16  1  0
 16 17  2  0
 17  2  1  0
 15  9  1  0
  1 18  1  0
  1 19  1  0
  1 20  1  0
  3 21  1  0
  4 22  1  0
 10 23  1  0
 11 24  1  0
 14 25  1  0
 15 26  1  0
 16 27  1  0
M  CHG  2   4   1   8  -1
M  END
>  <UniqueID>  (18) 
16

>  <SMILES>  (18) 
Cc1c[nH+]c(C(=O)[N-]c2ccc(F)cc2)cn1

>  <Energy>  (18) 
34.132587060205196

>  <Genealogy>  (18) 
Cc1c[nH+]c(C(=O)[N-]c2ccc(F)cc2)cn1 (protonated)
Cc1c[nH+]c(C(=O)[N-]c2ccc(F)cc2)cn1 (3D coordinates assigned)
Cc1c[nH+]c(C(=O)[N-]c2ccc(F)cc2)cn1 (optimized conformer: 34.132587060205196 kcal/mol)

>  <smiles>  (18) 
Cc1cnc(C(=O)Nc2ccc(F)cc2)cn1

>  <score_type>  (18) 
oracle

>  <origin>  (18) 
adg

>  <m_score__min__energy>  (18) 
-6.1500000000000004

>  <m_primary>  (18) 
energy

$$$$
18:0
     RDKit          3D

 27 29  0  0  0  0  0  0  0  0999 V2000
   57.5090   28.7640   44.5690 C   0  0  0  0  0  0  0  0  0  0  0  0
   57.8120   30.1460   45.0390 C   0  0  0  0  0  0  0  0  0  0  0  0
   58.9290   30.4850   45.7170 N   0  0  0  0  0  0  0  0  0  0  0  0
   58.8050   31.7760   45.9680 N   0  0  0  0  0  0  0  0  0  0  0  0
   57.6340   32.1770   45.4490 C   0  0  0  0  0  0  0  0  0  0  0  0
   57.0090   33.8520   45.5310 S   0  0  0  0  0  0  0  0  0  0  0  0
   58.5770   34.5820   44.9610 C   0  0  0  0  0  0  0  0  0  0  0  0
   59.6430   34.3080   45.9690 C   0  0  0  0  0  0  0  0  0  0  0  0
   60.8750   33.8470   45.6270 N   0  0  0  0  0  0  0  0  0  0  0  0
   61.4690   33.6990   46.8190 C   0  0  0  0  0  0  0  0  0  0  0  0
   62.7620   33.2500   47.0780 C   0  0  0  0  0  0  0  0  0  0  0  0
   63.1690   33.1710   48.4230 C   0  0  0  0  0  0  0  0  0  0  0  0
   62.2800   33.5360   49.4620 C   0  0  0  0  0  0  0  0  0  0  0  0
   60.9790   33.9830   49.1610 C   0  0  0  0  0  0  0  0  0  0  0  0
   60.6150   34.0510   47.8180 C   0  0  0  0  0  0  0  0  0  0  0  0
   59.4370   34.4370   47.3070 N   0  0  0  0  0  0  0  0  0  0  0  0
   57.0120   31.1760   44.8770 O   0  0  0  0  0  0  0  0  0  0  0  0
   57.3645   28.1047   45.4376 H   0  0  0  0  0  0  0  0  0  0  0  0
   56.5922   28.7761   43.9613 H   0  0  0  0  0  0  0  0  0  0  0  0
   58.3468   28.3914   43.9613 H   0  0  0  0  0  0  0  0  0  0  0  0
   59.5040   32.3580   46.4800 H   0  0  0  0  0  0  0  0  0  0  0  0
   58.8604   34.1367   43.9959 H   0  0  0  0  0  0  0  0  0  0  0  0
   58.4552   35.6684   44.8390 H   0  0  0  0  0  0  0  0  0  0  0  0
   63.4410   32.9671   46.2601 H   0  0  0  0  0  0  0  0  0  0  0  0
   64.1836   32.8237   48.6680 H   0  0  0  0  0  0  0  0  0  0  0  0
   62.6070   33.4702   50.5102 H   0  0  0  0  0  0  0  0  0  0  0  0
   60.2757   34.2681   49.9573 H   0  0  0  0  0  0  0  0  0  0  0  0
  1  2  1  0
  2  3  2  0
  3  4  1  0
  4  5  2  0
  5  6  1  0
  6  7  1  0
  7  8  1  0
  8  9  2  0
  9 10  1  0
 10 11  2  0
 11 12  1  0
 12 13  2  0
 13 14  1  0
 14 15  2  0
 15 16  1  0
  5 17  1  0
 17  2  1  0
 16  8  1  0
 15 10  1  0
  1 18  1  0
  1 19  1  0
  1 20  1  0
  4 21  1  0
  7 22  1  0
  7 23  1  0
 11 24  1  0
 12 25  1  0
 13 26  1  0
 14 27  1  0
M  CHG  2   4   1  16  -1
M  END
>  <UniqueID>  (19) 
17

>  <SMILES>  (19) 
Cc1n[nH+]c(SCc2nc3ccccc3[n-]2)o1

>  <Energy>  (19) 
92.72221025943526

>  <Genealogy>  (19) 
Cc1n[nH+]c(SCc2nc3ccccc3[n-]2)o1 (protonated)
Cc1n[nH+]c(SCc2nc3ccccc3[n-]2)o1 (3D coordinates assigned)
Cc1n[nH+]c(SCc2nc3ccccc3[n-]2)o1 (optimized conformer: 92.72221025943526 kcal/mol)

>  <smiles>  (19) 
Cc1nnc(SCc2nc3ccccc3[nH]2)o1

>  <score_type>  (19) 
oracle

>  <origin>  (19) 
adg

>  <m_score__min__energy>  (19) 
-6.0700000000000003

>  <m_primary>  (19) 
energy

$$$$
19:0
     RDKit          3D

 43 44  0  0  0  0  0  0  0  0999 V2000
   58.1280   34.0210   45.4810 C   0  0  0  0  0  0  0  0  0  0  0  0
   58.6740   33.5630   44.1230 C   0  0  0  0  0  0  0  0  0  0  0  0
   57.7520   32.6910   43.3610 N   0  0  0  0  0  0  0  0  0  0  0  0
   58.1380   32.3530   41.9840 C   0  0  0  0  0  0  0  0  0  0  0  0
   57.0400   31.6390   44.1190 C   0  0  0  0  0  0  0  0  0  0  0  0
   56.6480   30.3890   43.3060 C   0  0  0  0  0  0  0  0  0  0  0  0
   55.4780   29.6020   43.9150 C   0  0  0  0  0  0  0  0  0  0  0  0
   55.8220   29.1120   45.2480 N   0  0  0  0  0  0  0  0  0  0  0  0
   57.0680   28.5090   45.6230 C   0  0  0  0  0  0  0  0  0  0  0  0
   57.1590   27.2530   45.6180 O   0  0  0  0  0  0  0  0  0  0  0  0
   58.2510   29.3110   45.9880 C   0  0  0  0  0  0  0  0  0  0  0  0
   59.5300   28.9450   45.5460 C   0  0  0  0  0  0  0  0  0  0  0  0
   60.6450   29.7110   45.8980 C   0  0  0  0  0  0  0  0  0  0  0  0
   60.5000   30.8660   46.6850 C   0  0  0  0  0  0  0  0  0  0  0  0
   61.6510   31.6540   47.0520 N   0  0  0  0  0  0  0  0  0  0  0  0
   61.6710   32.9580   47.4040 C   0  0  0  0  0  0  0  0  0  0  0  0
   62.9740   33.3180   47.6740 C   0  0  0  0  0  0  0  0  0  0  0  0
   63.7610   32.2420   47.4930 N   0  0  0  0  0  0  0  0  0  0  0  0
   62.9380   31.2460   47.1150 C   0  0  0  0  0  0  0  0  0  0  0  0
   59.2110   31.2430   47.1050 C   0  0  0  0  0  0  0  0  0  0  0  0
   58.0970   30.4760   46.7530 C   0  0  0  0  0  0  0  0  0  0  0  0
   58.7010   33.5403   46.2876 H   0  0  0  0  0  0  0  0  0  0  0  0
   58.2229   35.1137   45.5647 H   0  0  0  0  0  0  0  0  0  0  0  0
   57.0685   33.7375   45.5647 H   0  0  0  0  0  0  0  0  0  0  0  0
   58.8840   34.4564   43.5166 H   0  0  0  0  0  0  0  0  0  0  0  0
   59.5749   32.9665   44.3295 H   0  0  0  0  0  0  0  0  0  0  0  0
   58.9655   31.6284   42.0025 H   0  0  0  0  0  0  0  0  0  0  0  0
   57.2771   31.9131   41.4594 H   0  0  0  0  0  0  0  0  0  0  0  0
   58.4604   33.2645   41.4594 H   0  0  0  0  0  0  0  0  0  0  0  0
   57.6909   31.3163   44.9450 H   0  0  0  0  0  0  0  0  0  0  0  0
   56.0949   32.0925   44.4524 H   0  0  0  0  0  0  0  0  0  0  0  0
   56.3624   30.7084   42.2929 H   0  0  0  0  0  0  0  0  0  0  0  0
   57.5206   29.7193   43.3028 H   0  0  0  0  0  0  0  0  0  0  0  0
   54.5996   30.2601   43.9880 H   0  0  0  0  0  0  0  0  0  0  0  0
   55.2573   28.7402   43.2680 H   0  0  0  0  0  0  0  0  0  0  0  0
   59.6568   28.0502   44.9188 H   0  0  0  0  0  0  0  0  0  0  0  0
   61.6452   29.4068   45.5558 H   0  0  0  0  0  0  0  0  0  0  0  0
   60.7952   33.6208   47.4649 H   0  0  0  0  0  0  0  0  0  0  0  0
   63.3132   34.3171   47.9851 H   0  0  0  0  0  0  0  0  0  0  0  0
   64.7960   32.1890   47.6230 H   0  0  0  0  0  0  0  0  0  0  0  0
   63.2725   30.2236   46.8852 H   0  0  0  0  0  0  0  0  0  0  0  0
   59.0791   32.1486   47.7153 H   0  0  0  0  0  0  0  0  0  0  0  0
   57.0935   30.7881   47.0780 H   0  0  0  0  0  0  0  0  0  0  0  0
  1  2  1  0
  2  3  1  0
  3  4  1  0
  3  5  1  0
  5  6  1  0
  6  7  1  0
  7  8  1  0
  8  9  1  0
  9 10  2  0
  9 11  1  0
 11 12  2  0
 12 13  1  0
 13 14  2  0
 14 15  1  0
 15 16  1  0
 16 17  2  0
 17 18  1  0
 18 19  2  0
 14 20  1  0
 20 21  2  0
 21 11  1  0
 19 15  1  0
  1 22  1  0
  1 23  1  0
  1 24  1  0
  2 25  1  0
  2 26  1  0
  4 27  1  0
  4 28  1  0
  4 29  1  0
  5 30  1  0
  5 31  1  0
  6 32  1  0
  6 33  1  0
  7 34  1  0
  7 35  1  0
 12 36  1  0
 13 37  1  0
 16 38  1  0
 17 39  1  0
 18 40  1  0
 19 41  1  0
 20 42  1  0
 21 43  1  0
M  CHG  2   8  -1  18   1
M  END
>  <UniqueID>  (20) 
18

>  <SMILES>  (20) 
CCN(C)CCC[N-]C(=O)c1ccc(-n2cc[nH+]c2)cc1

>  <Energy>  (20) 
87.28529398790658

>  <Genealogy>  (20) 
CCN(C)CCC[N-]C(=O)c1ccc(-n2cc[nH+]c2)cc1 (protonated)
CCN(C)CCC[N-]C(=O)c1ccc(-n2cc[nH+]c2)cc1 (3D coordinates assigned)
CCN(C)CCC[N-]C(=O)c1ccc(-n2cc[nH+]c2)cc1 (optimized conformer: 87.28529398790658 kcal/mol)

>  <smiles>  (20) 
CCN(C)CCCNC(=O)c1ccc(-n2ccnc2)cc1

>  <score_type>  (20) 
oracle

>  <origin>  (20) 
adg

>  <m_score__min__energy>  (20) 
-6.8300000000000001

>  <m_primary>  (20) 
energy

$$$$
20:0
     RDKit          3D

 37 39  0  0  0  0  0  0  0  0999 V2000
   60.6070   26.7130   46.0360 C   0  0  0  0  0  0  0  0  0  0  0  0
   59.1140   26.8360   46.1580 C   0  0  0  0  0  0  0  0  0  0  0  0
   58.4020   25.7360   46.6610 C   0  0  0  0  0  0  0  0  0  0  0  0
   57.0090   25.7200   46.6400 C   0  0  0  0  0  0  0  0  0  0  0  0
   56.3050   26.7750   46.0660 C   0  0  0  0  0  0  0  0  0  0  0  0
   54.9170   26.7100   45.9980 O   0  0  0  0  0  0  0  0  0  0  0  0
   56.9980   27.8890   45.5620 C   0  0  0  0  0  0  0  0  0  0  0  0
   58.4000   27.9810   45.7100 C   0  0  0  0  0  0  0  0  0  0  0  0
   59.0450   29.2420   45.3750 N   0  0  0  0  0  0  0  0  0  0  0  0
   60.1020   29.8320   46.2240 C   0  0  0  0  0  0  0  0  0  0  0  0
   59.5420   30.5180   47.4560 C   0  0  0  0  0  0  0  0  0  0  0  0
   59.0580   31.8410   47.3770 C   0  0  0  0  0  0  0  0  0  0  0  0
   59.0590   32.5160   46.2010 F   0  0  0  0  0  0  0  0  0  0  0  0
   58.5380   32.4710   48.5130 C   0  0  0  0  0  0  0  0  0  0  0  0
   58.4660   31.7870   49.7270 C   0  0  0  0  0  0  0  0  0  0  0  0
   57.9590   32.4010   50.8230 F   0  0  0  0  0  0  0  0  0  0  0  0
   58.8930   30.4610   49.8050 C   0  0  0  0  0  0  0  0  0  0  0  0
   59.4120   29.8200   48.6750 C   0  0  0  0  0  0  0  0  0  0  0  0
   59.7660   28.5160   48.7710 F   0  0  0  0  0  0  0  0  0  0  0  0
   58.4640   30.1180   44.3370 C   0  0  0  0  0  0  0  0  0  0  0  0
   57.1630   29.5630   43.7440 C   0  0  0  0  0  0  0  0  0  0  0  0
   56.2670   28.9930   44.8440 C   0  0  0  0  0  0  0  0  0  0  0  0
   61.0551   26.6761   47.0399 H   0  0  0  0  0  0  0  0  0  0  0  0
   60.8555   25.7913   45.4894 H   0  0  0  0  0  0  0  0  0  0  0  0
   61.0030   27.5816   45.4894 H   0  0  0  0  0  0  0  0  0  0  0  0
   58.9497   24.8772   47.0763 H   0  0  0  0  0  0  0  0  0  0  0  0
   56.4638   24.8711   47.0783 H   0  0  0  0  0  0  0  0  0  0  0  0
   60.7842   29.0313   46.5455 H   0  0  0  0  0  0  0  0  0  0  0  0
   60.6250   30.5930   45.6262 H   0  0  0  0  0  0  0  0  0  0  0  0
   58.1842   33.5106   48.4487 H   0  0  0  0  0  0  0  0  0  0  0  0
   58.8213   29.9175   50.7587 H   0  0  0  0  0  0  0  0  0  0  0  0
   58.2540   31.1005   44.7848 H   0  0  0  0  0  0  0  0  0  0  0  0
   59.1953   30.1878   43.5183 H   0  0  0  0  0  0  0  0  0  0  0  0
   56.6281   30.3727   43.2261 H   0  0  0  0  0  0  0  0  0  0  0  0
   57.4120   28.7571   43.0380 H   0  0  0  0  0  0  0  0  0  0  0  0
   56.0113   29.7893   45.5586 H   0  0  0  0  0  0  0  0  0  0  0  0
   55.3449   28.5932   44.3968 H   0  0  0  0  0  0  0  0  0  0  0  0
  1  2  1  0
  2  3  2  0
  3  4  1  0
  4  5  2  0
  5  6  1  0
  5  7  1  0
  7  8  2  0
  8  9  1  0
  9 10  1  0
 10 11  1  0
 11 12  2  0
 12 13  1  0
 12 14  1  0
 14 15  2  0
 15 16  1  0
 15 17  1  0
 17 18  2  0
 18 19  1  0
  9 20  1  0
 20 21  1  0
 21 22  1  0
  8  2  1  0
 18 11  1  0
 22  7  1  0
  1 23  1  0
  1 24  1  0
  1 25  1  0
  3 26  1  0
  4 27  1  0
 10 28  1  0
 10 29  1  0
 14 30  1  0
 17 31  1  0
 20 32  1  0
 20 33  1  0
 21 34  1  0
 21 35  1  0
 22 36  1  0
 22 37  1  0
M  CHG  1   6  -1
M  END
>  <UniqueID>  (21) 
19

>  <SMILES>  (21) 
Cc1ccc([O-])c2c1N(Cc1c(F)cc(F)cc1F)CCC2

>  <Energy>  (21) 
50.16652119819203

>  <Genealogy>  (21) 
Cc1ccc([O-])c2c1N(Cc1c(F)cc(F)cc1F)CCC2 (protonated)
Cc1ccc([O-])c2c1N(Cc1c(F)cc(F)cc1F)CCC2 (3D coordinates assigned)
Cc1ccc([O-])c2c1N(Cc1c(F)cc(F)cc1F)CCC2 (nonaromatic ring conformer: 50.16652119819203 kcal/mol)

>  <smiles>  (21) 
Cc1ccc(O)c2c1N(Cc1c(F)cc(F)cc1F)CCC2

>  <score_type>  (21) 
oracle

>  <origin>  (21) 
adg

>  <m_score__min__energy>  (21) 
-10.48

>  <m_primary>  (21) 
energy

$$$$
21:0
     RDKit          3D

 59 61  0  0  0  0  0  0  0  0999 V2000
   52.0590   24.1340   44.9140 C   0  0  0  0  0  0  0  0  0  0  0  0
   53.0710   23.2510   45.6250 C   0  0  0  0  0  0  0  0  0  0  0  0
   54.3800   23.7770   45.4350 O   0  0  0  0  0  0  0  0  0  0  0  0
   55.1700   23.4480   44.3300 C   0  0  0  0  0  0  0  0  0  0  0  0
   54.6590   23.3920   43.1800 O   0  0  0  0  0  0  0  0  0  0  0  0
   56.6010   23.1500   44.5220 C   0  0  0  0  0  0  0  0  0  0  0  0
   57.2580   22.0160   44.0640 C   0  0  0  0  0  0  0  0  0  0  0  0
   56.6410   20.8750   43.3170 C   0  0  0  0  0  0  0  0  0  0  0  0
   58.5580   22.0590   44.4060 N   0  0  0  0  0  0  0  0  0  0  0  0
   58.7530   23.2040   45.0870 C   0  0  0  0  0  0  0  0  0  0  0  0
   60.0920   23.6160   45.6170 C   0  0  0  0  0  0  0  0  0  0  0  0
   57.5600   23.9140   45.1890 C   0  0  0  0  0  0  0  0  0  0  0  0
   57.2950   25.3770   46.1640 S   0  0  0  0  0  0  0  0  0  0  0  0
   57.8890   25.1980   47.5310 O   0  0  0  0  0  0  0  0  0  0  0  0
   55.8190   25.5990   46.3420 O   0  0  0  0  0  0  0  0  0  0  0  0
   57.9870   26.7940   45.4030 N   0  0  0  0  0  0  0  0  0  0  0  0
   59.1420   27.2810   46.1910 C   0  0  0  0  0  0  0  0  0  0  0  0
   59.5070   28.7510   45.8940 C   0  0  0  0  0  0  0  0  0  0  0  0
   59.0140   29.2090   44.5170 C   0  0  0  0  0  0  0  0  0  0  0  0
   57.5020   28.9470   44.3100 C   0  0  2  0  0  0  0  0  0  0  0  0
   56.6740   30.2140   44.3940 C   0  0  0  0  0  0  0  0  0  0  0  0
   55.4980   30.1530   44.8380 O   0  0  0  0  0  0  0  0  0  0  0  0
   57.2120   31.4890   44.0270 N   0  0  0  0  0  0  0  0  0  0  0  0
   57.8200   32.3950   44.9530 C   0  0  0  0  0  0  0  0  0  0  0  0
   58.2290   33.6570   44.5070 C   0  0  0  0  0  0  0  0  0  0  0  0
   58.8210   34.5590   45.3920 C   0  0  0  0  0  0  0  0  0  0  0  0
   59.0200   34.2030   46.7290 C   0  0  0  0  0  0  0  0  0  0  0  0
   58.6220   32.9380   47.1870 C   0  0  0  0  0  0  0  0  0  0  0  0
   58.8720   32.5350   48.6100 C   0  0  0  0  0  0  0  0  0  0  0  0
   58.0440   32.0270   46.2900 C   0  0  0  0  0  0  0  0  0  0  0  0
   56.9690   27.8410   45.2440 C   0  0  0  0  0  0  0  0  0  0  0  0
   51.4492   24.6661   45.6590 H   0  0  0  0  0  0  0  0  0  0  0  0
   52.5881   24.8643   44.2842 H   0  0  0  0  0  0  0  0  0  0  0  0
   51.4071   23.5108   44.2842 H   0  0  0  0  0  0  0  0  0  0  0  0
   52.8404   23.2223   46.7002 H   0  0  0  0  0  0  0  0  0  0  0  0
   53.0225   22.2331   45.2109 H   0  0  0  0  0  0  0  0  0  0  0  0
   56.2437   20.1403   44.0327 H   0  0  0  0  0  0  0  0  0  0  0  0
   55.8229   21.2503   42.6847 H   0  0  0  0  0  0  0  0  0  0  0  0
   57.4030   20.3959   42.6847 H   0  0  0  0  0  0  0  0  0  0  0  0
   59.2800   21.3370   44.1860 H   0  0  0  0  0  0  0  0  0  0  0  0
   60.0690   23.6089   46.7167 H   0  0  0  0  0  0  0  0  0  0  0  0
   60.8593   22.9124   45.2617 H   0  0  0  0  0  0  0  0  0  0  0  0
   60.3310   24.6292   45.2617 H   0  0  0  0  0  0  0  0  0  0  0  0
   58.8984   27.1908   47.2599 H   0  0  0  0  0  0  0  0  0  0  0  0
   60.0102   26.6665   45.9106 H   0  0  0  0  0  0  0  0  0  0  0  0
   59.0502   29.3907   46.6634 H   0  0  0  0  0  0  0  0  0  0  0  0
   60.6040   28.8321   45.9014 H   0  0  0  0  0  0  0  0  0  0  0  0
   59.2018   30.2882   44.4163 H   0  0  0  0  0  0  0  0  0  0  0  0
   59.5601   28.6302   43.7575 H   0  0  0  0  0  0  0  0  0  0  0  0
   57.3922   28.5740   43.2810 H   0  0  0  0  0  0  0  0  0  0  0  0
   58.0831   33.9392   43.4539 H   0  0  0  0  0  0  0  0  0  0  0  0
   59.1318   35.5525   45.0366 H   0  0  0  0  0  0  0  0  0  0  0  0
   59.4893   34.9157   47.4231 H   0  0  0  0  0  0  0  0  0  0  0  0
   58.4145   33.2726   49.2858 H   0  0  0  0  0  0  0  0  0  0  0  0
   58.4292   31.5450   48.7939 H   0  0  0  0  0  0  0  0  0  0  0  0
   59.9557   32.4919   48.7939 H   0  0  0  0  0  0  0  0  0  0  0  0
   57.7651   31.0205   46.6352 H   0  0  0  0  0  0  0  0  0  0  0  0
   56.7338   28.2746   46.2272 H   0  0  0  0  0  0  0  0  0  0  0  0
   56.0601   27.4019   44.8069 H   0  0  0  0  0  0  0  0  0  0  0  0
  1  2  1  0
  2  3  1  0
  3  4  1  0
  4  5  2  0
  4  6  1  0
  6  7  2  0
  7  8  1  0
  7  9  1  0
  9 10  1  0
 10 11  1  0
 10 12  2  0
 12 13  1  0
 13 14  2  0
 13 15  2  0
 13 16  1  0
 16 17  1  0
 17 18  1  0
 18 19  1  0
 19 20  1  0
 20 21  1  0
 21 22  2  0
 21 23  1  0
 23 24  1  0
 24 25  2  0
 25 26  1  0
 26 27  2  0
 27 28  1  0
 28 29  1  0
 28 30  2  0
 20 31  1  0
 12  6  1  0
 31 16  1  0
 30 24  1  0
  1 32  1  0
  1 33  1  0
  1 34  1  0
  2 35  1  0
  2 36  1  0
  8 37  1  0
  8 38  1  0
  8 39  1  0
  9 40  1  0
 11 41  1  0
 11 42  1  0
 11 43  1  0
 17 44  1  0
 17 45  1  0
 18 46  1  0
 18 47  1  0
 19 48  1  0
 19 49  1  0
 20 50  1  6
 25 51  1  0
 26 52  1  0
 27 53  1  0
 29 54  1  0
 29 55  1  0
 29 56  1  0
 30 57  1  0
 31 58  1  0
 31 59  1  0
M  CHG  1  23  -1
M  END
>  <UniqueID>  (22) 
20

>  <SMILES>  (22) 
CCOC(=O)c1c(C)[nH]c(C)c1S(=O)(=O)N1CCC[C@H](C(=O)[N-]c2cccc(C)c2)C1

>  <Energy>  (22) 
91.0956742715883

>  <Genealogy>  (22) 
CCOC(=O)c1c(C)[nH]c(C)c1S(=O)(=O)N1CCCC(C(=O)[N-]c2cccc(C)c2)C1 (protonated)
CCOC(=O)c1c(C)[nH]c(C)c1S(=O)(=O)N1CCC[C@H](C(=O)[N-]c2cccc(C)c2)C1 (chirality)
CCOC(=O)c1c(C)[nH]c(C)c1S(=O)(=O)N1CCC[C@H](C(=O)[N-]c2cccc(C)c2)C1 (3D coordinates assigned)
CCOC(=O)c1c(C)[nH]c(C)c1S(=O)(=O)N1CCC[C@H](C(=O)[N-]c2cccc(C)c2)C1 (nonaromatic ring conformer: 91.0956742715883 kcal/mol)

>  <smiles>  (22) 
CCOC(=O)c1c(C)[nH]c(C)c1S(=O)(=O)N1CCCC(C(=O)Nc2cccc(C)c2)C1

>  <score_type>  (22) 
oracle

>  <origin>  (22) 
adg

>  <m_score__min__energy>  (22) 
-10.869999999999999

>  <m_primary>  (22) 
energy

$$$$
22:0
     RDKit          3D

 27 29  0  0  0  0  0  0  0  0999 V2000
   56.2860   30.0560   42.8160 O   0  0  0  0  0  0  0  0  0  0  0  0
   56.3370   30.0800   44.3170 S   0  0  0  0  0  0  0  0  0  0  0  0
   55.1450   29.3440   44.8620 O   0  0  0  0  0  0  0  0  0  0  0  0
   56.2890   31.7240   44.8670 N   0  0  0  0  0  0  0  0  0  0  0  0
   57.4320   32.4960   45.2600 C   0  0  0  0  0  0  0  0  0  0  0  0
   58.1700   33.2850   44.3340 C   0  0  0  0  0  0  0  0  0  0  0  0
   59.2590   34.0030   44.7450 N   0  0  0  0  0  0  0  0  0  0  0  0
   59.6270   33.9560   46.0500 C   0  0  0  0  0  0  0  0  0  0  0  0
   60.6650   34.5990   46.6070 N   0  0  0  0  0  0  0  0  0  0  0  0
   60.6380   34.2550   47.9170 C   0  0  0  0  0  0  0  0  0  0  0  0
   59.5770   33.3910   48.1820 C   0  0  0  0  0  0  0  0  0  0  0  0
   58.9460   33.2160   46.9690 C   0  0  0  0  0  0  0  0  0  0  0  0
   57.8320   32.4680   46.6090 C   0  0  0  0  0  0  0  0  0  0  0  0
   57.7990   29.3010   44.8910 C   0  0  0  0  0  0  0  0  0  0  0  0
   59.0930   29.6640   44.5470 C   0  0  0  0  0  0  0  0  0  0  0  0
   60.0640   28.8490   45.1430 C   0  0  0  0  0  0  0  0  0  0  0  0
   59.5210   27.8560   45.9460 C   0  0  0  0  0  0  0  0  0  0  0  0
   60.4310   26.6580   46.8410 Cl  0  0  0  0  0  0  0  0  0  0  0  0
   57.8440   27.9770   45.9240 S   0  0  0  0  0  0  0  0  0  0  0  0
   57.8620   33.3177   43.2785 H   0  0  0  0  0  0  0  0  0  0  0  0
   59.7990   34.5790   44.0610 H   0  0  0  0  0  0  0  0  0  0  0  0
   61.3490   35.2310   46.1350 H   0  0  0  0  0  0  0  0  0  0  0  0
   61.3568   34.6099   48.6703 H   0  0  0  0  0  0  0  0  0  0  0  0
   59.3026   32.9453   49.1495 H   0  0  0  0  0  0  0  0  0  0  0  0
   57.2813   31.8740   47.3532 H   0  0  0  0  0  0  0  0  0  0  0  0
   59.3314   30.5032   43.8770 H   0  0  0  0  0  0  0  0  0  0  0  0
   61.1452   28.9824   44.9903 H   0  0  0  0  0  0  0  0  0  0  0  0
  1  2  2  0
  2  3  2  0
  2  4  1  0
  4  5  1  0
  5  6  2  0
  6  7  1  0
  7  8  2  0
  8  9  1  0
  9 10  1  0
 10 11  2  0
 11 12  1  0
 12 13  2  0
  2 14  1  0
 14 15  2  0
 15 16  1  0
 16 17  2  0
 17 18  1  0
 17 19  1  0
 13  5  1  0
 19 14  1  0
 12  8  1  0
  6 20  1  0
  7 21  1  0
  9 22  1  0
 10 23  1  0
 11 24  1  0
 13 25  1  0
 15 26  1  0
 16 27  1  0
M  CHG  2   4  -1   7   1
M  END
>  <UniqueID>  (23) 
21

>  <SMILES>  (23) 
O=S(=O)([N-]c1c[nH+]c2[nH]ccc2c1)c1ccc(Cl)s1

>  <Energy>  (23) 
92.56874351644599

>  <Genealogy>  (23) 
O=S(=O)([N-]c1c[nH+]c2[nH]ccc2c1)c1ccc(Cl)s1 (protonated)
O=S(=O)([N-]c1c[nH+]c2[nH]ccc2c1)c1ccc(Cl)s1 (3D coordinates assigned)
O=S(=O)([N-]c1c[nH+]c2[nH]ccc2c1)c1ccc(Cl)s1 (optimized conformer: 92.56874351644599 kcal/mol)

>  <smiles>  (23) 
O=S(=O)(Nc1cnc2[nH]ccc2c1)c1ccc(Cl)s1

>  <score_type>  (23) 
oracle

>  <origin>  (23) 
adg

>  <m_score__min__energy>  (23) 
-7.2699999999999996

>  <m_primary>  (23) 
energy

$$$$
23:0
     RDKit          3D

 47 49  0  0  0  0  0  0  0  0999 V2000
   55.8840   25.7820   45.8640 C   0  0  0  0  0  0  0  0  0  0  0  0
   55.9010   27.1860   45.6280 O   0  0  0  0  0  0  0  0  0  0  0  0
   57.0160   28.0130   45.8310 C   0  0  0  0  0  0  0  0  0  0  0  0
   58.0930   27.6280   46.6550 C   0  0  0  0  0  0  0  0  0  0  0  0
   59.1860   28.4800   46.8330 C   0  0  0  0  0  0  0  0  0  0  0  0
   59.2230   29.7280   46.1950 C   0  0  0  0  0  0  0  0  0  0  0  0
   60.4070   30.6410   46.3610 C   0  0  0  0  0  0  0  0  0  0  0  0
   60.7890   30.7120   47.7320 O   0  0  0  0  0  0  0  0  0  0  0  0
   59.8850   30.9430   48.7780 C   0  0  0  0  0  0  0  0  0  0  0  0
   59.3980   29.9030   49.5130 N   0  0  0  0  0  0  0  0  0  0  0  0
   58.5210   30.0900   50.5330 C   0  0  0  0  0  0  0  0  0  0  0  0
   58.0910   31.3770   50.8570 C   0  0  0  0  0  0  0  0  0  0  0  0
   58.5720   32.4620   50.1240 C   0  0  0  0  0  0  0  0  0  0  0  0
   59.4780   32.2560   49.0720 C   0  0  0  0  0  0  0  0  0  0  0  0
   60.0030   33.4240   48.2740 C   0  0  0  0  0  0  0  0  0  0  0  0
   58.9140   34.0470   47.4950 N   0  0  0  0  0  0  0  0  0  0  0  0
   59.4320   34.9020   46.3910 C   0  0  0  0  0  0  0  0  0  0  0  0
   59.3380   34.2240   45.0160 C   0  0  0  0  0  0  0  0  0  0  0  0
   57.8830   33.8600   44.6760 C   0  0  0  0  0  0  0  0  0  0  0  0
   57.0450   33.5350   45.9250 C   0  0  0  0  0  0  0  0  0  0  0  0
   57.9310   33.0230   47.0650 C   0  0  0  0  0  0  0  0  0  0  0  0
   58.1540   30.1130   45.3740 C   0  0  0  0  0  0  0  0  0  0  0  0
   57.0580   29.2630   45.1940 C   0  0  0  0  0  0  0  0  0  0  0  0
   55.7350   29.7770   44.1560 Cl  0  0  0  0  0  0  0  0  0  0  0  0
   55.8817   25.5923   46.9475 H   0  0  0  0  0  0  0  0  0  0  0  0
   54.9805   25.3454   45.4134 H   0  0  0  0  0  0  0  0  0  0  0  0
   56.7767   25.3236   45.4134 H   0  0  0  0  0  0  0  0  0  0  0  0
   58.0728   26.6513   47.1607 H   0  0  0  0  0  0  0  0  0  0  0  0
   60.0220   28.1700   47.4772 H   0  0  0  0  0  0  0  0  0  0  0  0
   61.2495   30.2537   45.7692 H   0  0  0  0  0  0  0  0  0  0  0  0
   60.1335   31.6481   46.0134 H   0  0  0  0  0  0  0  0  0  0  0  0
   58.1496   29.2263   51.1039 H   0  0  0  0  0  0  0  0  0  0  0  0
   57.3803   31.5345   51.6816 H   0  0  0  0  0  0  0  0  0  0  0  0
   58.2405   33.4814   50.3710 H   0  0  0  0  0  0  0  0  0  0  0  0
   60.4296   34.1697   48.9610 H   0  0  0  0  0  0  0  0  0  0  0  0
   60.7764   33.0629   47.5801 H   0  0  0  0  0  0  0  0  0  0  0  0
   58.8470   35.8331   46.3640 H   0  0  0  0  0  0  0  0  0  0  0  0
   60.4963   35.0932   46.5929 H   0  0  0  0  0  0  0  0  0  0  0  0
   59.7248   34.9115   44.2493 H   0  0  0  0  0  0  0  0  0  0  0  0
   59.9326   33.2989   45.0415 H   0  0  0  0  0  0  0  0  0  0  0  0
   57.4205   34.7102   44.1533 H   0  0  0  0  0  0  0  0  0  0  0  0
   57.9044   32.9583   44.0463 H   0  0  0  0  0  0  0  0  0  0  0  0
   56.5246   34.4460   46.2557 H   0  0  0  0  0  0  0  0  0  0  0  0
   56.3206   32.7490   45.6652 H   0  0  0  0  0  0  0  0  0  0  0  0
   57.2933   32.7585   47.9214 H   0  0  0  0  0  0  0  0  0  0  0  0
   58.4855   32.1451   46.7019 H   0  0  0  0  0  0  0  0  0  0  0  0
   58.1773   31.0896   44.8683 H   0  0  0  0  0  0  0  0  0  0  0  0
  1  2  1  0
  2  3  1  0
  3  4  2  0
  4  5  1  0
  5  6  2  0
  6  7  1  0
  7  8  1  0
  8  9  1  0
  9 10  2  0
 10 11  1  0
 11 12  2  0
 12 13  1  0
 13 14  2  0
 14 15  1  0
 15 16  1  0
 16 17  1  0
 17 18  1  0
 18 19  1  0
 19 20  1  0
 20 21  1  0
  6 22  1  0
 22 23  2  0
 23 24  1  0
 23  3  1  0
 14  9  1  0
 21 16  1  0
  1 25  1  0
  1 26  1  0
  1 27  1  0
  4 28  1  0
  5 29  1  0
  7 30  1  0
  7 31  1  0
 11 32  1  0
 12 33  1  0
 13 34  1  0
 15 35  1  0
 15 36  1  0
 17 37  1  0
 17 38  1  0
 18 39  1  0
 18 40  1  0
 19 41  1  0
 19 42  1  0
 20 43  1  0
 20 44  1  0
 21 45  1  0
 21 46  1  0
 22 47  1  0
M  END
>  <UniqueID>  (24) 
22

>  <SMILES>  (24) 
COc1ccc(COc2ncccc2CN2CCCCC2)cc1Cl

>  <Energy>  (24) 
52.98874666563353

>  <Genealogy>  (24) 
COc1ccc(COc2ncccc2CN2CCCCC2)cc1Cl (3D coordinates assigned)
COc1ccc(COc2ncccc2CN2CCCCC2)cc1Cl (nonaromatic ring conformer: 52.98874666563353 kcal/mol)

>  <smiles>  (24) 
COc1ccc(COc2ncccc2CN2CCCCC2)cc1Cl

>  <score_type>  (24) 
oracle

>  <origin>  (24) 
adg

>  <m_score__min__energy>  (24) 
-8.0299999999999994

>  <m_primary>  (24) 
energy

$$$$
24:0
     RDKit          3D

 34 36  0  0  1  0  0  0  0  0999 V2000
   63.0460   32.9480   48.0710 Cl  0  0  0  0  0  0  0  0  0  0  0  0
   61.5040   32.7550   47.2780 C   0  0  0  0  0  0  0  0  0  0  0  0
   60.9290   31.4920   47.0900 C   0  0  0  0  0  0  0  0  0  0  0  0
   59.7000   31.3660   46.4560 C   0  0  0  0  0  0  0  0  0  0  0  0
   59.0180   32.4610   46.0000 C   0  0  0  0  0  0  0  0  0  0  0  0
   57.7910   32.2780   45.3700 C   0  0  0  0  0  0  0  0  0  0  0  0
   57.3600   31.0870   45.2520 N   0  0  0  0  0  0  0  0  0  0  0  0
   57.2250   30.4840   43.9540 C   0  0  0  0  0  0  0  0  0  0  0  0
   57.0170   28.9750   44.0580 C   0  0  0  0  0  0  0  0  0  0  0  0
   58.1690   28.3930   44.7860 C   0  0  0  0  0  0  0  0  0  0  0  0
   59.4200   28.9480   44.4760 C   0  0  0  0  0  0  0  0  0  0  0  0
   60.5650   28.4840   45.1080 C   0  0  0  0  0  0  0  0  0  0  0  0
   60.4280   27.4800   46.0330 C   0  0  0  0  0  0  0  0  0  0  0  0
   59.2270   26.9000   46.3750 C   0  0  0  0  0  0  0  0  0  0  0  0
   58.0930   27.3960   45.7130 C   0  0  0  0  0  0  0  0  0  0  0  0
   56.5730   26.6550   46.1290 Cl  0  0  0  0  0  0  0  0  0  0  0  0
   57.1730   33.3840   44.9450 N   0  0  0  0  0  0  0  0  0  0  0  0
   57.7080   34.5850   45.1190 C   0  0  0  0  0  0  0  0  0  0  0  0
   58.8940   34.8050   45.7230 N   0  0  0  0  0  0  0  0  0  0  0  0
   59.5680   33.7240   46.1750 C   0  0  0  0  0  0  0  0  0  0  0  0
   60.7960   33.8450   46.8080 C   0  0  0  0  0  0  0  0  0  0  0  0
   61.4543   30.5939   47.4469 H   0  0  0  0  0  0  0  0  0  0  0  0
   59.2657   30.3649   46.3175 H   0  0  0  0  0  0  0  0  0  0  0  0
   56.3601   30.9297   43.4408 H   0  0  0  0  0  0  0  0  0  0  0  0
   58.1514   30.6670   43.3899 H   0  0  0  0  0  0  0  0  0  0  0  0
   56.0867   28.7652   44.6062 H   0  0  0  0  0  0  0  0  0  0  0  0
   56.9429   28.5336   43.0532 H   0  0  0  0  0  0  0  0  0  0  0  0
   59.4932   29.7531   43.7300 H   0  0  0  0  0  0  0  0  0  0  0  0
   61.5526   28.9083   44.8744 H   0  0  0  0  0  0  0  0  0  0  0  0
   61.3367   27.1147   46.5339 H   0  0  0  0  0  0  0  0  0  0  0  0
   59.1602   26.0958   47.1225 H   0  0  0  0  0  0  0  0  0  0  0  0
   56.2640   33.2850   44.4780 H   0  0  0  0  0  0  0  0  0  0  0  0
   57.1494   35.4567   44.7474 H   0  0  0  0  0  0  0  0  0  0  0  0
   61.2240   34.8495   46.9415 H   0  0  0  0  0  0  0  0  0  0  0  0
  1  2  1  0
  2  3  2  0
  3  4  1  0
  4  5  2  0
  5  6  1  0
  6  7  2  0
  7  8  1  0
  8  9  1  0
  9 10  1  0
 10 11  2  0
 11 12  1  0
 12 13  2  0
 13 14  1  0
 14 15  2  0
 15 16  1  0
  6 17  1  0
 17 18  1  0
 18 19  2  0
 19 20  1  0
 20 21  2  0
 21  2  1  0
 20  5  1  0
 15 10  1  0
  3 22  1  0
  4 23  1  0
  8 24  1  0
  8 25  1  0
  9 26  1  0
  9 27  1  0
 11 28  1  0
 12 29  1  0
 13 30  1  0
 14 31  1  0
 17 32  1  0
 18 33  1  0
 21 34  1  0
M  END
>  <smiles>  (25) 
Clc1ccc2c(=NCCc3ccccc3Cl)[nH]cnc2c1

>  <score_type>  (25) 
oracle

>  <origin>  (25) 
adg

>  <m_score__min__energy>  (25) 
-7.4199999999999999

>  <m_primary>  (25) 
energy

$$$$
25:0
     RDKit          3D

 25 26  0  0  0  0  0  0  0  0999 V2000
   59.7720   28.1310   46.0820 C   0  0  0  0  0  0  0  0  0  0  0  0
   58.7220   27.0570   46.0760 C   0  0  0  0  0  0  0  0  0  0  0  0
   59.0880   25.7440   46.1200 N   0  0  0  0  0  0  0  0  0  0  0  0
   58.1550   24.7570   46.1340 C   0  0  0  0  0  0  0  0  0  0  0  0
   56.8340   25.0670   46.0990 N   0  0  0  0  0  0  0  0  0  0  0  0
   56.4150   26.3570   46.0610 C   0  0  0  0  0  0  0  0  0  0  0  0
   55.1810   26.5990   46.0010 O   0  0  0  0  0  0  0  0  0  0  0  0
   57.3610   27.4020   46.0700 C   0  0  0  0  0  0  0  0  0  0  0  0
   56.9960   28.7600   46.0410 O   0  0  0  0  0  0  0  0  0  0  0  0
   57.1110   29.6020   44.9280 C   0  0  0  0  0  0  0  0  0  0  0  0
   56.5490   29.1870   43.7150 C   0  0  0  0  0  0  0  0  0  0  0  0
   56.6330   30.0010   42.5820 C   0  0  0  0  0  0  0  0  0  0  0  0
   57.2920   31.2310   42.6510 C   0  0  0  0  0  0  0  0  0  0  0  0
   57.4080   32.3410   41.1010 Br  0  0  0  0  0  0  0  0  0  0  0  0
   57.8810   31.6410   43.8510 C   0  0  0  0  0  0  0  0  0  0  0  0
   57.8010   30.8320   44.9910 C   0  0  0  0  0  0  0  0  0  0  0  0
   58.7190   31.4010   46.5740 Br  0  0  0  0  0  0  0  0  0  0  0  0
   60.0254   28.3902   47.1205 H   0  0  0  0  0  0  0  0  0  0  0  0
   60.6720   27.7668   45.5649 H   0  0  0  0  0  0  0  0  0  0  0  0
   59.3876   29.0225   45.5649 H   0  0  0  0  0  0  0  0  0  0  0  0
   60.0980   25.4770   46.1440 H   0  0  0  0  0  0  0  0  0  0  0  0
   58.4707   23.7040   46.1738 H   0  0  0  0  0  0  0  0  0  0  0  0
   56.0383   28.2147   43.6532 H   0  0  0  0  0  0  0  0  0  0  0  0
   56.1798   29.6729   41.6349 H   0  0  0  0  0  0  0  0  0  0  0  0
   58.4100   32.6042   43.8997 H   0  0  0  0  0  0  0  0  0  0  0  0
  1  2  1  0
  2  3  1  0
  3  4  1  0
  4  5  2  0
  5  6  1  0
  6  7  2  0
  6  8  1  0
  8  9  1  0
  9 10  1  0
 10 11  2  0
 11 12  1  0
 12 13  2  0
 13 14  1  0
 13 15  1  0
 15 16  2  0
 16 17  1  0
  8  2  2  0
 16 10  1  0
  1 18  1  0
  1 19  1  0
  1 20  1  0
  3 21  1  0
  4 22  1  0
 11 23  1  0
 12 24  1  0
 15 25  1  0
M  END
>  <UniqueID>  (26) 
23

>  <SMILES>  (26) 
Cc1[nH]cnc(=O)c1Oc1ccc(Br)cc1Br

>  <Energy>  (26) 
36.15958177648183

>  <Genealogy>  (26) 
Cc1[nH]cnc(=O)c1Oc1ccc(Br)cc1Br (3D coordinates assigned)
Cc1[nH]cnc(=O)c1Oc1ccc(Br)cc1Br (optimized conformer: 36.15958177648183 kcal/mol)

>  <smiles>  (26) 
Cc1[nH]cnc(=O)c1Oc1ccc(Br)cc1Br

>  <score_type>  (26) 
oracle

>  <origin>  (26) 
adg

>  <m_score__min__energy>  (26) 
-6.6399999999999997

>  <m_primary>  (26) 
energy

$$$$
26:0
     RDKit          3D

 51 53  0  0  0  0  0  0  0  0999 V2000
   60.2478   34.9101   50.1563 H   0  0  0  0  0  0  0  0  0  0  0  0
   60.4740   34.3860   49.2160 C   0  0  0  0  0  0  0  0  0  0  0  0
   59.4600   34.1770   48.3630 C   0  0  0  0  0  0  0  0  0  0  0  0
   58.7087   33.4218   48.6373 H   0  0  0  0  0  0  0  0  0  0  0  0
   59.2760   34.9090   47.0460 C   0  0  0  0  0  0  0  0  0  0  0  0
   60.1874   35.4897   46.8407 H   0  0  0  0  0  0  0  0  0  0  0  0
   58.3876   35.5485   47.1541 H   0  0  0  0  0  0  0  0  0  0  0  0
   59.0250   34.0070   45.8940 N   0  0  0  0  0  0  0  0  0  0  0  0
   59.4790   34.4750   45.0730 H   0  0  0  0  0  0  0  0  0  0  0  0
   59.6870   32.6780   46.0350 C   0  0  0  0  0  0  0  0  0  0  0  0
   60.4029   32.7283   46.8687 H   0  0  0  0  0  0  0  0  0  0  0  0
   60.1874   32.4537   45.0815 H   0  0  0  0  0  0  0  0  0  0  0  0
   58.6870   31.5420   46.3130 C   0  0  0  0  0  0  0  0  0  0  0  0
   58.2014   31.7286   47.2822 H   0  0  0  0  0  0  0  0  0  0  0  0
   59.2481   30.5959   46.3179 H   0  0  0  0  0  0  0  0  0  0  0  0
   57.6380   31.4400   45.2660 N   0  0  0  0  0  0  0  0  0  0  0  0
   57.9690   30.4050   44.2640 C   0  0  0  0  0  0  0  0  0  0  0  0
   58.9748   30.6004   43.8638 H   0  0  0  0  0  0  0  0  0  0  0  0
   57.2198   30.4439   43.4595 H   0  0  0  0  0  0  0  0  0  0  0  0
   57.9420   29.0270   44.8800 C   0  0  0  0  0  0  0  0  0  0  0  0
   59.1450   28.3350   45.1010 C   0  0  0  0  0  0  0  0  0  0  0  0
   60.1032   28.8076   44.8393 H   0  0  0  0  0  0  0  0  0  0  0  0
   59.1320   27.0530   45.6500 C   0  0  0  0  0  0  0  0  0  0  0  0
   60.0787   26.5202   45.8232 H   0  0  0  0  0  0  0  0  0  0  0  0
   57.9200   26.4450   45.9800 C   0  0  0  0  0  0  0  0  0  0  0  0
   57.9129   25.4340   46.4133 H   0  0  0  0  0  0  0  0  0  0  0  0
   56.7160   27.1180   45.7610 C   0  0  0  0  0  0  0  0  0  0  0  0
   55.7638   26.6334   46.0226 H   0  0  0  0  0  0  0  0  0  0  0  0
   56.7130   28.4140   45.2070 C   0  0  0  0  0  0  0  0  0  0  0  0
   55.5200   29.1150   44.9660 O   0  0  0  0  0  0  0  0  0  0  0  0
   55.1750   29.7180   43.7230 C   0  0  0  0  0  0  0  0  0  0  0  0
   54.6366   30.6590   43.9089 H   0  0  0  0  0  0  0  0  0  0  0  0
   56.0905   29.9264   43.1499 H   0  0  0  0  0  0  0  0  0  0  0  0
   54.5314   29.0344   43.1499 H   0  0  0  0  0  0  0  0  0  0  0  0
   57.3140   32.7380   44.6220 C   0  0  0  0  0  0  0  0  0  0  0  0
   56.2506   32.7404   44.3406 H   0  0  0  0  0  0  0  0  0  0  0  0
   57.9572   32.8507   43.7368 H   0  0  0  0  0  0  0  0  0  0  0  0
   57.5820   33.9210   45.5600 C   0  0  0  0  0  0  0  0  0  0  0  0
   57.0041   33.7860   46.4862 H   0  0  0  0  0  0  0  0  0  0  0  0
   57.2794   34.8498   45.0543 H   0  0  0  0  0  0  0  0  0  0  0  0
   61.8690   33.9660   48.9880 C   0  0  0  0  0  0  0  0  0  0  0  0
   62.3670   33.7790   47.6870 C   0  0  0  0  0  0  0  0  0  0  0  0
   61.7221   33.9811   46.8191 H   0  0  0  0  0  0  0  0  0  0  0  0
   63.6790   33.3370   47.4920 C   0  0  0  0  0  0  0  0  0  0  0  0
   64.0701   33.2087   46.4719 H   0  0  0  0  0  0  0  0  0  0  0  0
   64.4940   33.0580   48.5930 C   0  0  0  0  0  0  0  0  0  0  0  0
   65.5282   32.7164   48.4390 H   0  0  0  0  0  0  0  0  0  0  0  0
   63.9950   33.2130   49.8900 C   0  0  0  0  0  0  0  0  0  0  0  0
   64.6348   32.9861   50.7555 H   0  0  0  0  0  0  0  0  0  0  0  0
   62.6840   33.6560   50.0880 C   0  0  0  0  0  0  0  0  0  0  0  0
   62.2897   33.7620   51.1094 H   0  0  0  0  0  0  0  0  0  0  0  0
  1  2  1  0
  2  3  2  0
  3  4  1  0
  3  5  1  0
  5  6  1  0
  5  7  1  0
  5  8  1  0
  8  9  1  0
  8 10  1  0
 10 11  1  0
 10 12  1  0
 10 13  1  0
 13 14  1  0
 13 15  1  0
 13 16  1  0
 16 17  1  0
 17 18  1  0
 17 19  1  0
 17 20  1  0
 20 21  2  0
 21 22  1  0
 21 23  1  0
 23 24  1  0
 23 25  2  0
 25 26  1  0
 25 27  1  0
 27 28  1  0
 27 29  2  0
 29 30  1  0
 30 31  1  0
 31 32  1  0
 31 33  1  0
 31 34  1  0
 16 35  1  0
 35 36  1  0
 35 37  1  0
 35 38  1  0
 38 39  1  0
 38 40  1  0
  2 41  1  0
 41 42  2  0
 42 43  1  0
 42 44  1  0
 44 45  1  0
 44 46  2  0
 46 47  1  0
 46 48  1  0
 48 49  1  0
 48 50  2  0
 50 51  1  0
 38  8  1  0
 50 41  1  0
 29 20  1  0
M  CHG  1   8   1
M  END
>  <UniqueID>  (27) 
24

>  <SMILES>  (27) 
COc1ccccc1CN1CC[NH+](C/C=C\c2ccccc2)CC1

>  <Energy>  (27) 
75.0485521925179

>  <Genealogy>  (27) 
COc1ccccc1CN1CC[NH+](CC=Cc2ccccc2)CC1 (protonated)
COc1ccccc1CN1CC[NH+](C/C=C\c2ccccc2)CC1 (cis-trans isomerization)
COc1ccccc1CN1CC[NH+](C/C=C\c2ccccc2)CC1 (3D coordinates assigned)
COc1ccccc1CN1CC[NH+](C/C=C\c2ccccc2)CC1 (nonaromatic ring conformer: 75.0485521925179 kcal/mol)

>  <smiles>  (27) 
COc1ccccc1CN1CCN(CC=Cc2ccccc2)CC1

>  <score_type>  (27) 
oracle

>  <origin>  (27) 
adg

>  <m_score__min__energy>  (27) 
-6.6799999999999997

>  <m_primary>  (27) 
energy

$$$$
27:0
     RDKit          3D

 43 45  0  0  0  0  0  0  0  0999 V2000
   58.1510   24.6560   45.2690 C   0  0  0  0  0  0  0  0  0  0  0  0
   56.8350   24.7550   46.0490 C   0  0  0  0  0  0  0  0  0  0  0  0
   57.0390   24.3230   47.5060 C   0  0  0  0  0  0  0  0  0  0  0  0
   56.2930   26.1630   45.9900 C   0  0  0  0  0  0  0  0  0  0  0  0
   55.0430   26.3400   45.9980 O   0  0  0  0  0  0  0  0  0  0  0  0
   57.1710   27.3430   45.8530 C   0  0  0  0  0  0  0  0  0  0  0  0
   57.0270   28.3290   44.8830 C   0  0  0  0  0  0  0  0  0  0  0  0
   57.9940   29.2650   45.0080 N   0  0  0  0  0  0  0  0  0  0  0  0
   58.1420   30.4630   44.1760 C   0  0  0  0  0  0  0  0  0  0  0  0
   57.0040   31.4240   44.4080 C   0  0  0  0  0  0  0  0  0  0  0  0
   55.8330   30.9770   44.5210 O   0  0  0  0  0  0  0  0  0  0  0  0
   57.2350   32.8160   44.6610 N   0  0  0  0  0  0  0  0  0  0  0  0
   58.0440   33.3560   45.7140 C   0  0  0  0  0  0  0  0  0  0  0  0
   58.1090   32.7400   46.9730 C   0  0  0  0  0  0  0  0  0  0  0  0
   58.9320   33.2670   47.9740 C   0  0  0  0  0  0  0  0  0  0  0  0
   59.7080   34.4000   47.7160 C   0  0  0  0  0  0  0  0  0  0  0  0
   60.5090   34.9090   48.6840 F   0  0  0  0  0  0  0  0  0  0  0  0
   59.6710   35.0000   46.4530 C   0  0  0  0  0  0  0  0  0  0  0  0
   58.8490   34.4730   45.4520 C   0  0  0  0  0  0  0  0  0  0  0  0
   58.7480   28.8920   46.0640 C   0  0  0  0  0  0  0  0  0  0  0  0
   59.8550   29.5560   46.6030 C   0  0  0  0  0  0  0  0  0  0  0  0
   60.4660   29.0060   47.7420 C   0  0  0  0  0  0  0  0  0  0  0  0
   59.9610   27.8250   48.3220 C   0  0  0  0  0  0  0  0  0  0  0  0
   58.8480   27.1740   47.7640 C   0  0  0  0  0  0  0  0  0  0  0  0
   58.2710   27.7230   46.6130 C   0  0  0  0  0  0  0  0  0  0  0  0
   58.9920   24.5927   45.9753 H   0  0  0  0  0  0  0  0  0  0  0  0
   58.1353   23.7565   44.6360 H   0  0  0  0  0  0  0  0  0  0  0  0
   58.2700   25.5477   44.6360 H   0  0  0  0  0  0  0  0  0  0  0  0
   56.1039   24.0774   45.5839 H   0  0  0  0  0  0  0  0  0  0  0  0
   56.6670   25.1108   48.1775 H   0  0  0  0  0  0  0  0  0  0  0  0
   56.4860   23.3906   47.6929 H   0  0  0  0  0  0  0  0  0  0  0  0
   58.1103   24.1577   47.6929 H   0  0  0  0  0  0  0  0  0  0  0  0
   56.2354   28.3450   44.1194 H   0  0  0  0  0  0  0  0  0  0  0  0
   59.0903   30.9607   44.4270 H   0  0  0  0  0  0  0  0  0  0  0  0
   58.1351   30.1593   43.1188 H   0  0  0  0  0  0  0  0  0  0  0  0
   57.5105   31.8392   47.1737 H   0  0  0  0  0  0  0  0  0  0  0  0
   58.9682   32.7894   48.9643 H   0  0  0  0  0  0  0  0  0  0  0  0
   60.2887   35.8866   46.2471 H   0  0  0  0  0  0  0  0  0  0  0  0
   58.8341   34.9370   44.4548 H   0  0  0  0  0  0  0  0  0  0  0  0
   60.2360   30.4822   46.1480 H   0  0  0  0  0  0  0  0  0  0  0  0
   61.3439   29.5000   48.1839 H   0  0  0  0  0  0  0  0  0  0  0  0
   60.4425   27.4093   49.2194 H   0  0  0  0  0  0  0  0  0  0  0  0
   58.4415   26.2587   48.2189 H   0  0  0  0  0  0  0  0  0  0  0  0
  1  2  1  0
  2  3  1  0
  2  4  1  0
  4  5  2  0
  4  6  1  0
  6  7  2  0
  7  8  1  0
  8  9  1  0
  9 10  1  0
 10 11  2  0
 10 12  1  0
 12 13  1  0
 13 14  2  0
 14 15  1  0
 15 16  2  0
 16 17  1  0
 16 18  1  0
 18 19  2  0
  8 20  1  0
 20 21  2  0
 21 22  1  0
 22 23  2  0
 23 24  1  0
 24 25  2  0
 25  6  1  0
 19 13  1  0
 25 20  1  0
  1 26  1  0
  1 27  1  0
  1 28  1  0
  2 29  1  0
  3 30  1  0
  3 31  1  0
  3 32  1  0
  7 33  1  0
  9 34  1  0
  9 35  1  0
 14 36  1  0
 15 37  1  0
 18 38  1  0
 19 39  1  0
 21 40  1  0
 22 41  1  0
 23 42  1  0
 24 43  1  0
M  CHG  1  12  -1
M  END
>  <UniqueID>  (28) 
25

>  <SMILES>  (28) 
CC(C)C(=O)c1cn(CC(=O)[N-]c2ccc(F)cc2)c2ccccc12

>  <Energy>  (28) 
82.32173330116701

>  <Genealogy>  (28) 
CC(C)C(=O)c1cn(CC(=O)[N-]c2ccc(F)cc2)c2ccccc12 (protonated)
CC(C)C(=O)c1cn(CC(=O)[N-]c2ccc(F)cc2)c2ccccc12 (3D coordinates assigned)
CC(C)C(=O)c1cn(CC(=O)[N-]c2ccc(F)cc2)c2ccccc12 (optimized conformer: 82.32173330116701 kcal/mol)

>  <smiles>  (28) 
CC(C)C(=O)c1cn(CC(=O)Nc2ccc(F)cc2)c2ccccc12

>  <score_type>  (28) 
oracle

>  <origin>  (28) 
adg

>  <m_score__min__energy>  (28) 
-9.6400000000000006

>  <m_primary>  (28) 
energy

$$$$
28:0
     RDKit          3D

 36 39  0  0  0  0  0  0  0  0999 V2000
   55.1440   29.3230   44.8710 F   0  0  0  0  0  0  0  0  0  0  0  0
   55.5430   29.7500   43.6180 C   0  0  0  0  0  0  0  0  0  0  0  0
   57.0520   29.9850   43.6010 C   0  0  0  0  0  0  0  0  0  0  0  0
   57.5240   30.4850   44.9020 N   0  0  0  0  0  0  0  0  0  0  0  0
   58.0040   29.7690   45.9660 C   0  0  0  0  0  0  0  0  0  0  0  0
   58.6210   30.6080   46.8760 C   0  0  0  0  0  0  0  0  0  0  0  0
   58.4750   31.8860   46.3960 C   0  0  0  0  0  0  0  0  0  0  0  0
   58.9330   33.1040   46.8960 C   0  0  0  0  0  0  0  0  0  0  0  0
   58.6880   34.2590   46.1370 C   0  0  0  0  0  0  0  0  0  0  0  0
   58.0150   34.1700   44.9010 C   0  0  0  0  0  0  0  0  0  0  0  0
   57.5770   32.9260   44.4130 C   0  0  0  0  0  0  0  0  0  0  0  0
   57.8140   31.7830   45.1930 C   0  0  0  0  0  0  0  0  0  0  0  0
   59.4060   30.1150   48.0530 C   0  0  0  0  0  0  0  0  0  0  0  0
   60.0860   28.7810   47.6900 C   0  0  0  0  0  0  0  0  0  0  0  0
   59.1250   27.8140   47.0160 C   0  0  0  0  0  0  0  0  0  0  0  0
   59.2760   26.4340   47.2180 C   0  0  0  0  0  0  0  0  0  0  0  0
   58.3860   25.5350   46.6280 C   0  0  0  0  0  0  0  0  0  0  0  0
   57.3310   26.0070   45.8480 C   0  0  0  0  0  0  0  0  0  0  0  0
   57.1790   27.3780   45.6230 C   0  0  0  0  0  0  0  0  0  0  0  0
   58.1090   28.2930   46.1480 C   0  0  0  0  0  0  0  0  0  0  0  0
   55.2856   28.9828   42.8729 H   0  0  0  0  0  0  0  0  0  0  0  0
   55.0286   30.6921   43.3773 H   0  0  0  0  0  0  0  0  0  0  0  0
   57.5609   29.0365   43.3743 H   0  0  0  0  0  0  0  0  0  0  0  0
   57.2800   30.7387   42.8330 H   0  0  0  0  0  0  0  0  0  0  0  0
   59.4693   33.1582   47.8549 H   0  0  0  0  0  0  0  0  0  0  0  0
   59.0228   35.2388   46.5083 H   0  0  0  0  0  0  0  0  0  0  0  0
   57.8310   35.0816   44.3135 H   0  0  0  0  0  0  0  0  0  0  0  0
   57.0615   32.8503   43.4442 H   0  0  0  0  0  0  0  0  0  0  0  0
   60.1726   30.8573   48.3201 H   0  0  0  0  0  0  0  0  0  0  0  0
   58.7310   29.9634   48.9082 H   0  0  0  0  0  0  0  0  0  0  0  0
   60.9229   28.9841   47.0057 H   0  0  0  0  0  0  0  0  0  0  0  0
   60.4371   28.3150   48.6225 H   0  0  0  0  0  0  0  0  0  0  0  0
   60.0991   26.0589   47.8439 H   0  0  0  0  0  0  0  0  0  0  0  0
   58.5170   24.4533   46.7785 H   0  0  0  0  0  0  0  0  0  0  0  0
   56.6152   25.2972   45.4078 H   0  0  0  0  0  0  0  0  0  0  0  0
   56.3266   27.7436   45.0316 H   0  0  0  0  0  0  0  0  0  0  0  0
  1  2  1  0
  2  3  1  0
  3  4  1  0
  4  5  1  0
  5  6  2  0
  6  7  1  0
  7  8  2  0
  8  9  1  0
  9 10  2  0
 10 11  1  0
 11 12  2  0
  6 13  1  0
 13 14  1  0
 14 15  1  0
 15 16  2  0
 16 17  1  0
 17 18  2  0
 18 19  1  0
 19 20  2  0
 12  4  1  0
 20 15  1  0
 20  5  1  0
 12  7  1  0
  2 21  1  0
  2 22  1  0
  3 23  1  0
  3 24  1  0
  8 25  1  0
  9 26  1  0
 10 27  1  0
 11 28  1  0
 13 29  1  0
 13 30  1  0
 14 31  1  0
 14 32  1  0
 16 33  1  0
 17 34  1  0
 18 35  1  0
 19 36  1  0
M  END
>  <UniqueID>  (29) 
26

>  <SMILES>  (29) 
FCCn1c2c(c3ccccc31)CCc1ccccc1-2

>  <Energy>  (29) 
84.48480982109598

>  <Genealogy>  (29) 
FCCn1c2c(c3ccccc31)CCc1ccccc1-2 (3D coordinates assigned)
FCCn1c2c(c3ccccc31)CCc1ccccc1-2 (nonaromatic ring conformer: 84.48480982109598 kcal/mol)

>  <smiles>  (29) 
FCCn1c2c(c3ccccc31)CCc1ccccc1-2

>  <score_type>  (29) 
oracle

>  <origin>  (29) 
adg

>  <m_score__min__energy>  (29) 
-7.5499999999999998

>  <m_primary>  (29) 
energy

$$$$
29:0
     RDKit          3D

 36 38  0  0  0  0  0  0  0  0999 V2000
   59.5070   34.2480   55.2700 C   0  0  0  0  0  0  0  0  0  0  0  0
   58.8310   33.4060   54.2290 C   0  0  0  0  0  0  0  0  0  0  0  0
   58.5920   33.9210   52.9470 C   0  0  0  0  0  0  0  0  0  0  0  0
   57.9270   33.1500   51.9890 C   0  0  0  0  0  0  0  0  0  0  0  0
   57.4830   31.8570   52.3040 C   0  0  0  0  0  0  0  0  0  0  0  0
   56.7390   31.0320   51.2890 C   0  0  0  0  0  0  0  0  0  0  0  0
   55.7850   30.1510   51.9590 N   0  0  0  0  0  0  0  0  0  0  0  0
   56.1400   29.0760   52.6550 N   0  0  0  0  0  0  0  0  0  0  0  0
   55.0210   28.5390   53.1980 C   0  0  0  0  0  0  0  0  0  0  0  0
   55.0120   27.3480   54.0960 C   0  0  0  0  0  0  0  0  0  0  0  0
   53.9390   29.3210   52.8500 C   0  0  0  0  0  0  0  0  0  0  0  0
   52.5860   29.2470   53.1650 C   0  0  0  0  0  0  0  0  0  0  0  0
   51.7400   30.2450   52.6490 C   0  0  0  0  0  0  0  0  0  0  0  0
   52.2580   31.2930   51.8380 C   0  0  0  0  0  0  0  0  0  0  0  0
   51.3620   32.3410   51.3020 C   0  0  0  0  0  0  0  0  0  0  0  0
   51.4040   32.6570   50.0840 O   0  0  0  0  0  0  0  0  0  0  0  0
   50.4590   32.9890   52.1370 O   0  0  0  0  0  0  0  0  0  0  0  0
   53.6420   31.3290   51.5460 C   0  0  0  0  0  0  0  0  0  0  0  0
   54.4520   30.3210   52.0730 C   0  0  0  0  0  0  0  0  0  0  0  0
   57.7040   31.3490   53.5940 C   0  0  0  0  0  0  0  0  0  0  0  0
   58.3690   32.1200   54.5520 C   0  0  0  0  0  0  0  0  0  0  0  0
   59.2216   33.8925   56.2711 H   0  0  0  0  0  0  0  0  0  0  0  0
   60.5979   34.1722   55.1512 H   0  0  0  0  0  0  0  0  0  0  0  0
   59.1972   35.2968   55.1512 H   0  0  0  0  0  0  0  0  0  0  0  0
   58.9295   34.9369   52.6937 H   0  0  0  0  0  0  0  0  0  0  0  0
   57.7510   33.5592   50.9832 H   0  0  0  0  0  0  0  0  0  0  0  0
   56.1974   31.7004   50.6035 H   0  0  0  0  0  0  0  0  0  0  0  0
   57.4588   30.4205   50.7251 H   0  0  0  0  0  0  0  0  0  0  0  0
   55.0145   27.6796   55.1448 H   0  0  0  0  0  0  0  0  0  0  0  0
   54.1093   26.7498   53.9027 H   0  0  0  0  0  0  0  0  0  0  0  0
   55.9055   26.7363   53.9027 H   0  0  0  0  0  0  0  0  0  0  0  0
   52.1917   28.4364   53.7955 H   0  0  0  0  0  0  0  0  0  0  0  0
   50.6640   30.2149   52.8753 H   0  0  0  0  0  0  0  0  0  0  0  0
   54.0678   32.1283   50.9216 H   0  0  0  0  0  0  0  0  0  0  0  0
   57.3522   30.3393   53.8522 H   0  0  0  0  0  0  0  0  0  0  0  0
   58.5310   31.7176   55.5629 H   0  0  0  0  0  0  0  0  0  0  0  0
  1  2  1  0
  2  3  2  0
  3  4  1  0
  4  5  2  0
  5  6  1  0
  6  7  1  0
  7  8  1  0
  8  9  2  0
  9 10  1  0
  9 11  1  0
 11 12  2  0
 12 13  1  0
 13 14  2  0
 14 15  1  0
 15 16  2  0
 15 17  1  0
 14 18  1  0
 18 19  2  0
  5 20  1  0
 20 21  2  0
 21  2  1  0
 19  7  1  0
 19 11  1  0
  1 22  1  0
  1 23  1  0
  1 24  1  0
  3 25  1  0
  4 26  1  0
  6 27  1  0
  6 28  1  0
 10 29  1  0
 10 30  1  0
 10 31  1  0
 12 32  1  0
 13 33  1  0
 18 34  1  0
 20 35  1  0
 21 36  1  0
M  CHG  1  17  -1
M  END
>  <UniqueID>  (30) 
27

>  <SMILES>  (30) 
Cc1ccc(Cn2nc(C)c3ccc(C(=O)[O-])cc32)cc1

>  <Energy>  (30) 
74.06933877481111

>  <Genealogy>  (30) 
Cc1ccc(Cn2nc(C)c3ccc(C(=O)[O-])cc32)cc1 (protonated)
Cc1ccc(Cn2nc(C)c3ccc(C(=O)[O-])cc32)cc1 (3D coordinates assigned)
Cc1ccc(Cn2nc(C)c3ccc(C(=O)[O-])cc32)cc1 (optimized conformer: 74.06933877481111 kcal/mol)

>  <smiles>  (30) 
Cc1ccc(Cn2nc(C)c3ccc(C(=O)O)cc32)cc1

>  <score_type>  (30) 
oracle

>  <origin>  (30) 
adg

>  <m_score__min__energy>  (30) 
-10.529999999999999

>  <m_primary>  (30) 
energy

$$$$
30:0
     RDKit          3D

 30 32  0  0  0  0  0  0  0  0999 V2000
   64.8040   33.4490   50.0720 C   0  0  0  0  0  0  0  0  0  0  0  0
   63.5280   33.3870   49.2880 C   0  0  0  0  0  0  0  0  0  0  0  0
   62.4550   34.2300   49.6020 C   0  0  0  0  0  0  0  0  0  0  0  0
   61.2850   34.1890   48.8410 C   0  0  0  0  0  0  0  0  0  0  0  0
   61.1980   33.3080   47.7520 C   0  0  0  0  0  0  0  0  0  0  0  0
   59.9830   33.2260   46.9160 C   0  0  0  0  0  0  0  0  0  0  0  0
   58.9450   34.1360   46.8140 C   0  0  0  0  0  0  0  0  0  0  0  0
   58.0340   33.6730   45.9360 N   0  0  0  0  0  0  0  0  0  0  0  0
   58.4600   32.5040   45.4820 N   0  0  0  0  0  0  0  0  0  0  0  0
   57.7220   31.7260   44.5200 C   0  0  0  0  0  0  0  0  0  0  0  0
   57.7810   31.9970   43.1400 C   0  0  0  0  0  0  0  0  0  0  0  0
   57.0450   31.2090   42.2530 C   0  0  0  0  0  0  0  0  0  0  0  0
   56.2600   30.1630   42.7370 C   0  0  0  0  0  0  0  0  0  0  0  0
   56.2220   29.9190   44.1090 C   0  0  0  0  0  0  0  0  0  0  0  0
   56.9440   30.6950   44.9590 N   0  0  0  0  0  0  0  0  0  0  0  0
   59.6430   32.2000   46.0560 C   0  0  0  0  0  0  0  0  0  0  0  0
   62.2630   32.5110   47.4550 N   0  0  0  0  0  0  0  0  0  0  0  0
   63.4110   32.5330   48.1830 C   0  0  0  0  0  0  0  0  0  0  0  0
   64.5743   33.4378   51.1477 H   0  0  0  0  0  0  0  0  0  0  0  0
   65.4306   32.5802   49.8218 H   0  0  0  0  0  0  0  0  0  0  0  0
   65.3435   34.3744   49.8218 H   0  0  0  0  0  0  0  0  0  0  0  0
   62.5339   34.9261   50.4501 H   0  0  0  0  0  0  0  0  0  0  0  0
   60.4372   34.8428   49.0933 H   0  0  0  0  0  0  0  0  0  0  0  0
   58.8750   35.0867   47.3629 H   0  0  0  0  0  0  0  0  0  0  0  0
   58.4021   32.8231   42.7634 H   0  0  0  0  0  0  0  0  0  0  0  0
   57.0844   31.4132   41.1728 H   0  0  0  0  0  0  0  0  0  0  0  0
   55.6776   29.5377   42.0443 H   0  0  0  0  0  0  0  0  0  0  0  0
   55.6067   29.0972   44.5039 H   0  0  0  0  0  0  0  0  0  0  0  0
   60.2347   31.2914   45.8708 H   0  0  0  0  0  0  0  0  0  0  0  0
   64.2502   31.8788   47.9040 H   0  0  0  0  0  0  0  0  0  0  0  0
  1  2  1  0
  2  3  2  0
  3  4  1  0
  4  5  2  0
  5  6  1  0
  6  7  1  0
  7  8  2  0
  8  9  1  0
  9 10  1  0
 10 11  2  0
 11 12  1  0
 12 13  2  0
 13 14  1  0
 14 15  2  0
  9 16  1  0
  5 17  1  0
 17 18  2  0
 18  2  1  0
 16  6  2  0
 15 10  1  0
  1 19  1  0
  1 20  1  0
  1 21  1  0
  3 22  1  0
  4 23  1  0
  7 24  1  0
 11 25  1  0
 12 26  1  0
 13 27  1  0
 14 28  1  0
 16 29  1  0
 18 30  1  0
M  END
>  <UniqueID>  (31) 
28

>  <SMILES>  (31) 
Cc1ccc(-c2cnn(-c3ccccn3)c2)nc1

>  <Energy>  (31) 
65.72772844256546

>  <Genealogy>  (31) 
Cc1ccc(-c2cnn(-c3ccccn3)c2)nc1 (3D coordinates assigned)
Cc1ccc(-c2cnn(-c3ccccn3)c2)nc1 (optimized conformer: 65.72772844256546 kcal/mol)

>  <smiles>  (31) 
Cc1ccc(-c2cnn(-c3ccccn3)c2)nc1

>  <score_type>  (31) 
oracle

>  <origin>  (31) 
adg

>  <m_score__min__energy>  (31) 
-6.8499999999999996

>  <m_primary>  (31) 
energy

$$$$
31:0
     RDKit          3D

 20 22  0  0  0  0  0  0  0  0999 V2000
   55.1430   25.9990   45.9970 N   0  0  0  0  0  0  0  0  0  0  0  0
   56.2680   26.2640   46.0600 C   0  0  0  0  0  0  0  0  0  0  0  0
   57.6670   26.5940   46.1380 C   0  0  0  0  0  0  0  0  0  0  0  0
   58.5390   25.7170   46.7100 N   0  0  0  0  0  0  0  0  0  0  0  0
   59.8470   25.9980   46.7950 N   0  0  0  0  0  0  0  0  0  0  0  0
   60.3590   27.1680   46.3160 C   0  0  0  0  0  0  0  0  0  0  0  0
   59.4750   28.0660   45.7320 C   0  0  0  0  0  0  0  0  0  0  0  0
   59.7500   29.3130   45.1750 C   0  0  0  0  0  0  0  0  0  0  0  0
   58.5140   29.7720   44.7440 C   0  0  0  0  0  0  0  0  0  0  0  0
   58.1450   30.9530   44.1110 C   0  0  0  0  0  0  0  0  0  0  0  0
   56.7850   31.1220   43.7980 C   0  0  0  0  0  0  0  0  0  0  0  0
   55.8540   30.1110   44.1300 C   0  0  0  0  0  0  0  0  0  0  0  0
   56.2640   28.9650   44.7530 N   0  0  0  0  0  0  0  0  0  0  0  0
   57.5800   28.8140   45.0490 C   0  0  0  0  0  0  0  0  0  0  0  0
   58.1620   27.7650   45.6550 N   0  0  0  0  0  0  0  0  0  0  0  0
   61.4334   27.3922   46.3896 H   0  0  0  0  0  0  0  0  0  0  0  0
   60.7240   29.8179   45.0953 H   0  0  0  0  0  0  0  0  0  0  0  0
   58.8883   31.7255   43.8645 H   0  0  0  0  0  0  0  0  0  0  0  0
   56.4455   32.0397   43.2954 H   0  0  0  0  0  0  0  0  0  0  0  0
   54.7904   30.2476   43.8849 H   0  0  0  0  0  0  0  0  0  0  0  0
  1  2  3  0
  2  3  1  0
  3  4  2  0
  4  5  1  0
  5  6  2  0
  6  7  1  0
  7  8  2  0
  8  9  1  0
  9 10  2  0
 10 11  1  0
 11 12  2  0
 12 13  1  0
 13 14  2  0
 14 15  1  0
 15  3  1  0
 15  7  1  0
 14  9  1  0
  6 16  1  0
  8 17  1  0
 10 18  1  0
 11 19  1  0
 12 20  1  0
M  END
>  <UniqueID>  (32) 
29

>  <SMILES>  (32) 
N#Cc1nncc2cc3cccnc3n12

>  <Energy>  (32) 
66.79814664909236

>  <Genealogy>  (32) 
N#Cc1nncc2cc3cccnc3n12 (3D coordinates assigned)
N#Cc1nncc2cc3cccnc3n12 (optimized conformer: 66.79814664909236 kcal/mol)

>  <smiles>  (32) 
N#Cc1nncc2cc3cccnc3n12

>  <score_type>  (32) 
oracle

>  <origin>  (32) 
adg

>  <m_score__min__energy>  (32) 
-5.7199999999999998

>  <m_primary>  (32) 
energy

$$$$
32:0
     RDKit          3D

 33 35  0  0  0  0  0  0  0  0999 V2000
   59.5100   35.3180   46.2980 C   0  0  0  0  0  0  0  0  0  0  0  0
   59.5220   34.4000   47.3860 O   0  0  0  0  0  0  0  0  0  0  0  0
   60.6310   33.6270   47.7680 C   0  0  0  0  0  0  0  0  0  0  0  0
   61.7030   34.1820   48.4960 C   0  0  0  0  0  0  0  0  0  0  0  0
   62.8080   33.3990   48.8360 C   0  0  0  0  0  0  0  0  0  0  0  0
   62.8600   32.0590   48.4550 C   0  0  0  0  0  0  0  0  0  0  0  0
   61.8040   31.4930   47.7400 C   0  0  0  0  0  0  0  0  0  0  0  0
   60.6790   32.2640   47.3970 C   0  0  0  0  0  0  0  0  0  0  0  0
   59.5650   31.6330   46.6480 C   0  0  0  0  0  0  0  0  0  0  0  0
   58.8030   30.6120   47.2310 C   0  0  0  0  0  0  0  0  0  0  0  0
   57.7580   30.0090   46.5270 C   0  0  0  0  0  0  0  0  0  0  0  0
   57.4500   30.4120   45.2120 C   0  0  0  0  0  0  0  0  0  0  0  0
   56.3950   29.8270   44.4590 C   0  0  0  0  0  0  0  0  0  0  0  0
   55.5710   28.8110   44.9540 O   0  0  0  0  0  0  0  0  0  0  0  0
   56.1460   30.2730   43.1560 C   0  0  0  0  0  0  0  0  0  0  0  0
   56.9180   31.2830   42.5850 C   0  0  0  0  0  0  0  0  0  0  0  0
   57.9540   31.8670   43.3100 C   0  0  0  0  0  0  0  0  0  0  0  0
   58.2290   31.4420   44.6180 C   0  0  0  0  0  0  0  0  0  0  0  0
   59.2770   32.0380   45.3380 C   0  0  0  0  0  0  0  0  0  0  0  0
   59.4965   36.3470   46.6866 H   0  0  0  0  0  0  0  0  0  0  0  0
   60.4102   35.1699   45.6834 H   0  0  0  0  0  0  0  0  0  0  0  0
   58.6140   35.1464   45.6834 H   0  0  0  0  0  0  0  0  0  0  0  0
   61.6688   35.2391   48.7983 H   0  0  0  0  0  0  0  0  0  0  0  0
   63.6391   33.8404   49.4056 H   0  0  0  0  0  0  0  0  0  0  0  0
   63.7351   31.4468   48.7185 H   0  0  0  0  0  0  0  0  0  0  0  0
   61.8518   30.4352   47.4422 H   0  0  0  0  0  0  0  0  0  0  0  0
   59.0303   30.2813   48.2552 H   0  0  0  0  0  0  0  0  0  0  0  0
   57.1694   29.2114   47.0038 H   0  0  0  0  0  0  0  0  0  0  0  0
   54.7520   28.9630   45.5240 H   0  0  0  0  0  0  0  0  0  0  0  0
   55.3295   29.8200   42.5745 H   0  0  0  0  0  0  0  0  0  0  0  0
   56.7086   31.6199   41.5590 H   0  0  0  0  0  0  0  0  0  0  0  0
   58.5591   32.6649   42.8548 H   0  0  0  0  0  0  0  0  0  0  0  0
   59.8779   32.8309   44.8688 H   0  0  0  0  0  0  0  0  0  0  0  0
  1  2  1  0
  2  3  1  0
  3  4  2  0
  4  5  1  0
  5  6  2  0
  6  7  1  0
  7  8  2  0
  8  9  1  0
  9 10  2  0
 10 11  1  0
 11 12  2  0
 12 13  1  0
 13 14  1  0
 13 15  2  0
 15 16  1  0
 16 17  2  0
 17 18  1  0
 18 19  2  0
  8  3  1  0
 19  9  1  0
 18 12  1  0
  1 20  1  0
  1 21  1  0
  1 22  1  0
  4 23  1  0
  5 24  1  0
  6 25  1  0
  7 26  1  0
 10 27  1  0
 11 28  1  0
 14 29  1  0
 15 30  1  0
 16 31  1  0
 17 32  1  0
 19 33  1  0
M  END
>  <UniqueID>  (33) 
30

>  <SMILES>  (33) 
COc1ccccc1-c1ccc2c(O)cccc2c1

>  <Energy>  (33) 
47.75705437148588

>  <Genealogy>  (33) 
COc1ccccc1-c1ccc2c(O)cccc2c1 (3D coordinates assigned)
COc1ccccc1-c1ccc2c(O)cccc2c1 (optimized conformer: 47.75705437148588 kcal/mol)

>  <smiles>  (33) 
COc1ccccc1-c1ccc2c(O)cccc2c1

>  <score_type>  (33) 
oracle

>  <origin>  (33) 
adg

>  <m_score__min__energy>  (33) 
-7.3200000000000003

>  <m_primary>  (33) 
energy

$$$$
33:0
     RDKit          3D

 23 24  0  0  0  0  0  0  0  0999 V2000
   59.4050   28.6840   44.6520 C   0  0  0  0  0  0  0  0  0  0  0  0
   58.2510   28.1820   44.2030 C   0  0  0  0  0  0  0  0  0  0  0  0
   56.9370   28.8540   44.4830 C   0  0  0  0  0  0  0  0  0  0  0  0
   56.5300   30.0780   43.1890 S   0  0  0  0  0  0  0  0  0  0  0  0
   57.3510   31.4390   44.0180 C   0  0  0  0  0  0  0  0  0  0  0  0
   57.4240   31.5610   45.3650 N   0  0  0  0  0  0  0  0  0  0  0  0
   58.0960   32.6840   45.7260 C   0  0  0  0  0  0  0  0  0  0  0  0
   58.3320   33.0850   47.0430 C   0  0  0  0  0  0  0  0  0  0  0  0
   59.0440   34.2770   47.2680 C   0  0  0  0  0  0  0  0  0  0  0  0
   59.5090   35.0460   46.1840 C   0  0  0  0  0  0  0  0  0  0  0  0
   59.2660   34.6330   44.8640 C   0  0  0  0  0  0  0  0  0  0  0  0
   58.5590   33.4510   44.6660 C   0  0  0  0  0  0  0  0  0  0  0  0
   58.1220   32.7160   43.2190 S   0  0  0  0  0  0  0  0  0  0  0  0
   60.3517   28.1694   44.4309 H   0  0  0  0  0  0  0  0  0  0  0  0
   59.4083   29.6119   45.2428 H   0  0  0  0  0  0  0  0  0  0  0  0
   58.2635   27.2534   43.6135 H   0  0  0  0  0  0  0  0  0  0  0  0
   56.1446   28.0918   44.5175 H   0  0  0  0  0  0  0  0  0  0  0  0
   57.0133   29.3790   45.4466 H   0  0  0  0  0  0  0  0  0  0  0  0
   57.0110   30.8770   46.0370 H   0  0  0  0  0  0  0  0  0  0  0  0
   57.9684   32.4808   47.8872 H   0  0  0  0  0  0  0  0  0  0  0  0
   59.2389   34.6107   48.2979 H   0  0  0  0  0  0  0  0  0  0  0  0
   60.0659   35.9757   46.3722 H   0  0  0  0  0  0  0  0  0  0  0  0
   59.6245   35.2272   44.0105 H   0  0  0  0  0  0  0  0  0  0  0  0
  1  2  2  0
  2  3  1  0
  3  4  1  0
  4  5  1  0
  5  6  2  0
  6  7  1  0
  7  8  2  0
  8  9  1  0
  9 10  2  0
 10 11  1  0
 11 12  2  0
 12 13  1  0
 13  5  1  0
 12  7  1  0
  1 14  1  0
  1 15  1  0
  2 16  1  0
  3 17  1  0
  3 18  1  0
  6 19  1  0
  8 20  1  0
  9 21  1  0
 10 22  1  0
 11 23  1  0
M  CHG  1   6   1
M  END
>  <UniqueID>  (34) 
31

>  <SMILES>  (34) 
C=CCSc1[nH+]c2ccccc2s1

>  <Energy>  (34) 
50.50777952985874

>  <Genealogy>  (34) 
C=CCSc1[nH+]c2ccccc2s1 (protonated)
C=CCSc1[nH+]c2ccccc2s1 (3D coordinates assigned)
C=CCSc1[nH+]c2ccccc2s1 (optimized conformer: 50.50777952985874 kcal/mol)

>  <smiles>  (34) 
C=CCSc1nc2ccccc2s1

>  <score_type>  (34) 
oracle

>  <origin>  (34) 
adg

>  <m_score__min__energy>  (34) 
-4.4800000000000004

>  <m_primary>  (34) 
energy

$$$$
34:0
     RDKit          3D

 52 57  0  0  0  0  0  0  0  0999 V2000
   62.1420   33.3920   46.7780 C   0  0  0  0  0  0  0  0  0  0  0  0
   62.0160   32.2950   47.5320 C   0  0  0  0  0  0  0  0  0  0  0  0
   61.1400   31.1400   47.1160 C   0  0  0  0  0  0  0  0  0  0  0  0
   59.6920   31.2170   47.6790 C   0  0  2  0  0  0  0  0  0  0  0  0
   59.6800   31.7920   49.1260 C   0  0  0  0  0  0  0  0  0  0  0  0
   59.6750   30.5770   50.0430 C   0  0  0  0  0  0  0  0  0  0  0  0
   59.2510   29.4820   49.2030 N   0  0  0  0  0  0  0  0  0  0  0  0
   59.2220   29.8100   47.9550 C   0  0  0  0  0  0  0  0  0  0  0  0
   59.0210   28.7740   46.9340 C   0  0  0  0  0  0  0  0  0  0  0  0
   59.1790   27.4120   47.1200 C   0  0  0  0  0  0  0  0  0  0  0  0
   58.9190   26.7670   45.9670 N   0  0  0  0  0  0  0  0  0  0  0  0
   58.8880   25.3200   45.7790 C   0  0  0  0  0  0  0  0  0  0  0  0
   57.5250   24.8960   45.3060 C   0  0  0  0  0  0  0  0  0  0  0  0
   56.3820   25.2360   46.0480 C   0  0  0  0  0  0  0  0  0  0  0  0
   55.1180   24.8030   45.6330 C   0  0  0  0  0  0  0  0  0  0  0  0
   54.9900   24.0200   44.4810 C   0  0  0  0  0  0  0  0  0  0  0  0
   56.1260   23.6640   43.7490 C   0  0  0  0  0  0  0  0  0  0  0  0
   57.3900   24.0950   44.1610 C   0  0  0  0  0  0  0  0  0  0  0  0
   58.5710   27.6940   45.0540 C   0  0  0  0  0  0  0  0  0  0  0  0
   58.6350   28.9540   45.6240 C   0  0  0  0  0  0  0  0  0  0  0  0
   58.1980   30.2080   45.0040 C   0  0  0  0  0  0  0  0  0  0  0  0
   57.5380   30.3100   43.7820 C   0  0  0  0  0  0  0  0  0  0  0  0
   57.1660   31.5840   43.5550 N   0  0  0  0  0  0  0  0  0  0  0  0
   57.5820   32.2880   44.6190 C   0  0  0  0  0  0  0  0  0  0  0  0
   57.4260   33.6560   44.8050 C   0  0  0  0  0  0  0  0  0  0  0  0
   57.9720   34.2270   45.9580 C   0  0  0  0  0  0  0  0  0  0  0  0
   58.6580   33.4300   46.8920 C   0  0  0  0  0  0  0  0  0  0  0  0
   58.7840   32.0200   46.7280 C   0  0  0  0  0  0  0  0  0  0  0  0
   58.2280   31.4880   45.5400 C   0  0  0  0  0  0  0  0  0  0  0  0
   62.7894   34.2167   47.1107 H   0  0  0  0  0  0  0  0  0  0  0  0
   61.5982   33.4698   45.8250 H   0  0  0  0  0  0  0  0  0  0  0  0
   62.5666   32.2332   48.4822 H   0  0  0  0  0  0  0  0  0  0  0  0
   61.0848   31.1244   46.0175 H   0  0  0  0  0  0  0  0  0  0  0  0
   61.5959   30.2272   47.5271 H   0  0  0  0  0  0  0  0  0  0  0  0
   60.5758   32.4050   49.3041 H   0  0  0  0  0  0  0  0  0  0  0  0
   58.8093   32.4409   49.3014 H   0  0  0  0  0  0  0  0  0  0  0  0
   60.6821   30.3902   50.4440 H   0  0  0  0  0  0  0  0  0  0  0  0
   59.0132   30.7147   50.9108 H   0  0  0  0  0  0  0  0  0  0  0  0
   59.4720   26.9303   48.0645 H   0  0  0  0  0  0  0  0  0  0  0  0
   59.6401   25.0331   45.0293 H   0  0  0  0  0  0  0  0  0  0  0  0
   59.1102   24.8250   46.7358 H   0  0  0  0  0  0  0  0  0  0  0  0
   56.4810   25.8449   46.9587 H   0  0  0  0  0  0  0  0  0  0  0  0
   54.2247   25.0784   46.2128 H   0  0  0  0  0  0  0  0  0  0  0  0
   53.9956   23.6846   44.1514 H   0  0  0  0  0  0  0  0  0  0  0  0
   56.0251   23.0432   42.8466 H   0  0  0  0  0  0  0  0  0  0  0  0
   58.2821   23.8056   43.5862 H   0  0  0  0  0  0  0  0  0  0  0  0
   58.2804   27.4823   44.0144 H   0  0  0  0  0  0  0  0  0  0  0  0
   57.3476   29.4690   43.0990 H   0  0  0  0  0  0  0  0  0  0  0  0
   56.6530   31.9450   42.7200 H   0  0  0  0  0  0  0  0  0  0  0  0
   56.8893   34.2708   44.0675 H   0  0  0  0  0  0  0  0  0  0  0  0
   57.8644   35.3071   46.1362 H   0  0  0  0  0  0  0  0  0  0  0  0
   59.1098   33.9083   47.7735 H   0  0  0  0  0  0  0  0  0  0  0  0
  1  2  2  0
  2  3  1  0
  4  3  1  6
  4  5  1  0
  5  6  1  0
  6  7  1  0
  7  8  2  0
  8  9  1  0
  9 10  2  0
 10 11  1  0
 11 12  1  0
 12 13  1  0
 13 14  2  0
 14 15  1  0
 15 16  2  0
 16 17  1  0
 17 18  2  0
 11 19  1  0
 19 20  2  0
 20 21  1  0
 21 22  2  0
 22 23  1  0
 23 24  1  0
 24 25  2  0
 25 26  1  0
 26 27  2  0
 27 28  1  0
 28 29  2  0
  8  4  1  0
 20  9  1  0
 29 21  1  0
 28  4  1  0
 18 13  1  0
 29 24  1  0
  1 30  1  0
  1 31  1  0
  2 32  1  0
  3 33  1  0
  3 34  1  0
  5 35  1  0
  5 36  1  0
  6 37  1  0
  6 38  1  0
 10 39  1  0
 12 40  1  0
 12 41  1  0
 14 42  1  0
 15 43  1  0
 16 44  1  0
 17 45  1  0
 18 46  1  0
 19 47  1  0
 22 48  1  0
 23 49  1  0
 25 50  1  0
 26 51  1  0
 27 52  1  0
M  END
>  <UniqueID>  (35) 
32

>  <SMILES>  (35) 
C=CC[C@]12CCN=C1c1cn(Cc3ccccc3)cc1-c1c[nH]c3cccc2c13

>  <Energy>  (35) 
131.84445014613468

>  <Genealogy>  (35) 
C=CC[C@]12CCN=C1c1cn(Cc3ccccc3)cc1-c1c[nH]c3cccc2c13 (chirality)
C=CC[C@]12CCN=C1c1cn(Cc3ccccc3)cc1-c1c[nH]c3cccc2c13 (3D coordinates assigned)
C=CC[C@]12CCN=C1c1cn(Cc3ccccc3)cc1-c1c[nH]c3cccc2c13 (nonaromatic ring conformer: 131.84445014613468 kcal/mol)

>  <smiles>  (35) 
C=CCC12CCN=C1c1cn(Cc3ccccc3)cc1-c1c[nH]c3cccc2c13

>  <score_type>  (35) 
oracle

>  <origin>  (35) 
adg

>  <m_score__min__energy>  (35) 
-8.6699999999999999

>  <m_primary>  (35) 
energy

$$$$
35:0
     RDKit          3D

 42 44  0  0  0  0  0  0  0  0999 V2000
   64.6565   32.7604   48.5329 H   0  0  0  0  0  0  0  0  0  0  0  0
   63.6710   32.8210   48.0480 C   0  0  0  0  0  0  0  0  0  0  0  0
   63.4460   33.7580   47.0360 C   0  0  0  0  0  0  0  0  0  0  0  0
   64.2547   34.4364   46.7265 H   0  0  0  0  0  0  0  0  0  0  0  0
   62.1950   33.8350   46.4160 C   0  0  0  0  0  0  0  0  0  0  0  0
   62.0249   34.5734   45.6186 H   0  0  0  0  0  0  0  0  0  0  0  0
   61.1510   32.9730   46.8060 C   0  0  0  0  0  0  0  0  0  0  0  0
   59.8210   33.0540   46.1510 C   0  0  0  0  0  0  0  0  0  0  0  0
   59.2140   34.3010   45.9160 C   0  0  0  0  0  0  0  0  0  0  0  0
   59.7302   35.2247   46.2165 H   0  0  0  0  0  0  0  0  0  0  0  0
   57.9610   34.3750   45.3040 C   0  0  0  0  0  0  0  0  0  0  0  0
   57.4963   35.3552   45.1218 H   0  0  0  0  0  0  0  0  0  0  0  0
   57.2970   33.2080   44.9230 C   0  0  0  0  0  0  0  0  0  0  0  0
   56.3099   33.2707   44.4416 H   0  0  0  0  0  0  0  0  0  0  0  0
   57.8840   31.9580   45.1520 C   0  0  0  0  0  0  0  0  0  0  0  0
   57.0200   30.4920   44.6990 S   0  0  0  0  0  0  0  0  0  0  0  0
   55.5820   30.8400   44.4350 O   0  0  0  0  0  0  0  0  0  0  0  0
   57.6080   29.8820   43.4570 O   0  0  0  0  0  0  0  0  0  0  0  0
   57.0960   29.3360   45.9930 N   0  0  0  0  0  0  0  0  0  0  0  0
   57.7550   28.2110   45.9930 C   0  0  0  0  0  0  0  0  0  0  0  0
   58.8350   28.0590   46.8800 C   0  0  0  0  0  0  0  0  0  0  0  0
   59.2680   29.3810   47.9720 Cl  0  0  0  0  0  0  0  0  0  0  0  0
   59.5640   26.8540   46.8900 C   0  0  0  0  0  0  0  0  0  0  0  0
   60.7200   26.6730   47.8380 C   0  0  0  0  0  0  0  0  0  0  0  0
   60.3565   26.7299   48.8746 H   0  0  0  0  0  0  0  0  0  0  0  0
   61.1850   25.6911   47.6659 H   0  0  0  0  0  0  0  0  0  0  0  0
   61.4629   27.4658   47.6659 H   0  0  0  0  0  0  0  0  0  0  0  0
   59.2010   25.8280   46.0050 C   0  0  0  0  0  0  0  0  0  0  0  0
   59.8810   24.6510   45.9970 F   0  0  0  0  0  0  0  0  0  0  0  0
   58.1270   26.0160   45.1250 C   0  0  0  0  0  0  0  0  0  0  0  0
   57.7190   24.9090   44.1940 C   0  0  0  0  0  0  0  0  0  0  0  0
   57.3973   24.0361   44.7810 H   0  0  0  0  0  0  0  0  0  0  0  0
   56.8878   25.2509   43.5598 H   0  0  0  0  0  0  0  0  0  0  0  0
   58.5733   24.6297   43.5598 H   0  0  0  0  0  0  0  0  0  0  0  0
   57.4230   27.1840   45.1490 N   0  0  0  0  0  0  0  0  0  0  0  0
   56.6120   27.2700   44.5010 H   0  0  0  0  0  0  0  0  0  0  0  0
   59.1440   31.8830   45.7620 C   0  0  0  0  0  0  0  0  0  0  0  0
   59.6073   30.9010   45.9380 H   0  0  0  0  0  0  0  0  0  0  0  0
   61.3910   32.0340   47.8280 C   0  0  0  0  0  0  0  0  0  0  0  0
   60.5871   31.3530   48.1442 H   0  0  0  0  0  0  0  0  0  0  0  0
   62.6440   31.9620   48.4430 C   0  0  0  0  0  0  0  0  0  0  0  0
   62.8215   31.2260   49.2410 H   0  0  0  0  0  0  0  0  0  0  0  0
  1  2  1  0
  2  3  2  0
  3  4  1  0
  3  5  1  0
  5  6  1  0
  5  7  2  0
  7  8  1  0
  8  9  2  0
  9 10  1  0
  9 11  1  0
 11 12  1  0
 11 13  2  0
 13 14  1  0
 13 15  1  0
 15 16  1  0
 16 17  2  0
 16 18  2  0
 16 19  1  0
 19 20  2  0
 20 21  1  0
 21 22  1  0
 21 23  2  0
 23 24  1  0
 24 25  1  0
 24 26  1  0
 24 27  1  0
 23 28  1  0
 28 29  1  0
 28 30  2  0
 30 31  1  0
 31 32  1  0
 31 33  1  0
 31 34  1  0
 30 35  1  0
 35 36  1  0
 15 37  2  0
 37 38  1  0
  7 39  1  0
 39 40  1  0
 39 41  2  0
 41 42  1  0
 41  2  1  0
 37  8  1  0
 35 20  1  0
M  END
>  <UniqueID>  (36) 
33

>  <SMILES>  (36) 
Cc1[nH]/c(=N\S(=O)(=O)c2cccc(-c3ccccc3)c2)c(Cl)c(C)c1F

>  <Energy>  (36) 
56.306892839169905

>  <Genealogy>  (36) 
Cc1[nH]/c(=N\S(=O)(=O)c2cccc(-c3ccccc3)c2)c(Cl)c(C)c1F (cis-trans isomerization)
Cc1[nH]/c(=N\S(=O)(=O)c2cccc(-c3ccccc3)c2)c(Cl)c(C)c1F (3D coordinates assigned)
Cc1[nH]/c(=N\S(=O)(=O)c2cccc(-c3ccccc3)c2)c(Cl)c(C)c1F (optimized conformer: 56.306892839169905 kcal/mol)

>  <smiles>  (36) 
Cc1[nH]c(=NS(=O)(=O)c2cccc(-c3ccccc3)c2)c(Cl)c(C)c1F

>  <score_type>  (36) 
oracle

>  <origin>  (36) 
adg

>  <m_score__min__energy>  (36) 
-9.7699999999999996

>  <m_primary>  (36) 
energy

$$$$
36:0
     RDKit          3D

 32 34  0  0  0  0  0  0  0  0999 V2000
   57.9160   23.1700   46.0000 Cl  0  0  0  0  0  0  0  0  0  0  0  0
   57.6850   24.8660   45.6170 C   0  0  0  0  0  0  0  0  0  0  0  0
   57.9560   25.3360   44.3300 C   0  0  0  0  0  0  0  0  0  0  0  0
   57.7720   26.6880   44.0230 C   0  0  0  0  0  0  0  0  0  0  0  0
   57.3140   27.5880   45.0030 C   0  0  0  0  0  0  0  0  0  0  0  0
   57.1260   29.0190   44.6630 C   0  0  0  0  0  0  0  0  0  0  0  0
   58.0260   29.8500   44.0160 C   0  0  0  0  0  0  0  0  0  0  0  0
   57.3620   31.0550   43.9470 C   0  0  0  0  0  0  0  0  0  0  0  0
   57.8810   32.3230   43.3450 C   0  0  0  0  0  0  0  0  0  0  0  0
   57.5590   33.4380   44.1760 O   0  0  0  0  0  0  0  0  0  0  0  0
   58.2490   33.8050   45.3440 C   0  0  0  0  0  0  0  0  0  0  0  0
   59.2300   34.8010   45.2470 C   0  0  0  0  0  0  0  0  0  0  0  0
   59.9480   35.2010   46.3770 C   0  0  0  0  0  0  0  0  0  0  0  0
   59.6910   34.6090   47.6160 C   0  0  0  0  0  0  0  0  0  0  0  0
   58.7120   33.6180   47.7260 C   0  0  0  0  0  0  0  0  0  0  0  0
   57.9910   33.2160   46.5980 C   0  0  0  0  0  0  0  0  0  0  0  0
   56.1860   30.9290   44.5130 O   0  0  0  0  0  0  0  0  0  0  0  0
   56.0090   29.7190   44.9530 N   0  0  0  0  0  0  0  0  0  0  0  0
   57.0450   27.1030   46.2980 C   0  0  0  0  0  0  0  0  0  0  0  0
   57.2300   25.7500   46.6000 C   0  0  0  0  0  0  0  0  0  0  0  0
   58.3149   24.6414   43.5563 H   0  0  0  0  0  0  0  0  0  0  0  0
   57.9871   27.0508   43.0071 H   0  0  0  0  0  0  0  0  0  0  0  0
   59.0324   29.6056   43.6452 H   0  0  0  0  0  0  0  0  0  0  0  0
   58.9737   32.2533   43.2398 H   0  0  0  0  0  0  0  0  0  0  0  0
   57.4141   32.4666   42.3594 H   0  0  0  0  0  0  0  0  0  0  0  0
   59.4363   35.2713   44.2743 H   0  0  0  0  0  0  0  0  0  0  0  0
   60.7167   35.9831   46.2909 H   0  0  0  0  0  0  0  0  0  0  0  0
   60.2589   34.9227   48.5043 H   0  0  0  0  0  0  0  0  0  0  0  0
   58.5084   33.1534   48.7021 H   0  0  0  0  0  0  0  0  0  0  0  0
   57.2196   32.4372   46.6894 H   0  0  0  0  0  0  0  0  0  0  0  0
   56.6872   27.7928   47.0766 H   0  0  0  0  0  0  0  0  0  0  0  0
   57.0169   25.3803   47.6139 H   0  0  0  0  0  0  0  0  0  0  0  0
  1  2  1  0
  2  3  2  0
  3  4  1  0
  4  5  2  0
  5  6  1  0
  6  7  1  0
  7  8  2  0
  8  9  1  0
  9 10  1  0
 10 11  1  0
 11 12  2  0
 12 13  1  0
 13 14  2  0
 14 15  1  0
 15 16  2  0
  8 17  1  0
 17 18  1  0
  5 19  1  0
 19 20  2  0
 20  2  1  0
 18  6  2  0
 16 11  1  0
  3 21  1  0
  4 22  1  0
  7 23  1  0
  9 24  1  0
  9 25  1  0
 12 26  1  0
 13 27  1  0
 14 28  1  0
 15 29  1  0
 16 30  1  0
 19 31  1  0
 20 32  1  0
M  END
>  <UniqueID>  (37) 
34

>  <SMILES>  (37) 
Clc1ccc(-c2cc(COc3ccccc3)on2)cc1

>  <Energy>  (37) 
65.42549689425765

>  <Genealogy>  (37) 
Clc1ccc(-c2cc(COc3ccccc3)on2)cc1 (3D coordinates assigned)
Clc1ccc(-c2cc(COc3ccccc3)on2)cc1 (optimized conformer: 65.42549689425765 kcal/mol)

>  <smiles>  (37) 
Clc1ccc(-c2cc(COc3ccccc3)on2)cc1

>  <score_type>  (37) 
oracle

>  <origin>  (37) 
adg

>  <m_score__min__energy>  (37) 
-7.54

>  <m_primary>  (37) 
energy

$$$$
37:0
     RDKit          3D

 46 48  0  0  0  0  0  0  0  0999 V2000
   58.5120   27.4020   43.3650 C   0  0  0  0  0  0  0  0  0  0  0  0
   57.7260   26.4030   44.1700 C   0  0  0  0  0  0  0  0  0  0  0  0
   57.6700   25.0720   43.7200 C   0  0  0  0  0  0  0  0  0  0  0  0
   56.9090   24.1210   44.4070 C   0  0  0  0  0  0  0  0  0  0  0  0
   56.8370   22.4680   43.8240 Cl  0  0  0  0  0  0  0  0  0  0  0  0
   56.1980   24.4890   45.5490 C   0  0  0  0  0  0  0  0  0  0  0  0
   56.2610   25.8020   46.0200 C   0  0  0  0  0  0  0  0  0  0  0  0
   57.0460   26.7570   45.3620 C   0  0  0  0  0  0  0  0  0  0  0  0
   57.0840   28.0860   45.8990 N   0  0  0  0  0  0  0  0  0  0  0  0
   56.6000   29.2520   45.2210 C   0  0  0  0  0  0  0  0  0  0  0  0
   55.3770   29.3340   44.9240 O   0  0  0  0  0  0  0  0  0  0  0  0
   57.5100   30.3090   44.8470 N   0  0  0  0  0  0  0  0  0  0  0  0
   56.9910   31.6050   44.3730 C   0  0  0  0  0  0  0  0  0  0  0  0
   57.7260   32.7470   45.0290 C   0  0  0  0  0  0  0  0  0  0  0  0
   57.4840   33.0660   46.3760 C   0  0  0  0  0  0  0  0  0  0  0  0
   58.2080   34.0860   47.0010 C   0  0  0  0  0  0  0  0  0  0  0  0
   59.1720   34.8010   46.2850 C   0  0  0  0  0  0  0  0  0  0  0  0
   59.4060   34.5010   44.9400 C   0  0  0  0  0  0  0  0  0  0  0  0
   58.6840   33.4820   44.3120 C   0  0  0  0  0  0  0  0  0  0  0  0
   58.9660   30.1310   44.9840 C   0  0  0  0  0  0  0  0  0  0  0  0
   59.3270   29.6660   46.3710 C   0  0  0  0  0  0  0  0  0  0  0  0
   58.9560   30.4230   47.4960 C   0  0  0  0  0  0  0  0  0  0  0  0
   59.2520   29.9660   48.7840 C   0  0  0  0  0  0  0  0  0  0  0  0
   59.9260   28.7550   48.9590 C   0  0  0  0  0  0  0  0  0  0  0  0
   60.3120   28.0030   47.8470 C   0  0  0  0  0  0  0  0  0  0  0  0
   60.0200   28.4580   46.5580 C   0  0  0  0  0  0  0  0  0  0  0  0
   59.0466   28.0815   44.0450 H   0  0  0  0  0  0  0  0  0  0  0  0
   59.2379   26.8721   42.7307 H   0  0  0  0  0  0  0  0  0  0  0  0
   57.8261   27.9828   42.7307 H   0  0  0  0  0  0  0  0  0  0  0  0
   58.2294   24.7764   42.8202 H   0  0  0  0  0  0  0  0  0  0  0  0
   55.5868   23.7439   46.0794 H   0  0  0  0  0  0  0  0  0  0  0  0
   55.6894   26.0885   46.9151 H   0  0  0  0  0  0  0  0  0  0  0  0
   57.1230   31.6697   43.2829 H   0  0  0  0  0  0  0  0  0  0  0  0
   55.9247   31.6751   44.6338 H   0  0  0  0  0  0  0  0  0  0  0  0
   56.7213   32.5106   46.9415 H   0  0  0  0  0  0  0  0  0  0  0  0
   58.0185   34.3260   48.0577 H   0  0  0  0  0  0  0  0  0  0  0  0
   59.7458   35.5988   46.7792 H   0  0  0  0  0  0  0  0  0  0  0  0
   60.1600   35.0681   44.3744 H   0  0  0  0  0  0  0  0  0  0  0  0
   58.8671   33.2548   43.2514 H   0  0  0  0  0  0  0  0  0  0  0  0
   59.3068   29.3821   44.2539 H   0  0  0  0  0  0  0  0  0  0  0  0
   59.4553   31.0991   44.8015 H   0  0  0  0  0  0  0  0  0  0  0  0
   58.4301   31.3799   47.3624 H   0  0  0  0  0  0  0  0  0  0  0  0
   58.9539   30.5606   49.6601 H   0  0  0  0  0  0  0  0  0  0  0  0
   60.1528   28.3935   49.9728 H   0  0  0  0  0  0  0  0  0  0  0  0
   60.8464   27.0516   47.9858 H   0  0  0  0  0  0  0  0  0  0  0  0
   60.3345   27.8671   45.6851 H   0  0  0  0  0  0  0  0  0  0  0  0
  1  2  1  0
  2  3  2  0
  3  4  1  0
  4  5  1  0
  4  6  2  0
  6  7  1  0
  7  8  2  0
  8  9  1  0
  9 10  1  0
 10 11  2  0
 10 12  1  0
 12 13  1  0
 13 14  1  0
 14 15  2  0
 15 16  1  0
 16 17  2  0
 17 18  1  0
 18 19  2  0
 12 20  1  0
 20 21  1  0
 21 22  2  0
 22 23  1  0
 23 24  2  0
 24 25  1  0
 25 26  2  0
  8  2  1  0
 19 14  1  0
 26 21  1  0
  1 27  1  0
  1 28  1  0
  1 29  1  0
  3 30  1  0
  6 31  1  0
  7 32  1  0
 13 33  1  0
 13 34  1  0
 15 35  1  0
 16 36  1  0
 17 37  1  0
 18 38  1  0
 19 39  1  0
 20 40  1  0
 20 41  1  0
 22 42  1  0
 23 43  1  0
 24 44  1  0
 25 45  1  0
 26 46  1  0
M  CHG  1   9  -1
M  END
>  <UniqueID>  (38) 
35

>  <SMILES>  (38) 
Cc1cc(Cl)ccc1[N-]C(=O)N(Cc1ccccc1)Cc1ccccc1

>  <Energy>  (38) 
50.122299377116946

>  <Genealogy>  (38) 
Cc1cc(Cl)ccc1[N-]C(=O)N(Cc1ccccc1)Cc1ccccc1 (protonated)
Cc1cc(Cl)ccc1[N-]C(=O)N(Cc1ccccc1)Cc1ccccc1 (3D coordinates assigned)
Cc1cc(Cl)ccc1[N-]C(=O)N(Cc1ccccc1)Cc1ccccc1 (optimized conformer: 50.122299377116946 kcal/mol)

>  <smiles>  (38) 
Cc1cc(Cl)ccc1NC(=O)N(Cc1ccccc1)Cc1ccccc1

>  <score_type>  (38) 
oracle

>  <origin>  (38) 
adg

>  <m_score__min__energy>  (38) 
-10.07

>  <m_primary>  (38) 
energy

$$$$
38:0
     RDKit          3D

 31 33  0  0  1  0  0  0  0  0999 V2000
   58.5780   32.6400   51.3130 C   0  0  0  0  0  0  0  0  0  0  0  0
   59.7210   32.9120   50.4430 N   0  0  0  0  0  0  0  0  0  0  0  0
   59.5070   33.2410   49.1930 C   0  0  0  0  0  0  0  0  0  0  0  0
   59.2020   32.2950   48.2840 N   0  0  0  0  0  0  0  0  0  0  0  0
   58.9950   32.6860   47.0310 C   0  0  0  0  0  0  0  0  0  0  0  0
   59.0910   34.0230   46.6770 C   0  0  0  0  0  0  0  0  0  0  0  0
   59.4040   34.9720   47.6220 C   0  0  0  0  0  0  0  0  0  0  0  0
   59.6090   34.5520   48.8820 N   0  0  0  0  0  0  0  0  0  0  0  0
   58.8480   34.3620   45.2780 C   0  0  0  0  0  0  0  0  0  0  0  0
   59.3330   35.4550   44.8590 O   0  0  0  0  0  0  0  0  0  0  0  0
   58.0720   33.4800   44.3720 C   0  0  0  0  0  0  0  0  0  0  0  0
   57.4960   32.3370   45.1780 C   0  0  1  0  0  0  0  0  0  0  0  0
   56.8940   31.3030   44.3010 C   0  0  0  0  0  0  0  0  0  0  0  0
   57.2340   30.9460   43.0050 C   0  0  0  0  0  0  0  0  0  0  0  0
   56.3550   29.9280   42.6600 C   0  0  0  0  0  0  0  0  0  0  0  0
   55.5310   29.7160   43.7440 C   0  0  0  0  0  0  0  0  0  0  0  0
   55.8760   30.5440   44.6980 O   0  0  0  0  0  0  0  0  0  0  0  0
   58.6560   31.7220   45.9600 C   0  0  0  0  0  0  0  0  0  0  0  0
   58.8917   32.7147   52.3647 H   0  0  0  0  0  0  0  0  0  0  0  0
   57.7832   33.3741   51.1145 H   0  0  0  0  0  0  0  0  0  0  0  0
   58.1991   31.6266   51.1145 H   0  0  0  0  0  0  0  0  0  0  0  0
   59.4837   36.0364   47.3561 H   0  0  0  0  0  0  0  0  0  0  0  0
   59.8480   35.2450   49.6300 H   0  0  0  0  0  0  0  0  0  0  0  0
   57.2557   34.0532   43.9081 H   0  0  0  0  0  0  0  0  0  0  0  0
   58.7284   33.0861   43.5821 H   0  0  0  0  0  0  0  0  0  0  0  0
   56.7011   32.7093   45.8410 H   0  0  0  0  0  0  0  0  0  0  0  0
   58.0312   31.3778   42.3821 H   0  0  0  0  0  0  0  0  0  0  0  0
   56.3225   29.3910   41.7005 H   0  0  0  0  0  0  0  0  0  0  0  0
   54.7195   28.9754   43.7987 H   0  0  0  0  0  0  0  0  0  0  0  0
   58.3524   30.7592   46.3968 H   0  0  0  0  0  0  0  0  0  0  0  0
   59.5204   31.5307   45.3071 H   0  0  0  0  0  0  0  0  0  0  0  0
  1  2  1  0
  2  3  2  0
  3  4  1  0
  4  5  2  0
  5  6  1  0
  6  7  2  0
  7  8  1  0
  6  9  1  0
  9 10  2  0
  9 11  1  0
 11 12  1  0
 12 13  1  0
 13 14  2  0
 14 15  1  0
 15 16  2  0
 16 17  1  0
 12 18  1  0
  8  3  1  0
 17 13  1  0
 18  5  1  0
  1 19  1  0
  1 20  1  0
  1 21  1  0
  7 22  1  0
  8 23  1  0
 11 24  1  0
 11 25  1  0
 12 26  1  1
 14 27  1  0
 15 28  1  0
 16 29  1  0
 18 30  1  0
 18 31  1  0
M  END
>  <smiles>  (39) 
CN=c1nc2c(c[nH]1)C(=O)CC(c1ccco1)C2

>  <score_type>  (39) 
oracle

>  <origin>  (39) 
adg

>  <m_score__min__energy>  (39) 
-6.7999999999999998

>  <m_primary>  (39) 
energy

$$$$
39:0
     RDKit          3D

 37 39  0  0  0  0  0  0  0  0999 V2000
   58.8070   25.0680   46.0310 C   0  0  0  0  0  0  0  0  0  0  0  0
   57.7490   26.0880   45.7730 C   0  0  0  0  0  0  0  0  0  0  0  0
   56.4020   25.9660   46.0500 C   0  0  0  0  0  0  0  0  0  0  0  0
   55.7960   27.0920   45.7530 O   0  0  0  0  0  0  0  0  0  0  0  0
   56.6880   27.9520   45.3120 C   0  0  0  0  0  0  0  0  0  0  0  0
   56.3510   29.3200   44.8770 C   0  0  0  0  0  0  0  0  0  0  0  0
   55.1470   29.6870   44.9010 O   0  0  0  0  0  0  0  0  0  0  0  0
   57.3410   30.2260   44.3740 N   0  0  0  0  0  0  0  0  0  0  0  0
   58.3140   30.9300   45.1580 C   0  0  0  0  0  0  0  0  0  0  0  0
   59.2240   30.2510   45.9850 C   0  0  0  0  0  0  0  0  0  0  0  0
   60.1520   30.9670   46.7460 C   0  0  0  0  0  0  0  0  0  0  0  0
   60.1700   32.3670   46.7070 C   0  0  0  0  0  0  0  0  0  0  0  0
   61.1230   33.0850   47.4990 N   0  0  0  0  0  0  0  0  0  0  0  0
   62.5130   33.2410   47.1150 C   0  0  0  0  0  0  0  0  0  0  0  0
   63.2260   33.7430   48.3640 C   0  0  0  0  0  0  0  0  0  0  0  0
   62.1280   34.2130   49.3180 C   0  0  0  0  0  0  0  0  0  0  0  0
   60.8510   33.5250   48.8550 C   0  0  0  0  0  0  0  0  0  0  0  0
   59.2470   33.0510   45.8950 C   0  0  0  0  0  0  0  0  0  0  0  0
   59.2600   34.8050   45.7810 Cl  0  0  0  0  0  0  0  0  0  0  0  0
   58.3200   32.3300   45.1340 C   0  0  0  0  0  0  0  0  0  0  0  0
   57.9430   27.3690   45.3040 C   0  0  0  0  0  0  0  0  0  0  0  0
   58.9379   24.9418   47.1159 H   0  0  0  0  0  0  0  0  0  0  0  0
   58.5082   24.1085   45.5837 H   0  0  0  0  0  0  0  0  0  0  0  0
   59.7549   25.4017   45.5837 H   0  0  0  0  0  0  0  0  0  0  0  0
   55.9138   25.0675   46.4554 H   0  0  0  0  0  0  0  0  0  0  0  0
   59.2061   29.1522   46.0338 H   0  0  0  0  0  0  0  0  0  0  0  0
   60.8723   30.4281   47.3791 H   0  0  0  0  0  0  0  0  0  0  0  0
   62.9336   32.2768   46.7935 H   0  0  0  0  0  0  0  0  0  0  0  0
   62.6278   33.9377   46.2716 H   0  0  0  0  0  0  0  0  0  0  0  0
   63.8091   32.9311   48.8232 H   0  0  0  0  0  0  0  0  0  0  0  0
   63.9280   34.5561   48.1270 H   0  0  0  0  0  0  0  0  0  0  0  0
   62.3675   33.9204   50.3510 H   0  0  0  0  0  0  0  0  0  0  0  0
   62.0241   35.3080   49.3064 H   0  0  0  0  0  0  0  0  0  0  0  0
   60.6212   32.6645   49.5005 H   0  0  0  0  0  0  0  0  0  0  0  0
   59.9825   34.1985   48.9012 H   0  0  0  0  0  0  0  0  0  0  0  0
   57.5897   32.8678   44.5115 H   0  0  0  0  0  0  0  0  0  0  0  0
   58.8916   27.8293   44.9906 H   0  0  0  0  0  0  0  0  0  0  0  0
  1  2  1  0
  2  3  2  0
  3  4  1  0
  4  5  1  0
  5  6  1  0
  6  7  2  0
  6  8  1  0
  8  9  1  0
  9 10  2  0
 10 11  1  0
 11 12  2  0
 12 13  1  0
 13 14  1  0
 14 15  1  0
 15 16  1  0
 16 17  1  0
 12 18  1  0
 18 19  1  0
 18 20  2  0
  5 21  2  0
 21  2  1  0
 20  9  1  0
 17 13  1  0
  1 22  1  0
  1 23  1  0
  1 24  1  0
  3 25  1  0
 10 26  1  0
 11 27  1  0
 14 28  1  0
 14 29  1  0
 15 30  1  0
 15 31  1  0
 16 32  1  0
 16 33  1  0
 17 34  1  0
 17 35  1  0
 20 36  1  0
 21 37  1  0
M  CHG  1   8  -1
M  END
>  <UniqueID>  (40) 
36

>  <SMILES>  (40) 
Cc1coc(C(=O)[N-]c2ccc(N3CCCC3)c(Cl)c2)c1

>  <Energy>  (40) 
73.90440399533125

>  <Genealogy>  (40) 
Cc1coc(C(=O)[N-]c2ccc(N3CCCC3)c(Cl)c2)c1 (protonated)
Cc1coc(C(=O)[N-]c2ccc(N3CCCC3)c(Cl)c2)c1 (3D coordinates assigned)
Cc1coc(C(=O)[N-]c2ccc(N3CCCC3)c(Cl)c2)c1 (nonaromatic ring conformer: 73.90440399533125 kcal/mol)

>  <smiles>  (40) 
Cc1coc(C(=O)Nc2ccc(N3CCCC3)c(Cl)c2)c1

>  <score_type>  (40) 
oracle

>  <origin>  (40) 
adg

>  <m_score__min__energy>  (40) 
-9.0399999999999991

>  <m_primary>  (40) 
energy

$$$$
40:0
     RDKit          3D

 50 53  0  0  0  0  0  0  0  0999 V2000
   50.0590   31.2640   53.5280 C   0  0  0  0  0  0  0  0  0  0  0  0
   51.4750   30.9170   53.0360 C   0  0  2  0  0  0  0  0  0  0  0  0
   51.8810   31.7170   51.8370 C   0  0  0  0  0  0  0  0  0  0  0  0
   51.0240   32.3480   51.1610 O   0  0  0  0  0  0  0  0  0  0  0  0
   53.2480   31.7530   51.4270 N   0  0  0  0  0  0  0  0  0  0  0  0
   54.3210   30.9830   51.9920 C   0  0  0  0  0  0  0  0  0  0  0  0
   55.5940   31.5700   51.9970 C   0  0  0  0  0  0  0  0  0  0  0  0
   56.7060   30.8740   52.4840 C   0  0  0  0  0  0  0  0  0  0  0  0
   58.3050   31.6260   52.4610 S   0  0  0  0  0  0  0  0  0  0  0  0
   59.0180   31.3150   53.7480 O   0  0  0  0  0  0  0  0  0  0  0  0
   58.1510   33.1180   52.3640 O   0  0  0  0  0  0  0  0  0  0  0  0
   59.2610   31.0550   51.1120 N   0  0  0  0  0  0  0  0  0  0  0  0
   59.4910   32.1290   50.1160 C   0  0  0  0  0  0  0  0  0  0  0  0
   58.6060   32.0010   48.8680 C   0  0  0  0  0  0  0  0  0  0  0  0
   58.7660   30.6710   48.2660 N   0  0  0  0  0  0  0  0  0  0  0  0
   58.5310   30.4710   46.8540 C   0  0  0  0  0  0  0  0  0  0  0  0
   58.3510   31.5710   45.9940 C   0  0  0  0  0  0  0  0  0  0  0  0
   58.1200   31.3750   44.6280 C   0  0  0  0  0  0  0  0  0  0  0  0
   57.8940   32.7560   43.5710 Cl  0  0  0  0  0  0  0  0  0  0  0  0
   58.0680   30.0800   44.1060 C   0  0  0  0  0  0  0  0  0  0  0  0
   58.2440   28.9790   44.9490 C   0  0  0  0  0  0  0  0  0  0  0  0
   58.1820   27.3540   44.2900 Cl  0  0  0  0  0  0  0  0  0  0  0  0
   58.4750   29.1710   46.3150 C   0  0  0  0  0  0  0  0  0  0  0  0
   59.1430   29.5440   49.1270 C   0  0  0  0  0  0  0  0  0  0  0  0
   58.6840   29.8080   50.5640 C   0  0  0  0  0  0  0  0  0  0  0  0
   56.5460   29.5740   52.9670 C   0  0  0  0  0  0  0  0  0  0  0  0
   55.2920   28.9660   52.9440 C   0  0  0  0  0  0  0  0  0  0  0  0
   54.1640   29.6520   52.4650 C   0  0  0  0  0  0  0  0  0  0  0  0
   52.9230   28.9250   52.3800 N   0  0  0  0  0  0  0  0  0  0  0  0
   51.6320   29.4670   52.6870 C   0  0  0  0  0  0  0  0  0  0  0  0
   50.6240   28.7100   52.6330 O   0  0  0  0  0  0  0  0  0  0  0  0
   50.0437   31.2678   54.6279 H   0  0  0  0  0  0  0  0  0  0  0  0
   49.7743   32.2585   53.1539 H   0  0  0  0  0  0  0  0  0  0  0  0
   49.3467   30.5138   53.1539 H   0  0  0  0  0  0  0  0  0  0  0  0
   52.1251   31.1643   53.8881 H   0  0  0  0  0  0  0  0  0  0  0  0
   55.7206   32.5928   51.6124 H   0  0  0  0  0  0  0  0  0  0  0  0
   59.2830   33.0980   50.5934 H   0  0  0  0  0  0  0  0  0  0  0  0
   60.5363   32.0460   49.7835 H   0  0  0  0  0  0  0  0  0  0  0  0
   57.5535   32.1466   49.1526 H   0  0  0  0  0  0  0  0  0  0  0  0
   58.9065   32.7646   48.1355 H   0  0  0  0  0  0  0  0  0  0  0  0
   58.3923   32.5928   46.3992 H   0  0  0  0  0  0  0  0  0  0  0  0
   57.8886   29.9269   43.0316 H   0  0  0  0  0  0  0  0  0  0  0  0
   58.6139   28.3005   46.9730 H   0  0  0  0  0  0  0  0  0  0  0  0
   58.6658   28.6254   48.7549 H   0  0  0  0  0  0  0  0  0  0  0  0
   60.2367   29.4277   49.1123 H   0  0  0  0  0  0  0  0  0  0  0  0
   57.5871   29.8891   50.5768 H   0  0  0  0  0  0  0  0  0  0  0  0
   59.0295   28.9715   51.1892 H   0  0  0  0  0  0  0  0  0  0  0  0
   57.4127   29.0275   53.3672 H   0  0  0  0  0  0  0  0  0  0  0  0
   55.1842   27.9331   53.3066 H   0  0  0  0  0  0  0  0  0  0  0  0
   52.9760   27.8900   52.2410 H   0  0  0  0  0  0  0  0  0  0  0  0
  1  2  1  0
  2  3  1  0
  3  4  2  0
  3  5  1  0
  5  6  1  0
  6  7  2  0
  7  8  1  0
  8  9  1  0
  9 10  2  0
  9 11  2  0
  9 12  1  0
 12 13  1  0
 13 14  1  0
 14 15  1  0
 15 16  1  0
 16 17  2  0
 17 18  1  0
 18 19  1  0
 18 20  2  0
 20 21  1  0
 21 22  1  0
 21 23  2  0
 15 24  1  0
 24 25  1  0
  8 26  2  0
 26 27  1  0
 27 28  2  0
 28 29  1  0
 29 30  1  0
 30 31  2  0
 30  2  1  0
 28  6  1  0
 25 12  1  0
 23 16  1  0
  1 32  1  0
  1 33  1  0
  1 34  1  0
  2 35  1  1
  7 36  1  0
 13 37  1  0
 13 38  1  0
 14 39  1  0
 14 40  1  0
 17 41  1  0
 20 42  1  0
 23 43  1  0
 24 44  1  0
 24 45  1  0
 25 46  1  0
 25 47  1  0
 26 48  1  0
 27 49  1  0
 29 50  1  0
M  CHG  1   5  -1
M  END
>  <UniqueID>  (41) 
37

>  <SMILES>  (41) 
C[C@@H]1C(=O)[N-]c2cc(S(=O)(=O)N3CCN(c4cc(Cl)cc(Cl)c4)CC3)ccc2NC1=O

>  <Energy>  (41) 
69.93730163368221

>  <Genealogy>  (41) 
CC1C(=O)[N-]c2cc(S(=O)(=O)N3CCN(c4cc(Cl)cc(Cl)c4)CC3)ccc2NC1=O (protonated)
C[C@@H]1C(=O)[N-]c2cc(S(=O)(=O)N3CCN(c4cc(Cl)cc(Cl)c4)CC3)ccc2NC1=O (chirality)
C[C@@H]1C(=O)[N-]c2cc(S(=O)(=O)N3CCN(c4cc(Cl)cc(Cl)c4)CC3)ccc2NC1=O (3D coordinates assigned)
C[C@@H]1C(=O)[N-]c2cc(S(=O)(=O)N3CCN(c4cc(Cl)cc(Cl)c4)CC3)ccc2NC1=O (nonaromatic ring conformer: 69.93730163368221 kcal/mol)

>  <smiles>  (41) 
CC1C(=O)Nc2ccc(S(=O)(=O)N3CCN(c4cc(Cl)cc(Cl)c4)CC3)cc2NC1=O

>  <score_type>  (41) 
oracle

>  <origin>  (41) 
adg

>  <m_score__min__energy>  (41) 
-9.6899999999999995

>  <m_primary>  (41) 
energy

$$$$
41:0
     RDKit          3D

 25 26  0  0  0  0  0  0  0  0999 V2000
   56.2930   29.5540   42.2760 C   0  0  0  0  0  0  0  0  0  0  0  0
   56.7590   30.3610   43.4430 C   0  0  0  0  0  0  0  0  0  0  0  0
   56.5420   30.0400   44.6970 O   0  0  0  0  0  0  0  0  0  0  0  0
   57.0730   30.9210   45.4920 N   0  0  0  0  0  0  0  0  0  0  0  0
   57.6620   31.8740   44.7420 C   0  0  0  0  0  0  0  0  0  0  0  0
   58.3630   33.0500   45.3030 C   0  0  0  0  0  0  0  0  0  0  0  0
   58.6130   34.1900   44.5160 C   0  0  0  0  0  0  0  0  0  0  0  0
   59.2660   35.2980   45.0660 C   0  0  0  0  0  0  0  0  0  0  0  0
   59.6670   35.2830   46.4040 C   0  0  0  0  0  0  0  0  0  0  0  0
   59.4100   34.1610   47.1970 C   0  0  0  0  0  0  0  0  0  0  0  0
   58.7570   33.0520   46.6520 C   0  0  0  0  0  0  0  0  0  0  0  0
   57.4950   31.5340   43.4050 C   0  0  0  0  0  0  0  0  0  0  0  0
   57.9880   32.2520   42.1850 C   0  0  0  0  0  0  0  0  0  0  0  0
   55.7733   28.6541   42.6366 H   0  0  0  0  0  0  0  0  0  0  0  0
   55.6034   30.1559   41.6659 H   0  0  0  0  0  0  0  0  0  0  0  0
   57.1590   29.2576   41.6659 H   0  0  0  0  0  0  0  0  0  0  0  0
   57.0200   30.8860   46.5340 H   0  0  0  0  0  0  0  0  0  0  0  0
   58.2934   34.2096   43.4636 H   0  0  0  0  0  0  0  0  0  0  0  0
   59.4642   36.1830   44.4436 H   0  0  0  0  0  0  0  0  0  0  0  0
   60.1846   36.1535   46.8333 H   0  0  0  0  0  0  0  0  0  0  0  0
   59.7222   34.1509   48.2517 H   0  0  0  0  0  0  0  0  0  0  0  0
   58.5501   32.1751   47.2830 H   0  0  0  0  0  0  0  0  0  0  0  0
   58.5864   33.1235   42.4892 H   0  0  0  0  0  0  0  0  0  0  0  0
   58.6101   31.5713   41.5853 H   0  0  0  0  0  0  0  0  0  0  0  0
   57.1293   32.5881   41.5853 H   0  0  0  0  0  0  0  0  0  0  0  0
  1  2  1  0
  2  3  1  0
  3  4  1  0
  4  5  2  0
  5  6  1  0
  6  7  2  0
  7  8  1  0
  8  9  2  0
  9 10  1  0
 10 11  2  0
  5 12  1  0
 12 13  1  0
 12  2  2  0
 11  6  1  0
  1 14  1  0
  1 15  1  0
  1 16  1  0
  4 17  1  0
  7 18  1  0
  8 19  1  0
  9 20  1  0
 10 21  1  0
 11 22  1  0
 13 23  1  0
 13 24  1  0
 13 25  1  0
M  CHG  1   4   1
M  END
>  <UniqueID>  (42) 
38

>  <SMILES>  (42) 
Cc1o[nH+]c(-c2ccccc2)c1C

>  <Energy>  (42) 
58.75362677025961

>  <Genealogy>  (42) 
Cc1o[nH+]c(-c2ccccc2)c1C (protonated)
Cc1o[nH+]c(-c2ccccc2)c1C (3D coordinates assigned)
Cc1o[nH+]c(-c2ccccc2)c1C (optimized conformer: 58.75362677025961 kcal/mol)

>  <smiles>  (42) 
Cc1onc(-c2ccccc2)c1C

>  <score_type>  (42) 
oracle

>  <origin>  (42) 
adg

>  <m_score__min__energy>  (42) 
-4.7199999999999998

>  <m_primary>  (42) 
energy

$$$$
42:0
     RDKit          3D

 39 41  0  0  0  0  0  0  0  0999 V2000
   59.6400   35.2550   45.6220 C   0  0  0  0  0  0  0  0  0  0  0  0
   59.5400   33.8350   46.1700 C   0  0  0  0  0  0  0  0  0  0  0  0
   58.2640   33.6320   46.8910 N   0  0  0  0  0  0  0  0  0  0  0  0
   58.3020   32.6690   48.0190 C   0  0  0  0  0  0  0  0  0  0  0  0
   58.8660   31.3210   47.6570 C   0  0  0  0  0  0  0  0  0  0  0  0
   59.2220   30.3220   48.5540 C   0  0  0  0  0  0  0  0  0  0  0  0
   59.6270   29.2670   47.8280 N   0  0  0  0  0  0  0  0  0  0  0  0
   60.0320   28.0360   48.2290 C   0  0  0  0  0  0  0  0  0  0  0  0
   60.3780   27.1000   47.2430 C   0  0  0  0  0  0  0  0  0  0  0  0
   60.2930   27.4600   45.8840 C   0  0  0  0  0  0  0  0  0  0  0  0
   59.8640   28.7470   45.5150 C   0  0  0  0  0  0  0  0  0  0  0  0
   59.5340   29.6330   46.5380 C   0  0  0  0  0  0  0  0  0  0  0  0
   59.0820   30.8930   46.3920 N   0  0  0  0  0  0  0  0  0  0  0  0
   57.0760   33.5220   46.0140 C   0  0  0  0  0  0  0  0  0  0  0  0
   57.2300   32.5250   44.8960 C   0  0  0  0  0  0  0  0  0  0  0  0
   57.8120   32.7600   43.6700 C   0  0  0  0  0  0  0  0  0  0  0  0
   57.7580   31.6310   42.9380 N   0  0  0  0  0  0  0  0  0  0  0  0
   57.1560   30.7520   43.7660 C   0  0  0  0  0  0  0  0  0  0  0  0
   56.8310   29.3500   43.3790 C   0  0  0  0  0  0  0  0  0  0  0  0
   56.8460   31.2750   44.9290 O   0  0  0  0  0  0  0  0  0  0  0  0
   59.6902   35.9680   46.4581 H   0  0  0  0  0  0  0  0  0  0  0  0
   60.5469   35.3474   45.0063 H   0  0  0  0  0  0  0  0  0  0  0  0
   58.7550   35.4736   45.0063 H   0  0  0  0  0  0  0  0  0  0  0  0
   59.5979   33.1222   45.3342 H   0  0  0  0  0  0  0  0  0  0  0  0
   60.3694   33.6725   46.8741 H   0  0  0  0  0  0  0  0  0  0  0  0
   58.9215   33.0991   48.8198 H   0  0  0  0  0  0  0  0  0  0  0  0
   57.2601   32.5038   48.3306 H   0  0  0  0  0  0  0  0  0  0  0  0
   59.1802   30.3833   49.6515 H   0  0  0  0  0  0  0  0  0  0  0  0
   60.0875   27.7790   49.2971 H   0  0  0  0  0  0  0  0  0  0  0  0
   60.7133   26.0922   47.5292 H   0  0  0  0  0  0  0  0  0  0  0  0
   60.5638   26.7301   45.1069 H   0  0  0  0  0  0  0  0  0  0  0  0
   59.7916   29.0432   44.4581 H   0  0  0  0  0  0  0  0  0  0  0  0
   58.9260   31.4140   45.5010 H   0  0  0  0  0  0  0  0  0  0  0  0
   56.2172   33.2195   46.6313 H   0  0  0  0  0  0  0  0  0  0  0  0
   56.9346   34.5068   45.5448 H   0  0  0  0  0  0  0  0  0  0  0  0
   58.2496   33.7145   43.3422 H   0  0  0  0  0  0  0  0  0  0  0  0
   56.6902   28.7427   44.2853 H   0  0  0  0  0  0  0  0  0  0  0  0
   55.9065   29.3391   42.7830 H   0  0  0  0  0  0  0  0  0  0  0  0
   57.6564   28.9334   42.7830 H   0  0  0  0  0  0  0  0  0  0  0  0
  1  2  1  0
  2  3  1  0
  3  4  1  0
  4  5  1  0
  5  6  2  0
  6  7  1  0
  7  8  1  0
  8  9  2  0
  9 10  1  0
 10 11  2  0
 11 12  1  0
 12 13  2  0
  3 14  1  0
 14 15  1  0
 15 16  2  0
 16 17  1  0
 17 18  2  0
 18 19  1  0
 18 20  1  0
 13  5  1  0
 20 15  1  0
 12  7  1  0
  1 21  1  0
  1 22  1  0
  1 23  1  0
  2 24  1  0
  2 25  1  0
  4 26  1  0
  4 27  1  0
  6 28  1  0
  8 29  1  0
  9 30  1  0
 10 31  1  0
 11 32  1  0
 13 33  1  0
 14 34  1  0
 14 35  1  0
 16 36  1  0
 19 37  1  0
 19 38  1  0
 19 39  1  0
M  CHG  1  13   1
M  END
>  <UniqueID>  (43) 
39

>  <SMILES>  (43) 
CCN(Cc1cn2ccccc2[nH+]1)Cc1cnc(C)o1

>  <Energy>  (43) 
106.44543005298911

>  <Genealogy>  (43) 
CCN(Cc1cn2ccccc2[nH+]1)Cc1cnc(C)o1 (protonated)
CCN(Cc1cn2ccccc2[nH+]1)Cc1cnc(C)o1 (3D coordinates assigned)
CCN(Cc1cn2ccccc2[nH+]1)Cc1cnc(C)o1 (optimized conformer: 106.44543005298911 kcal/mol)

>  <smiles>  (43) 
CCN(Cc1cn2ccccc2n1)Cc1cnc(C)o1

>  <score_type>  (43) 
oracle

>  <origin>  (43) 
adg

>  <m_score__min__energy>  (43) 
-4.4299999999999997

>  <m_primary>  (43) 
energy

$$$$
43:0
     RDKit          3D

 27 28  0  0  0  0  0  0  0  0999 V2000
   55.1790   29.3450   44.8640 O   0  0  0  0  0  0  0  0  0  0  0  0
   56.3310   29.8520   44.8240 C   0  0  0  0  0  0  0  0  0  0  0  0
   56.4530   31.2680   44.6480 N   0  0  0  0  0  0  0  0  0  0  0  0
   57.4650   32.1020   45.2260 C   0  0  0  0  0  0  0  0  0  0  0  0
   58.1500   31.7260   46.3960 C   0  0  0  0  0  0  0  0  0  0  0  0
   59.1080   32.5780   46.9540 C   0  0  0  0  0  0  0  0  0  0  0  0
   59.3740   33.8160   46.3630 C   0  0  0  0  0  0  0  0  0  0  0  0
   58.6760   34.2080   45.2170 C   0  0  0  0  0  0  0  0  0  0  0  0
   58.9260   35.4150   44.6510 F   0  0  0  0  0  0  0  0  0  0  0  0
   57.7190   33.3570   44.6560 C   0  0  0  0  0  0  0  0  0  0  0  0
   57.5000   29.0180   44.9230 N   0  0  0  0  0  0  0  0  0  0  0  0
   57.4610   27.5960   45.1290 C   0  0  0  0  0  0  0  0  0  0  0  0
   57.7860   26.7400   44.0660 C   0  0  0  0  0  0  0  0  0  0  0  0
   57.7340   25.3520   44.2320 C   0  0  0  0  0  0  0  0  0  0  0  0
   57.3400   24.8080   45.4570 C   0  0  0  0  0  0  0  0  0  0  0  0
   56.9900   25.6520   46.5150 C   0  0  0  0  0  0  0  0  0  0  0  0
   57.0410   27.0410   46.3530 C   0  0  0  0  0  0  0  0  0  0  0  0
   57.9313   30.7592   46.8730 H   0  0  0  0  0  0  0  0  0  0  0  0
   59.6531   32.2733   47.8596 H   0  0  0  0  0  0  0  0  0  0  0  0
   60.1327   34.4821   46.7996 H   0  0  0  0  0  0  0  0  0  0  0  0
   57.1621   33.6743   43.7620 H   0  0  0  0  0  0  0  0  0  0  0  0
   58.4400   29.4730   44.9140 H   0  0  0  0  0  0  0  0  0  0  0  0
   58.0838   27.1632   43.0953 H   0  0  0  0  0  0  0  0  0  0  0  0
   58.0036   24.6883   43.3973 H   0  0  0  0  0  0  0  0  0  0  0  0
   57.3052   23.7165   45.5889 H   0  0  0  0  0  0  0  0  0  0  0  0
   56.6737   25.2232   47.4773 H   0  0  0  0  0  0  0  0  0  0  0  0
   56.7522   27.7011   47.1842 H   0  0  0  0  0  0  0  0  0  0  0  0
  1  2  2  0
  2  3  1  0
  3  4  1  0
  4  5  2  0
  5  6  1  0
  6  7  2  0
  7  8  1  0
  8  9  1  0
  8 10  2  0
  2 11  1  0
 11 12  1  0
 12 13  2  0
 13 14  1  0
 14 15  2  0
 15 16  1  0
 16 17  2  0
 10  4  1  0
 17 12  1  0
  5 18  1  0
  6 19  1  0
  7 20  1  0
 10 21  1  0
 11 22  1  0
 13 23  1  0
 14 24  1  0
 15 25  1  0
 16 26  1  0
 17 27  1  0
M  CHG  1   3  -1
M  END
>  <UniqueID>  (44) 
40

>  <SMILES>  (44) 
O=C([N-]c1cccc(F)c1)Nc1ccccc1

>  <Energy>  (44) 
36.10463941497149

>  <Genealogy>  (44) 
O=C([N-]c1cccc(F)c1)Nc1ccccc1 (protonated)
O=C([N-]c1cccc(F)c1)Nc1ccccc1 (3D coordinates assigned)
O=C([N-]c1cccc(F)c1)Nc1ccccc1 (optimized conformer: 36.10463941497149 kcal/mol)

>  <smiles>  (44) 
O=C(Nc1ccccc1)Nc1cccc(F)c1

>  <score_type>  (44) 
oracle

>  <origin>  (44) 
adg

>  <m_score__min__energy>  (44) 
-7.7699999999999996

>  <m_primary>  (44) 
energy

$$$$
44:0
     RDKit          3D

 47 50  0  0  0  0  0  0  0  0999 V2000
   53.5701   24.6909   46.0344 H   0  0  0  0  0  0  0  0  0  0  0  0
   54.5850   24.7540   45.6150 C   0  0  0  0  0  0  0  0  0  0  0  0
   55.4630   25.6740   46.0970 N   0  0  0  0  0  0  0  0  0  0  0  0
   56.7250   25.7970   45.5990 C   0  0  0  0  0  0  0  0  0  0  0  0
   57.6340   26.7990   46.1820 C   0  0  0  0  0  0  0  0  0  0  0  0
   58.7240   26.4520   47.4200 S   0  0  0  0  0  0  0  0  0  0  0  0
   59.3420   28.0100   47.4410 C   0  0  0  0  0  0  0  0  0  0  0  0
   60.2690   28.4080   48.2570 N   0  0  0  0  0  0  0  0  0  0  0  0
   60.1060   29.5360   49.1660 C   0  0  0  0  0  0  0  0  0  0  0  0
   61.0648   29.7480   49.6617 H   0  0  0  0  0  0  0  0  0  0  0  0
   59.3467   29.2883   49.9224 H   0  0  0  0  0  0  0  0  0  0  0  0
   59.6640   30.7470   48.3940 C   0  0  0  0  0  0  0  0  0  0  0  0
   60.3630   31.1330   47.2410 C   0  0  0  0  0  0  0  0  0  0  0  0
   61.2335   30.5487   46.9082 H   0  0  0  0  0  0  0  0  0  0  0  0
   59.9600   32.2560   46.5120 C   0  0  0  0  0  0  0  0  0  0  0  0
   60.5164   32.5492   45.6095 H   0  0  0  0  0  0  0  0  0  0  0  0
   58.8500   33.0130   46.9230 C   0  0  0  0  0  0  0  0  0  0  0  0
   58.4220   34.2270   46.1210 C   0  0  0  0  0  0  0  0  0  0  0  0
   57.8188   34.8682   46.7806 H   0  0  0  0  0  0  0  0  0  0  0  0
   59.6370   35.0410   45.6600 C   0  0  0  0  0  0  0  0  0  0  0  0
   60.1866   35.4092   46.5389 H   0  0  0  0  0  0  0  0  0  0  0  0
   60.2979   34.4027   45.0552 H   0  0  0  0  0  0  0  0  0  0  0  0
   59.2981   35.8950   45.0552 H   0  0  0  0  0  0  0  0  0  0  0  0
   57.5420   33.8240   44.9310 C   0  0  0  0  0  0  0  0  0  0  0  0
   56.6001   33.3927   45.3009 H   0  0  0  0  0  0  0  0  0  0  0  0
   57.3234   34.7118   44.3193 H   0  0  0  0  0  0  0  0  0  0  0  0
   58.0714   33.0786   44.3193 H   0  0  0  0  0  0  0  0  0  0  0  0
   58.1450   32.6140   48.0740 C   0  0  0  0  0  0  0  0  0  0  0  0
   57.2691   33.1916   48.4046 H   0  0  0  0  0  0  0  0  0  0  0  0
   58.5480   31.4910   48.8000 C   0  0  0  0  0  0  0  0  0  0  0  0
   57.9860   31.1887   49.6959 H   0  0  0  0  0  0  0  0  0  0  0  0
   58.7390   28.8140   46.5380 N   0  0  0  0  0  0  0  0  0  0  0  0
   57.7790   28.1520   45.8330 C   0  0  0  0  0  0  0  0  0  0  0  0
   56.9220   28.8780   44.8780 C   0  0  0  0  0  0  0  0  0  0  0  0
   55.6150   28.9660   44.9650 O   0  0  0  0  0  0  0  0  0  0  0  0
   55.1750   29.7070   43.9740 C   0  0  0  0  0  0  0  0  0  0  0  0
   54.1194   29.9536   43.7873 H   0  0  0  0  0  0  0  0  0  0  0  0
   56.2380   30.1290   43.2030 C   0  0  0  0  0  0  0  0  0  0  0  0
   56.1931   30.7606   42.3035 H   0  0  0  0  0  0  0  0  0  0  0  0
   57.3680   29.5990   43.7880 C   0  0  0  0  0  0  0  0  0  0  0  0
   58.4090   29.7244   43.4555 H   0  0  0  0  0  0  0  0  0  0  0  0
   57.1550   24.9240   44.5870 C   0  0  0  0  0  0  0  0  0  0  0  0
   58.1828   24.9866   44.2002 H   0  0  0  0  0  0  0  0  0  0  0  0
   56.2670   23.9760   44.0760 C   0  0  0  0  0  0  0  0  0  0  0  0
   56.5875   23.2981   43.2712 H   0  0  0  0  0  0  0  0  0  0  0  0
   54.9700   23.8900   44.5890 C   0  0  0  0  0  0  0  0  0  0  0  0
   54.2611   23.1502   44.1889 H   0  0  0  0  0  0  0  0  0  0  0  0
  1  2  1  0
  2  3  2  0
  3  4  1  0
  4  5  1  0
  5  6  1  0
  6  7  1  0
  7  8  2  0
  8  9  1  0
  9 10  1  0
  9 11  1  0
  9 12  1  0
 12 13  2  0
 13 14  1  0
 13 15  1  0
 15 16  1  0
 15 17  2  0
 17 18  1  0
 18 19  1  0
 18 20  1  0
 20 21  1  0
 20 22  1  0
 20 23  1  0
 18 24  1  0
 24 25  1  0
 24 26  1  0
 24 27  1  0
 17 28  1  0
 28 29  1  0
 28 30  2  0
 30 31  1  0
  7 32  1  0
 32 33  1  0
 33 34  1  0
 34 35  1  0
 35 36  1  0
 36 37  1  0
 36 38  2  0
 38 39  1  0
 38 40  1  0
 40 41  1  0
  4 42  2  0
 42 43  1  0
 42 44  1  0
 44 45  1  0
 44 46  2  0
 46 47  1  0
 46  2  1  0
 33  5  2  0
 40 34  2  0
 30 12  1  0
M  CHG  1  32  -1
M  END
>  <UniqueID>  (45) 
41

>  <SMILES>  (45) 
CC(C)c1ccc(C/N=c2\[n-]c(-c3ccco3)c(-c3ccccn3)s2)cc1

>  <Energy>  (45) 
108.39816754916515

>  <Genealogy>  (45) 
CC(C)c1ccc(CN=c2[n-]c(-c3ccco3)c(-c3ccccn3)s2)cc1 (protonated)
CC(C)c1ccc(C/N=c2\[n-]c(-c3ccco3)c(-c3ccccn3)s2)cc1 (cis-trans isomerization)
CC(C)c1ccc(C/N=c2\[n-]c(-c3ccco3)c(-c3ccccn3)s2)cc1 (3D coordinates assigned)
CC(C)c1ccc(C/N=c2\[n-]c(-c3ccco3)c(-c3ccccn3)s2)cc1 (optimized conformer: 108.39816754916515 kcal/mol)

>  <smiles>  (45) 
CC(C)c1ccc(CN=c2[nH]c(-c3ccco3)c(-c3ccccn3)s2)cc1

>  <score_type>  (45) 
oracle

>  <origin>  (45) 
adg

>  <m_score__min__energy>  (45) 
-10.199999999999999

>  <m_primary>  (45) 
energy

$$$$
45:0
     RDKit          3D

 28 29  0  0  0  0  0  0  0  0999 V2000
   58.4720   33.4109   41.8814 H   0  0  0  0  0  0  0  0  0  0  0  0
   58.0440   32.6610   42.5630 C   0  0  0  0  0  0  0  0  0  0  0  0
   58.2350   32.7810   43.9420 C   0  0  0  0  0  0  0  0  0  0  0  0
   58.8075   33.6291   44.3458 H   0  0  0  0  0  0  0  0  0  0  0  0
   57.6990   31.8240   44.8090 C   0  0  0  0  0  0  0  0  0  0  0  0
   57.8331   31.9319   45.8955 H   0  0  0  0  0  0  0  0  0  0  0  0
   56.9890   30.7240   44.2960 C   0  0  0  0  0  0  0  0  0  0  0  0
   56.3780   29.7600   45.1680 N   0  0  0  0  0  0  0  0  0  0  0  0
   56.8870   28.6320   45.5770 C   0  0  0  0  0  0  0  0  0  0  0  0
   58.1680   28.6260   46.0280 N   0  0  0  0  0  0  0  0  0  0  0  0
   58.7610   27.4900   46.4790 C   0  0  0  0  0  0  0  0  0  0  0  0
   60.1690   27.5300   46.9800 C   0  0  0  0  0  0  0  0  0  0  0  0
   60.1669   27.5299   48.0800 H   0  0  0  0  0  0  0  0  0  0  0  0
   60.7135   26.6470   46.6143 H   0  0  0  0  0  0  0  0  0  0  0  0
   60.6625   28.4425   46.6143 H   0  0  0  0  0  0  0  0  0  0  0  0
   58.0380   26.2960   46.4940 C   0  0  0  0  0  0  0  0  0  0  0  0
   58.4979   25.3667   46.8614 H   0  0  0  0  0  0  0  0  0  0  0  0
   56.7180   26.3040   46.0330 C   0  0  0  0  0  0  0  0  0  0  0  0
   55.8960   25.0500   46.0910 C   0  0  0  0  0  0  0  0  0  0  0  0
   55.7171   24.7771   47.1415 H   0  0  0  0  0  0  0  0  0  0  0  0
   54.9330   25.2192   45.5870 H   0  0  0  0  0  0  0  0  0  0  0  0
   56.4353   24.2344   45.5870 H   0  0  0  0  0  0  0  0  0  0  0  0
   56.1580   27.4720   45.6040 N   0  0  0  0  0  0  0  0  0  0  0  0
   55.1500   27.4650   45.3360 H   0  0  0  0  0  0  0  0  0  0  0  0
   56.7720   30.6290   42.9150 C   0  0  0  0  0  0  0  0  0  0  0  0
   56.1771   29.7971   42.5100 H   0  0  0  0  0  0  0  0  0  0  0  0
   57.3090   31.5880   42.0490 C   0  0  0  0  0  0  0  0  0  0  0  0
   57.1530   31.4979   40.9639 H   0  0  0  0  0  0  0  0  0  0  0  0
  1  2  1  0
  2  3  2  0
  3  4  1  0
  3  5  1  0
  5  6  1  0
  5  7  2  0
  7  8  1  0
  8  9  2  0
  9 10  1  0
 10 11  2  0
 11 12  1  0
 12 13  1  0
 12 14  1  0
 12 15  1  0
 11 16  1  0
 16 17  1  0
 16 18  2  0
 18 19  1  0
 19 20  1  0
 19 21  1  0
 19 22  1  0
 18 23  1  0
 23 24  1  0
  7 25  1  0
 25 26  1  0
 25 27  2  0
 27 28  1  0
 27  2  1  0
 23  9  1  0
M  END
>  <UniqueID>  (46) 
42

>  <SMILES>  (46) 
Cc1cc(C)[nH]/c(=N\c2ccccc2)n1

>  <Energy>  (46) 
35.52370241241416

>  <Genealogy>  (46) 
Cc1cc(C)[nH]/c(=N\c2ccccc2)n1 (cis-trans isomerization)
Cc1cc(C)[nH]/c(=N\c2ccccc2)n1 (3D coordinates assigned)
Cc1cc(C)[nH]/c(=N\c2ccccc2)n1 (optimized conformer: 35.52370241241416 kcal/mol)

>  <smiles>  (46) 
Cc1cc(C)[nH]c(=Nc2ccccc2)n1

>  <score_type>  (46) 
oracle

>  <origin>  (46) 
adg

>  <m_score__min__energy>  (46) 
-6.3300000000000001

>  <m_primary>  (46) 
energy

$$$$
46:0
     RDKit          3D

 38 40  0  0  0  0  0  0  0  0999 V2000
   66.9360   33.8440   50.8700 C   0  0  0  0  0  0  0  0  0  0  0  0
   66.3460   32.7500   49.9760 C   0  0  0  0  0  0  0  0  0  0  0  0
   66.4700   31.3740   50.6380 C   0  0  0  0  0  0  0  0  0  0  0  0
   64.9080   33.0510   49.6600 C   0  0  0  0  0  0  0  0  0  0  0  0
   63.9680   33.3250   50.6040 N   0  0  0  0  0  0  0  0  0  0  0  0
   62.8570   33.5270   49.9180 N   0  0  0  0  0  0  0  0  0  0  0  0
   61.6280   33.8290   50.3890 C   0  0  0  0  0  0  0  0  0  0  0  0
   60.5940   33.9960   49.4570 C   0  0  0  0  0  0  0  0  0  0  0  0
   60.8790   33.8430   48.0720 C   0  0  0  0  0  0  0  0  0  0  0  0
   59.8460   34.0040   47.0760 N   0  0  0  0  0  0  0  0  0  0  0  0
   59.7690   35.2500   46.2990 C   0  0  0  0  0  0  0  0  0  0  0  0
   59.2600   34.9610   44.8840 C   0  0  0  0  0  0  0  0  0  0  0  0
   57.9100   34.2170   44.8730 C   0  0  0  0  0  0  0  0  0  0  0  0
   57.5610   33.5500   46.2140 C   0  0  0  0  0  0  0  0  0  0  0  0
   58.8010   32.9770   46.9090 C   0  0  0  0  0  0  0  0  0  0  0  0
   62.1540   33.5310   47.6790 N   0  0  0  0  0  0  0  0  0  0  0  0
   63.1160   33.3810   48.6190 C   0  0  0  0  0  0  0  0  0  0  0  0
   64.4030   33.0780   48.4000 N   0  0  0  0  0  0  0  0  0  0  0  0
   66.7898   33.5730   51.9260 H   0  0  0  0  0  0  0  0  0  0  0  0
   68.0115   33.9462   50.6631 H   0  0  0  0  0  0  0  0  0  0  0  0
   66.4305   34.7988   50.6631 H   0  0  0  0  0  0  0  0  0  0  0  0
   66.9180   32.7306   49.0366 H   0  0  0  0  0  0  0  0  0  0  0  0
   66.4595   31.4910   51.7317 H   0  0  0  0  0  0  0  0  0  0  0  0
   65.6253   30.7409   50.3288 H   0  0  0  0  0  0  0  0  0  0  0  0
   67.4143   30.9021   50.3288 H   0  0  0  0  0  0  0  0  0  0  0  0
   61.4443   33.9403   51.4678 H   0  0  0  0  0  0  0  0  0  0  0  0
   59.5757   34.2421   49.7925 H   0  0  0  0  0  0  0  0  0  0  0  0
   59.0795   35.9471   46.7977 H   0  0  0  0  0  0  0  0  0  0  0  0
   60.7728   35.6954   46.2351 H   0  0  0  0  0  0  0  0  0  0  0  0
   59.1387   35.9164   44.3526 H   0  0  0  0  0  0  0  0  0  0  0  0
   59.9994   34.3110   44.3933 H   0  0  0  0  0  0  0  0  0  0  0  0
   57.1174   34.9392   44.6277 H   0  0  0  0  0  0  0  0  0  0  0  0
   57.9916   33.4137   44.1260 H   0  0  0  0  0  0  0  0  0  0  0  0
   57.0982   34.2989   46.8735 H   0  0  0  0  0  0  0  0  0  0  0  0
   56.8702   32.7184   46.0107 H   0  0  0  0  0  0  0  0  0  0  0  0
   58.5122   32.5957   47.8996 H   0  0  0  0  0  0  0  0  0  0  0  0
   59.2066   32.1685   46.2830 H   0  0  0  0  0  0  0  0  0  0  0  0
   64.8890   32.9070   47.4920 H   0  0  0  0  0  0  0  0  0  0  0  0
  1  2  1  0
  2  3  1  0
  2  4  1  0
  4  5  2  0
  5  6  1  0
  6  7  1  0
  7  8  2  0
  8  9  1  0
  9 10  1  0
 10 11  1  0
 11 12  1  0
 12 13  1  0
 13 14  1  0
 14 15  1  0
  9 16  2  0
 16 17  1  0
 17 18  2  0
 18  4  1  0
 17  6  1  0
 15 10  1  0
  1 19  1  0
  1 20  1  0
  1 21  1  0
  2 22  1  0
  3 23  1  0
  3 24  1  0
  3 25  1  0
  7 26  1  0
  8 27  1  0
 11 28  1  0
 11 29  1  0
 12 30  1  0
 12 31  1  0
 13 32  1  0
 13 33  1  0
 14 34  1  0
 14 35  1  0
 15 36  1  0
 15 37  1  0
 18 38  1  0
M  CHG  1  18   1
M  END
>  <UniqueID>  (47) 
43

>  <SMILES>  (47) 
CC(C)c1nn2ccc(N3CCCCC3)nc2[nH+]1

>  <Energy>  (47) 
77.90493214937355

>  <Genealogy>  (47) 
CC(C)c1nn2ccc(N3CCCCC3)nc2[nH+]1 (protonated)
CC(C)c1nn2ccc(N3CCCCC3)nc2[nH+]1 (3D coordinates assigned)
CC(C)c1nn2ccc(N3CCCCC3)nc2[nH+]1 (nonaromatic ring conformer: 77.90493214937355 kcal/mol)

>  <smiles>  (47) 
CC(C)c1nc2nc(N3CCCCC3)ccn2n1

>  <score_type>  (47) 
oracle

>  <origin>  (47) 
adg

>  <m_score__min__energy>  (47) 
-5.6699999999999999

>  <m_primary>  (47) 
energy

$$$$
47:0
     RDKit          3D

 36 37  0  0  0  0  0  0  0  0999 V2000
   62.5400   32.1820   47.3200 C   0  0  0  0  0  0  0  0  0  0  0  0
   62.1630   30.8110   47.2500 O   0  0  0  0  0  0  0  0  0  0  0  0
   60.8900   30.3590   46.8730 C   0  0  0  0  0  0  0  0  0  0  0  0
   59.7550   30.5360   47.6860 C   0  0  0  0  0  0  0  0  0  0  0  0
   58.5050   30.0760   47.2600 C   0  0  0  0  0  0  0  0  0  0  0  0
   58.3690   29.4490   46.0140 C   0  0  0  0  0  0  0  0  0  0  0  0
   57.0390   29.0140   45.5530 C   0  0  0  0  0  0  0  0  0  0  0  0
   56.6590   27.8400   45.8040 O   0  0  0  0  0  0  0  0  0  0  0  0
   56.1480   29.9010   44.8610 N   0  0  0  0  0  0  0  0  0  0  0  0
   56.5280   30.8320   43.8010 C   0  0  0  0  0  0  0  0  0  0  0  0
   57.2690   32.0170   44.3630 C   0  0  0  0  0  0  0  0  0  0  0  0
   58.2130   32.7040   43.5820 C   0  0  0  0  0  0  0  0  0  0  0  0
   58.9390   33.7680   44.1250 C   0  0  0  0  0  0  0  0  0  0  0  0
   58.7140   34.1670   45.4460 C   0  0  0  0  0  0  0  0  0  0  0  0
   59.6530   35.5250   46.1470 S   0  0  0  0  0  0  0  0  0  0  0  0
   60.0030   34.6420   47.6980 C   0  0  0  0  0  0  0  0  0  0  0  0
   57.7630   33.4980   46.2250 C   0  0  0  0  0  0  0  0  0  0  0  0
   57.0400   32.4300   45.6860 C   0  0  0  0  0  0  0  0  0  0  0  0
   59.5030   29.2550   45.2120 C   0  0  0  0  0  0  0  0  0  0  0  0
   60.7530   29.7120   45.6400 C   0  0  0  0  0  0  0  0  0  0  0  0
   62.6236   32.4859   48.3739 H   0  0  0  0  0  0  0  0  0  0  0  0
   63.5099   32.3216   46.8201 H   0  0  0  0  0  0  0  0  0  0  0  0
   61.7779   32.7978   46.8201 H   0  0  0  0  0  0  0  0  0  0  0  0
   59.8514   31.0380   48.6600 H   0  0  0  0  0  0  0  0  0  0  0  0
   57.6243   30.2069   47.9059 H   0  0  0  0  0  0  0  0  0  0  0  0
   57.1758   30.3115   43.0803 H   0  0  0  0  0  0  0  0  0  0  0  0
   55.6137   31.1926   43.3071 H   0  0  0  0  0  0  0  0  0  0  0  0
   58.3819   32.4031   42.5375 H   0  0  0  0  0  0  0  0  0  0  0  0
   59.6878   34.2917   43.5126 H   0  0  0  0  0  0  0  0  0  0  0  0
   59.7477   35.2862   48.5523 H   0  0  0  0  0  0  0  0  0  0  0  0
   59.4016   33.7219   47.7399 H   0  0  0  0  0  0  0  0  0  0  0  0
   61.0715   34.3838   47.7399 H   0  0  0  0  0  0  0  0  0  0  0  0
   57.5842   33.8133   47.2636 H   0  0  0  0  0  0  0  0  0  0  0  0
   56.2891   31.9111   46.3000 H   0  0  0  0  0  0  0  0  0  0  0  0
   59.4087   28.7419   44.2436 H   0  0  0  0  0  0  0  0  0  0  0  0
   61.6363   29.5616   45.0020 H   0  0  0  0  0  0  0  0  0  0  0  0
  1  2  1  0
  2  3  1  0
  3  4  2  0
  4  5  1  0
  5  6  2  0
  6  7  1  0
  7  8  2  0
  7  9  1  0
  9 10  1  0
 10 11  1  0
 11 12  2  0
 12 13  1  0
 13 14  2  0
 14 15  1  0
 15 16  1  0
 14 17  1  0
 17 18  2  0
  6 19  1  0
 19 20  2  0
 20  3  1  0
 18 11  1  0
  1 21  1  0
  1 22  1  0
  1 23  1  0
  4 24  1  0
  5 25  1  0
 10 26  1  0
 10 27  1  0
 12 28  1  0
 13 29  1  0
 16 30  1  0
 16 31  1  0
 16 32  1  0
 17 33  1  0
 18 34  1  0
 19 35  1  0
 20 36  1  0
M  CHG  1   9  -1
M  END
>  <UniqueID>  (48) 
44

>  <SMILES>  (48) 
COc1ccc(C(=O)[N-]Cc2ccc(SC)cc2)cc1

>  <Energy>  (48) 
33.3008000034418

>  <Genealogy>  (48) 
COc1ccc(C(=O)[N-]Cc2ccc(SC)cc2)cc1 (protonated)
COc1ccc(C(=O)[N-]Cc2ccc(SC)cc2)cc1 (3D coordinates assigned)
COc1ccc(C(=O)[N-]Cc2ccc(SC)cc2)cc1 (optimized conformer: 33.3008000034418 kcal/mol)

>  <smiles>  (48) 
COc1ccc(C(=O)NCc2ccc(SC)cc2)cc1

>  <score_type>  (48) 
oracle

>  <origin>  (48) 
adg

>  <m_score__min__energy>  (48) 
-8.5500000000000007

>  <m_primary>  (48) 
energy

$$$$
48:0
     RDKit          3D

 36 38  0  0  0  0  0  0  0  0999 V2000
   55.2200   30.0470   43.8090 C   0  0  0  0  0  0  0  0  0  0  0  0
   55.8970   29.2950   44.8100 O   0  0  0  0  0  0  0  0  0  0  0  0
   57.2550   28.9750   44.7150 C   0  0  0  0  0  0  0  0  0  0  0  0
   57.6280   27.9300   43.9230 N   0  0  0  0  0  0  0  0  0  0  0  0
   58.9270   27.5490   43.8030 C   0  0  0  0  0  0  0  0  0  0  0  0
   59.9260   28.2370   44.4880 C   0  0  0  0  0  0  0  0  0  0  0  0
   59.5820   29.3250   45.2850 C   0  0  0  0  0  0  0  0  0  0  0  0
   58.2370   29.7130   45.4110 C   0  0  0  0  0  0  0  0  0  0  0  0
   57.8760   30.8880   46.1590 N   0  0  0  0  0  0  0  0  0  0  0  0
   58.4900   32.1730   45.9590 C   0  0  0  0  0  0  0  0  0  0  0  0
   58.4660   32.8090   44.6940 C   0  0  0  0  0  0  0  0  0  0  0  0
   57.8190   32.1650   43.4960 C   0  0  0  0  0  0  0  0  0  0  0  0
   59.0450   34.0810   44.5490 C   0  0  0  0  0  0  0  0  0  0  0  0
   59.6820   34.7030   45.6220 C   0  0  0  0  0  0  0  0  0  0  0  0
   59.7460   34.0640   46.8660 C   0  0  0  0  0  0  0  0  0  0  0  0
   60.3880   34.6660   47.9560 C   0  0  0  0  0  0  0  0  0  0  0  0
   60.4280   34.0110   49.1880 C   0  0  0  0  0  0  0  0  0  0  0  0
   59.8250   32.7590   49.3180 C   0  0  0  0  0  0  0  0  0  0  0  0
   59.2060   32.1850   48.2530 N   0  0  0  0  0  0  0  0  0  0  0  0
   59.1510   32.7940   47.0360 C   0  0  0  0  0  0  0  0  0  0  0  0
   54.5576   30.7828   44.2884 H   0  0  0  0  0  0  0  0  0  0  0  0
   55.9571   30.5706   43.1825 H   0  0  0  0  0  0  0  0  0  0  0  0
   54.6221   29.3688   43.1825 H   0  0  0  0  0  0  0  0  0  0  0  0
   56.8950   27.3970   43.4020 H   0  0  0  0  0  0  0  0  0  0  0  0
   59.1905   26.6943   43.1627 H   0  0  0  0  0  0  0  0  0  0  0  0
   60.9767   27.9234   44.3999 H   0  0  0  0  0  0  0  0  0  0  0  0
   60.3656   29.8832   45.8182 H   0  0  0  0  0  0  0  0  0  0  0  0
   57.0220   30.8460   46.7590 H   0  0  0  0  0  0  0  0  0  0  0  0
   57.0768   31.4263   43.8329 H   0  0  0  0  0  0  0  0  0  0  0  0
   57.3202   32.9357   42.8901 H   0  0  0  0  0  0  0  0  0  0  0  0
   58.5874   31.6626   42.8901 H   0  0  0  0  0  0  0  0  0  0  0  0
   58.9951   34.5926   43.5765 H   0  0  0  0  0  0  0  0  0  0  0  0
   60.1348   35.6969   45.4910 H   0  0  0  0  0  0  0  0  0  0  0  0
   60.8597   35.6531   47.8412 H   0  0  0  0  0  0  0  0  0  0  0  0
   60.9301   34.4773   50.0485 H   0  0  0  0  0  0  0  0  0  0  0  0
   59.8509   32.2355   50.2851 H   0  0  0  0  0  0  0  0  0  0  0  0
  1  2  1  0
  2  3  1  0
  3  4  2  0
  4  5  1  0
  5  6  2  0
  6  7  1  0
  7  8  2  0
  8  9  1  0
  9 10  1  0
 10 11  2  0
 11 12  1  0
 11 13  1  0
 13 14  2  0
 14 15  1  0
 15 16  2  0
 16 17  1  0
 17 18  2  0
 18 19  1  0
 19 20  2  0
  8  3  1  0
 20 10  1  0
 20 15  1  0
  1 21  1  0
  1 22  1  0
  1 23  1  0
  4 24  1  0
  5 25  1  0
  6 26  1  0
  7 27  1  0
  9 28  1  0
 12 29  1  0
 12 30  1  0
 12 31  1  0
 13 32  1  0
 14 33  1  0
 16 34  1  0
 17 35  1  0
 18 36  1  0
M  CHG  1   4   1
M  END
>  <UniqueID>  (49) 
45

>  <SMILES>  (49) 
COc1[nH+]cccc1Nc1c(C)ccc2cccnc12

>  <Energy>  (49) 
54.84456404159785

>  <Genealogy>  (49) 
COc1[nH+]cccc1Nc1c(C)ccc2cccnc12 (protonated)
COc1[nH+]cccc1Nc1c(C)ccc2cccnc12 (3D coordinates assigned)
COc1[nH+]cccc1Nc1c(C)ccc2cccnc12 (optimized conformer: 54.84456404159785 kcal/mol)

>  <smiles>  (49) 
COc1ncccc1Nc1c(C)ccc2cccnc12

>  <score_type>  (49) 
oracle

>  <origin>  (49) 
adg

>  <m_score__min__energy>  (49) 
-5.8099999999999996

>  <m_primary>  (49) 
energy

$$$$
49:0
     RDKit          3D

 31 32  0  0  0  0  0  0  0  0999 V2000
   57.0240   31.2140   42.3150 C   0  0  0  0  0  0  0  0  0  0  0  0
   57.8030   32.2830   43.0800 C   0  0  0  0  0  0  0  0  0  0  0  0
   57.8010   32.0000   44.5260 N   0  0  0  0  0  0  0  0  0  0  0  0
   57.6070   33.1400   45.4390 C   0  0  0  0  0  0  0  0  0  0  0  0
   58.5710   34.2770   45.1040 C   0  0  0  0  0  0  0  0  0  0  0  0
   57.9850   30.6470   45.0330 C   0  0  0  0  0  0  0  0  0  0  0  0
   59.2460   30.2100   45.4980 C   0  0  0  0  0  0  0  0  0  0  0  0
   59.4270   28.9120   45.9850 C   0  0  0  0  0  0  0  0  0  0  0  0
   58.3510   28.0210   46.0210 C   0  0  0  0  0  0  0  0  0  0  0  0
   58.4960   26.7160   46.5010 C   0  0  0  0  0  0  0  0  0  0  0  0
   57.3900   25.8660   46.5160 C   0  0  0  0  0  0  0  0  0  0  0  0
   56.1620   26.3440   46.0480 C   0  0  0  0  0  0  0  0  0  0  0  0
   55.1510   25.5940   46.0520 O   0  0  0  0  0  0  0  0  0  0  0  0
   56.0540   27.5910   45.5940 O   0  0  0  0  0  0  0  0  0  0  0  0
   57.0840   28.4340   45.5630 C   0  0  0  0  0  0  0  0  0  0  0  0
   56.9080   29.7330   45.0760 C   0  0  0  0  0  0  0  0  0  0  0  0
   56.5313   30.5379   43.0292 H   0  0  0  0  0  0  0  0  0  0  0  0
   56.2641   31.6962   41.6825 H   0  0  0  0  0  0  0  0  0  0  0  0
   57.7158   30.6383   41.6825 H   0  0  0  0  0  0  0  0  0  0  0  0
   58.8415   32.3005   42.7177 H   0  0  0  0  0  0  0  0  0  0  0  0
   57.3213   33.2575   42.9116 H   0  0  0  0  0  0  0  0  0  0  0  0
   56.5735   33.5047   45.3452 H   0  0  0  0  0  0  0  0  0  0  0  0
   57.8040   32.8039   46.4677 H   0  0  0  0  0  0  0  0  0  0  0  0
   58.9494   34.7233   46.0355 H   0  0  0  0  0  0  0  0  0  0  0  0
   59.4139   33.8823   44.5177 H   0  0  0  0  0  0  0  0  0  0  0  0
   58.0438   35.0440   44.5177 H   0  0  0  0  0  0  0  0  0  0  0  0
   60.0999   30.9031   45.4764 H   0  0  0  0  0  0  0  0  0  0  0  0
   60.4176   28.5917   46.3403 H   0  0  0  0  0  0  0  0  0  0  0  0
   59.4727   26.3629   46.8633 H   0  0  0  0  0  0  0  0  0  0  0  0
   57.4824   24.8357   46.8902 H   0  0  0  0  0  0  0  0  0  0  0  0
   55.9158   30.0483   44.7209 H   0  0  0  0  0  0  0  0  0  0  0  0
  1  2  1  0
  2  3  1  0
  3  4  1  0
  4  5  1  0
  3  6  1  0
  6  7  2  0
  7  8  1  0
  8  9  2  0
  9 10  1  0
 10 11  2  0
 11 12  1  0
 12 13  2  0
 12 14  1  0
 14 15  1  0
 15 16  2  0
 16  6  1  0
 15  9  1  0
  1 17  1  0
  1 18  1  0
  1 19  1  0
  2 20  1  0
  2 21  1  0
  4 22  1  0
  4 23  1  0
  5 24  1  0
  5 25  1  0
  5 26  1  0
  7 27  1  0
  8 28  1  0
 10 29  1  0
 11 30  1  0
 16 31  1  0
M  END
>  <UniqueID>  (50) 
46

>  <SMILES>  (50) 
CCN(CC)c1ccc2ccc(=O)oc2c1

>  <Energy>  (50) 
34.065552599178766

>  <Genealogy>  (50) 
CCN(CC)c1ccc2ccc(=O)oc2c1 (3D coordinates assigned)
CCN(CC)c1ccc2ccc(=O)oc2c1 (optimized conformer: 34.065552599178766 kcal/mol)

>  <smiles>  (50) 
CCN(CC)c1ccc2ccc(=O)oc2c1

>  <score_type>  (50) 
oracle

>  <origin>  (50) 
adg

>  <m_score__min__energy>  (50) 
-6.3799999999999999

>  <m_primary>  (50) 
energy

$$$$
50:0
     RDKit          3D

 41 43  0  0  1  0  0  0  0  0999 V2000
   67.4610   34.0970   51.7550 C   0  0  0  0  0  0  0  0  0  0  0  0
   66.2190   33.4040   51.4580 N   0  0  0  0  0  0  0  0  0  0  0  0
   65.1380   34.3240   51.5890 C   0  0  0  0  0  0  0  0  0  0  0  0
   63.8050   33.7680   51.1500 C   0  0  0  0  0  0  0  0  0  0  0  0
   63.9860   33.0300   49.8990 N   0  0  0  0  0  0  0  0  0  0  0  0
   63.2410   33.3120   48.7260 C   0  0  0  0  0  0  0  0  0  0  0  0
   61.9430   33.6000   48.7090 N   0  0  0  0  0  0  0  0  0  0  0  0
   61.3370   33.8540   47.5400 C   0  0  0  0  0  0  0  0  0  0  0  0
   60.0760   34.1220   47.5690 N   0  0  0  0  0  0  0  0  0  0  0  0
   59.2260   33.4590   46.6520 C   0  0  0  0  0  0  0  0  0  0  0  0
   59.1840   32.0720   46.6920 C   0  0  0  0  0  0  0  0  0  0  0  0
   58.4020   31.3230   45.8510 C   0  0  0  0  0  0  0  0  0  0  0  0
   57.6220   31.9810   44.9220 C   0  0  0  0  0  0  0  0  0  0  0  0
   56.8160   31.1980   44.0510 N   0  0  0  0  0  0  0  0  0  0  0  0
   56.9880   31.1740   42.8140 O   0  0  0  0  0  0  0  0  0  0  0  0
   55.7780   30.4030   44.5240 O   0  0  0  0  0  0  0  0  0  0  0  0
   57.6470   33.3690   44.8620 C   0  0  0  0  0  0  0  0  0  0  0  0
   58.4460   34.1130   45.7240 C   0  0  0  0  0  0  0  0  0  0  0  0
   62.0350   33.8210   46.3740 C   0  0  0  0  0  0  0  0  0  0  0  0
   63.3880   33.5230   46.3690 C   0  0  0  0  0  0  0  0  0  0  0  0
   63.9540   33.2760   47.5590 N   0  0  0  0  0  0  0  0  0  0  0  0
   65.0020   31.9710   49.9530 C   0  0  0  0  0  0  0  0  0  0  0  0
   66.3050   32.6950   50.2210 C   0  0  0  0  0  0  0  0  0  0  0  0
   67.5893   34.1686   52.8451 H   0  0  0  0  0  0  0  0  0  0  0  0
   68.3046   33.5392   51.3224 H   0  0  0  0  0  0  0  0  0  0  0  0
   67.4294   35.1079   51.3224 H   0  0  0  0  0  0  0  0  0  0  0  0
   65.0595   34.6179   52.6461 H   0  0  0  0  0  0  0  0  0  0  0  0
   65.3617   35.1754   50.9294 H   0  0  0  0  0  0  0  0  0  0  0  0
   63.4144   33.0913   51.9243 H   0  0  0  0  0  0  0  0  0  0  0  0
   63.0912   34.5907   50.9966 H   0  0  0  0  0  0  0  0  0  0  0  0
   59.8071   31.5496   47.4329 H   0  0  0  0  0  0  0  0  0  0  0  0
   58.3965   30.2249   45.9152 H   0  0  0  0  0  0  0  0  0  0  0  0
   57.0237   33.8888   44.1195 H   0  0  0  0  0  0  0  0  0  0  0  0
   58.4548   35.2114   45.6652 H   0  0  0  0  0  0  0  0  0  0  0  0
   61.5205   34.0330   45.4251 H   0  0  0  0  0  0  0  0  0  0  0  0
   63.9688   33.4907   45.4354 H   0  0  0  0  0  0  0  0  0  0  0  0
   64.9910   33.0470   47.5720 H   0  0  0  0  0  0  0  0  0  0  0  0
   64.7793   31.2619   50.7639 H   0  0  0  0  0  0  0  0  0  0  0  0
   65.0380   31.3836   49.0236 H   0  0  0  0  0  0  0  0  0  0  0  0
   67.1247   31.9635   50.2756 H   0  0  0  0  0  0  0  0  0  0  0  0
   66.4984   33.4083   49.4062 H   0  0  0  0  0  0  0  0  0  0  0  0
  1  2  1  0
  2  3  1  0
  3  4  1  0
  4  5  1  0
  5  6  1  0
  6  7  2  0
  7  8  1  0
  8  9  2  0
  9 10  1  0
 10 11  2  0
 11 12  1  0
 12 13  2  0
 13 14  1  0
 14 15  2  0
 14 16  1  0
 13 17  1  0
 17 18  2  0
  8 19  1  0
 19 20  2  0
 20 21  1  0
  5 22  1  0
 22 23  1  0
 23  2  1  0
 21  6  1  0
 18 10  1  0
  1 24  1  0
  1 25  1  0
  1 26  1  0
  3 27  1  0
  3 28  1  0
  4 29  1  0
  4 30  1  0
 11 31  1  0
 12 32  1  0
 17 33  1  0
 18 34  1  0
 19 35  1  0
 20 36  1  0
 21 37  1  0
 22 38  1  0
 22 39  1  0
 23 40  1  0
 23 41  1  0
M  CHG  2  14   1  16  -1
M  END
>  <smiles>  (51) 
CN1CCN(c2nc(=Nc3ccc([N+](=O)[O-])cc3)cc[nH]2)CC1

>  <score_type>  (51) 
oracle

>  <origin>  (51) 
adg

>  <m_score__min__energy>  (51) 
-7.6600000000000001

>  <m_primary>  (51) 
energy

$$$$
51:0
     RDKit          3D

 33 35  0  0  0  0  0  0  0  0999 V2000
   56.3670   30.1580   43.5310 C   0  0  0  0  0  0  0  0  0  0  0  0
   56.4500   30.7650   44.8170 O   0  0  0  0  0  0  0  0  0  0  0  0
   57.4030   31.7290   45.1820 C   0  0  0  0  0  0  0  0  0  0  0  0
   57.1480   33.1100   45.0780 C   0  0  0  0  0  0  0  0  0  0  0  0
   58.1220   34.0390   45.4520 C   0  0  0  0  0  0  0  0  0  0  0  0
   59.3630   33.6080   45.9420 C   0  0  0  0  0  0  0  0  0  0  0  0
   60.4290   34.6050   46.3050 C   0  0  0  0  0  0  0  0  0  0  0  0
   61.5760   33.9110   46.9770 C   0  0  0  0  0  0  0  0  0  0  0  0
   62.7930   33.5730   46.3930 C   0  0  0  0  0  0  0  0  0  0  0  0
   63.6270   33.0420   47.3150 N   0  0  0  0  0  0  0  0  0  0  0  0
   62.9530   33.0530   48.4770 C   0  0  0  0  0  0  0  0  0  0  0  0
   63.4100   32.6240   49.7220 C   0  0  0  0  0  0  0  0  0  0  0  0
   62.5390   32.7470   50.8210 C   0  0  0  0  0  0  0  0  0  0  0  0
   61.2470   33.2920   50.6530 C   0  0  0  0  0  0  0  0  0  0  0  0
   60.0800   33.4540   52.1560 Br  0  0  0  0  0  0  0  0  0  0  0  0
   60.8130   33.7190   49.3830 C   0  0  0  0  0  0  0  0  0  0  0  0
   61.6980   33.5810   48.3130 C   0  0  0  0  0  0  0  0  0  0  0  0
   59.6220   32.2320   46.0380 C   0  0  0  0  0  0  0  0  0  0  0  0
   58.6490   31.2990   45.6650 C   0  0  0  0  0  0  0  0  0  0  0  0
   59.0430   29.4320   45.8150 Br  0  0  0  0  0  0  0  0  0  0  0  0
   56.2188   29.0741   43.6460 H   0  0  0  0  0  0  0  0  0  0  0  0
   55.5192   30.5873   42.9770 H   0  0  0  0  0  0  0  0  0  0  0  0
   57.2989   30.3439   42.9770 H   0  0  0  0  0  0  0  0  0  0  0  0
   56.1759   33.4594   44.6999 H   0  0  0  0  0  0  0  0  0  0  0  0
   57.9140   35.1154   45.3615 H   0  0  0  0  0  0  0  0  0  0  0  0
   60.7888   35.1017   45.3918 H   0  0  0  0  0  0  0  0  0  0  0  0
   60.0053   35.3503   46.9942 H   0  0  0  0  0  0  0  0  0  0  0  0
   63.0413   33.7175   45.3312 H   0  0  0  0  0  0  0  0  0  0  0  0
   64.6040   32.7080   47.1540 H   0  0  0  0  0  0  0  0  0  0  0  0
   64.4191   32.2028   49.8419 H   0  0  0  0  0  0  0  0  0  0  0  0
   62.8670   32.4163   51.8175 H   0  0  0  0  0  0  0  0  0  0  0  0
   59.8099   34.1470   49.2394 H   0  0  0  0  0  0  0  0  0  0  0  0
   60.5974   31.8847   46.4093 H   0  0  0  0  0  0  0  0  0  0  0  0
  1  2  1  0
  2  3  1  0
  3  4  2  0
  4  5  1  0
  5  6  2  0
  6  7  1  0
  7  8  1  0
  8  9  2  0
  9 10  1  0
 10 11  1  0
 11 12  2  0
 12 13  1  0
 13 14  2  0
 14 15  1  0
 14 16  1  0
 16 17  2  0
  6 18  1  0
 18 19  2  0
 19 20  1  0
 19  3  1  0
 17  8  1  0
 17 11  1  0
  1 21  1  0
  1 22  1  0
  1 23  1  0
  4 24  1  0
  5 25  1  0
  7 26  1  0
  7 27  1  0
  9 28  1  0
 10 29  1  0
 12 30  1  0
 13 31  1  0
 16 32  1  0
 18 33  1  0
M  END
>  <UniqueID>  (52) 
47

>  <SMILES>  (52) 
COc1ccc(Cc2c[nH]c3ccc(Br)cc23)cc1Br

>  <Energy>  (52) 
65.53841448313385

>  <Genealogy>  (52) 
COc1ccc(Cc2c[nH]c3ccc(Br)cc23)cc1Br (3D coordinates assigned)
COc1ccc(Cc2c[nH]c3ccc(Br)cc23)cc1Br (optimized conformer: 65.53841448313385 kcal/mol)

>  <smiles>  (52) 
COc1ccc(Cc2c[nH]c3ccc(Br)cc23)cc1Br

>  <score_type>  (52) 
oracle

>  <origin>  (52) 
adg

>  <m_score__min__energy>  (52) 
-8.0700000000000003

>  <m_primary>  (52) 
energy

$$$$
52:0
     RDKit          3D

 27 29  0  0  1  0  0  0  0  0999 V2000
   56.9580   24.3850   44.2960 C   0  0  0  0  0  0  0  0  0  0  0  0
   55.8700   24.2820   45.1540 C   0  0  0  0  0  0  0  0  0  0  0  0
   55.5340   25.2560   46.0180 N   0  0  0  0  0  0  0  0  0  0  0  0
   56.2650   26.3810   46.0680 C   0  0  0  0  0  0  0  0  0  0  0  0
   57.3880   26.5530   45.2230 C   0  0  0  0  0  0  0  0  0  0  0  0
   58.0440   27.7320   45.2100 N   0  0  0  0  0  0  0  0  0  0  0  0
   57.6670   28.8880   45.0290 C   0  0  0  0  0  0  0  0  0  0  0  0
   56.5540   29.0840   44.2620 N   0  0  0  0  0  0  0  0  0  0  0  0
   56.0400   30.2830   43.9880 C   0  0  0  0  0  0  0  0  0  0  0  0
   56.6500   31.3610   44.4920 N   0  0  0  0  0  0  0  0  0  0  0  0
   57.7480   31.2070   45.2520 C   0  0  0  0  0  0  0  0  0  0  0  0
   58.3290   32.3530   45.7410 C   0  0  0  0  0  0  0  0  0  0  0  0
   59.4500   32.2020   46.5170 C   0  0  0  0  0  0  0  0  0  0  0  0
   60.0340   31.0170   46.8420 C   0  0  0  0  0  0  0  0  0  0  0  0
   59.4190   29.8600   46.3280 C   0  0  0  0  0  0  0  0  0  0  0  0
   58.3030   29.9740   45.5540 C   0  0  0  0  0  0  0  0  0  0  0  0
   57.7400   25.5390   44.3230 C   0  0  0  0  0  0  0  0  0  0  0  0
   57.1997   23.5654   43.6033 H   0  0  0  0  0  0  0  0  0  0  0  0
   55.2594   23.3675   45.1253 H   0  0  0  0  0  0  0  0  0  0  0  0
   55.9883   27.1783   46.7735 H   0  0  0  0  0  0  0  0  0  0  0  0
   56.0400   28.2550   43.8430 H   0  0  0  0  0  0  0  0  0  0  0  0
   55.1392   30.3829   43.3647 H   0  0  0  0  0  0  0  0  0  0  0  0
   57.9133   33.3471   45.5198 H   0  0  0  0  0  0  0  0  0  0  0  0
   59.9166   33.1173   46.9101 H   0  0  0  0  0  0  0  0  0  0  0  0
   60.9353   30.9660   47.4705 H   0  0  0  0  0  0  0  0  0  0  0  0
   59.8376   28.8673   46.5502 H   0  0  0  0  0  0  0  0  0  0  0  0
   58.6083   25.6499   43.6568 H   0  0  0  0  0  0  0  0  0  0  0  0
  1  2  2  0
  2  3  1  0
  3  4  2  0
  4  5  1  0
  5  6  1  0
  6  7  2  0
  7  8  1  0
  8  9  1  0
  9 10  2  0
 10 11  1  0
 11 12  2  0
 12 13  1  0
 13 14  2  0
 14 15  1  0
 15 16  2  0
  5 17  2  0
 17  1  1  0
 16  7  1  0
 16 11  1  0
  1 18  1  0
  2 19  1  0
  4 20  1  0
  8 21  1  0
  9 22  1  0
 12 23  1  0
 13 24  1  0
 14 25  1  0
 15 26  1  0
 17 27  1  0
M  END
>  <smiles>  (53) 
c1cncc(N=c2[nH]cnc3ccccc23)c1

>  <score_type>  (53) 
oracle

>  <origin>  (53) 
adg

>  <m_score__min__energy>  (53) 
-6.25

>  <m_primary>  (53) 
energy

$$$$
53:0
     RDKit          3D

 24 25  0  0  0  0  0  0  0  0999 V2000
   56.9420   27.2940   45.9890 C   0  0  0  0  0  0  0  0  0  0  0  0
   57.3240   28.4930   45.1920 C   0  0  0  0  0  0  0  0  0  0  0  0
   58.2840   28.4960   44.2440 N   0  0  0  0  0  0  0  0  0  0  0  0
   58.2940   29.7260   43.7600 N   0  0  0  0  0  0  0  0  0  0  0  0
   57.3510   30.4260   44.4160 C   0  0  0  0  0  0  0  0  0  0  0  0
   57.0100   31.8550   44.1450 C   0  0  0  0  0  0  0  0  0  0  0  0
   57.8190   32.7530   45.0370 C   0  0  0  0  0  0  0  0  0  0  0  0
   57.8010   32.5710   46.4310 C   0  0  0  0  0  0  0  0  0  0  0  0
   58.5270   33.4300   47.2630 C   0  0  0  0  0  0  0  0  0  0  0  0
   59.2650   34.4810   46.7120 C   0  0  0  0  0  0  0  0  0  0  0  0
   59.9670   35.3140   47.5210 F   0  0  0  0  0  0  0  0  0  0  0  0
   59.2760   34.6770   45.3280 C   0  0  0  0  0  0  0  0  0  0  0  0
   58.5520   33.8220   44.4920 C   0  0  0  0  0  0  0  0  0  0  0  0
   56.7430   29.6680   45.2970 O   0  0  0  0  0  0  0  0  0  0  0  0
   57.0164   27.5276   47.0613 H   0  0  0  0  0  0  0  0  0  0  0  0
   55.9080   27.0071   45.7471 H   0  0  0  0  0  0  0  0  0  0  0  0
   57.6195   26.4618   45.7471 H   0  0  0  0  0  0  0  0  0  0  0  0
   58.9220   30.0660   42.9990 H   0  0  0  0  0  0  0  0  0  0  0  0
   57.2321   32.0896   43.0935 H   0  0  0  0  0  0  0  0  0  0  0  0
   55.9402   32.0156   44.3445 H   0  0  0  0  0  0  0  0  0  0  0  0
   57.2140   31.7503   46.8690 H   0  0  0  0  0  0  0  0  0  0  0  0
   58.5169   33.2779   48.3524 H   0  0  0  0  0  0  0  0  0  0  0  0
   59.8557   35.5059   44.8958 H   0  0  0  0  0  0  0  0  0  0  0  0
   58.5557   33.9860   43.4043 H   0  0  0  0  0  0  0  0  0  0  0  0
  1  2  1  0
  2  3  2  0
  3  4  1  0
  4  5  2  0
  5  6  1  0
  6  7  1  0
  7  8  2  0
  8  9  1  0
  9 10  2  0
 10 11  1  0
 10 12  1  0
 12 13  2  0
  5 14  1  0
 14  2  1  0
 13  7  1  0
  1 15  1  0
  1 16  1  0
  1 17  1  0
  4 18  1  0
  6 19  1  0
  6 20  1  0
  8 21  1  0
  9 22  1  0
 12 23  1  0
 13 24  1  0
M  CHG  1   4   1
M  END
>  <UniqueID>  (54) 
48

>  <SMILES>  (54) 
Cc1n[nH+]c(Cc2ccc(F)cc2)o1

>  <Energy>  (54) 
55.912837443986646

>  <Genealogy>  (54) 
Cc1n[nH+]c(Cc2ccc(F)cc2)o1 (protonated)
Cc1n[nH+]c(Cc2ccc(F)cc2)o1 (3D coordinates assigned)
Cc1n[nH+]c(Cc2ccc(F)cc2)o1 (optimized conformer: 55.912837443986646 kcal/mol)

>  <smiles>  (54) 
Cc1nnc(Cc2ccc(F)cc2)o1

>  <score_type>  (54) 
oracle

>  <origin>  (54) 
adg

>  <m_score__min__energy>  (54) 
-4.2199999999999998

>  <m_primary>  (54) 
energy

$$$$
54:0
     RDKit          3D

 50 54  0  0  0  0  0  0  0  0999 V2000
   61.0620   27.2860   50.3430 C   0  0  0  0  0  0  0  0  0  0  0  0
   60.4920   28.3520   49.4550 C   0  0  0  0  0  0  0  0  0  0  0  0
   60.8610   29.7040   49.6460 C   0  0  0  0  0  0  0  0  0  0  0  0
   60.3140   30.7160   48.8420 C   0  0  0  0  0  0  0  0  0  0  0  0
   59.3770   30.3530   47.8710 C   0  0  0  0  0  0  0  0  0  0  0  0
   58.6760   31.0970   46.9420 C   0  0  0  0  0  0  0  0  0  0  0  0
   58.6000   32.4800   46.7270 C   0  0  0  0  0  0  0  0  0  0  0  0
   59.2650   33.4020   47.5380 O   0  0  0  0  0  0  0  0  0  0  0  0
   60.6330   33.3310   47.8430 C   0  0  0  0  0  0  0  0  0  0  0  0
   61.5230   32.9000   46.8370 C   0  0  0  0  0  0  0  0  0  0  0  0
   62.9010   32.7950   47.0900 C   0  0  0  0  0  0  0  0  0  0  0  0
   63.3730   33.1270   48.3580 C   0  0  0  0  0  0  0  0  0  0  0  0
   62.5060   33.5540   49.3420 C   0  0  0  0  0  0  0  0  0  0  0  0
   61.1360   33.6700   49.1210 C   0  0  0  0  0  0  0  0  0  0  0  0
   63.2900   33.8140   50.5220 C   0  0  0  0  0  0  0  0  0  0  0  0
   62.8480   34.2200   51.6290 O   0  0  0  0  0  0  0  0  0  0  0  0
   64.6600   33.5420   50.2500 N   0  0  0  0  0  0  0  0  0  0  0  0
   65.7560   33.6870   51.1990 C   0  0  0  0  0  0  0  0  0  0  0  0
   64.7890   33.0910   48.8620 C   0  0  0  0  0  0  0  0  0  0  0  0
   57.8010   32.9380   45.6710 C   0  0  0  0  0  0  0  0  0  0  0  0
   57.0870   32.0320   44.8670 C   0  0  0  0  0  0  0  0  0  0  0  0
   57.1560   30.6420   45.0940 C   0  0  0  0  0  0  0  0  0  0  0  0
   56.5030   29.7480   44.1230 C   0  0  0  0  0  0  0  0  0  0  0  0
   55.3460   29.0070   44.5040 N   0  0  0  0  0  0  0  0  0  0  0  0
   56.9170   29.6880   42.9350 O   0  0  0  0  0  0  0  0  0  0  0  0
   57.9420   30.1910   46.1840 C   0  0  0  0  0  0  0  0  0  0  0  0
   58.1040   28.9260   46.6700 N   0  0  0  0  0  0  0  0  0  0  0  0
   57.4090   27.6970   46.2770 C   0  0  0  0  0  0  0  0  0  0  0  0
   59.0050   29.0390   47.6780 C   0  0  0  0  0  0  0  0  0  0  0  0
   59.5450   28.0140   48.4660 C   0  0  0  0  0  0  0  0  0  0  0  0
   60.9118   27.5669   51.3959 H   0  0  0  0  0  0  0  0  0  0  0  0
   60.5541   26.3312   50.1422 H   0  0  0  0  0  0  0  0  0  0  0  0
   62.1381   27.1782   50.1422 H   0  0  0  0  0  0  0  0  0  0  0  0
   61.5841   29.9650   50.4328 H   0  0  0  0  0  0  0  0  0  0  0  0
   60.6146   31.7660   48.9726 H   0  0  0  0  0  0  0  0  0  0  0  0
   61.1329   32.6427   45.8412 H   0  0  0  0  0  0  0  0  0  0  0  0
   63.5924   32.4579   46.3037 H   0  0  0  0  0  0  0  0  0  0  0  0
   60.4627   34.0161   49.9191 H   0  0  0  0  0  0  0  0  0  0  0  0
   65.3621   33.6349   52.2248 H   0  0  0  0  0  0  0  0  0  0  0  0
   66.4844   32.8774   51.0444 H   0  0  0  0  0  0  0  0  0  0  0  0
   66.2489   34.6582   51.0444 H   0  0  0  0  0  0  0  0  0  0  0  0
   65.4312   33.7716   48.2838 H   0  0  0  0  0  0  0  0  0  0  0  0
   65.2547   32.0986   48.7717 H   0  0  0  0  0  0  0  0  0  0  0  0
   57.7316   34.0171   45.4690 H   0  0  0  0  0  0  0  0  0  0  0  0
   56.4631   32.4146   44.0458 H   0  0  0  0  0  0  0  0  0  0  0  0
   54.6930   29.3700   45.2320 H   0  0  0  0  0  0  0  0  0  0  0  0
   57.0982   27.1475   47.1778 H   0  0  0  0  0  0  0  0  0  0  0  0
   56.5218   27.9527   45.6791 H   0  0  0  0  0  0  0  0  0  0  0  0
   58.0854   27.0685   45.6791 H   0  0  0  0  0  0  0  0  0  0  0  0
   59.2371   26.9686   48.3166 H   0  0  0  0  0  0  0  0  0  0  0  0
  1  2  1  0
  2  3  2  0
  3  4  1  0
  4  5  2  0
  5  6  1  0
  6  7  2  0
  7  8  1  0
  8  9  1  0
  9 10  2  0
 10 11  1  0
 11 12  2  0
 12 13  1  0
 13 14  2  0
 13 15  1  0
 15 16  2  0
 15 17  1  0
 17 18  1  0
 17 19  1  0
  7 20  1  0
 20 21  2  0
 21 22  1  0
 22 23  1  0
 23 24  1  0
 23 25  2  0
 22 26  2  0
 26 27  1  0
 27 28  1  0
 27 29  1  0
 29 30  2  0
 30  2  1  0
 29  5  1  0
 26  6  1  0
 14  9  1  0
 19 12  1  0
  1 31  1  0
  1 32  1  0
  1 33  1  0
  3 34  1  0
  4 35  1  0
 10 36  1  0
 11 37  1  0
 14 38  1  0
 18 39  1  0
 18 40  1  0
 18 41  1  0
 19 42  1  0
 19 43  1  0
 20 44  1  0
 21 45  1  0
 24 46  1  0
 28 47  1  0
 28 48  1  0
 28 49  1  0
 30 50  1  0
M  CHG  1  24  -1
M  END
>  <UniqueID>  (55) 
49

>  <SMILES>  (55) 
Cc1ccc2c3c(Oc4ccc5c(c4)C(=O)N(C)C5)ccc(C([NH-])=O)c3n(C)c2c1

>  <Energy>  (55) 
133.41433488579702

>  <Genealogy>  (55) 
Cc1ccc2c3c(Oc4ccc5c(c4)C(=O)N(C)C5)ccc(C([NH-])=O)c3n(C)c2c1 (protonated)
Cc1ccc2c3c(Oc4ccc5c(c4)C(=O)N(C)C5)ccc(C([NH-])=O)c3n(C)c2c1 (3D coordinates assigned)
Cc1ccc2c3c(Oc4ccc5c(c4)C(=O)N(C)C5)ccc(C([NH-])=O)c3n(C)c2c1 (nonaromatic ring conformer: 133.41433488579702 kcal/mol)

>  <smiles>  (55) 
Cc1ccc2c3c(Oc4ccc5c(c4)C(=O)N(C)C5)ccc(C(N)=O)c3n(C)c2c1

>  <score_type>  (55) 
oracle

>  <origin>  (55) 
adg

>  <m_score__min__energy>  (55) 
-11.02

>  <m_primary>  (55) 
energy

$$$$
55:0
     RDKit          3D

 57 62  0  0  0  0  0  0  0  0999 V2000
   61.0270   34.6760   48.9880 O   0  0  0  0  0  0  0  0  0  0  0  0
   61.0870   33.4220   48.8660 C   0  0  0  0  0  0  0  0  0  0  0  0
   62.0080   32.7560   49.6710 C   0  0  0  0  0  0  0  0  0  0  0  0
   62.2870   31.3850   49.7640 C   0  0  0  0  0  0  0  0  0  0  0  0
   63.3820   30.9490   50.6700 C   0  0  0  0  0  0  0  0  0  0  0  0
   64.6400   31.5840   50.6480 C   0  0  0  0  0  0  0  0  0  0  0  0
   65.6670   31.1510   51.4930 C   0  0  0  0  0  0  0  0  0  0  0  0
   65.4550   30.0780   52.3630 C   0  0  0  0  0  0  0  0  0  0  0  0
   66.4760   29.6510   53.2020 O   0  0  0  0  0  0  0  0  0  0  0  0
   64.2150   29.4330   52.3860 C   0  0  0  0  0  0  0  0  0  0  0  0
   63.1860   29.8620   51.5420 C   0  0  0  0  0  0  0  0  0  0  0  0
   61.5750   30.3960   49.1690 N   0  0  0  0  0  0  0  0  0  0  0  0
   60.5660   30.3620   48.2690 C   0  0  0  0  0  0  0  0  0  0  0  0
   60.0070   29.0210   48.0070 C   0  0  0  0  0  0  0  0  0  0  0  0
   60.8440   27.9790   47.5830 C   0  0  0  0  0  0  0  0  0  0  0  0
   60.3050   26.7330   47.2540 C   0  0  0  0  0  0  0  0  0  0  0  0
   58.9230   26.5010   47.3710 C   0  0  0  0  0  0  0  0  0  0  0  0
   58.3390   25.2040   46.9500 C   0  0  0  0  0  0  0  0  0  0  0  0
   57.1980   24.6890   47.5910 C   0  0  0  0  0  0  0  0  0  0  0  0
   56.6430   23.4730   47.1780 C   0  0  0  0  0  0  0  0  0  0  0  0
   57.2180   22.7630   46.1220 C   0  0  0  0  0  0  0  0  0  0  0  0
   58.3500   23.2670   45.4760 C   0  0  0  0  0  0  0  0  0  0  0  0
   58.9090   24.4800   45.8850 C   0  0  0  0  0  0  0  0  0  0  0  0
   58.0990   27.5250   47.8680 C   0  0  0  0  0  0  0  0  0  0  0  0
   58.6380   28.7720   48.1930 C   0  0  0  0  0  0  0  0  0  0  0  0
   60.0530   31.4970   47.6090 C   0  0  0  0  0  0  0  0  0  0  0  0
   59.1480   31.5160   46.5380 C   0  0  0  0  0  0  0  0  0  0  0  0
   58.6890   30.4070   45.6790 C   0  0  0  0  0  0  0  0  0  0  0  0
   59.6020   29.7050   44.8760 C   0  0  0  0  0  0  0  0  0  0  0  0
   59.1740   28.6180   44.1100 C   0  0  0  0  0  0  0  0  0  0  0  0
   57.8250   28.2340   44.1220 C   0  0  0  0  0  0  0  0  0  0  0  0
   57.3960   27.1380   43.3770 O   0  0  0  0  0  0  0  0  0  0  0  0
   56.9050   28.9590   44.8880 C   0  0  0  0  0  0  0  0  0  0  0  0
   55.5640   28.5940   44.8980 O   0  0  0  0  0  0  0  0  0  0  0  0
   57.3330   30.0490   45.6550 C   0  0  0  0  0  0  0  0  0  0  0  0
   58.8360   32.8330   46.3030 C   0  0  0  0  0  0  0  0  0  0  0  0
   59.5060   33.5890   47.1330 O   0  0  0  0  0  0  0  0  0  0  0  0
   60.2560   32.8390   47.9140 C   0  0  0  0  0  0  0  0  0  0  0  0
   62.6052   33.4014   50.3320 H   0  0  0  0  0  0  0  0  0  0  0  0
   64.8153   32.4257   49.9618 H   0  0  0  0  0  0  0  0  0  0  0  0
   66.6439   31.6562   51.4728 H   0  0  0  0  0  0  0  0  0  0  0  0
   64.0485   28.5869   53.0689 H   0  0  0  0  0  0  0  0  0  0  0  0
   62.2150   29.3454   51.5598 H   0  0  0  0  0  0  0  0  0  0  0  0
   61.9291   28.1434   47.5092 H   0  0  0  0  0  0  0  0  0  0  0  0
   60.9661   25.9278   46.9010 H   0  0  0  0  0  0  0  0  0  0  0  0
   56.7394   25.2454   48.4217 H   0  0  0  0  0  0  0  0  0  0  0  0
   55.7520   23.0755   47.6861 H   0  0  0  0  0  0  0  0  0  0  0  0
   56.7800   21.8072   45.7987 H   0  0  0  0  0  0  0  0  0  0  0  0
   58.8018   22.7074   44.6437 H   0  0  0  0  0  0  0  0  0  0  0  0
   59.7997   24.8720   45.3722 H   0  0  0  0  0  0  0  0  0  0  0  0
   57.0224   27.3434   48.0020 H   0  0  0  0  0  0  0  0  0  0  0  0
   57.9873   29.5619   48.5962 H   0  0  0  0  0  0  0  0  0  0  0  0
   60.6580   30.0120   44.8499 H   0  0  0  0  0  0  0  0  0  0  0  0
   59.8971   28.0615   43.4956 H   0  0  0  0  0  0  0  0  0  0  0  0
   56.7010   27.2330   42.6460 H   0  0  0  0  0  0  0  0  0  0  0  0
   56.6032   30.6269   46.2410 H   0  0  0  0  0  0  0  0  0  0  0  0
   58.1335   33.1944   45.5375 H   0  0  0  0  0  0  0  0  0  0  0  0
  1  2  2  0
  2  3  1  0
  3  4  2  0
  4  5  1  0
  5  6  2  0
  6  7  1  0
  7  8  2  0
  8  9  1  0
  8 10  1  0
 10 11  2  0
  4 12  1  0
 12 13  2  0
 13 14  1  0
 14 15  2  0
 15 16  1  0
 16 17  2  0
 17 18  1  0
 18 19  2  0
 19 20  1  0
 20 21  2  0
 21 22  1  0
 22 23  2  0
 17 24  1  0
 24 25  2  0
 13 26  1  0
 26 27  1  0
 27 28  1  0
 28 29  2  0
 29 30  1  0
 30 31  2  0
 31 32  1  0
 31 33  1  0
 33 34  1  0
 33 35  2  0
 27 36  2  0
 36 37  1  0
 37 38  1  0
 38  2  1  0
 11  5  1  0
 25 14  1  0
 38 26  2  0
 23 18  1  0
 35 28  1  0
  3 39  1  0
  6 40  1  0
  7 41  1  0
 10 42  1  0
 11 43  1  0
 15 44  1  0
 16 45  1  0
 19 46  1  0
 20 47  1  0
 21 48  1  0
 22 49  1  0
 23 50  1  0
 24 51  1  0
 25 52  1  0
 29 53  1  0
 30 54  1  0
 32 55  1  0
 35 56  1  0
 36 57  1  0
M  CHG  2   9  -1  34  -1
M  END
>  <UniqueID>  (56) 
50

>  <SMILES>  (56) 
O=c1cc(-c2ccc([O-])cc2)nc(-c2ccc(-c3ccccc3)cc2)c2c(-c3ccc(O)c([O-])c3)coc12

>  <Energy>  (56) 
134.04472503812943

>  <Genealogy>  (56) 
O=c1cc(-c2ccc([O-])cc2)nc(-c2ccc(-c3ccccc3)cc2)c2c(-c3ccc(O)c([O-])c3)coc12 (protonated)
O=c1cc(-c2ccc([O-])cc2)nc(-c2ccc(-c3ccccc3)cc2)c2c(-c3ccc(O)c([O-])c3)coc12 (3D coordinates assigned)
O=c1cc(-c2ccc([O-])cc2)nc(-c2ccc(-c3ccccc3)cc2)c2c(-c3ccc(O)c([O-])c3)coc12 (optimized conformer: 134.04472503812943 kcal/mol)

>  <smiles>  (56) 
O=c1cc(-c2ccc(O)cc2)nc(-c2ccc(-c3ccccc3)cc2)c2c(-c3ccc(O)c(O)c3)coc12

>  <score_type>  (56) 
oracle

>  <origin>  (56) 
adg

>  <m_score__min__energy>  (56) 
-11.99

>  <m_primary>  (56) 
energy

$$$$
56:0
     RDKit          3D

 57 61  0  0  0  0  0  0  0  0999 V2000
   58.5190   30.7660   50.7320 C   0  0  0  0  0  0  0  0  0  0  0  0
   58.3270   30.4600   49.3550 O   0  0  0  0  0  0  0  0  0  0  0  0
   58.6510   31.3240   48.2960 C   0  0  0  0  0  0  0  0  0  0  0  0
   58.8800   32.7070   48.5070 C   0  0  0  0  0  0  0  0  0  0  0  0
   59.2070   33.4930   47.4070 C   0  0  0  0  0  0  0  0  0  0  0  0
   59.4770   34.8420   47.3180 C   0  0  0  0  0  0  0  0  0  0  0  0
   59.7400   35.0720   45.9710 C   0  0  0  0  0  0  0  0  0  0  0  0
   59.6380   33.9260   45.2610 N   0  0  0  0  0  0  0  0  0  0  0  0
   59.3140   32.9720   46.1480 C   0  0  0  0  0  0  0  0  0  0  0  0
   59.0980   31.6200   45.8960 C   0  0  0  0  0  0  0  0  0  0  0  0
   58.7510   30.7870   46.9800 C   0  0  0  0  0  0  0  0  0  0  0  0
   58.5200   29.3480   46.7400 C   0  0  0  0  0  0  0  0  0  0  0  0
   59.3840   28.4200   47.3310 C   0  0  0  0  0  0  0  0  0  0  0  0
   59.1690   27.0900   47.1810 N   0  0  0  0  0  0  0  0  0  0  0  0
   58.1210   26.6210   46.4530 C   0  0  0  0  0  0  0  0  0  0  0  0
   57.9040   25.2020   46.3020 N   0  0  0  0  0  0  0  0  0  0  0  0
   56.7530   24.5800   46.9740 C   0  0  0  0  0  0  0  0  0  0  0  0
   56.6090   23.0970   46.6010 C   0  0  0  0  0  0  0  0  0  0  0  0
   56.7960   22.8730   45.0750 C   0  0  0  0  0  0  0  0  0  0  0  0
   55.6660   23.6170   44.2900 C   0  0  0  0  0  0  0  0  0  0  0  0
   55.3240   22.9630   42.9360 C   0  0  0  0  0  0  0  0  0  0  0  0
   56.4600   22.1910   42.4270 N   0  0  0  0  0  0  0  0  0  0  0  0
   56.7290   21.0200   43.2780 C   0  0  0  0  0  0  0  0  0  0  0  0
   56.6710   21.3520   44.7870 C   0  0  0  0  0  0  0  0  0  0  0  0
   58.2100   23.3910   44.6280 C   0  0  0  0  0  0  0  0  0  0  0  0
   58.8900   24.3460   45.6260 C   0  0  0  0  0  0  0  0  0  0  0  0
   57.2780   27.5080   45.8570 N   0  0  0  0  0  0  0  0  0  0  0  0
   57.4420   28.8540   45.9670 C   0  0  0  0  0  0  0  0  0  0  0  0
   56.4880   29.7210   45.2390 C   0  0  0  0  0  0  0  0  0  0  0  0
   56.8140   30.8680   44.8380 O   0  0  0  0  0  0  0  0  0  0  0  0
   55.2140   29.2440   44.9530 O   0  0  0  0  0  0  0  0  0  0  0  0
   58.0353   29.9951   51.3498 H   0  0  0  0  0  0  0  0  0  0  0  0
   59.5958   30.7923   50.9551 H   0  0  0  0  0  0  0  0  0  0  0  0
   58.0742   31.7470   50.9551 H   0  0  0  0  0  0  0  0  0  0  0  0
   58.8013   33.1462   49.5124 H   0  0  0  0  0  0  0  0  0  0  0  0
   59.4832   35.5779   48.1355 H   0  0  0  0  0  0  0  0  0  0  0  0
   59.9959   36.0522   45.5425 H   0  0  0  0  0  0  0  0  0  0  0  0
   59.7830   33.8110   44.2330 H   0  0  0  0  0  0  0  0  0  0  0  0
   59.1953   31.2124   44.8790 H   0  0  0  0  0  0  0  0  0  0  0  0
   60.2431   28.7717   47.9211 H   0  0  0  0  0  0  0  0  0  0  0  0
   56.8890   24.6620   48.0625 H   0  0  0  0  0  0  0  0  0  0  0  0
   55.8424   25.1047   46.6492 H   0  0  0  0  0  0  0  0  0  0  0  0
   57.3698   22.5165   47.1434 H   0  0  0  0  0  0  0  0  0  0  0  0
   55.5960   22.7686   46.8765 H   0  0  0  0  0  0  0  0  0  0  0  0
   54.7584   23.6259   44.9114 H   0  0  0  0  0  0  0  0  0  0  0  0
   56.0349   24.6308   44.0754 H   0  0  0  0  0  0  0  0  0  0  0  0
   54.4624   22.2919   43.0675 H   0  0  0  0  0  0  0  0  0  0  0  0
   55.0858   23.7566   42.2125 H   0  0  0  0  0  0  0  0  0  0  0  0
   56.2180   21.8460   41.4690 H   0  0  0  0  0  0  0  0  0  0  0  0
   55.9785   20.2462   43.0590 H   0  0  0  0  0  0  0  0  0  0  0  0
   57.7486   20.6736   43.0533 H   0  0  0  0  0  0  0  0  0  0  0  0
   55.7105   20.9963   45.1882 H   0  0  0  0  0  0  0  0  0  0  0  0
   57.5249   20.8530   45.2684 H   0  0  0  0  0  0  0  0  0  0  0  0
   58.8656   22.5190   44.4870 H   0  0  0  0  0  0  0  0  0  0  0  0
   58.0522   23.9674   43.7045 H   0  0  0  0  0  0  0  0  0  0  0  0
   59.4269   23.7527   46.3808 H   0  0  0  0  0  0  0  0  0  0  0  0
   59.5868   24.9907   45.0703 H   0  0  0  0  0  0  0  0  0  0  0  0
  1  2  1  0
  2  3  1  0
  3  4  2  0
  4  5  1  0
  5  6  1  0
  6  7  2  0
  7  8  1  0
  8  9  1  0
  9 10  1  0
 10 11  2  0
 11 12  1  0
 12 13  2  0
 13 14  1  0
 14 15  2  0
 15 16  1  0
 16 17  1  0
 17 18  1  0
 18 19  1  0
 19 20  1  0
 20 21  1  0
 21 22  1  0
 22 23  1  0
 23 24  1  0
 19 25  1  0
 25 26  1  0
 15 27  1  0
 27 28  2  0
 28 29  1  0
 29 30  2  0
 29 31  1  0
 11  3  1  0
 28 12  1  0
  9  5  2  0
 26 16  1  0
 24 19  1  0
  1 32  1  0
  1 33  1  0
  1 34  1  0
  4 35  1  0
  6 36  1  0
  7 37  1  0
  8 38  1  0
 10 39  1  0
 13 40  1  0
 17 41  1  0
 17 42  1  0
 18 43  1  0
 18 44  1  0
 20 45  1  0
 20 46  1  0
 21 47  1  0
 21 48  1  0
 22 49  1  0
 23 50  1  0
 23 51  1  0
 24 52  1  0
 24 53  1  0
 25 54  1  0
 25 55  1  0
 26 56  1  0
 26 57  1  0
M  CHG  1  31  -1
M  END
>  <UniqueID>  (57) 
51

>  <SMILES>  (57) 
COc1cc2cc[nH]c2cc1-c1cnc(N2CCC3(CCNCC3)CC2)nc1C(=O)[O-]

>  <Energy>  (57) 
114.78144043450703

>  <Genealogy>  (57) 
COc1cc2cc[nH]c2cc1-c1cnc(N2CCC3(CCNCC3)CC2)nc1C(=O)[O-] (protonated)
COc1cc2cc[nH]c2cc1-c1cnc(N2CCC3(CCNCC3)CC2)nc1C(=O)[O-] (3D coordinates assigned)
COc1cc2cc[nH]c2cc1-c1cnc(N2CCC3(CCNCC3)CC2)nc1C(=O)[O-] (nonaromatic ring conformer: 114.78144043450703 kcal/mol)

>  <smiles>  (57) 
COc1cc2cc[nH]c2cc1-c1cnc(N2CCC3(CCNCC3)CC2)nc1C(=O)O

>  <score_type>  (57) 
oracle

>  <origin>  (57) 
adg

>  <m_score__min__energy>  (57) 
-11.359999999999999

>  <m_primary>  (57) 
energy

$$$$
57:0
     RDKit          3D

 36 37  0  0  1  0  0  0  0  0999 V2000
   58.2380   27.1000   43.4370 C   0  0  0  0  0  0  0  0  0  0  0  0
   58.3840   27.5030   44.8930 C   0  0  0  0  0  0  0  0  0  0  0  0
   56.9950   27.4980   45.4770 C   0  0  0  0  0  0  0  0  0  0  0  0
   56.1980   28.6230   45.1130 N   0  0  0  0  0  0  0  0  0  0  0  0
   56.7170   29.8350   44.5480 C   0  0  0  0  0  0  0  0  0  0  0  0
   56.6170   30.0780   43.1970 C   0  0  0  0  0  0  0  0  0  0  0  0
   57.1090   31.2490   42.6550 C   0  0  0  0  0  0  0  0  0  0  0  0
   57.0100   31.4750   41.3840 N   0  0  0  0  0  0  0  0  0  0  0  0
   57.5530   32.6640   40.7610 C   0  0  0  0  0  0  0  0  0  0  0  0
   57.6780   32.1160   43.5040 N   0  0  0  0  0  0  0  0  0  0  0  0
   57.8000   31.9240   44.8300 C   0  0  0  0  0  0  0  0  0  0  0  0
   58.4340   32.9390   45.6600 C   0  0  0  0  0  0  0  0  0  0  0  0
   59.0250   34.0670   45.1230 C   0  0  0  0  0  0  0  0  0  0  0  0
   59.6000   34.9530   46.0020 C   0  0  0  0  0  0  0  0  0  0  0  0
   59.6240   34.7950   47.3670 C   0  0  0  0  0  0  0  0  0  0  0  0
   59.0250   33.6590   47.8750 C   0  0  0  0  0  0  0  0  0  0  0  0
   58.4290   32.7260   47.0450 C   0  0  0  0  0  0  0  0  0  0  0  0
   57.3070   30.7700   45.3150 N   0  0  0  0  0  0  0  0  0  0  0  0
   57.8639   26.0673   43.3781 H   0  0  0  0  0  0  0  0  0  0  0  0
   57.5277   27.7763   42.9388 H   0  0  0  0  0  0  0  0  0  0  0  0
   59.2166   27.1644   42.9388 H   0  0  0  0  0  0  0  0  0  0  0  0
   59.0229   26.7827   45.4249 H   0  0  0  0  0  0  0  0  0  0  0  0
   58.8528   28.4936   44.9876 H   0  0  0  0  0  0  0  0  0  0  0  0
   56.4813   26.5875   45.1347 H   0  0  0  0  0  0  0  0  0  0  0  0
   57.1142   27.5386   46.5698 H   0  0  0  0  0  0  0  0  0  0  0  0
   55.1450   28.5940   45.2570 H   0  0  0  0  0  0  0  0  0  0  0  0
   56.1408   29.3327   42.5430 H   0  0  0  0  0  0  0  0  0  0  0  0
   57.8759   33.3710   41.5394 H   0  0  0  0  0  0  0  0  0  0  0  0
   58.4148   32.3890   40.1351 H   0  0  0  0  0  0  0  0  0  0  0  0
   56.7808   33.1352   40.1351 H   0  0  0  0  0  0  0  0  0  0  0  0
   59.0347   34.2479   44.0380 H   0  0  0  0  0  0  0  0  0  0  0  0
   60.0748   35.8526   45.5834 H   0  0  0  0  0  0  0  0  0  0  0  0
   60.0982   35.5387   48.0243 H   0  0  0  0  0  0  0  0  0  0  0  0
   59.0216   33.4924   48.9623 H   0  0  0  0  0  0  0  0  0  0  0  0
   57.9565   31.8271   47.4677 H   0  0  0  0  0  0  0  0  0  0  0  0
   57.3680   30.5620   46.3300 H   0  0  0  0  0  0  0  0  0  0  0  0
  1  2  1  0
  2  3  1  0
  3  4  1  0
  4  5  1  0
  5  6  2  0
  6  7  1  0
  7  8  2  0
  8  9  1  0
  7 10  1  0
 10 11  2  0
 11 12  1  0
 12 13  2  0
 13 14  1  0
 14 15  2  0
 15 16  1  0
 16 17  2  0
 11 18  1  0
 18  5  1  0
 17 12  1  0
  1 19  1  0
  1 20  1  0
  1 21  1  0
  2 22  1  0
  2 23  1  0
  3 24  1  0
  3 25  1  0
  4 26  1  0
  6 27  1  0
  9 28  1  0
  9 29  1  0
  9 30  1  0
 13 31  1  0
 14 32  1  0
 15 33  1  0
 16 34  1  0
 17 35  1  0
 18 36  1  0
M  END
>  <smiles>  (58) 
CCCNc1cc(=NC)nc(-c2ccccc2)[nH]1

>  <score_type>  (58) 
oracle

>  <origin>  (58) 
adg

>  <m_score__min__energy>  (58) 
-6.6100000000000003

>  <m_primary>  (58) 
energy

$$$$
58:0
     RDKit          3D

 45 48  0  0  0  0  0  0  0  0999 V2000
   59.5210   26.3380   46.7180 C   0  0  0  0  0  0  0  0  0  0  0  0
   58.5680   27.3240   46.1050 C   0  0  0  0  0  0  0  0  0  0  0  0
   57.1770   27.2550   46.1020 C   0  0  0  0  0  0  0  0  0  0  0  0
   56.3200   26.2210   46.6040 N   0  0  0  0  0  0  0  0  0  0  0  0
   55.3560   25.4900   45.8370 C   0  0  0  0  0  0  0  0  0  0  0  0
   54.2090   25.9870   45.6780 O   0  0  0  0  0  0  0  0  0  0  0  0
   55.6780   24.1910   45.1990 C   0  0  0  0  0  0  0  0  0  0  0  0
   56.3510   24.1620   43.9640 C   0  0  0  0  0  0  0  0  0  0  0  0
   56.6340   22.9430   43.3390 C   0  0  0  0  0  0  0  0  0  0  0  0
   56.2530   21.7440   43.9460 C   0  0  0  0  0  0  0  0  0  0  0  0
   55.6250   21.7600   45.1980 C   0  0  0  0  0  0  0  0  0  0  0  0
   55.3300   22.9760   45.8200 C   0  0  0  0  0  0  0  0  0  0  0  0
   55.3000   20.5460   45.8110 O   0  0  0  0  0  0  0  0  0  0  0  0
   55.8270   19.3090   45.3260 C   0  0  0  0  0  0  0  0  0  0  0  0
   55.8730   19.3170   43.7910 C   0  0  0  0  0  0  0  0  0  0  0  0
   56.4920   20.5170   43.3210 O   0  0  0  0  0  0  0  0  0  0  0  0
   56.7640   28.3960   45.4590 C   0  0  0  0  0  0  0  0  0  0  0  0
   55.5680   28.7150   45.2250 O   0  0  0  0  0  0  0  0  0  0  0  0
   57.8390   29.1030   45.0600 N   0  0  0  0  0  0  0  0  0  0  0  0
   57.8020   30.3140   44.2840 C   0  0  0  0  0  0  0  0  0  0  0  0
   58.4350   31.4770   44.7510 C   0  0  0  0  0  0  0  0  0  0  0  0
   58.4100   32.6480   43.9860 C   0  0  0  0  0  0  0  0  0  0  0  0
   57.7600   32.6620   42.7480 C   0  0  0  0  0  0  0  0  0  0  0  0
   57.1380   31.5050   42.2720 C   0  0  0  0  0  0  0  0  0  0  0  0
   57.1620   30.3330   43.0350 C   0  0  0  0  0  0  0  0  0  0  0  0
   58.9360   28.4610   45.4590 N   0  0  0  0  0  0  0  0  0  0  0  0
   60.3110   28.8950   45.1940 C   0  0  0  0  0  0  0  0  0  0  0  0
   59.4595   26.4016   47.8144 H   0  0  0  0  0  0  0  0  0  0  0  0
   59.2549   25.3210   46.3942 H   0  0  0  0  0  0  0  0  0  0  0  0
   60.5465   26.5693   46.3942 H   0  0  0  0  0  0  0  0  0  0  0  0
   56.6568   25.1045   43.4864 H   0  0  0  0  0  0  0  0  0  0  0  0
   57.1559   22.9286   42.3708 H   0  0  0  0  0  0  0  0  0  0  0  0
   54.8247   22.9842   46.7971 H   0  0  0  0  0  0  0  0  0  0  0  0
   56.8447   19.1687   45.7192 H   0  0  0  0  0  0  0  0  0  0  0  0
   55.1779   18.4866   45.6611 H   0  0  0  0  0  0  0  0  0  0  0  0
   56.4507   18.4490   43.4404 H   0  0  0  0  0  0  0  0  0  0  0  0
   54.8456   19.2671   43.4012 H   0  0  0  0  0  0  0  0  0  0  0  0
   58.9524   31.4674   45.7217 H   0  0  0  0  0  0  0  0  0  0  0  0
   58.9021   33.5585   44.3587 H   0  0  0  0  0  0  0  0  0  0  0  0
   57.7384   33.5842   42.1487 H   0  0  0  0  0  0  0  0  0  0  0  0
   56.6292   31.5158   41.2968 H   0  0  0  0  0  0  0  0  0  0  0  0
   56.6770   29.4220   42.6544 H   0  0  0  0  0  0  0  0  0  0  0  0
   60.8337   29.0600   46.1477 H   0  0  0  0  0  0  0  0  0  0  0  0
   60.8359   28.1188   44.6177 H   0  0  0  0  0  0  0  0  0  0  0  0
   60.2952   29.8318   44.6177 H   0  0  0  0  0  0  0  0  0  0  0  0
  1  2  1  0
  2  3  2  0
  3  4  1  0
  4  5  1  0
  5  6  2  0
  5  7  1  0
  7  8  2  0
  8  9  1  0
  9 10  2  0
 10 11  1  0
 11 12  2  0
 11 13  1  0
 13 14  1  0
 14 15  1  0
 15 16  1  0
  3 17  1  0
 17 18  2  0
 17 19  1  0
 19 20  1  0
 20 21  2  0
 21 22  1  0
 22 23  2  0
 23 24  1  0
 24 25  2  0
 19 26  1  0
 26 27  1  0
 26  2  1  0
 12  7  1  0
 25 20  1  0
 16 10  1  0
  1 28  1  0
  1 29  1  0
  1 30  1  0
  8 31  1  0
  9 32  1  0
 12 33  1  0
 14 34  1  0
 14 35  1  0
 15 36  1  0
 15 37  1  0
 21 38  1  0
 22 39  1  0
 23 40  1  0
 24 41  1  0
 25 42  1  0
 27 43  1  0
 27 44  1  0
 27 45  1  0
M  CHG  1   4  -1
M  END
>  <UniqueID>  (59) 
52

>  <SMILES>  (59) 
Cc1c([N-]C(=O)c2ccc3c(c2)OCCO3)c(=O)n(-c2ccccc2)n1C

>  <Energy>  (59) 
98.1803742928464

>  <Genealogy>  (59) 
Cc1c([N-]C(=O)c2ccc3c(c2)OCCO3)c(=O)n(-c2ccccc2)n1C (protonated)
Cc1c([N-]C(=O)c2ccc3c(c2)OCCO3)c(=O)n(-c2ccccc2)n1C (3D coordinates assigned)
Cc1c([N-]C(=O)c2ccc3c(c2)OCCO3)c(=O)n(-c2ccccc2)n1C (nonaromatic ring conformer: 98.1803742928464 kcal/mol)

>  <smiles>  (59) 
Cc1c(NC(=O)c2ccc3c(c2)OCCO3)c(=O)n(-c2ccccc2)n1C

>  <score_type>  (59) 
oracle

>  <origin>  (59) 
adg

>  <m_score__min__energy>  (59) 
-9.8499999999999996

>  <m_primary>  (59) 
energy

$$$$
59:0
     RDKit          3D

 46 48  0  0  0  0  0  0  0  0999 V2000
   58.8980   29.9490   48.7500 C   0  0  0  0  0  0  0  0  0  0  0  0
   59.5480   30.9010   49.7530 C   0  0  0  0  0  0  0  0  0  0  0  0
   58.6450   32.0950   50.1180 C   0  0  0  0  0  0  0  0  0  0  0  0
   59.3160   33.4690   49.9390 C   0  0  0  0  0  0  0  0  0  0  0  0
   59.8830   33.6740   48.5460 C   0  0  0  0  0  0  0  0  0  0  0  0
   58.9690   33.9320   47.5110 C   0  0  0  0  0  0  0  0  0  0  0  0
   59.4210   34.1300   46.2070 C   0  0  0  0  0  0  0  0  0  0  0  0
   58.2550   34.3910   44.8700 S   0  0  0  0  0  0  0  0  0  0  0  0
   57.0310   33.1720   45.4760 C   0  0  0  0  0  0  0  0  0  0  0  0
   57.4100   31.7700   45.0730 C   0  0  0  0  0  0  0  0  0  0  0  0
   56.6450   31.0780   44.1220 C   0  0  0  0  0  0  0  0  0  0  0  0
   57.0510   29.8180   43.6770 C   0  0  0  0  0  0  0  0  0  0  0  0
   58.2240   29.2410   44.1720 C   0  0  0  0  0  0  0  0  0  0  0  0
   58.9910   29.9160   45.1350 C   0  0  0  0  0  0  0  0  0  0  0  0
   60.2870   29.3360   45.6190 C   0  0  0  0  0  0  0  0  0  0  0  0
   58.5810   31.1820   45.5800 C   0  0  0  0  0  0  0  0  0  0  0  0
   60.7470   34.0830   45.9340 N   0  0  0  0  0  0  0  0  0  0  0  0
   61.6730   33.8270   46.8920 C   0  0  0  0  0  0  0  0  0  0  0  0
   63.0230   33.7570   46.5340 C   0  0  0  0  0  0  0  0  0  0  0  0
   63.9900   33.4670   47.4960 C   0  0  0  0  0  0  0  0  0  0  0  0
   63.6140   33.2450   48.8200 C   0  0  0  0  0  0  0  0  0  0  0  0
   64.5570   32.9540   49.7490 F   0  0  0  0  0  0  0  0  0  0  0  0
   62.2680   33.3130   49.1930 C   0  0  0  0  0  0  0  0  0  0  0  0
   61.2710   33.6080   48.2370 C   0  0  0  0  0  0  0  0  0  0  0  0
   58.3582   29.1583   49.2917 H   0  0  0  0  0  0  0  0  0  0  0  0
   58.1922   30.5081   48.1181 H   0  0  0  0  0  0  0  0  0  0  0  0
   59.6757   29.4952   48.1181 H   0  0  0  0  0  0  0  0  0  0  0  0
   59.7771   30.3405   50.6713 H   0  0  0  0  0  0  0  0  0  0  0  0
   60.4566   31.3056   49.2832 H   0  0  0  0  0  0  0  0  0  0  0  0
   57.7516   32.0609   49.4772 H   0  0  0  0  0  0  0  0  0  0  0  0
   58.4054   31.9961   51.1870 H   0  0  0  0  0  0  0  0  0  0  0  0
   58.5682   34.2523   50.1321 H   0  0  0  0  0  0  0  0  0  0  0  0
   60.1559   33.5203   50.6475 H   0  0  0  0  0  0  0  0  0  0  0  0
   57.8921   33.9780   47.7302 H   0  0  0  0  0  0  0  0  0  0  0  0
   56.9818   33.2286   46.5734 H   0  0  0  0  0  0  0  0  0  0  0  0
   56.0538   33.4096   45.0303 H   0  0  0  0  0  0  0  0  0  0  0  0
   55.7232   31.5290   43.7259 H   0  0  0  0  0  0  0  0  0  0  0  0
   56.4456   29.2777   42.9343 H   0  0  0  0  0  0  0  0  0  0  0  0
   58.5471   28.2553   43.8060 H   0  0  0  0  0  0  0  0  0  0  0  0
   60.2984   29.3309   46.7189 H   0  0  0  0  0  0  0  0  0  0  0  0
   60.3896   28.3061   45.2465 H   0  0  0  0  0  0  0  0  0  0  0  0
   61.1234   29.9457   45.2465 H   0  0  0  0  0  0  0  0  0  0  0  0
   59.1804   31.7177   46.3308 H   0  0  0  0  0  0  0  0  0  0  0  0
   63.3231   33.9313   45.4902 H   0  0  0  0  0  0  0  0  0  0  0  0
   65.0508   33.4133   47.2098 H   0  0  0  0  0  0  0  0  0  0  0  0
   61.9831   33.1351   50.2405 H   0  0  0  0  0  0  0  0  0  0  0  0
  1  2  1  0
  2  3  1  0
  3  4  1  0
  4  5  1  0
  5  6  2  0
  6  7  1  0
  7  8  1  0
  8  9  1  0
  9 10  1  0
 10 11  2  0
 11 12  1  0
 12 13  2  0
 13 14  1  0
 14 15  1  0
 14 16  2  0
  7 17  2  0
 17 18  1  0
 18 19  2  0
 19 20  1  0
 20 21  2  0
 21 22  1  0
 21 23  1  0
 23 24  2  0
 24  5  1  0
 16 10  1  0
 24 18  1  0
  1 25  1  0
  1 26  1  0
  1 27  1  0
  2 28  1  0
  2 29  1  0
  3 30  1  0
  3 31  1  0
  4 32  1  0
  4 33  1  0
  6 34  1  0
  9 35  1  0
  9 36  1  0
 11 37  1  0
 12 38  1  0
 13 39  1  0
 15 40  1  0
 15 41  1  0
 15 42  1  0
 16 43  1  0
 19 44  1  0
 20 45  1  0
 23 46  1  0
M  END
>  <UniqueID>  (60) 
53

>  <SMILES>  (60) 
CCCCc1cc(SCc2cccc(C)c2)nc2ccc(F)cc12

>  <Energy>  (60) 
40.78085791378851

>  <Genealogy>  (60) 
CCCCc1cc(SCc2cccc(C)c2)nc2ccc(F)cc12 (3D coordinates assigned)
CCCCc1cc(SCc2cccc(C)c2)nc2ccc(F)cc12 (optimized conformer: 40.78085791378851 kcal/mol)

>  <smiles>  (60) 
CCCCc1cc(SCc2cccc(C)c2)nc2ccc(F)cc12

>  <score_type>  (60) 
oracle

>  <origin>  (60) 
adg

>  <m_score__min__energy>  (60) 
-7.8899999999999997

>  <m_primary>  (60) 
energy

$$$$
60:0
     RDKit          3D

 28 28  0  0  0  0  0  0  0  0999 V2000
   55.0310   26.1530   45.9790 N   0  0  0  0  0  0  0  0  0  0  0  0
   56.7330   26.1580   45.6760 S   0  0  0  0  0  0  0  0  0  0  0  0
   57.0450   25.1970   44.5640 O   0  0  0  0  0  0  0  0  0  0  0  0
   57.4660   25.7200   46.9130 O   0  0  0  0  0  0  0  0  0  0  0  0
   57.2430   27.7820   45.2230 C   0  0  0  0  0  0  0  0  0  0  0  0
   58.5930   28.0470   44.9590 C   0  0  0  0  0  0  0  0  0  0  0  0
   59.0030   29.3370   44.6110 C   0  0  0  0  0  0  0  0  0  0  0  0
   58.0670   30.3850   44.5400 C   0  0  0  0  0  0  0  0  0  0  0  0
   58.4570   31.7150   44.1580 N   0  0  0  0  0  0  0  0  0  0  0  0
   57.9680   32.9090   44.7900 C   0  0  0  0  0  0  0  0  0  0  0  0
   56.9810   32.8640   45.5730 O   0  0  0  0  0  0  0  0  0  0  0  0
   58.6330   34.2280   44.5220 C   0  0  0  0  0  0  0  0  0  0  0  0
   59.2160   34.8240   45.8060 C   0  0  0  0  0  0  0  0  0  0  0  0
   58.4590   34.3820   46.9750 N   0  0  0  0  0  0  0  0  0  0  0  0
   56.7140   30.1090   44.7880 C   0  0  0  0  0  0  0  0  0  0  0  0
   56.3060   28.8190   45.1380 C   0  0  0  0  0  0  0  0  0  0  0  0
   54.7900   27.0880   46.3750 H   0  0  0  0  0  0  0  0  0  0  0  0
   59.3335   27.2363   45.0259 H   0  0  0  0  0  0  0  0  0  0  0  0
   60.0627   29.5339   44.3915 H   0  0  0  0  0  0  0  0  0  0  0  0
   59.0800   31.8240   43.3260 H   0  0  0  0  0  0  0  0  0  0  0  0
   59.4445   34.0796   43.7944 H   0  0  0  0  0  0  0  0  0  0  0  0
   57.8794   34.9242   44.1252 H   0  0  0  0  0  0  0  0  0  0  0  0
   60.2622   34.5007   45.9108 H   0  0  0  0  0  0  0  0  0  0  0  0
   59.1579   35.9207   45.7430 H   0  0  0  0  0  0  0  0  0  0  0  0
   57.4490   34.5950   46.8100 H   0  0  0  0  0  0  0  0  0  0  0  0
   58.5390   33.3390   47.0290 H   0  0  0  0  0  0  0  0  0  0  0  0
   55.9688   30.9140   44.7063 H   0  0  0  0  0  0  0  0  0  0  0  0
   55.2451   28.6176   45.3474 H   0  0  0  0  0  0  0  0  0  0  0  0
  1  2  1  0
  2  3  2  0
  2  4  2  0
  2  5  1  0
  5  6  2  0
  6  7  1  0
  7  8  2  0
  8  9  1  0
  9 10  1  0
 10 11  2  0
 10 12  1  0
 12 13  1  0
 13 14  1  0
  8 15  1  0
 15 16  2  0
 16  5  1  0
  1 17  1  0
  6 18  1  0
  7 19  1  0
  9 20  1  0
 12 21  1  0
 12 22  1  0
 13 23  1  0
 13 24  1  0
 14 25  1  0
 14 26  1  0
 15 27  1  0
 16 28  1  0
M  CHG  1   1  -1
M  END
>  <UniqueID>  (61) 
54

>  <SMILES>  (61) 
[NH-]S(=O)(=O)c1ccc(NC(=O)CCN)cc1

>  <Energy>  (61) 
24.410401359193454

>  <Genealogy>  (61) 
[NH-]S(=O)(=O)c1ccc(NC(=O)CCN)cc1 (protonated)
[NH-]S(=O)(=O)c1ccc(NC(=O)CCN)cc1 (3D coordinates assigned)
[NH-]S(=O)(=O)c1ccc(NC(=O)CCN)cc1 (optimized conformer: 24.410401359193454 kcal/mol)

>  <smiles>  (61) 
NCCC(=O)Nc1ccc(S(N)(=O)=O)cc1

>  <score_type>  (61) 
oracle

>  <origin>  (61) 
adg

>  <m_score__min__energy>  (61) 
-8.4000000000000004

>  <m_primary>  (61) 
energy

$$$$
61:0
     RDKit          3D

 47 50  0  0  0  0  0  0  0  0999 V2000
   55.1810   29.3580   44.8540 O   0  0  0  0  0  0  0  0  0  0  0  0
   56.4140   29.3780   44.5940 C   0  0  0  0  0  0  0  0  0  0  0  0
   57.2390   28.1500   44.8810 C   0  0  0  0  0  0  0  0  0  0  0  0
   57.6140   28.0790   46.3700 C   0  0  0  0  0  0  0  0  0  0  0  0
   58.7410   28.9850   46.6820 N   0  0  0  0  0  0  0  0  0  0  0  0
   59.9350   28.6060   45.9010 C   0  0  0  0  0  0  0  0  0  0  0  0
   60.9960   29.7050   46.0260 C   0  0  0  0  0  0  0  0  0  0  0  0
   61.0640   30.2090   47.4040 N   0  0  0  0  0  0  0  0  0  0  0  0
   61.7310   31.4550   47.6900 C   0  0  0  0  0  0  0  0  0  0  0  0
   61.0930   32.4450   48.4600 C   0  0  0  0  0  0  0  0  0  0  0  0
   61.7390   33.6540   48.7320 C   0  0  0  0  0  0  0  0  0  0  0  0
   63.0220   33.8920   48.2340 C   0  0  0  0  0  0  0  0  0  0  0  0
   63.6610   32.9210   47.4590 C   0  0  0  0  0  0  0  0  0  0  0  0
   63.0190   31.7090   47.1850 C   0  0  0  0  0  0  0  0  0  0  0  0
   60.4820   29.3970   48.4770 C   0  0  0  0  0  0  0  0  0  0  0  0
   59.0240   29.0260   48.1430 C   0  0  0  0  0  0  0  0  0  0  0  0
   57.0130   30.5860   43.9830 C   0  0  0  0  0  0  0  0  0  0  0  0
   57.0250   30.8100   42.6010 C   0  0  0  0  0  0  0  0  0  0  0  0
   57.7350   32.3070   42.2810 S   0  0  0  0  0  0  0  0  0  0  0  0
   58.0380   32.6840   43.8860 C   0  0  0  0  0  0  0  0  0  0  0  0
   58.6480   33.8290   44.3930 C   0  0  0  0  0  0  0  0  0  0  0  0
   58.8200   33.9310   45.7800 C   0  0  0  0  0  0  0  0  0  0  0  0
   58.3890   32.8930   46.6260 C   0  0  0  0  0  0  0  0  0  0  0  0
   57.7770   31.7450   46.0930 C   0  0  0  0  0  0  0  0  0  0  0  0
   57.5920   31.6530   44.7050 C   0  0  0  0  0  0  0  0  0  0  0  0
   56.6587   27.2550   44.6124 H   0  0  0  0  0  0  0  0  0  0  0  0
   58.1635   28.2000   44.2870 H   0  0  0  0  0  0  0  0  0  0  0  0
   56.7419   28.3702   46.9739 H   0  0  0  0  0  0  0  0  0  0  0  0
   57.9208   27.0487   46.6030 H   0  0  0  0  0  0  0  0  0  0  0  0
   60.3404   27.6591   46.2869 H   0  0  0  0  0  0  0  0  0  0  0  0
   59.6579   28.4818   44.8437 H   0  0  0  0  0  0  0  0  0  0  0  0
   61.9764   29.2938   45.7435 H   0  0  0  0  0  0  0  0  0  0  0  0
   60.7233   30.5363   45.3592 H   0  0  0  0  0  0  0  0  0  0  0  0
   60.0801   32.2663   48.8500 H   0  0  0  0  0  0  0  0  0  0  0  0
   61.2357   34.4202   49.3399 H   0  0  0  0  0  0  0  0  0  0  0  0
   63.5291   34.8435   48.4519 H   0  0  0  0  0  0  0  0  0  0  0  0
   64.6701   33.1099   47.0639 H   0  0  0  0  0  0  0  0  0  0  0  0
   63.5246   30.9495   46.5706 H   0  0  0  0  0  0  0  0  0  0  0  0
   61.0720   28.4761   48.5947 H   0  0  0  0  0  0  0  0  0  0  0  0
   60.4962   29.9784   49.4107 H   0  0  0  0  0  0  0  0  0  0  0  0
   58.8116   28.0333   48.5667 H   0  0  0  0  0  0  0  0  0  0  0  0
   58.3839   29.8097   48.5745 H   0  0  0  0  0  0  0  0  0  0  0  0
   56.6325   30.1176   41.8417 H   0  0  0  0  0  0  0  0  0  0  0  0
   58.9860   34.6324   43.7220 H   0  0  0  0  0  0  0  0  0  0  0  0
   59.2939   34.8262   46.2089 H   0  0  0  0  0  0  0  0  0  0  0  0
   58.5320   32.9802   47.7132 H   0  0  0  0  0  0  0  0  0  0  0  0
   57.4478   30.9303   46.7547 H   0  0  0  0  0  0  0  0  0  0  0  0
  1  2  2  0
  2  3  1  0
  3  4  1  0
  4  5  1  0
  5  6  1  0
  6  7  1  0
  7  8  1  0
  8  9  1  0
  9 10  2  0
 10 11  1  0
 11 12  2  0
 12 13  1  0
 13 14  2  0
  8 15  1  0
 15 16  1  0
  2 17  1  0
 17 18  2  0
 18 19  1  0
 19 20  1  0
 20 21  2  0
 21 22  1  0
 22 23  2  0
 23 24  1  0
 24 25  2  0
 16  5  1  0
 25 17  1  0
 14  9  1  0
 25 20  1  0
  3 26  1  0
  3 27  1  0
  4 28  1  0
  4 29  1  0
  6 30  1  0
  6 31  1  0
  7 32  1  0
  7 33  1  0
 10 34  1  0
 11 35  1  0
 12 36  1  0
 13 37  1  0
 14 38  1  0
 15 39  1  0
 15 40  1  0
 16 41  1  0
 16 42  1  0
 18 43  1  0
 21 44  1  0
 22 45  1  0
 23 46  1  0
 24 47  1  0
M  END
>  <UniqueID>  (62) 
55

>  <SMILES>  (62) 
O=C(CCN1CCN(c2ccccc2)CC1)c1csc2ccccc12

>  <Energy>  (62) 
93.68564234565908

>  <Genealogy>  (62) 
O=C(CCN1CCN(c2ccccc2)CC1)c1csc2ccccc12 (3D coordinates assigned)
O=C(CCN1CCN(c2ccccc2)CC1)c1csc2ccccc12 (nonaromatic ring conformer: 93.68564234565908 kcal/mol)

>  <smiles>  (62) 
O=C(CCN1CCN(c2ccccc2)CC1)c1csc2ccccc12

>  <score_type>  (62) 
oracle

>  <origin>  (62) 
adg

>  <m_score__min__energy>  (62) 
-9.0600000000000005

>  <m_primary>  (62) 
energy

$$$$
62:0
     RDKit          3D

 25 26  0  0  0  0  0  0  0  0999 V2000
   60.0170   33.8410   49.5220 C   0  0  0  0  0  0  0  0  0  0  0  0
   59.3270   34.6260   48.5540 O   0  0  0  0  0  0  0  0  0  0  0  0
   59.0490   34.2060   47.2450 C   0  0  0  0  0  0  0  0  0  0  0  0
   59.4470   34.9490   46.1150 C   0  0  0  0  0  0  0  0  0  0  0  0
   59.1480   34.4920   44.8270 C   0  0  0  0  0  0  0  0  0  0  0  0
   58.4510   33.2890   44.6530 C   0  0  0  0  0  0  0  0  0  0  0  0
   58.1400   32.8060   43.3750 C   0  0  0  0  0  0  0  0  0  0  0  0
   57.4430   31.6040   43.2380 C   0  0  0  0  0  0  0  0  0  0  0  0
   57.0620   30.8950   44.3830 C   0  0  0  0  0  0  0  0  0  0  0  0
   56.1690   29.3500   44.2320 S   0  0  0  0  0  0  0  0  0  0  0  0
   57.6820   28.3560   44.0510 C   0  0  0  0  0  0  0  0  0  0  0  0
   57.3740   31.3740   45.6170 N   0  0  0  0  0  0  0  0  0  0  0  0
   58.0510   32.5420   45.7820 C   0  0  0  0  0  0  0  0  0  0  0  0
   58.3530   33.0040   47.0670 C   0  0  0  0  0  0  0  0  0  0  0  0
   59.7293   34.1683   50.5320 H   0  0  0  0  0  0  0  0  0  0  0  0
   59.7526   32.7813   49.3907 H   0  0  0  0  0  0  0  0  0  0  0  0
   61.1018   33.9672   49.3907 H   0  0  0  0  0  0  0  0  0  0  0  0
   59.9957   35.8933   46.2467 H   0  0  0  0  0  0  0  0  0  0  0  0
   59.4604   35.0777   43.9499 H   0  0  0  0  0  0  0  0  0  0  0  0
   58.4441   33.3722   42.4823 H   0  0  0  0  0  0  0  0  0  0  0  0
   57.1954   31.2174   42.2384 H   0  0  0  0  0  0  0  0  0  0  0  0
   58.0732   28.0990   45.0465 H   0  0  0  0  0  0  0  0  0  0  0  0
   57.4507   27.4334   43.4985 H   0  0  0  0  0  0  0  0  0  0  0  0
   58.4370   28.9346   43.4985 H   0  0  0  0  0  0  0  0  0  0  0  0
   58.0414   32.4187   47.9447 H   0  0  0  0  0  0  0  0  0  0  0  0
  1  2  1  0
  2  3  1  0
  3  4  2  0
  4  5  1  0
  5  6  2  0
  6  7  1  0
  7  8  2  0
  8  9  1  0
  9 10  1  0
 10 11  1  0
  9 12  2  0
 12 13  1  0
 13 14  2  0
 14  3  1  0
 13  6  1  0
  1 15  1  0
  1 16  1  0
  1 17  1  0
  4 18  1  0
  5 19  1  0
  7 20  1  0
  8 21  1  0
 11 22  1  0
 11 23  1  0
 11 24  1  0
 14 25  1  0
M  END
>  <UniqueID>  (63) 
56

>  <SMILES>  (63) 
COc1ccc2ccc(SC)nc2c1

>  <Energy>  (63) 
23.616512819943072

>  <Genealogy>  (63) 
COc1ccc2ccc(SC)nc2c1 (3D coordinates assigned)
COc1ccc2ccc(SC)nc2c1 (optimized conformer: 23.616512819943072 kcal/mol)

>  <smiles>  (63) 
COc1ccc2ccc(SC)nc2c1

>  <score_type>  (63) 
oracle

>  <origin>  (63) 
adg

>  <m_score__min__energy>  (63) 
-5.9900000000000002

>  <m_primary>  (63) 
energy

$$$$
63:0
     RDKit          3D

 36 39  0  0  0  0  0  0  0  0999 V2000
   66.3420   32.0850   50.5880 C   0  0  0  0  0  0  0  0  0  0  0  0
   65.0280   32.7080   50.2170 C   0  0  0  0  0  0  0  0  0  0  0  0
   64.5680   33.8400   50.8910 C   0  0  0  0  0  0  0  0  0  0  0  0
   63.3660   34.4320   50.5150 C   0  0  0  0  0  0  0  0  0  0  0  0
   62.6290   33.8960   49.4490 C   0  0  0  0  0  0  0  0  0  0  0  0
   61.4580   34.4890   49.0770 N   0  0  0  0  0  0  0  0  0  0  0  0
   60.7300   34.0090   48.0380 C   0  0  0  0  0  0  0  0  0  0  0  0
   61.1500   32.8640   47.3610 C   0  0  0  0  0  0  0  0  0  0  0  0
   62.3580   32.2680   47.7340 C   0  0  0  0  0  0  0  0  0  0  0  0
   62.7490   31.2400   47.1120 O   0  0  0  0  0  0  0  0  0  0  0  0
   63.0930   32.7870   48.7720 N   0  0  0  0  0  0  0  0  0  0  0  0
   64.2800   32.2040   49.1440 C   0  0  0  0  0  0  0  0  0  0  0  0
   60.3220   32.2560   46.3550 N   0  0  0  0  0  0  0  0  0  0  0  0
   59.0430   32.4720   46.2210 C   0  0  0  0  0  0  0  0  0  0  0  0
   58.3040   31.7470   45.1560 C   0  0  0  0  0  0  0  0  0  0  0  0
   57.7660   30.4720   45.4140 C   0  0  0  0  0  0  0  0  0  0  0  0
   57.0650   29.7820   44.4220 C   0  0  0  0  0  0  0  0  0  0  0  0
   56.8820   30.3600   43.1630 C   0  0  0  0  0  0  0  0  0  0  0  0
   56.1990   29.6900   42.2020 F   0  0  0  0  0  0  0  0  0  0  0  0
   57.4000   31.6290   42.8960 C   0  0  0  0  0  0  0  0  0  0  0  0
   58.1040   32.3230   43.8850 C   0  0  0  0  0  0  0  0  0  0  0  0
   58.3140   33.3650   47.2030 C   0  0  0  0  0  0  0  0  0  0  0  0
   59.2680   34.8890   47.4810 S   0  0  0  0  0  0  0  0  0  0  0  0
   66.4314   32.0426   51.6835 H   0  0  0  0  0  0  0  0  0  0  0  0
   66.3941   31.0663   50.1762 H   0  0  0  0  0  0  0  0  0  0  0  0
   67.1636   32.6894   50.1762 H   0  0  0  0  0  0  0  0  0  0  0  0
   65.1551   34.2641   51.7189 H   0  0  0  0  0  0  0  0  0  0  0  0
   62.9952   35.3174   51.0521 H   0  0  0  0  0  0  0  0  0  0  0  0
   61.1200   35.3420   49.5750 H   0  0  0  0  0  0  0  0  0  0  0  0
   64.6493   31.3277   48.5910 H   0  0  0  0  0  0  0  0  0  0  0  0
   57.8988   30.0149   46.4057 H   0  0  0  0  0  0  0  0  0  0  0  0
   56.6566   28.7825   44.6322 H   0  0  0  0  0  0  0  0  0  0  0  0
   57.2539   32.0839   41.9052 H   0  0  0  0  0  0  0  0  0  0  0  0
   58.5043   33.3247   43.6698 H   0  0  0  0  0  0  0  0  0  0  0  0
   57.3249   33.6230   46.7965 H   0  0  0  0  0  0  0  0  0  0  0  0
   58.1963   32.8323   48.1582 H   0  0  0  0  0  0  0  0  0  0  0  0
  1  2  1  0
  2  3  1  0
  3  4  2  0
  4  5  1  0
  5  6  2  0
  6  7  1  0
  7  8  2  0
  8  9  1  0
  9 10  2  0
  9 11  1  0
 11 12  1  0
  8 13  1  0
 13 14  2  0
 14 15  1  0
 15 16  2  0
 16 17  1  0
 17 18  2  0
 18 19  1  0
 18 20  1  0
 20 21  2  0
 14 22  1  0
 22 23  1  0
 12  2  2  0
 21 15  1  0
 11  5  1  0
 23  7  1  0
  1 24  1  0
  1 25  1  0
  1 26  1  0
  3 27  1  0
  4 28  1  0
  6 29  1  0
 12 30  1  0
 16 31  1  0
 17 32  1  0
 20 33  1  0
 21 34  1  0
 22 35  1  0
 22 36  1  0
M  CHG  1   6   1
M  END
>  <UniqueID>  (64) 
57

>  <SMILES>  (64) 
Cc1ccc2[nH+]c3c(c(=O)n2c1)N=C(c1ccc(F)cc1)CS3

>  <Energy>  (64) 
55.109531740451544

>  <Genealogy>  (64) 
Cc1ccc2[nH+]c3c(c(=O)n2c1)N=C(c1ccc(F)cc1)CS3 (protonated)
Cc1ccc2[nH+]c3c(c(=O)n2c1)N=C(c1ccc(F)cc1)CS3 (3D coordinates assigned)
Cc1ccc2[nH+]c3c(c(=O)n2c1)N=C(c1ccc(F)cc1)CS3 (nonaromatic ring conformer: 55.109531740451544 kcal/mol)

>  <smiles>  (64) 
Cc1ccc2nc3c(c(=O)n2c1)N=C(c1ccc(F)cc1)CS3

>  <score_type>  (64) 
oracle

>  <origin>  (64) 
adg

>  <m_score__min__energy>  (64) 
-6.3899999999999997

>  <m_primary>  (64) 
energy

$$$$
64:0
     RDKit          3D

 27 28  0  0  0  0  0  0  0  0999 V2000
   55.5190   29.7580   51.4140 H   0  0  0  0  0  0  0  0  0  0  0  0
   54.6800   30.2090   51.0730 O   0  0  0  0  0  0  0  0  0  0  0  0
   53.6490   30.6320   51.9150 C   0  0  0  0  0  0  0  0  0  0  0  0
   52.6360   31.4330   51.3710 C   0  0  0  0  0  0  0  0  0  0  0  0
   52.6555   31.6862   50.3007 H   0  0  0  0  0  0  0  0  0  0  0  0
   51.6020   31.9120   52.1780 C   0  0  0  0  0  0  0  0  0  0  0  0
   50.6060   32.7110   51.6290 O   0  0  0  0  0  0  0  0  0  0  0  0
   51.5700   31.5920   53.5360 C   0  0  0  0  0  0  0  0  0  0  0  0
   50.7585   31.9758   54.1718 H   0  0  0  0  0  0  0  0  0  0  0  0
   52.5670   30.7850   54.0890 C   0  0  0  0  0  0  0  0  0  0  0  0
   52.5330   30.5309   55.1587 H   0  0  0  0  0  0  0  0  0  0  0  0
   53.6140   30.2950   53.2880 C   0  0  0  0  0  0  0  0  0  0  0  0
   54.6300   29.4030   53.8920 C   0  0  0  0  0  0  0  0  0  0  0  0
   54.2160   28.2970   54.5710 N   0  0  0  0  0  0  0  0  0  0  0  0
   55.0990   27.4520   55.1630 C   0  0  0  0  0  0  0  0  0  0  0  0
   54.7400   26.5628   55.7018 H   0  0  0  0  0  0  0  0  0  0  0  0
   56.4630   27.7210   55.0820 C   0  0  0  0  0  0  0  0  0  0  0  0
   57.1904   27.0485   55.5602 H   0  0  0  0  0  0  0  0  0  0  0  0
   56.8870   28.8200   54.4080 N   0  0  0  0  0  0  0  0  0  0  0  0
   56.0120   29.6750   53.8080 C   0  0  0  0  0  0  0  0  0  0  0  0
   56.4360   30.7190   53.1490 N   0  0  0  0  0  0  0  0  0  0  0  0
   57.4030   30.7390   52.0880 C   0  0  0  0  0  0  0  0  0  0  0  0
   57.4790   29.8000   51.2500 O   0  0  0  0  0  0  0  0  0  0  0  0
   58.2970   31.9240   51.9430 C   0  0  0  0  0  0  0  0  0  0  0  0
   58.5775   32.2958   52.9395 H   0  0  0  0  0  0  0  0  0  0  0  0
   59.2034   31.6342   51.3913 H   0  0  0  0  0  0  0  0  0  0  0  0
   57.7694   32.7160   51.3913 H   0  0  0  0  0  0  0  0  0  0  0  0
  1  2  1  0
  2  3  1  0
  3  4  2  0
  4  5  1  0
  4  6  1  0
  6  7  1  0
  6  8  2  0
  8  9  1  0
  8 10  1  0
 10 11  1  0
 10 12  2  0
 12 13  1  0
 13 14  2  0
 14 15  1  0
 15 16  1  0
 15 17  2  0
 17 18  1  0
 17 19  1  0
 19 20  1  0
 20 21  2  0
 21 22  1  0
 22 23  2  0
 22 24  1  0
 24 25  1  0
 24 26  1  0
 24 27  1  0
 12  3  1  0
 20 13  1  0
M  CHG  2   7  -1  19  -1
M  END
>  <UniqueID>  (65) 
58

>  <SMILES>  (65) 
CC(=O)/N=c1\[n-]ccnc1-c1ccc([O-])cc1O

>  <Energy>  (65) 
38.49779811030668

>  <Genealogy>  (65) 
CC(=O)N=c1[n-]ccnc1-c1ccc([O-])cc1O (protonated)
CC(=O)/N=c1\[n-]ccnc1-c1ccc([O-])cc1O (cis-trans isomerization)
CC(=O)/N=c1\[n-]ccnc1-c1ccc([O-])cc1O (3D coordinates assigned)
CC(=O)/N=c1\[n-]ccnc1-c1ccc([O-])cc1O (optimized conformer: 38.49779811030668 kcal/mol)

>  <smiles>  (65) 
CC(=O)N=c1[nH]ccnc1-c1ccc(O)cc1O

>  <score_type>  (65) 
oracle

>  <origin>  (65) 
adg

>  <m_score__min__energy>  (65) 
-10.44

>  <m_primary>  (65) 
energy

$$$$
65:0
     RDKit          3D

 38 40  0  0  0  0  0  0  0  0999 V2000
   59.3390   34.4560   48.4760 O   0  0  0  0  0  0  0  0  0  0  0  0
   59.1180   33.5650   47.6130 C   0  0  0  0  0  0  0  0  0  0  0  0
   57.7390   33.4170   47.0490 C   0  0  0  0  0  0  0  0  0  0  0  0
   57.7930   32.6720   45.7880 N   0  0  0  0  0  0  0  0  0  0  0  0
   57.8460   31.3380   45.8470 N   0  0  0  0  0  0  0  0  0  0  0  0
   57.8640   30.5510   44.7350 C   0  0  0  0  0  0  0  0  0  0  0  0
   57.9120   29.0760   44.8860 C   0  0  0  0  0  0  0  0  0  0  0  0
   57.7840   28.4600   46.1480 C   0  0  0  0  0  0  0  0  0  0  0  0
   57.8260   27.0680   46.2660 C   0  0  0  0  0  0  0  0  0  0  0  0
   57.9900   26.2720   45.1290 C   0  0  0  0  0  0  0  0  0  0  0  0
   58.1080   26.8680   43.8720 C   0  0  0  0  0  0  0  0  0  0  0  0
   58.0650   28.2600   43.7490 C   0  0  0  0  0  0  0  0  0  0  0  0
   57.8070   31.1690   43.4780 C   0  0  0  0  0  0  0  0  0  0  0  0
   57.7410   32.5560   43.4030 C   0  0  0  0  0  0  0  0  0  0  0  0
   57.7300   33.3080   44.5760 C   0  0  0  0  0  0  0  0  0  0  0  0
   57.6540   34.5650   44.5080 O   0  0  0  0  0  0  0  0  0  0  0  0
   60.1470   32.6360   47.2360 N   0  0  0  0  0  0  0  0  0  0  0  0
   61.5270   32.7610   47.6180 C   0  0  0  0  0  0  0  0  0  0  0  0
   62.3940   33.5220   46.8190 C   0  0  0  0  0  0  0  0  0  0  0  0
   63.7360   33.6770   47.1790 C   0  0  0  0  0  0  0  0  0  0  0  0
   64.2200   33.0860   48.3480 C   0  0  0  0  0  0  0  0  0  0  0  0
   63.3610   32.3450   49.1650 C   0  0  0  0  0  0  0  0  0  0  0  0
   63.9630   31.6230   50.6460 Cl  0  0  0  0  0  0  0  0  0  0  0  0
   62.0160   32.1870   48.8070 C   0  0  0  0  0  0  0  0  0  0  0  0
   57.1077   32.8732   47.7671 H   0  0  0  0  0  0  0  0  0  0  0  0
   57.3151   34.4147   46.8623 H   0  0  0  0  0  0  0  0  0  0  0  0
   57.6500   29.0800   47.0467 H   0  0  0  0  0  0  0  0  0  0  0  0
   57.7298   26.5979   47.2558 H   0  0  0  0  0  0  0  0  0  0  0  0
   58.0261   25.1767   45.2244 H   0  0  0  0  0  0  0  0  0  0  0  0
   58.2350   26.2413   42.9769 H   0  0  0  0  0  0  0  0  0  0  0  0
   58.1515   28.7220   42.7545 H   0  0  0  0  0  0  0  0  0  0  0  0
   57.8144   30.5628   42.5601 H   0  0  0  0  0  0  0  0  0  0  0  0
   57.6978   33.0561   42.4242 H   0  0  0  0  0  0  0  0  0  0  0  0
   59.8550   31.7670   46.7320 H   0  0  0  0  0  0  0  0  0  0  0  0
   62.0152   33.9997   45.9034 H   0  0  0  0  0  0  0  0  0  0  0  0
   64.4115   34.2653   46.5406 H   0  0  0  0  0  0  0  0  0  0  0  0
   65.2777   33.2036   48.6261 H   0  0  0  0  0  0  0  0  0  0  0  0
   61.3396   31.6126   49.4570 H   0  0  0  0  0  0  0  0  0  0  0  0
  1  2  2  0
  2  3  1  0
  3  4  1  0
  4  5  1  0
  5  6  2  0
  6  7  1  0
  7  8  2  0
  8  9  1  0
  9 10  2  0
 10 11  1  0
 11 12  2  0
  6 13  1  0
 13 14  2  0
 14 15  1  0
 15 16  2  0
  2 17  1  0
 17 18  1  0
 18 19  2  0
 19 20  1  0
 20 21  2  0
 21 22  1  0
 22 23  1  0
 22 24  2  0
 15  4  1  0
 24 18  1  0
 12  7  1  0
  3 25  1  0
  3 26  1  0
  8 27  1  0
  9 28  1  0
 10 29  1  0
 11 30  1  0
 12 31  1  0
 13 32  1  0
 14 33  1  0
 17 34  1  0
 19 35  1  0
 20 36  1  0
 21 37  1  0
 24 38  1  0
M  END
>  <UniqueID>  (66) 
59

>  <SMILES>  (66) 
O=C(Cn1nc(-c2ccccc2)ccc1=O)Nc1cccc(Cl)c1

>  <Energy>  (66) 
47.528183978426085

>  <Genealogy>  (66) 
O=C(Cn1nc(-c2ccccc2)ccc1=O)Nc1cccc(Cl)c1 (3D coordinates assigned)
O=C(Cn1nc(-c2ccccc2)ccc1=O)Nc1cccc(Cl)c1 (optimized conformer: 47.528183978426085 kcal/mol)

>  <smiles>  (66) 
O=C(Cn1nc(-c2ccccc2)ccc1=O)Nc1cccc(Cl)c1

>  <score_type>  (66) 
oracle

>  <origin>  (66) 
adg

>  <m_score__min__energy>  (66) 
-8.2400000000000002

>  <m_primary>  (66) 
energy

$$$$
66:0
     RDKit          3D

 21 21  0  0  0  0  0  0  0  0999 V2000
   55.5720   29.7130   46.1280 H   0  0  0  0  0  0  0  0  0  0  0  0
   55.4720   29.9290   45.1420 O   0  0  0  0  0  0  0  0  0  0  0  0
   56.2320   29.2950   44.1830 N   0  0  0  0  0  0  0  0  0  0  0  0
   57.1790   29.9090   43.5450 C   0  0  0  0  0  0  0  0  0  0  0  0
   57.8277   29.3405   42.8623 H   0  0  0  0  0  0  0  0  0  0  0  0
   57.4020   31.3590   43.7190 C   0  0  0  0  0  0  0  0  0  0  0  0
   58.0330   32.2520   42.4900 S   0  0  0  0  0  0  0  0  0  0  0  0
   56.9860   32.0070   44.9340 N   0  0  0  0  0  0  0  0  0  0  0  0
   56.6500   31.2950   45.6240 H   0  0  0  0  0  0  0  0  0  0  0  0
   56.1790   32.6450   44.7370 H   0  0  0  0  0  0  0  0  0  0  0  0
   58.0870   32.7550   45.4890 C   0  0  0  0  0  0  0  0  0  0  0  0
   58.2010   34.1370   45.2520 C   0  0  0  0  0  0  0  0  0  0  0  0
   57.4574   34.6475   44.6223 H   0  0  0  0  0  0  0  0  0  0  0  0
   59.2550   34.8650   45.8130 C   0  0  0  0  0  0  0  0  0  0  0  0
   59.3409   35.9444   45.6193 H   0  0  0  0  0  0  0  0  0  0  0  0
   60.1990   34.2240   46.6190 C   0  0  0  0  0  0  0  0  0  0  0  0
   61.0279   34.7983   47.0583 H   0  0  0  0  0  0  0  0  0  0  0  0
   60.0900   32.8530   46.8670 C   0  0  0  0  0  0  0  0  0  0  0  0
   60.8333   32.3494   47.5025 H   0  0  0  0  0  0  0  0  0  0  0  0
   59.0380   32.1200   46.3090 C   0  0  0  0  0  0  0  0  0  0  0  0
   58.9535   31.0422   46.5120 H   0  0  0  0  0  0  0  0  0  0  0  0
  1  2  1  0
  2  3  1  0
  3  4  2  0
  4  5  1  0
  4  6  1  0
  6  7  2  0
  6  8  1  0
  8  9  1  0
  8 10  1  0
  8 11  1  0
 11 12  2  0
 12 13  1  0
 12 14  1  0
 14 15  1  0
 14 16  2  0
 16 17  1  0
 16 18  1  0
 18 19  1  0
 18 20  2  0
 20 21  1  0
 20 11  1  0
M  CHG  1   8   1
M  END
>  <UniqueID>  (67) 
60

>  <SMILES>  (67) 
O/N=C/C(=S)[NH2+]c1ccccc1

>  <Energy>  (67) 
19.505043313686468

>  <Genealogy>  (67) 
ON=CC(=S)[NH2+]c1ccccc1 (protonated)
O/N=C/C(=S)[NH2+]c1ccccc1 (cis-trans isomerization)
O/N=C/C(=S)[NH2+]c1ccccc1 (3D coordinates assigned)
O/N=C/C(=S)[NH2+]c1ccccc1 (optimized conformer: 19.505043313686468 kcal/mol)

>  <smiles>  (67) 
ON=CC(=S)Nc1ccccc1

>  <score_type>  (67) 
oracle

>  <origin>  (67) 
adg

>  <m_score__min__energy>  (67) 
-4.6600000000000001

>  <m_primary>  (67) 
energy

$$$$
67:0
     RDKit          3D

 42 43  0  0  0  0  0  0  0  0999 V2000
   56.6810   30.1760   43.6540 C   0  0  0  0  0  0  0  0  0  0  0  0
   56.6820   30.8860   44.8880 O   0  0  0  0  0  0  0  0  0  0  0  0
   57.4820   32.0070   45.1560 C   0  0  0  0  0  0  0  0  0  0  0  0
   57.7620   32.9840   44.1820 C   0  0  0  0  0  0  0  0  0  0  0  0
   58.5720   34.0780   44.4970 C   0  0  0  0  0  0  0  0  0  0  0  0
   59.1040   34.2130   45.7820 C   0  0  0  0  0  0  0  0  0  0  0  0
   58.8210   33.2550   46.7670 C   0  0  0  0  0  0  0  0  0  0  0  0
   59.4240   33.3790   48.1410 C   0  0  0  0  0  0  0  0  0  0  0  0
   60.9550   33.3780   48.0580 C   0  0  0  0  0  0  0  0  0  0  0  0
   61.4280   32.3490   47.1170 N   0  0  0  0  0  0  0  0  0  0  0  0
   61.5410   31.0270   47.7580 C   0  0  0  0  0  0  0  0  0  0  0  0
   60.5510   30.0370   47.1890 C   0  0  0  0  0  0  0  0  0  0  0  0
   60.5750   29.7120   45.8230 C   0  0  0  0  0  0  0  0  0  0  0  0
   59.6410   28.8160   45.2960 C   0  0  0  0  0  0  0  0  0  0  0  0
   58.6690   28.2330   46.1200 C   0  0  0  0  0  0  0  0  0  0  0  0
   57.7550   27.3410   45.5390 O   0  0  0  0  0  0  0  0  0  0  0  0
   56.7790   26.5940   46.2620 C   0  0  0  0  0  0  0  0  0  0  0  0
   56.8870   25.2510   45.9520 F   0  0  0  0  0  0  0  0  0  0  0  0
   55.5190   27.0360   45.9070 F   0  0  0  0  0  0  0  0  0  0  0  0
   58.6420   28.5630   47.4880 C   0  0  0  0  0  0  0  0  0  0  0  0
   59.5760   29.4600   48.0150 C   0  0  0  0  0  0  0  0  0  0  0  0
   58.0180   32.1490   46.4430 C   0  0  0  0  0  0  0  0  0  0  0  0
   56.6795   29.0942   43.8534 H   0  0  0  0  0  0  0  0  0  0  0  0
   55.7832   30.4439   43.0776 H   0  0  0  0  0  0  0  0  0  0  0  0
   57.5795   30.4413   43.0776 H   0  0  0  0  0  0  0  0  0  0  0  0
   57.3419   32.8859   43.1701 H   0  0  0  0  0  0  0  0  0  0  0  0
   58.7917   34.8358   43.7306 H   0  0  0  0  0  0  0  0  0  0  0  0
   59.7466   35.0730   46.0219 H   0  0  0  0  0  0  0  0  0  0  0  0
   59.0871   34.3199   48.6005 H   0  0  0  0  0  0  0  0  0  0  0  0
   59.1003   32.5221   48.7500 H   0  0  0  0  0  0  0  0  0  0  0  0
   61.2980   34.3652   47.7149 H   0  0  0  0  0  0  0  0  0  0  0  0
   61.3616   33.1563   49.0558 H   0  0  0  0  0  0  0  0  0  0  0  0
   62.3520   32.6300   46.7160 H   0  0  0  0  0  0  0  0  0  0  0  0
   60.7400   32.2660   46.3320 H   0  0  0  0  0  0  0  0  0  0  0  0
   62.5592   30.6417   47.6008 H   0  0  0  0  0  0  0  0  0  0  0  0
   61.3233   31.1485   48.8294 H   0  0  0  0  0  0  0  0  0  0  0  0
   61.3319   30.1644   45.1654 H   0  0  0  0  0  0  0  0  0  0  0  0
   59.6691   28.5662   44.2251 H   0  0  0  0  0  0  0  0  0  0  0  0
   56.9421   26.7333   47.3409 H   0  0  0  0  0  0  0  0  0  0  0  0
   57.8830   28.1134   48.1451 H   0  0  0  0  0  0  0  0  0  0  0  0
   59.5457   29.7147   49.0847 H   0  0  0  0  0  0  0  0  0  0  0  0
   57.8077   31.3865   47.2074 H   0  0  0  0  0  0  0  0  0  0  0  0
  1  2  1  0
  2  3  1  0
  3  4  2  0
  4  5  1  0
  5  6  2  0
  6  7  1  0
  7  8  1  0
  8  9  1  0
  9 10  1  0
 10 11  1  0
 11 12  1  0
 12 13  2  0
 13 14  1  0
 14 15  2  0
 15 16  1  0
 16 17  1  0
 17 18  1  0
 17 19  1  0
 15 20  1  0
 20 21  2  0
  7 22  2  0
 22  3  1  0
 21 12  1  0
  1 23  1  0
  1 24  1  0
  1 25  1  0
  4 26  1  0
  5 27  1  0
  6 28  1  0
  8 29  1  0
  8 30  1  0
  9 31  1  0
  9 32  1  0
 10 33  1  0
 10 34  1  0
 11 35  1  0
 11 36  1  0
 13 37  1  0
 14 38  1  0
 17 39  1  0
 20 40  1  0
 21 41  1  0
 22 42  1  0
M  CHG  1  10   1
M  END
>  <UniqueID>  (68) 
61

>  <SMILES>  (68) 
COc1cccc(CC[NH2+]Cc2ccc(OC(F)F)cc2)c1

>  <Energy>  (68) 
37.60159180693596

>  <Genealogy>  (68) 
COc1cccc(CC[NH2+]Cc2ccc(OC(F)F)cc2)c1 (protonated)
COc1cccc(CC[NH2+]Cc2ccc(OC(F)F)cc2)c1 (3D coordinates assigned)
COc1cccc(CC[NH2+]Cc2ccc(OC(F)F)cc2)c1 (optimized conformer: 37.60159180693596 kcal/mol)

>  <smiles>  (68) 
COc1cccc(CCNCc2ccc(OC(F)F)cc2)c1

>  <score_type>  (68) 
oracle

>  <origin>  (68) 
adg

>  <m_score__min__energy>  (68) 
-5.0700000000000003

>  <m_primary>  (68) 
energy

$$$$
68:0
     RDKit          3D

 40 45  0  0  0  0  0  0  0  0999 V2000
   60.2500   34.8200   48.9710 F   0  0  0  0  0  0  0  0  0  0  0  0
   59.7380   34.3730   47.7980 C   0  0  0  0  0  0  0  0  0  0  0  0
   59.4140   35.2920   46.7800 C   0  0  0  0  0  0  0  0  0  0  0  0
   58.8840   34.8410   45.5610 C   0  0  0  0  0  0  0  0  0  0  0  0
   58.6910   33.4710   45.3910 C   0  0  0  0  0  0  0  0  0  0  0  0
   58.1890   32.8120   44.2920 C   0  0  0  0  0  0  0  0  0  0  0  0
   58.1820   31.4540   44.5860 C   0  0  0  0  0  0  0  0  0  0  0  0
   57.7410   30.4950   43.7020 C   0  0  0  0  0  0  0  0  0  0  0  0
   57.6950   29.1210   43.9010 C   0  0  0  0  0  0  0  0  0  0  0  0
   58.0660   28.3200   45.0090 C   0  0  0  0  0  0  0  0  0  0  0  0
   58.6140   28.7790   46.2710 C   0  0  0  0  0  0  0  0  0  0  0  0
   58.9300   27.8160   47.2790 C   0  0  0  0  0  0  0  0  0  0  0  0
   58.7330   26.4500   47.0980 C   0  0  0  0  0  0  0  0  0  0  0  0
   58.2120   26.0320   45.8940 C   0  0  0  0  0  0  0  0  0  0  0  0
   57.9190   24.7640   45.4510 C   0  0  0  0  0  0  0  0  0  0  0  0
   58.0450   23.5120   46.0510 C   0  0  0  0  0  0  0  0  0  0  0  0
   57.6430   22.3860   45.3080 C   0  0  0  0  0  0  0  0  0  0  0  0
   57.7790   20.7850   46.0110 Cl  0  0  0  0  0  0  0  0  0  0  0  0
   57.1320   22.5400   43.9990 C   0  0  0  0  0  0  0  0  0  0  0  0
   57.0180   23.8190   43.4220 C   0  0  0  0  0  0  0  0  0  0  0  0
   57.4230   24.9170   44.1800 C   0  0  0  0  0  0  0  0  0  0  0  0
   57.3940   26.2150   43.8140 N   0  0  0  0  0  0  0  0  0  0  0  0
   57.8850   26.9110   44.8790 C   0  0  0  0  0  0  0  0  0  0  0  0
   58.8900   30.1080   46.6530 C   0  0  0  0  0  0  0  0  0  0  0  0
   58.7070   31.2780   45.9310 C   0  0  0  0  0  0  0  0  0  0  0  0
   59.0040   32.5640   46.3810 C   0  0  0  0  0  0  0  0  0  0  0  0
   59.5350   32.9960   47.6050 C   0  0  0  0  0  0  0  0  0  0  0  0
   59.5772   36.3678   46.9414 H   0  0  0  0  0  0  0  0  0  0  0  0
   58.6275   35.5505   44.7604 H   0  0  0  0  0  0  0  0  0  0  0  0
   57.8544   33.2757   43.3523 H   0  0  0  0  0  0  0  0  0  0  0  0
   57.3844   30.8583   42.7269 H   0  0  0  0  0  0  0  0  0  0  0  0
   57.2999   28.5536   43.0455 H   0  0  0  0  0  0  0  0  0  0  0  0
   59.3450   28.1681   48.2349 H   0  0  0  0  0  0  0  0  0  0  0  0
   58.9849   25.7291   47.8898 H   0  0  0  0  0  0  0  0  0  0  0  0
   58.4450   23.4075   47.0704 H   0  0  0  0  0  0  0  0  0  0  0  0
   56.8210   21.6535   43.4268 H   0  0  0  0  0  0  0  0  0  0  0  0
   56.6215   23.9482   42.4041 H   0  0  0  0  0  0  0  0  0  0  0  0
   57.0560   26.5590   42.8900 H   0  0  0  0  0  0  0  0  0  0  0  0
   59.3080   30.2342   47.6626 H   0  0  0  0  0  0  0  0  0  0  0  0
   59.7867   32.2737   48.3956 H   0  0  0  0  0  0  0  0  0  0  0  0
  1  2  1  0
  2  3  2  0
  3  4  1  0
  4  5  2  0
  5  6  1  0
  6  7  2  0
  7  8  1  0
  8  9  2  0
  9 10  1  0
 10 11  2  0
 11 12  1  0
 12 13  2  0
 13 14  1  0
 14 15  1  0
 15 16  2  0
 16 17  1  0
 17 18  1  0
 17 19  2  0
 19 20  1  0
 20 21  2  0
 21 22  1  0
 22 23  1  0
 11 24  1  0
 24 25  2  0
 25 26  1  0
 26 27  2  0
 27  2  1  0
 26  5  1  0
 25  7  1  0
 23 10  1  0
 23 14  2  0
 21 15  1  0
  3 28  1  0
  4 29  1  0
  6 30  1  0
  8 31  1  0
  9 32  1  0
 12 33  1  0
 13 34  1  0
 16 35  1  0
 19 36  1  0
 20 37  1  0
 22 38  1  0
 24 39  1  0
 27 40  1  0
M  END
>  <UniqueID>  (69) 
62

>  <SMILES>  (69) 
Fc1ccc2cc3ccc4c(ccc5c6cc(Cl)ccc6[nH]c45)cc-3c2c1

>  <Energy>  (69) 
142.06699727032884

>  <Genealogy>  (69) 
Fc1ccc2cc3ccc4c(ccc5c6cc(Cl)ccc6[nH]c45)cc-3c2c1 (3D coordinates assigned)
Fc1ccc2cc3ccc4c(ccc5c6cc(Cl)ccc6[nH]c45)cc-3c2c1 (optimized conformer: 142.06699727032884 kcal/mol)

>  <smiles>  (69) 
Fc1ccc2cc3ccc4c(ccc5c6cc(Cl)ccc6[nH]c45)cc-3c2c1

>  <score_type>  (69) 
oracle

>  <origin>  (69) 
adg

>  <m_score__min__energy>  (69) 
-9.6099999999999994

>  <m_primary>  (69) 
energy

$$$$
69:0
     RDKit          3D

 43 45  0  0  0  0  0  0  0  0999 V2000
   56.6070   29.9360   43.3940 C   0  0  0  0  0  0  0  0  0  0  0  0
   57.0290   31.1800   42.6200 C   0  0  0  0  0  0  0  0  0  0  0  0
   57.9380   31.9630   43.3900 O   0  0  0  0  0  0  0  0  0  0  0  0
   57.7480   32.2550   44.7460 C   0  0  0  0  0  0  0  0  0  0  0  0
   56.5830   32.3140   45.2260 O   0  0  0  0  0  0  0  0  0  0  0  0
   58.9200   32.4570   45.6350 C   0  0  0  0  0  0  0  0  0  0  0  0
   59.5400   33.6590   45.7160 C   0  0  0  0  0  0  0  0  0  0  0  0
   59.1290   34.8410   44.8840 C   0  0  0  0  0  0  0  0  0  0  0  0
   60.6190   33.8580   46.6420 N   0  0  0  0  0  0  0  0  0  0  0  0
   61.1760   32.9120   47.3350 C   0  0  0  0  0  0  0  0  0  0  0  0
   62.3680   33.2750   48.1760 C   0  0  0  0  0  0  0  0  0  0  0  0
   60.7640   31.4710   47.1150 C   0  0  1  0  0  0  0  0  0  0  0  0
   60.9360   30.6740   48.3450 C   0  0  0  0  0  0  0  0  0  0  0  0
   61.0700   30.0500   49.3110 N   0  0  0  0  0  0  0  0  0  0  0  0
   59.2910   31.3660   46.6370 C   0  0  2  0  0  0  0  0  0  0  0  0
   59.0320   29.9730   46.0820 C   0  0  0  0  0  0  0  0  0  0  0  0
   59.8400   29.4660   45.0290 C   0  0  0  0  0  0  0  0  0  0  0  0
   59.6090   28.1850   44.4970 C   0  0  0  0  0  0  0  0  0  0  0  0
   58.5640   27.4370   45.0310 C   0  0  0  0  0  0  0  0  0  0  0  0
   58.1110   26.1750   44.7180 C   0  0  0  0  0  0  0  0  0  0  0  0
   57.0400   25.9500   45.5760 C   0  0  0  0  0  0  0  0  0  0  0  0
   56.8380   27.0170   46.3820 N   0  0  0  0  0  0  0  0  0  0  0  0
   57.7740   27.9180   46.0400 C   0  0  0  0  0  0  0  0  0  0  0  0
   57.9730   29.1820   46.5890 C   0  0  0  0  0  0  0  0  0  0  0  0
   56.6746   30.1354   44.4737 H   0  0  0  0  0  0  0  0  0  0  0  0
   55.5704   29.6761   43.1334 H   0  0  0  0  0  0  0  0  0  0  0  0
   57.2715   29.0990   43.1334 H   0  0  0  0  0  0  0  0  0  0  0  0
   57.5179   30.8748   41.6831 H   0  0  0  0  0  0  0  0  0  0  0  0
   56.1355   31.7837   42.4025 H   0  0  0  0  0  0  0  0  0  0  0  0
   58.8401   35.6717   45.5446 H   0  0  0  0  0  0  0  0  0  0  0  0
   59.9713   35.1532   44.2492 H   0  0  0  0  0  0  0  0  0  0  0  0
   58.2747   34.5633   44.2492 H   0  0  0  0  0  0  0  0  0  0  0  0
   62.1037   33.1945   49.2407 H   0  0  0  0  0  0  0  0  0  0  0  0
   63.1979   32.5889   47.9513 H   0  0  0  0  0  0  0  0  0  0  0  0
   62.6746   34.3072   47.9513 H   0  0  0  0  0  0  0  0  0  0  0  0
   61.4204   31.0686   46.3294 H   0  0  0  0  0  0  0  0  0  0  0  0
   58.6374   31.5286   47.5067 H   0  0  0  0  0  0  0  0  0  0  0  0
   60.6561   30.0830   44.6250 H   0  0  0  0  0  0  0  0  0  0  0  0
   60.2345   27.7868   43.6845 H   0  0  0  0  0  0  0  0  0  0  0  0
   58.5103   25.4919   43.9538 H   0  0  0  0  0  0  0  0  0  0  0  0
   56.4387   25.0291   45.5963 H   0  0  0  0  0  0  0  0  0  0  0  0
   56.1030   27.1170   47.1190 H   0  0  0  0  0  0  0  0  0  0  0  0
   57.3247   29.5560   47.3951 H   0  0  0  0  0  0  0  0  0  0  0  0
  1  2  1  0
  2  3  1  0
  3  4  1  0
  4  5  2  0
  4  6  1  0
  6  7  2  0
  7  8  1  0
  7  9  1  0
  9 10  2  0
 10 11  1  0
 10 12  1  0
 12 13  1  0
 13 14  3  0
 12 15  1  0
 15 16  1  0
 16 17  2  0
 17 18  1  0
 18 19  2  0
 19 20  1  0
 20 21  2  0
 21 22  1  0
 22 23  1  0
 23 24  2  0
 15  6  1  0
 24 16  1  0
 23 19  1  0
  1 25  1  0
  1 26  1  0
  1 27  1  0
  2 28  1  0
  2 29  1  0
  8 30  1  0
  8 31  1  0
  8 32  1  0
 11 33  1  0
 11 34  1  0
 11 35  1  0
 12 36  1  6
 15 37  1  1
 17 38  1  0
 18 39  1  0
 20 40  1  0
 21 41  1  0
 22 42  1  0
 24 43  1  0
M  END
>  <UniqueID>  (70) 
63

>  <SMILES>  (70) 
CCOC(=O)C1=C(C)N=C(C)[C@@H](C#N)[C@@H]1c1ccc2cc[nH]c2c1

>  <Energy>  (70) 
78.99517737008277

>  <Genealogy>  (70) 
CCOC(=O)C1=C(C)N=C(C)[C@@H](C#N)[C@@H]1c1ccc2cc[nH]c2c1 (chirality)
CCOC(=O)C1=C(C)N=C(C)[C@@H](C#N)[C@@H]1c1ccc2cc[nH]c2c1 (3D coordinates assigned)
CCOC(=O)C1=C(C)N=C(C)[C@@H](C#N)[C@@H]1c1ccc2cc[nH]c2c1 (nonaromatic ring conformer: 78.99517737008277 kcal/mol)

>  <smiles>  (70) 
CCOC(=O)C1=C(C)N=C(C)C(C#N)C1c1ccc2cc[nH]c2c1

>  <score_type>  (70) 
oracle

>  <origin>  (70) 
adg

>  <m_score__min__energy>  (70) 
-7.5700000000000003

>  <m_primary>  (70) 
energy

$$$$
70:0
     RDKit          3D

 38 40  0  0  0  0  0  0  0  0999 V2000
   59.6590   35.5510   45.8350 C   0  0  0  0  0  0  0  0  0  0  0  0
   59.8280   34.3210   46.6700 N   0  0  0  0  0  0  0  0  0  0  0  0
   60.7400   34.4930   47.7440 C   0  0  0  0  0  0  0  0  0  0  0  0
   62.0120   33.8060   47.7830 C   0  0  0  0  0  0  0  0  0  0  0  0
   62.9340   33.8060   46.7280 C   0  0  0  0  0  0  0  0  0  0  0  0
   63.9600   33.0250   47.1490 N   0  0  0  0  0  0  0  0  0  0  0  0
   63.7190   32.5580   48.3840 C   0  0  0  0  0  0  0  0  0  0  0  0
   62.5110   33.0340   48.7940 N   0  0  0  0  0  0  0  0  0  0  0  0
   59.0630   33.2210   46.2550 C   0  0  0  0  0  0  0  0  0  0  0  0
   59.0690   31.9610   46.7870 C   0  0  0  0  0  0  0  0  0  0  0  0
   58.2650   30.9180   46.3130 C   0  0  0  0  0  0  0  0  0  0  0  0
   57.4050   31.1290   45.2580 C   0  0  0  0  0  0  0  0  0  0  0  0
   56.6300   30.0820   44.8200 O   0  0  0  0  0  0  0  0  0  0  0  0
   57.0990   28.7900   44.6740 C   0  0  0  0  0  0  0  0  0  0  0  0
   57.0380   27.8550   45.6960 C   0  0  0  0  0  0  0  0  0  0  0  0
   57.5120   26.5720   45.5330 C   0  0  0  0  0  0  0  0  0  0  0  0
   58.0640   26.2000   44.3150 C   0  0  0  0  0  0  0  0  0  0  0  0
   58.1430   27.1150   43.2640 C   0  0  0  0  0  0  0  0  0  0  0  0
   57.6550   28.4070   43.4620 C   0  0  0  0  0  0  0  0  0  0  0  0
   57.3750   32.3680   44.7110 C   0  0  0  0  0  0  0  0  0  0  0  0
   58.1680   33.3930   45.1770 C   0  0  0  0  0  0  0  0  0  0  0  0
   59.5388   36.4258   46.4909 H   0  0  0  0  0  0  0  0  0  0  0  0
   60.5468   35.6880   45.2001 H   0  0  0  0  0  0  0  0  0  0  0  0
   58.7672   35.4435   45.2001 H   0  0  0  0  0  0  0  0  0  0  0  0
   60.9686   35.5682   47.7854 H   0  0  0  0  0  0  0  0  0  0  0  0
   60.2003   34.0305   48.5835 H   0  0  0  0  0  0  0  0  0  0  0  0
   62.8448   34.3280   45.7639 H   0  0  0  0  0  0  0  0  0  0  0  0
   64.8440   32.7890   46.6190 H   0  0  0  0  0  0  0  0  0  0  0  0
   64.3839   31.9026   48.9657 H   0  0  0  0  0  0  0  0  0  0  0  0
   59.7418   31.7564   47.6328 H   0  0  0  0  0  0  0  0  0  0  0  0
   58.3201   29.9259   46.7849 H   0  0  0  0  0  0  0  0  0  0  0  0
   56.5996   28.1454   46.6622 H   0  0  0  0  0  0  0  0  0  0  0  0
   57.4536   25.8492   46.3601 H   0  0  0  0  0  0  0  0  0  0  0  0
   58.4421   25.1763   44.1770 H   0  0  0  0  0  0  0  0  0  0  0  0
   58.5815   26.8232   42.2983 H   0  0  0  0  0  0  0  0  0  0  0  0
   57.7122   29.1365   42.6407 H   0  0  0  0  0  0  0  0  0  0  0  0
   56.6956   32.5615   43.8678 H   0  0  0  0  0  0  0  0  0  0  0  0
   58.1018   34.3786   44.6930 H   0  0  0  0  0  0  0  0  0  0  0  0
  1  2  1  0
  2  3  1  0
  3  4  1  0
  4  5  2  0
  5  6  1  0
  6  7  1  0
  7  8  2  0
  2  9  1  0
  9 10  2  0
 10 11  1  0
 11 12  2  0
 12 13  1  0
 13 14  1  0
 14 15  2  0
 15 16  1  0
 16 17  2  0
 17 18  1  0
 18 19  2  0
 12 20  1  0
 20 21  2  0
  8  4  1  0
 21  9  1  0
 19 14  1  0
  1 22  1  0
  1 23  1  0
  1 24  1  0
  3 25  1  0
  3 26  1  0
  5 27  1  0
  6 28  1  0
  7 29  1  0
 10 30  1  0
 11 31  1  0
 15 32  1  0
 16 33  1  0
 17 34  1  0
 18 35  1  0
 19 36  1  0
 20 37  1  0
 21 38  1  0
M  END
>  <smiles>  (71) 
CN(Cc1c[nH]cn1)c1ccc(Oc2ccccc2)cc1

>  <score_type>  (71) 
oracle

>  <origin>  (71) 
adg

>  <m_score__min__energy>  (71) 
-7

>  <m_primary>  (71) 
energy

$$$$
71:0
     RDKit          3D

 41 43  0  0  0  0  0  0  0  0999 V2000
   61.5298   27.1752   46.7835 H   0  0  0  0  0  0  0  0  0  0  0  0
   60.4530   27.2510   46.5720 C   0  0  0  0  0  0  0  0  0  0  0  0
   60.0050   27.1750   45.2920 N   0  0  0  0  0  0  0  0  0  0  0  0
   58.6830   27.2490   44.9840 C   0  0  0  0  0  0  0  0  0  0  0  0
   58.2220   27.1460   43.2890 Cl  0  0  0  0  0  0  0  0  0  0  0  0
   57.7260   27.3940   46.0140 C   0  0  0  0  0  0  0  0  0  0  0  0
   56.2760   27.4690   45.7170 C   0  0  0  0  0  0  0  0  0  0  0  0
   55.5460   26.4760   45.9750 O   0  0  0  0  0  0  0  0  0  0  0  0
   55.6600   28.6590   45.1970 N   0  0  0  0  0  0  0  0  0  0  0  0
   56.3340   29.6680   44.4380 C   0  0  0  0  0  0  0  0  0  0  0  0
   55.9750   29.8260   43.0940 C   0  0  0  0  0  0  0  0  0  0  0  0
   55.1571   29.2226   42.6734 H   0  0  0  0  0  0  0  0  0  0  0  0
   56.6450   30.7410   42.2850 C   0  0  0  0  0  0  0  0  0  0  0  0
   56.3718   30.8513   41.2252 H   0  0  0  0  0  0  0  0  0  0  0  0
   57.6630   31.5130   42.8330 C   0  0  0  0  0  0  0  0  0  0  0  0
   58.2180   32.2210   42.2000 H   0  0  0  0  0  0  0  0  0  0  0  0
   57.9720   31.3930   44.1490 N   0  0  0  0  0  0  0  0  0  0  0  0
   57.3390   30.5200   44.9820 C   0  0  0  0  0  0  0  0  0  0  0  0
   57.6780   30.5500   46.2420 N   0  0  0  0  0  0  0  0  0  0  0  0
   58.9920   30.7480   46.8440 C   0  0  0  0  0  0  0  0  0  0  0  0
   59.7705   30.3819   46.1585 H   0  0  0  0  0  0  0  0  0  0  0  0
   59.0541   30.1922   47.7912 H   0  0  0  0  0  0  0  0  0  0  0  0
   59.1970   32.2150   47.1020 C   0  0  0  0  0  0  0  0  0  0  0  0
   59.2790   33.1110   46.0220 C   0  0  0  0  0  0  0  0  0  0  0  0
   59.1771   32.7375   44.9924 H   0  0  0  0  0  0  0  0  0  0  0  0
   59.4890   34.4720   46.2490 C   0  0  0  0  0  0  0  0  0  0  0  0
   59.5443   35.1684   45.3993 H   0  0  0  0  0  0  0  0  0  0  0  0
   59.6290   34.9510   47.5530 C   0  0  0  0  0  0  0  0  0  0  0  0
   59.7901   36.0248   47.7289 H   0  0  0  0  0  0  0  0  0  0  0  0
   59.5650   34.0700   48.6340 C   0  0  0  0  0  0  0  0  0  0  0  0
   59.6792   34.4532   49.6587 H   0  0  0  0  0  0  0  0  0  0  0  0
   59.3550   32.6930   48.4210 C   0  0  0  0  0  0  0  0  0  0  0  0
   59.3010   31.7770   49.4850 O   0  0  0  0  0  0  0  0  0  0  0  0
   58.3600   31.8280   50.5510 C   0  0  0  0  0  0  0  0  0  0  0  0
   58.8934   31.7991   51.5126 H   0  0  0  0  0  0  0  0  0  0  0  0
   57.7782   32.7590   50.4823 H   0  0  0  0  0  0  0  0  0  0  0  0
   57.6810   30.9653   50.4823 H   0  0  0  0  0  0  0  0  0  0  0  0
   58.1850   27.5070   47.3360 C   0  0  0  0  0  0  0  0  0  0  0  0
   57.4658   27.6610   48.1539 H   0  0  0  0  0  0  0  0  0  0  0  0
   59.5480   27.4250   47.6170 C   0  0  0  0  0  0  0  0  0  0  0  0
   59.9059   27.4970   48.6547 H   0  0  0  0  0  0  0  0  0  0  0  0
  1  2  1  0
  2  3  2  0
  3  4  1  0
  4  5  1  0
  4  6  2  0
  6  7  1  0
  7  8  2  0
  7  9  1  0
  9 10  1  0
 10 11  2  0
 11 12  1  0
 11 13  1  0
 13 14  1  0
 13 15  2  0
 15 16  1  0
 15 17  1  0
 17 18  1  0
 18 19  2  0
 19 20  1  0
 20 21  1  0
 20 22  1  0
 20 23  1  0
 23 24  2  0
 24 25  1  0
 24 26  1  0
 26 27  1  0
 26 28  2  0
 28 29  1  0
 28 30  1  0
 30 31  1  0
 30 32  2  0
 32 33  1  0
 33 34  1  0
 34 35  1  0
 34 36  1  0
 34 37  1  0
  6 38  1  0
 38 39  1  0
 38 40  2  0
 40 41  1  0
 40  2  1  0
 18 10  1  0
 32 23  1  0
M  CHG  2   9  -1  17  -1
M  END
>  <UniqueID>  (72) 
64

>  <SMILES>  (72) 
COc1ccccc1C/N=c1/[n-]cccc1[N-]C(=O)c1cccnc1Cl

>  <Energy>  (72) 
63.54828798261333

>  <Genealogy>  (72) 
COc1ccccc1CN=c1[n-]cccc1[N-]C(=O)c1cccnc1Cl (protonated)
COc1ccccc1C/N=c1/[n-]cccc1[N-]C(=O)c1cccnc1Cl (cis-trans isomerization)
COc1ccccc1C/N=c1/[n-]cccc1[N-]C(=O)c1cccnc1Cl (3D coordinates assigned)
COc1ccccc1C/N=c1/[n-]cccc1[N-]C(=O)c1cccnc1Cl (optimized conformer: 63.54828798261333 kcal/mol)

>  <smiles>  (72) 
COc1ccccc1CN=c1[nH]cccc1NC(=O)c1cccnc1Cl

>  <score_type>  (72) 
oracle

>  <origin>  (72) 
adg

>  <m_score__min__energy>  (72) 
-11.4

>  <m_primary>  (72) 
energy

$$$$
72:0
     RDKit          3D

 24 26  0  0  0  0  0  0  0  0999 V2000
   63.4660   33.6690   47.6200 Cl  0  0  0  0  0  0  0  0  0  0  0  0
   61.7150   33.6280   47.7310 C   0  0  0  0  0  0  0  0  0  0  0  0
   61.0690   34.2440   48.8070 C   0  0  0  0  0  0  0  0  0  0  0  0
   59.6760   34.2120   48.8970 C   0  0  0  0  0  0  0  0  0  0  0  0
   58.9230   33.5670   47.9100 C   0  0  0  0  0  0  0  0  0  0  0  0
   59.5630   32.9450   46.8230 C   0  0  0  0  0  0  0  0  0  0  0  0
   58.7760   32.2600   45.7770 C   0  0  0  0  0  0  0  0  0  0  0  0
   58.7520   32.6580   44.4740 N   0  0  0  0  0  0  0  0  0  0  0  0
   57.9230   31.7570   43.9210 C   0  0  0  0  0  0  0  0  0  0  0  0
   57.5200   31.6670   42.5910 C   0  0  0  0  0  0  0  0  0  0  0  0
   56.6360   30.6260   42.2460 C   0  0  0  0  0  0  0  0  0  0  0  0
   56.1860   29.7140   43.2290 C   0  0  0  0  0  0  0  0  0  0  0  0
   56.6160   29.8360   44.5660 C   0  0  0  0  0  0  0  0  0  0  0  0
   57.4890   30.8770   44.8650 C   0  0  0  0  0  0  0  0  0  0  0  0
   58.0220   31.1980   46.0130 O   0  0  0  0  0  0  0  0  0  0  0  0
   60.9660   32.9810   46.7410 C   0  0  0  0  0  0  0  0  0  0  0  0
   61.6584   34.7541   49.5831 H   0  0  0  0  0  0  0  0  0  0  0  0
   59.1696   34.6949   49.7457 H   0  0  0  0  0  0  0  0  0  0  0  0
   57.8257   33.5462   47.9844 H   0  0  0  0  0  0  0  0  0  0  0  0
   57.8791   32.3830   41.8371 H   0  0  0  0  0  0  0  0  0  0  0  0
   56.2936   30.5217   41.2059 H   0  0  0  0  0  0  0  0  0  0  0  0
   55.4962   28.9044   42.9485 H   0  0  0  0  0  0  0  0  0  0  0  0
   56.2746   29.1355   45.3424 H   0  0  0  0  0  0  0  0  0  0  0  0
   61.4775   32.4986   45.8951 H   0  0  0  0  0  0  0  0  0  0  0  0
  1  2  1  0
  2  3  2  0
  3  4  1  0
  4  5  2  0
  5  6  1  0
  6  7  1  0
  7  8  2  0
  8  9  1  0
  9 10  2  0
 10 11  1  0
 11 12  2  0
 12 13  1  0
 13 14  2  0
 14 15  1  0
  6 16  2  0
 16  2  1  0
 15  7  1  0
 14  9  1  0
  3 17  1  0
  4 18  1  0
  5 19  1  0
 10 20  1  0
 11 21  1  0
 12 22  1  0
 13 23  1  0
 16 24  1  0
M  END
>  <UniqueID>  (73) 
65

>  <SMILES>  (73) 
Clc1cccc(-c2nc3ccccc3o2)c1

>  <Energy>  (73) 
64.37882098275102

>  <Genealogy>  (73) 
Clc1cccc(-c2nc3ccccc3o2)c1 (3D coordinates assigned)
Clc1cccc(-c2nc3ccccc3o2)c1 (optimized conformer: 64.37882098275102 kcal/mol)

>  <smiles>  (73) 
Clc1cccc(-c2nc3ccccc3o2)c1

>  <score_type>  (73) 
oracle

>  <origin>  (73) 
adg

>  <m_score__min__energy>  (73) 
-6.1799999999999997

>  <m_primary>  (73) 
energy

$$$$
73:0
     RDKit          3D

 39 41  0  0  0  0  0  0  0  0999 V2000
   53.6360   24.7370   45.9380 O   0  0  0  0  0  0  0  0  0  0  0  0
   54.8270   24.9960   45.6220 C   0  0  0  0  0  0  0  0  0  0  0  0
   55.3500   26.2950   45.9320 N   0  0  0  0  0  0  0  0  0  0  0  0
   56.7380   26.6570   45.9920 C   0  0  0  0  0  0  0  0  0  0  0  0
   57.7550   25.6870   45.9580 C   0  0  0  0  0  0  0  0  0  0  0  0
   59.0960   26.0750   46.0150 C   0  0  0  0  0  0  0  0  0  0  0  0
   59.4340   27.4290   46.0800 C   0  0  0  0  0  0  0  0  0  0  0  0
   58.4280   28.4110   46.0640 C   0  0  0  0  0  0  0  0  0  0  0  0
   58.7460   29.8110   46.1470 N   0  0  0  0  0  0  0  0  0  0  0  0
   57.9590   30.8500   45.5330 C   0  0  0  0  0  0  0  0  0  0  0  0
   56.8730   30.5600   44.9600 O   0  0  0  0  0  0  0  0  0  0  0  0
   58.3960   32.2670   45.5650 C   0  0  0  0  0  0  0  0  0  0  0  0
   57.7350   33.2570   44.8130 C   0  0  0  0  0  0  0  0  0  0  0  0
   58.1690   34.5860   44.8560 C   0  0  0  0  0  0  0  0  0  0  0  0
   59.2690   34.9400   45.6390 C   0  0  0  0  0  0  0  0  0  0  0  0
   59.9410   33.9650   46.3780 C   0  0  0  0  0  0  0  0  0  0  0  0
   59.5120   32.6350   46.3390 C   0  0  0  0  0  0  0  0  0  0  0  0
   57.0830   28.0120   46.0330 C   0  0  0  0  0  0  0  0  0  0  0  0
   55.6590   23.9410   44.9970 C   0  0  0  0  0  0  0  0  0  0  0  0
   55.8590   23.9330   43.6050 C   0  0  0  0  0  0  0  0  0  0  0  0
   56.6410   22.9380   43.0080 C   0  0  0  0  0  0  0  0  0  0  0  0
   57.2220   21.9390   43.7910 C   0  0  0  0  0  0  0  0  0  0  0  0
   57.0170   21.9290   45.1740 C   0  0  0  0  0  0  0  0  0  0  0  0
   56.2370   22.9200   45.7750 C   0  0  0  0  0  0  0  0  0  0  0  0
   57.4945   24.6207   45.8864 H   0  0  0  0  0  0  0  0  0  0  0  0
   59.8882   25.3119   46.0087 H   0  0  0  0  0  0  0  0  0  0  0  0
   60.4907   27.7278   46.1439 H   0  0  0  0  0  0  0  0  0  0  0  0
   59.5710   30.0720   46.7300 H   0  0  0  0  0  0  0  0  0  0  0  0
   56.8721   32.9836   44.1879 H   0  0  0  0  0  0  0  0  0  0  0  0
   57.6420   35.3543   44.2712 H   0  0  0  0  0  0  0  0  0  0  0  0
   59.6060   35.9865   45.6736 H   0  0  0  0  0  0  0  0  0  0  0  0
   60.8099   34.2437   46.9923 H   0  0  0  0  0  0  0  0  0  0  0  0
   60.0510   31.8704   46.9178 H   0  0  0  0  0  0  0  0  0  0  0  0
   56.2900   28.7743   46.0410 H   0  0  0  0  0  0  0  0  0  0  0  0
   55.3980   24.7135   42.9819 H   0  0  0  0  0  0  0  0  0  0  0  0
   56.7983   22.9430   41.9193 H   0  0  0  0  0  0  0  0  0  0  0  0
   57.8405   21.1605   43.3204 H   0  0  0  0  0  0  0  0  0  0  0  0
   57.4709   21.1390   45.7903 H   0  0  0  0  0  0  0  0  0  0  0  0
   56.0735   22.9024   46.8626 H   0  0  0  0  0  0  0  0  0  0  0  0
  1  2  2  0
  2  3  1  0
  3  4  1  0
  4  5  2  0
  5  6  1  0
  6  7  2  0
  7  8  1  0
  8  9  1  0
  9 10  1  0
 10 11  2  0
 10 12  1  0
 12 13  2  0
 13 14  1  0
 14 15  2  0
 15 16  1  0
 16 17  2  0
  8 18  2  0
  2 19  1  0
 19 20  2  0
 20 21  1  0
 21 22  2  0
 22 23  1  0
 23 24  2  0
 18  4  1  0
 24 19  1  0
 17 12  1  0
  5 25  1  0
  6 26  1  0
  7 27  1  0
  9 28  1  0
 13 29  1  0
 14 30  1  0
 15 31  1  0
 16 32  1  0
 17 33  1  0
 18 34  1  0
 20 35  1  0
 21 36  1  0
 22 37  1  0
 23 38  1  0
 24 39  1  0
M  CHG  1   3  -1
M  END
>  <UniqueID>  (74) 
66

>  <SMILES>  (74) 
O=C([N-]c1cccc(NC(=O)c2ccccc2)c1)c1ccccc1

>  <Energy>  (74) 
55.874828954839785

>  <Genealogy>  (74) 
O=C([N-]c1cccc(NC(=O)c2ccccc2)c1)c1ccccc1 (protonated)
O=C([N-]c1cccc(NC(=O)c2ccccc2)c1)c1ccccc1 (3D coordinates assigned)
O=C([N-]c1cccc(NC(=O)c2ccccc2)c1)c1ccccc1 (optimized conformer: 55.874828954839785 kcal/mol)

>  <smiles>  (74) 
O=C(Nc1cccc(NC(=O)c2ccccc2)c1)c1ccccc1

>  <score_type>  (74) 
oracle

>  <origin>  (74) 
adg

>  <m_score__min__energy>  (74) 
-10.6

>  <m_primary>  (74) 
energy

$$$$
74:0
     RDKit          3D

 32 33  0  0  0  0  0  0  0  0999 V2000
   60.4140   26.8490   46.3630 C   0  0  0  0  0  0  0  0  0  0  0  0
   59.0830   26.1120   46.2030 C   0  0  0  0  0  0  0  0  0  0  0  0
   58.2020   26.7140   45.0920 C   0  0  0  0  0  0  0  0  0  0  0  0
   57.0160   27.5370   45.6240 C   0  0  0  0  0  0  0  0  0  0  0  0
   57.2480   28.9860   45.4940 N   0  0  0  0  0  0  0  0  0  0  0  0
   58.3920   29.5180   46.0230 C   0  0  0  0  0  0  0  0  0  0  0  0
   58.6430   30.8890   45.9350 C   0  0  0  0  0  0  0  0  0  0  0  0
   59.8010   31.4630   46.4780 C   0  0  0  0  0  0  0  0  0  0  0  0
   60.0130   32.8410   46.3700 C   0  0  0  0  0  0  0  0  0  0  0  0
   59.0800   33.6550   45.7070 C   0  0  0  0  0  0  0  0  0  0  0  0
   59.2920   35.1370   45.6280 C   0  0  0  0  0  0  0  0  0  0  0  0
   57.9130   33.0790   45.1780 C   0  0  0  0  0  0  0  0  0  0  0  0
   57.6980   31.7000   45.2860 C   0  0  0  0  0  0  0  0  0  0  0  0
   56.5770   31.1400   44.7680 N   0  0  0  0  0  0  0  0  0  0  0  0
   56.3430   29.8060   44.8630 C   0  0  0  0  0  0  0  0  0  0  0  0
   55.2820   29.3370   44.3690 O   0  0  0  0  0  0  0  0  0  0  0  0
   60.6381   26.9731   47.4328 H   0  0  0  0  0  0  0  0  0  0  0  0
   61.2155   26.2662   45.8856 H   0  0  0  0  0  0  0  0  0  0  0  0
   60.3454   27.8376   45.8856 H   0  0  0  0  0  0  0  0  0  0  0  0
   59.2902   25.0600   45.9571 H   0  0  0  0  0  0  0  0  0  0  0  0
   58.5339   26.2065   47.1514 H   0  0  0  0  0  0  0  0  0  0  0  0
   58.8280   27.3692   44.4685 H   0  0  0  0  0  0  0  0  0  0  0  0
   57.7808   25.8722   44.5228 H   0  0  0  0  0  0  0  0  0  0  0  0
   56.1138   27.2692   45.0545 H   0  0  0  0  0  0  0  0  0  0  0  0
   56.8945   27.3066   46.6927 H   0  0  0  0  0  0  0  0  0  0  0  0
   59.1197   28.8608   46.5215 H   0  0  0  0  0  0  0  0  0  0  0  0
   60.5420   30.8302   46.9884 H   0  0  0  0  0  0  0  0  0  0  0  0
   60.9167   33.2905   46.8073 H   0  0  0  0  0  0  0  0  0  0  0  0
   59.3516   35.5536   46.6443 H   0  0  0  0  0  0  0  0  0  0  0  0
   60.2291   35.3452   45.0909 H   0  0  0  0  0  0  0  0  0  0  0  0
   58.4509   35.5996   45.0909 H   0  0  0  0  0  0  0  0  0  0  0  0
   57.1663   33.7132   44.6777 H   0  0  0  0  0  0  0  0  0  0  0  0
  1  2  1  0
  2  3  1  0
  3  4  1  0
  4  5  1  0
  5  6  1  0
  6  7  2  0
  7  8  1  0
  8  9  2  0
  9 10  1  0
 10 11  1  0
 10 12  2  0
 12 13  1  0
 13 14  2  0
 14 15  1  0
 15 16  2  0
 15  5  1  0
 13  7  1  0
  1 17  1  0
  1 18  1  0
  1 19  1  0
  2 20  1  0
  2 21  1  0
  3 22  1  0
  3 23  1  0
  4 24  1  0
  4 25  1  0
  6 26  1  0
  8 27  1  0
  9 28  1  0
 11 29  1  0
 11 30  1  0
 11 31  1  0
 12 32  1  0
M  END
>  <UniqueID>  (75) 
67

>  <SMILES>  (75) 
CCCCn1cc2ccc(C)cc2nc1=O

>  <Energy>  (75) 
31.580433134146322

>  <Genealogy>  (75) 
CCCCn1cc2ccc(C)cc2nc1=O (3D coordinates assigned)
CCCCn1cc2ccc(C)cc2nc1=O (optimized conformer: 31.580433134146322 kcal/mol)

>  <smiles>  (75) 
CCCCn1cc2ccc(C)cc2nc1=O

>  <score_type>  (75) 
oracle

>  <origin>  (75) 
adg

>  <m_score__min__energy>  (75) 
-6.29

>  <m_primary>  (75) 
energy

$$$$
75:0
     RDKit          3D

 40 42  0  0  0  0  0  0  0  0999 V2000
   54.4880   27.0930   46.7200 H   0  0  0  0  0  0  0  0  0  0  0  0
   55.1460   26.6880   46.0180 N   0  0  0  0  0  0  0  0  0  0  0  0
   56.5580   26.8050   46.1850 C   0  0  0  0  0  0  0  0  0  0  0  0
   57.2150   25.8160   46.6000 O   0  0  0  0  0  0  0  0  0  0  0  0
   57.2180   28.0870   45.8790 C   0  0  0  0  0  0  0  0  0  0  0  0
   56.6180   29.0570   45.1530 N   0  0  0  0  0  0  0  0  0  0  0  0
   57.5390   30.0420   45.0660 C   0  0  0  0  0  0  0  0  0  0  0  0
   57.3060   31.3160   44.3100 C   0  0  0  0  0  0  0  0  0  0  0  0
   57.7942   31.2475   43.3266 H   0  0  0  0  0  0  0  0  0  0  0  0
   56.2228   31.4629   44.1871 H   0  0  0  0  0  0  0  0  0  0  0  0
   57.8720   32.4870   45.0620 C   0  0  0  0  0  0  0  0  0  0  0  0
   58.7370   33.3940   44.4270 C   0  0  0  0  0  0  0  0  0  0  0  0
   59.0157   33.2397   43.3741 H   0  0  0  0  0  0  0  0  0  0  0  0
   59.2450   34.4920   45.1280 C   0  0  0  0  0  0  0  0  0  0  0  0
   59.9224   35.1982   44.6257 H   0  0  0  0  0  0  0  0  0  0  0  0
   58.8940   34.6940   46.4650 C   0  0  0  0  0  0  0  0  0  0  0  0
   59.2949   35.5584   47.0146 H   0  0  0  0  0  0  0  0  0  0  0  0
   58.0330   33.7970   47.1040 C   0  0  0  0  0  0  0  0  0  0  0  0
   57.7565   33.9563   48.1567 H   0  0  0  0  0  0  0  0  0  0  0  0
   57.5230   32.6980   46.4070 C   0  0  0  0  0  0  0  0  0  0  0  0
   56.8453   31.9950   46.9135 H   0  0  0  0  0  0  0  0  0  0  0  0
   58.6830   29.7380   45.7080 N   0  0  0  0  0  0  0  0  0  0  0  0
   59.8450   30.5290   45.7300 N   0  0  0  0  0  0  0  0  0  0  0  0
   60.6830   30.5160   46.7200 C   0  0  0  0  0  0  0  0  0  0  0  0
   61.2194   29.5860   46.9595 H   0  0  0  0  0  0  0  0  0  0  0  0
   60.9320   31.7250   47.5330 C   0  0  0  0  0  0  0  0  0  0  0  0
   61.9090   32.6310   47.0830 C   0  0  0  0  0  0  0  0  0  0  0  0
   62.4457   32.4304   46.1440 H   0  0  0  0  0  0  0  0  0  0  0  0
   62.2050   33.7820   47.8150 C   0  0  0  0  0  0  0  0  0  0  0  0
   62.9781   34.4776   47.4566 H   0  0  0  0  0  0  0  0  0  0  0  0
   61.5210   34.0510   49.0010 C   0  0  0  0  0  0  0  0  0  0  0  0
   61.7605   34.9544   49.5811 H   0  0  0  0  0  0  0  0  0  0  0  0
   60.5340   33.1750   49.4510 C   0  0  0  0  0  0  0  0  0  0  0  0
   59.9928   33.3952   50.3830 H   0  0  0  0  0  0  0  0  0  0  0  0
   60.2260   32.0170   48.7260 C   0  0  0  0  0  0  0  0  0  0  0  0
   58.8980   31.0190   49.3160 Cl  0  0  0  0  0  0  0  0  0  0  0  0
   58.5020   28.5030   46.2150 C   0  0  0  0  0  0  0  0  0  0  0  0
   59.5290   27.7190   46.8350 N   0  0  0  0  0  0  0  0  0  0  0  0
   59.3780   26.7250   47.1040 H   0  0  0  0  0  0  0  0  0  0  0  0
   60.4850   28.1090   46.9770 H   0  0  0  0  0  0  0  0  0  0  0  0
  1  2  1  0
  2  3  1  0
  3  4  2  0
  3  5  1  0
  5  6  1  0
  6  7  2  0
  7  8  1  0
  8  9  1  0
  8 10  1  0
  8 11  1  0
 11 12  2  0
 12 13  1  0
 12 14  1  0
 14 15  1  0
 14 16  2  0
 16 17  1  0
 16 18  1  0
 18 19  1  0
 18 20  2  0
 20 21  1  0
  7 22  1  0
 22 23  1  0
 23 24  2  0
 24 25  1  0
 24 26  1  0
 26 27  2  0
 27 28  1  0
 27 29  1  0
 29 30  1  0
 29 31  2  0
 31 32  1  0
 31 33  1  0
 33 34  1  0
 33 35  2  0
 35 36  1  0
 22 37  1  0
 37 38  1  0
 38 39  1  0
 38 40  1  0
 37  5  2  0
 20 11  1  0
 35 26  1  0
M  CHG  1   2  -1
M  END
>  <UniqueID>  (76) 
68

>  <SMILES>  (76) 
[NH-]C(=O)c1nc(Cc2ccccc2)n(/N=C/c2ccccc2Cl)c1N

>  <Energy>  (76) 
79.75561019128536

>  <Genealogy>  (76) 
[NH-]C(=O)c1nc(Cc2ccccc2)n(N=Cc2ccccc2Cl)c1N (protonated)
[NH-]C(=O)c1nc(Cc2ccccc2)n(/N=C/c2ccccc2Cl)c1N (cis-trans isomerization)
[NH-]C(=O)c1nc(Cc2ccccc2)n(/N=C/c2ccccc2Cl)c1N (3D coordinates assigned)
[NH-]C(=O)c1nc(Cc2ccccc2)n(/N=C/c2ccccc2Cl)c1N (optimized conformer: 79.75561019128536 kcal/mol)

>  <smiles>  (76) 
NC(=O)c1nc(Cc2ccccc2)n(N=Cc2ccccc2Cl)c1N

>  <score_type>  (76) 
oracle

>  <origin>  (76) 
adg

>  <m_score__min__energy>  (76) 
-11.869999999999999

>  <m_primary>  (76) 
energy

$$$$
76:0
     RDKit          3D

 37 40  0  0  0  0  0  0  0  0999 V2000
   55.3090   29.4040   43.5840 O   0  0  0  0  0  0  0  0  0  0  0  0
   56.3340   29.9910   44.0230 C   0  0  0  0  0  0  0  0  0  0  0  0
   56.2250   31.2270   44.4990 O   0  0  0  0  0  0  0  0  0  0  0  0
   57.2620   31.9080   44.9900 C   0  0  0  0  0  0  0  0  0  0  0  0
   57.0650   33.2480   45.4710 N   0  0  0  0  0  0  0  0  0  0  0  0
   58.1590   33.6080   46.3380 C   0  0  0  0  0  0  0  0  0  0  0  0
   58.2250   33.0940   47.6470 C   0  0  0  0  0  0  0  0  0  0  0  0
   59.2990   33.4170   48.4810 C   0  0  0  0  0  0  0  0  0  0  0  0
   60.3210   34.2490   48.0160 C   0  0  0  0  0  0  0  0  0  0  0  0
   60.2730   34.7560   46.7150 C   0  0  0  0  0  0  0  0  0  0  0  0
   59.2010   34.4380   45.8750 C   0  0  0  0  0  0  0  0  0  0  0  0
   59.1800   34.9300   44.6110 F   0  0  0  0  0  0  0  0  0  0  0  0
   58.5360   31.3190   45.0140 C   0  0  0  0  0  0  0  0  0  0  0  0
   58.6960   30.0250   44.5080 C   0  0  0  0  0  0  0  0  0  0  0  0
   57.5790   29.3510   44.0070 C   0  0  0  0  0  0  0  0  0  0  0  0
   57.7780   27.6750   43.4030 S   0  0  0  0  0  0  0  0  0  0  0  0
   57.9620   27.0270   45.0700 C   0  0  0  0  0  0  0  0  0  0  0  0
   56.9920   26.1150   45.5070 C   0  0  0  0  0  0  0  0  0  0  0  0
   57.1060   25.5000   46.7550 C   0  0  0  0  0  0  0  0  0  0  0  0
   56.1680   24.6090   47.1610 F   0  0  0  0  0  0  0  0  0  0  0  0
   58.1930   25.7920   47.5780 C   0  0  0  0  0  0  0  0  0  0  0  0
   59.1540   26.7160   47.1650 C   0  0  0  0  0  0  0  0  0  0  0  0
   59.0480   27.3650   45.9280 C   0  0  0  0  0  0  0  0  0  0  0  0
   60.0190   28.3520   45.6520 O   0  0  0  0  0  0  0  0  0  0  0  0
   60.0190   29.3090   44.5910 C   0  0  0  0  0  0  0  0  0  0  0  0
   57.0170   33.9040   44.6580 H   0  0  0  0  0  0  0  0  0  0  0  0
   56.1530   33.3200   45.9800 H   0  0  0  0  0  0  0  0  0  0  0  0
   57.4261   32.4339   48.0158 H   0  0  0  0  0  0  0  0  0  0  0  0
   59.3399   33.0159   49.5045 H   0  0  0  0  0  0  0  0  0  0  0  0
   61.1639   34.5049   48.6748 H   0  0  0  0  0  0  0  0  0  0  0  0
   61.0809   35.4073   46.3502 H   0  0  0  0  0  0  0  0  0  0  0  0
   59.3964   31.8675   45.4250 H   0  0  0  0  0  0  0  0  0  0  0  0
   56.1330   25.8816   44.8608 H   0  0  0  0  0  0  0  0  0  0  0  0
   58.2932   25.2937   48.5535 H   0  0  0  0  0  0  0  0  0  0  0  0
   60.0083   26.9382   47.8213 H   0  0  0  0  0  0  0  0  0  0  0  0
   60.8157   30.0457   44.7714 H   0  0  0  0  0  0  0  0  0  0  0  0
   60.1904   28.7795   43.6422 H   0  0  0  0  0  0  0  0  0  0  0  0
  1  2  2  0
  2  3  1  0
  3  4  1  0
  4  5  1  0
  5  6  1  0
  6  7  2  0
  7  8  1  0
  8  9  2  0
  9 10  1  0
 10 11  2  0
 11 12  1  0
  4 13  2  0
 13 14  1  0
 14 15  2  0
 15 16  1  0
 16 17  1  0
 17 18  2  0
 18 19  1  0
 19 20  1  0
 19 21  2  0
 21 22  1  0
 22 23  2  0
 23 24  1  0
 24 25  1  0
 15  2  1  0
 23 17  1  0
 11  6  1  0
 25 14  1  0
  5 26  1  0
  5 27  1  0
  7 28  1  0
  8 29  1  0
  9 30  1  0
 10 31  1  0
 13 32  1  0
 18 33  1  0
 21 34  1  0
 22 35  1  0
 25 36  1  0
 25 37  1  0
M  CHG  1   5   1
M  END
>  <UniqueID>  (77) 
69

>  <SMILES>  (77) 
O=c1oc([NH2+]c2ccccc2F)cc2c1Sc1cc(F)ccc1OC2

>  <Energy>  (77) 
53.52388035209225

>  <Genealogy>  (77) 
O=c1oc([NH2+]c2ccccc2F)cc2c1Sc1cc(F)ccc1OC2 (protonated)
O=c1oc([NH2+]c2ccccc2F)cc2c1Sc1cc(F)ccc1OC2 (3D coordinates assigned)
O=c1oc([NH2+]c2ccccc2F)cc2c1Sc1cc(F)ccc1OC2 (nonaromatic ring conformer: 53.52388035209225 kcal/mol)

>  <smiles>  (77) 
O=c1oc(Nc2ccccc2F)cc2c1Sc1cc(F)ccc1OC2

>  <score_type>  (77) 
oracle

>  <origin>  (77) 
adg

>  <m_score__min__energy>  (77) 
-6.4199999999999999

>  <m_primary>  (77) 
energy

$$$$
77:0
     RDKit          3D

 27 28  0  0  0  0  0  0  0  0999 V2000
   50.9490   30.9360   48.2500 C   0  0  0  0  0  0  0  0  0  0  0  0
   51.3850   30.9980   49.6800 C   0  0  0  0  0  0  0  0  0  0  0  0
   52.2960   30.0620   50.1830 C   0  0  0  0  0  0  0  0  0  0  0  0
   52.6920   30.1340   51.5250 C   0  0  0  0  0  0  0  0  0  0  0  0
   53.5790   29.2320   52.0380 N   0  0  0  0  0  0  0  0  0  0  0  0
   53.9720   29.2970   53.3480 C   0  0  0  0  0  0  0  0  0  0  0  0
   54.9120   28.3450   53.9010 N   0  0  0  0  0  0  0  0  0  0  0  0
   56.3380   28.6670   54.0200 C   0  0  0  0  0  0  0  0  0  0  0  0
   54.4200   27.0370   54.3490 C   0  0  0  0  0  0  0  0  0  0  0  0
   53.4650   30.2780   54.1460 N   0  0  0  0  0  0  0  0  0  0  0  0
   52.5810   31.1950   53.6820 C   0  0  0  0  0  0  0  0  0  0  0  0
   52.1670   31.1480   52.3470 C   0  0  0  0  0  0  0  0  0  0  0  0
   51.2530   32.0690   51.8030 C   0  0  0  0  0  0  0  0  0  0  0  0
   50.7630   32.9910   52.5100 O   0  0  0  0  0  0  0  0  0  0  0  0
   50.8910   31.9690   50.4960 N   0  0  0  0  0  0  0  0  0  0  0  0
   49.8609   30.7813   48.2048 H   0  0  0  0  0  0  0  0  0  0  0  0
   51.2064   31.8798   47.7470 H   0  0  0  0  0  0  0  0  0  0  0  0
   51.4592   30.1014   47.7470 H   0  0  0  0  0  0  0  0  0  0  0  0
   52.6986   29.2747   49.5287 H   0  0  0  0  0  0  0  0  0  0  0  0
   53.9550   28.4900   51.4090 H   0  0  0  0  0  0  0  0  0  0  0  0
   56.6124   28.7290   55.0834 H   0  0  0  0  0  0  0  0  0  0  0  0
   56.9333   27.8807   53.5329 H   0  0  0  0  0  0  0  0  0  0  0  0
   56.5377   29.6329   53.5329 H   0  0  0  0  0  0  0  0  0  0  0  0
   54.4085   27.0065   55.4485 H   0  0  0  0  0  0  0  0  0  0  0  0
   53.4007   26.8782   53.9671 H   0  0  0  0  0  0  0  0  0  0  0  0
   55.0820   26.2458   53.9671 H   0  0  0  0  0  0  0  0  0  0  0  0
   52.1905   31.9738   54.3536 H   0  0  0  0  0  0  0  0  0  0  0  0
  1  2  1  0
  2  3  2  0
  3  4  1  0
  4  5  2  0
  5  6  1  0
  6  7  1  0
  7  8  1  0
  7  9  1  0
  6 10  2  0
 10 11  1  0
 11 12  2  0
 12 13  1  0
 13 14  2  0
 13 15  1  0
 15  2  1  0
 12  4  1  0
  1 16  1  0
  1 17  1  0
  1 18  1  0
  3 19  1  0
  5 20  1  0
  8 21  1  0
  8 22  1  0
  8 23  1  0
  9 24  1  0
  9 25  1  0
  9 26  1  0
 11 27  1  0
M  CHG  2   5   1  15  -1
M  END
>  <UniqueID>  (78) 
70

>  <SMILES>  (78) 
Cc1cc2[nH+]c(N(C)C)ncc2c(=O)[n-]1

>  <Energy>  (78) 
30.13201579980488

>  <Genealogy>  (78) 
Cc1cc2[nH+]c(N(C)C)ncc2c(=O)[n-]1 (protonated)
Cc1cc2[nH+]c(N(C)C)ncc2c(=O)[n-]1 (3D coordinates assigned)
Cc1cc2[nH+]c(N(C)C)ncc2c(=O)[n-]1 (optimized conformer: 30.13201579980488 kcal/mol)

>  <smiles>  (78) 
Cc1cc2nc(N(C)C)ncc2c(=O)[nH]1

>  <score_type>  (78) 
oracle

>  <origin>  (78) 
adg

>  <m_score__min__energy>  (78) 
-6.75

>  <m_primary>  (78) 
energy

$$$$
78:0
     RDKit          3D

 56 60  0  0  0  0  0  0  0  0999 V2000
   57.0221   26.1727   44.8496 H   0  0  0  0  0  0  0  0  0  0  0  0
   57.2720   27.0130   45.5140 C   0  0  0  0  0  0  0  0  0  0  0  0
   57.6190   26.7180   46.7760 C   0  0  0  0  0  0  0  0  0  0  0  0
   56.9108   26.1210   47.3693 H   0  0  0  0  0  0  0  0  0  0  0  0
   58.8760   27.1310   47.4320 C   0  0  0  0  0  0  0  0  0  0  0  0
   59.8800   26.2970   47.7990 N   0  0  0  0  0  0  0  0  0  0  0  0
   60.8200   26.9970   48.4280 N   0  0  0  0  0  0  0  0  0  0  0  0
   60.4040   28.2740   48.4720 C   0  0  0  0  0  0  0  0  0  0  0  0
   61.0560   29.3630   49.0430 C   0  0  0  0  0  0  0  0  0  0  0  0
   62.0404   29.2464   49.5198 H   0  0  0  0  0  0  0  0  0  0  0  0
   60.4180   30.6220   48.9930 C   0  0  0  0  0  0  0  0  0  0  0  0
   61.0670   31.7610   49.5870 N   0  0  0  0  0  0  0  0  0  0  0  0
   60.4730   32.5660   49.8890 H   0  0  0  0  0  0  0  0  0  0  0  0
   62.4660   31.8050   49.9150 C   0  0  0  0  0  0  0  0  0  0  0  0
   62.8790   31.2950   51.1540 C   0  0  0  0  0  0  0  0  0  0  0  0
   62.1309   30.9101   51.8627 H   0  0  0  0  0  0  0  0  0  0  0  0
   64.2330   31.2720   51.4950 C   0  0  0  0  0  0  0  0  0  0  0  0
   64.5481   30.8622   52.4659 H   0  0  0  0  0  0  0  0  0  0  0  0
   65.1860   31.7680   50.6060 C   0  0  0  0  0  0  0  0  0  0  0  0
   66.2532   31.7355   50.8707 H   0  0  0  0  0  0  0  0  0  0  0  0
   64.7880   32.3060   49.3800 C   0  0  0  0  0  0  0  0  0  0  0  0
   65.5447   32.7025   48.6871 H   0  0  0  0  0  0  0  0  0  0  0  0
   63.4280   32.3450   49.0240 C   0  0  0  0  0  0  0  0  0  0  0  0
   63.0350   32.9980   47.7570 C   0  0  0  0  0  0  0  0  0  0  0  0
   63.8500   33.0290   46.7930 O   0  0  0  0  0  0  0  0  0  0  0  0
   61.7390   33.5980   47.6190 N   0  0  0  0  0  0  0  0  0  0  0  0
   61.1090   33.6540   48.4510 H   0  0  0  0  0  0  0  0  0  0  0  0
   61.2920   34.2170   46.3720 C   0  0  0  0  0  0  0  0  0  0  0  0
   61.5223   35.2923   46.3969 H   0  0  0  0  0  0  0  0  0  0  0  0
   61.8127   33.7414   45.5278 H   0  0  0  0  0  0  0  0  0  0  0  0
   59.8090   34.0300   46.2030 C   0  0  0  0  0  0  0  0  0  0  0  0
   59.2060   34.1990   44.9440 C   0  0  0  0  0  0  0  0  0  0  0  0
   59.8184   34.4861   44.0765 H   0  0  0  0  0  0  0  0  0  0  0  0
   57.8300   34.0030   44.7920 C   0  0  0  0  0  0  0  0  0  0  0  0
   57.3614   34.1394   43.8062 H   0  0  0  0  0  0  0  0  0  0  0  0
   57.0490   33.6340   45.8910 C   0  0  0  0  0  0  0  0  0  0  0  0
   55.9664   33.4813   45.7696 H   0  0  0  0  0  0  0  0  0  0  0  0
   57.6430   33.4590   47.1440 C   0  0  0  0  0  0  0  0  0  0  0  0
   57.0276   33.1668   48.0077 H   0  0  0  0  0  0  0  0  0  0  0  0
   59.0190   33.6550   47.3010 C   0  0  0  0  0  0  0  0  0  0  0  0
   59.4836   33.5148   48.2882 H   0  0  0  0  0  0  0  0  0  0  0  0
   59.1550   30.7440   48.3440 C   0  0  0  0  0  0  0  0  0  0  0  0
   58.6670   31.7280   48.2837 H   0  0  0  0  0  0  0  0  0  0  0  0
   58.5260   29.6200   47.7800 C   0  0  0  0  0  0  0  0  0  0  0  0
   57.5462   29.7030   47.2870 H   0  0  0  0  0  0  0  0  0  0  0  0
   59.1880   28.3980   47.8680 C   0  0  0  0  0  0  0  0  0  0  0  0
   57.1980   28.3720   44.9440 C   0  0  0  0  0  0  0  0  0  0  0  0
   55.9840   28.9830   44.8620 N   0  0  0  0  0  0  0  0  0  0  0  0
   55.8480   30.2530   44.3930 C   0  0  0  0  0  0  0  0  0  0  0  0
   54.8498   30.7103   44.3267 H   0  0  0  0  0  0  0  0  0  0  0  0
   56.9740   30.9760   43.9960 C   0  0  0  0  0  0  0  0  0  0  0  0
   56.8688   31.9998   43.6077 H   0  0  0  0  0  0  0  0  0  0  0  0
   58.2350   30.3860   44.0970 C   0  0  0  0  0  0  0  0  0  0  0  0
   59.1320   30.9459   43.7939 H   0  0  0  0  0  0  0  0  0  0  0  0
   58.3540   29.0830   44.5840 C   0  0  0  0  0  0  0  0  0  0  0  0
   59.3454   28.6172   44.6849 H   0  0  0  0  0  0  0  0  0  0  0  0
  1  2  1  0
  2  3  2  0
  3  4  1  0
  3  5  1  0
  5  6  1  0
  6  7  1  0
  7  8  2  0
  8  9  1  0
  9 10  1  0
  9 11  2  0
 11 12  1  0
 12 13  1  0
 12 14  1  0
 14 15  2  0
 15 16  1  0
 15 17  1  0
 17 18  1  0
 17 19  2  0
 19 20  1  0
 19 21  1  0
 21 22  1  0
 21 23  2  0
 23 24  1  0
 24 25  2  0
 24 26  1  0
 26 27  1  0
 26 28  1  0
 28 29  1  0
 28 30  1  0
 28 31  1  0
 31 32  2  0
 32 33  1  0
 32 34  1  0
 34 35  1  0
 34 36  2  0
 36 37  1  0
 36 38  1  0
 38 39  1  0
 38 40  2  0
 40 41  1  0
 11 42  1  0
 42 43  1  0
 42 44  2  0
 44 45  1  0
 44 46  1  0
  2 47  1  0
 47 48  2  0
 48 49  1  0
 49 50  1  0
 49 51  2  0
 51 52  1  0
 51 53  1  0
 53 54  1  0
 53 55  2  0
 55 56  1  0
 46  5  2  0
 55 47  1  0
 46  8  1  0
 23 14  1  0
 40 31  1  0
M  CHG  1   6  -1
M  END
>  <UniqueID>  (79) 
71

>  <SMILES>  (79) 
O=C(NCc1ccccc1)c1ccccc1Nc1ccc2c(/C=C\c3ccccn3)[n-]nc2c1

>  <Energy>  (79) 
116.42188110929064

>  <Genealogy>  (79) 
O=C(NCc1ccccc1)c1ccccc1Nc1ccc2c(C=Cc3ccccn3)[n-]nc2c1 (protonated)
O=C(NCc1ccccc1)c1ccccc1Nc1ccc2c(/C=C\c3ccccn3)[n-]nc2c1 (cis-trans isomerization)
O=C(NCc1ccccc1)c1ccccc1Nc1ccc2c(/C=C\c3ccccn3)[n-]nc2c1 (3D coordinates assigned)
O=C(NCc1ccccc1)c1ccccc1Nc1ccc2c(/C=C\c3ccccn3)[n-]nc2c1 (optimized conformer: 116.42188110929064 kcal/mol)

>  <smiles>  (79) 
O=C(NCc1ccccc1)c1ccccc1Nc1ccc2c(C=Cc3ccccn3)[nH]nc2c1

>  <score_type>  (79) 
oracle

>  <origin>  (79) 
adg

>  <m_score__min__energy>  (79) 
-11.66

>  <m_primary>  (79) 
energy

$$$$
79:0
     RDKit          3D

 33 35  0  0  0  0  0  0  0  0999 V2000
   55.9720   29.3550   45.2160 O   0  0  0  0  0  0  0  0  0  0  0  0
   57.2010   29.6280   45.2800 C   0  0  0  0  0  0  0  0  0  0  0  0
   58.1740   28.5740   45.6600 C   0  0  0  0  0  0  0  0  0  0  0  0
   59.5350   28.6940   45.3210 C   0  0  0  0  0  0  0  0  0  0  0  0
   60.4440   27.6940   45.6800 C   0  0  0  0  0  0  0  0  0  0  0  0
   60.0090   26.5700   46.3850 C   0  0  0  0  0  0  0  0  0  0  0  0
   58.6620   26.4440   46.7350 C   0  0  0  0  0  0  0  0  0  0  0  0
   58.2400   25.3530   47.4210 F   0  0  0  0  0  0  0  0  0  0  0  0
   57.7480   27.4400   46.3780 C   0  0  0  0  0  0  0  0  0  0  0  0
   57.6300   30.9740   45.0080 N   0  0  0  0  0  0  0  0  0  0  0  0
   57.3200   31.5150   43.6770 C   0  0  0  0  0  0  0  0  0  0  0  0
   58.1350   32.7730   43.3740 C   0  0  0  0  0  0  0  0  0  0  0  0
   57.9560   33.8010   44.4890 C   0  0  0  0  0  0  0  0  0  0  0  0
   58.3280   33.2090   45.8210 C   0  0  0  0  0  0  0  0  0  0  0  0
   58.8030   34.0430   46.8450 C   0  0  0  0  0  0  0  0  0  0  0  0
   59.1460   33.5070   48.0880 C   0  0  0  0  0  0  0  0  0  0  0  0
   59.0150   32.1380   48.3190 C   0  0  0  0  0  0  0  0  0  0  0  0
   58.5260   31.3010   47.3140 C   0  0  0  0  0  0  0  0  0  0  0  0
   58.1520   31.8280   46.0600 C   0  0  0  0  0  0  0  0  0  0  0  0
   59.8854   29.5795   44.7705 H   0  0  0  0  0  0  0  0  0  0  0  0
   61.5048   27.7931   45.4063 H   0  0  0  0  0  0  0  0  0  0  0  0
   60.7261   25.7842   46.6647 H   0  0  0  0  0  0  0  0  0  0  0  0
   56.6897   27.3371   46.6597 H   0  0  0  0  0  0  0  0  0  0  0  0
   57.5488   30.7509   42.9195 H   0  0  0  0  0  0  0  0  0  0  0  0
   56.2536   31.7839   43.6560 H   0  0  0  0  0  0  0  0  0  0  0  0
   59.1990   32.5057   43.2941 H   0  0  0  0  0  0  0  0  0  0  0  0
   57.7838   33.2076   42.4265 H   0  0  0  0  0  0  0  0  0  0  0  0
   58.6004   34.6692   44.2868 H   0  0  0  0  0  0  0  0  0  0  0  0
   56.9005   34.1091   44.5206 H   0  0  0  0  0  0  0  0  0  0  0  0
   58.9056   35.1237   46.6676 H   0  0  0  0  0  0  0  0  0  0  0  0
   59.5200   34.1654   48.8859 H   0  0  0  0  0  0  0  0  0  0  0  0
   59.2975   31.7166   49.2950 H   0  0  0  0  0  0  0  0  0  0  0  0
   58.4316   30.2213   47.5017 H   0  0  0  0  0  0  0  0  0  0  0  0
  1  2  2  0
  2  3  1  0
  3  4  2  0
  4  5  1  0
  5  6  2  0
  6  7  1  0
  7  8  1  0
  7  9  2  0
  2 10  1  0
 10 11  1  0
 11 12  1  0
 12 13  1  0
 13 14  1  0
 14 15  2  0
 15 16  1  0
 16 17  2  0
 17 18  1  0
 18 19  2  0
  9  3  1  0
 19 10  1  0
 19 14  1  0
  4 20  1  0
  5 21  1  0
  6 22  1  0
  9 23  1  0
 11 24  1  0
 11 25  1  0
 12 26  1  0
 12 27  1  0
 13 28  1  0
 13 29  1  0
 15 30  1  0
 16 31  1  0
 17 32  1  0
 18 33  1  0
M  END
>  <UniqueID>  (80) 
72

>  <SMILES>  (80) 
O=C(c1cccc(F)c1)N1CCCc2ccccc21

>  <Energy>  (80) 
42.82753486737182

>  <Genealogy>  (80) 
O=C(c1cccc(F)c1)N1CCCc2ccccc21 (3D coordinates assigned)
O=C(c1cccc(F)c1)N1CCCc2ccccc21 (nonaromatic ring conformer: 42.82753486737182 kcal/mol)

>  <smiles>  (80) 
O=C(c1cccc(F)c1)N1CCCc2ccccc21

>  <score_type>  (80) 
oracle

>  <origin>  (80) 
adg

>  <m_score__min__energy>  (80) 
-7.0700000000000003

>  <m_primary>  (80) 
energy

$$$$
80:0
     RDKit          3D

 50 53  0  0  0  0  0  0  0  0999 V2000
   57.5370   31.9730   42.0760 C   0  0  0  0  0  0  0  0  0  0  0  0
   57.0080   30.9100   43.0350 C   0  0  0  0  0  0  0  0  0  0  0  0
   57.6780   31.0100   44.3480 N   0  0  0  0  0  0  0  0  0  0  0  0
   58.1780   32.2360   44.6960 C   0  0  0  0  0  0  0  0  0  0  0  0
   58.8190   32.4440   45.9190 C   0  0  0  0  0  0  0  0  0  0  0  0
   59.4600   34.0400   46.3220 S   0  0  0  0  0  0  0  0  0  0  0  0
   59.6430   34.8710   45.0820 O   0  0  0  0  0  0  0  0  0  0  0  0
   58.4880   34.7460   47.2260 O   0  0  0  0  0  0  0  0  0  0  0  0
   61.0200   33.8470   47.1150 C   0  0  0  0  0  0  0  0  0  0  0  0
   62.1410   33.4800   46.3570 C   0  0  0  0  0  0  0  0  0  0  0  0
   63.3830   33.3100   46.9760 C   0  0  0  0  0  0  0  0  0  0  0  0
   63.5100   33.5050   48.3550 C   0  0  0  0  0  0  0  0  0  0  0  0
   62.3950   33.8690   49.1150 C   0  0  0  0  0  0  0  0  0  0  0  0
   61.1510   34.0390   48.4980 C   0  0  0  0  0  0  0  0  0  0  0  0
   58.9740   31.3700   46.8000 C   0  0  0  0  0  0  0  0  0  0  0  0
   59.5590   31.5460   47.9050 O   0  0  0  0  0  0  0  0  0  0  0  0
   58.4870   30.1010   46.4450 C   0  0  0  0  0  0  0  0  0  0  0  0
   58.6420   29.0040   47.3150 C   0  0  0  0  0  0  0  0  0  0  0  0
   58.1780   27.7410   46.9560 C   0  0  0  0  0  0  0  0  0  0  0  0
   58.3170   26.7100   47.8270 F   0  0  0  0  0  0  0  0  0  0  0  0
   57.5550   27.5440   45.7200 C   0  0  0  0  0  0  0  0  0  0  0  0
   57.0890   26.2350   45.3480 N   0  0  0  0  0  0  0  0  0  0  0  0
   56.2110   25.4930   46.2570 C   0  0  0  0  0  0  0  0  0  0  0  0
   55.3420   24.5240   45.4500 C   0  0  0  0  0  0  0  0  0  0  0  0
   56.1420   23.7120   44.6100 O   0  0  0  0  0  0  0  0  0  0  0  0
   56.7840   24.5140   43.6360 C   0  0  0  0  0  0  0  0  0  0  0  0
   57.7720   25.4820   44.2930 C   0  0  0  0  0  0  0  0  0  0  0  0
   57.3850   28.6300   44.8470 C   0  0  0  0  0  0  0  0  0  0  0  0
   57.8390   29.9260   45.1920 C   0  0  0  0  0  0  0  0  0  0  0  0
   57.9544   32.8118   42.6524 H   0  0  0  0  0  0  0  0  0  0  0  0
   58.3230   31.5365   41.4422 H   0  0  0  0  0  0  0  0  0  0  0  0
   56.7148   32.3368   41.4422 H   0  0  0  0  0  0  0  0  0  0  0  0
   55.9257   31.0525   43.1703 H   0  0  0  0  0  0  0  0  0  0  0  0
   57.2123   29.9167   42.6089 H   0  0  0  0  0  0  0  0  0  0  0  0
   58.0723   33.0774   43.9954 H   0  0  0  0  0  0  0  0  0  0  0  0
   62.0430   33.3254   45.2723 H   0  0  0  0  0  0  0  0  0  0  0  0
   64.2606   33.0228   46.3782 H   0  0  0  0  0  0  0  0  0  0  0  0
   64.4875   33.3719   48.8415 H   0  0  0  0  0  0  0  0  0  0  0  0
   62.4957   34.0220   50.1996 H   0  0  0  0  0  0  0  0  0  0  0  0
   60.2744   34.3237   49.0985 H   0  0  0  0  0  0  0  0  0  0  0  0
   59.1347   29.1465   48.2881 H   0  0  0  0  0  0  0  0  0  0  0  0
   56.8216   24.9265   46.9755 H   0  0  0  0  0  0  0  0  0  0  0  0
   55.5655   26.1986   46.8005 H   0  0  0  0  0  0  0  0  0  0  0  0
   54.7792   23.8815   46.1431 H   0  0  0  0  0  0  0  0  0  0  0  0
   54.6518   25.1076   44.8231 H   0  0  0  0  0  0  0  0  0  0  0  0
   57.3283   23.8637   42.9353 H   0  0  0  0  0  0  0  0  0  0  0  0
   56.0204   25.0985   43.1020 H   0  0  0  0  0  0  0  0  0  0  0  0
   58.6067   24.9139   44.7295 H   0  0  0  0  0  0  0  0  0  0  0  0
   58.1598   26.1800   43.5364 H   0  0  0  0  0  0  0  0  0  0  0  0
   56.8902   28.4713   43.8775 H   0  0  0  0  0  0  0  0  0  0  0  0
  1  2  1  0
  2  3  1  0
  3  4  1  0
  4  5  2  0
  5  6  1  0
  6  7  2  0
  6  8  2  0
  6  9  1  0
  9 10  2  0
 10 11  1  0
 11 12  2  0
 12 13  1  0
 13 14  2  0
  5 15  1  0
 15 16  2  0
 15 17  1  0
 17 18  2  0
 18 19  1  0
 19 20  1  0
 19 21  2  0
 21 22  1  0
 22 23  1  0
 23 24  1  0
 24 25  1  0
 25 26  1  0
 26 27  1  0
 21 28  1  0
 28 29  2  0
 29  3  1  0
 14  9  1  0
 29 17  1  0
 27 22  1  0
  1 30  1  0
  1 31  1  0
  1 32  1  0
  2 33  1  0
  2 34  1  0
  4 35  1  0
 10 36  1  0
 11 37  1  0
 12 38  1  0
 13 39  1  0
 14 40  1  0
 18 41  1  0
 23 42  1  0
 23 43  1  0
 24 44  1  0
 24 45  1  0
 26 46  1  0
 26 47  1  0
 27 48  1  0
 27 49  1  0
 28 50  1  0
M  END
>  <UniqueID>  (81) 
73

>  <SMILES>  (81) 
CCn1cc(S(=O)(=O)c2ccccc2)c(=O)c2cc(F)c(N3CCOCC3)cc21

>  <Energy>  (81) 
69.06220156619924

>  <Genealogy>  (81) 
CCn1cc(S(=O)(=O)c2ccccc2)c(=O)c2cc(F)c(N3CCOCC3)cc21 (3D coordinates assigned)
CCn1cc(S(=O)(=O)c2ccccc2)c(=O)c2cc(F)c(N3CCOCC3)cc21 (nonaromatic ring conformer: 69.06220156619924 kcal/mol)

>  <smiles>  (81) 
CCn1cc(S(=O)(=O)c2ccccc2)c(=O)c2cc(F)c(N3CCOCC3)cc21

>  <score_type>  (81) 
oracle

>  <origin>  (81) 
adg

>  <m_score__min__energy>  (81) 
-8.5

>  <m_primary>  (81) 
energy

$$$$
81:0
     RDKit          3D

 32 34  0  0  0  0  0  0  0  0999 V2000
   58.9470   34.8970   45.2570 C   0  0  0  0  0  0  0  0  0  0  0  0
   57.8710   33.9950   45.4820 O   0  0  0  0  0  0  0  0  0  0  0  0
   57.6810   32.8340   44.7270 C   0  0  0  0  0  0  0  0  0  0  0  0
   58.0070   32.6560   43.3950 C   0  0  0  0  0  0  0  0  0  0  0  0
   57.6380   31.3610   43.0960 C   0  0  0  0  0  0  0  0  0  0  0  0
   57.1130   30.8370   44.2660 C   0  0  0  0  0  0  0  0  0  0  0  0
   56.5750   29.4780   44.4560 C   0  0  0  0  0  0  0  0  0  0  0  0
   55.3870   29.3400   44.8530 O   0  0  0  0  0  0  0  0  0  0  0  0
   57.3970   28.2550   44.1640 C   0  0  0  0  0  0  0  0  0  0  0  0
   58.0190   27.5040   45.7070 S   0  0  0  0  0  0  0  0  0  0  0  0
   59.1540   28.8410   46.0690 C   0  0  0  0  0  0  0  0  0  0  0  0
   60.4590   28.8340   45.7320 N   0  0  0  0  0  0  0  0  0  0  0  0
   60.9350   29.9890   46.1650 N   0  0  0  0  0  0  0  0  0  0  0  0
   59.9190   30.6540   46.7440 C   0  0  0  0  0  0  0  0  0  0  0  0
   60.0230   31.9860   47.3510 C   0  0  0  0  0  0  0  0  0  0  0  0
   61.1150   32.8370   47.2500 C   0  0  0  0  0  0  0  0  0  0  0  0
   60.9380   34.0450   47.9340 C   0  0  0  0  0  0  0  0  0  0  0  0
   59.7070   34.1490   48.5730 C   0  0  0  0  0  0  0  0  0  0  0  0
   58.8430   32.7350   48.2860 S   0  0  0  0  0  0  0  0  0  0  0  0
   58.8160   29.9480   46.6900 O   0  0  0  0  0  0  0  0  0  0  0  0
   57.1530   31.7390   45.2200 O   0  0  0  0  0  0  0  0  0  0  0  0
   59.3502   35.2350   46.2230 H   0  0  0  0  0  0  0  0  0  0  0  0
   59.7386   34.3886   44.6870 H   0  0  0  0  0  0  0  0  0  0  0  0
   58.5846   35.7652   44.6870 H   0  0  0  0  0  0  0  0  0  0  0  0
   58.4641   33.3918   42.7170 H   0  0  0  0  0  0  0  0  0  0  0  0
   57.7397   30.8494   42.1275 H   0  0  0  0  0  0  0  0  0  0  0  0
   56.7740   27.5210   43.6320 H   0  0  0  0  0  0  0  0  0  0  0  0
   58.2573   28.5495   43.5450 H   0  0  0  0  0  0  0  0  0  0  0  0
   61.9250   30.3030   46.0590 H   0  0  0  0  0  0  0  0  0  0  0  0
   62.0275   32.5870   46.6889 H   0  0  0  0  0  0  0  0  0  0  0  0
   61.7004   34.8374   47.9635 H   0  0  0  0  0  0  0  0  0  0  0  0
   59.3584   35.0085   49.1645 H   0  0  0  0  0  0  0  0  0  0  0  0
  1  2  1  0
  2  3  1  0
  3  4  2  0
  4  5  1  0
  5  6  2  0
  6  7  1  0
  7  8  2  0
  7  9  1  0
  9 10  1  0
 10 11  1  0
 11 12  2  0
 12 13  1  0
 13 14  2  0
 14 15  1  0
 15 16  2  0
 16 17  1  0
 17 18  2  0
 18 19  1  0
 14 20  1  0
  6 21  1  0
 21  3  1  0
 20 11  1  0
 19 15  1  0
  1 22  1  0
  1 23  1  0
  1 24  1  0
  4 25  1  0
  5 26  1  0
  9 27  1  0
  9 28  1  0
 13 29  1  0
 16 30  1  0
 17 31  1  0
 18 32  1  0
M  CHG  1  13   1
M  END
>  <UniqueID>  (82) 
74

>  <SMILES>  (82) 
COc1ccc(C(=O)CSc2n[nH+]c(-c3cccs3)o2)o1

>  <Energy>  (82) 
114.01103849803697

>  <Genealogy>  (82) 
COc1ccc(C(=O)CSc2n[nH+]c(-c3cccs3)o2)o1 (protonated)
COc1ccc(C(=O)CSc2n[nH+]c(-c3cccs3)o2)o1 (3D coordinates assigned)
COc1ccc(C(=O)CSc2n[nH+]c(-c3cccs3)o2)o1 (optimized conformer: 114.01103849803697 kcal/mol)

>  <smiles>  (82) 
COc1ccc(C(=O)CSc2nnc(-c3cccs3)o2)o1

>  <score_type>  (82) 
oracle

>  <origin>  (82) 
adg

>  <m_score__min__energy>  (82) 
-6.8399999999999999

>  <m_primary>  (82) 
energy

$$$$
82:0
     RDKit          3D

 43 45  0  0  0  0  0  0  0  0999 V2000
   56.2610   29.9650   44.3690 C   0  0  0  0  0  0  0  0  0  0  0  0
   57.1930   30.9930   44.2030 C   0  0  0  0  0  0  0  0  0  0  0  0
   58.5280   30.7950   44.5690 C   0  0  0  0  0  0  0  0  0  0  0  0
   58.9410   29.5700   45.1240 C   0  0  0  0  0  0  0  0  0  0  0  0
   60.3850   29.3640   45.5380 C   0  0  0  0  0  0  0  0  0  0  0  0
   60.6620   29.7060   46.9520 N   0  0  0  0  0  0  0  0  0  0  0  0
   59.5110   29.5270   47.8680 C   0  0  0  0  0  0  0  0  0  0  0  0
   58.9120   30.8750   48.2960 C   0  0  0  0  0  0  0  0  0  0  0  0
   59.9060   31.7280   49.0080 N   0  0  0  0  0  0  0  0  0  0  0  0
   59.5720   33.1670   48.8680 C   0  0  0  0  0  0  0  0  0  0  0  0
   59.1120   33.5120   47.4700 C   0  0  0  0  0  0  0  0  0  0  0  0
   57.7470   33.4650   47.1360 C   0  0  0  0  0  0  0  0  0  0  0  0
   57.3250   33.8110   45.8480 C   0  0  0  0  0  0  0  0  0  0  0  0
   58.2580   34.2060   44.8880 C   0  0  0  0  0  0  0  0  0  0  0  0
   59.6170   34.2590   45.2130 C   0  0  0  0  0  0  0  0  0  0  0  0
   60.0440   33.9150   46.4990 C   0  0  0  0  0  0  0  0  0  0  0  0
   61.3090   31.4710   48.5770 C   0  0  0  0  0  0  0  0  0  0  0  0
   61.3850   30.9880   47.1230 C   0  0  0  0  0  0  0  0  0  0  0  0
   58.0000   28.5320   45.2580 C   0  0  0  0  0  0  0  0  0  0  0  0
   56.6660   28.7340   44.8910 C   0  0  0  0  0  0  0  0  0  0  0  0
   55.2094   30.1249   44.0889 H   0  0  0  0  0  0  0  0  0  0  0  0
   56.8760   31.9593   43.7838 H   0  0  0  0  0  0  0  0  0  0  0  0
   59.2602   31.6026   44.4220 H   0  0  0  0  0  0  0  0  0  0  0  0
   60.6419   28.3059   45.3816 H   0  0  0  0  0  0  0  0  0  0  0  0
   60.9922   30.0435   44.9219 H   0  0  0  0  0  0  0  0  0  0  0  0
   58.7355   28.9387   47.3556 H   0  0  0  0  0  0  0  0  0  0  0  0
   59.8674   29.0078   48.7699 H   0  0  0  0  0  0  0  0  0  0  0  0
   58.5633   31.4090   47.3998 H   0  0  0  0  0  0  0  0  0  0  0  0
   58.0810   30.6728   48.9878 H   0  0  0  0  0  0  0  0  0  0  0  0
   59.8550   31.4910   50.0290 H   0  0  0  0  0  0  0  0  0  0  0  0
   58.7682   33.4149   49.5769 H   0  0  0  0  0  0  0  0  0  0  0  0
   60.4827   33.7474   49.0772 H   0  0  0  0  0  0  0  0  0  0  0  0
   57.0085   33.1551   47.8901 H   0  0  0  0  0  0  0  0  0  0  0  0
   56.2561   33.7717   45.5913 H   0  0  0  0  0  0  0  0  0  0  0  0
   57.9241   34.4758   43.8752 H   0  0  0  0  0  0  0  0  0  0  0  0
   60.3511   34.5718   44.4558 H   0  0  0  0  0  0  0  0  0  0  0  0
   61.1137   33.9600   46.7516 H   0  0  0  0  0  0  0  0  0  0  0  0
   61.8859   32.4027   48.6722 H   0  0  0  0  0  0  0  0  0  0  0  0
   61.7219   30.6795   49.2196 H   0  0  0  0  0  0  0  0  0  0  0  0
   60.9324   31.7467   46.4676 H   0  0  0  0  0  0  0  0  0  0  0  0
   62.4416   30.8328   46.8595 H   0  0  0  0  0  0  0  0  0  0  0  0
   58.3160   27.5556   45.6540 H   0  0  0  0  0  0  0  0  0  0  0  0
   55.9340   27.9221   45.0135 H   0  0  0  0  0  0  0  0  0  0  0  0
  1  2  2  0
  2  3  1  0
  3  4  2  0
  4  5  1  0
  5  6  1  0
  6  7  1  0
  7  8  1  0
  8  9  1  0
  9 10  1  0
 10 11  1  0
 11 12  2  0
 12 13  1  0
 13 14  2  0
 14 15  1  0
 15 16  2  0
  9 17  1  0
 17 18  1  0
  4 19  1  0
 19 20  2  0
 20  1  1  0
 18  6  1  0
 16 11  1  0
  1 21  1  0
  2 22  1  0
  3 23  1  0
  5 24  1  0
  5 25  1  0
  7 26  1  0
  7 27  1  0
  8 28  1  0
  8 29  1  0
  9 30  1  0
 10 31  1  0
 10 32  1  0
 12 33  1  0
 13 34  1  0
 14 35  1  0
 15 36  1  0
 16 37  1  0
 17 38  1  0
 17 39  1  0
 18 40  1  0
 18 41  1  0
 19 42  1  0
 20 43  1  0
M  CHG  1   9   1
M  END
>  <UniqueID>  (83) 
75

>  <SMILES>  (83) 
c1ccc(CN2CC[NH+](Cc3ccccc3)CC2)cc1

>  <Energy>  (83) 
59.922584673016665

>  <Genealogy>  (83) 
c1ccc(CN2CC[NH+](Cc3ccccc3)CC2)cc1 (protonated)
c1ccc(CN2CC[NH+](Cc3ccccc3)CC2)cc1 (3D coordinates assigned)
c1ccc(CN2CC[NH+](Cc3ccccc3)CC2)cc1 (nonaromatic ring conformer: 59.922584673016665 kcal/mol)

>  <smiles>  (83) 
c1ccc(CN2CCN(Cc3ccccc3)CC2)cc1

>  <score_type>  (83) 
oracle

>  <origin>  (83) 
adg

>  <m_score__min__energy>  (83) 
-5.5599999999999996

>  <m_primary>  (83) 
energy

$$$$
83:0
     RDKit          3D

 52 55  0  0  0  0  0  0  0  0999 V2000
   56.1011   21.3730   44.1862 H   0  0  0  0  0  0  0  0  0  0  0  0
   55.9480   22.3990   44.5520 C   0  0  0  0  0  0  0  0  0  0  0  0
   56.8400   23.4110   44.1870 C   0  0  0  0  0  0  0  0  0  0  0  0
   57.6876   23.1836   43.5238 H   0  0  0  0  0  0  0  0  0  0  0  0
   56.6560   24.7120   44.6640 C   0  0  0  0  0  0  0  0  0  0  0  0
   57.3511   25.5093   44.3621 H   0  0  0  0  0  0  0  0  0  0  0  0
   55.5900   25.0050   45.5250 C   0  0  0  0  0  0  0  0  0  0  0  0
   55.4150   26.3530   45.9880 N   0  0  0  0  0  0  0  0  0  0  0  0
   56.2610   27.3290   45.8290 C   0  0  0  0  0  0  0  0  0  0  0  0
   55.8860   28.5020   45.2510 N   0  0  0  0  0  0  0  0  0  0  0  0
   56.7710   29.5310   45.1390 C   0  0  0  0  0  0  0  0  0  0  0  0
   56.4150   30.6740   44.6310 N   0  0  0  0  0  0  0  0  0  0  0  0
   57.1610   31.8990   44.7110 C   0  0  0  0  0  0  0  0  0  0  0  0
   58.0760   32.2660   43.7090 C   0  0  0  0  0  0  0  0  0  0  0  0
   58.2238   31.6132   42.8361 H   0  0  0  0  0  0  0  0  0  0  0  0
   58.7990   33.4580   43.8180 C   0  0  0  0  0  0  0  0  0  0  0  0
   59.4984   33.7518   43.0214 H   0  0  0  0  0  0  0  0  0  0  0  0
   58.6330   34.2760   44.9390 C   0  0  0  0  0  0  0  0  0  0  0  0
   59.3380   35.4310   45.0450 F   0  0  0  0  0  0  0  0  0  0  0  0
   57.7530   33.8980   45.9570 C   0  0  0  0  0  0  0  0  0  0  0  0
   57.6312   34.5370   46.8440 H   0  0  0  0  0  0  0  0  0  0  0  0
   57.0270   32.7070   45.8480 C   0  0  0  0  0  0  0  0  0  0  0  0
   56.3480   32.4035   46.6585 H   0  0  0  0  0  0  0  0  0  0  0  0
   58.0320   29.3820   45.6180 N   0  0  0  0  0  0  0  0  0  0  0  0
   58.4150   28.2160   46.1960 C   0  0  0  0  0  0  0  0  0  0  0  0
   59.6290   28.0970   46.6460 N   0  0  0  0  0  0  0  0  0  0  0  0
   60.0130   28.1590   48.0570 C   0  0  0  0  0  0  0  0  0  0  0  0
   59.2506   27.6392   48.6558 H   0  0  0  0  0  0  0  0  0  0  0  0
   60.9971   27.6791   48.1629 H   0  0  0  0  0  0  0  0  0  0  0  0
   60.1350   29.6130   48.5590 C   0  0  0  0  0  0  0  0  0  0  0  0
   59.5739   29.7012   49.5010 H   0  0  0  0  0  0  0  0  0  0  0  0
   61.2090   29.8162   48.6828 H   0  0  0  0  0  0  0  0  0  0  0  0
   59.6130   30.6320   47.6070 N   0  0  0  0  0  0  0  0  0  0  0  0
   58.9640   30.1450   46.9440 H   0  0  0  0  0  0  0  0  0  0  0  0
   58.8080   31.6630   48.3140 C   0  0  0  0  0  0  0  0  0  0  0  0
   58.0044   32.0022   47.6437 H   0  0  0  0  0  0  0  0  0  0  0  0
   58.4083   31.2014   49.2289 H   0  0  0  0  0  0  0  0  0  0  0  0
   59.6460   32.8880   48.7390 C   0  0  0  0  0  0  0  0  0  0  0  0
   59.5707   33.6631   47.9621 H   0  0  0  0  0  0  0  0  0  0  0  0
   59.2572   33.2651   49.6964 H   0  0  0  0  0  0  0  0  0  0  0  0
   61.0020   32.5350   48.9100 O   0  0  0  0  0  0  0  0  0  0  0  0
   61.5800   32.1880   47.6630 C   0  0  0  0  0  0  0  0  0  0  0  0
   61.7844   33.1126   47.1032 H   0  0  0  0  0  0  0  0  0  0  0  0
   62.4986   31.6213   47.8754 H   0  0  0  0  0  0  0  0  0  0  0  0
   60.6700   31.2810   46.7990 C   0  0  0  0  0  0  0  0  0  0  0  0
   60.1955   31.8934   46.0181 H   0  0  0  0  0  0  0  0  0  0  0  0
   61.2954   30.4913   46.3572 H   0  0  0  0  0  0  0  0  0  0  0  0
   57.5250   27.1930   46.3030 N   0  0  0  0  0  0  0  0  0  0  0  0
   54.6750   23.9910   45.8570 C   0  0  0  0  0  0  0  0  0  0  0  0
   53.8084   24.2226   46.4937 H   0  0  0  0  0  0  0  0  0  0  0  0
   54.8610   22.6900   45.3820 C   0  0  0  0  0  0  0  0  0  0  0  0
   54.1530   21.8956   45.6608 H   0  0  0  0  0  0  0  0  0  0  0  0
  1  2  1  0
  2  3  2  0
  3  4  1  0
  3  5  1  0
  5  6  1  0
  5  7  2  0
  7  8  1  0
  8  9  2  0
  9 10  1  0
 10 11  1  0
 11 12  2  3
 12 13  1  0
 13 14  2  0
 14 15  1  0
 14 16  1  0
 16 17  1  0
 16 18  2  0
 18 19  1  0
 18 20  1  0
 20 21  1  0
 20 22  2  0
 22 23  1  0
 11 24  1  0
 24 25  1  0
 25 26  2  0
 26 27  1  0
 27 28  1  0
 27 29  1  0
 27 30  1  0
 30 31  1  0
 30 32  1  0
 30 33  1  0
 33 34  1  0
 33 35  1  0
 35 36  1  0
 35 37  1  0
 35 38  1  0
 38 39  1  0
 38 40  1  0
 38 41  1  0
 41 42  1  0
 42 43  1  0
 42 44  1  0
 42 45  1  0
 45 46  1  0
 45 47  1  0
 25 48  1  0
  7 49  1  0
 49 50  1  0
 49 51  2  0
 51 52  1  0
 51  2  1  0
 48  9  1  0
 22 13  1  0
 45 33  1  0
M  CHG  4  10  -1  24  -1  33   1  48  -1
M  END
>  <UniqueID>  (84) 
76

>  <SMILES>  (84) 
Fc1ccc(N=c2[n-]/c(=N\c3ccccc3)[n-]/c(=N\CC[NH+]3CCOCC3)[n-]2)cc1

>  <Energy>  (84) 
80.58327183026968

>  <Genealogy>  (84) 
Fc1ccc(N=c2[n-]c(=NCC[NH+]3CCOCC3)[n-]c(=Nc3ccccc3)[n-]2)cc1 (protonated)
Fc1ccc(N=c2[n-]/c(=N\c3ccccc3)[n-]/c(=N\CC[NH+]3CCOCC3)[n-]2)cc1 (cis-trans isomerization)
Fc1ccc(N=c2[n-]/c(=N\c3ccccc3)[n-]/c(=N\CC[NH+]3CCOCC3)[n-]2)cc1 (3D coordinates assigned)
Fc1ccc(N=c2[n-]/c(=N\c3ccccc3)[n-]/c(=N\CC[NH+]3CCOCC3)[n-]2)cc1 (nonaromatic ring conformer: 80.58327183026968 kcal/mol)

>  <smiles>  (84) 
Fc1ccc(N=c2[nH]c(=NCCN3CCOCC3)[nH]c(=Nc3ccccc3)[nH]2)cc1

>  <score_type>  (84) 
oracle

>  <origin>  (84) 
adg

>  <m_score__min__energy>  (84) 
-11.210000000000001

>  <m_primary>  (84) 
energy

$$$$
84:0
     RDKit          3D

 25 26  0  0  0  0  0  0  0  0999 V2000
   57.0050   34.2880   45.2510 C   0  0  0  0  0  0  0  0  0  0  0  0
   58.2450   33.7330   45.9020 C   0  0  0  0  0  0  0  0  0  0  0  0
   59.0170   34.5760   46.7210 C   0  0  0  0  0  0  0  0  0  0  0  0
   60.1600   34.0940   47.3600 C   0  0  0  0  0  0  0  0  0  0  0  0
   60.5530   32.7670   47.1860 C   0  0  0  0  0  0  0  0  0  0  0  0
   59.8090   31.9210   46.3610 C   0  0  0  0  0  0  0  0  0  0  0  0
   58.6630   32.3930   45.6990 C   0  0  0  0  0  0  0  0  0  0  0  0
   57.9250   31.4650   44.8110 C   0  0  0  0  0  0  0  0  0  0  0  0
   57.7200   31.7930   43.4600 C   0  0  0  0  0  0  0  0  0  0  0  0
   57.0150   30.9240   42.6230 C   0  0  0  0  0  0  0  0  0  0  0  0
   56.5010   29.7270   43.1300 C   0  0  0  0  0  0  0  0  0  0  0  0
   56.6890   29.3990   44.4750 C   0  0  0  0  0  0  0  0  0  0  0  0
   57.3950   30.2650   45.3160 C   0  0  0  0  0  0  0  0  0  0  0  0
   56.2941   34.6062   46.0278 H   0  0  0  0  0  0  0  0  0  0  0  0
   57.2746   35.1513   44.6249 H   0  0  0  0  0  0  0  0  0  0  0  0
   56.5408   33.5118   44.6249 H   0  0  0  0  0  0  0  0  0  0  0  0
   58.7170   35.6252   46.8592 H   0  0  0  0  0  0  0  0  0  0  0  0
   60.7525   34.7620   48.0024 H   0  0  0  0  0  0  0  0  0  0  0  0
   61.4490   32.3870   47.6987 H   0  0  0  0  0  0  0  0  0  0  0  0
   60.1230   30.8752   46.2281 H   0  0  0  0  0  0  0  0  0  0  0  0
   58.1162   32.7378   43.0596 H   0  0  0  0  0  0  0  0  0  0  0  0
   56.8644   31.1821   41.5644 H   0  0  0  0  0  0  0  0  0  0  0  0
   55.9481   29.0428   42.4695 H   0  0  0  0  0  0  0  0  0  0  0  0
   56.2811   28.4582   44.8730 H   0  0  0  0  0  0  0  0  0  0  0  0
   57.5360   30.0064   46.3758 H   0  0  0  0  0  0  0  0  0  0  0  0
  1  2  1  0
  2  3  2  0
  3  4  1  0
  4  5  2  0
  5  6  1  0
  6  7  2  0
  7  8  1  0
  8  9  2  0
  9 10  1  0
 10 11  2  0
 11 12  1  0
 12 13  2  0
  7  2  1  0
 13  8  1  0
  1 14  1  0
  1 15  1  0
  1 16  1  0
  3 17  1  0
  4 18  1  0
  5 19  1  0
  6 20  1  0
  9 21  1  0
 10 22  1  0
 11 23  1  0
 12 24  1  0
 13 25  1  0
M  END
>  <UniqueID>  (85) 
77

>  <SMILES>  (85) 
Cc1ccccc1-c1ccccc1

>  <Energy>  (85) 
32.87857227187117

>  <Genealogy>  (85) 
Cc1ccccc1-c1ccccc1 (3D coordinates assigned)
Cc1ccccc1-c1ccccc1 (optimized conformer: 32.87857227187117 kcal/mol)

>  <smiles>  (85) 
Cc1ccccc1-c1ccccc1

>  <score_type>  (85) 
oracle

>  <origin>  (85) 
adg

>  <m_score__min__energy>  (85) 
-5.8899999999999997

>  <m_primary>  (85) 
energy

$$$$
85:0
     RDKit          3D

 49 52  0  0  0  0  0  0  0  0999 V2000
   56.5920   29.3520   43.0130 C   0  0  0  0  0  0  0  0  0  0  0  0
   57.4780   28.3480   43.4110 C   0  0  0  0  0  0  0  0  0  0  0  0
   58.3440   28.5630   44.4880 C   0  0  0  0  0  0  0  0  0  0  0  0
   58.3320   29.7900   45.1800 C   0  0  0  0  0  0  0  0  0  0  0  0
   59.2560   30.0260   46.3190 C   0  0  0  0  0  0  0  0  0  0  0  0
   58.7760   30.0190   47.6400 C   0  0  0  0  0  0  0  0  0  0  0  0
   59.6380   30.2710   48.7100 C   0  0  0  0  0  0  0  0  0  0  0  0
   60.9940   30.5490   48.4810 C   0  0  0  0  0  0  0  0  0  0  0  0
   61.9220   30.8790   49.6290 C   0  0  0  0  0  0  0  0  0  0  0  0
   61.9980   32.3270   49.9340 N   0  0  0  0  0  0  0  0  0  0  0  0
   62.8490   33.1340   49.0290 C   0  0  0  0  0  0  0  0  0  0  0  0
   62.0720   33.7080   47.8260 C   0  0  0  0  0  0  0  0  0  0  0  0
   60.6840   34.0180   48.1820 N   0  0  0  0  0  0  0  0  0  0  0  0
   59.6610   34.0610   47.1620 C   0  0  0  0  0  0  0  0  0  0  0  0
   59.9460   34.5970   45.8930 C   0  0  0  0  0  0  0  0  0  0  0  0
   58.9670   34.6180   44.8950 C   0  0  0  0  0  0  0  0  0  0  0  0
   57.6950   34.1000   45.1510 C   0  0  0  0  0  0  0  0  0  0  0  0
   57.4030   33.5550   46.4030 C   0  0  0  0  0  0  0  0  0  0  0  0
   58.3790   33.5320   47.4030 C   0  0  0  0  0  0  0  0  0  0  0  0
   60.3710   34.2190   49.5980 C   0  0  0  0  0  0  0  0  0  0  0  0
   60.7280   32.9510   50.3800 C   0  0  0  0  0  0  0  0  0  0  0  0
   61.4840   30.5150   47.1660 C   0  0  0  0  0  0  0  0  0  0  0  0
   60.6230   30.2650   46.0940 C   0  0  0  0  0  0  0  0  0  0  0  0
   57.4320   30.7910   44.7680 C   0  0  0  0  0  0  0  0  0  0  0  0
   56.5700   30.5720   43.6910 C   0  0  0  0  0  0  0  0  0  0  0  0
   55.9118   29.1813   42.1655 H   0  0  0  0  0  0  0  0  0  0  0  0
   57.4946   27.3867   42.8765 H   0  0  0  0  0  0  0  0  0  0  0  0
   59.0393   27.7685   44.7968 H   0  0  0  0  0  0  0  0  0  0  0  0
   57.7127   29.8134   47.8329 H   0  0  0  0  0  0  0  0  0  0  0  0
   59.2509   30.2513   49.7394 H   0  0  0  0  0  0  0  0  0  0  0  0
   61.5651   30.3530   50.5267 H   0  0  0  0  0  0  0  0  0  0  0  0
   62.9311   30.5594   49.3297 H   0  0  0  0  0  0  0  0  0  0  0  0
   63.2761   33.9702   49.6020 H   0  0  0  0  0  0  0  0  0  0  0  0
   63.6296   32.4692   48.6305 H   0  0  0  0  0  0  0  0  0  0  0  0
   62.5683   34.6291   47.4864 H   0  0  0  0  0  0  0  0  0  0  0  0
   62.0630   32.9512   47.0278 H   0  0  0  0  0  0  0  0  0  0  0  0
   60.9469   35.0028   45.6842 H   0  0  0  0  0  0  0  0  0  0  0  0
   59.1986   35.0429   43.9071 H   0  0  0  0  0  0  0  0  0  0  0  0
   56.9240   34.1215   44.3667 H   0  0  0  0  0  0  0  0  0  0  0  0
   56.4028   33.1430   46.6026 H   0  0  0  0  0  0  0  0  0  0  0  0
   58.1437   33.0973   48.3857 H   0  0  0  0  0  0  0  0  0  0  0  0
   60.9542   35.0669   49.9866 H   0  0  0  0  0  0  0  0  0  0  0  0
   59.2979   34.4323   49.7117 H   0  0  0  0  0  0  0  0  0  0  0  0
   60.8216   33.2116   51.4446 H   0  0  0  0  0  0  0  0  0  0  0  0
   59.9250   32.2205   50.2023 H   0  0  0  0  0  0  0  0  0  0  0  0
   62.5541   30.6865   46.9778 H   0  0  0  0  0  0  0  0  0  0  0  0
   61.0175   30.2552   45.0672 H   0  0  0  0  0  0  0  0  0  0  0  0
   57.4074   31.7541   45.2989 H   0  0  0  0  0  0  0  0  0  0  0  0
   55.8725   31.3623   43.3765 H   0  0  0  0  0  0  0  0  0  0  0  0
  1  2  2  0
  2  3  1  0
  3  4  2  0
  4  5  1  0
  5  6  2  0
  6  7  1  0
  7  8  2  0
  8  9  1  0
  9 10  1  0
 10 11  1  0
 11 12  1  0
 12 13  1  0
 13 14  1  0
 14 15  2  0
 15 16  1  0
 16 17  2  0
 17 18  1  0
 18 19  2  0
 13 20  1  0
 20 21  1  0
  8 22  1  0
 22 23  2  0
  4 24  1  0
 24 25  2  0
 25  1  1  0
 23  5  1  0
 21 10  1  0
 19 14  1  0
  1 26  1  0
  2 27  1  0
  3 28  1  0
  6 29  1  0
  7 30  1  0
  9 31  1  0
  9 32  1  0
 11 33  1  0
 11 34  1  0
 12 35  1  0
 12 36  1  0
 15 37  1  0
 16 38  1  0
 17 39  1  0
 18 40  1  0
 19 41  1  0
 20 42  1  0
 20 43  1  0
 21 44  1  0
 21 45  1  0
 22 46  1  0
 23 47  1  0
 24 48  1  0
 25 49  1  0
M  END
>  <UniqueID>  (86) 
78

>  <SMILES>  (86) 
c1ccc(-c2ccc(CN3CCN(c4ccccc4)CC3)cc2)cc1

>  <Energy>  (86) 
70.02178120298173

>  <Genealogy>  (86) 
c1ccc(-c2ccc(CN3CCN(c4ccccc4)CC3)cc2)cc1 (3D coordinates assigned)
c1ccc(-c2ccc(CN3CCN(c4ccccc4)CC3)cc2)cc1 (nonaromatic ring conformer: 70.02178120298173 kcal/mol)

>  <smiles>  (86) 
c1ccc(-c2ccc(CN3CCN(c4ccccc4)CC3)cc2)cc1

>  <score_type>  (86) 
oracle

>  <origin>  (86) 
adg

>  <m_score__min__energy>  (86) 
-8.8000000000000007

>  <m_primary>  (86) 
energy

$$$$
86:0
     RDKit          3D

 43 43  0  0  0  0  0  0  0  0999 V2000
   63.3580   33.8400   46.6110 C   0  0  0  0  0  0  0  0  0  0  0  0
   62.4360   33.0190   47.5140 C   0  0  0  0  0  0  0  0  0  0  0  0
   61.0460   33.6550   47.6970 C   0  0  0  0  0  0  0  0  0  0  0  0
   60.0860   33.4750   46.5060 C   0  0  0  0  0  0  0  0  0  0  0  0
   59.7490   34.8030   45.8030 C   0  0  0  0  0  0  0  0  0  0  0  0
   58.4960   34.7050   44.9130 C   0  0  0  0  0  0  0  0  0  0  0  0
   57.6250   33.4590   45.1550 C   0  0  0  0  0  0  0  0  0  0  0  0
   57.7710   32.4020   44.0520 C   0  0  0  0  0  0  0  0  0  0  0  0
   57.3430   31.0590   44.5620 C   0  0  0  0  0  0  0  0  0  0  0  0
   56.1220   30.8480   44.7990 O   0  0  0  0  0  0  0  0  0  0  0  0
   58.3280   30.0550   44.8540 N   0  0  0  0  0  0  0  0  0  0  0  0
   58.0030   28.7300   45.3110 C   0  0  0  0  0  0  0  0  0  0  0  0
   56.6580   28.3400   45.4480 C   0  0  0  0  0  0  0  0  0  0  0  0
   56.3320   27.0470   45.8680 C   0  0  0  0  0  0  0  0  0  0  0  0
   55.0010   26.6740   45.9970 O   0  0  0  0  0  0  0  0  0  0  0  0
   57.3440   26.1280   46.1450 C   0  0  0  0  0  0  0  0  0  0  0  0
   58.6830   26.4940   45.9970 C   0  0  0  0  0  0  0  0  0  0  0  0
   59.0270   27.7920   45.5820 C   0  0  0  0  0  0  0  0  0  0  0  0
   60.4770   28.1590   45.4190 C   0  0  0  0  0  0  0  0  0  0  0  0
   64.0363   34.4440   47.2316 H   0  0  0  0  0  0  0  0  0  0  0  0
   63.9477   33.1625   45.9760 H   0  0  0  0  0  0  0  0  0  0  0  0
   62.7531   34.5040   45.9760 H   0  0  0  0  0  0  0  0  0  0  0  0
   62.3084   32.0211   47.0692 H   0  0  0  0  0  0  0  0  0  0  0  0
   62.9075   32.9707   48.5066 H   0  0  0  0  0  0  0  0  0  0  0  0
   60.5780   33.2030   48.5839 H   0  0  0  0  0  0  0  0  0  0  0  0
   61.2138   34.7376   47.7957 H   0  0  0  0  0  0  0  0  0  0  0  0
   60.5557   32.8002   45.7753 H   0  0  0  0  0  0  0  0  0  0  0  0
   59.1456   33.0613   46.8991 H   0  0  0  0  0  0  0  0  0  0  0  0
   59.5764   35.5727   46.5696 H   0  0  0  0  0  0  0  0  0  0  0  0
   60.5985   35.0587   45.1526 H   0  0  0  0  0  0  0  0  0  0  0  0
   57.8767   35.5956   45.0956 H   0  0  0  0  0  0  0  0  0  0  0  0
   58.8584   34.6316   43.8770 H   0  0  0  0  0  0  0  0  0  0  0  0
   57.9180   33.0074   46.1143 H   0  0  0  0  0  0  0  0  0  0  0  0
   56.5751   33.7872   45.1594 H   0  0  0  0  0  0  0  0  0  0  0  0
   57.1417   32.6824   43.1944 H   0  0  0  0  0  0  0  0  0  0  0  0
   58.8253   32.3492   43.7428 H   0  0  0  0  0  0  0  0  0  0  0  0
   59.3340   30.3360   44.8080 H   0  0  0  0  0  0  0  0  0  0  0  0
   55.8562   29.0586   45.2227 H   0  0  0  0  0  0  0  0  0  0  0  0
   57.0865   25.1127   46.4808 H   0  0  0  0  0  0  0  0  0  0  0  0
   59.4754   25.7605   46.2069 H   0  0  0  0  0  0  0  0  0  0  0  0
   60.9393   28.2760   46.4103 H   0  0  0  0  0  0  0  0  0  0  0  0
   60.9963   27.3640   44.8638 H   0  0  0  0  0  0  0  0  0  0  0  0
   60.5555   29.1053   44.8638 H   0  0  0  0  0  0  0  0  0  0  0  0
  1  2  1  0
  2  3  1  0
  3  4  1  0
  4  5  1  0
  5  6  1  0
  6  7  1  0
  7  8  1  0
  8  9  1  0
  9 10  2  0
  9 11  1  0
 11 12  1  0
 12 13  2  0
 13 14  1  0
 14 15  1  0
 14 16  2  0
 16 17  1  0
 17 18  2  0
 18 19  1  0
 18 12  1  0
  1 20  1  0
  1 21  1  0
  1 22  1  0
  2 23  1  0
  2 24  1  0
  3 25  1  0
  3 26  1  0
  4 27  1  0
  4 28  1  0
  5 29  1  0
  5 30  1  0
  6 31  1  0
  6 32  1  0
  7 33  1  0
  7 34  1  0
  8 35  1  0
  8 36  1  0
 11 37  1  0
 13 38  1  0
 16 39  1  0
 17 40  1  0
 19 41  1  0
 19 42  1  0
 19 43  1  0
M  CHG  1  15  -1
M  END
>  <UniqueID>  (87) 
79

>  <SMILES>  (87) 
CCCCCCCCC(=O)Nc1cc([O-])ccc1C

>  <Energy>  (87) 
32.09247280112446

>  <Genealogy>  (87) 
CCCCCCCCC(=O)Nc1cc([O-])ccc1C (protonated)
CCCCCCCCC(=O)Nc1cc([O-])ccc1C (3D coordinates assigned)
CCCCCCCCC(=O)Nc1cc([O-])ccc1C (optimized conformer: 32.09247280112446 kcal/mol)

>  <smiles>  (87) 
CCCCCCCCC(=O)Nc1cc(O)ccc1C

>  <score_type>  (87) 
oracle

>  <origin>  (87) 
adg

>  <m_score__min__energy>  (87) 
-11.390000000000001

>  <m_primary>  (87) 
energy

$$$$
87:0
     RDKit          3D

 45 47  0  0  0  0  0  0  0  0999 V2000
   60.5710   30.7860   47.7160 C   0  0  0  0  0  0  0  0  0  0  0  0
   59.6310   31.8520   47.7950 O   0  0  0  0  0  0  0  0  0  0  0  0
   59.1040   32.5940   46.7180 C   0  0  0  0  0  0  0  0  0  0  0  0
   58.1540   31.9550   45.8920 C   0  0  0  0  0  0  0  0  0  0  0  0
   57.7700   30.5950   46.1670 N   0  0  0  0  0  0  0  0  0  0  0  0
   57.1470   29.5260   44.9490 S   0  0  0  0  0  0  0  0  0  0  0  0
   57.7060   29.9260   43.6130 O   0  0  0  0  0  0  0  0  0  0  0  0
   55.6490   29.6060   44.8880 O   0  0  0  0  0  0  0  0  0  0  0  0
   57.6190   27.8690   45.3530 C   0  0  0  0  0  0  0  0  0  0  0  0
   56.6180   26.9320   45.6640 C   0  0  0  0  0  0  0  0  0  0  0  0
   56.9510   25.6130   45.9710 C   0  0  0  0  0  0  0  0  0  0  0  0
   58.2840   25.2090   45.9690 C   0  0  0  0  0  0  0  0  0  0  0  0
   59.2920   26.1250   45.6550 C   0  0  0  0  0  0  0  0  0  0  0  0
   58.9760   27.4580   45.3420 C   0  0  0  0  0  0  0  0  0  0  0  0
   60.0930   28.4150   45.0170 C   0  0  0  0  0  0  0  0  0  0  0  0
   57.6190   32.6350   44.7860 C   0  0  0  0  0  0  0  0  0  0  0  0
   57.9900   33.9480   44.5160 C   0  0  0  0  0  0  0  0  0  0  0  0
   58.9060   34.6000   45.3400 C   0  0  0  0  0  0  0  0  0  0  0  0
   59.4830   33.9330   46.4360 C   0  0  0  0  0  0  0  0  0  0  0  0
   60.3800   34.6130   47.2740 O   0  0  0  0  0  0  0  0  0  0  0  0
   61.6230   34.1260   47.7010 C   0  0  0  0  0  0  0  0  0  0  0  0
   62.5020   33.6000   46.7450 C   0  0  0  0  0  0  0  0  0  0  0  0
   63.7620   33.1230   47.1250 C   0  0  0  0  0  0  0  0  0  0  0  0
   64.1540   33.1740   48.4670 C   0  0  0  0  0  0  0  0  0  0  0  0
   63.2890   33.7120   49.4270 C   0  0  0  0  0  0  0  0  0  0  0  0
   62.0330   34.1960   49.0480 C   0  0  0  0  0  0  0  0  0  0  0  0
   60.8512   30.4682   48.7311 H   0  0  0  0  0  0  0  0  0  0  0  0
   60.1205   29.9390   47.1779 H   0  0  0  0  0  0  0  0  0  0  0  0
   61.4678   31.1270   47.1779 H   0  0  0  0  0  0  0  0  0  0  0  0
   57.6850   30.2730   47.1570 H   0  0  0  0  0  0  0  0  0  0  0  0
   55.5626   27.2421   45.6652 H   0  0  0  0  0  0  0  0  0  0  0  0
   56.1589   24.8899   46.2153 H   0  0  0  0  0  0  0  0  0  0  0  0
   58.5435   24.1687   46.2146 H   0  0  0  0  0  0  0  0  0  0  0  0
   60.3427   25.7993   45.6529 H   0  0  0  0  0  0  0  0  0  0  0  0
   60.5348   28.7935   45.9506 H   0  0  0  0  0  0  0  0  0  0  0  0
   60.8643   27.8931   44.4316 H   0  0  0  0  0  0  0  0  0  0  0  0
   59.6956   29.2572   44.4316 H   0  0  0  0  0  0  0  0  0  0  0  0
   56.9004   32.1249   44.1276 H   0  0  0  0  0  0  0  0  0  0  0  0
   57.5597   34.4730   43.6504 H   0  0  0  0  0  0  0  0  0  0  0  0
   59.1799   35.6447   45.1315 H   0  0  0  0  0  0  0  0  0  0  0  0
   62.1997   33.5616   45.6880 H   0  0  0  0  0  0  0  0  0  0  0  0
   64.4440   32.7080   46.3683 H   0  0  0  0  0  0  0  0  0  0  0  0
   65.1408   32.7918   48.7674 H   0  0  0  0  0  0  0  0  0  0  0  0
   63.5979   33.7542   50.4819 H   0  0  0  0  0  0  0  0  0  0  0  0
   61.3629   34.6327   49.8032 H   0  0  0  0  0  0  0  0  0  0  0  0
  1  2  1  0
  2  3  1  0
  3  4  2  0
  4  5  1  0
  5  6  1  0
  6  7  2  0
  6  8  2  0
  6  9  1  0
  9 10  2  0
 10 11  1  0
 11 12  2  0
 12 13  1  0
 13 14  2  0
 14 15  1  0
  4 16  1  0
 16 17  2  0
 17 18  1  0
 18 19  2  0
 19 20  1  0
 20 21  1  0
 21 22  2  0
 22 23  1  0
 23 24  2  0
 24 25  1  0
 25 26  2  0
 19  3  1  0
 26 21  1  0
 14  9  1  0
  1 27  1  0
  1 28  1  0
  1 29  1  0
  5 30  1  0
 10 31  1  0
 11 32  1  0
 12 33  1  0
 13 34  1  0
 15 35  1  0
 15 36  1  0
 15 37  1  0
 16 38  1  0
 17 39  1  0
 18 40  1  0
 22 41  1  0
 23 42  1  0
 24 43  1  0
 25 44  1  0
 26 45  1  0
M  END
>  <UniqueID>  (88) 
80

>  <SMILES>  (88) 
COc1c(NS(=O)(=O)c2ccccc2C)cccc1Oc1ccccc1

>  <Energy>  (88) 
62.385813145384375

>  <Genealogy>  (88) 
COc1c(NS(=O)(=O)c2ccccc2C)cccc1Oc1ccccc1 (3D coordinates assigned)
COc1c(NS(=O)(=O)c2ccccc2C)cccc1Oc1ccccc1 (optimized conformer: 62.385813145384375 kcal/mol)

>  <smiles>  (88) 
COc1c(NS(=O)(=O)c2ccccc2C)cccc1Oc1ccccc1

>  <score_type>  (88) 
oracle

>  <origin>  (88) 
adg

>  <m_score__min__energy>  (88) 
-9.8100000000000005

>  <m_primary>  (88) 
energy

$$$$
88:0
     RDKit          3D

 36 38  0  0  0  0  0  0  0  0999 V2000
   59.7990   33.5280   49.3560 C   0  0  0  0  0  0  0  0  0  0  0  0
   61.1560   33.2290   48.7680 C   0  0  0  0  0  0  0  0  0  0  0  0
   62.2180   34.1080   49.0510 C   0  0  0  0  0  0  0  0  0  0  0  0
   63.5070   33.8400   48.5910 C   0  0  0  0  0  0  0  0  0  0  0  0
   63.7610   32.6810   47.8630 C   0  0  0  0  0  0  0  0  0  0  0  0
   62.7240   31.7920   47.5770 C   0  0  0  0  0  0  0  0  0  0  0  0
   61.4060   32.0590   47.9940 C   0  0  0  0  0  0  0  0  0  0  0  0
   60.3030   31.0670   47.6340 C   0  0  0  0  0  0  0  0  0  0  0  0
   59.9000   31.0730   46.2020 N   0  0  2  0  0  0  0  0  0  0  0  0
   59.3100   32.3270   45.8090 C   0  0  0  0  0  0  0  0  0  0  0  0
   59.9410   33.5310   45.8730 N   0  0  0  0  0  0  0  0  0  0  0  0
   59.3030   34.6600   45.4430 C   0  0  0  0  0  0  0  0  0  0  0  0
   57.9990   34.5840   44.9150 C   0  0  0  0  0  0  0  0  0  0  0  0
   57.3600   33.3380   44.8250 C   0  0  0  0  0  0  0  0  0  0  0  0
   58.0550   32.2220   45.2810 C   0  0  0  0  0  0  0  0  0  0  0  0
   57.7110   30.8310   45.2790 C   0  0  0  0  0  0  0  0  0  0  0  0
   56.6160   30.3490   44.8850 O   0  0  0  0  0  0  0  0  0  0  0  0
   58.8620   30.0500   45.8390 C   0  0  1  0  0  0  0  0  0  0  0  0
   59.3900   29.0480   44.8040 C   0  0  0  0  0  0  0  0  0  0  0  0
   59.8639   33.5137   50.4540 H   0  0  0  0  0  0  0  0  0  0  0  0
   59.4651   34.5212   49.0213 H   0  0  0  0  0  0  0  0  0  0  0  0
   59.0786   32.7670   49.0213 H   0  0  0  0  0  0  0  0  0  0  0  0
   62.0293   35.0166   49.6416 H   0  0  0  0  0  0  0  0  0  0  0  0
   64.3239   34.5453   48.8037 H   0  0  0  0  0  0  0  0  0  0  0  0
   64.7811   32.4655   47.5125 H   0  0  0  0  0  0  0  0  0  0  0  0
   62.9394   30.8695   47.0178 H   0  0  0  0  0  0  0  0  0  0  0  0
   60.6567   30.0562   47.8855 H   0  0  0  0  0  0  0  0  0  0  0  0
   59.4144   31.3715   48.2065 H   0  0  0  0  0  0  0  0  0  0  0  0
   60.7660   30.9510   45.6250 H   0  0  0  0  0  0  0  0  0  0  0  0
   59.8103   35.6338   45.5094 H   0  0  0  0  0  0  0  0  0  0  0  0
   57.4852   35.4955   44.5755 H   0  0  0  0  0  0  0  0  0  0  0  0
   56.3459   33.2467   44.4088 H   0  0  0  0  0  0  0  0  0  0  0  0
   58.5709   29.4531   46.7159 H   0  0  0  0  0  0  0  0  0  0  0  0
   59.8423   28.1896   45.3222 H   0  0  0  0  0  0  0  0  0  0  0  0
   58.5585   28.6993   44.1739 H   0  0  0  0  0  0  0  0  0  0  0  0
   60.1477   29.5367   44.1739 H   0  0  0  0  0  0  0  0  0  0  0  0
  1  2  1  0
  2  3  2  0
  3  4  1  0
  4  5  2  0
  5  6  1  0
  6  7  2  0
  7  8  1  0
  8  9  1  0
  9 10  1  0
 10 11  2  0
 11 12  1  0
 12 13  2  0
 13 14  1  0
 14 15  2  0
 15 16  1  0
 16 17  2  0
 16 18  1  0
 18 19  1  0
  7  2  1  0
 18  9  1  0
 15 10  1  0
  1 20  1  0
  1 21  1  0
  1 22  1  0
  3 23  1  0
  4 24  1  0
  5 25  1  0
  6 26  1  0
  8 27  1  0
  8 28  1  0
  9 29  1  6
 12 30  1  0
 13 31  1  0
 14 32  1  0
 18 33  1  1
 19 34  1  0
 19 35  1  0
 19 36  1  0
M  CHG  1   9   1
M  END
>  <UniqueID>  (89) 
81

>  <SMILES>  (89) 
Cc1ccccc1C[N@@H+]1c2ncccc2C(=O)[C@H]1C

>  <Energy>  (89) 
62.635394203932094

>  <Genealogy>  (89) 
Cc1ccccc1C[NH+]1c2ncccc2C(=O)C1C (protonated)
Cc1ccccc1C[N@@H+]1c2ncccc2C(=O)[C@H]1C (chirality)
Cc1ccccc1C[N@@H+]1c2ncccc2C(=O)[C@H]1C (3D coordinates assigned)
Cc1ccccc1C[N@@H+]1c2ncccc2C(=O)[C@H]1C (nonaromatic ring conformer: 62.635394203932094 kcal/mol)

>  <smiles>  (89) 
Cc1ccccc1CN1c2ncccc2C(=O)C1C

>  <score_type>  (89) 
oracle

>  <origin>  (89) 
adg

>  <m_score__min__energy>  (89) 
-5.6900000000000004

>  <m_primary>  (89) 
energy

$$$$
89:0
     RDKit          3D

 53 55  0  0  0  0  0  0  0  0999 V2000
   56.8990   24.1320   47.8780 C   0  0  0  0  0  0  0  0  0  0  0  0
   58.0210   24.8780   47.4200 O   0  0  0  0  0  0  0  0  0  0  0  0
   57.9430   25.9590   46.5290 C   0  0  0  0  0  0  0  0  0  0  0  0
   56.7610   26.7030   46.3430 C   0  0  0  0  0  0  0  0  0  0  0  0
   56.7390   27.7790   45.4510 C   0  0  0  0  0  0  0  0  0  0  0  0
   57.8940   28.1350   44.7310 C   0  0  0  0  0  0  0  0  0  0  0  0
   57.8980   29.2360   43.8080 N   0  0  0  0  0  0  0  0  0  0  0  0
   56.8340   30.5990   43.9540 S   0  0  0  0  0  0  0  0  0  0  0  0
   56.6340   31.2160   42.5970 O   0  0  0  0  0  0  0  0  0  0  0  0
   55.4960   30.1530   44.4760 O   0  0  0  0  0  0  0  0  0  0  0  0
   57.5640   31.8020   45.0150 C   0  0  0  0  0  0  0  0  0  0  0  0
   58.0070   31.4560   46.2990 C   0  0  0  0  0  0  0  0  0  0  0  0
   58.6350   32.4080   47.1070 C   0  0  0  0  0  0  0  0  0  0  0  0
   58.8040   33.7230   46.6530 C   0  0  0  0  0  0  0  0  0  0  0  0
   59.4710   34.6620   47.5100 N   0  0  0  0  0  0  0  0  0  0  0  0
   60.6980   34.5680   47.9200 C   0  0  0  0  0  0  0  0  0  0  0  0
   61.7730   34.1670   46.9620 C   0  0  0  0  0  0  0  0  0  0  0  0
   62.4840   32.9280   47.4420 C   0  0  0  0  0  0  0  0  0  0  0  0
   63.7320   32.9750   47.6100 O   0  0  0  0  0  0  0  0  0  0  0  0
   61.7610   31.6690   47.7520 C   0  0  0  0  0  0  0  0  0  0  0  0
   61.4260   31.3670   49.0840 C   0  0  0  0  0  0  0  0  0  0  0  0
   60.7420   30.1890   49.3980 C   0  0  0  0  0  0  0  0  0  0  0  0
   60.3760   29.2890   48.3820 C   0  0  0  0  0  0  0  0  0  0  0  0
   59.6960   28.0910   48.6470 O   0  0  0  0  0  0  0  0  0  0  0  0
   60.3270   26.8260   48.8160 C   0  0  0  0  0  0  0  0  0  0  0  0
   60.6980   29.5920   47.0560 C   0  0  0  0  0  0  0  0  0  0  0  0
   61.3750   30.7720   46.7390 C   0  0  0  0  0  0  0  0  0  0  0  0
   58.3630   34.0670   45.3610 C   0  0  0  0  0  0  0  0  0  0  0  0
   57.7500   33.1110   44.5490 C   0  0  0  0  0  0  0  0  0  0  0  0
   59.0620   27.3780   44.9050 C   0  0  0  0  0  0  0  0  0  0  0  0
   59.0870   26.3050   45.8010 C   0  0  0  0  0  0  0  0  0  0  0  0
   56.8879   24.1246   48.9779 H   0  0  0  0  0  0  0  0  0  0  0  0
   55.9737   24.5953   47.5050 H   0  0  0  0  0  0  0  0  0  0  0  0
   56.9682   23.0995   47.5050 H   0  0  0  0  0  0  0  0  0  0  0  0
   55.8520   26.4361   46.9019 H   0  0  0  0  0  0  0  0  0  0  0  0
   55.8107   28.3523   45.3108 H   0  0  0  0  0  0  0  0  0  0  0  0
   58.6880   29.3260   43.1310 H   0  0  0  0  0  0  0  0  0  0  0  0
   57.8599   30.4317   46.6721 H   0  0  0  0  0  0  0  0  0  0  0  0
   58.9988   32.1233   48.1053 H   0  0  0  0  0  0  0  0  0  0  0  0
   60.9467   34.7828   48.9698 H   0  0  0  0  0  0  0  0  0  0  0  0
   61.3229   33.9661   45.9786 H   0  0  0  0  0  0  0  0  0  0  0  0
   62.5034   34.9863   46.8892 H   0  0  0  0  0  0  0  0  0  0  0  0
   61.7051   32.0650   49.8871 H   0  0  0  0  0  0  0  0  0  0  0  0
   60.4890   29.9653   50.4449 H   0  0  0  0  0  0  0  0  0  0  0  0
   60.4346   26.6104   49.8893 H   0  0  0  0  0  0  0  0  0  0  0  0
   59.7133   26.0442   48.3446 H   0  0  0  0  0  0  0  0  0  0  0  0
   61.3207   26.8460   48.3446 H   0  0  0  0  0  0  0  0  0  0  0  0
   60.4154   28.8942   46.2540 H   0  0  0  0  0  0  0  0  0  0  0  0
   61.6083   31.0018   45.6889 H   0  0  0  0  0  0  0  0  0  0  0  0
   58.5020   35.0931   44.9898 H   0  0  0  0  0  0  0  0  0  0  0  0
   57.4115   33.3861   43.5392 H   0  0  0  0  0  0  0  0  0  0  0  0
   59.9661   27.6307   44.3316 H   0  0  0  0  0  0  0  0  0  0  0  0
   60.0138   25.7278   45.9349 H   0  0  0  0  0  0  0  0  0  0  0  0
  1  2  1  0
  2  3  1  0
  3  4  2  0
  4  5  1  0
  5  6  2  0
  6  7  1  0
  7  8  1  0
  8  9  2  0
  8 10  2  0
  8 11  1  0
 11 12  2  0
 12 13  1  0
 13 14  2  0
 14 15  1  0
 15 16  2  3
 16 17  1  0
 17 18  1  0
 18 19  2  0
 18 20  1  0
 20 21  2  0
 21 22  1  0
 22 23  2  0
 23 24  1  0
 24 25  1  0
 23 26  1  0
 26 27  2  0
 14 28  1  0
 28 29  2  0
  6 30  1  0
 30 31  2  0
 31  3  1  0
 29 11  1  0
 27 20  1  0
  1 32  1  0
  1 33  1  0
  1 34  1  0
  4 35  1  0
  5 36  1  0
  7 37  1  0
 12 38  1  0
 13 39  1  0
 16 40  1  0
 17 41  1  0
 17 42  1  0
 21 43  1  0
 22 44  1  0
 25 45  1  0
 25 46  1  0
 25 47  1  0
 26 48  1  0
 27 49  1  0
 28 50  1  0
 29 51  1  0
 30 52  1  0
 31 53  1  0
M  END
>  <UniqueID>  (90) 
82

>  <SMILES>  (90) 
COc1ccc(NS(=O)(=O)c2ccc(N=CCC(=O)c3ccc(OC)cc3)cc2)cc1

>  <Energy>  (90) 
61.12857870931317

>  <Genealogy>  (90) 
COc1ccc(NS(=O)(=O)c2ccc(N=CCC(=O)c3ccc(OC)cc3)cc2)cc1 (3D coordinates assigned)
COc1ccc(NS(=O)(=O)c2ccc(N=CCC(=O)c3ccc(OC)cc3)cc2)cc1 (optimized conformer: 61.12857870931317 kcal/mol)

>  <smiles>  (90) 
COc1ccc(NS(=O)(=O)c2ccc(N=CCC(=O)c3ccc(OC)cc3)cc2)cc1

>  <score_type>  (90) 
oracle

>  <origin>  (90) 
adg

>  <m_score__min__energy>  (90) 
-9.1999999999999993

>  <m_primary>  (90) 
energy

$$$$
90:0
     RDKit          3D

 27 29  0  0  0  0  0  0  0  0999 V2000
   59.3050   35.3240   47.0320 C   0  0  0  0  0  0  0  0  0  0  0  0
   59.4350   33.9910   46.4370 N   0  0  0  0  0  0  0  0  0  0  0  0
   58.6450   33.6670   45.2840 C   0  0  0  0  0  0  0  0  0  0  0  0
   58.3180   34.6020   44.5000 O   0  0  0  0  0  0  0  0  0  0  0  0
   58.1550   32.2880   45.0010 C   0  0  0  0  0  0  0  0  0  0  0  0
   57.3890   32.0750   43.8360 C   0  0  0  0  0  0  0  0  0  0  0  0
   56.7800   30.8470   43.5950 C   0  0  0  0  0  0  0  0  0  0  0  0
   56.9220   29.8240   44.5230 C   0  0  0  0  0  0  0  0  0  0  0  0
   57.6770   30.0190   45.6330 N   0  0  0  0  0  0  0  0  0  0  0  0
   58.3140   31.1940   45.8950 C   0  0  0  0  0  0  0  0  0  0  0  0
   59.1050   31.2360   47.0460 O   0  0  0  0  0  0  0  0  0  0  0  0
   60.3670   31.8230   47.1120 C   0  0  0  0  0  0  0  0  0  0  0  0
   61.4210   31.0740   47.5420 N   0  0  0  0  0  0  0  0  0  0  0  0
   62.6760   31.5900   47.6390 C   0  0  0  0  0  0  0  0  0  0  0  0
   62.9100   32.9240   47.3070 C   0  0  0  0  0  0  0  0  0  0  0  0
   61.8440   33.7180   46.8870 C   0  0  0  0  0  0  0  0  0  0  0  0
   60.5550   33.1700   46.7880 C   0  0  0  0  0  0  0  0  0  0  0  0
   59.3133   35.2384   48.1286 H   0  0  0  0  0  0  0  0  0  0  0  0
   60.1459   35.9542   46.7070 H   0  0  0  0  0  0  0  0  0  0  0  0
   58.3581   35.7799   46.7070 H   0  0  0  0  0  0  0  0  0  0  0  0
   57.2713   32.8909   43.1077 H   0  0  0  0  0  0  0  0  0  0  0  0
   56.1922   30.6885   42.6788 H   0  0  0  0  0  0  0  0  0  0  0  0
   56.4233   28.8574   44.3584 H   0  0  0  0  0  0  0  0  0  0  0  0
   61.2670   30.0730   47.7990 H   0  0  0  0  0  0  0  0  0  0  0  0
   63.5068   30.9545   47.9796 H   0  0  0  0  0  0  0  0  0  0  0  0
   63.9240   33.3449   47.3757 H   0  0  0  0  0  0  0  0  0  0  0  0
   62.0128   34.7749   46.6329 H   0  0  0  0  0  0  0  0  0  0  0  0
  1  2  1  0
  2  3  1  0
  3  4  2  0
  3  5  1  0
  5  6  2  0
  6  7  1  0
  7  8  2  0
  8  9  1  0
  9 10  2  0
 10 11  1  0
 11 12  1  0
 12 13  2  0
 13 14  1  0
 14 15  2  0
 15 16  1  0
 16 17  2  0
 17  2  1  0
 10  5  1  0
 17 12  1  0
  1 18  1  0
  1 19  1  0
  1 20  1  0
  6 21  1  0
  7 22  1  0
  8 23  1  0
 13 24  1  0
 14 25  1  0
 15 26  1  0
 16 27  1  0
M  CHG  1  13   1
M  END
>  <UniqueID>  (91) 
83

>  <SMILES>  (91) 
CN1C(=O)c2cccnc2Oc2[nH+]cccc21

>  <Energy>  (91) 
55.131746683095535

>  <Genealogy>  (91) 
CN1C(=O)c2cccnc2Oc2[nH+]cccc21 (protonated)
CN1C(=O)c2cccnc2Oc2[nH+]cccc21 (3D coordinates assigned)
CN1C(=O)c2cccnc2Oc2[nH+]cccc21 (nonaromatic ring conformer: 55.131746683095535 kcal/mol)

>  <smiles>  (91) 
CN1C(=O)c2cccnc2Oc2ncccc21

>  <score_type>  (91) 
oracle

>  <origin>  (91) 
adg

>  <m_score__min__energy>  (91) 
-4.6799999999999997

>  <m_primary>  (91) 
energy

$$$$
91:0
     RDKit          3D

 51 54  0  0  0  0  0  0  0  0999 V2000
   63.7660   31.7150   51.0460 C   0  0  0  0  0  0  0  0  0  0  0  0
   64.0250   33.0910   50.5850 N   0  0  0  0  0  0  0  0  0  0  0  0
   64.7040   33.1120   49.2720 C   0  0  0  0  0  0  0  0  0  0  0  0
   63.7840   32.6120   48.1450 C   0  0  0  0  0  0  0  0  0  0  0  0
   62.4130   33.0930   48.3370 N   0  0  0  0  0  0  0  0  0  0  0  0
   61.3550   32.5530   47.5230 C   0  0  0  0  0  0  0  0  0  0  0  0
   60.2510   33.3300   47.1520 C   0  0  0  0  0  0  0  0  0  0  0  0
   59.2400   32.7590   46.3820 C   0  0  0  0  0  0  0  0  0  0  0  0
   59.3400   31.4140   45.9970 C   0  0  0  0  0  0  0  0  0  0  0  0
   58.2920   30.7480   45.1830 C   0  0  0  0  0  0  0  0  0  0  0  0
   57.2440   31.4820   44.5950 C   0  0  0  0  0  0  0  0  0  0  0  0
   56.2660   30.8350   43.8370 C   0  0  0  0  0  0  0  0  0  0  0  0
   56.3270   29.4560   43.6370 C   0  0  0  0  0  0  0  0  0  0  0  0
   57.3840   28.7090   44.1830 C   0  0  0  0  0  0  0  0  0  0  0  0
   57.4600   27.2830   44.0140 N   0  0  0  0  0  0  0  0  0  0  0  0
   57.5510   26.3460   45.1040 C   0  0  0  0  0  0  0  0  0  0  0  0
   57.5490   26.7560   46.2960 O   0  0  0  0  0  0  0  0  0  0  0  0
   57.6520   24.8940   44.8490 C   0  0  0  0  0  0  0  0  0  0  0  0
   56.7770   24.2920   43.9260 C   0  0  0  0  0  0  0  0  0  0  0  0
   56.8500   22.9210   43.6710 C   0  0  0  0  0  0  0  0  0  0  0  0
   57.8040   22.1370   44.3230 C   0  0  0  0  0  0  0  0  0  0  0  0
   58.6920   22.7250   45.2260 C   0  0  0  0  0  0  0  0  0  0  0  0
   58.6240   24.0980   45.4880 C   0  0  0  0  0  0  0  0  0  0  0  0
   59.5430   24.6490   46.3210 F   0  0  0  0  0  0  0  0  0  0  0  0
   58.3490   29.3580   44.9670 C   0  0  0  0  0  0  0  0  0  0  0  0
   60.4220   30.6990   46.4120 N   0  0  0  0  0  0  0  0  0  0  0  0
   61.3910   31.2460   47.1480 N   0  0  0  0  0  0  0  0  0  0  0  0
   62.1900   34.2240   49.2460 C   0  0  0  0  0  0  0  0  0  0  0  0
   62.7980   33.9290   50.6290 C   0  0  0  0  0  0  0  0  0  0  0  0
   63.7616   31.6915   52.1457 H   0  0  0  0  0  0  0  0  0  0  0  0
   62.7889   31.3795   50.6681 H   0  0  0  0  0  0  0  0  0  0  0  0
   64.5542   31.0472   50.6681 H   0  0  0  0  0  0  0  0  0  0  0  0
   65.0136   34.1434   49.0477 H   0  0  0  0  0  0  0  0  0  0  0  0
   65.5740   32.4410   49.3262 H   0  0  0  0  0  0  0  0  0  0  0  0
   64.1632   32.9805   47.1804 H   0  0  0  0  0  0  0  0  0  0  0  0
   63.7759   31.5121   48.1598 H   0  0  0  0  0  0  0  0  0  0  0  0
   60.1824   34.3821   47.4657 H   0  0  0  0  0  0  0  0  0  0  0  0
   58.3694   33.3588   46.0781 H   0  0  0  0  0  0  0  0  0  0  0  0
   57.1955   32.5721   44.7337 H   0  0  0  0  0  0  0  0  0  0  0  0
   55.4430   31.4160   43.3952 H   0  0  0  0  0  0  0  0  0  0  0  0
   55.5451   28.9519   43.0500 H   0  0  0  0  0  0  0  0  0  0  0  0
   57.3950   26.9150   43.0390 H   0  0  0  0  0  0  0  0  0  0  0  0
   56.0300   24.9059   43.4015 H   0  0  0  0  0  0  0  0  0  0  0  0
   56.1548   22.4578   42.9553 H   0  0  0  0  0  0  0  0  0  0  0  0
   57.8560   21.0562   44.1252 H   0  0  0  0  0  0  0  0  0  0  0  0
   59.4475   22.1069   45.7331 H   0  0  0  0  0  0  0  0  0  0  0  0
   59.1625   28.7722   45.4199 H   0  0  0  0  0  0  0  0  0  0  0  0
   62.6627   35.1245   48.8269 H   0  0  0  0  0  0  0  0  0  0  0  0
   61.1074   34.3830   49.3588 H   0  0  0  0  0  0  0  0  0  0  0  0
   63.0506   34.8870   51.1070 H   0  0  0  0  0  0  0  0  0  0  0  0
   62.0443   33.3595   51.1925 H   0  0  0  0  0  0  0  0  0  0  0  0
  1  2  1  0
  2  3  1  0
  3  4  1  0
  4  5  1  0
  5  6  1  0
  6  7  2  0
  7  8  1  0
  8  9  2  0
  9 10  1  0
 10 11  2  0
 11 12  1  0
 12 13  2  0
 13 14  1  0
 14 15  1  0
 15 16  1  0
 16 17  2  0
 16 18  1  0
 18 19  2  0
 19 20  1  0
 20 21  2  0
 21 22  1  0
 22 23  2  0
 23 24  1  0
 14 25  2  0
  9 26  1  0
 26 27  2  0
  5 28  1  0
 28 29  1  0
 29  2  1  0
 27  6  1  0
 25 10  1  0
 23 18  1  0
  1 30  1  0
  1 31  1  0
  1 32  1  0
  3 33  1  0
  3 34  1  0
  4 35  1  0
  4 36  1  0
  7 37  1  0
  8 38  1  0
 11 39  1  0
 12 40  1  0
 13 41  1  0
 15 42  1  0
 19 43  1  0
 20 44  1  0
 21 45  1  0
 22 46  1  0
 25 47  1  0
 28 48  1  0
 28 49  1  0
 29 50  1  0
 29 51  1  0
M  END
>  <UniqueID>  (92) 
84

>  <SMILES>  (92) 
CN1CCN(c2ccc(-c3cccc(NC(=O)c4ccccc4F)c3)nn2)CC1

>  <Energy>  (92) 
78.71335289272277

>  <Genealogy>  (92) 
CN1CCN(c2ccc(-c3cccc(NC(=O)c4ccccc4F)c3)nn2)CC1 (3D coordinates assigned)
CN1CCN(c2ccc(-c3cccc(NC(=O)c4ccccc4F)c3)nn2)CC1 (nonaromatic ring conformer: 78.71335289272277 kcal/mol)

>  <smiles>  (92) 
CN1CCN(c2ccc(-c3cccc(NC(=O)c4ccccc4F)c3)nn2)CC1

>  <score_type>  (92) 
oracle

>  <origin>  (92) 
adg

>  <m_score__min__energy>  (92) 
-8.3499999999999996

>  <m_primary>  (92) 
energy

$$$$
92:0
     RDKit          3D

 49 52  0  0  0  0  0  0  0  0999 V2000
   60.5390   26.9750   48.6470 F   0  0  0  0  0  0  0  0  0  0  0  0
   60.1840   28.2410   48.3180 C   0  0  0  0  0  0  0  0  0  0  0  0
   59.2550   28.9320   49.1010 C   0  0  0  0  0  0  0  0  0  0  0  0
   58.8850   30.2370   48.7620 C   0  0  0  0  0  0  0  0  0  0  0  0
   59.4410   30.8610   47.6340 C   0  0  0  0  0  0  0  0  0  0  0  0
   59.0380   32.1910   47.2620 N   0  0  0  0  0  0  0  0  0  0  0  0
   58.6700   32.6420   46.0430 C   0  0  0  0  0  0  0  0  0  0  0  0
   58.5530   31.8260   44.7840 C   0  0  0  0  0  0  0  0  0  0  0  0
   57.3930   30.9160   44.8630 N   0  0  0  0  0  0  0  0  0  0  0  0
   56.7140   30.7960   43.5580 C   0  0  0  0  0  0  0  0  0  0  0  0
   55.4850   29.8700   43.6840 C   0  0  0  0  0  0  0  0  0  0  0  0
   55.4460   29.1920   44.9280 O   0  0  0  0  0  0  0  0  0  0  0  0
   56.6820   28.5490   45.1630 C   0  0  0  0  0  0  0  0  0  0  0  0
   57.8150   29.5810   45.3330 C   0  0  0  0  0  0  0  0  0  0  0  0
   58.3000   33.9650   46.1640 C   0  0  0  0  0  0  0  0  0  0  0  0
   58.4410   34.3570   47.4450 N   0  0  0  0  0  0  0  0  0  0  0  0
   58.8930   33.2560   48.0820 C   0  0  0  0  0  0  0  0  0  0  0  0
   59.2950   33.2540   49.8340 S   0  0  0  0  0  0  0  0  0  0  0  0
   60.8450   34.2010   49.6390 C   0  0  0  0  0  0  0  0  0  0  0  0
   61.8360   33.4670   48.7760 C   0  0  0  0  0  0  0  0  0  0  0  0
   62.1620   33.9510   47.4970 C   0  0  0  0  0  0  0  0  0  0  0  0
   63.0970   33.2750   46.7080 C   0  0  0  0  0  0  0  0  0  0  0  0
   63.7040   32.1090   47.1840 C   0  0  0  0  0  0  0  0  0  0  0  0
   63.3750   31.6160   48.4490 C   0  0  0  0  0  0  0  0  0  0  0  0
   62.4440   32.2910   49.2440 C   0  0  0  0  0  0  0  0  0  0  0  0
   60.3770   30.1620   46.8560 C   0  0  0  0  0  0  0  0  0  0  0  0
   60.7470   28.8570   47.1970 C   0  0  0  0  0  0  0  0  0  0  0  0
   58.8143   28.4484   49.9853 H   0  0  0  0  0  0  0  0  0  0  0  0
   58.1547   30.7774   49.3822 H   0  0  0  0  0  0  0  0  0  0  0  0
   58.4252   32.5016   43.9254 H   0  0  0  0  0  0  0  0  0  0  0  0
   59.4674   31.2267   44.6624 H   0  0  0  0  0  0  0  0  0  0  0  0
   56.3868   31.7920   43.2249 H   0  0  0  0  0  0  0  0  0  0  0  0
   57.4141   30.3683   42.8253 H   0  0  0  0  0  0  0  0  0  0  0  0
   54.5732   30.4771   43.5836 H   0  0  0  0  0  0  0  0  0  0  0  0
   55.5530   29.1116   42.8901 H   0  0  0  0  0  0  0  0  0  0  0  0
   56.6051   27.9443   46.0787 H   0  0  0  0  0  0  0  0  0  0  0  0
   56.9156   27.9095   44.2990 H   0  0  0  0  0  0  0  0  0  0  0  0
   58.0869   29.6441   46.3970 H   0  0  0  0  0  0  0  0  0  0  0  0
   58.6771   29.2555   44.7324 H   0  0  0  0  0  0  0  0  0  0  0  0
   57.9444   34.6022   45.3409 H   0  0  0  0  0  0  0  0  0  0  0  0
   60.6151   35.1707   49.1734 H   0  0  0  0  0  0  0  0  0  0  0  0
   61.2915   34.3403   50.6346 H   0  0  0  0  0  0  0  0  0  0  0  0
   61.6802   34.8637   47.1163 H   0  0  0  0  0  0  0  0  0  0  0  0
   63.3556   33.6610   45.7110 H   0  0  0  0  0  0  0  0  0  0  0  0
   64.4409   31.5796   46.5622 H   0  0  0  0  0  0  0  0  0  0  0  0
   63.8491   30.6954   48.8201 H   0  0  0  0  0  0  0  0  0  0  0  0
   62.1869   31.8996   50.2393 H   0  0  0  0  0  0  0  0  0  0  0  0
   60.8222   30.6434   45.9728 H   0  0  0  0  0  0  0  0  0  0  0  0
   61.4813   28.3154   46.5827 H   0  0  0  0  0  0  0  0  0  0  0  0
  1  2  1  0
  2  3  2  0
  3  4  1  0
  4  5  2  0
  5  6  1  0
  6  7  1  0
  7  8  1  0
  8  9  1  0
  9 10  1  0
 10 11  1  0
 11 12  1  0
 12 13  1  0
 13 14  1  0
  7 15  2  0
 15 16  1  0
 16 17  2  0
 17 18  1  0
 18 19  1  0
 19 20  1  0
 20 21  2  0
 21 22  1  0
 22 23  2  0
 23 24  1  0
 24 25  2  0
  5 26  1  0
 26 27  2  0
 27  2  1  0
 17  6  1  0
 25 20  1  0
 14  9  1  0
  3 28  1  0
  4 29  1  0
  8 30  1  0
  8 31  1  0
 10 32  1  0
 10 33  1  0
 11 34  1  0
 11 35  1  0
 13 36  1  0
 13 37  1  0
 14 38  1  0
 14 39  1  0
 15 40  1  0
 19 41  1  0
 19 42  1  0
 21 43  1  0
 22 44  1  0
 23 45  1  0
 24 46  1  0
 25 47  1  0
 26 48  1  0
 27 49  1  0
M  END
>  <UniqueID>  (93) 
85

>  <SMILES>  (93) 
Fc1ccc(-n2c(CN3CCOCC3)cnc2SCc2ccccc2)cc1

>  <Energy>  (93) 
87.7225386413548

>  <Genealogy>  (93) 
Fc1ccc(-n2c(CN3CCOCC3)cnc2SCc2ccccc2)cc1 (3D coordinates assigned)
Fc1ccc(-n2c(CN3CCOCC3)cnc2SCc2ccccc2)cc1 (nonaromatic ring conformer: 87.7225386413548 kcal/mol)

>  <smiles>  (93) 
Fc1ccc(-n2c(CN3CCOCC3)cnc2SCc2ccccc2)cc1

>  <score_type>  (93) 
oracle

>  <origin>  (93) 
adg

>  <m_score__min__energy>  (93) 
-8.2699999999999996

>  <m_primary>  (93) 
energy

$$$$
93:0
     RDKit          3D

 17 18  0  0  0  0  0  0  0  0999 V2000
   56.0790   29.4770   45.0010 N   0  0  0  0  0  0  0  0  0  0  0  0
   56.6600   30.4550   44.1300 C   0  0  0  0  0  0  0  0  0  0  0  0
   56.5480   30.3100   42.7390 C   0  0  0  0  0  0  0  0  0  0  0  0
   57.0980   31.2340   41.9040 N   0  0  0  0  0  0  0  0  0  0  0  0
   57.7670   32.3190   42.3740 C   0  0  0  0  0  0  0  0  0  0  0  0
   57.9060   32.5090   43.7540 C   0  0  0  0  0  0  0  0  0  0  0  0
   58.5700   33.5820   44.2640 N   0  0  0  0  0  0  0  0  0  0  0  0
   58.6910   33.7430   45.5830 N   0  0  0  0  0  0  0  0  0  0  0  0
   58.1570   32.8440   46.4510 C   0  0  0  0  0  0  0  0  0  0  0  0
   57.4890   31.7630   45.9760 N   0  0  0  0  0  0  0  0  0  0  0  0
   57.3490   31.5700   44.6390 C   0  0  0  0  0  0  0  0  0  0  0  0
   55.8770   28.5060   44.6720 H   0  0  0  0  0  0  0  0  0  0  0  0
   55.8460   29.7180   45.9890 H   0  0  0  0  0  0  0  0  0  0  0  0
   56.0128   29.4448   42.3207 H   0  0  0  0  0  0  0  0  0  0  0  0
   58.1987   33.0470   41.6714 H   0  0  0  0  0  0  0  0  0  0  0  0
   58.9930   34.2940   43.6290 H   0  0  0  0  0  0  0  0  0  0  0  0
   58.2661   32.9924   47.5355 H   0  0  0  0  0  0  0  0  0  0  0  0
  1  2  1  0
  2  3  2  0
  3  4  1  0
  4  5  2  0
  5  6  1  0
  6  7  2  0
  7  8  1  0
  8  9  2  0
  9 10  1  0
 10 11  2  0
 11  2  1  0
 11  6  1  0
  1 12  1  0
  1 13  1  0
  3 14  1  0
  5 15  1  0
  7 16  1  0
  9 17  1  0
M  CHG  1   7   1
M  END
>  <UniqueID>  (94) 
86

>  <SMILES>  (94) 
Nc1cncc2[nH+]ncnc12

>  <Energy>  (94) 
22.384089446674096

>  <Genealogy>  (94) 
Nc1cncc2[nH+]ncnc12 (protonated)
Nc1cncc2[nH+]ncnc12 (3D coordinates assigned)
Nc1cncc2[nH+]ncnc12 (optimized conformer: 22.384089446674096 kcal/mol)

>  <smiles>  (94) 
Nc1cncc2nncnc12

>  <score_type>  (94) 
oracle

>  <origin>  (94) 
adg

>  <m_score__min__energy>  (94) 
-3.5499999999999998

>  <m_primary>  (94) 
energy

$$$$
94:0
     RDKit          3D

 21 22  0  0  0  0  0  0  0  0999 V2000
   59.2110   34.6550   47.0290 C   0  0  0  0  0  0  0  0  0  0  0  0
   60.5990   34.2100   47.3850 C   0  0  0  0  0  0  0  0  0  0  0  0
   61.5020   33.8420   46.3760 C   0  0  0  0  0  0  0  0  0  0  0  0
   62.8080   33.4620   46.6990 C   0  0  0  0  0  0  0  0  0  0  0  0
   63.2320   33.4570   48.0350 C   0  0  0  0  0  0  0  0  0  0  0  0
   64.5060   33.0860   48.3590 N   0  0  0  0  0  0  0  0  0  0  0  0
   64.9360   33.0800   49.6500 C   0  0  0  0  0  0  0  0  0  0  0  0
   64.0760   33.4570   50.6840 C   0  0  0  0  0  0  0  0  0  0  0  0
   62.7680   33.8400   50.3840 C   0  0  0  0  0  0  0  0  0  0  0  0
   62.3310   33.8430   49.0540 C   0  0  0  0  0  0  0  0  0  0  0  0
   61.0220   34.2240   48.7240 C   0  0  0  0  0  0  0  0  0  0  0  0
   58.6375   34.8389   47.9495 H   0  0  0  0  0  0  0  0  0  0  0  0
   59.2632   35.5814   46.4383 H   0  0  0  0  0  0  0  0  0  0  0  0
   58.7148   33.8709   46.4383 H   0  0  0  0  0  0  0  0  0  0  0  0
   61.1802   33.8526   45.3242 H   0  0  0  0  0  0  0  0  0  0  0  0
   63.5055   33.1658   45.9017 H   0  0  0  0  0  0  0  0  0  0  0  0
   65.1770   32.8000   47.6100 H   0  0  0  0  0  0  0  0  0  0  0  0
   65.9677   32.7762   49.8808 H   0  0  0  0  0  0  0  0  0  0  0  0
   64.4269   33.4521   51.7265 H   0  0  0  0  0  0  0  0  0  0  0  0
   62.0822   34.1388   51.1905 H   0  0  0  0  0  0  0  0  0  0  0  0
   60.3249   34.5346   49.5162 H   0  0  0  0  0  0  0  0  0  0  0  0
  1  2  1  0
  2  3  2  0
  3  4  1  0
  4  5  2  0
  5  6  1  0
  6  7  2  0
  7  8  1  0
  8  9  2  0
  9 10  1  0
 10 11  2  0
 11  2  1  0
 10  5  1  0
  1 12  1  0
  1 13  1  0
  1 14  1  0
  3 15  1  0
  4 16  1  0
  6 17  1  0
  7 18  1  0
  8 19  1  0
  9 20  1  0
 11 21  1  0
M  CHG  1   6   1
M  END
>  <UniqueID>  (95) 
87

>  <SMILES>  (95) 
Cc1ccc2[nH+]cccc2c1

>  <Energy>  (95) 
23.740028828339113

>  <Genealogy>  (95) 
Cc1ccc2[nH+]cccc2c1 (protonated)
Cc1ccc2[nH+]cccc2c1 (3D coordinates assigned)
Cc1ccc2[nH+]cccc2c1 (optimized conformer: 23.740028828339113 kcal/mol)

>  <smiles>  (95) 
Cc1ccc2ncccc2c1

>  <score_type>  (95) 
oracle

>  <origin>  (95) 
adg

>  <m_score__min__energy>  (95) 
-3.73

>  <m_primary>  (95) 
energy

$$$$
95:0
     RDKit          3D

 42 44  0  0  0  0  0  0  0  0999 V2000
   60.1730   34.7190   45.9930 O   0  0  0  0  0  0  0  0  0  0  0  0
   60.0530   33.7640   46.8100 C   0  0  0  0  0  0  0  0  0  0  0  0
   58.7730   33.1530   47.0100 N   0  0  0  0  0  0  0  0  0  0  0  0
   57.5800   33.5060   46.2490 C   0  0  0  0  0  0  0  0  0  0  0  0
   57.4380   32.5930   45.0650 C   0  0  0  0  0  0  0  0  0  0  0  0
   58.1060   32.8750   43.8650 C   0  0  0  0  0  0  0  0  0  0  0  0
   57.9730   31.9970   42.7870 C   0  0  0  0  0  0  0  0  0  0  0  0
   57.1930   30.8440   42.9170 C   0  0  0  0  0  0  0  0  0  0  0  0
   56.5490   30.5910   44.1310 C   0  0  0  0  0  0  0  0  0  0  0  0
   56.6900   31.4570   45.1720 N   0  0  0  0  0  0  0  0  0  0  0  0
   61.2430   33.2650   47.6050 C   0  0  2  0  0  0  0  0  0  0  0  0
   62.5370   33.1500   46.7500 C   0  0  0  0  0  0  0  0  0  0  0  0
   63.5740   32.2800   47.3450 N   0  0  0  0  0  0  0  0  0  0  0  0
   63.4570   32.1520   48.8010 C   0  0  0  0  0  0  0  0  0  0  0  0
   62.1530   31.4290   49.1700 C   0  0  0  0  0  0  0  0  0  0  0  0
   60.9260   31.9480   48.3720 C   0  0  2  0  0  0  0  0  0  0  0  0
   60.3160   30.8720   47.4740 C   0  0  0  0  0  0  0  0  0  0  0  0
   61.0580   30.3710   46.3870 C   0  0  0  0  0  0  0  0  0  0  0  0
   60.5280   29.3730   45.5600 C   0  0  0  0  0  0  0  0  0  0  0  0
   59.2490   28.8640   45.8040 C   0  0  0  0  0  0  0  0  0  0  0  0
   58.5750   27.6340   44.7490 Cl  0  0  0  0  0  0  0  0  0  0  0  0
   58.5040   29.3470   46.8860 C   0  0  0  0  0  0  0  0  0  0  0  0
   59.0320   30.3410   47.7170 C   0  0  0  0  0  0  0  0  0  0  0  0
   56.6941   33.4073   46.8936 H   0  0  0  0  0  0  0  0  0  0  0  0
   57.6704   34.5439   45.8962 H   0  0  0  0  0  0  0  0  0  0  0  0
   58.7279   33.7777   43.7736 H   0  0  0  0  0  0  0  0  0  0  0  0
   58.4818   32.2126   41.8359 H   0  0  0  0  0  0  0  0  0  0  0  0
   57.0876   30.1449   42.0743 H   0  0  0  0  0  0  0  0  0  0  0  0
   55.9272   29.6909   44.2457 H   0  0  0  0  0  0  0  0  0  0  0  0
   61.4474   34.0352   48.3633 H   0  0  0  0  0  0  0  0  0  0  0  0
   62.2660   32.7418   45.7651 H   0  0  0  0  0  0  0  0  0  0  0  0
   62.9672   34.1603   46.6851 H   0  0  0  0  0  0  0  0  0  0  0  0
   64.5150   32.6860   47.1290 H   0  0  0  0  0  0  0  0  0  0  0  0
   64.3122   31.5761   49.1844 H   0  0  0  0  0  0  0  0  0  0  0  0
   63.4479   33.1567   49.2487 H   0  0  0  0  0  0  0  0  0  0  0  0
   62.2768   30.3556   48.9641 H   0  0  0  0  0  0  0  0  0  0  0  0
   61.9590   31.6225   50.2353 H   0  0  0  0  0  0  0  0  0  0  0  0
   60.1504   32.1986   49.1107 H   0  0  0  0  0  0  0  0  0  0  0  0
   62.0640   30.7676   46.1855 H   0  0  0  0  0  0  0  0  0  0  0  0
   61.1196   28.9885   44.7161 H   0  0  0  0  0  0  0  0  0  0  0  0
   57.4999   28.9437   47.0837 H   0  0  0  0  0  0  0  0  0  0  0  0
   58.4407   30.7117   48.5673 H   0  0  0  0  0  0  0  0  0  0  0  0
  1  2  2  0
  2  3  1  0
  3  4  1  0
  4  5  1  0
  5  6  2  0
  6  7  1  0
  7  8  2  0
  8  9  1  0
  9 10  2  0
  2 11  1  0
 11 12  1  0
 12 13  1  0
 13 14  1  0
 14 15  1  0
 15 16  1  0
 16 17  1  0
 17 18  2  0
 18 19  1  0
 19 20  2  0
 20 21  1  0
 20 22  1  0
 22 23  2  0
 10  5  1  0
 16 11  1  0
 23 17  1  0
  4 24  1  0
  4 25  1  0
  6 26  1  0
  7 27  1  0
  8 28  1  0
  9 29  1  0
 11 30  1  1
 12 31  1  0
 12 32  1  0
 13 33  1  0
 14 34  1  0
 14 35  1  0
 15 36  1  0
 15 37  1  0
 16 38  1  1
 18 39  1  0
 19 40  1  0
 22 41  1  0
 23 42  1  0
M  CHG  1   3  -1
M  END
>  <UniqueID>  (96) 
88

>  <SMILES>  (96) 
O=C([N-]Cc1ccccn1)[C@@H]1CNCC[C@@H]1c1ccc(Cl)cc1

>  <Energy>  (96) 
51.61172438953183

>  <Genealogy>  (96) 
O=C([N-]Cc1ccccn1)C1CNCCC1c1ccc(Cl)cc1 (protonated)
O=C([N-]Cc1ccccn1)[C@@H]1CNCC[C@@H]1c1ccc(Cl)cc1 (chirality)
O=C([N-]Cc1ccccn1)[C@@H]1CNCC[C@@H]1c1ccc(Cl)cc1 (3D coordinates assigned)
O=C([N-]Cc1ccccn1)[C@@H]1CNCC[C@@H]1c1ccc(Cl)cc1 (nonaromatic ring conformer: 51.61172438953183 kcal/mol)

>  <smiles>  (96) 
O=C(NCc1ccccn1)C1CNCCC1c1ccc(Cl)cc1

>  <score_type>  (96) 
oracle

>  <origin>  (96) 
adg

>  <m_score__min__energy>  (96) 
-10.73

>  <m_primary>  (96) 
energy

$$$$
