0:0
     RDKit          3D

 46 48  0  0  0  0  0  0  0  0999 V2000
   56.0880   29.4180   43.0620 O   0  0  0  0  0  0  0  0  0  0  0  0
   56.4120   29.7710   44.2290 C   0  0  0  0  0  0  0  0  0  0  0  0
   56.9450   28.7930   45.1920 C   0  0  0  0  0  0  0  0  0  0  0  0
   57.3340   27.5650   44.8250 C   0  0  0  0  0  0  0  0  0  0  0  0
   57.1920   26.3810   45.7080 C   0  0  0  0  0  0  0  0  0  0  0  0
   55.9530   25.9870   46.2520 C   0  0  0  0  0  0  0  0  0  0  0  0
   54.7950   26.7140   46.0050 O   0  0  0  0  0  0  0  0  0  0  0  0
   55.8840   24.8970   47.0600 N   0  0  0  0  0  0  0  0  0  0  0  0
   56.9930   24.1810   47.3720 C   0  0  0  0  0  0  0  0  0  0  0  0
   56.9010   23.1730   48.1190 O   0  0  0  0  0  0  0  0  0  0  0  0
   58.2020   24.5550   46.8840 N   0  0  0  0  0  0  0  0  0  0  0  0
   58.3280   25.6350   46.0700 C   0  0  0  0  0  0  0  0  0  0  0  0
   59.4690   25.9480   45.6370 O   0  0  0  0  0  0  0  0  0  0  0  0
   56.2680   31.1350   44.6330 N   0  0  0  0  0  0  0  0  0  0  0  0
   57.3000   32.1380   44.4060 C   0  0  0  0  0  0  0  0  0  0  0  0
   58.0190   32.4140   45.6940 C   0  0  0  0  0  0  0  0  0  0  0  0
   58.4940   31.3530   46.4810 C   0  0  0  0  0  0  0  0  0  0  0  0
   59.1930   31.6110   47.6640 C   0  0  0  0  0  0  0  0  0  0  0  0
   59.4390   32.9300   48.0650 C   0  0  0  0  0  0  0  0  0  0  0  0
   60.3000   33.2430   49.5700 S   0  0  0  0  0  0  0  0  0  0  0  0
   59.8730   34.5830   50.1010 O   0  0  0  0  0  0  0  0  0  0  0  0
   59.9540   32.1910   50.5880 O   0  0  0  0  0  0  0  0  0  0  0  0
   62.0240   33.2490   49.2790 N   0  0  0  0  0  0  0  0  0  0  0  0
   62.3450   34.1780   48.1790 C   0  0  0  0  0  0  0  0  0  0  0  0
   63.7120   33.8360   47.5630 C   0  0  0  0  0  0  0  0  0  0  0  0
   63.7970   32.5230   47.0230 O   0  0  0  0  0  0  0  0  0  0  0  0
   62.8400   31.6200   47.5600 C   0  0  0  0  0  0  0  0  0  0  0  0
   62.5290   31.8780   49.0440 C   0  0  0  0  0  0  0  0  0  0  0  0
   58.9750   33.9910   47.2760 C   0  0  0  0  0  0  0  0  0  0  0  0
   58.2750   33.7350   46.0930 C   0  0  0  0  0  0  0  0  0  0  0  0
   57.0266   29.0811   46.2505 H   0  0  0  0  0  0  0  0  0  0  0  0
   57.7772   27.4286   43.8275 H   0  0  0  0  0  0  0  0  0  0  0  0
   58.0159   31.7653   43.6587 H   0  0  0  0  0  0  0  0  0  0  0  0
   56.8365   33.0652   44.0380 H   0  0  0  0  0  0  0  0  0  0  0  0
   58.3155   30.3144   46.1656 H   0  0  0  0  0  0  0  0  0  0  0  0
   59.5511   30.7746   48.2822 H   0  0  0  0  0  0  0  0  0  0  0  0
   61.5693   34.1010   47.4029 H   0  0  0  0  0  0  0  0  0  0  0  0
   62.3826   35.2019   48.5792 H   0  0  0  0  0  0  0  0  0  0  0  0
   63.9159   34.5547   46.7556 H   0  0  0  0  0  0  0  0  0  0  0  0
   64.4482   33.8902   48.3785 H   0  0  0  0  0  0  0  0  0  0  0  0
   61.9070   31.7169   46.9854 H   0  0  0  0  0  0  0  0  0  0  0  0
   63.2675   30.6091   47.4867 H   0  0  0  0  0  0  0  0  0  0  0  0
   61.7669   31.1579   49.3767 H   0  0  0  0  0  0  0  0  0  0  0  0
   63.4646   31.7610   49.6105 H   0  0  0  0  0  0  0  0  0  0  0  0
   59.1621   35.0290   47.5884 H   0  0  0  0  0  0  0  0  0  0  0  0
   57.9235   34.5725   45.4724 H   0  0  0  0  0  0  0  0  0  0  0  0
  1  2  2  0
  2  3  1  0
  3  4  2  3
  4  5  1  0
  5  6  2  0
  6  7  1  0
  6  8  1  0
  8  9  1  0
  9 10  2  0
  9 11  1  0
 11 12  1  0
 12 13  2  0
  2 14  1  0
 14 15  1  0
 15 16  1  0
 16 17  2  0
 17 18  1  0
 18 19  2  0
 19 20  1  0
 20 21  2  0
 20 22  2  0
 20 23  1  0
 23 24  1  0
 24 25  1  0
 25 26  1  0
 26 27  1  0
 27 28  1  0
 19 29  1  0
 29 30  2  0
 12  5  1  0
 30 16  1  0
 28 23  1  0
  3 31  1  0
  4 32  1  0
 15 33  1  0
 15 34  1  0
 17 35  1  0
 18 36  1  0
 24 37  1  0
 24 38  1  0
 25 39  1  0
 25 40  1  0
 27 41  1  0
 27 42  1  0
 28 43  1  0
 28 44  1  0
 29 45  1  0
 30 46  1  0
M  CHG  4   7  -1   8  -1  11  -1  14  -1
M  END
>  <UniqueID>  (1) 
1

>  <SMILES>  (1) 
O=C(C=Cc1c([O-])[n-]c(=O)[n-]c1=O)[N-]Cc1ccc(S(=O)(=O)N2CCOCC2)cc1

>  <Energy>  (1) 
62.6571737668511

>  <Genealogy>  (1) 
O=C(C=Cc1c([O-])[n-]c(=O)[n-]c1=O)[N-]Cc1ccc(S(=O)(=O)N2CCOCC2)cc1 (protonated)
O=C(C=Cc1c([O-])[n-]c(=O)[n-]c1=O)[N-]Cc1ccc(S(=O)(=O)N2CCOCC2)cc1 (3D coordinates assigned)
O=C(C=Cc1c([O-])[n-]c(=O)[n-]c1=O)[N-]Cc1ccc(S(=O)(=O)N2CCOCC2)cc1 (nonaromatic ring conformer: 62.6571737668511 kcal/mol)

>  <smiles>  (1) 
O=C(C=Cc1c(O)[nH]c(=O)[nH]c1=O)NCc1ccc(S(=O)(=O)N2CCOCC2)cc1

>  <score_type>  (1) 
oracle

>  <origin>  (1) 
adg

>  <m_score__min__energy>  (1) 
-18.129999999999999

>  <m_primary>  (1) 
energy

$$$$
1:0
     RDKit          3D

 31 32  0  0  0  0  0  0  0  0999 V2000
   60.2820   34.5160   47.7310 H   0  0  0  0  0  0  0  0  0  0  0  0
   60.2200   33.5190   47.5600 O   0  0  0  0  0  0  0  0  0  0  0  0
   59.5340   32.9980   46.4640 C   0  0  0  0  0  0  0  0  0  0  0  0
   59.4490   31.6090   46.3110 C   0  0  0  0  0  0  0  0  0  0  0  0
   59.9106   30.9480   47.0593 H   0  0  0  0  0  0  0  0  0  0  0  0
   58.7780   31.0530   45.2080 C   0  0  0  0  0  0  0  0  0  0  0  0
   58.6330   29.5900   45.0570 C   0  0  0  0  0  0  0  0  0  0  0  0
   59.5387   29.0158   44.8121 H   0  0  0  0  0  0  0  0  0  0  0  0
   57.4790   28.8990   45.1950 C   0  0  0  0  0  0  0  0  0  0  0  0
   56.1990   29.3350   44.5760 C   0  0  0  0  0  0  0  0  0  0  0  0
   55.1320   29.3610   45.2470 O   0  0  0  0  0  0  0  0  0  0  0  0
   56.1460   29.6590   43.2260 O   0  0  0  0  0  0  0  0  0  0  0  0
   57.4730   27.6690   46.0270 C   0  0  0  0  0  0  0  0  0  0  0  0
   57.8800   27.7370   47.2180 O   0  0  0  0  0  0  0  0  0  0  0  0
   57.0130   26.3600   45.4930 C   0  0  0  0  0  0  0  0  0  0  0  0
   57.9110   25.5270   44.7970 C   0  0  0  0  0  0  0  0  0  0  0  0
   58.9488   25.8554   44.6388 H   0  0  0  0  0  0  0  0  0  0  0  0
   57.4940   24.2870   44.3060 C   0  0  0  0  0  0  0  0  0  0  0  0
   58.2023   23.6466   43.7600 H   0  0  0  0  0  0  0  0  0  0  0  0
   56.1800   23.8590   44.5070 C   0  0  0  0  0  0  0  0  0  0  0  0
   55.7690   22.6260   44.0180 O   0  0  0  0  0  0  0  0  0  0  0  0
   55.2800   24.6710   45.2010 C   0  0  0  0  0  0  0  0  0  0  0  0
   54.2461   24.3309   45.3602 H   0  0  0  0  0  0  0  0  0  0  0  0
   55.6880   25.9160   45.6950 C   0  0  0  0  0  0  0  0  0  0  0  0
   54.7640   26.7080   46.3680 O   0  0  0  0  0  0  0  0  0  0  0  0
   58.1500   31.9020   44.2860 C   0  0  0  0  0  0  0  0  0  0  0  0
   57.5877   31.4751   43.4425 H   0  0  0  0  0  0  0  0  0  0  0  0
   58.2360   33.2890   44.4350 C   0  0  0  0  0  0  0  0  0  0  0  0
   57.7567   33.9497   43.6976 H   0  0  0  0  0  0  0  0  0  0  0  0
   58.9290   33.8410   45.5180 C   0  0  0  0  0  0  0  0  0  0  0  0
   59.0060   35.2230   45.6490 O   0  0  0  0  0  0  0  0  0  0  0  0
  1  2  1  0
  2  3  1  0
  3  4  2  0
  4  5  1  0
  4  6  1  0
  6  7  1  0
  7  8  1  0
  7  9  2  0
  9 10  1  0
 10 11  2  0
 10 12  1  0
  9 13  1  0
 13 14  2  0
 13 15  1  0
 15 16  2  0
 16 17  1  0
 16 18  1  0
 18 19  1  0
 18 20  2  0
 20 21  1  0
 20 22  1  0
 22 23  1  0
 22 24  2  0
 24 25  1  0
  6 26  2  0
 26 27  1  0
 26 28  1  0
 28 29  1  0
 28 30  2  0
 30 31  1  0
 30  3  1  0
 24 15  1  0
M  CHG  4  12  -1  21  -1  25  -1  31  -1
M  END
>  <UniqueID>  (2) 
2

>  <SMILES>  (2) 
O=C([O-])/C(=C\c1ccc([O-])c(O)c1)C(=O)c1ccc([O-])cc1[O-]

>  <Energy>  (2) 
49.98186543178216

>  <Genealogy>  (2) 
O=C([O-])C(=Cc1ccc([O-])c(O)c1)C(=O)c1ccc([O-])cc1[O-] (protonated)
O=C([O-])/C(=C\c1ccc([O-])c(O)c1)C(=O)c1ccc([O-])cc1[O-] (cis-trans isomerization)
O=C([O-])/C(=C\c1ccc([O-])c(O)c1)C(=O)c1ccc([O-])cc1[O-] (3D coordinates assigned)
O=C([O-])/C(=C\c1ccc([O-])c(O)c1)C(=O)c1ccc([O-])cc1[O-] (optimized conformer: 49.98186543178216 kcal/mol)

>  <smiles>  (2) 
O=C(O)C(=Cc1ccc(O)c(O)c1)C(=O)c1ccc(O)cc1O

>  <score_type>  (2) 
oracle

>  <origin>  (2) 
adg

>  <m_score__min__energy>  (2) 
-15.44

>  <m_primary>  (2) 
energy

$$$$
2:0
     RDKit          3D

 49 51  0  0  0  0  0  0  0  0999 V2000
   59.2640   34.3320   45.9220 C   0  0  0  0  0  0  0  0  0  0  0  0
   58.5920   33.0960   45.4040 C   0  0  0  0  0  0  0  0  0  0  0  0
   58.0610   33.0690   44.1050 C   0  0  0  0  0  0  0  0  0  0  0  0
   57.4030   31.9280   43.6350 C   0  0  0  0  0  0  0  0  0  0  0  0
   57.2540   30.8080   44.4660 C   0  0  0  0  0  0  0  0  0  0  0  0
   56.4390   29.3610   43.8830 S   0  0  0  0  0  0  0  0  0  0  0  0
   55.2580   29.7670   43.0450 O   0  0  0  0  0  0  0  0  0  0  0  0
   57.3850   28.5440   43.0460 O   0  0  0  0  0  0  0  0  0  0  0  0
   55.9100   28.4320   45.2460 N   0  0  0  0  0  0  0  0  0  0  0  0
   56.6410   27.3540   45.8460 C   0  0  0  0  0  0  0  0  0  0  0  0
   56.1720   26.0470   45.6670 C   0  0  0  0  0  0  0  0  0  0  0  0
   56.8470   24.9690   46.2420 C   0  0  0  0  0  0  0  0  0  0  0  0
   58.0090   25.1850   46.9860 C   0  0  0  0  0  0  0  0  0  0  0  0
   58.5020   26.4890   47.1630 C   0  0  0  0  0  0  0  0  0  0  0  0
   59.6970   26.7460   47.9960 C   0  0  0  0  0  0  0  0  0  0  0  0
   60.5320   27.7840   47.8350 C   0  0  0  0  0  0  0  0  0  0  0  0
   60.1640   29.1960   48.0460 C   0  0  0  0  0  0  0  0  0  0  0  0
   60.5990   30.0630   47.2410 O   0  0  0  0  0  0  0  0  0  0  0  0
   59.3930   29.5950   49.1900 N   0  0  0  0  0  0  0  0  0  0  0  0
   58.9010   30.9590   49.3680 C   0  0  0  0  0  0  0  0  0  0  0  0
   58.0860   31.0470   50.6230 C   0  0  0  0  0  0  0  0  0  0  0  0
   57.7720   32.2930   51.1860 C   0  0  0  0  0  0  0  0  0  0  0  0
   57.0360   32.3410   52.3720 C   0  0  0  0  0  0  0  0  0  0  0  0
   56.6380   31.1560   52.9910 C   0  0  0  0  0  0  0  0  0  0  0  0
   56.9830   29.9330   52.4110 C   0  0  0  0  0  0  0  0  0  0  0  0
   57.6950   29.9050   51.2530 N   0  0  0  0  0  0  0  0  0  0  0  0
   57.8020   27.5720   46.6100 C   0  0  0  0  0  0  0  0  0  0  0  0
   57.7740   30.8370   45.7670 C   0  0  0  0  0  0  0  0  0  0  0  0
   58.4320   31.9780   46.2370 C   0  0  0  0  0  0  0  0  0  0  0  0
   59.2572   34.3195   47.0219 H   0  0  0  0  0  0  0  0  0  0  0  0
   60.3030   34.3627   45.5621 H   0  0  0  0  0  0  0  0  0  0  0  0
   58.7249   35.2207   45.5621 H   0  0  0  0  0  0  0  0  0  0  0  0
   58.1629   33.9495   43.4536 H   0  0  0  0  0  0  0  0  0  0  0  0
   57.0013   31.9089   42.6111 H   0  0  0  0  0  0  0  0  0  0  0  0
   55.2659   25.8685   45.0695 H   0  0  0  0  0  0  0  0  0  0  0  0
   56.4628   23.9469   46.1088 H   0  0  0  0  0  0  0  0  0  0  0  0
   58.5397   24.3323   47.4346 H   0  0  0  0  0  0  0  0  0  0  0  0
   59.9170   26.0349   48.8059 H   0  0  0  0  0  0  0  0  0  0  0  0
   61.5642   27.5660   47.5235 H   0  0  0  0  0  0  0  0  0  0  0  0
   59.1980   28.8990   49.9440 H   0  0  0  0  0  0  0  0  0  0  0  0
   59.7551   31.6486   49.4385 H   0  0  0  0  0  0  0  0  0  0  0  0
   58.2725   31.2327   48.5078 H   0  0  0  0  0  0  0  0  0  0  0  0
   58.1019   33.2223   50.6986 H   0  0  0  0  0  0  0  0  0  0  0  0
   56.7707   33.3113   52.8171 H   0  0  0  0  0  0  0  0  0  0  0  0
   56.0588   31.1843   53.9257 H   0  0  0  0  0  0  0  0  0  0  0  0
   56.6784   28.9916   52.8916 H   0  0  0  0  0  0  0  0  0  0  0  0
   58.1632   28.5978   46.7749 H   0  0  0  0  0  0  0  0  0  0  0  0
   57.6642   29.9592   46.4208 H   0  0  0  0  0  0  0  0  0  0  0  0
   58.8258   31.9992   47.2639 H   0  0  0  0  0  0  0  0  0  0  0  0
  1  2  1  0
  2  3  2  0
  3  4  1  0
  4  5  2  0
  5  6  1  0
  6  7  2  0
  6  8  2  0
  6  9  1  0
  9 10  1  0
 10 11  2  0
 11 12  1  0
 12 13  2  0
 13 14  1  0
 14 15  1  0
 15 16  2  3
 16 17  1  0
 17 18  2  0
 17 19  1  0
 19 20  1  0
 20 21  1  0
 21 22  2  0
 22 23  1  0
 23 24  2  0
 24 25  1  0
 25 26  2  0
 14 27  2  0
  5 28  1  0
 28 29  2  0
 29  2  1  0
 27 10  1  0
 26 21  1  0
  1 30  1  0
  1 31  1  0
  1 32  1  0
  3 33  1  0
  4 34  1  0
 11 35  1  0
 12 36  1  0
 13 37  1  0
 15 38  1  0
 16 39  1  0
 19 40  1  0
 20 41  1  0
 20 42  1  0
 22 43  1  0
 23 44  1  0
 24 45  1  0
 25 46  1  0
 27 47  1  0
 28 48  1  0
 29 49  1  0
M  CHG  1   9  -1
M  END
>  <UniqueID>  (3) 
3

>  <SMILES>  (3) 
Cc1ccc(S(=O)(=O)[N-]c2cccc(C=CC(=O)NCc3ccccn3)c2)cc1

>  <Energy>  (3) 
58.2947891518546

>  <Genealogy>  (3) 
Cc1ccc(S(=O)(=O)[N-]c2cccc(C=CC(=O)NCc3ccccn3)c2)cc1 (protonated)
Cc1ccc(S(=O)(=O)[N-]c2cccc(C=CC(=O)NCc3ccccn3)c2)cc1 (3D coordinates assigned)
Cc1ccc(S(=O)(=O)[N-]c2cccc(C=CC(=O)NCc3ccccn3)c2)cc1 (optimized conformer: 58.2947891518546 kcal/mol)

>  <smiles>  (3) 
Cc1ccc(S(=O)(=O)Nc2cccc(C=CC(=O)NCc3ccccn3)c2)cc1

>  <score_type>  (3) 
oracle

>  <origin>  (3) 
adg

>  <m_score__min__energy>  (3) 
-10.58

>  <m_primary>  (3) 
energy

$$$$
3:0
     RDKit          3D

 59 62  0  0  0  0  0  0  0  0999 V2000
   58.3920   25.6980   48.0300 O   0  0  0  0  0  0  0  0  0  0  0  0
   58.9470   26.5750   47.3180 C   0  0  0  0  0  0  0  0  0  0  0  0
   58.5530   26.7050   45.9030 C   0  0  0  0  0  0  0  0  0  0  0  0
   57.5080   27.4200   45.4640 C   0  0  0  0  0  0  0  0  0  0  0  0
   57.5540   28.8560   45.1180 C   0  0  0  0  0  0  0  0  0  0  0  0
   58.7880   29.5190   45.1310 C   0  0  0  0  0  0  0  0  0  0  0  0
   58.8670   30.8760   44.8040 C   0  0  0  0  0  0  0  0  0  0  0  0
   57.7030   31.6030   44.4800 C   0  0  0  0  0  0  0  0  0  0  0  0
   57.7310   33.0420   44.1150 C   0  0  0  0  0  0  0  0  0  0  0  0
   58.2270   34.0050   44.9030 C   0  0  0  0  0  0  0  0  0  0  0  0
   58.5250   33.7710   46.3260 C   0  0  0  0  0  0  0  0  0  0  0  0
   57.5680   33.8030   47.1440 O   0  0  0  0  0  0  0  0  0  0  0  0
   59.8680   33.5660   46.8080 N   0  0  0  0  0  0  0  0  0  0  0  0
   61.0710   33.8440   46.0370 C   0  0  0  0  0  0  0  0  0  0  0  0
   62.2390   33.5730   46.9770 C   0  0  0  0  0  0  0  0  0  0  0  0
   61.6460   33.5570   48.3840 C   0  0  0  0  0  0  0  0  0  0  0  0
   60.1580   33.2890   48.2070 C   0  0  0  0  0  0  0  0  0  0  0  0
   56.4670   30.9380   44.4850 C   0  0  0  0  0  0  0  0  0  0  0  0
   56.3840   29.5830   44.8190 C   0  0  0  0  0  0  0  0  0  0  0  0
   55.1360   28.9700   44.8670 O   0  0  0  0  0  0  0  0  0  0  0  0
   59.8800   27.4920   47.9020 N   0  0  0  0  0  0  0  0  0  0  0  0
   59.5630   28.5700   48.7920 C   0  0  0  0  0  0  0  0  0  0  0  0
   60.0120   28.5860   50.1240 C   0  0  0  0  0  0  0  0  0  0  0  0
   59.7140   29.6710   50.9550 C   0  0  0  0  0  0  0  0  0  0  0  0
   58.9750   30.7550   50.4610 C   0  0  0  0  0  0  0  0  0  0  0  0
   58.5780   32.1140   51.5100 S   0  0  0  0  0  0  0  0  0  0  0  0
   59.0030   33.3950   50.8430 O   0  0  0  0  0  0  0  0  0  0  0  0
   59.3070   31.9980   52.8190 O   0  0  0  0  0  0  0  0  0  0  0  0
   56.8670   32.1680   51.7940 N   0  0  0  0  0  0  0  0  0  0  0  0
   56.1460   31.1260   52.0760 C   0  0  0  0  0  0  0  0  0  0  0  0
   56.7240   29.9510   52.4480 N   0  0  0  0  0  0  0  0  0  0  0  0
   55.9710   28.8620   52.7500 C   0  0  0  0  0  0  0  0  0  0  0  0
   54.5800   28.9420   52.6880 C   0  0  0  0  0  0  0  0  0  0  0  0
   54.0010   30.1500   52.3030 C   0  0  0  0  0  0  0  0  0  0  0  0
   54.7910   31.2160   52.0070 N   0  0  0  0  0  0  0  0  0  0  0  0
   58.5410   30.7470   49.1290 C   0  0  0  0  0  0  0  0  0  0  0  0
   58.8460   29.6660   48.2960 C   0  0  0  0  0  0  0  0  0  0  0  0
   59.1608   26.1769   45.1536 H   0  0  0  0  0  0  0  0  0  0  0  0
   56.5452   26.8997   45.3530 H   0  0  0  0  0  0  0  0  0  0  0  0
   59.7012   28.9681   45.4004 H   0  0  0  0  0  0  0  0  0  0  0  0
   59.8445   31.3804   44.7994 H   0  0  0  0  0  0  0  0  0  0  0  0
   57.3193   33.3351   43.1380 H   0  0  0  0  0  0  0  0  0  0  0  0
   58.4173   35.0000   44.4744 H   0  0  0  0  0  0  0  0  0  0  0  0
   61.1245   33.1832   45.1593 H   0  0  0  0  0  0  0  0  0  0  0  0
   61.0829   34.8790   45.6648 H   0  0  0  0  0  0  0  0  0  0  0  0
   62.7002   32.6018   46.7447 H   0  0  0  0  0  0  0  0  0  0  0  0
   63.0243   34.3368   46.8774 H   0  0  0  0  0  0  0  0  0  0  0  0
   62.1092   32.7609   48.9853 H   0  0  0  0  0  0  0  0  0  0  0  0
   61.8255   34.5070   48.9086 H   0  0  0  0  0  0  0  0  0  0  0  0
   59.9268   32.2404   48.4456 H   0  0  0  0  0  0  0  0  0  0  0  0
   59.5516   33.9156   48.8776 H   0  0  0  0  0  0  0  0  0  0  0  0
   55.5522   31.4898   44.2229 H   0  0  0  0  0  0  0  0  0  0  0  0
   60.5999   27.7421   50.5143 H   0  0  0  0  0  0  0  0  0  0  0  0
   60.0605   29.6737   51.9990 H   0  0  0  0  0  0  0  0  0  0  0  0
   56.4568   27.9195   53.0427 H   0  0  0  0  0  0  0  0  0  0  0  0
   53.9545   28.0721   52.9371 H   0  0  0  0  0  0  0  0  0  0  0  0
   52.9066   30.2406   52.2388 H   0  0  0  0  0  0  0  0  0  0  0  0
   57.9584   31.5938   48.7371 H   0  0  0  0  0  0  0  0  0  0  0  0
   58.5209   29.6766   47.2452 H   0  0  0  0  0  0  0  0  0  0  0  0
  1  2  2  0
  2  3  1  0
  3  4  2  3
  4  5  1  0
  5  6  2  0
  6  7  1  0
  7  8  2  0
  8  9  1  0
  9 10  2  3
 10 11  1  0
 11 12  2  0
 11 13  1  0
 13 14  1  0
 14 15  1  0
 15 16  1  0
 16 17  1  0
  8 18  1  0
 18 19  2  0
 19 20  1  0
  2 21  1  0
 21 22  1  0
 22 23  2  0
 23 24  1  0
 24 25  2  0
 25 26  1  0
 26 27  2  0
 26 28  2  0
 26 29  1  0
 29 30  2  3
 30 31  1  0
 31 32  2  0
 32 33  1  0
 33 34  2  0
 34 35  1  0
 25 36  1  0
 36 37  2  0
 19  5  1  0
 37 22  1  0
 17 13  1  0
 35 30  1  0
  3 38  1  0
  4 39  1  0
  6 40  1  0
  7 41  1  0
  9 42  1  0
 10 43  1  0
 14 44  1  0
 14 45  1  0
 15 46  1  0
 15 47  1  0
 16 48  1  0
 16 49  1  0
 17 50  1  0
 17 51  1  0
 18 52  1  0
 23 53  1  0
 24 54  1  0
 32 55  1  0
 33 56  1  0
 34 57  1  0
 36 58  1  0
 37 59  1  0
M  CHG  3  20  -1  21  -1  35  -1
M  END
>  <UniqueID>  (4) 
4

>  <SMILES>  (4) 
O=C(C=Cc1ccc(C=CC(=O)N2CCCC2)cc1[O-])[N-]c1ccc(S(=O)(=O)N=c2nccc[n-]2)cc1

>  <Energy>  (4) 
83.73919123623176

>  <Genealogy>  (4) 
O=C(C=Cc1ccc(C=CC(=O)N2CCCC2)cc1[O-])[N-]c1ccc(S(=O)(=O)N=c2nccc[n-]2)cc1 (protonated)
O=C(C=Cc1ccc(C=CC(=O)N2CCCC2)cc1[O-])[N-]c1ccc(S(=O)(=O)N=c2nccc[n-]2)cc1 (3D coordinates assigned)
O=C(C=Cc1ccc(C=CC(=O)N2CCCC2)cc1[O-])[N-]c1ccc(S(=O)(=O)N=c2nccc[n-]2)cc1 (nonaromatic ring conformer: 83.73919123623176 kcal/mol)

>  <smiles>  (4) 
O=C(C=Cc1ccc(C=CC(=O)N2CCCC2)cc1O)Nc1ccc(S(=O)(=O)N=c2nccc[nH]2)cc1

>  <score_type>  (4) 
oracle

>  <origin>  (4) 
adg

>  <m_score__min__energy>  (4) 
-15.27

>  <m_primary>  (4) 
energy

$$$$
4:0
     RDKit          3D

 57 59  0  0  0  0  0  0  0  0999 V2000
   60.1542   35.9560   45.6067 H   0  0  0  0  0  0  0  0  0  0  0  0
   59.5610   35.0480   45.7900 C   0  0  0  0  0  0  0  0  0  0  0  0
   58.8000   34.5220   44.7930 N   0  0  0  0  0  0  0  0  0  0  0  0
   58.0340   33.4130   44.9740 C   0  0  0  0  0  0  0  0  0  0  0  0
   57.3970   32.9180   43.9500 N   0  0  0  0  0  0  0  0  0  0  0  0
   57.6710   31.6400   43.3530 C   0  0  0  0  0  0  0  0  0  0  0  0
   58.1560   31.5890   42.1900 O   0  0  0  0  0  0  0  0  0  0  0  0
   57.3270   30.3970   44.0760 C   0  0  0  0  0  0  0  0  0  0  0  0
   55.9920   29.9810   44.1990 C   0  0  0  0  0  0  0  0  0  0  0  0
   55.1922   30.5491   43.7015 H   0  0  0  0  0  0  0  0  0  0  0  0
   55.6850   28.8770   44.9320 N   0  0  0  0  0  0  0  0  0  0  0  0
   56.6420   28.1320   45.5600 C   0  0  0  0  0  0  0  0  0  0  0  0
   56.3280   27.0690   46.2420 N   0  0  0  0  0  0  0  0  0  0  0  0
   56.3040   25.7210   45.7510 C   0  0  0  0  0  0  0  0  0  0  0  0
   55.6060   24.8690   46.3620 O   0  0  0  0  0  0  0  0  0  0  0  0
   56.9630   25.3680   44.5220 N   0  0  0  0  0  0  0  0  0  0  0  0
   57.1840   26.1360   43.8460 H   0  0  0  0  0  0  0  0  0  0  0  0
   57.1200   24.0150   44.0640 C   0  0  0  0  0  0  0  0  0  0  0  0
   58.1370   23.1850   44.5660 C   0  0  0  0  0  0  0  0  0  0  0  0
   58.8381   23.5730   45.3196 H   0  0  0  0  0  0  0  0  0  0  0  0
   58.2620   21.8680   44.1120 C   0  0  0  0  0  0  0  0  0  0  0  0
   59.0534   21.2201   44.5169 H   0  0  0  0  0  0  0  0  0  0  0  0
   57.3840   21.3750   43.1460 C   0  0  0  0  0  0  0  0  0  0  0  0
   57.4772   20.3362   42.7964 H   0  0  0  0  0  0  0  0  0  0  0  0
   56.3860   22.2020   42.6230 C   0  0  0  0  0  0  0  0  0  0  0  0
   55.6954   21.8132   41.8602 H   0  0  0  0  0  0  0  0  0  0  0  0
   56.2630   23.5230   43.0670 C   0  0  0  0  0  0  0  0  0  0  0  0
   55.4927   24.1779   42.6337 H   0  0  0  0  0  0  0  0  0  0  0  0
   57.9860   28.4940   45.4370 C   0  0  0  0  0  0  0  0  0  0  0  0
   58.7701   27.8858   45.9116 H   0  0  0  0  0  0  0  0  0  0  0  0
   58.3250   29.6350   44.7060 C   0  0  0  0  0  0  0  0  0  0  0  0
   59.3791   29.9385   44.6232 H   0  0  0  0  0  0  0  0  0  0  0  0
   58.0070   32.7990   46.2440 C   0  0  0  0  0  0  0  0  0  0  0  0
   57.3628   31.9247   46.4190 H   0  0  0  0  0  0  0  0  0  0  0  0
   58.8020   33.3040   47.2830 C   0  0  0  0  0  0  0  0  0  0  0  0
   58.8650   32.5870   48.6040 C   0  0  0  0  0  0  0  0  0  0  0  0
   57.8557   32.2507   48.8837 H   0  0  0  0  0  0  0  0  0  0  0  0
   59.2561   33.2748   49.3682 H   0  0  0  0  0  0  0  0  0  0  0  0
   59.7500   31.4290   48.5060 N   0  0  0  0  0  0  0  0  0  0  0  0
   61.0050   31.4380   47.8150 C   0  0  0  0  0  0  0  0  0  0  0  0
   61.0640   31.1030   46.6020 O   0  0  0  0  0  0  0  0  0  0  0  0
   62.1550   31.8230   48.5190 O   0  0  0  0  0  0  0  0  0  0  0  0
   62.8920   33.0420   48.3310 C   0  0  0  0  0  0  0  0  0  0  0  0
   62.9350   33.4230   46.8360 C   0  0  0  0  0  0  0  0  0  0  0  0
   63.0579   34.5118   46.7385 H   0  0  0  0  0  0  0  0  0  0  0  0
   63.7814   32.9137   46.3520 H   0  0  0  0  0  0  0  0  0  0  0  0
   61.9964   33.1151   46.3520 H   0  0  0  0  0  0  0  0  0  0  0  0
   62.1450   34.1370   49.1070 C   0  0  0  0  0  0  0  0  0  0  0  0
   62.2620   33.9656   50.1872 H   0  0  0  0  0  0  0  0  0  0  0  0
   62.5610   35.1210   48.8447 H   0  0  0  0  0  0  0  0  0  0  0  0
   61.0771   34.1087   48.8447 H   0  0  0  0  0  0  0  0  0  0  0  0
   64.3210   32.9140   48.8960 C   0  0  0  0  0  0  0  0  0  0  0  0
   64.2823   32.9175   49.9953 H   0  0  0  0  0  0  0  0  0  0  0  0
   64.7699   31.9720   48.5479 H   0  0  0  0  0  0  0  0  0  0  0  0
   64.9302   33.7612   48.5479 H   0  0  0  0  0  0  0  0  0  0  0  0
   59.5910   34.4380   47.0460 C   0  0  0  0  0  0  0  0  0  0  0  0
   60.2296   34.8448   47.8440 H   0  0  0  0  0  0  0  0  0  0  0  0
  1  2  1  0
  2  3  1  0
  3  4  1  0
  4  5  2  0
  5  6  1  0
  6  7  2  0
  6  8  1  0
  8  9  2  0
  9 10  1  0
  9 11  1  0
 11 12  1  0
 12 13  2  3
 13 14  1  0
 14 15  2  0
 14 16  1  0
 16 17  1  0
 16 18  1  0
 18 19  2  0
 19 20  1  0
 19 21  1  0
 21 22  1  0
 21 23  2  0
 23 24  1  0
 23 25  1  0
 25 26  1  0
 25 27  2  0
 27 28  1  0
 12 29  1  0
 29 30  1  0
 29 31  2  0
 31 32  1  0
  4 33  1  0
 33 34  1  0
 33 35  2  0
 35 36  1  0
 36 37  1  0
 36 38  1  0
 36 39  1  0
 39 40  1  0
 40 41  2  0
 40 42  1  0
 42 43  1  0
 43 44  1  0
 44 45  1  0
 44 46  1  0
 44 47  1  0
 43 48  1  0
 48 49  1  0
 48 50  1  0
 48 51  1  0
 43 52  1  0
 52 53  1  0
 52 54  1  0
 52 55  1  0
 35 56  1  0
 56 57  1  0
 56  2  2  0
 31  8  1  0
 27 18  1  0
M  CHG  3   3  -1  11  -1  39  -1
M  END
>  <UniqueID>  (5) 
5

>  <SMILES>  (5) 
CC(C)(C)OC(=O)[N-]Cc1cc[n-]/c(=N/C(=O)c2ccc(=NC(=O)Nc3ccccc3)[n-]c2)c1

>  <Energy>  (5) 
70.48572922226239

>  <Genealogy>  (5) 
CC(C)(C)OC(=O)[N-]Cc1cc[n-]c(=NC(=O)c2ccc(=NC(=O)Nc3ccccc3)[n-]c2)c1 (protonated)
CC(C)(C)OC(=O)[N-]Cc1cc[n-]/c(=N/C(=O)c2ccc(=NC(=O)Nc3ccccc3)[n-]c2)c1 (cis-trans isomerization)
CC(C)(C)OC(=O)[N-]Cc1cc[n-]/c(=N/C(=O)c2ccc(=NC(=O)Nc3ccccc3)[n-]c2)c1 (3D coordinates assigned)
CC(C)(C)OC(=O)[N-]Cc1cc[n-]/c(=N/C(=O)c2ccc(=NC(=O)Nc3ccccc3)[n-]c2)c1 (optimized conformer: 70.48572922226239 kcal/mol)

>  <smiles>  (5) 
CC(C)(C)OC(=O)NCc1cc[nH]c(=NC(=O)c2ccc(=NC(=O)Nc3ccccc3)[nH]c2)c1

>  <score_type>  (5) 
oracle

>  <origin>  (5) 
adg

>  <m_score__min__energy>  (5) 
-13.66

>  <m_primary>  (5) 
energy

$$$$
5:0
     RDKit          3D

 61 64  0  0  0  0  0  0  0  0999 V2000
   58.5760   29.3200   44.1310 C   0  0  0  0  0  0  0  0  0  0  0  0
   57.5090   30.1470   45.2910 S   0  0  0  0  0  0  0  0  0  0  0  0
   56.0860   30.0180   44.8190 O   0  0  0  0  0  0  0  0  0  0  0  0
   57.6300   29.4890   46.6340 O   0  0  0  0  0  0  0  0  0  0  0  0
   57.9570   31.8410   45.4090 C   0  0  0  0  0  0  0  0  0  0  0  0
   57.0810   32.8370   44.9580 C   0  0  0  0  0  0  0  0  0  0  0  0
   57.4300   34.1840   45.0760 C   0  0  0  0  0  0  0  0  0  0  0  0
   58.6420   34.5440   45.6650 C   0  0  0  0  0  0  0  0  0  0  0  0
   59.5100   33.5630   46.1460 C   0  0  0  0  0  0  0  0  0  0  0  0
   60.7490   33.9650   46.7590 N   0  0  0  0  0  0  0  0  0  0  0  0
   61.0440   33.9070   48.1650 C   0  0  0  0  0  0  0  0  0  0  0  0
   60.9120   34.9530   48.8580 O   0  0  0  0  0  0  0  0  0  0  0  0
   61.4750   32.6450   48.8110 C   0  0  0  0  0  0  0  0  0  0  0  0
   62.7040   32.5830   49.4860 C   0  0  0  0  0  0  0  0  0  0  0  0
   63.0880   31.4110   50.1380 C   0  0  0  0  0  0  0  0  0  0  0  0
   62.2600   30.2890   50.1160 C   0  0  0  0  0  0  0  0  0  0  0  0
   62.6520   29.1720   50.7840 F   0  0  0  0  0  0  0  0  0  0  0  0
   61.0290   30.3370   49.4400 C   0  0  0  0  0  0  0  0  0  0  0  0
   59.9310   28.9550   49.4550 S   0  0  0  0  0  0  0  0  0  0  0  0
   59.8850   28.3650   50.8410 O   0  0  0  0  0  0  0  0  0  0  0  0
   58.5430   29.4210   49.0950 O   0  0  0  0  0  0  0  0  0  0  0  0
   60.4810   27.7460   48.3150 N   0  0  0  0  0  0  0  0  0  0  0  0
   59.8440   26.4350   48.5910 C   0  0  0  0  0  0  0  0  0  0  0  0
   58.6620   26.1500   47.6520 C   0  0  0  0  0  0  0  0  0  0  0  0
   59.0980   26.1430   46.2350 N   0  0  0  0  0  0  0  0  0  0  0  0
   57.9820   26.1430   45.2550 C   0  0  0  0  0  0  0  0  0  0  0  0
   56.9390   25.0610   45.4970 C   0  0  0  0  0  0  0  0  0  0  0  0
   55.5890   25.4140   45.7270 C   0  0  0  0  0  0  0  0  0  0  0  0
   55.1830   26.7050   45.6740 F   0  0  0  0  0  0  0  0  0  0  0  0
   54.6310   24.4250   45.9690 C   0  0  0  0  0  0  0  0  0  0  0  0
   54.9870   23.0810   45.9540 C   0  0  0  0  0  0  0  0  0  0  0  0
   56.3050   22.7180   45.6940 C   0  0  0  0  0  0  0  0  0  0  0  0
   57.2820   23.6910   45.4610 C   0  0  0  0  0  0  0  0  0  0  0  0
   58.9110   23.1320   45.1010 Cl  0  0  0  0  0  0  0  0  0  0  0  0
   60.2180   27.0700   45.9240 C   0  0  0  0  0  0  0  0  0  0  0  0
   60.2800   28.2340   46.9280 C   0  0  0  0  0  0  0  0  0  0  0  0
   60.6470   31.5130   48.7830 C   0  0  0  0  0  0  0  0  0  0  0  0
   59.1720   32.2070   45.9960 C   0  0  0  0  0  0  0  0  0  0  0  0
   59.3300   28.7356   44.6786 H   0  0  0  0  0  0  0  0  0  0  0  0
   57.9785   28.6468   43.4987 H   0  0  0  0  0  0  0  0  0  0  0  0
   59.0789   30.0665   43.4987 H   0  0  0  0  0  0  0  0  0  0  0  0
   56.1161   32.5574   44.5099 H   0  0  0  0  0  0  0  0  0  0  0  0
   56.7478   34.9625   44.7038 H   0  0  0  0  0  0  0  0  0  0  0  0
   58.9149   35.6062   45.7507 H   0  0  0  0  0  0  0  0  0  0  0  0
   63.3664   33.4611   49.5010 H   0  0  0  0  0  0  0  0  0  0  0  0
   64.0488   31.3716   50.6722 H   0  0  0  0  0  0  0  0  0  0  0  0
   60.5962   25.6426   48.4629 H   0  0  0  0  0  0  0  0  0  0  0  0
   59.4567   26.4599   49.6203 H   0  0  0  0  0  0  0  0  0  0  0  0
   58.2334   25.1681   47.9012 H   0  0  0  0  0  0  0  0  0  0  0  0
   57.9112   26.9431   47.7834 H   0  0  0  0  0  0  0  0  0  0  0  0
   57.4814   27.1214   45.3022 H   0  0  0  0  0  0  0  0  0  0  0  0
   58.4265   25.9388   44.2698 H   0  0  0  0  0  0  0  0  0  0  0  0
   53.5888   24.7120   46.1726 H   0  0  0  0  0  0  0  0  0  0  0  0
   54.2293   22.3073   46.1470 H   0  0  0  0  0  0  0  0  0  0  0  0
   56.5815   21.6535   45.6715 H   0  0  0  0  0  0  0  0  0  0  0  0
   61.1654   26.5124   45.9639 H   0  0  0  0  0  0  0  0  0  0  0  0
   60.0523   27.4879   44.9200 H   0  0  0  0  0  0  0  0  0  0  0  0
   61.1161   28.8954   46.6572 H   0  0  0  0  0  0  0  0  0  0  0  0
   59.3234   28.7755   46.8880 H   0  0  0  0  0  0  0  0  0  0  0  0
   59.6906   31.5495   48.2409 H   0  0  0  0  0  0  0  0  0  0  0  0
   59.8678   31.4288   46.3426 H   0  0  0  0  0  0  0  0  0  0  0  0
  1  2  1  0
  2  3  2  0
  2  4  2  0
  2  5  1  0
  5  6  2  0
  6  7  1  0
  7  8  2  0
  8  9  1  0
  9 10  1  0
 10 11  1  0
 11 12  2  0
 11 13  1  0
 13 14  2  0
 14 15  1  0
 15 16  2  0
 16 17  1  0
 16 18  1  0
 18 19  1  0
 19 20  2  0
 19 21  2  0
 19 22  1  0
 22 23  1  0
 23 24  1  0
 24 25  1  0
 25 26  1  0
 26 27  1  0
 27 28  2  0
 28 29  1  0
 28 30  1  0
 30 31  2  0
 31 32  1  0
 32 33  2  0
 33 34  1  0
 25 35  1  0
 35 36  1  0
 18 37  2  0
  9 38  2  0
 38  5  1  0
 37 13  1  0
 36 22  1  0
 33 27  1  0
  1 39  1  0
  1 40  1  0
  1 41  1  0
  6 42  1  0
  7 43  1  0
  8 44  1  0
 14 45  1  0
 15 46  1  0
 23 47  1  0
 23 48  1  0
 24 49  1  0
 24 50  1  0
 26 51  1  0
 26 52  1  0
 30 53  1  0
 31 54  1  0
 32 55  1  0
 35 56  1  0
 35 57  1  0
 36 58  1  0
 36 59  1  0
 37 60  1  0
 38 61  1  0
M  CHG  1  10  -1
M  END
>  <UniqueID>  (6) 
6

>  <SMILES>  (6) 
CS(=O)(=O)c1cccc([N-]C(=O)c2ccc(F)c(S(=O)(=O)N3CCN(Cc4c(F)cccc4Cl)CC3)c2)c1

>  <Energy>  (6) 
83.78028207638341

>  <Genealogy>  (6) 
CS(=O)(=O)c1cccc([N-]C(=O)c2ccc(F)c(S(=O)(=O)N3CCN(Cc4c(F)cccc4Cl)CC3)c2)c1 (protonated)
CS(=O)(=O)c1cccc([N-]C(=O)c2ccc(F)c(S(=O)(=O)N3CCN(Cc4c(F)cccc4Cl)CC3)c2)c1 (3D coordinates assigned)
CS(=O)(=O)c1cccc([N-]C(=O)c2ccc(F)c(S(=O)(=O)N3CCN(Cc4c(F)cccc4Cl)CC3)c2)c1 (nonaromatic ring conformer: 83.78028207638341 kcal/mol)

>  <smiles>  (6) 
CS(=O)(=O)c1cccc(NC(=O)c2ccc(F)c(S(=O)(=O)N3CCN(Cc4c(F)cccc4Cl)CC3)c2)c1

>  <score_type>  (6) 
oracle

>  <origin>  (6) 
adg

>  <m_score__min__energy>  (6) 
-12.17

>  <m_primary>  (6) 
energy

$$$$
6:0
     RDKit          3D

 45 48  0  0  0  0  0  0  0  0999 V2000
   61.1480   30.3690   49.1750 H   0  0  0  0  0  0  0  0  0  0  0  0
   61.1510   29.3240   49.2220 N   0  0  0  0  0  0  0  0  0  0  0  0
   60.3630   28.5770   48.5140 C   0  0  0  0  0  0  0  0  0  0  0  0
   60.4400   27.2280   48.6530 N   0  0  0  0  0  0  0  0  0  0  0  0
   59.6450   26.3780   47.9520 C   0  0  0  0  0  0  0  0  0  0  0  0
   59.7415   25.2920   48.0981 H   0  0  0  0  0  0  0  0  0  0  0  0
   58.7020   26.8790   47.0430 C   0  0  0  0  0  0  0  0  0  0  0  0
   57.8160   25.9650   46.2770 C   0  0  0  0  0  0  0  0  0  0  0  0
   58.3480   25.1530   45.2360 C   0  0  0  0  0  0  0  0  0  0  0  0
   59.4204   25.2096   44.9976 H   0  0  0  0  0  0  0  0  0  0  0  0
   57.5200   24.2790   44.5080 C   0  0  0  0  0  0  0  0  0  0  0  0
   57.9252   23.6485   43.7029 H   0  0  0  0  0  0  0  0  0  0  0  0
   56.1710   24.2410   44.8430 C   0  0  0  0  0  0  0  0  0  0  0  0
   55.6470   25.0130   45.8370 C   0  0  0  0  0  0  0  0  0  0  0  0
   54.3270   24.7870   45.9640 N   0  0  0  0  0  0  0  0  0  0  0  0
   54.1010   23.8530   45.0040 C   0  0  0  0  0  0  0  0  0  0  0  0
   52.9630   23.3610   44.7880 O   0  0  0  0  0  0  0  0  0  0  0  0
   55.2010   23.4950   44.3010 N   0  0  0  0  0  0  0  0  0  0  0  0
   55.2750   22.8020   43.5230 H   0  0  0  0  0  0  0  0  0  0  0  0
   56.4340   25.8900   46.5790 C   0  0  0  0  0  0  0  0  0  0  0  0
   55.9951   26.5070   47.3769 H   0  0  0  0  0  0  0  0  0  0  0  0
   58.6120   28.2680   46.8760 C   0  0  0  0  0  0  0  0  0  0  0  0
   57.8903   28.6834   46.1573 H   0  0  0  0  0  0  0  0  0  0  0  0
   59.4340   29.1370   47.6170 C   0  0  0  0  0  0  0  0  0  0  0  0
   59.3470   30.5360   47.4900 O   0  0  0  0  0  0  0  0  0  0  0  0
   58.1520   31.2670   47.2010 C   0  0  0  0  0  0  0  0  0  0  0  0
   57.4465   30.6063   46.6759 H   0  0  0  0  0  0  0  0  0  0  0  0
   57.7235   31.6195   48.1508 H   0  0  0  0  0  0  0  0  0  0  0  0
   58.4390   32.4740   46.3300 C   0  0  0  0  0  0  0  0  0  0  0  0
   59.0770   33.5810   46.9220 C   0  0  0  0  0  0  0  0  0  0  0  0
   59.3537   33.5424   47.9859 H   0  0  0  0  0  0  0  0  0  0  0  0
   59.3630   34.7260   46.1780 C   0  0  0  0  0  0  0  0  0  0  0  0
   59.9640   35.7880   46.7700 F   0  0  0  0  0  0  0  0  0  0  0  0
   59.0350   34.7770   44.8270 C   0  0  0  0  0  0  0  0  0  0  0  0
   59.2508   35.6844   44.2438 H   0  0  0  0  0  0  0  0  0  0  0  0
   58.4330   33.6800   44.2100 C   0  0  0  0  0  0  0  0  0  0  0  0
   58.1859   33.7273   43.1392 H   0  0  0  0  0  0  0  0  0  0  0  0
   58.1380   32.5140   44.9400 C   0  0  0  0  0  0  0  0  0  0  0  0
   57.4330   31.1380   44.0650 S   0  0  0  0  0  0  0  0  0  0  0  0
   56.0910   30.7850   44.6410 O   0  0  0  0  0  0  0  0  0  0  0  0
   57.2430   31.4950   42.6170 O   0  0  0  0  0  0  0  0  0  0  0  0
   58.5240   29.7320   44.1380 C   0  0  0  0  0  0  0  0  0  0  0  0
   58.7225   29.4761   45.1892 H   0  0  0  0  0  0  0  0  0  0  0  0
   58.0520   28.8752   43.6349 H   0  0  0  0  0  0  0  0  0  0  0  0
   59.4712   29.9764   43.6349 H   0  0  0  0  0  0  0  0  0  0  0  0
  1  2  1  0
  2  3  2  0
  3  4  1  0
  4  5  1  0
  5  6  1  0
  5  7  2  0
  7  8  1  0
  8  9  2  0
  9 10  1  0
  9 11  1  0
 11 12  1  0
 11 13  2  0
 13 14  1  0
 14 15  1  0
 15 16  1  0
 16 17  2  0
 16 18  1  0
 18 19  1  0
 14 20  2  0
 20 21  1  0
  7 22  1  0
 22 23  1  0
 22 24  2  0
 24 25  1  0
 25 26  1  0
 26 27  1  0
 26 28  1  0
 26 29  1  0
 29 30  2  0
 30 31  1  0
 30 32  1  0
 32 33  1  0
 32 34  2  0
 34 35  1  0
 34 36  1  0
 36 37  1  0
 36 38  2  0
 38 39  1  0
 39 40  2  0
 39 41  2  0
 39 42  1  0
 42 43  1  0
 42 44  1  0
 42 45  1  0
 24  3  1  0
 38 29  1  0
 20  8  1  0
 18 13  1  0
M  CHG  2   4  -1  15  -1
M  END
>  <UniqueID>  (7) 
7

>  <SMILES>  (7) 
[H]/N=c1/[n-]cc(-c2ccc3[nH]c(=O)[n-]c3c2)cc1OCc1cc(F)ccc1S(C)(=O)=O

>  <Energy>  (7) 
93.39282269674646

>  <Genealogy>  (7) 
CS(=O)(=O)c1ccc(F)cc1COc1cc(-c2ccc3[nH]c(=O)[n-]c3c2)c[n-]c1=N (protonated)
[H]/N=c1/[n-]cc(-c2ccc3[nH]c(=O)[n-]c3c2)cc1OCc1cc(F)ccc1S(C)(=O)=O (cis-trans isomerization)
[H]/N=c1/[n-]cc(-c2ccc3[nH]c(=O)[n-]c3c2)cc1OCc1cc(F)ccc1S(C)(=O)=O (3D coordinates assigned)
[H]/N=c1/[n-]cc(-c2ccc3[nH]c(=O)[n-]c3c2)cc1OCc1cc(F)ccc1S(C)(=O)=O (optimized conformer: 93.39282269674646 kcal/mol)

>  <smiles>  (7) 
CS(=O)(=O)c1ccc(F)cc1COc1cc(-c2ccc3[nH]c(=O)[nH]c3c2)c[nH]c1=N

>  <score_type>  (7) 
oracle

>  <origin>  (7) 
adg

>  <m_score__min__energy>  (7) 
-11.09

>  <m_primary>  (7) 
energy

$$$$
7:0
     RDKit          3D

 38 40  0  0  0  0  0  0  0  0999 V2000
   60.3280   29.5850   47.3930 H   0  0  0  0  0  0  0  0  0  0  0  0
   59.7400   30.2760   47.8420 O   0  0  0  0  0  0  0  0  0  0  0  0
   59.8170   31.6280   47.5060 C   0  0  0  0  0  0  0  0  0  0  0  0
   58.8720   32.1900   46.7020 C   0  0  0  0  0  0  0  0  0  0  0  0
   58.4700   33.5230   46.9640 C   0  0  0  0  0  0  0  0  0  0  0  0
   58.7073   33.9782   47.9369 H   0  0  0  0  0  0  0  0  0  0  0  0
   57.7800   34.2660   46.0110 C   0  0  0  0  0  0  0  0  0  0  0  0
   57.4748   35.2986   46.2360 H   0  0  0  0  0  0  0  0  0  0  0  0
   57.4760   33.7080   44.7780 C   0  0  0  0  0  0  0  0  0  0  0  0
   56.9910   34.3205   44.0037 H   0  0  0  0  0  0  0  0  0  0  0  0
   57.7830   32.3740   44.5170 C   0  0  0  0  0  0  0  0  0  0  0  0
   57.5410   31.9454   43.5333 H   0  0  0  0  0  0  0  0  0  0  0  0
   58.4010   31.5620   45.4970 C   0  0  0  0  0  0  0  0  0  0  0  0
   58.4070   30.2110   45.3120 C   0  0  0  0  0  0  0  0  0  0  0  0
   59.5530   29.3160   45.0870 C   0  0  0  0  0  0  0  0  0  0  0  0
   60.7640   29.5930   45.2940 O   0  0  0  0  0  0  0  0  0  0  0  0
   59.0710   27.9920   44.7090 C   0  0  0  0  0  0  0  0  0  0  0  0
   59.7075   27.1214   44.4926 H   0  0  0  0  0  0  0  0  0  0  0  0
   57.7450   28.0020   44.6670 C   0  0  0  0  0  0  0  0  0  0  0  0
   57.1092   27.1388   44.4208 H   0  0  0  0  0  0  0  0  0  0  0  0
   57.2630   29.3390   44.9990 C   0  0  0  0  0  0  0  0  0  0  0  0
   56.0640   29.7030   44.8750 O   0  0  0  0  0  0  0  0  0  0  0  0
   60.9510   32.3850   47.9740 N   0  0  0  0  0  0  0  0  0  0  0  0
   61.5190   33.4610   47.1630 C   0  0  0  0  0  0  0  0  0  0  0  0
   60.9003   33.6099   46.2657 H   0  0  0  0  0  0  0  0  0  0  0  0
   61.5417   34.3908   47.7504 H   0  0  0  0  0  0  0  0  0  0  0  0
   62.9460   33.0850   46.7440 C   0  0  0  0  0  0  0  0  0  0  0  0
   62.9037   32.2402   46.0408 H   0  0  0  0  0  0  0  0  0  0  0  0
   63.4135   33.9595   46.2679 H   0  0  0  0  0  0  0  0  0  0  0  0
   63.7540   32.6990   47.9120 N   0  0  0  0  0  0  0  0  0  0  0  0
   64.7070   32.4200   47.5830 H   0  0  0  0  0  0  0  0  0  0  0  0
   63.8570   33.5180   48.5570 H   0  0  0  0  0  0  0  0  0  0  0  0
   63.1540   31.5660   48.6370 C   0  0  0  0  0  0  0  0  0  0  0  0
   63.1065   30.6945   47.9675 H   0  0  0  0  0  0  0  0  0  0  0  0
   63.7764   31.3418   49.5158 H   0  0  0  0  0  0  0  0  0  0  0  0
   61.7390   31.9100   49.1140 C   0  0  0  0  0  0  0  0  0  0  0  0
   61.2659   31.0132   49.5407 H   0  0  0  0  0  0  0  0  0  0  0  0
   61.7878   32.6946   49.8834 H   0  0  0  0  0  0  0  0  0  0  0  0
  1  2  1  0
  2  3  1  0
  3  4  2  0
  4  5  1  0
  5  6  1  0
  5  7  2  0
  7  8  1  0
  7  9  1  0
  9 10  1  0
  9 11  2  0
 11 12  1  0
 11 13  1  0
 13 14  2  3
 14 15  1  0
 15 16  2  0
 15 17  1  0
 17 18  1  0
 17 19  2  0
 19 20  1  0
 19 21  1  0
 21 22  2  0
  3 23  1  0
 23 24  1  0
 24 25  1  0
 24 26  1  0
 24 27  1  0
 27 28  1  0
 27 29  1  0
 27 30  1  0
 30 31  1  0
 30 32  1  0
 30 33  1  0
 33 34  1  0
 33 35  1  0
 33 36  1  0
 36 37  1  0
 36 38  1  0
 13  4  1  0
 21 14  1  0
 36 23  1  0
M  CHG  1  30   1
M  END
>  <UniqueID>  (8) 
8

>  <SMILES>  (8) 
O=C1C=CC(=O)C1=c1cccc/c1=C(/O)N1CC[NH2+]CC1

>  <Energy>  (8) 
95.26735583370166

>  <Genealogy>  (8) 
O=C1C=CC(=O)C1=c1ccccc1=C(O)N1CC[NH2+]CC1 (protonated)
O=C1C=CC(=O)C1=c1cccc/c1=C(/O)N1CC[NH2+]CC1 (cis-trans isomerization)
O=C1C=CC(=O)C1=c1cccc/c1=C(/O)N1CC[NH2+]CC1 (3D coordinates assigned)
O=C1C=CC(=O)C1=c1cccc/c1=C(/O)N1CC[NH2+]CC1 (nonaromatic ring conformer: 95.26735583370166 kcal/mol)

>  <smiles>  (8) 
O=C1C=CC(=O)C1=c1ccccc1=C(O)N1CCNCC1

>  <score_type>  (8) 
oracle

>  <origin>  (8) 
adg

>  <m_score__min__energy>  (8) 
-5.8799999999999999

>  <m_primary>  (8) 
energy

$$$$
8:0
     RDKit          3D

 43 44  0  0  0  0  0  0  0  0999 V2000
   57.9710   27.4600   43.4530 C   0  0  0  0  0  0  0  0  0  0  0  0
   57.4880   28.1930   44.6270 N   0  0  0  0  0  0  0  0  0  0  0  0
   57.8280   27.7030   45.9720 C   0  0  0  0  0  0  0  0  0  0  0  0
   56.8590   26.6410   46.4090 C   0  0  0  0  0  0  0  0  0  0  0  0
   55.4870   26.7070   46.0200 N   0  0  0  0  0  0  0  0  0  0  0  0
   57.2520   25.7050   47.1540 O   0  0  0  0  0  0  0  0  0  0  0  0
   56.6730   29.3700   44.4270 C   0  0  0  0  0  0  0  0  0  0  0  0
   55.4840   29.3770   44.8490 O   0  0  0  0  0  0  0  0  0  0  0  0
   57.1860   30.5730   43.6700 C   0  0  0  0  0  0  0  0  0  0  0  0
   57.7130   31.6340   44.6020 C   0  0  0  0  0  0  0  0  0  0  0  0
   57.6830   32.9880   44.2360 C   0  0  0  0  0  0  0  0  0  0  0  0
   58.1650   33.9660   45.1110 C   0  0  0  0  0  0  0  0  0  0  0  0
   58.6720   33.6100   46.3660 C   0  0  0  0  0  0  0  0  0  0  0  0
   59.1410   34.6330   47.2070 O   0  0  0  0  0  0  0  0  0  0  0  0
   59.7720   34.4340   48.4710 C   0  0  0  0  0  0  0  0  0  0  0  0
   61.2130   34.0230   48.2940 C   0  0  0  0  0  0  0  0  0  0  0  0
   61.7320   33.8540   47.0000 C   0  0  0  0  0  0  0  0  0  0  0  0
   63.0610   33.4570   46.8180 C   0  0  0  0  0  0  0  0  0  0  0  0
   63.8780   33.2170   47.9240 C   0  0  0  0  0  0  0  0  0  0  0  0
   63.3670   33.3700   49.2160 C   0  0  0  0  0  0  0  0  0  0  0  0
   62.0390   33.7660   49.4060 C   0  0  0  0  0  0  0  0  0  0  0  0
   61.5640   33.8970   50.6700 F   0  0  0  0  0  0  0  0  0  0  0  0
   58.6970   32.2530   46.7360 C   0  0  0  0  0  0  0  0  0  0  0  0
   58.2180   31.2750   45.8610 C   0  0  0  0  0  0  0  0  0  0  0  0
   58.5488   26.5831   43.7804 H   0  0  0  0  0  0  0  0  0  0  0  0
   57.1133   27.1292   42.8488 H   0  0  0  0  0  0  0  0  0  0  0  0
   58.6133   28.1176   42.8488 H   0  0  0  0  0  0  0  0  0  0  0  0
   58.8438   27.2813   45.9570 H   0  0  0  0  0  0  0  0  0  0  0  0
   57.7752   28.5437   46.6794 H   0  0  0  0  0  0  0  0  0  0  0  0
   54.8110   25.9830   46.3550 H   0  0  0  0  0  0  0  0  0  0  0  0
   55.1390   27.4780   45.4080 H   0  0  0  0  0  0  0  0  0  0  0  0
   57.9968   30.2530   42.9990 H   0  0  0  0  0  0  0  0  0  0  0  0
   56.3491   31.0021   43.0996 H   0  0  0  0  0  0  0  0  0  0  0  0
   57.2784   33.2815   43.2561 H   0  0  0  0  0  0  0  0  0  0  0  0
   58.1456   35.0240   44.8106 H   0  0  0  0  0  0  0  0  0  0  0  0
   59.7327   35.3716   49.0449 H   0  0  0  0  0  0  0  0  0  0  0  0
   59.2412   33.6333   49.0069 H   0  0  0  0  0  0  0  0  0  0  0  0
   61.0902   34.0347   46.1251 H   0  0  0  0  0  0  0  0  0  0  0  0
   63.4629   33.3338   45.8015 H   0  0  0  0  0  0  0  0  0  0  0  0
   64.9236   32.9076   47.7789 H   0  0  0  0  0  0  0  0  0  0  0  0
   64.0116   33.1783   50.0865 H   0  0  0  0  0  0  0  0  0  0  0  0
   59.0955   31.9607   47.7187 H   0  0  0  0  0  0  0  0  0  0  0  0
   58.2368   30.2168   46.1609 H   0  0  0  0  0  0  0  0  0  0  0  0
  1  2  1  0
  2  3  1  0
  3  4  1  0
  4  5  1  0
  4  6  2  0
  2  7  1  0
  7  8  2  0
  7  9  1  0
  9 10  1  0
 10 11  2  0
 11 12  1  0
 12 13  2  0
 13 14  1  0
 14 15  1  0
 15 16  1  0
 16 17  2  0
 17 18  1  0
 18 19  2  0
 19 20  1  0
 20 21  2  0
 21 22  1  0
 13 23  1  0
 23 24  2  0
 24 10  1  0
 21 16  1  0
  1 25  1  0
  1 26  1  0
  1 27  1  0
  3 28  1  0
  3 29  1  0
  5 30  1  0
  5 31  1  0
  9 32  1  0
  9 33  1  0
 11 34  1  0
 12 35  1  0
 15 36  1  0
 15 37  1  0
 17 38  1  0
 18 39  1  0
 19 40  1  0
 20 41  1  0
 23 42  1  0
 24 43  1  0
M  END
>  <UniqueID>  (9) 
9

>  <SMILES>  (9) 
CN(CC(N)=O)C(=O)Cc1ccc(OCc2ccccc2F)cc1

>  <Energy>  (9) 
39.6349793018204

>  <Genealogy>  (9) 
CN(CC(N)=O)C(=O)Cc1ccc(OCc2ccccc2F)cc1 (3D coordinates assigned)
CN(CC(N)=O)C(=O)Cc1ccc(OCc2ccccc2F)cc1 (optimized conformer: 39.6349793018204 kcal/mol)

>  <smiles>  (9) 
CN(CC(N)=O)C(=O)Cc1ccc(OCc2ccccc2F)cc1

>  <score_type>  (9) 
oracle

>  <origin>  (9) 
adg

>  <m_score__min__energy>  (9) 
-8.8100000000000005

>  <m_primary>  (9) 
energy

$$$$
9:0
     RDKit          3D

 37 38  0  0  0  0  0  0  0  0999 V2000
   66.3490   32.3530   50.1010 C   0  0  0  0  0  0  0  0  0  0  0  0
   65.1420   33.2430   49.8320 C   0  0  0  0  0  0  0  0  0  0  0  0
   63.8810   32.4210   49.7360 C   0  0  0  0  0  0  0  0  0  0  0  0
   63.4230   31.5850   50.7610 C   0  0  0  0  0  0  0  0  0  0  0  0
   64.0370   31.4120   52.1130 C   0  0  0  0  0  0  0  0  0  0  0  0
   62.0100   30.8220   50.2560 S   0  0  0  0  0  0  0  0  0  0  0  0
   61.9760   31.5090   48.7180 C   0  0  0  0  0  0  0  0  0  0  0  0
   60.9580   31.3040   47.7240 N   0  0  0  0  0  0  0  0  0  0  0  0
   59.7210   32.0340   47.6810 C   0  0  0  0  0  0  0  0  0  0  0  0
   59.2900   32.6050   48.7200 O   0  0  0  0  0  0  0  0  0  0  0  0
   58.9090   32.0750   46.4430 C   0  0  0  0  0  0  0  0  0  0  0  0
   58.2830   30.9010   45.9830 C   0  0  0  0  0  0  0  0  0  0  0  0
   57.5090   30.9160   44.8150 C   0  0  0  0  0  0  0  0  0  0  0  0
   56.7540   29.4340   44.2360 S   0  0  0  0  0  0  0  0  0  0  0  0
   55.1390   29.3330   44.8420 N   0  0  0  0  0  0  0  0  0  0  0  0
   57.5420   28.2430   44.7050 O   0  0  0  0  0  0  0  0  0  0  0  0
   56.7260   29.4310   42.7330 O   0  0  0  0  0  0  0  0  0  0  0  0
   57.3620   32.1070   44.0950 C   0  0  0  0  0  0  0  0  0  0  0  0
   57.9650   33.2810   44.5510 C   0  0  0  0  0  0  0  0  0  0  0  0
   58.7310   33.2730   45.7210 C   0  0  0  0  0  0  0  0  0  0  0  0
   59.2580   34.4420   46.1630 F   0  0  0  0  0  0  0  0  0  0  0  0
   63.0670   32.3690   48.5850 C   0  0  0  0  0  0  0  0  0  0  0  0
   63.3340   33.1200   47.3830 C   0  0  0  0  0  0  0  0  0  0  0  0
   63.5490   33.7240   46.4200 N   0  0  0  0  0  0  0  0  0  0  0  0
   66.4921   32.2475   51.1865 H   0  0  0  0  0  0  0  0  0  0  0  0
   66.1801   31.3616   49.6553 H   0  0  0  0  0  0  0  0  0  0  0  0
   67.2462   32.8074   49.6553 H   0  0  0  0  0  0  0  0  0  0  0  0
   65.0383   33.9678   50.6529 H   0  0  0  0  0  0  0  0  0  0  0  0
   65.2955   33.7659   48.8765 H   0  0  0  0  0  0  0  0  0  0  0  0
   63.2848   31.6239   52.8871 H   0  0  0  0  0  0  0  0  0  0  0  0
   64.3954   30.3779   52.2233 H   0  0  0  0  0  0  0  0  0  0  0  0
   64.8826   32.1069   52.2233 H   0  0  0  0  0  0  0  0  0  0  0  0
   61.1090   30.5550   47.0120 H   0  0  0  0  0  0  0  0  0  0  0  0
   58.4025   29.9633   46.5456 H   0  0  0  0  0  0  0  0  0  0  0  0
   55.1490   28.6360   45.6200 H   0  0  0  0  0  0  0  0  0  0  0  0
   56.7702   32.1183   43.1679 H   0  0  0  0  0  0  0  0  0  0  0  0
   57.8369   34.2168   43.9871 H   0  0  0  0  0  0  0  0  0  0  0  0
  1  2  1  0
  2  3  1  0
  3  4  2  0
  4  5  1  0
  4  6  1  0
  6  7  1  0
  7  8  1  0
  8  9  1  0
  9 10  2  0
  9 11  1  0
 11 12  2  0
 12 13  1  0
 13 14  1  0
 14 15  1  0
 14 16  2  0
 14 17  2  0
 13 18  2  0
 18 19  1  0
 19 20  2  0
 20 21  1  0
  7 22  2  0
 22 23  1  0
 23 24  3  0
 22  3  1  0
 20 11  1  0
  1 25  1  0
  1 26  1  0
  1 27  1  0
  2 28  1  0
  2 29  1  0
  5 30  1  0
  5 31  1  0
  5 32  1  0
  8 33  1  0
 12 34  1  0
 15 35  1  0
 18 36  1  0
 19 37  1  0
M  CHG  1  15  -1
M  END
>  <UniqueID>  (10) 
10

>  <SMILES>  (10) 
CCc1c(C)sc(NC(=O)c2cc(S([NH-])(=O)=O)ccc2F)c1C#N

>  <Energy>  (10) 
63.99526278906498

>  <Genealogy>  (10) 
CCc1c(C)sc(NC(=O)c2cc(S([NH-])(=O)=O)ccc2F)c1C#N (protonated)
CCc1c(C)sc(NC(=O)c2cc(S([NH-])(=O)=O)ccc2F)c1C#N (3D coordinates assigned)
CCc1c(C)sc(NC(=O)c2cc(S([NH-])(=O)=O)ccc2F)c1C#N (optimized conformer: 63.99526278906498 kcal/mol)

>  <smiles>  (10) 
CCc1c(C)sc(NC(=O)c2cc(S(N)(=O)=O)ccc2F)c1C#N

>  <score_type>  (10) 
oracle

>  <origin>  (10) 
adg

>  <m_score__min__energy>  (10) 
-10.720000000000001

>  <m_primary>  (10) 
energy

$$$$
10:0
     RDKit          3D

 44 47  0  0  0  0  0  0  0  0999 V2000
   64.1870   33.4840   49.5070 C   0  0  0  0  0  0  0  0  0  0  0  0
   63.2920   33.1720   48.0000 S   0  0  0  0  0  0  0  0  0  0  0  0
   62.9250   31.7160   47.9510 O   0  0  0  0  0  0  0  0  0  0  0  0
   64.1450   33.4950   46.8070 O   0  0  0  0  0  0  0  0  0  0  0  0
   61.8350   34.1150   47.9600 N   0  0  0  0  0  0  0  0  0  0  0  0
   60.6990   33.8630   47.1220 C   0  0  0  0  0  0  0  0  0  0  0  0
   60.0020   34.9700   46.5790 C   0  0  0  0  0  0  0  0  0  0  0  0
   58.8820   34.7860   45.7470 C   0  0  0  0  0  0  0  0  0  0  0  0
   58.4820   33.4820   45.4710 C   0  0  0  0  0  0  0  0  0  0  0  0
   57.4400   33.0910   44.7020 N   0  0  0  0  0  0  0  0  0  0  0  0
   57.4700   31.7400   44.7460 C   0  0  0  0  0  0  0  0  0  0  0  0
   56.5990   30.8570   44.1130 C   0  0  0  0  0  0  0  0  0  0  0  0
   56.8100   29.4770   44.2940 C   0  0  0  0  0  0  0  0  0  0  0  0
   57.8780   29.0020   45.0960 C   0  0  0  0  0  0  0  0  0  0  0  0
   58.0420   27.5870   45.2510 N   0  0  0  0  0  0  0  0  0  0  0  0
   58.3510   26.7940   46.7610 S   0  0  0  0  0  0  0  0  0  0  0  0
   59.5680   25.9220   46.6240 O   0  0  0  0  0  0  0  0  0  0  0  0
   58.5940   27.8380   47.8150 O   0  0  0  0  0  0  0  0  0  0  0  0
   56.9810   25.8160   47.1770 N   0  0  0  0  0  0  0  0  0  0  0  0
   56.3170   24.8920   46.3050 C   0  0  0  0  0  0  0  0  0  0  0  0
   56.9320   23.6580   46.0600 C   0  0  0  0  0  0  0  0  0  0  0  0
   56.3370   22.7220   45.2110 C   0  0  0  0  0  0  0  0  0  0  0  0
   55.1160   23.0100   44.5990 C   0  0  0  0  0  0  0  0  0  0  0  0
   54.4780   24.2270   44.8530 C   0  0  0  0  0  0  0  0  0  0  0  0
   55.0630   25.1650   45.7130 C   0  0  0  0  0  0  0  0  0  0  0  0
   54.3720   26.3390   45.9890 O   0  0  0  0  0  0  0  0  0  0  0  0
   58.7500   29.9260   45.7200 C   0  0  0  0  0  0  0  0  0  0  0  0
   58.5080   31.2830   45.5270 C   0  0  0  0  0  0  0  0  0  0  0  0
   59.1570   32.4010   45.9950 C   0  0  0  0  0  0  0  0  0  0  0  0
   60.2640   32.5490   46.8280 C   0  0  0  0  0  0  0  0  0  0  0  0
   63.5424   33.2593   50.3695 H   0  0  0  0  0  0  0  0  0  0  0  0
   65.0815   32.8447   49.5413 H   0  0  0  0  0  0  0  0  0  0  0  0
   64.4902   34.5408   49.5413 H   0  0  0  0  0  0  0  0  0  0  0  0
   60.3416   35.9901   46.8114 H   0  0  0  0  0  0  0  0  0  0  0  0
   58.3396   35.6463   45.3278 H   0  0  0  0  0  0  0  0  0  0  0  0
   56.7650   33.6990   44.1870 H   0  0  0  0  0  0  0  0  0  0  0  0
   55.7710   31.2267   43.4903 H   0  0  0  0  0  0  0  0  0  0  0  0
   56.1365   28.7570   43.8061 H   0  0  0  0  0  0  0  0  0  0  0  0
   57.8931   23.4235   46.5409 H   0  0  0  0  0  0  0  0  0  0  0  0
   56.8311   21.7571   45.0245 H   0  0  0  0  0  0  0  0  0  0  0  0
   54.6563   22.2794   43.9172 H   0  0  0  0  0  0  0  0  0  0  0  0
   53.5123   24.4493   44.3755 H   0  0  0  0  0  0  0  0  0  0  0  0
   59.5925   29.5824   46.3381 H   0  0  0  0  0  0  0  0  0  0  0  0
   60.7830   31.6727   47.2437 H   0  0  0  0  0  0  0  0  0  0  0  0
  1  2  1  0
  2  3  2  0
  2  4  2  0
  2  5  1  0
  5  6  1  0
  6  7  2  0
  7  8  1  0
  8  9  2  0
  9 10  1  0
 10 11  1  0
 11 12  2  0
 12 13  1  0
 13 14  2  0
 14 15  1  0
 15 16  1  0
 16 17  2  0
 16 18  2  0
 16 19  1  0
 19 20  1  0
 20 21  2  0
 21 22  1  0
 22 23  2  0
 23 24  1  0
 24 25  2  0
 25 26  1  0
 14 27  1  0
 27 28  2  0
 28 29  1  0
 29 30  2  0
 30  6  1  0
 29  9  1  0
 28 11  1  0
 25 20  1  0
  1 31  1  0
  1 32  1  0
  1 33  1  0
  7 34  1  0
  8 35  1  0
 10 36  1  0
 12 37  1  0
 13 38  1  0
 21 39  1  0
 22 40  1  0
 23 41  1  0
 24 42  1  0
 27 43  1  0
 30 44  1  0
M  CHG  4   5  -1  15  -1  19  -1  26  -1
M  END
>  <UniqueID>  (11) 
11

>  <SMILES>  (11) 
CS(=O)(=O)[N-]c1ccc2[nH]c3ccc([N-]S(=O)(=O)[N-]c4ccccc4[O-])cc3c2c1

>  <Energy>  (11) 
94.70988162714009

>  <Genealogy>  (11) 
CS(=O)(=O)[N-]c1ccc2[nH]c3ccc([N-]S(=O)(=O)[N-]c4ccccc4[O-])cc3c2c1 (protonated)
CS(=O)(=O)[N-]c1ccc2[nH]c3ccc([N-]S(=O)(=O)[N-]c4ccccc4[O-])cc3c2c1 (3D coordinates assigned)
CS(=O)(=O)[N-]c1ccc2[nH]c3ccc([N-]S(=O)(=O)[N-]c4ccccc4[O-])cc3c2c1 (optimized conformer: 94.70988162714009 kcal/mol)

>  <smiles>  (11) 
CS(=O)(=O)Nc1ccc2[nH]c3ccc(NS(=O)(=O)Nc4ccccc4O)cc3c2c1

>  <score_type>  (11) 
oracle

>  <origin>  (11) 
adg

>  <m_score__min__energy>  (11) 
-17.539999999999999

>  <m_primary>  (11) 
energy

$$$$
11:0
     RDKit          3D

 58 61  0  0  1  0  0  0  0  0999 V2000
   62.4640   31.5380   47.1270 C   0  0  0  0  0  0  0  0  0  0  0  0
   61.3200   32.4630   47.4000 C   0  0  0  0  0  0  0  0  0  0  0  0
   61.4510   33.7560   46.9490 C   0  0  0  0  0  0  0  0  0  0  0  0
   60.4160   34.6370   47.1810 C   0  0  0  0  0  0  0  0  0  0  0  0
   58.4050   29.9090   52.0550 C   0  0  0  0  0  0  0  0  0  0  0  0
   59.3780   29.9070   51.0880 C   0  0  0  0  0  0  0  0  0  0  0  0
   60.3760   29.1130   51.1250 N   0  0  0  0  0  0  0  0  0  0  0  0
   58.2220   31.6290   50.0000 C   0  0  0  0  0  0  0  0  0  0  0  0
   59.2680   30.7770   50.0640 N   0  0  0  0  0  0  0  0  0  0  0  0
   59.2260   32.8580   48.2870 C   0  0  0  0  0  0  0  0  0  0  0  0
   58.1450   32.5290   48.9060 N   0  0  0  0  0  0  0  0  0  0  0  0
   60.5890   28.0790   50.1790 C   0  0  0  0  0  0  0  0  0  0  0  0
   61.2770   27.0940   50.5670 O   0  0  0  0  0  0  0  0  0  0  0  0
   60.0410   28.1760   48.8830 N   0  0  0  0  0  0  0  0  0  0  0  0
   60.2080   27.1330   47.8560 C   0  0  0  0  0  0  0  0  0  0  0  0
   58.9900   26.8940   47.0940 C   0  0  0  0  0  0  0  0  0  0  0  0
   58.5210   25.5710   47.0280 C   0  0  0  0  0  0  0  0  0  0  0  0
   57.3520   25.2410   46.3870 C   0  0  0  0  0  0  0  0  0  0  0  0
   56.6390   26.2400   45.8030 C   0  0  0  0  0  0  0  0  0  0  0  0
   57.0920   27.5240   45.8640 C   0  0  0  0  0  0  0  0  0  0  0  0
   58.2780   27.9110   46.5040 C   0  0  0  0  0  0  0  0  0  0  0  0
   58.7460   29.5580   46.4230 S   0  0  0  0  0  0  0  0  0  0  0  0
   60.2400   29.7470   46.6470 O   0  0  0  0  0  0  0  0  0  0  0  0
   58.1870   30.2480   47.6840 O   0  0  0  0  0  0  0  0  0  0  0  0
   58.2420   30.4900   45.1470 N   0  0  0  0  0  0  0  0  0  0  0  0
   57.6290   30.0390   43.9970 C   0  0  0  0  0  0  0  0  0  0  0  0
   57.4480   31.2890   43.1180 C   0  0  0  0  0  0  0  0  0  0  0  0
   58.0040   32.4330   43.9340 C   0  0  0  0  0  0  0  0  0  0  0  0
   57.9990   31.8720   45.3400 C   0  0  0  0  0  0  0  0  0  0  0  0
   59.3050   34.1760   47.8540 C   0  0  0  0  0  0  0  0  0  0  0  0
   58.4750   28.8210   53.4010 Cl  0  0  0  0  0  0  0  0  0  0  0  0
   57.3460   30.7840   51.9720 C   0  0  0  0  0  0  0  0  0  0  0  0
   57.2520   31.6480   50.9430 N   0  0  0  0  0  0  0  0  0  0  0  0
   60.2380   32.0070   48.0570 N   0  0  0  0  0  0  0  0  0  0  0  0
   62.8915   31.1924   48.0798 H   0  0  0  0  0  0  0  0  0  0  0  0
   62.1061   30.6724   46.5503 H   0  0  0  0  0  0  0  0  0  0  0  0
   63.2355   32.0692   46.5503 H   0  0  0  0  0  0  0  0  0  0  0  0
   62.3581   34.0788   46.4170 H   0  0  0  0  0  0  0  0  0  0  0  0
   60.4754   35.6805   46.8380 H   0  0  0  0  0  0  0  0  0  0  0  0
   58.4680   34.8620   48.0514 H   0  0  0  0  0  0  0  0  0  0  0  0
   59.4960   29.0600   48.6730 H   0  0  0  0  0  0  0  0  0  0  0  0
   61.0015   27.4466   47.1618 H   0  0  0  0  0  0  0  0  0  0  0  0
   60.4658   26.1966   48.3724 H   0  0  0  0  0  0  0  0  0  0  0  0
   59.1094   24.7735   47.5053 H   0  0  0  0  0  0  0  0  0  0  0  0
   57.0029   24.1986   46.3474 H   0  0  0  0  0  0  0  0  0  0  0  0
   55.6975   26.0125   45.2817 H   0  0  0  0  0  0  0  0  0  0  0  0
   56.4888   28.3065   45.3804 H   0  0  0  0  0  0  0  0  0  0  0  0
   58.2625   29.2979   43.4876 H   0  0  0  0  0  0  0  0  0  0  0  0
   56.6699   29.5443   44.2099 H   0  0  0  0  0  0  0  0  0  0  0  0
   58.0049   31.1814   42.1755 H   0  0  0  0  0  0  0  0  0  0  0  0
   56.3942   31.4517   42.8477 H   0  0  0  0  0  0  0  0  0  0  0  0
   59.0243   32.6900   43.6131 H   0  0  0  0  0  0  0  0  0  0  0  0
   57.4253   33.3630   43.8330 H   0  0  0  0  0  0  0  0  0  0  0  0
   58.7932   32.3294   45.9484 H   0  0  0  0  0  0  0  0  0  0  0  0
   57.0594   32.0703   45.8764 H   0  0  0  0  0  0  0  0  0  0  0  0
   56.5704   30.7777   52.7520 H   0  0  0  0  0  0  0  0  0  0  0  0
   56.4710   32.3160   50.8530 H   0  0  0  0  0  0  0  0  0  0  0  0
   60.1490   31.0140   48.3970 H   0  0  0  0  0  0  0  0  0  0  0  0
  1  2  1  0
  2  3  2  0
  3  4  1  0
  4  5  2  0
  5  6  1  0
  6  7  2  0
  7  8  1  0
  8  9  2  0
  9 10  1  0
 10 11  2  0
 11 12  1  0
 12 13  2  0
 12 14  1  0
 14 15  1  0
 15 16  1  0
 16 17  2  0
 17 18  1  0
 18 19  2  0
 19 20  1  0
 20 21  2  0
 21 22  1  0
 22 23  2  0
 22 24  2  0
 22 25  1  0
 25 26  1  0
 26 27  1  0
 27 28  1  0
 28 29  1  0
 10 30  1  0
 30 31  1  0
 30 32  2  0
 32 33  1  0
  6 34  1  0
 34  2  1  0
 33  8  1  0
 21 16  1  0
 29 25  1  0
  1 35  1  0
  1 36  1  0
  1 37  1  0
  3 38  1  0
  4 39  1  0
  5 40  1  0
 14 41  1  0
 15 42  1  0
 15 43  1  0
 17 44  1  0
 18 45  1  0
 19 46  1  0
 20 47  1  0
 26 48  1  0
 26 49  1  0
 27 50  1  0
 27 51  1  0
 28 52  1  0
 28 53  1  0
 29 54  1  0
 29 55  1  0
 32 56  1  0
 33 57  1  0
 34 58  1  0
M  END
>  <smiles>  (12) 
Cc1cccc(=Nc2nc(=NC(=O)NCc3ccccc3S(=O)(=O)N3CCCC3)c(Cl)c[nH]2)[nH]1

>  <score_type>  (12) 
oracle

>  <origin>  (12) 
adg

>  <m_score__min__energy>  (12) 
-12.01

>  <m_primary>  (12) 
energy

$$$$
12:0
     RDKit          3D

 32 33  0  0  0  0  0  0  0  0999 V2000
   57.7110   33.5800   45.2910 C   0  0  0  0  0  0  0  0  0  0  0  0
   57.6810   32.2450   45.2640 C   0  0  0  0  0  0  0  0  0  0  0  0
   58.8950   31.4240   45.5950 C   0  0  0  0  0  0  0  0  0  0  0  0
   58.5960   29.9930   45.4740 N   0  0  0  0  0  0  0  0  0  0  0  0
   58.5030   29.3740   44.3080 N   0  0  0  0  0  0  0  0  0  0  0  0
   58.2890   28.0640   44.5200 C   0  0  0  0  0  0  0  0  0  0  0  0
   58.1130   27.0640   43.4180 C   0  0  0  0  0  0  0  0  0  0  0  0
   58.2220   27.8240   45.8900 C   0  0  0  0  0  0  0  0  0  0  0  0
   57.9730   26.6200   46.4470 C   0  0  0  0  0  0  0  0  0  0  0  0
   56.7380   25.8350   46.2710 C   0  0  0  0  0  0  0  0  0  0  0  0
   55.5460   26.4670   45.8880 C   0  0  0  0  0  0  0  0  0  0  0  0
   55.5230   27.8310   45.6190 O   0  0  0  0  0  0  0  0  0  0  0  0
   54.4030   25.7430   45.7670 N   0  0  0  0  0  0  0  0  0  0  0  0
   54.3860   24.4110   46.0270 C   0  0  0  0  0  0  0  0  0  0  0  0
   52.9980   23.5680   45.8710 S   0  0  0  0  0  0  0  0  0  0  0  0
   55.5210   23.7810   46.4270 N   0  0  0  0  0  0  0  0  0  0  0  0
   56.6890   24.4600   46.5630 C   0  0  0  0  0  0  0  0  0  0  0  0
   57.7180   23.8480   46.9560 O   0  0  0  0  0  0  0  0  0  0  0  0
   58.4590   29.0820   46.4730 C   0  0  0  0  0  0  0  0  0  0  0  0
   58.6330   29.3710   47.7710 C   0  0  0  0  0  0  0  0  0  0  0  0
   56.8067   34.1556   45.0440 H   0  0  0  0  0  0  0  0  0  0  0  0
   58.6400   34.1039   45.5603 H   0  0  0  0  0  0  0  0  0  0  0  0
   56.7451   31.7344   44.9930 H   0  0  0  0  0  0  0  0  0  0  0  0
   59.7080   31.6839   44.9011 H   0  0  0  0  0  0  0  0  0  0  0  0
   59.1976   31.6379   46.6307 H   0  0  0  0  0  0  0  0  0  0  0  0
   58.5960   29.8410   43.3770 H   0  0  0  0  0  0  0  0  0  0  0  0
   57.9377   26.0682   43.8511 H   0  0  0  0  0  0  0  0  0  0  0  0
   57.2515   27.3506   42.7970 H   0  0  0  0  0  0  0  0  0  0  0  0
   59.0206   27.0392   42.7970 H   0  0  0  0  0  0  0  0  0  0  0  0
   58.7576   26.1884   47.0859 H   0  0  0  0  0  0  0  0  0  0  0  0
   58.8115   30.4103   48.0839 H   0  0  0  0  0  0  0  0  0  0  0  0
   58.5972   28.5687   48.5227 H   0  0  0  0  0  0  0  0  0  0  0  0
  1  2  2  0
  2  3  1  0
  3  4  1  0
  4  5  1  0
  5  6  2  0
  6  7  1  0
  6  8  1  0
  8  9  2  3
  9 10  1  0
 10 11  2  0
 11 12  1  0
 11 13  1  0
 13 14  1  0
 14 15  2  0
 14 16  1  0
 16 17  1  0
 17 18  2  0
  8 19  1  0
 19 20  2  0
 19  4  1  0
 17 10  1  0
  1 21  1  0
  1 22  1  0
  2 23  1  0
  3 24  1  0
  3 25  1  0
  5 26  1  0
  7 27  1  0
  7 28  1  0
  7 29  1  0
  9 30  1  0
 20 31  1  0
 20 32  1  0
M  CHG  4   5   1  12  -1  13  -1  16  -1
M  END
>  <UniqueID>  (13) 
12

>  <SMILES>  (13) 
C=CCn1[nH+]c(C)c(=Cc2c([O-])[n-]c(=S)[n-]c2=O)c1=C

>  <Energy>  (13) 
75.26396193483421

>  <Genealogy>  (13) 
C=CCn1[nH+]c(C)c(=Cc2c([O-])[n-]c(=S)[n-]c2=O)c1=C (protonated)
C=CCn1[nH+]c(C)c(=Cc2c([O-])[n-]c(=S)[n-]c2=O)c1=C (3D coordinates assigned)
C=CCn1[nH+]c(C)c(=Cc2c([O-])[n-]c(=S)[n-]c2=O)c1=C (optimized conformer: 75.26396193483421 kcal/mol)

>  <smiles>  (13) 
C=CCn1nc(C)c(=Cc2c(O)[nH]c(=S)[nH]c2=O)c1=C

>  <score_type>  (13) 
oracle

>  <origin>  (13) 
adg

>  <m_score__min__energy>  (13) 
-12.73

>  <m_primary>  (13) 
energy

$$$$
13:0
     RDKit          3D

 28 29  0  0  0  0  0  0  0  0999 V2000
   57.0940   31.7140   51.4840 C   0  0  0  0  0  0  0  0  0  0  0  0
   56.1110   30.8230   52.1850 C   0  0  0  0  0  0  0  0  0  0  0  0
   56.5400   29.6240   52.7710 C   0  0  0  0  0  0  0  0  0  0  0  0
   55.6210   28.7780   53.4120 C   0  0  0  0  0  0  0  0  0  0  0  0
   56.0810   27.4860   54.0200 C   0  0  0  0  0  0  0  0  0  0  0  0
   54.2600   29.1160   53.4210 C   0  0  0  0  0  0  0  0  0  0  0  0
   53.8160   30.2980   52.8090 C   0  0  0  0  0  0  0  0  0  0  0  0
   52.3610   30.6760   52.8560 C   0  0  0  0  0  0  0  0  0  0  0  0
   51.8320   30.8560   51.4670 C   0  0  0  0  0  0  0  0  0  0  0  0
   51.9280   29.9420   50.4890 N   0  0  0  0  0  0  0  0  0  0  0  0
   51.4010   30.5480   49.4060 C   0  0  0  0  0  0  0  0  0  0  0  0
   51.3170   29.9890   48.2810 O   0  0  0  0  0  0  0  0  0  0  0  0
   50.9800   31.8110   49.6310 N   0  0  0  0  0  0  0  0  0  0  0  0
   51.2650   31.9920   50.9340 C   0  0  0  0  0  0  0  0  0  0  0  0
   51.0190   33.1750   51.6200 O   0  0  0  0  0  0  0  0  0  0  0  0
   54.7480   31.1520   52.1990 C   0  0  0  0  0  0  0  0  0  0  0  0
   57.6932   32.2571   52.2297 H   0  0  0  0  0  0  0  0  0  0  0  0
   57.7579   31.1036   50.8542 H   0  0  0  0  0  0  0  0  0  0  0  0
   56.5515   32.4345   50.8542 H   0  0  0  0  0  0  0  0  0  0  0  0
   57.6030   29.3443   52.7284 H   0  0  0  0  0  0  0  0  0  0  0  0
   56.0525   27.5662   55.1167 H   0  0  0  0  0  0  0  0  0  0  0  0
   55.4178   26.6710   53.6946 H   0  0  0  0  0  0  0  0  0  0  0  0
   57.1100   27.2735   53.6946 H   0  0  0  0  0  0  0  0  0  0  0  0
   53.5352   28.4496   53.9115 H   0  0  0  0  0  0  0  0  0  0  0  0
   51.7942   29.8799   53.3610 H   0  0  0  0  0  0  0  0  0  0  0  0
   52.2518   31.6209   53.4085 H   0  0  0  0  0  0  0  0  0  0  0  0
   52.3320   28.9810   50.5500 H   0  0  0  0  0  0  0  0  0  0  0  0
   54.4068   32.0860   51.7286 H   0  0  0  0  0  0  0  0  0  0  0  0
  1  2  1  0
  2  3  2  0
  3  4  1  0
  4  5  1  0
  4  6  2  0
  6  7  1  0
  7  8  1  0
  8  9  1  0
  9 10  1  0
 10 11  1  0
 11 12  2  0
 11 13  1  0
 13 14  1  0
 14 15  1  0
  7 16  2  0
 16  2  1  0
 14  9  2  0
  1 17  1  0
  1 18  1  0
  1 19  1  0
  3 20  1  0
  5 21  1  0
  5 22  1  0
  5 23  1  0
  6 24  1  0
  8 25  1  0
  8 26  1  0
 10 27  1  0
 16 28  1  0
M  CHG  2  13  -1  15  -1
M  END
>  <UniqueID>  (14) 
13

>  <SMILES>  (14) 
Cc1cc(C)cc(Cc2[nH]c(=O)[n-]c2[O-])c1

>  <Energy>  (14) 
55.302549998746755

>  <Genealogy>  (14) 
Cc1cc(C)cc(Cc2[nH]c(=O)[n-]c2[O-])c1 (protonated)
Cc1cc(C)cc(Cc2[nH]c(=O)[n-]c2[O-])c1 (3D coordinates assigned)
Cc1cc(C)cc(Cc2[nH]c(=O)[n-]c2[O-])c1 (optimized conformer: 55.302549998746755 kcal/mol)

>  <smiles>  (14) 
Cc1cc(C)cc(Cc2[nH]c(=O)[nH]c2O)c1

>  <score_type>  (14) 
oracle

>  <origin>  (14) 
adg

>  <m_score__min__energy>  (14) 
-13.039999999999999

>  <m_primary>  (14) 
energy

$$$$
14:0
     RDKit          3D

 51 53  0  0  0  0  0  0  0  0999 V2000
   62.4674   34.5155   45.7898 H   0  0  0  0  0  0  0  0  0  0  0  0
   62.5050   33.7960   46.6210 C   0  0  0  0  0  0  0  0  0  0  0  0
   63.5530   33.8460   47.5380 C   0  0  0  0  0  0  0  0  0  0  0  0
   64.3446   34.6012   47.4240 H   0  0  0  0  0  0  0  0  0  0  0  0
   63.6030   32.9410   48.6020 C   0  0  0  0  0  0  0  0  0  0  0  0
   64.9460   33.0530   49.7320 Cl  0  0  0  0  0  0  0  0  0  0  0  0
   62.5950   31.9680   48.7520 C   0  0  0  0  0  0  0  0  0  0  0  0
   62.6680   30.8630   50.1280 Cl  0  0  0  0  0  0  0  0  0  0  0  0
   61.5420   31.9000   47.8060 C   0  0  0  0  0  0  0  0  0  0  0  0
   60.4340   30.8720   47.8960 C   0  0  0  0  0  0  0  0  0  0  0  0
   60.2763   30.6026   48.9508 H   0  0  0  0  0  0  0  0  0  0  0  0
   60.7268   29.9851   47.3149 H   0  0  0  0  0  0  0  0  0  0  0  0
   59.2170   31.3920   47.3580 O   0  0  0  0  0  0  0  0  0  0  0  0
   58.6180   30.9770   46.1550 C   0  0  0  0  0  0  0  0  0  0  0  0
   58.5150   29.6150   45.8120 C   0  0  0  0  0  0  0  0  0  0  0  0
   58.8864   28.8495   46.5092 H   0  0  0  0  0  0  0  0  0  0  0  0
   57.9450   29.2230   44.5930 C   0  0  0  0  0  0  0  0  0  0  0  0
   57.8990   27.7900   44.2170 C   0  0  0  0  0  0  0  0  0  0  0  0
   58.1460   27.4480   43.0300 O   0  0  0  0  0  0  0  0  0  0  0  0
   57.6380   26.7690   45.1930 N   0  0  0  0  0  0  0  0  0  0  0  0
   57.4720   25.4930   44.9670 C   0  0  0  0  0  0  0  0  0  0  0  0
   57.7010   24.5170   45.9620 C   0  0  0  0  0  0  0  0  0  0  0  0
   58.0201   24.8212   46.9698 H   0  0  0  0  0  0  0  0  0  0  0  0
   57.5200   23.1560   45.6610 C   0  0  0  0  0  0  0  0  0  0  0  0
   57.7440   22.1420   46.6050 O   0  0  0  0  0  0  0  0  0  0  0  0
   57.6370   20.7480   46.3270 C   0  0  0  0  0  0  0  0  0  0  0  0
   57.5940   20.1878   47.2727 H   0  0  0  0  0  0  0  0  0  0  0  0
   56.7217   20.5590   45.7469 H   0  0  0  0  0  0  0  0  0  0  0  0
   58.5127   20.4215   45.7469 H   0  0  0  0  0  0  0  0  0  0  0  0
   57.0960   22.7950   44.3820 C   0  0  0  0  0  0  0  0  0  0  0  0
   56.9546   21.7346   44.1259 H   0  0  0  0  0  0  0  0  0  0  0  0
   56.8520   23.7840   43.4290 C   0  0  0  0  0  0  0  0  0  0  0  0
   56.5088   23.5014   42.4228 H   0  0  0  0  0  0  0  0  0  0  0  0
   57.0360   25.0950   43.7370 N   0  0  0  0  0  0  0  0  0  0  0  0
   56.8480   25.8110   42.9980 H   0  0  0  0  0  0  0  0  0  0  0  0
   57.4450   30.2010   43.7240 C   0  0  0  0  0  0  0  0  0  0  0  0
   56.9949   29.9031   42.7655 H   0  0  0  0  0  0  0  0  0  0  0  0
   57.5150   31.5510   44.0680 C   0  0  0  0  0  0  0  0  0  0  0  0
   57.1042   32.3087   43.3845 H   0  0  0  0  0  0  0  0  0  0  0  0
   58.1040   31.9530   45.2770 C   0  0  0  0  0  0  0  0  0  0  0  0
   58.1970   33.3550   45.5950 N   0  0  0  0  0  0  0  0  0  0  0  0
   58.9820   34.2470   44.7380 C   0  0  0  0  0  0  0  0  0  0  0  0
   59.5793   34.9257   45.3647 H   0  0  0  0  0  0  0  0  0  0  0  0
   59.6523   33.6492   44.1029 H   0  0  0  0  0  0  0  0  0  0  0  0
   58.3038   34.8359   44.1029 H   0  0  0  0  0  0  0  0  0  0  0  0
   57.7680   33.8310   46.9120 C   0  0  0  0  0  0  0  0  0  0  0  0
   58.2849   33.2574   47.6955 H   0  0  0  0  0  0  0  0  0  0  0  0
   58.0156   34.8978   47.0148 H   0  0  0  0  0  0  0  0  0  0  0  0
   56.6813   33.6952   47.0148 H   0  0  0  0  0  0  0  0  0  0  0  0
   61.5030   32.8340   46.7560 C   0  0  0  0  0  0  0  0  0  0  0  0
   60.6741   32.8063   46.0334 H   0  0  0  0  0  0  0  0  0  0  0  0
  1  2  1  0
  2  3  2  0
  3  4  1  0
  3  5  1  0
  5  6  1  0
  5  7  2  0
  7  8  1  0
  7  9  1  0
  9 10  1  0
 10 11  1  0
 10 12  1  0
 10 13  1  0
 13 14  1  0
 14 15  2  0
 15 16  1  0
 15 17  1  0
 17 18  1  0
 18 19  2  0
 18 20  1  0
 20 21  2  0
 21 22  1  0
 22 23  1  0
 22 24  2  0
 24 25  1  0
 25 26  1  0
 26 27  1  0
 26 28  1  0
 26 29  1  0
 24 30  1  0
 30 31  1  0
 30 32  2  0
 32 33  1  0
 32 34  1  0
 34 35  1  0
 17 36  2  0
 36 37  1  0
 36 38  1  0
 38 39  1  0
 38 40  2  0
 40 41  1  0
 41 42  1  0
 42 43  1  0
 42 44  1  0
 42 45  1  0
 41 46  1  0
 46 47  1  0
 46 48  1  0
 46 49  1  0
  9 50  2  0
 50 51  1  0
 50  2  1  0
 40 14  1  0
 34 21  1  0
M  END
>  <UniqueID>  (15) 
14

>  <SMILES>  (15) 
COc1cc[nH]/c(=N/C(=O)c2ccc(N(C)C)c(OCc3cccc(Cl)c3Cl)c2)c1

>  <Energy>  (15) 
66.66496599603607

>  <Genealogy>  (15) 
COc1cc[nH]/c(=N/C(=O)c2ccc(N(C)C)c(OCc3cccc(Cl)c3Cl)c2)c1 (cis-trans isomerization)
COc1cc[nH]/c(=N/C(=O)c2ccc(N(C)C)c(OCc3cccc(Cl)c3Cl)c2)c1 (3D coordinates assigned)
COc1cc[nH]/c(=N/C(=O)c2ccc(N(C)C)c(OCc3cccc(Cl)c3Cl)c2)c1 (optimized conformer: 66.66496599603607 kcal/mol)

>  <smiles>  (15) 
COc1cc[nH]c(=NC(=O)c2ccc(N(C)C)c(OCc3cccc(Cl)c3Cl)c2)c1

>  <score_type>  (15) 
oracle

>  <origin>  (15) 
adg

>  <m_score__min__energy>  (15) 
-8.2200000000000006

>  <m_primary>  (15) 
energy

$$$$
15:0
     RDKit          3D

 75 79  0  0  0  0  0  0  0  0999 V2000
   56.7311   27.3126   44.0672 H   0  0  0  0  0  0  0  0  0  0  0  0
   57.2710   27.7420   44.9240 C   0  0  0  0  0  0  0  0  0  0  0  0
   58.2200   26.9880   45.6230 C   0  0  0  0  0  0  0  0  0  0  0  0
   58.4940   25.5700   45.2360 C   0  0  0  0  0  0  0  0  0  0  0  0
   58.6121   24.9587   46.1428 H   0  0  0  0  0  0  0  0  0  0  0  0
   57.6539   25.1836   44.6402 H   0  0  0  0  0  0  0  0  0  0  0  0
   59.4176   25.5244   44.6402 H   0  0  0  0  0  0  0  0  0  0  0  0
   58.8860   27.5470   46.6670 N   0  0  0  0  0  0  0  0  0  0  0  0
   58.6610   28.8340   47.0420 C   0  0  0  0  0  0  0  0  0  0  0  0
   59.3390   29.3370   48.0320 N   0  0  0  0  0  0  0  0  0  0  0  0
   59.9290   28.5570   49.1170 C   0  0  0  0  0  0  0  0  0  0  0  0
   59.3115   27.6673   49.3096 H   0  0  0  0  0  0  0  0  0  0  0  0
   60.9438   28.2383   48.8365 H   0  0  0  0  0  0  0  0  0  0  0  0
   59.9880   29.4100   50.3590 C   0  0  0  0  0  0  0  0  0  0  0  0
   61.0240   29.2290   51.2940 C   0  0  0  0  0  0  0  0  0  0  0  0
   61.9610   28.2590   51.1110 F   0  0  0  0  0  0  0  0  0  0  0  0
   61.0910   30.0360   52.4300 C   0  0  0  0  0  0  0  0  0  0  0  0
   61.8940   29.8773   53.1649 H   0  0  0  0  0  0  0  0  0  0  0  0
   60.1490   31.0420   52.6420 C   0  0  0  0  0  0  0  0  0  0  0  0
   60.2012   31.6584   53.5516 H   0  0  0  0  0  0  0  0  0  0  0  0
   59.1360   31.2710   51.7010 C   0  0  0  0  0  0  0  0  0  0  0  0
   58.1210   32.3470   51.9620 C   0  0  0  0  0  0  0  0  0  0  0  0
   57.9969   32.4786   53.0470 H   0  0  0  0  0  0  0  0  0  0  0  0
   58.4647   33.2915   51.5151 H   0  0  0  0  0  0  0  0  0  0  0  0
   57.1581   32.0589   51.5151 H   0  0  0  0  0  0  0  0  0  0  0  0
   59.0540   30.4490   50.5620 C   0  0  0  0  0  0  0  0  0  0  0  0
   58.0630   30.6480   49.6570 F   0  0  0  0  0  0  0  0  0  0  0  0
   57.7280   29.5730   46.3830 N   0  0  0  0  0  0  0  0  0  0  0  0
   57.0250   29.0540   45.3400 C   0  0  0  0  0  0  0  0  0  0  0  0
   56.0380   29.8940   44.6410 C   0  0  0  0  0  0  0  0  0  0  0  0
   55.0810   29.3370   44.0360 O   0  0  0  0  0  0  0  0  0  0  0  0
   56.1770   31.3190   44.5670 N   0  0  0  0  0  0  0  0  0  0  0  0
   57.3780   31.9990   44.0970 C   0  0  0  0  0  0  0  0  0  0  0  0
   58.0021   31.2920   43.5308 H   0  0  0  0  0  0  0  0  0  0  0  0
   57.0934   32.8388   43.4460 H   0  0  0  0  0  0  0  0  0  0  0  0
   58.1550   32.5200   45.2800 C   0  0  0  0  0  0  0  0  0  0  0  0
   59.2500   33.3710   45.0850 C   0  0  0  0  0  0  0  0  0  0  0  0
   59.5425   33.6720   44.0682 H   0  0  0  0  0  0  0  0  0  0  0  0
   59.9680   33.8350   46.1880 C   0  0  0  0  0  0  0  0  0  0  0  0
   60.8192   34.5163   46.0422 H   0  0  0  0  0  0  0  0  0  0  0  0
   59.6050   33.4330   47.4850 C   0  0  0  0  0  0  0  0  0  0  0  0
   60.3630   33.9240   48.6610 C   0  0  0  0  0  0  0  0  0  0  0  0
   59.8870   34.8490   49.3810 O   0  0  0  0  0  0  0  0  0  0  0  0
   61.6470   33.3700   48.9880 N   0  0  0  0  0  0  0  0  0  0  0  0
   61.6920   32.2330   49.9100 C   0  0  0  0  0  0  0  0  0  0  0  0
   61.5907   32.6012   50.9416 H   0  0  0  0  0  0  0  0  0  0  0  0
   60.8671   31.5478   49.6649 H   0  0  0  0  0  0  0  0  0  0  0  0
   63.0190   31.4730   49.7750 C   0  0  0  0  0  0  0  0  0  0  0  0
   63.0993   30.7558   50.6052 H   0  0  0  0  0  0  0  0  0  0  0  0
   63.0132   30.9675   48.7981 H   0  0  0  0  0  0  0  0  0  0  0  0
   64.1990   32.3680   49.8070 N   0  0  0  0  0  0  0  0  0  0  0  0
   64.4950   32.9220   51.1480 C   0  0  0  0  0  0  0  0  0  0  0  0
   63.7834   33.7308   51.3705 H   0  0  0  0  0  0  0  0  0  0  0  0
   64.4014   32.1183   51.8931 H   0  0  0  0  0  0  0  0  0  0  0  0
   65.9000   33.4700   51.1960 C   0  0  0  0  0  0  0  0  0  0  0  0
   66.9330   32.8490   50.4710 C   0  0  0  0  0  0  0  0  0  0  0  0
   66.7385   31.9079   49.9357 H   0  0  0  0  0  0  0  0  0  0  0  0
   68.2070   33.4250   50.4290 C   0  0  0  0  0  0  0  0  0  0  0  0
   69.0093   32.9457   49.8489 H   0  0  0  0  0  0  0  0  0  0  0  0
   68.4590   34.6100   51.1250 C   0  0  0  0  0  0  0  0  0  0  0  0
   69.4619   35.0608   51.0947 H   0  0  0  0  0  0  0  0  0  0  0  0
   67.4420   35.2240   51.8590 C   0  0  0  0  0  0  0  0  0  0  0  0
   67.6473   36.1518   52.4131 H   0  0  0  0  0  0  0  0  0  0  0  0
   66.1650   34.6610   51.8900 C   0  0  0  0  0  0  0  0  0  0  0  0
   65.3632   35.1526   52.4605 H   0  0  0  0  0  0  0  0  0  0  0  0
   64.0990   33.4110   48.7660 C   0  0  0  0  0  0  0  0  0  0  0  0
   64.9670   34.0811   48.8526 H   0  0  0  0  0  0  0  0  0  0  0  0
   64.0745   32.9080   47.7880 H   0  0  0  0  0  0  0  0  0  0  0  0
   62.8160   34.2460   48.8960 C   0  0  0  0  0  0  0  0  0  0  0  0
   62.8770   34.8662   49.8024 H   0  0  0  0  0  0  0  0  0  0  0  0
   62.7142   34.8864   48.0074 H   0  0  0  0  0  0  0  0  0  0  0  0
   58.5200   32.5520   47.6370 C   0  0  0  0  0  0  0  0  0  0  0  0
   58.2311   32.2071   48.6408 H   0  0  0  0  0  0  0  0  0  0  0  0
   57.8240   32.1230   46.5450 N   0  0  0  0  0  0  0  0  0  0  0  0
   57.0200   31.4690   46.6860 H   0  0  0  0  0  0  0  0  0  0  0  0
  1  2  1  0
  2  3  1  0
  3  4  1  0
  4  5  1  0
  4  6  1  0
  4  7  1  0
  3  8  2  0
  8  9  1  0
  9 10  2  0
 10 11  1  0
 11 12  1  0
 11 13  1  0
 11 14  1  0
 14 15  2  0
 15 16  1  0
 15 17  1  0
 17 18  1  0
 17 19  2  0
 19 20  1  0
 19 21  1  0
 21 22  1  0
 22 23  1  0
 22 24  1  0
 22 25  1  0
 21 26  2  0
 26 27  1  0
  9 28  1  0
 28 29  1  0
 29 30  1  0
 30 31  2  0
 30 32  1  0
 32 33  1  0
 33 34  1  0
 33 35  1  0
 33 36  1  0
 36 37  2  0
 37 38  1  0
 37 39  1  0
 39 40  1  0
 39 41  2  0
 41 42  1  0
 42 43  2  0
 42 44  1  0
 44 45  1  0
 45 46  1  0
 45 47  1  0
 45 48  1  0
 48 49  1  0
 48 50  1  0
 48 51  1  0
 51 52  1  0
 52 53  1  0
 52 54  1  0
 52 55  1  0
 55 56  2  0
 56 57  1  0
 56 58  1  0
 58 59  1  0
 58 60  2  0
 60 61  1  0
 60 62  1  0
 62 63  1  0
 62 64  2  0
 64 65  1  0
 51 66  1  0
 66 67  1  0
 66 68  1  0
 66 69  1  0
 69 70  1  0
 69 71  1  0
 41 72  1  0
 72 73  1  0
 72 74  2  0
 74 75  1  0
 29  2  2  0
 74 36  1  0
 26 14  1  0
 69 44  1  0
 64 55  1  0
M  CHG  3  28  -1  32  -1  74   1
M  END
>  <UniqueID>  (16) 
15

>  <SMILES>  (16) 
Cc1cc(C(=O)[N-]Cc2ccc(C(=O)N3CCN(Cc4ccccc4)CC3)c[nH+]2)[n-]/c(=N\Cc2c(F)ccc(C)c2F)n1

>  <Energy>  (16) 
93.75187417236464

>  <Genealogy>  (16) 
Cc1cc(C(=O)[N-]Cc2ccc(C(=O)N3CCN(Cc4ccccc4)CC3)c[nH+]2)[n-]c(=NCc2c(F)ccc(C)c2F)n1 (protonated)
Cc1cc(C(=O)[N-]Cc2ccc(C(=O)N3CCN(Cc4ccccc4)CC3)c[nH+]2)[n-]/c(=N\Cc2c(F)ccc(C)c2F)n1 (cis-trans isomerization)
Cc1cc(C(=O)[N-]Cc2ccc(C(=O)N3CCN(Cc4ccccc4)CC3)c[nH+]2)[n-]/c(=N\Cc2c(F)ccc(C)c2F)n1 (3D coordinates assigned)
Cc1cc(C(=O)[N-]Cc2ccc(C(=O)N3CCN(Cc4ccccc4)CC3)c[nH+]2)[n-]/c(=N\Cc2c(F)ccc(C)c2F)n1 (nonaromatic ring conformer: 93.75187417236464 kcal/mol)

>  <smiles>  (16) 
Cc1cc(C(=O)NCc2ccc(C(=O)N3CCN(Cc4ccccc4)CC3)cn2)[nH]c(=NCc2c(F)ccc(C)c2F)n1

>  <score_type>  (16) 
oracle

>  <origin>  (16) 
adg

>  <m_score__min__energy>  (16) 
-12.369999999999999

>  <m_primary>  (16) 
energy

$$$$
16:0
     RDKit          3D

 60 63  0  0  0  0  0  0  0  0999 V2000
   61.0590   27.0330   50.2380 H   0  0  0  0  0  0  0  0  0  0  0  0
   60.5690   26.5600   49.4870 O   0  0  0  0  0  0  0  0  0  0  0  0
   60.2050   27.2300   48.3240 C   0  0  0  0  0  0  0  0  0  0  0  0
   59.4620   28.4160   48.3820 C   0  0  0  0  0  0  0  0  0  0  0  0
   59.1502   28.8206   49.3562 H   0  0  0  0  0  0  0  0  0  0  0  0
   59.1150   29.0880   47.2040 C   0  0  0  0  0  0  0  0  0  0  0  0
   58.5169   30.0097   47.2558 H   0  0  0  0  0  0  0  0  0  0  0  0
   59.5270   28.5910   45.9550 C   0  0  0  0  0  0  0  0  0  0  0  0
   59.2080   29.3460   44.6900 C   0  0  0  0  0  0  0  0  0  0  0  0
   60.0002   29.1581   43.9503 H   0  0  0  0  0  0  0  0  0  0  0  0
   59.1480   30.4180   44.9292 H   0  0  0  0  0  0  0  0  0  0  0  0
   57.8770   28.9070   44.1120 C   0  0  0  0  0  0  0  0  0  0  0  0
   57.7630   27.9970   43.1800 N   0  0  0  0  0  0  0  0  0  0  0  0
   57.7670   26.5680   43.3050 C   0  0  0  0  0  0  0  0  0  0  0  0
   57.8350   25.8310   42.2860 O   0  0  0  0  0  0  0  0  0  0  0  0
   57.6030   25.9630   44.6720 C   0  0  0  0  0  0  0  0  0  0  0  0
   58.4215   26.3170   45.3160 H   0  0  0  0  0  0  0  0  0  0  0  0
   56.6222   26.2731   45.0618 H   0  0  0  0  0  0  0  0  0  0  0  0
   57.6300   24.4640   44.6380 C   0  0  0  0  0  0  0  0  0  0  0  0
   56.6100   23.4960   43.7130 S   0  0  0  0  0  0  0  0  0  0  0  0
   57.3450   22.0320   44.1030 C   0  0  0  0  0  0  0  0  0  0  0  0
   57.0319   21.0390   43.7483 H   0  0  0  0  0  0  0  0  0  0  0  0
   58.4150   22.2940   44.9500 C   0  0  0  0  0  0  0  0  0  0  0  0
   59.0708   21.5071   45.3509 H   0  0  0  0  0  0  0  0  0  0  0  0
   58.5810   23.6530   45.2460 C   0  0  0  0  0  0  0  0  0  0  0  0
   59.3821   24.0389   45.8935 H   0  0  0  0  0  0  0  0  0  0  0  0
   56.6310   29.4200   44.7220 C   0  0  0  0  0  0  0  0  0  0  0  0
   55.7920   28.6220   45.2210 O   0  0  0  0  0  0  0  0  0  0  0  0
   56.3570   30.8280   44.7030 N   0  0  0  0  0  0  0  0  0  0  0  0
   57.2840   31.8670   45.0540 C   0  0  0  0  0  0  0  0  0  0  0  0
   57.6340   32.8790   44.1470 C   0  0  0  0  0  0  0  0  0  0  0  0
   57.2430   32.8529   43.1192 H   0  0  0  0  0  0  0  0  0  0  0  0
   58.4760   33.9180   44.5440 C   0  0  0  0  0  0  0  0  0  0  0  0
   58.7443   34.7074   43.8264 H   0  0  0  0  0  0  0  0  0  0  0  0
   58.9810   33.9640   45.8450 C   0  0  0  0  0  0  0  0  0  0  0  0
   59.9960   35.3330   46.2880 Cl  0  0  0  0  0  0  0  0  0  0  0  0
   58.6510   32.9430   46.7620 C   0  0  0  0  0  0  0  0  0  0  0  0
   59.3000   32.9490   48.4090 S   0  0  0  0  0  0  0  0  0  0  0  0
   59.5260   34.3780   48.8170 O   0  0  0  0  0  0  0  0  0  0  0  0
   58.3180   32.3230   49.3610 O   0  0  0  0  0  0  0  0  0  0  0  0
   60.8150   32.0680   48.4500 N   0  0  0  0  0  0  0  0  0  0  0  0
   61.6750   32.5140   49.5620 C   0  0  0  0  0  0  0  0  0  0  0  0
   61.0486   32.6606   50.4543 H   0  0  0  0  0  0  0  0  0  0  0  0
   62.4381   31.7384   49.7234 H   0  0  0  0  0  0  0  0  0  0  0  0
   62.4140   33.8400   49.2520 C   0  0  0  0  0  0  0  0  0  0  0  0
   61.9112   34.6528   49.7966 H   0  0  0  0  0  0  0  0  0  0  0  0
   63.4592   33.7055   49.5673 H   0  0  0  0  0  0  0  0  0  0  0  0
   62.4380   34.1730   47.8750 O   0  0  0  0  0  0  0  0  0  0  0  0
   62.7140   33.0230   47.1080 C   0  0  0  0  0  0  0  0  0  0  0  0
   62.9152   33.3182   46.0676 H   0  0  0  0  0  0  0  0  0  0  0  0
   63.5934   32.5114   47.5263 H   0  0  0  0  0  0  0  0  0  0  0  0
   61.5100   32.0690   47.1430 C   0  0  0  0  0  0  0  0  0  0  0  0
   60.7954   32.3768   46.3655 H   0  0  0  0  0  0  0  0  0  0  0  0
   61.8895   31.0512   46.9696 H   0  0  0  0  0  0  0  0  0  0  0  0
   57.7880   31.9120   46.3600 C   0  0  0  0  0  0  0  0  0  0  0  0
   57.5039   31.1297   47.0793 H   0  0  0  0  0  0  0  0  0  0  0  0
   60.2760   27.4000   45.9070 C   0  0  0  0  0  0  0  0  0  0  0  0
   60.6101   27.0034   44.9369 H   0  0  0  0  0  0  0  0  0  0  0  0
   60.5980   26.7180   47.0840 C   0  0  0  0  0  0  0  0  0  0  0  0
   61.1626   25.7752   47.0343 H   0  0  0  0  0  0  0  0  0  0  0  0
  1  2  1  0
  2  3  1  0
  3  4  2  0
  4  5  1  0
  4  6  1  0
  6  7  1  0
  6  8  2  0
  8  9  1  0
  9 10  1  0
  9 11  1  0
  9 12  1  0
 12 13  2  0
 13 14  1  0
 14 15  2  0
 14 16  1  0
 16 17  1  0
 16 18  1  0
 16 19  1  0
 19 20  1  0
 20 21  1  0
 21 22  1  0
 21 23  2  0
 23 24  1  0
 23 25  1  0
 25 26  1  0
 12 27  1  0
 27 28  2  0
 27 29  1  0
 29 30  1  0
 30 31  2  0
 31 32  1  0
 31 33  1  0
 33 34  1  0
 33 35  2  0
 35 36  1  0
 35 37  1  0
 37 38  1  0
 38 39  2  0
 38 40  2  0
 38 41  1  0
 41 42  1  0
 42 43  1  0
 42 44  1  0
 42 45  1  0
 45 46  1  0
 45 47  1  0
 45 48  1  0
 48 49  1  0
 49 50  1  0
 49 51  1  0
 49 52  1  0
 52 53  1  0
 52 54  1  0
 37 55  2  0
 55 56  1  0
  8 57  1  0
 57 58  1  0
 57 59  2  0
 59 60  1  0
 59  3  1  0
 25 19  2  0
 55 30  1  0
 52 41  1  0
M  CHG  1  29  -1
M  END
>  <UniqueID>  (17) 
16

>  <SMILES>  (17) 
O=C(Cc1cccs1)/N=C(\Cc1ccc(O)cc1)C(=O)[N-]c1ccc(Cl)c(S(=O)(=O)N2CCOCC2)c1

>  <Energy>  (17) 
109.71319634262856

>  <Genealogy>  (17) 
O=C(Cc1cccs1)N=C(Cc1ccc(O)cc1)C(=O)[N-]c1ccc(Cl)c(S(=O)(=O)N2CCOCC2)c1 (protonated)
O=C(Cc1cccs1)/N=C(\Cc1ccc(O)cc1)C(=O)[N-]c1ccc(Cl)c(S(=O)(=O)N2CCOCC2)c1 (cis-trans isomerization)
O=C(Cc1cccs1)/N=C(\Cc1ccc(O)cc1)C(=O)[N-]c1ccc(Cl)c(S(=O)(=O)N2CCOCC2)c1 (3D coordinates assigned)
O=C(Cc1cccs1)/N=C(\Cc1ccc(O)cc1)C(=O)[N-]c1ccc(Cl)c(S(=O)(=O)N2CCOCC2)c1 (nonaromatic ring conformer: 109.71319634262856 kcal/mol)

>  <smiles>  (17) 
O=C(Cc1cccs1)N=C(Cc1ccc(O)cc1)C(=O)Nc1ccc(Cl)c(S(=O)(=O)N2CCOCC2)c1

>  <score_type>  (17) 
oracle

>  <origin>  (17) 
adg

>  <m_score__min__energy>  (17) 
-11.59

>  <m_primary>  (17) 
energy

$$$$
17:0
     RDKit          3D

 36 38  0  0  0  0  0  0  0  0999 V2000
   57.1274   29.7345   42.1984 H   0  0  0  0  0  0  0  0  0  0  0  0
   56.7970   30.3570   43.0430 C   0  0  0  0  0  0  0  0  0  0  0  0
   55.9190   29.7100   44.0510 C   0  0  0  0  0  0  0  0  0  0  0  0
   54.7170   29.4480   43.7850 O   0  0  0  0  0  0  0  0  0  0  0  0
   56.4210   29.3640   45.3470 N   0  0  0  0  0  0  0  0  0  0  0  0
   57.1030   28.1510   45.6850 C   0  0  0  0  0  0  0  0  0  0  0  0
   56.4760   26.9440   45.9750 C   0  0  0  0  0  0  0  0  0  0  0  0
   55.1050   26.7210   46.0040 O   0  0  0  0  0  0  0  0  0  0  0  0
   57.6410   25.7650   46.2320 S   0  0  0  0  0  0  0  0  0  0  0  0
   58.9640   26.7710   45.9510 C   0  0  0  0  0  0  0  0  0  0  0  0
   60.0207   26.4693   45.9999 H   0  0  0  0  0  0  0  0  0  0  0  0
   58.4980   28.0460   45.6470 C   0  0  0  0  0  0  0  0  0  0  0  0
   59.1608   28.8887   45.4010 H   0  0  0  0  0  0  0  0  0  0  0  0
   57.2260   31.6290   43.0640 C   0  0  0  0  0  0  0  0  0  0  0  0
   56.8944   32.2817   42.2430 H   0  0  0  0  0  0  0  0  0  0  0  0
   58.1020   32.2320   44.0880 C   0  0  0  0  0  0  0  0  0  0  0  0
   58.7900   33.2520   43.8140 O   0  0  0  0  0  0  0  0  0  0  0  0
   58.2630   31.5700   45.3520 N   0  0  0  0  0  0  0  0  0  0  0  0
   57.9390   30.5790   45.4290 H   0  0  0  0  0  0  0  0  0  0  0  0
   58.9210   32.1550   46.4890 C   0  0  0  0  0  0  0  0  0  0  0  0
   58.2090   32.4990   47.6550 C   0  0  0  0  0  0  0  0  0  0  0  0
   57.1227   32.3322   47.7010 H   0  0  0  0  0  0  0  0  0  0  0  0
   58.8740   33.0510   48.7540 C   0  0  0  0  0  0  0  0  0  0  0  0
   58.3103   33.3266   49.6575 H   0  0  0  0  0  0  0  0  0  0  0  0
   60.2550   33.2520   48.7030 C   0  0  0  0  0  0  0  0  0  0  0  0
   60.9790   32.8680   47.5680 C   0  0  0  0  0  0  0  0  0  0  0  0
   60.3150   32.3290   46.4620 C   0  0  0  0  0  0  0  0  0  0  0  0
   60.8860   32.0401   45.5673 H   0  0  0  0  0  0  0  0  0  0  0  0
   62.3680   33.0300   47.5590 O   0  0  0  0  0  0  0  0  0  0  0  0
   63.0850   33.3170   48.7630 C   0  0  0  0  0  0  0  0  0  0  0  0
   63.2540   32.3816   49.3165 H   0  0  0  0  0  0  0  0  0  0  0  0
   64.0483   33.7808   48.5041 H   0  0  0  0  0  0  0  0  0  0  0  0
   62.2840   34.2870   49.6410 C   0  0  0  0  0  0  0  0  0  0  0  0
   62.7506   34.3464   50.6354 H   0  0  0  0  0  0  0  0  0  0  0  0
   62.2805   35.2796   49.1670 H   0  0  0  0  0  0  0  0  0  0  0  0
   60.9350   33.8320   49.7790 O   0  0  0  0  0  0  0  0  0  0  0  0
  1  2  1  0
  2  3  1  0
  3  4  2  0
  3  5  1  0
  5  6  1  0
  6  7  2  0
  7  8  1  0
  7  9  1  0
  9 10  1  0
 10 11  1  0
 10 12  2  0
 12 13  1  0
  2 14  2  0
 14 15  1  0
 14 16  1  0
 16 17  2  0
 16 18  1  0
 18 19  1  0
 18 20  1  0
 20 21  2  0
 21 22  1  0
 21 23  1  0
 23 24  1  0
 23 25  2  0
 25 26  1  0
 26 27  2  0
 27 28  1  0
 26 29  1  0
 29 30  1  0
 30 31  1  0
 30 32  1  0
 30 33  1  0
 33 34  1  0
 33 35  1  0
 33 36  1  0
 12  6  1  0
 27 20  1  0
 36 25  1  0
M  CHG  2   5  -1   8  -1
M  END
>  <UniqueID>  (18) 
17

>  <SMILES>  (18) 
O=C(/C=C\C(=O)Nc1ccc2c(c1)OCCO2)[N-]c1ccsc1[O-]

>  <Energy>  (18) 
81.20593250330701

>  <Genealogy>  (18) 
O=C(C=CC(=O)Nc1ccc2c(c1)OCCO2)[N-]c1ccsc1[O-] (protonated)
O=C(/C=C\C(=O)Nc1ccc2c(c1)OCCO2)[N-]c1ccsc1[O-] (cis-trans isomerization)
O=C(/C=C\C(=O)Nc1ccc2c(c1)OCCO2)[N-]c1ccsc1[O-] (3D coordinates assigned)
O=C(/C=C\C(=O)Nc1ccc2c(c1)OCCO2)[N-]c1ccsc1[O-] (nonaromatic ring conformer: 81.20593250330701 kcal/mol)

>  <smiles>  (18) 
O=C(C=CC(=O)Nc1ccsc1O)Nc1ccc2c(c1)OCCO2

>  <score_type>  (18) 
oracle

>  <origin>  (18) 
adg

>  <m_score__min__energy>  (18) 
-13.109999999999999

>  <m_primary>  (18) 
energy

$$$$
18:0
     RDKit          3D

 38 40  0  0  0  0  0  0  0  0999 V2000
   59.4280   33.1480   50.6040 C   0  0  0  0  0  0  0  0  0  0  0  0
   60.2570   34.1540   50.0340 O   0  0  0  0  0  0  0  0  0  0  0  0
   61.1450   33.9490   48.9660 C   0  0  0  0  0  0  0  0  0  0  0  0
   62.5110   33.6740   49.1830 C   0  0  0  0  0  0  0  0  0  0  0  0
   63.3730   33.4790   48.1020 C   0  0  0  0  0  0  0  0  0  0  0  0
   62.8890   33.5560   46.7970 C   0  0  0  0  0  0  0  0  0  0  0  0
   61.5390   33.8260   46.5680 C   0  0  0  0  0  0  0  0  0  0  0  0
   60.6560   34.0220   47.6450 C   0  0  0  0  0  0  0  0  0  0  0  0
   59.1930   34.2950   47.3710 C   0  0  0  0  0  0  0  0  0  0  0  0
   58.7100   33.4940   46.2250 N   0  0  0  0  0  0  0  0  0  0  0  0
   58.6660   34.0550   44.9730 C   0  0  0  0  0  0  0  0  0  0  0  0
   59.0030   35.2560   44.7930 O   0  0  0  0  0  0  0  0  0  0  0  0
   58.2540   33.3260   43.9080 N   0  0  0  0  0  0  0  0  0  0  0  0
   57.8690   32.0330   44.0290 C   0  0  0  0  0  0  0  0  0  0  0  0
   57.4460   31.3540   42.8850 O   0  0  0  0  0  0  0  0  0  0  0  0
   57.8900   31.4230   45.2930 C   0  0  0  0  0  0  0  0  0  0  0  0
   57.5050   30.0030   45.4690 C   0  0  0  0  0  0  0  0  0  0  0  0
   58.3970   29.1090   46.0780 C   0  0  0  0  0  0  0  0  0  0  0  0
   58.0320   27.7740   46.2610 C   0  0  0  0  0  0  0  0  0  0  0  0
   56.7750   27.3450   45.8350 C   0  0  0  0  0  0  0  0  0  0  0  0
   55.9180   28.2220   45.2490 N   0  0  0  0  0  0  0  0  0  0  0  0
   56.2460   29.5280   45.0570 C   0  0  0  0  0  0  0  0  0  0  0  0
   55.4180   30.2990   44.5030 O   0  0  0  0  0  0  0  0  0  0  0  0
   58.3110   32.1890   46.3950 C   0  0  0  0  0  0  0  0  0  0  0  0
   58.3240   31.6600   47.5410 O   0  0  0  0  0  0  0  0  0  0  0  0
   59.4786   33.2094   51.7011 H   0  0  0  0  0  0  0  0  0  0  0  0
   58.3891   33.2996   50.2758 H   0  0  0  0  0  0  0  0  0  0  0  0
   59.7754   32.1572   50.2758 H   0  0  0  0  0  0  0  0  0  0  0  0
   62.8998   33.6127   50.2102 H   0  0  0  0  0  0  0  0  0  0  0  0
   64.4369   33.2640   48.2807 H   0  0  0  0  0  0  0  0  0  0  0  0
   63.5712   33.4039   45.9476 H   0  0  0  0  0  0  0  0  0  0  0  0
   61.1623   33.8860   45.5362 H   0  0  0  0  0  0  0  0  0  0  0  0
   58.6053   34.0360   48.2641 H   0  0  0  0  0  0  0  0  0  0  0  0
   59.0749   35.3613   47.1279 H   0  0  0  0  0  0  0  0  0  0  0  0
   56.8830   30.5130   42.9210 H   0  0  0  0  0  0  0  0  0  0  0  0
   59.3848   29.4596   46.4117 H   0  0  0  0  0  0  0  0  0  0  0  0
   58.7286   27.0677   46.7363 H   0  0  0  0  0  0  0  0  0  0  0  0
   56.4769   26.2953   45.9736 H   0  0  0  0  0  0  0  0  0  0  0  0
  1  2  1  0
  2  3  1  0
  3  4  2  0
  4  5  1  0
  5  6  2  0
  6  7  1  0
  7  8  2  0
  8  9  1  0
  9 10  1  0
 10 11  1  0
 11 12  2  0
 11 13  1  0
 13 14  1  0
 14 15  1  0
 14 16  2  0
 16 17  1  0
 17 18  2  0
 18 19  1  0
 19 20  2  0
 20 21  1  0
 21 22  1  0
 22 23  2  0
 16 24  1  0
 24 25  2  0
  8  3  1  0
 24 10  1  0
 22 17  1  0
  1 26  1  0
  1 27  1  0
  1 28  1  0
  4 29  1  0
  5 30  1  0
  6 31  1  0
  7 32  1  0
  9 33  1  0
  9 34  1  0
 15 35  1  0
 18 36  1  0
 19 37  1  0
 20 38  1  0
M  CHG  2  13  -1  21  -1
M  END
>  <UniqueID>  (19) 
18

>  <SMILES>  (19) 
COc1ccccc1Cn1c(=O)[n-]c(O)c(-c2ccc[n-]c2=O)c1=O

>  <Energy>  (19) 
55.58500672020513

>  <Genealogy>  (19) 
COc1ccccc1Cn1c(=O)[n-]c(O)c(-c2ccc[n-]c2=O)c1=O (protonated)
COc1ccccc1Cn1c(=O)[n-]c(O)c(-c2ccc[n-]c2=O)c1=O (3D coordinates assigned)
COc1ccccc1Cn1c(=O)[n-]c(O)c(-c2ccc[n-]c2=O)c1=O (optimized conformer: 55.58500672020513 kcal/mol)

>  <smiles>  (19) 
COc1ccccc1Cn1c(=O)[nH]c(O)c(-c2ccc[nH]c2=O)c1=O

>  <score_type>  (19) 
oracle

>  <origin>  (19) 
adg

>  <m_score__min__energy>  (19) 
-10.380000000000001

>  <m_primary>  (19) 
energy

$$$$
19:0
     RDKit          3D

 56 58  0  0  0  0  0  0  0  0999 V2000
   56.7600   30.8300   42.3190 C   0  0  0  0  0  0  0  0  0  0  0  0
   57.7520   31.9670   42.5270 C   0  0  0  0  0  0  0  0  0  0  0  0
   57.9470   32.2430   43.9870 C   0  0  0  0  0  0  0  0  0  0  0  0
   58.1970   33.4850   44.5360 C   0  0  0  0  0  0  0  0  0  0  0  0
   58.3670   33.3330   45.8600 N   0  0  0  0  0  0  0  0  0  0  0  0
   58.5970   34.4050   46.8240 C   0  0  0  0  0  0  0  0  0  0  0  0
   60.0430   34.9010   46.7520 C   0  0  0  0  0  0  0  0  0  0  0  0
   61.0150   33.8260   47.1590 C   0  0  0  0  0  0  0  0  0  0  0  0
   60.6340   32.8330   48.0780 C   0  0  0  0  0  0  0  0  0  0  0  0
   61.5590   31.8740   48.5010 C   0  0  0  0  0  0  0  0  0  0  0  0
   62.8690   31.9010   48.0150 C   0  0  0  0  0  0  0  0  0  0  0  0
   63.2570   32.8880   47.1050 C   0  0  0  0  0  0  0  0  0  0  0  0
   62.3340   33.8500   46.6770 C   0  0  0  0  0  0  0  0  0  0  0  0
   58.2340   32.0580   46.1940 N   0  0  0  0  0  0  0  0  0  0  0  0
   57.9700   31.3640   45.0680 C   0  0  0  0  0  0  0  0  0  0  0  0
   57.8050   29.9000   45.0640 C   0  0  0  0  0  0  0  0  0  0  0  0
   56.6490   29.4170   45.2300 O   0  0  0  0  0  0  0  0  0  0  0  0
   58.9210   29.0250   44.8270 N   0  0  0  0  0  0  0  0  0  0  0  0
   58.8330   27.5800   45.0500 C   0  0  0  0  0  0  0  0  0  0  0  0
   58.1640   27.2840   46.4100 C   0  0  0  0  0  0  0  0  0  0  0  0
   56.7280   26.7450   46.2710 C   0  0  0  0  0  0  0  0  0  0  0  0
   56.6190   25.5730   45.3660 N   0  0  0  0  0  0  0  0  0  0  0  0
   56.5540   24.0520   46.2470 S   0  0  0  0  0  0  0  0  0  0  0  0
   56.5420   22.6470   45.1410 C   0  0  0  0  0  0  0  0  0  0  0  0
   57.7560   23.9570   47.1510 O   0  0  0  0  0  0  0  0  0  0  0  0
   55.3130   24.0110   47.1010 O   0  0  0  0  0  0  0  0  0  0  0  0
   57.6290   25.5150   44.2840 C   0  0  0  0  0  0  0  0  0  0  0  0
   58.1020   26.9120   43.8760 C   0  0  0  0  0  0  0  0  0  0  0  0
   56.4281   30.4496   43.2963 H   0  0  0  0  0  0  0  0  0  0  0  0
   55.8910   31.2001   41.7552 H   0  0  0  0  0  0  0  0  0  0  0  0
   57.2445   30.0192   41.7552 H   0  0  0  0  0  0  0  0  0  0  0  0
   58.7180   31.6889   42.0804 H   0  0  0  0  0  0  0  0  0  0  0  0
   57.3549   32.8735   42.0469 H   0  0  0  0  0  0  0  0  0  0  0  0
   58.2482   34.4353   43.9843 H   0  0  0  0  0  0  0  0  0  0  0  0
   57.9176   35.2412   46.6021 H   0  0  0  0  0  0  0  0  0  0  0  0
   58.4082   34.0157   47.8353 H   0  0  0  0  0  0  0  0  0  0  0  0
   60.2639   35.2107   45.7198 H   0  0  0  0  0  0  0  0  0  0  0  0
   60.1530   35.7471   47.4463 H   0  0  0  0  0  0  0  0  0  0  0  0
   59.6048   32.8104   48.4655 H   0  0  0  0  0  0  0  0  0  0  0  0
   61.2552   31.0968   49.2177 H   0  0  0  0  0  0  0  0  0  0  0  0
   63.5950   31.1450   48.3489 H   0  0  0  0  0  0  0  0  0  0  0  0
   64.2889   32.9092   46.7244 H   0  0  0  0  0  0  0  0  0  0  0  0
   62.6427   34.6264   45.9615 H   0  0  0  0  0  0  0  0  0  0  0  0
   59.7310   29.3960   44.2810 H   0  0  0  0  0  0  0  0  0  0  0  0
   59.8450   27.1510   45.0929 H   0  0  0  0  0  0  0  0  0  0  0  0
   58.7691   26.5355   46.9425 H   0  0  0  0  0  0  0  0  0  0  0  0
   58.1063   28.2341   46.9614 H   0  0  0  0  0  0  0  0  0  0  0  0
   56.3693   26.4493   47.2680 H   0  0  0  0  0  0  0  0  0  0  0  0
   56.1219   27.5505   45.8308 H   0  0  0  0  0  0  0  0  0  0  0  0
   56.5341   21.7175   45.7291 H   0  0  0  0  0  0  0  0  0  0  0  0
   55.6442   22.6873   44.5067 H   0  0  0  0  0  0  0  0  0  0  0  0
   57.4404   22.6719   44.5067 H   0  0  0  0  0  0  0  0  0  0  0  0
   58.4945   24.9339   44.6350 H   0  0  0  0  0  0  0  0  0  0  0  0
   57.1651   25.0402   43.4069 H   0  0  0  0  0  0  0  0  0  0  0  0
   58.7870   26.8294   43.0193 H   0  0  0  0  0  0  0  0  0  0  0  0
   57.2304   27.5225   43.5976 H   0  0  0  0  0  0  0  0  0  0  0  0
  1  2  1  0
  2  3  1  0
  3  4  2  0
  4  5  1  0
  5  6  1  0
  6  7  1  0
  7  8  1  0
  8  9  2  0
  9 10  1  0
 10 11  2  0
 11 12  1  0
 12 13  2  0
  5 14  1  0
 14 15  2  0
 15 16  1  0
 16 17  2  0
 16 18  1  0
 18 19  1  0
 19 20  1  0
 20 21  1  0
 21 22  1  0
 22 23  1  0
 23 24  1  0
 23 25  2  0
 23 26  2  0
 22 27  1  0
 27 28  1  0
 15  3  1  0
 28 19  1  0
 13  8  1  0
  1 29  1  0
  1 30  1  0
  1 31  1  0
  2 32  1  0
  2 33  1  0
  4 34  1  0
  6 35  1  0
  6 36  1  0
  7 37  1  0
  7 38  1  0
  9 39  1  0
 10 40  1  0
 11 41  1  0
 12 42  1  0
 13 43  1  0
 18 44  1  0
 19 45  1  0
 20 46  1  0
 20 47  1  0
 21 48  1  0
 21 49  1  0
 24 50  1  0
 24 51  1  0
 24 52  1  0
 27 53  1  0
 27 54  1  0
 28 55  1  0
 28 56  1  0
M  END
>  <UniqueID>  (20) 
19

>  <SMILES>  (20) 
CCc1cn(CCc2ccccc2)nc1C(=O)NC1CCN(S(C)(=O)=O)CC1

>  <Energy>  (20) 
81.97325459769695

>  <Genealogy>  (20) 
CCc1cn(CCc2ccccc2)nc1C(=O)NC1CCN(S(C)(=O)=O)CC1 (3D coordinates assigned)
CCc1cn(CCc2ccccc2)nc1C(=O)NC1CCN(S(C)(=O)=O)CC1 (nonaromatic ring conformer: 81.97325459769695 kcal/mol)

>  <smiles>  (20) 
CCc1cn(CCc2ccccc2)nc1C(=O)NC1CCN(S(C)(=O)=O)CC1

>  <score_type>  (20) 
oracle

>  <origin>  (20) 
adg

>  <m_score__min__energy>  (20) 
-9.5399999999999991

>  <m_primary>  (20) 
energy

$$$$
20:0
     RDKit          3D

 50 53  0  0  0  0  0  0  0  0999 V2000
   55.9320   29.6080   44.8840 O   0  0  0  0  0  0  0  0  0  0  0  0
   57.1310   29.5690   45.2720 C   0  0  0  0  0  0  0  0  0  0  0  0
   57.9210   30.7660   45.2950 N   0  0  0  0  0  0  0  0  0  0  0  0
   57.4130   32.0480   44.8150 C   0  0  0  0  0  0  0  0  0  0  0  0
   58.1590   33.1810   45.4680 C   0  0  0  0  0  0  0  0  0  0  0  0
   58.6910   34.2240   44.6950 C   0  0  0  0  0  0  0  0  0  0  0  0
   59.3970   35.2610   45.3090 C   0  0  0  0  0  0  0  0  0  0  0  0
   59.5770   35.2650   46.6940 C   0  0  0  0  0  0  0  0  0  0  0  0
   59.0550   34.2330   47.4820 C   0  0  0  0  0  0  0  0  0  0  0  0
   59.2630   34.2870   48.8690 O   0  0  0  0  0  0  0  0  0  0  0  0
   60.2050   33.4960   49.5950 C   0  0  0  0  0  0  0  0  0  0  0  0
   61.4090   33.1840   48.7460 C   0  0  0  0  0  0  0  0  0  0  0  0
   62.4330   34.1340   48.6000 C   0  0  0  0  0  0  0  0  0  0  0  0
   63.5500   33.8510   47.8070 C   0  0  0  0  0  0  0  0  0  0  0  0
   63.6470   32.6220   47.1480 C   0  0  0  0  0  0  0  0  0  0  0  0
   62.6260   31.6770   47.2780 C   0  0  0  0  0  0  0  0  0  0  0  0
   61.5080   31.9570   48.0700 C   0  0  0  0  0  0  0  0  0  0  0  0
   58.3480   33.1850   46.8590 C   0  0  0  0  0  0  0  0  0  0  0  0
   57.7140   28.2910   45.7030 C   0  0  0  0  0  0  0  0  0  0  0  0
   58.9580   27.8030   45.3470 C   0  0  0  0  0  0  0  0  0  0  0  0
   59.0790   26.5830   45.9770 C   0  0  0  0  0  0  0  0  0  0  0  0
   57.9030   26.4090   46.6820 C   0  0  0  0  0  0  0  0  0  0  0  0
   57.5430   25.2130   47.5010 C   0  0  0  0  0  0  0  0  0  0  0  0
   57.2850   24.0750   46.6260 N   0  0  0  0  0  0  0  0  0  0  0  0
   57.0640   24.1330   45.3000 C   0  0  0  0  0  0  0  0  0  0  0  0
   56.9400   22.8430   44.8360 C   0  0  0  0  0  0  0  0  0  0  0  0
   56.6280   22.2870   43.0400 Br  0  0  0  0  0  0  0  0  0  0  0  0
   57.1080   22.0380   45.9440 C   0  0  0  0  0  0  0  0  0  0  0  0
   57.3260   22.8130   47.0260 N   0  0  0  0  0  0  0  0  0  0  0  0
   57.1080   27.4370   46.4970 O   0  0  0  0  0  0  0  0  0  0  0  0
   58.8970   30.7270   45.6650 H   0  0  0  0  0  0  0  0  0  0  0  0
   57.5460   32.1062   43.7246 H   0  0  0  0  0  0  0  0  0  0  0  0
   56.3456   32.1283   45.0682 H   0  0  0  0  0  0  0  0  0  0  0  0
   58.5519   34.2250   43.6038 H   0  0  0  0  0  0  0  0  0  0  0  0
   59.8126   36.0772   44.6998 H   0  0  0  0  0  0  0  0  0  0  0  0
   60.1337   36.0861   47.1693 H   0  0  0  0  0  0  0  0  0  0  0  0
   60.5279   34.0499   50.4888 H   0  0  0  0  0  0  0  0  0  0  0  0
   59.7228   32.5504   49.8836 H   0  0  0  0  0  0  0  0  0  0  0  0
   62.3563   35.1048   49.1115 H   0  0  0  0  0  0  0  0  0  0  0  0
   64.3525   34.5959   47.7019 H   0  0  0  0  0  0  0  0  0  0  0  0
   64.5271   32.3989   46.5271 H   0  0  0  0  0  0  0  0  0  0  0  0
   62.7017   30.7114   46.7566 H   0  0  0  0  0  0  0  0  0  0  0  0
   60.7030   31.2133   48.1639 H   0  0  0  0  0  0  0  0  0  0  0  0
   57.9411   32.3638   47.4674 H   0  0  0  0  0  0  0  0  0  0  0  0
   59.6989   28.2887   44.6949 H   0  0  0  0  0  0  0  0  0  0  0  0
   59.9334   25.8919   45.9287 H   0  0  0  0  0  0  0  0  0  0  0  0
   58.3745   24.9711   48.1793 H   0  0  0  0  0  0  0  0  0  0  0  0
   56.6386   25.4329   48.0873 H   0  0  0  0  0  0  0  0  0  0  0  0
   56.9947   25.0486   44.6944 H   0  0  0  0  0  0  0  0  0  0  0  0
   57.0701   20.9387   45.9447 H   0  0  0  0  0  0  0  0  0  0  0  0
  1  2  2  0
  2  3  1  0
  3  4  1  0
  4  5  1  0
  5  6  2  0
  6  7  1  0
  7  8  2  0
  8  9  1  0
  9 10  1  0
 10 11  1  0
 11 12  1  0
 12 13  2  0
 13 14  1  0
 14 15  2  0
 15 16  1  0
 16 17  2  0
  9 18  2  0
  2 19  1  0
 19 20  2  0
 20 21  1  0
 21 22  2  0
 22 23  1  0
 23 24  1  0
 24 25  1  0
 25 26  2  0
 26 27  1  0
 26 28  1  0
 28 29  2  0
 22 30  1  0
 18  5  1  0
 30 19  1  0
 17 12  1  0
 29 24  1  0
  3 31  1  0
  4 32  1  0
  4 33  1  0
  6 34  1  0
  7 35  1  0
  8 36  1  0
 11 37  1  0
 11 38  1  0
 13 39  1  0
 14 40  1  0
 15 41  1  0
 16 42  1  0
 17 43  1  0
 18 44  1  0
 20 45  1  0
 21 46  1  0
 23 47  1  0
 23 48  1  0
 25 49  1  0
 28 50  1  0
M  END
>  <UniqueID>  (21) 
20

>  <SMILES>  (21) 
O=C(NCc1cccc(OCc2ccccc2)c1)c1ccc(Cn2cc(Br)cn2)o1

>  <Energy>  (21) 
103.6313806309333

>  <Genealogy>  (21) 
O=C(NCc1cccc(OCc2ccccc2)c1)c1ccc(Cn2cc(Br)cn2)o1 (3D coordinates assigned)
O=C(NCc1cccc(OCc2ccccc2)c1)c1ccc(Cn2cc(Br)cn2)o1 (optimized conformer: 103.6313806309333 kcal/mol)

>  <smiles>  (21) 
O=C(NCc1cccc(OCc2ccccc2)c1)c1ccc(Cn2cc(Br)cn2)o1

>  <score_type>  (21) 
oracle

>  <origin>  (21) 
adg

>  <m_score__min__energy>  (21) 
-9.4299999999999997

>  <m_primary>  (21) 
energy

$$$$
21:0
     RDKit          3D

 50 52  0  0  0  0  0  0  0  0999 V2000
   56.7180   22.7620   44.5600 C   0  0  0  0  0  0  0  0  0  0  0  0
   56.8610   24.2130   44.9170 C   0  0  0  0  0  0  0  0  0  0  0  0
   57.5840   25.0680   44.0710 C   0  0  0  0  0  0  0  0  0  0  0  0
   57.7440   26.4140   44.3940 C   0  0  0  0  0  0  0  0  0  0  0  0
   57.1880   26.9310   45.5720 C   0  0  0  0  0  0  0  0  0  0  0  0
   57.3460   28.3610   45.9130 C   0  0  0  0  0  0  0  0  0  0  0  0
   58.1750   28.7010   46.8030 O   0  0  0  0  0  0  0  0  0  0  0  0
   56.5480   29.3740   45.2880 N   0  0  0  0  0  0  0  0  0  0  0  0
   57.0470   30.4950   44.5460 C   0  0  0  0  0  0  0  0  0  0  0  0
   56.9460   30.4830   43.1480 C   0  0  0  0  0  0  0  0  0  0  0  0
   57.3680   31.5870   42.4010 C   0  0  0  0  0  0  0  0  0  0  0  0
   57.8870   32.7140   43.0440 C   0  0  0  0  0  0  0  0  0  0  0  0
   57.9880   32.7460   44.4440 C   0  0  0  0  0  0  0  0  0  0  0  0
   58.5460   33.9270   45.1320 C   0  0  0  0  0  0  0  0  0  0  0  0
   58.3960   35.0680   44.6120 O   0  0  0  0  0  0  0  0  0  0  0  0
   59.2600   33.7990   46.3760 N   0  0  0  0  0  0  0  0  0  0  0  0
   59.2930   34.9560   47.2830 C   0  0  0  0  0  0  0  0  0  0  0  0
   59.7930   34.5530   48.6750 C   0  0  0  0  0  0  0  0  0  0  0  0
   60.9880   33.8030   48.5820 O   0  0  0  0  0  0  0  0  0  0  0  0
   60.7210   32.5700   47.9480 C   0  0  0  0  0  0  0  0  0  0  0  0
   60.3180   32.7840   46.4850 C   0  0  0  0  0  0  0  0  0  0  0  0
   57.5650   31.6350   45.1910 C   0  0  0  0  0  0  0  0  0  0  0  0
   56.4630   26.0820   46.4180 C   0  0  0  0  0  0  0  0  0  0  0  0
   56.3100   24.7160   46.1140 C   0  0  0  0  0  0  0  0  0  0  0  0
   55.6010   23.8270   46.9900 N   0  0  0  0  0  0  0  0  0  0  0  0
   56.3280   22.7880   48.1740 S   0  0  0  0  0  0  0  0  0  0  0  0
   55.0730   22.1480   49.2590 C   0  0  0  0  0  0  0  0  0  0  0  0
   57.3060   23.5860   48.9850 O   0  0  0  0  0  0  0  0  0  0  0  0
   57.0610   21.6630   47.4940 O   0  0  0  0  0  0  0  0  0  0  0  0
   56.6589   22.1621   45.4801 H   0  0  0  0  0  0  0  0  0  0  0  0
   55.8013   22.6184   43.9691 H   0  0  0  0  0  0  0  0  0  0  0  0
   57.5890   22.4422   43.9691 H   0  0  0  0  0  0  0  0  0  0  0  0
   58.0279   24.6725   43.1455 H   0  0  0  0  0  0  0  0  0  0  0  0
   58.3099   27.0745   43.7206 H   0  0  0  0  0  0  0  0  0  0  0  0
   56.5329   29.6012   42.6364 H   0  0  0  0  0  0  0  0  0  0  0  0
   57.2912   31.5684   41.3038 H   0  0  0  0  0  0  0  0  0  0  0  0
   58.2177   33.5794   42.4509 H   0  0  0  0  0  0  0  0  0  0  0  0
   59.9665   35.7196   46.8667 H   0  0  0  0  0  0  0  0  0  0  0  0
   58.2716   35.3525   47.3803 H   0  0  0  0  0  0  0  0  0  0  0  0
   59.9821   35.4607   49.2669 H   0  0  0  0  0  0  0  0  0  0  0  0
   59.0245   33.9328   49.1596 H   0  0  0  0  0  0  0  0  0  0  0  0
   61.6240   31.9429   47.9849 H   0  0  0  0  0  0  0  0  0  0  0  0
   59.8897   32.0772   48.4733 H   0  0  0  0  0  0  0  0  0  0  0  0
   61.1972   33.1174   45.9142 H   0  0  0  0  0  0  0  0  0  0  0  0
   59.9367   31.8339   46.0826 H   0  0  0  0  0  0  0  0  0  0  0  0
   57.6387   31.6550   46.2883 H   0  0  0  0  0  0  0  0  0  0  0  0
   56.0068   26.4884   47.3327 H   0  0  0  0  0  0  0  0  0  0  0  0
   55.3780   22.3035   50.3044 H   0  0  0  0  0  0  0  0  0  0  0  0
   54.1243   22.6724   49.0719 H   0  0  0  0  0  0  0  0  0  0  0  0
   54.9404   21.0722   49.0719 H   0  0  0  0  0  0  0  0  0  0  0  0
  1  2  1  0
  2  3  2  0
  3  4  1  0
  4  5  2  0
  5  6  1  0
  6  7  2  0
  6  8  1  0
  8  9  1  0
  9 10  2  0
 10 11  1  0
 11 12  2  0
 12 13  1  0
 13 14  1  0
 14 15  2  0
 14 16  1  0
 16 17  1  0
 17 18  1  0
 18 19  1  0
 19 20  1  0
 20 21  1  0
 13 22  2  0
  5 23  1  0
 23 24  2  0
 24 25  1  0
 25 26  1  0
 26 27  1  0
 26 28  2  0
 26 29  2  0
 24  2  1  0
 22  9  1  0
 21 16  1  0
  1 30  1  0
  1 31  1  0
  1 32  1  0
  3 33  1  0
  4 34  1  0
 10 35  1  0
 11 36  1  0
 12 37  1  0
 17 38  1  0
 17 39  1  0
 18 40  1  0
 18 41  1  0
 20 42  1  0
 20 43  1  0
 21 44  1  0
 21 45  1  0
 22 46  1  0
 23 47  1  0
 27 48  1  0
 27 49  1  0
 27 50  1  0
M  CHG  2   8  -1  25  -1
M  END
>  <UniqueID>  (22) 
21

>  <SMILES>  (22) 
Cc1ccc(C(=O)[N-]c2cccc(C(=O)N3CCOCC3)c2)cc1[N-]S(C)(=O)=O

>  <Energy>  (22) 
63.73072406705042

>  <Genealogy>  (22) 
Cc1ccc(C(=O)[N-]c2cccc(C(=O)N3CCOCC3)c2)cc1[N-]S(C)(=O)=O (protonated)
Cc1ccc(C(=O)[N-]c2cccc(C(=O)N3CCOCC3)c2)cc1[N-]S(C)(=O)=O (3D coordinates assigned)
Cc1ccc(C(=O)[N-]c2cccc(C(=O)N3CCOCC3)c2)cc1[N-]S(C)(=O)=O (nonaromatic ring conformer: 63.73072406705042 kcal/mol)

>  <smiles>  (22) 
Cc1ccc(C(=O)Nc2cccc(C(=O)N3CCOCC3)c2)cc1NS(C)(=O)=O

>  <score_type>  (22) 
oracle

>  <origin>  (22) 
adg

>  <m_score__min__energy>  (22) 
-13.1

>  <m_primary>  (22) 
energy

$$$$
22:0
     RDKit          3D

 61 64  0  0  1  0  0  0  0  0999 V2000
   60.7700   28.5740   44.8480 C   0  0  0  0  0  0  0  0  0  0  0  0
   60.5320   29.6690   45.7040 O   0  0  0  0  0  0  0  0  0  0  0  0
   60.6060   29.6310   47.0680 C   0  0  0  0  0  0  0  0  0  0  0  0
   60.3040   28.4620   47.7750 C   0  0  0  0  0  0  0  0  0  0  0  0
   60.3780   28.4170   49.1570 C   0  0  0  0  0  0  0  0  0  0  0  0
   60.7590   29.5490   49.8780 C   0  0  0  0  0  0  0  0  0  0  0  0
   61.0630   30.7210   49.1830 C   0  0  0  0  0  0  0  0  0  0  0  0
   60.9860   30.7530   47.8040 C   0  0  0  0  0  0  0  0  0  0  0  0
   61.3070   31.9800   47.1320 N   0  0  0  0  0  0  0  0  0  0  0  0
   60.4140   32.7350   46.6140 C   0  0  0  0  0  0  0  0  0  0  0  0
   60.6380   34.0910   46.4990 C   0  0  0  0  0  0  0  0  0  0  0  0
   59.6350   34.8520   45.9320 C   0  0  0  0  0  0  0  0  0  0  0  0
   58.4690   34.3060   45.5010 N   0  0  0  0  0  0  0  0  0  0  0  0
   58.3310   32.9760   45.6490 C   0  0  0  0  0  0  0  0  0  0  0  0
   57.2380   32.4190   45.2510 N   0  0  0  0  0  0  0  0  0  0  0  0
   57.1710   31.1190   44.6780 C   0  0  0  0  0  0  0  0  0  0  0  0
   56.8670   31.0240   43.3380 C   0  0  0  0  0  0  0  0  0  0  0  0
   56.8100   29.7520   42.8150 C   0  0  0  0  0  0  0  0  0  0  0  0
   57.0410   28.6270   43.5690 C   0  0  0  0  0  0  0  0  0  0  0  0
   57.3520   28.7100   44.9360 C   0  0  0  0  0  0  0  0  0  0  0  0
   57.5660   27.4970   45.5990 N   0  0  0  0  0  0  0  0  0  0  0  0
   56.6470   26.5690   46.0880 C   0  0  0  0  0  0  0  0  0  0  0  0
   55.4230   26.7170   45.9870 O   0  0  0  0  0  0  0  0  0  0  0  0
   57.1180   25.3240   46.7750 C   0  0  1  0  0  0  0  0  0  0  0  0
   56.0270   24.3870   46.9360 N   0  0  0  0  0  0  0  0  0  0  0  0
   58.2220   24.7020   45.9530 C   0  0  0  0  0  0  0  0  0  0  0  0
   57.6570   23.7690   44.9460 C   0  0  0  0  0  0  0  0  0  0  0  0
   56.8140   24.2520   43.9470 C   0  0  0  0  0  0  0  0  0  0  0  0
   56.3140   23.3250   43.0280 C   0  0  0  0  0  0  0  0  0  0  0  0
   56.6270   21.9960   43.0900 C   0  0  0  0  0  0  0  0  0  0  0  0
   57.4710   21.5200   44.0930 C   0  0  0  0  0  0  0  0  0  0  0  0
   57.9830   22.4120   45.0180 C   0  0  0  0  0  0  0  0  0  0  0  0
   57.4050   29.9730   45.4430 C   0  0  0  0  0  0  0  0  0  0  0  0
   57.6990   30.2080   46.7630 O   0  0  0  0  0  0  0  0  0  0  0  0
   59.2630   32.1820   46.1890 N   0  0  0  0  0  0  0  0  0  0  0  0
   60.9656   27.6741   45.4496 H   0  0  0  0  0  0  0  0  0  0  0  0
   59.8874   28.4061   44.2133 H   0  0  0  0  0  0  0  0  0  0  0  0
   61.6427   28.7876   44.2133 H   0  0  0  0  0  0  0  0  0  0  0  0
   60.0017   27.5605   47.2219 H   0  0  0  0  0  0  0  0  0  0  0  0
   60.1354   27.4850   49.6885 H   0  0  0  0  0  0  0  0  0  0  0  0
   60.8189   29.5186   50.9759 H   0  0  0  0  0  0  0  0  0  0  0  0
   61.3651   31.6228   49.7357 H   0  0  0  0  0  0  0  0  0  0  0  0
   61.5772   34.5475   46.8448 H   0  0  0  0  0  0  0  0  0  0  0  0
   59.7856   35.9365   45.8260 H   0  0  0  0  0  0  0  0  0  0  0  0
   57.7050   34.8710   45.0710 H   0  0  0  0  0  0  0  0  0  0  0  0
   56.6802   31.9148   42.7203 H   0  0  0  0  0  0  0  0  0  0  0  0
   56.5694   29.6312   41.7485 H   0  0  0  0  0  0  0  0  0  0  0  0
   56.9810   27.6382   43.0908 H   0  0  0  0  0  0  0  0  0  0  0  0
   58.5930   27.2200   45.7680 H   0  0  0  0  0  0  0  0  0  0  0  0
   57.4966   25.5800   47.7755 H   0  0  0  0  0  0  0  0  0  0  0  0
   56.1880   23.7980   47.7840 H   0  0  0  0  0  0  0  0  0  0  0  0
   55.1400   24.9290   47.0920 H   0  0  0  0  0  0  0  0  0  0  0  0
   58.7809   25.4966   45.4370 H   0  0  0  0  0  0  0  0  0  0  0  0
   58.8912   24.1412   46.6220 H   0  0  0  0  0  0  0  0  0  0  0  0
   56.5528   25.3187   43.8842 H   0  0  0  0  0  0  0  0  0  0  0  0
   55.6461   23.6770   42.2280 H   0  0  0  0  0  0  0  0  0  0  0  0
   56.2119   21.2997   42.3465 H   0  0  0  0  0  0  0  0  0  0  0  0
   57.7257   20.4513   44.1477 H   0  0  0  0  0  0  0  0  0  0  0  0
   58.6504   22.0512   45.8145 H   0  0  0  0  0  0  0  0  0  0  0  0
   57.6660   31.1860   47.0880 H   0  0  0  0  0  0  0  0  0  0  0  0
   59.1130   31.1710   46.2830 H   0  0  0  0  0  0  0  0  0  0  0  0
  1  2  1  0
  2  3  1  0
  3  4  2  0
  4  5  1  0
  5  6  2  0
  6  7  1  0
  7  8  2  0
  8  9  1  0
  9 10  2  0
 10 11  1  0
 11 12  2  0
 12 13  1  0
 13 14  1  0
 14 15  2  0
 15 16  1  0
 16 17  2  0
 17 18  1  0
 18 19  2  0
 19 20  1  0
 20 21  1  0
 21 22  1  0
 22 23  2  0
 22 24  1  0
 24 25  1  0
 24 26  1  0
 26 27  1  0
 27 28  2  0
 28 29  1  0
 29 30  2  0
 30 31  1  0
 31 32  2  0
 20 33  2  0
 33 34  1  0
 14 35  1  0
  8  3  1  0
 35 10  1  0
 33 16  1  0
 32 27  1  0
  1 36  1  0
  1 37  1  0
  1 38  1  0
  4 39  1  0
  5 40  1  0
  6 41  1  0
  7 42  1  0
 11 43  1  0
 12 44  1  0
 13 45  1  0
 17 46  1  0
 18 47  1  0
 19 48  1  0
 21 49  1  0
 24 50  1  1
 25 51  1  0
 25 52  1  0
 26 53  1  0
 26 54  1  0
 28 55  1  0
 29 56  1  0
 30 57  1  0
 31 58  1  0
 32 59  1  0
 34 60  1  0
 35 61  1  0
M  END
>  <smiles>  (23) 
COc1ccccc1N=c1cc[nH]c(=Nc2cccc(NC(=O)C(N)Cc3ccccc3)c2O)[nH]1

>  <score_type>  (23) 
oracle

>  <origin>  (23) 
adg

>  <m_score__min__energy>  (23) 
-10.369999999999999

>  <m_primary>  (23) 
energy

$$$$
23:0
     RDKit          3D

 53 56  0  0  0  0  0  0  0  0999 V2000
   59.4530   29.4020   50.3910 C   0  0  0  0  0  0  0  0  0  0  0  0
   59.4140   30.0950   49.0940 N   0  0  0  0  0  0  0  0  0  0  0  0
   60.7880   30.3650   48.6120 C   0  0  0  0  0  0  0  0  0  0  0  0
   60.8070   30.5890   47.0960 C   0  0  0  0  0  0  0  0  0  0  0  0
   60.3710   29.3740   46.3620 N   0  0  0  0  0  0  0  0  0  0  0  0
   59.8510   29.7150   45.0210 C   0  0  0  0  0  0  0  0  0  0  0  0
   58.3430   29.8270   45.0480 C   0  0  0  0  0  0  0  0  0  0  0  0
   57.4590   28.8380   44.6420 C   0  0  0  0  0  0  0  0  0  0  0  0
   57.7690   27.4530   44.2600 C   0  0  0  0  0  0  0  0  0  0  0  0
   58.1960   27.2110   43.0980 O   0  0  0  0  0  0  0  0  0  0  0  0
   57.5910   26.3780   45.1890 N   0  0  0  0  0  0  0  0  0  0  0  0
   56.3930   26.2140   45.9960 C   0  0  0  0  0  0  0  0  0  0  0  0
   56.5030   24.8250   46.6130 C   0  0  0  0  0  0  0  0  0  0  0  0
   57.9500   24.3810   46.3980 C   0  0  0  0  0  0  0  0  0  0  0  0
   58.4850   25.2400   45.2620 C   0  0  0  0  0  0  0  0  0  0  0  0
   56.2440   29.4740   44.4920 C   0  0  0  0  0  0  0  0  0  0  0  0
   56.3830   30.7760   44.8080 N   0  0  0  0  0  0  0  0  0  0  0  0
   57.6460   30.9840   45.1460 N   0  0  0  0  0  0  0  0  0  0  0  0
   58.1520   32.2820   45.4900 C   0  0  0  0  0  0  0  0  0  0  0  0
   58.3090   32.6390   46.8390 C   0  0  0  0  0  0  0  0  0  0  0  0
   58.8160   33.8960   47.1800 C   0  0  0  0  0  0  0  0  0  0  0  0
   59.1840   34.7980   46.1790 C   0  0  0  0  0  0  0  0  0  0  0  0
   59.0500   34.4430   44.8340 C   0  0  0  0  0  0  0  0  0  0  0  0
   58.5420   33.1870   44.4890 C   0  0  0  0  0  0  0  0  0  0  0  0
   59.4110   28.5370   47.1250 C   0  0  0  0  0  0  0  0  0  0  0  0
   58.5730   29.3640   48.1130 C   0  0  0  0  0  0  0  0  0  0  0  0
   59.4113   30.1422   51.2036 H   0  0  0  0  0  0  0  0  0  0  0  0
   58.5917   28.7223   50.4696 H   0  0  0  0  0  0  0  0  0  0  0  0
   60.3851   28.8233   50.4696 H   0  0  0  0  0  0  0  0  0  0  0  0
   61.1741   31.2650   49.1130 H   0  0  0  0  0  0  0  0  0  0  0  0
   61.4173   29.4932   48.8442 H   0  0  0  0  0  0  0  0  0  0  0  0
   60.1288   31.4190   46.8486 H   0  0  0  0  0  0  0  0  0  0  0  0
   61.8384   30.8236   46.7942 H   0  0  0  0  0  0  0  0  0  0  0  0
   60.2793   30.6763   44.7008 H   0  0  0  0  0  0  0  0  0  0  0  0
   60.1351   28.9188   44.3172 H   0  0  0  0  0  0  0  0  0  0  0  0
   56.3517   26.9817   46.7827 H   0  0  0  0  0  0  0  0  0  0  0  0
   55.4785   26.3214   45.3943 H   0  0  0  0  0  0  0  0  0  0  0  0
   56.2712   24.8648   47.6876 H   0  0  0  0  0  0  0  0  0  0  0  0
   55.7935   24.1222   46.1518 H   0  0  0  0  0  0  0  0  0  0  0  0
   58.5402   24.5442   47.3118 H   0  0  0  0  0  0  0  0  0  0  0  0
   58.0123   23.3093   46.1580 H   0  0  0  0  0  0  0  0  0  0  0  0
   59.5117   25.5699   45.4791 H   0  0  0  0  0  0  0  0  0  0  0  0
   58.5225   24.6865   44.3121 H   0  0  0  0  0  0  0  0  0  0  0  0
   55.3096   28.9938   44.1659 H   0  0  0  0  0  0  0  0  0  0  0  0
   58.0320   31.9268   47.6302 H   0  0  0  0  0  0  0  0  0  0  0  0
   58.9254   34.1754   48.2383 H   0  0  0  0  0  0  0  0  0  0  0  0
   59.5794   35.7882   46.4495 H   0  0  0  0  0  0  0  0  0  0  0  0
   59.3444   35.1522   44.0463 H   0  0  0  0  0  0  0  0  0  0  0  0
   58.4474   32.9064   43.4296 H   0  0  0  0  0  0  0  0  0  0  0  0
   58.7330   28.0403   46.4154 H   0  0  0  0  0  0  0  0  0  0  0  0
   59.9908   27.8049   47.7062 H   0  0  0  0  0  0  0  0  0  0  0  0
   57.9764   30.0937   47.5459 H   0  0  0  0  0  0  0  0  0  0  0  0
   57.9315   28.6681   48.6736 H   0  0  0  0  0  0  0  0  0  0  0  0
  1  2  1  0
  2  3  1  0
  3  4  1  0
  4  5  1  0
  5  6  1  0
  6  7  1  0
  7  8  2  0
  8  9  1  0
  9 10  2  0
  9 11  1  0
 11 12  1  0
 12 13  1  0
 13 14  1  0
 14 15  1  0
  8 16  1  0
 16 17  2  0
 17 18  1  0
 18 19  1  0
 19 20  2  0
 20 21  1  0
 21 22  2  0
 22 23  1  0
 23 24  2  0
  5 25  1  0
 25 26  1  0
 26  2  1  0
 18  7  1  0
 24 19  1  0
 15 11  1  0
  1 27  1  0
  1 28  1  0
  1 29  1  0
  3 30  1  0
  3 31  1  0
  4 32  1  0
  4 33  1  0
  6 34  1  0
  6 35  1  0
 12 36  1  0
 12 37  1  0
 13 38  1  0
 13 39  1  0
 14 40  1  0
 14 41  1  0
 15 42  1  0
 15 43  1  0
 16 44  1  0
 20 45  1  0
 21 46  1  0
 22 47  1  0
 23 48  1  0
 24 49  1  0
 25 50  1  0
 25 51  1  0
 26 52  1  0
 26 53  1  0
M  END
>  <UniqueID>  (24) 
22

>  <SMILES>  (24) 
CN1CCN(Cc2c(C(=O)N3CCCC3)cnn2-c2ccccc2)CC1

>  <Energy>  (24) 
105.86449776568217

>  <Genealogy>  (24) 
CN1CCN(Cc2c(C(=O)N3CCCC3)cnn2-c2ccccc2)CC1 (3D coordinates assigned)
CN1CCN(Cc2c(C(=O)N3CCCC3)cnn2-c2ccccc2)CC1 (nonaromatic ring conformer: 105.86449776568217 kcal/mol)

>  <smiles>  (24) 
CN1CCN(Cc2c(C(=O)N3CCCC3)cnn2-c2ccccc2)CC1

>  <score_type>  (24) 
oracle

>  <origin>  (24) 
adg

>  <m_score__min__energy>  (24) 
-7.7599999999999998

>  <m_primary>  (24) 
energy

$$$$
24:0
     RDKit          3D

 53 56  0  0  0  0  0  0  0  0999 V2000
   59.6840   27.9730   46.4750 C   0  0  0  0  0  0  0  0  0  0  0  0
   58.7430   28.6230   45.7720 C   0  0  0  0  0  0  0  0  0  0  0  0
   57.8480   28.0670   44.8440 C   0  0  0  0  0  0  0  0  0  0  0  0
   57.5290   26.7840   44.5830 C   0  0  0  0  0  0  0  0  0  0  0  0
   57.0650   25.7980   45.5720 C   0  0  0  0  0  0  0  0  0  0  0  0
   57.8310   24.8320   46.1120 N   0  0  0  0  0  0  0  0  0  0  0  0
   57.0260   24.2820   47.0470 C   0  0  0  0  0  0  0  0  0  0  0  0
   57.3880   23.3170   47.7680 O   0  0  0  0  0  0  0  0  0  0  0  0
   55.8090   24.8560   47.1560 N   0  0  0  0  0  0  0  0  0  0  0  0
   55.8560   25.8220   46.2260 C   0  0  0  0  0  0  0  0  0  0  0  0
   54.8180   26.7110   45.9810 O   0  0  0  0  0  0  0  0  0  0  0  0
   57.2680   29.1340   44.1780 C   0  0  0  0  0  0  0  0  0  0  0  0
   57.7560   30.2840   44.7620 C   0  0  0  0  0  0  0  0  0  0  0  0
   57.3690   31.6740   44.3560 C   0  0  0  0  0  0  0  0  0  0  0  0
   58.6500   29.9780   45.7300 N   0  0  0  0  0  0  0  0  0  0  0  0
   59.3870   30.9250   46.5240 C   0  0  0  0  0  0  0  0  0  0  0  0
   60.7790   31.0230   46.3920 C   0  0  0  0  0  0  0  0  0  0  0  0
   61.4980   31.9360   47.1680 C   0  0  0  0  0  0  0  0  0  0  0  0
   60.8350   32.7580   48.0950 C   0  0  0  0  0  0  0  0  0  0  0  0
   61.6030   33.7280   48.9090 C   0  0  0  0  0  0  0  0  0  0  0  0
   61.2330   34.9340   48.9300 O   0  0  0  0  0  0  0  0  0  0  0  0
   62.7560   33.3290   49.6740 N   0  0  0  0  0  0  0  0  0  0  0  0
   63.6810   32.3040   49.1630 C   0  0  0  0  0  0  0  0  0  0  0  0
   65.1260   32.7230   49.4430 C   0  0  0  0  0  0  0  0  0  0  0  0
   65.3880   32.9330   50.9560 C   0  0  0  0  0  0  0  0  0  0  0  0
   66.4880   33.9810   51.1690 C   0  0  0  0  0  0  0  0  0  0  0  0
   64.1070   33.2980   51.7510 C   0  0  0  0  0  0  0  0  0  0  0  0
   63.0890   34.0680   50.9010 C   0  0  0  0  0  0  0  0  0  0  0  0
   59.4380   32.6710   48.2110 C   0  0  0  0  0  0  0  0  0  0  0  0
   58.7200   31.7570   47.4340 C   0  0  0  0  0  0  0  0  0  0  0  0
   60.3271   28.5258   47.1756 H   0  0  0  0  0  0  0  0  0  0  0  0
   59.8120   26.8876   46.3504 H   0  0  0  0  0  0  0  0  0  0  0  0
   57.6236   26.4445   43.5410 H   0  0  0  0  0  0  0  0  0  0  0  0
   56.5545   29.0753   43.3429 H   0  0  0  0  0  0  0  0  0  0  0  0
   57.1990   32.2846   45.2550 H   0  0  0  0  0  0  0  0  0  0  0  0
   58.1772   32.1196   43.7575 H   0  0  0  0  0  0  0  0  0  0  0  0
   56.4468   31.6378   43.7575 H   0  0  0  0  0  0  0  0  0  0  0  0
   61.3077   30.3784   45.6744 H   0  0  0  0  0  0  0  0  0  0  0  0
   62.5893   32.0117   47.0525 H   0  0  0  0  0  0  0  0  0  0  0  0
   63.4756   31.3455   49.6621 H   0  0  0  0  0  0  0  0  0  0  0  0
   63.5385   32.1952   48.0777 H   0  0  0  0  0  0  0  0  0  0  0  0
   65.8014   31.9383   49.0714 H   0  0  0  0  0  0  0  0  0  0  0  0
   65.3070   33.6798   48.9313 H   0  0  0  0  0  0  0  0  0  0  0  0
   65.7306   31.9676   51.3567 H   0  0  0  0  0  0  0  0  0  0  0  0
   66.6466   34.1321   52.2470 H   0  0  0  0  0  0  0  0  0  0  0  0
   67.4226   33.6309   50.7064 H   0  0  0  0  0  0  0  0  0  0  0  0
   66.1835   34.9314   50.7064 H   0  0  0  0  0  0  0  0  0  0  0  0
   63.6376   32.3700   52.1093 H   0  0  0  0  0  0  0  0  0  0  0  0
   64.4055   33.9483   52.5864 H   0  0  0  0  0  0  0  0  0  0  0  0
   62.1718   34.2197   51.4890 H   0  0  0  0  0  0  0  0  0  0  0  0
   63.5311   35.0345   50.6173 H   0  0  0  0  0  0  0  0  0  0  0  0
   58.9059   33.3255   48.9170 H   0  0  0  0  0  0  0  0  0  0  0  0
   57.6269   31.6904   47.5372 H   0  0  0  0  0  0  0  0  0  0  0  0
  1  2  2  0
  2  3  1  0
  3  4  2  3
  4  5  1  0
  5  6  1  0
  6  7  1  0
  7  8  2  0
  7  9  1  0
  9 10  1  0
 10 11  1  0
  3 12  1  0
 12 13  2  0
 13 14  1  0
 13 15  1  0
 15 16  1  0
 16 17  2  0
 17 18  1  0
 18 19  2  0
 19 20  1  0
 20 21  2  0
 20 22  1  0
 22 23  1  0
 23 24  1  0
 24 25  1  0
 25 26  1  0
 25 27  1  0
 27 28  1  0
 19 29  1  0
 29 30  2  0
 15  2  1  0
 30 16  1  0
 10  5  2  0
 28 22  1  0
  1 31  1  0
  1 32  1  0
  4 33  1  0
 12 34  1  0
 14 35  1  0
 14 36  1  0
 14 37  1  0
 17 38  1  0
 18 39  1  0
 23 40  1  0
 23 41  1  0
 24 42  1  0
 24 43  1  0
 25 44  1  0
 26 45  1  0
 26 46  1  0
 26 47  1  0
 27 48  1  0
 27 49  1  0
 28 50  1  0
 28 51  1  0
 29 52  1  0
 30 53  1  0
M  CHG  3   6  -1   9  -1  11  -1
M  END
>  <UniqueID>  (25) 
23

>  <SMILES>  (25) 
C=c1c(=Cc2[n-]c(=O)[n-]c2[O-])cc(C)n1-c1ccc(C(=O)N2CCC(C)CC2)cc1

>  <Energy>  (25) 
134.99206739539255

>  <Genealogy>  (25) 
C=c1c(=Cc2[n-]c(=O)[n-]c2[O-])cc(C)n1-c1ccc(C(=O)N2CCC(C)CC2)cc1 (protonated)
C=c1c(=Cc2[n-]c(=O)[n-]c2[O-])cc(C)n1-c1ccc(C(=O)N2CCC(C)CC2)cc1 (3D coordinates assigned)
C=c1c(=Cc2[n-]c(=O)[n-]c2[O-])cc(C)n1-c1ccc(C(=O)N2CCC(C)CC2)cc1 (nonaromatic ring conformer: 134.99206739539255 kcal/mol)

>  <smiles>  (25) 
C=c1c(=Cc2[nH]c(=O)[nH]c2O)cc(C)n1-c1ccc(C(=O)N2CCC(C)CC2)cc1

>  <score_type>  (25) 
oracle

>  <origin>  (25) 
adg

>  <m_score__min__energy>  (25) 
-16.030000000000001

>  <m_primary>  (25) 
energy

$$$$
25:0
     RDKit          3D

 39 41  0  0  0  0  0  0  0  0999 V2000
   57.4080   31.9550   42.3790 C   0  0  0  0  0  0  0  0  0  0  0  0
   57.5600   31.2450   43.6800 C   0  0  0  0  0  0  0  0  0  0  0  0
   58.7380   30.8090   44.1650 N   0  0  0  0  0  0  0  0  0  0  0  0
   58.3540   30.2800   45.3470 C   0  0  0  0  0  0  0  0  0  0  0  0
   59.3060   29.6550   46.3300 C   0  0  0  0  0  0  0  0  0  0  0  0
   59.6390   28.2520   46.0040 N   0  0  0  0  0  0  0  0  0  0  0  0
   59.1700   27.2960   47.0340 C   0  0  0  0  0  0  0  0  0  0  0  0
   59.1440   25.8580   46.5090 C   0  0  0  0  0  0  0  0  0  0  0  0
   58.2700   25.7730   45.3300 N   0  0  0  0  0  0  0  0  0  0  0  0
   57.5670   24.5430   45.0490 C   0  0  0  0  0  0  0  0  0  0  0  0
   57.9110   23.4800   45.6360 O   0  0  0  0  0  0  0  0  0  0  0  0
   56.4340   24.4770   44.0620 C   0  0  0  0  0  0  0  0  0  0  0  0
   55.1470   24.1480   44.7560 C   0  0  0  0  0  0  0  0  0  0  0  0
   54.5130   22.9650   44.6560 N   0  0  0  0  0  0  0  0  0  0  0  0
   53.4360   23.1210   45.4560 C   0  0  0  0  0  0  0  0  0  0  0  0
   52.5830   22.2130   45.6260 O   0  0  0  0  0  0  0  0  0  0  0  0
   53.3460   24.3270   46.0580 N   0  0  0  0  0  0  0  0  0  0  0  0
   54.4380   24.9640   45.6060 C   0  0  0  0  0  0  0  0  0  0  0  0
   54.7840   26.2630   45.9590 O   0  0  0  0  0  0  0  0  0  0  0  0
   58.1350   26.9490   44.4590 C   0  0  0  0  0  0  0  0  0  0  0  0
   59.3530   27.8760   44.5980 C   0  0  0  0  0  0  0  0  0  0  0  0
   57.0290   30.3960   45.5600 N   0  0  0  0  0  0  0  0  0  0  0  0
   56.5740   31.0020   44.5070 O   0  0  0  0  0  0  0  0  0  0  0  0
   57.1810   33.0153   42.5642 H   0  0  0  0  0  0  0  0  0  0  0  0
   58.3436   31.8750   41.8061 H   0  0  0  0  0  0  0  0  0  0  0  0
   56.5871   31.4989   41.8061 H   0  0  0  0  0  0  0  0  0  0  0  0
   60.2359   30.2425   46.3385 H   0  0  0  0  0  0  0  0  0  0  0  0
   58.8098   29.6544   47.3117 H   0  0  0  0  0  0  0  0  0  0  0  0
   59.8464   27.3462   47.9000 H   0  0  0  0  0  0  0  0  0  0  0  0
   58.1438   27.5746   47.3155 H   0  0  0  0  0  0  0  0  0  0  0  0
   60.1634   25.5527   46.2304 H   0  0  0  0  0  0  0  0  0  0  0  0
   58.7587   25.1918   47.2950 H   0  0  0  0  0  0  0  0  0  0  0  0
   56.3351   25.4507   43.5598 H   0  0  0  0  0  0  0  0  0  0  0  0
   56.6510   23.6889   43.3259 H   0  0  0  0  0  0  0  0  0  0  0  0
   54.3570   26.7110   46.7610 H   0  0  0  0  0  0  0  0  0  0  0  0
   58.0532   26.6158   43.4139 H   0  0  0  0  0  0  0  0  0  0  0  0
   57.2337   27.5053   44.7561 H   0  0  0  0  0  0  0  0  0  0  0  0
   60.2339   27.3611   44.1869 H   0  0  0  0  0  0  0  0  0  0  0  0
   59.1252   28.8022   44.0500 H   0  0  0  0  0  0  0  0  0  0  0  0
  1  2  1  0
  2  3  2  0
  3  4  1  0
  4  5  1  0
  5  6  1  0
  6  7  1  0
  7  8  1  0
  8  9  1  0
  9 10  1  0
 10 11  2  0
 10 12  1  0
 12 13  1  0
 13 14  1  0
 14 15  1  0
 15 16  2  0
 15 17  1  0
 17 18  1  0
 18 19  1  0
  9 20  1  0
 20 21  1  0
  4 22  2  0
 22 23  1  0
 23  2  1  0
 21  6  1  0
 18 13  2  0
  1 24  1  0
  1 25  1  0
  1 26  1  0
  5 27  1  0
  5 28  1  0
  7 29  1  0
  7 30  1  0
  8 31  1  0
  8 32  1  0
 12 33  1  0
 12 34  1  0
 19 35  1  0
 20 36  1  0
 20 37  1  0
 21 38  1  0
 21 39  1  0
M  CHG  2  14  -1  17  -1
M  END
>  <UniqueID>  (26) 
24

>  <SMILES>  (26) 
Cc1nc(CN2CCN(C(=O)Cc3[n-]c(=O)[n-]c3O)CC2)no1

>  <Energy>  (26) 
106.44311246665933

>  <Genealogy>  (26) 
Cc1nc(CN2CCN(C(=O)Cc3[n-]c(=O)[n-]c3O)CC2)no1 (protonated)
Cc1nc(CN2CCN(C(=O)Cc3[n-]c(=O)[n-]c3O)CC2)no1 (3D coordinates assigned)
Cc1nc(CN2CCN(C(=O)Cc3[n-]c(=O)[n-]c3O)CC2)no1 (nonaromatic ring conformer: 106.44311246665933 kcal/mol)

>  <smiles>  (26) 
Cc1nc(CN2CCN(C(=O)Cc3[nH]c(=O)[nH]c3O)CC2)no1

>  <score_type>  (26) 
oracle

>  <origin>  (26) 
adg

>  <m_score__min__energy>  (26) 
-12.16

>  <m_primary>  (26) 
energy

$$$$
26:0
     RDKit          3D

 48 50  0  0  0  0  0  0  0  0999 V2000
   56.3950   23.2990   46.8520 C   0  0  0  0  0  0  0  0  0  0  0  0
   56.3120   24.7370   46.4610 C   0  0  0  0  0  0  0  0  0  0  0  0
   55.1510   25.3850   46.2540 N   0  0  0  0  0  0  0  0  0  0  0  0
   55.4630   26.6440   46.0030 N   0  0  0  0  0  0  0  0  0  0  0  0
   56.8050   26.7280   46.0720 C   0  0  0  0  0  0  0  0  0  0  0  0
   57.5630   28.0130   45.9380 C   0  0  2  0  0  0  0  0  0  0  0  0
   56.7830   29.0160   45.0490 C   0  0  0  0  0  0  0  0  0  0  0  0
   57.7020   29.6880   44.1060 N   0  0  0  0  0  0  0  0  0  0  0  0
   57.0490   30.7490   43.3100 C   0  0  0  0  0  0  0  0  0  0  0  0
   57.7150   32.0960   43.4350 C   0  0  0  0  0  0  0  0  0  0  0  0
   58.3470   32.5740   42.4550 O   0  0  0  0  0  0  0  0  0  0  0  0
   57.6210   32.8320   44.6640 N   0  0  0  0  0  0  0  0  0  0  0  0
   58.3270   34.0970   44.8530 C   0  0  0  0  0  0  0  0  0  0  0  0
   59.1500   34.0510   46.1050 C   0  0  0  0  0  0  0  0  0  0  0  0
   58.6040   34.1790   47.3810 C   0  0  0  0  0  0  0  0  0  0  0  0
   59.8500   33.9720   48.4940 S   0  0  0  0  0  0  0  0  0  0  0  0
   61.0250   33.7250   47.3080 C   0  0  0  0  0  0  0  0  0  0  0  0
   62.4730   33.4100   47.5620 C   0  0  0  0  0  0  0  0  0  0  0  0
   62.9570   34.1080   48.8360 C   0  0  0  0  0  0  0  0  0  0  0  0
   63.3390   33.8040   46.3610 C   0  0  0  0  0  0  0  0  0  0  0  0
   60.4860   33.7850   46.0700 N   0  0  0  0  0  0  0  0  0  0  0  0
   58.9260   30.1350   44.7900 C   0  0  0  0  0  0  0  0  0  0  0  0
   59.6410   28.9140   45.4100 C   0  0  0  0  0  0  0  0  0  0  0  0
   58.8390   27.7430   45.3810 O   0  0  0  0  0  0  0  0  0  0  0  0
   57.3840   25.5510   46.3820 N   0  0  0  0  0  0  0  0  0  0  0  0
   56.3997   23.2170   47.9489 H   0  0  0  0  0  0  0  0  0  0  0  0
   55.5266   22.7584   46.4476 H   0  0  0  0  0  0  0  0  0  0  0  0
   57.3199   22.8619   46.4476 H   0  0  0  0  0  0  0  0  0  0  0  0
   57.6869   28.4681   46.9317 H   0  0  0  0  0  0  0  0  0  0  0  0
   56.0124   28.4743   44.4809 H   0  0  0  0  0  0  0  0  0  0  0  0
   56.3132   29.7744   45.6926 H   0  0  0  0  0  0  0  0  0  0  0  0
   57.0663   30.4497   42.2516 H   0  0  0  0  0  0  0  0  0  0  0  0
   56.0256   30.8587   43.6980 H   0  0  0  0  0  0  0  0  0  0  0  0
   57.1190   32.3940   45.4680 H   0  0  0  0  0  0  0  0  0  0  0  0
   58.9868   34.2767   43.9914 H   0  0  0  0  0  0  0  0  0  0  0  0
   57.5899   34.9090   44.9388 H   0  0  0  0  0  0  0  0  0  0  0  0
   57.5487   34.3793   47.6181 H   0  0  0  0  0  0  0  0  0  0  0  0
   62.5693   32.3235   47.7042 H   0  0  0  0  0  0  0  0  0  0  0  0
   62.5812   33.5660   49.7164 H   0  0  0  0  0  0  0  0  0  0  0  0
   64.0568   34.1179   48.8534 H   0  0  0  0  0  0  0  0  0  0  0  0
   62.5807   35.1415   48.8534 H   0  0  0  0  0  0  0  0  0  0  0  0
   64.2862   34.2349   46.7176 H   0  0  0  0  0  0  0  0  0  0  0  0
   63.5482   32.9125   45.7516 H   0  0  0  0  0  0  0  0  0  0  0  0
   62.8043   34.5475   45.7516 H   0  0  0  0  0  0  0  0  0  0  0  0
   59.5943   30.6229   44.0652 H   0  0  0  0  0  0  0  0  0  0  0  0
   58.6637   30.8499   45.5838 H   0  0  0  0  0  0  0  0  0  0  0  0
   60.5657   28.7225   44.8459 H   0  0  0  0  0  0  0  0  0  0  0  0
   59.8520   29.1491   46.4637 H   0  0  0  0  0  0  0  0  0  0  0  0
  1  2  1  0
  2  3  2  0
  3  4  1  0
  4  5  1  0
  5  6  1  0
  6  7  1  0
  7  8  1  0
  8  9  1  0
  9 10  1  0
 10 11  2  0
 10 12  1  0
 12 13  1  0
 13 14  1  0
 14 15  2  0
 15 16  1  0
 16 17  1  0
 17 18  1  0
 18 19  1  0
 18 20  1  0
 17 21  2  0
  8 22  1  0
 22 23  1  0
 23 24  1  0
  5 25  2  0
 25  2  1  0
 24  6  1  0
 21 14  1  0
  1 26  1  0
  1 27  1  0
  1 28  1  0
  6 29  1  1
  7 30  1  0
  7 31  1  0
  9 32  1  0
  9 33  1  0
 12 34  1  0
 13 35  1  0
 13 36  1  0
 15 37  1  0
 18 38  1  0
 19 39  1  0
 19 40  1  0
 19 41  1  0
 20 42  1  0
 20 43  1  0
 20 44  1  0
 22 45  1  0
 22 46  1  0
 23 47  1  0
 23 48  1  0
M  CHG  1   4  -1
M  END
>  <UniqueID>  (27) 
25

>  <SMILES>  (27) 
Cc1n[n-]c([C@@H]2CN(CC(=O)NCc3csc(C(C)C)n3)CCO2)n1

>  <Energy>  (27) 
110.71608662789956

>  <Genealogy>  (27) 
Cc1n[n-]c(C2CN(CC(=O)NCc3csc(C(C)C)n3)CCO2)n1 (protonated)
Cc1n[n-]c([C@@H]2CN(CC(=O)NCc3csc(C(C)C)n3)CCO2)n1 (chirality)
Cc1n[n-]c([C@@H]2CN(CC(=O)NCc3csc(C(C)C)n3)CCO2)n1 (3D coordinates assigned)
Cc1n[n-]c([C@@H]2CN(CC(=O)NCc3csc(C(C)C)n3)CCO2)n1 (nonaromatic ring conformer: 110.71608662789956 kcal/mol)

>  <smiles>  (27) 
Cc1n[nH]c(C2CN(CC(=O)NCc3csc(C(C)C)n3)CCO2)n1

>  <score_type>  (27) 
oracle

>  <origin>  (27) 
adg

>  <m_score__min__energy>  (27) 
-10.26

>  <m_primary>  (27) 
energy

$$$$
27:0
     RDKit          3D

 35 37  0  0  0  0  0  0  0  0999 V2000
   55.1770   26.4560   46.1320 N   0  0  0  0  0  0  0  0  0  0  0  0
   56.8930   26.5820   45.9710 S   0  0  0  0  0  0  0  0  0  0  0  0
   57.5570   26.0100   47.1930 O   0  0  0  0  0  0  0  0  0  0  0  0
   57.3410   25.7990   44.7680 O   0  0  0  0  0  0  0  0  0  0  0  0
   57.3430   28.2730   45.7830 C   0  0  0  0  0  0  0  0  0  0  0  0
   56.8930   29.0030   44.6750 C   0  0  0  0  0  0  0  0  0  0  0  0
   57.2620   30.3420   44.5160 C   0  0  0  0  0  0  0  0  0  0  0  0
   58.0970   30.9640   45.4550 C   0  0  0  0  0  0  0  0  0  0  0  0
   58.4650   32.3430   45.2820 N   0  0  0  0  0  0  0  0  0  0  0  0
   57.7910   33.2280   44.3430 C   0  0  0  0  0  0  0  0  0  0  0  0
   58.0930   34.6350   44.8740 C   0  0  0  0  0  0  0  0  0  0  0  0
   58.9740   34.4300   46.0160 N   0  0  0  0  0  0  0  0  0  0  0  0
   59.1540   33.1700   46.2160 C   0  0  0  0  0  0  0  0  0  0  0  0
   60.0820   32.6720   47.2560 C   0  0  0  0  0  0  0  0  0  0  0  0
   61.3700   32.2230   46.9160 C   0  0  0  0  0  0  0  0  0  0  0  0
   62.2400   31.7570   47.9060 C   0  0  0  0  0  0  0  0  0  0  0  0
   61.8380   31.7470   49.2460 C   0  0  0  0  0  0  0  0  0  0  0  0
   62.9320   31.1630   50.4860 Cl  0  0  0  0  0  0  0  0  0  0  0  0
   60.5650   32.2080   49.5940 C   0  0  0  0  0  0  0  0  0  0  0  0
   59.6930   32.6740   48.6060 C   0  0  0  0  0  0  0  0  0  0  0  0
   58.5390   30.2320   46.5710 C   0  0  0  0  0  0  0  0  0  0  0  0
   58.1700   28.8930   46.7290 C   0  0  0  0  0  0  0  0  0  0  0  0
   54.7650   26.7150   45.2090 H   0  0  0  0  0  0  0  0  0  0  0  0
   56.2466   28.5205   43.9271 H   0  0  0  0  0  0  0  0  0  0  0  0
   56.8951   30.9110   43.6490 H   0  0  0  0  0  0  0  0  0  0  0  0
   58.1931   33.0991   43.3273 H   0  0  0  0  0  0  0  0  0  0  0  0
   56.7121   33.0258   44.2716 H   0  0  0  0  0  0  0  0  0  0  0  0
   58.5943   35.2390   44.1034 H   0  0  0  0  0  0  0  0  0  0  0  0
   57.1763   35.1752   45.1530 H   0  0  0  0  0  0  0  0  0  0  0  0
   61.6950   32.2384   45.8652 H   0  0  0  0  0  0  0  0  0  0  0  0
   63.2425   31.3975   47.6309 H   0  0  0  0  0  0  0  0  0  0  0  0
   60.2489   32.2040   50.6476 H   0  0  0  0  0  0  0  0  0  0  0  0
   58.6962   33.0445   48.8871 H   0  0  0  0  0  0  0  0  0  0  0  0
   59.1787   30.7156   47.3239 H   0  0  0  0  0  0  0  0  0  0  0  0
   58.5301   28.3242   47.5989 H   0  0  0  0  0  0  0  0  0  0  0  0
  1  2  1  0
  2  3  2  0
  2  4  2  0
  2  5  1  0
  5  6  2  0
  6  7  1  0
  7  8  2  0
  8  9  1  0
  9 10  1  0
 10 11  1  0
 11 12  1  0
 12 13  2  0
 13 14  1  0
 14 15  2  0
 15 16  1  0
 16 17  2  0
 17 18  1  0
 17 19  1  0
 19 20  2  0
  8 21  1  0
 21 22  2  0
 22  5  1  0
 13  9  1  0
 20 14  1  0
  1 23  1  0
  6 24  1  0
  7 25  1  0
 10 26  1  0
 10 27  1  0
 11 28  1  0
 11 29  1  0
 15 30  1  0
 16 31  1  0
 19 32  1  0
 20 33  1  0
 21 34  1  0
 22 35  1  0
M  CHG  1   1  -1
M  END
>  <UniqueID>  (28) 
26

>  <SMILES>  (28) 
[NH-]S(=O)(=O)c1ccc(N2CCN=C2c2ccc(Cl)cc2)cc1

>  <Energy>  (28) 
55.970400710748834

>  <Genealogy>  (28) 
[NH-]S(=O)(=O)c1ccc(N2CCN=C2c2ccc(Cl)cc2)cc1 (protonated)
[NH-]S(=O)(=O)c1ccc(N2CCN=C2c2ccc(Cl)cc2)cc1 (3D coordinates assigned)
[NH-]S(=O)(=O)c1ccc(N2CCN=C2c2ccc(Cl)cc2)cc1 (nonaromatic ring conformer: 55.970400710748834 kcal/mol)

>  <smiles>  (28) 
NS(=O)(=O)c1ccc(N2CCN=C2c2ccc(Cl)cc2)cc1

>  <score_type>  (28) 
oracle

>  <origin>  (28) 
adg

>  <m_score__min__energy>  (28) 
-10.31

>  <m_primary>  (28) 
energy

$$$$
28:0
     RDKit          3D

 49 52  0  0  0  0  0  0  0  0999 V2000
   64.5120   32.3580   49.1000 C   0  0  0  0  0  0  0  0  0  0  0  0
   63.4850   32.6820   48.3300 C   0  0  0  0  0  0  0  0  0  0  0  0
   63.6410   33.2180   46.9490 C   0  0  0  0  0  0  0  0  0  0  0  0
   62.6450   34.1670   46.7620 O   0  0  0  0  0  0  0  0  0  0  0  0
   61.4010   33.5420   46.7080 C   0  0  0  0  0  0  0  0  0  0  0  0
   61.0720   32.9560   48.0150 C   0  0  0  0  0  0  0  0  0  0  0  0
   59.8920   32.7110   48.6750 C   0  0  0  0  0  0  0  0  0  0  0  0
   58.4920   32.9690   48.3010 C   0  0  0  0  0  0  0  0  0  0  0  0
   58.3670   33.0700   46.8400 C   0  0  0  0  0  0  0  0  0  0  0  0
   58.2690   34.3470   46.2870 C   0  0  0  0  0  0  0  0  0  0  0  0
   58.1420   34.5370   44.9210 C   0  0  0  0  0  0  0  0  0  0  0  0
   58.1100   33.4510   44.0750 C   0  0  0  0  0  0  0  0  0  0  0  0
   58.2040   32.1760   44.5910 C   0  0  0  0  0  0  0  0  0  0  0  0
   58.1720   31.0260   43.7250 N   0  0  0  0  0  0  0  0  0  0  0  0
   57.0370   30.1630   43.8670 C   0  0  0  0  0  0  0  0  0  0  0  0
   56.1900   30.4970   44.7310 O   0  0  0  0  0  0  0  0  0  0  0  0
   56.9370   28.9600   43.0090 C   0  0  0  0  0  0  0  0  0  0  0  0
   57.8140   27.9720   43.4820 O   0  0  0  0  0  0  0  0  0  0  0  0
   58.5160   28.1730   44.6470 C   0  0  0  0  0  0  0  0  0  0  0  0
   58.0340   27.9790   45.9100 C   0  0  0  0  0  0  0  0  0  0  0  0
   58.8150   28.2050   47.0290 C   0  0  0  0  0  0  0  0  0  0  0  0
   60.1280   28.6440   46.8760 C   0  0  0  0  0  0  0  0  0  0  0  0
   60.6390   28.8480   45.6100 C   0  0  0  0  0  0  0  0  0  0  0  0
   59.8220   28.6090   44.5290 C   0  0  0  0  0  0  0  0  0  0  0  0
   58.3310   32.0220   45.9660 C   0  0  0  0  0  0  0  0  0  0  0  0
   60.2770   32.1400   49.8530 N   0  0  0  0  0  0  0  0  0  0  0  0
   61.5750   32.0310   49.9370 N   0  0  0  0  0  0  0  0  0  0  0  0
   62.1120   32.5280   48.8130 C   0  0  0  0  0  0  0  0  0  0  0  0
   64.3379   31.9662   50.1130 H   0  0  0  0  0  0  0  0  0  0  0  0
   65.5395   32.4806   48.7268 H   0  0  0  0  0  0  0  0  0  0  0  0
   64.6312   33.6834   46.8350 H   0  0  0  0  0  0  0  0  0  0  0  0
   63.5567   32.4118   46.2054 H   0  0  0  0  0  0  0  0  0  0  0  0
   60.6335   34.2823   46.4378 H   0  0  0  0  0  0  0  0  0  0  0  0
   61.4327   32.7425   45.9532 H   0  0  0  0  0  0  0  0  0  0  0  0
   57.8612   32.1440   48.6634 H   0  0  0  0  0  0  0  0  0  0  0  0
   58.1681   33.9170   48.7552 H   0  0  0  0  0  0  0  0  0  0  0  0
   58.2932   35.2234   46.9513 H   0  0  0  0  0  0  0  0  0  0  0  0
   58.0667   35.5553   44.5119 H   0  0  0  0  0  0  0  0  0  0  0  0
   58.0097   33.6004   42.9898 H   0  0  0  0  0  0  0  0  0  0  0  0
   58.9340   30.8350   43.0340 H   0  0  0  0  0  0  0  0  0  0  0  0
   55.9061   28.5771   43.0337 H   0  0  0  0  0  0  0  0  0  0  0  0
   57.2063   29.2241   41.9757 H   0  0  0  0  0  0  0  0  0  0  0  0
   56.9977   27.6340   46.0408 H   0  0  0  0  0  0  0  0  0  0  0  0
   58.4013   28.0389   48.0346 H   0  0  0  0  0  0  0  0  0  0  0  0
   60.7554   28.8274   47.7607 H   0  0  0  0  0  0  0  0  0  0  0  0
   61.6739   29.1931   45.4689 H   0  0  0  0  0  0  0  0  0  0  0  0
   60.2288   28.7732   43.5203 H   0  0  0  0  0  0  0  0  0  0  0  0
   58.4065   31.0023   46.3715 H   0  0  0  0  0  0  0  0  0  0  0  0
   62.1020   31.6190   50.7600 H   0  0  0  0  0  0  0  0  0  0  0  0
  1  2  2  0
  2  3  1  0
  3  4  1  0
  4  5  1  0
  5  6  1  0
  6  7  1  0
  7  8  1  0
  8  9  1  0
  9 10  2  0
 10 11  1  0
 11 12  2  0
 12 13  1  0
 13 14  1  0
 14 15  1  0
 15 16  2  0
 15 17  1  0
 17 18  1  0
 18 19  1  0
 19 20  2  0
 20 21  1  0
 21 22  2  0
 22 23  1  0
 23 24  2  0
 13 25  2  0
  7 26  2  0
 26 27  1  0
 27 28  1  0
 28  2  1  0
 28  6  2  0
 25  9  1  0
 24 19  1  0
  1 29  1  0
  1 30  1  0
  3 31  1  0
  3 32  1  0
  5 33  1  0
  5 34  1  0
  8 35  1  0
  8 36  1  0
 10 37  1  0
 11 38  1  0
 12 39  1  0
 14 40  1  0
 17 41  1  0
 17 42  1  0
 20 43  1  0
 21 44  1  0
 22 45  1  0
 23 46  1  0
 24 47  1  0
 25 48  1  0
 27 49  1  0
M  END
>  <smiles>  (29) 
C=C1COCc2c(Cc3cccc(NC(=O)COc4ccccc4)c3)n[nH]c21

>  <score_type>  (29) 
oracle

>  <origin>  (29) 
adg

>  <m_score__min__energy>  (29) 
-9.1400000000000006

>  <m_primary>  (29) 
energy

$$$$
29:0
     RDKit          3D

 33 35  0  0  0  0  0  0  0  0999 V2000
   55.3755   21.3898   45.3977 H   0  0  0  0  0  0  0  0  0  0  0  0
   56.0030   22.2900   45.4750 C   0  0  0  0  0  0  0  0  0  0  0  0
   57.3420   22.1400   45.3650 C   0  0  0  0  0  0  0  0  0  0  0  0
   57.7360   21.1261   45.2016 H   0  0  0  0  0  0  0  0  0  0  0  0
   58.3340   23.2830   45.4530 C   0  0  0  0  0  0  0  0  0  0  0  0
   58.9780   23.1295   46.3315 H   0  0  0  0  0  0  0  0  0  0  0  0
   58.9275   23.2946   44.5269 H   0  0  0  0  0  0  0  0  0  0  0  0
   57.6450   24.6030   45.5820 C   0  0  0  0  0  0  0  0  0  0  0  0
   56.2850   24.7550   45.6930 C   0  0  0  0  0  0  0  0  0  0  0  0
   56.0500   26.1080   45.8360 C   0  0  0  0  0  0  0  0  0  0  0  0
   54.8020   26.6940   46.0070 O   0  0  0  0  0  0  0  0  0  0  0  0
   57.2150   26.7930   45.8040 N   0  0  0  0  0  0  0  0  0  0  0  0
   57.3910   28.2340   45.9870 C   0  0  0  0  0  0  0  0  0  0  0  0
   58.4662   28.4663   45.9839 H   0  0  0  0  0  0  0  0  0  0  0  0
   56.9322   28.5194   46.9452 H   0  0  0  0  0  0  0  0  0  0  0  0
   56.7170   29.0160   44.8870 C   0  0  0  0  0  0  0  0  0  0  0  0
   55.4760   29.2360   44.9450 O   0  0  0  0  0  0  0  0  0  0  0  0
   57.4480   29.5240   43.7620 N   0  0  0  0  0  0  0  0  0  0  0  0
   57.3110   30.7110   43.2540 C   0  0  0  0  0  0  0  0  0  0  0  0
   57.0703   30.8302   42.1873 H   0  0  0  0  0  0  0  0  0  0  0  0
   57.4780   31.8910   44.1060 C   0  0  0  0  0  0  0  0  0  0  0  0
   57.0090   31.9970   45.3280 O   0  0  0  0  0  0  0  0  0  0  0  0
   57.3360   33.1780   45.7990 C   0  0  0  0  0  0  0  0  0  0  0  0
   57.0792   33.5537   46.8004 H   0  0  0  0  0  0  0  0  0  0  0  0
   58.0510   33.8770   44.8470 C   0  0  0  0  0  0  0  0  0  0  0  0
   58.4640   34.8919   44.9439 H   0  0  0  0  0  0  0  0  0  0  0  0
   58.1430   33.0470   43.7510 C   0  0  0  0  0  0  0  0  0  0  0  0
   58.6417   33.2609   42.7941 H   0  0  0  0  0  0  0  0  0  0  0  0
   58.1900   25.8690   45.6620 C   0  0  0  0  0  0  0  0  0  0  0  0
   59.5480   26.1650   45.6190 O   0  0  0  0  0  0  0  0  0  0  0  0
   55.3120   23.6200   45.6980 C   0  0  0  0  0  0  0  0  0  0  0  0
   54.7970   23.5959   46.6697 H   0  0  0  0  0  0  0  0  0  0  0  0
   54.5967   23.7772   44.8773 H   0  0  0  0  0  0  0  0  0  0  0  0
  1  2  1  0
  2  3  2  0
  3  4  1  0
  3  5  1  0
  5  6  1  0
  5  7  1  0
  5  8  1  0
  8  9  1  0
  9 10  2  0
 10 11  1  0
 10 12  1  0
 12 13  1  0
 13 14  1  0
 13 15  1  0
 13 16  1  0
 16 17  2  0
 16 18  1  0
 18 19  2  0
 19 20  1  0
 19 21  1  0
 21 22  1  0
 22 23  1  0
 23 24  1  0
 23 25  2  0
 25 26  1  0
 25 27  1  0
 27 28  1  0
 12 29  1  0
 29 30  1  0
  9 31  1  0
 31 32  1  0
 31 33  1  0
 31  2  1  0
 29  8  2  0
 27 21  2  0
M  CHG  2  11  -1  30  -1
M  END
>  <UniqueID>  (30) 
27

>  <SMILES>  (30) 
O=C(Cn1c([O-])c2c(c1[O-])CC=CC2)/N=C/c1ccco1

>  <Energy>  (30) 
91.69888128897189

>  <Genealogy>  (30) 
O=C(Cn1c([O-])c2c(c1[O-])CC=CC2)N=Cc1ccco1 (protonated)
O=C(Cn1c([O-])c2c(c1[O-])CC=CC2)/N=C/c1ccco1 (cis-trans isomerization)
O=C(Cn1c([O-])c2c(c1[O-])CC=CC2)/N=C/c1ccco1 (3D coordinates assigned)
O=C(Cn1c([O-])c2c(c1[O-])CC=CC2)/N=C/c1ccco1 (nonaromatic ring conformer: 91.69888128897189 kcal/mol)

>  <smiles>  (30) 
O=C(Cn1c(O)c2c(c1O)CC=CC2)N=Cc1ccco1

>  <score_type>  (30) 
oracle

>  <origin>  (30) 
adg

>  <m_score__min__energy>  (30) 
-11.949999999999999

>  <m_primary>  (30) 
energy

$$$$
30:0
     RDKit          3D

 46 48  0  0  0  0  0  0  0  0999 V2000
   53.1800   20.3480   46.5310 C   0  0  0  0  0  0  0  0  0  0  0  0
   52.9630   21.7870   46.1460 C   0  0  0  0  0  0  0  0  0  0  0  0
   51.6970   22.2180   45.7350 C   0  0  0  0  0  0  0  0  0  0  0  0
   51.4910   23.5520   45.4000 C   0  0  0  0  0  0  0  0  0  0  0  0
   52.5490   24.4550   45.4820 C   0  0  0  0  0  0  0  0  0  0  0  0
   53.7910   24.0480   45.8960 N   0  0  0  0  0  0  0  0  0  0  0  0
   54.8210   24.9510   45.9800 C   0  0  0  0  0  0  0  0  0  0  0  0
   54.6190   26.2840   45.6190 O   0  0  0  0  0  0  0  0  0  0  0  0
   56.0970   24.5430   46.4120 C   0  0  0  0  0  0  0  0  0  0  0  0
   57.2110   25.5160   46.5130 C   0  0  0  0  0  0  0  0  0  0  0  0
   58.0250   25.4320   47.4720 O   0  0  0  0  0  0  0  0  0  0  0  0
   57.3610   26.5600   45.5350 N   0  0  0  0  0  0  0  0  0  0  0  0
   58.5860   27.3450   45.3920 C   0  0  0  0  0  0  0  0  0  0  0  0
   58.2840   28.7000   44.7470 C   0  0  0  0  0  0  0  0  0  0  0  0
   56.7920   29.0510   44.8130 C   0  0  0  0  0  0  0  0  0  0  0  0
   56.5460   30.3890   44.1930 C   0  0  0  0  0  0  0  0  0  0  0  0
   56.1630   30.4610   42.9930 O   0  0  0  0  0  0  0  0  0  0  0  0
   56.7990   31.5770   44.9480 N   0  0  0  0  0  0  0  0  0  0  0  0
   57.3990   32.7780   44.3800 C   0  0  0  0  0  0  0  0  0  0  0  0
   58.1870   33.5000   45.4260 C   0  0  0  0  0  0  0  0  0  0  0  0
   59.0980   34.5220   45.1920 C   0  0  0  0  0  0  0  0  0  0  0  0
   59.6410   35.0540   46.3680 C   0  0  0  0  0  0  0  0  0  0  0  0
   59.1540   34.4620   47.5270 C   0  0  0  0  0  0  0  0  0  0  0  0
   58.0440   33.2760   47.0870 S   0  0  0  0  0  0  0  0  0  0  0  0
   56.2730   23.1950   46.7610 C   0  0  0  0  0  0  0  0  0  0  0  0
   57.3790   22.7740   47.1920 O   0  0  0  0  0  0  0  0  0  0  0  0
   55.2370   22.3310   46.6570 N   0  0  0  0  0  0  0  0  0  0  0  0
   54.0080   22.7290   46.2320 C   0  0  0  0  0  0  0  0  0  0  0  0
   53.1933   20.2598   47.6274 H   0  0  0  0  0  0  0  0  0  0  0  0
   52.3645   19.7324   46.1235 H   0  0  0  0  0  0  0  0  0  0  0  0
   54.1407   20.0003   46.1235 H   0  0  0  0  0  0  0  0  0  0  0  0
   50.8643   21.5016   45.6768 H   0  0  0  0  0  0  0  0  0  0  0  0
   50.4978   23.8925   45.0720 H   0  0  0  0  0  0  0  0  0  0  0  0
   52.3855   25.5085   45.2109 H   0  0  0  0  0  0  0  0  0  0  0  0
   56.5960   26.7220   44.8420 H   0  0  0  0  0  0  0  0  0  0  0  0
   59.0292   27.5080   46.3855 H   0  0  0  0  0  0  0  0  0  0  0  0
   59.2878   26.7940   44.7487 H   0  0  0  0  0  0  0  0  0  0  0  0
   58.8552   29.4787   45.2737 H   0  0  0  0  0  0  0  0  0  0  0  0
   58.5717   28.6421   43.6869 H   0  0  0  0  0  0  0  0  0  0  0  0
   56.2153   28.2878   44.2699 H   0  0  0  0  0  0  0  0  0  0  0  0
   56.4778   29.0816   45.8667 H   0  0  0  0  0  0  0  0  0  0  0  0
   58.0658   32.4954   43.5520 H   0  0  0  0  0  0  0  0  0  0  0  0
   56.6019   33.4387   44.0084 H   0  0  0  0  0  0  0  0  0  0  0  0
   59.3655   34.8771   44.1859 H   0  0  0  0  0  0  0  0  0  0  0  0
   60.3840   35.8651   46.3738 H   0  0  0  0  0  0  0  0  0  0  0  0
   59.4441   34.7236   48.5553 H   0  0  0  0  0  0  0  0  0  0  0  0
  1  2  1  0
  2  3  2  0
  3  4  1  0
  4  5  2  0
  5  6  1  0
  6  7  1  0
  7  8  1  0
  7  9  2  0
  9 10  1  0
 10 11  2  0
 10 12  1  0
 12 13  1  0
 13 14  1  0
 14 15  1  0
 15 16  1  0
 16 17  2  0
 16 18  1  0
 18 19  1  0
 19 20  1  0
 20 21  2  0
 21 22  1  0
 22 23  2  0
 23 24  1  0
  9 25  1  0
 25 26  2  0
 25 27  1  0
 27 28  2  0
 28  2  1  0
 28  6  1  0
 24 20  1  0
  1 29  1  0
  1 30  1  0
  1 31  1  0
  3 32  1  0
  4 33  1  0
  5 34  1  0
 12 35  1  0
 13 36  1  0
 13 37  1  0
 14 38  1  0
 14 39  1  0
 15 40  1  0
 15 41  1  0
 19 42  1  0
 19 43  1  0
 21 44  1  0
 22 45  1  0
 23 46  1  0
M  CHG  2   8  -1  18  -1
M  END
>  <UniqueID>  (31) 
28

>  <SMILES>  (31) 
Cc1cccn2c([O-])c(C(=O)NCCCC(=O)[N-]Cc3cccs3)c(=O)nc12

>  <Energy>  (31) 
74.92649921483336

>  <Genealogy>  (31) 
Cc1cccn2c([O-])c(C(=O)NCCCC(=O)[N-]Cc3cccs3)c(=O)nc12 (protonated)
Cc1cccn2c([O-])c(C(=O)NCCCC(=O)[N-]Cc3cccs3)c(=O)nc12 (3D coordinates assigned)
Cc1cccn2c([O-])c(C(=O)NCCCC(=O)[N-]Cc3cccs3)c(=O)nc12 (optimized conformer: 74.92649921483336 kcal/mol)

>  <smiles>  (31) 
Cc1cccn2c(O)c(C(=O)NCCCC(=O)NCc3cccs3)c(=O)nc12

>  <score_type>  (31) 
oracle

>  <origin>  (31) 
adg

>  <m_score__min__energy>  (31) 
-12.4

>  <m_primary>  (31) 
energy

$$$$
31:0
     RDKit          3D

 55 57  0  0  0  0  0  0  0  0999 V2000
   65.2600   33.0750   49.4500 C   0  0  0  0  0  0  0  0  0  0  0  0
   63.9140   33.3730   48.8810 C   0  0  0  0  0  0  0  0  0  0  0  0
   63.6120   33.4540   47.5280 C   0  0  0  0  0  0  0  0  0  0  0  0
   62.2740   33.7790   47.2810 C   0  0  0  0  0  0  0  0  0  0  0  0
   61.5290   33.9600   48.4420 C   0  0  0  0  0  0  0  0  0  0  0  0
   60.1070   34.3200   48.5010 C   0  0  0  0  0  0  0  0  0  0  0  0
   59.4000   33.9250   49.4660 O   0  0  0  0  0  0  0  0  0  0  0  0
   59.5300   35.1210   47.4640 N   0  0  0  0  0  0  0  0  0  0  0  0
   59.8220   34.9390   46.0470 C   0  0  0  0  0  0  0  0  0  0  0  0
   59.0440   33.7690   45.5090 C   0  0  0  0  0  0  0  0  0  0  0  0
   58.5330   32.7890   46.3750 C   0  0  0  0  0  0  0  0  0  0  0  0
   57.7520   31.7440   45.8730 C   0  0  0  0  0  0  0  0  0  0  0  0
   57.4540   31.6800   44.5050 C   0  0  0  0  0  0  0  0  0  0  0  0
   56.5590   30.6250   43.9950 C   0  0  0  0  0  0  0  0  0  0  0  0
   56.4110   30.4920   42.7520 O   0  0  0  0  0  0  0  0  0  0  0  0
   55.8790   29.7210   44.8780 N   0  0  0  0  0  0  0  0  0  0  0  0
   56.3570   28.3890   45.2420 C   0  0  0  0  0  0  0  0  0  0  0  0
   57.6830   28.0770   44.5340 C   0  0  0  0  0  0  0  0  0  0  0  0
   58.7820   27.9550   45.5190 N   0  0  0  0  0  0  0  0  0  0  0  0
   59.1950   26.5430   45.6480 C   0  0  0  0  0  0  0  0  0  0  0  0
   58.3540   28.4880   46.8320 C   0  0  0  0  0  0  0  0  0  0  0  0
   59.4610   29.2680   47.4970 C   0  0  0  0  0  0  0  0  0  0  0  0
   60.4560   29.8910   46.7270 C   0  0  0  0  0  0  0  0  0  0  0  0
   61.4840   30.6040   47.3510 C   0  0  0  0  0  0  0  0  0  0  0  0
   61.5220   30.7060   48.7440 C   0  0  0  0  0  0  0  0  0  0  0  0
   60.5320   30.0920   49.5160 C   0  0  0  0  0  0  0  0  0  0  0  0
   59.5060   29.3710   48.8970 C   0  0  0  0  0  0  0  0  0  0  0  0
   57.9910   32.6390   43.6350 C   0  0  0  0  0  0  0  0  0  0  0  0
   58.7790   33.6800   44.1350 C   0  0  0  0  0  0  0  0  0  0  0  0
   62.5320   33.7250   49.7740 S   0  0  0  0  0  0  0  0  0  0  0  0
   65.2046   33.0873   50.5485 H   0  0  0  0  0  0  0  0  0  0  0  0
   65.5899   32.0821   49.1106 H   0  0  0  0  0  0  0  0  0  0  0  0
   65.9782   33.8359   49.1106 H   0  0  0  0  0  0  0  0  0  0  0  0
   64.3501   33.2802   46.7312 H   0  0  0  0  0  0  0  0  0  0  0  0
   61.8530   33.8812   46.2699 H   0  0  0  0  0  0  0  0  0  0  0  0
   59.5395   35.8486   45.4968 H   0  0  0  0  0  0  0  0  0  0  0  0
   60.8977   34.7467   45.9211 H   0  0  0  0  0  0  0  0  0  0  0  0
   58.7480   32.8438   47.4524 H   0  0  0  0  0  0  0  0  0  0  0  0
   57.3700   30.9692   46.5540 H   0  0  0  0  0  0  0  0  0  0  0  0
   56.5096   28.3449   46.3305 H   0  0  0  0  0  0  0  0  0  0  0  0
   55.6068   27.6467   44.9318 H   0  0  0  0  0  0  0  0  0  0  0  0
   57.5847   27.1303   43.9826 H   0  0  0  0  0  0  0  0  0  0  0  0
   57.9171   28.8980   43.8404 H   0  0  0  0  0  0  0  0  0  0  0  0
   59.2721   26.2794   46.7132 H   0  0  0  0  0  0  0  0  0  0  0  0
   58.4482   25.8968   45.1635 H   0  0  0  0  0  0  0  0  0  0  0  0
   60.1723   26.4011   45.1635 H   0  0  0  0  0  0  0  0  0  0  0  0
   57.4883   29.1504   46.6844 H   0  0  0  0  0  0  0  0  0  0  0  0
   58.0904   27.6396   47.4807 H   0  0  0  0  0  0  0  0  0  0  0  0
   60.4267   29.8179   45.6298 H   0  0  0  0  0  0  0  0  0  0  0  0
   62.2647   31.0858   46.7440 H   0  0  0  0  0  0  0  0  0  0  0  0
   62.3307   31.2692   49.2327 H   0  0  0  0  0  0  0  0  0  0  0  0
   60.5599   30.1760   50.6124 H   0  0  0  0  0  0  0  0  0  0  0  0
   58.7323   28.8833   49.5081 H   0  0  0  0  0  0  0  0  0  0  0  0
   57.7917   32.5723   42.5553 H   0  0  0  0  0  0  0  0  0  0  0  0
   59.1929   34.4324   43.4476 H   0  0  0  0  0  0  0  0  0  0  0  0
  1  2  1  0
  2  3  2  0
  3  4  1  0
  4  5  2  0
  5  6  1  0
  6  7  2  0
  6  8  1  0
  8  9  1  0
  9 10  1  0
 10 11  2  0
 11 12  1  0
 12 13  2  0
 13 14  1  0
 14 15  2  0
 14 16  1  0
 16 17  1  0
 17 18  1  0
 18 19  1  0
 19 20  1  0
 19 21  1  0
 21 22  1  0
 22 23  2  0
 23 24  1  0
 24 25  2  0
 25 26  1  0
 26 27  2  0
 13 28  1  0
 28 29  2  0
  5 30  1  0
 30  2  1  0
 29 10  1  0
 27 22  1  0
  1 31  1  0
  1 32  1  0
  1 33  1  0
  3 34  1  0
  4 35  1  0
  9 36  1  0
  9 37  1  0
 11 38  1  0
 12 39  1  0
 17 40  1  0
 17 41  1  0
 18 42  1  0
 18 43  1  0
 20 44  1  0
 20 45  1  0
 20 46  1  0
 21 47  1  0
 21 48  1  0
 23 49  1  0
 24 50  1  0
 25 51  1  0
 26 52  1  0
 27 53  1  0
 28 54  1  0
 29 55  1  0
M  CHG  2   8  -1  16  -1
M  END
>  <UniqueID>  (32) 
29

>  <SMILES>  (32) 
Cc1ccc(C(=O)[N-]Cc2ccc(C(=O)[N-]CCN(C)Cc3ccccc3)cc2)s1

>  <Energy>  (32) 
76.97457431823823

>  <Genealogy>  (32) 
Cc1ccc(C(=O)[N-]Cc2ccc(C(=O)[N-]CCN(C)Cc3ccccc3)cc2)s1 (protonated)
Cc1ccc(C(=O)[N-]Cc2ccc(C(=O)[N-]CCN(C)Cc3ccccc3)cc2)s1 (3D coordinates assigned)
Cc1ccc(C(=O)[N-]Cc2ccc(C(=O)[N-]CCN(C)Cc3ccccc3)cc2)s1 (optimized conformer: 76.97457431823823 kcal/mol)

>  <smiles>  (32) 
Cc1ccc(C(=O)NCc2ccc(C(=O)NCCN(C)Cc3ccccc3)cc2)s1

>  <score_type>  (32) 
oracle

>  <origin>  (32) 
adg

>  <m_score__min__energy>  (32) 
-11.69

>  <m_primary>  (32) 
energy

$$$$
32:0
     RDKit          3D

 64 67  0  0  0  0  0  0  0  0999 V2000
   64.3850   32.2990   49.6730 C   0  0  0  0  0  0  0  0  0  0  0  0
   64.5290   33.2670   48.5880 N   0  0  0  0  0  0  0  0  0  0  0  0
   63.0040   33.4760   47.7840 S   0  0  0  0  0  0  0  0  0  0  0  0
   63.2000   34.2030   46.4810 O   0  0  0  0  0  0  0  0  0  0  0  0
   62.4130   32.1240   47.4910 O   0  0  0  0  0  0  0  0  0  0  0  0
   61.9090   34.3520   48.8030 N   0  0  0  0  0  0  0  0  0  0  0  0
   60.4960   34.1150   48.8400 C   0  0  0  0  0  0  0  0  0  0  0  0
   59.8730   34.1910   49.9350 O   0  0  0  0  0  0  0  0  0  0  0  0
   59.7750   33.7610   47.5980 C   0  0  0  0  0  0  0  0  0  0  0  0
   58.6860   32.8750   47.6330 C   0  0  0  0  0  0  0  0  0  0  0  0
   58.0330   32.5070   46.4510 C   0  0  0  0  0  0  0  0  0  0  0  0
   58.4460   33.0320   45.2210 C   0  0  0  0  0  0  0  0  0  0  0  0
   57.8110   32.5700   43.9410 C   0  0  0  0  0  0  0  0  0  0  0  0
   57.8720   31.1160   43.8870 N   0  0  0  0  0  0  0  0  0  0  0  0
   56.8710   30.2530   44.4340 C   0  0  0  0  0  0  0  0  0  0  0  0
   55.7700   30.7310   44.8180 O   0  0  0  0  0  0  0  0  0  0  0  0
   57.1070   28.7960   44.4750 C   0  0  0  0  0  0  0  0  0  0  0  0
   57.7560   28.1530   43.4090 C   0  0  0  0  0  0  0  0  0  0  0  0
   57.9200   26.7670   43.4130 C   0  0  0  0  0  0  0  0  0  0  0  0
   57.4030   25.9960   44.4650 C   0  0  0  0  0  0  0  0  0  0  0  0
   57.4660   24.5190   44.3950 C   0  0  0  0  0  0  0  0  0  0  0  0
   56.4660   23.8480   43.6730 C   0  0  0  0  0  0  0  0  0  0  0  0
   56.4890   22.4590   43.5490 C   0  0  0  0  0  0  0  0  0  0  0  0
   57.5050   21.7210   44.1500 C   0  0  0  0  0  0  0  0  0  0  0  0
   58.5030   22.3650   44.8850 C   0  0  0  0  0  0  0  0  0  0  0  0
   59.4560   21.6110   45.4910 F   0  0  0  0  0  0  0  0  0  0  0  0
   58.4960   23.7690   45.0290 C   0  0  0  0  0  0  0  0  0  0  0  0
   59.5680   24.4060   45.8480 C   0  0  0  0  0  0  0  0  0  0  0  0
   60.7690   24.0760   45.6450 O   0  0  0  0  0  0  0  0  0  0  0  0
   59.3050   25.4470   46.8070 N   0  0  0  0  0  0  0  0  0  0  0  0
   59.5880   26.7170   46.7250 C   0  0  0  0  0  0  0  0  0  0  0  0
   60.3080   27.2700   45.6480 C   0  0  0  0  0  0  0  0  0  0  0  0
   60.5980   28.6360   45.6430 C   0  0  0  0  0  0  0  0  0  0  0  0
   60.1720   29.4440   46.6990 C   0  0  0  0  0  0  0  0  0  0  0  0
   60.4470   30.7740   46.6840 F   0  0  0  0  0  0  0  0  0  0  0  0
   59.4470   28.8700   47.7520 C   0  0  0  0  0  0  0  0  0  0  0  0
   58.9550   29.7060   48.8900 C   0  0  0  0  0  0  0  0  0  0  0  0
   59.1640   27.5380   47.7260 N   0  0  0  0  0  0  0  0  0  0  0  0
   56.7890   26.6370   45.5510 C   0  0  0  0  0  0  0  0  0  0  0  0
   56.6450   28.0290   45.5580 C   0  0  0  0  0  0  0  0  0  0  0  0
   59.5330   33.9170   45.1830 C   0  0  0  0  0  0  0  0  0  0  0  0
   60.1910   34.2800   46.3600 C   0  0  0  0  0  0  0  0  0  0  0  0
   64.4622   32.8178   50.6399 H   0  0  0  0  0  0  0  0  0  0  0  0
   63.4038   31.8074   49.5980 H   0  0  0  0  0  0  0  0  0  0  0  0
   65.1806   31.5431   49.5980 H   0  0  0  0  0  0  0  0  0  0  0  0
   65.1900   32.8590   47.8880 H   0  0  0  0  0  0  0  0  0  0  0  0
   58.3439   32.4675   48.5958 H   0  0  0  0  0  0  0  0  0  0  0  0
   57.1903   31.8010   46.4889 H   0  0  0  0  0  0  0  0  0  0  0  0
   56.7614   32.8978   43.9093 H   0  0  0  0  0  0  0  0  0  0  0  0
   58.3461   32.9995   43.0812 H   0  0  0  0  0  0  0  0  0  0  0  0
   58.1379   28.7457   42.5647 H   0  0  0  0  0  0  0  0  0  0  0  0
   58.4571   26.2769   42.5876 H   0  0  0  0  0  0  0  0  0  0  0  0
   55.6564   24.4235   43.2005 H   0  0  0  0  0  0  0  0  0  0  0  0
   55.7031   21.9458   42.9754 H   0  0  0  0  0  0  0  0  0  0  0  0
   57.5219   20.6261   44.0456 H   0  0  0  0  0  0  0  0  0  0  0  0
   60.6395   26.6304   44.8168 H   0  0  0  0  0  0  0  0  0  0  0  0
   61.1621   29.0754   44.8071 H   0  0  0  0  0  0  0  0  0  0  0  0
   59.2347   29.2308   49.8418 H   0  0  0  0  0  0  0  0  0  0  0  0
   59.4082   30.7066   48.8327 H   0  0  0  0  0  0  0  0  0  0  0  0
   57.8602   29.7956   48.8327 H   0  0  0  0  0  0  0  0  0  0  0  0
   56.4194   26.0435   46.4002 H   0  0  0  0  0  0  0  0  0  0  0  0
   56.1677   28.5253   46.4158 H   0  0  0  0  0  0  0  0  0  0  0  0
   59.8696   34.3280   44.2198 H   0  0  0  0  0  0  0  0  0  0  0  0
   61.0409   34.9771   46.3178 H   0  0  0  0  0  0  0  0  0  0  0  0
  1  2  1  0
  2  3  1  0
  3  4  2  0
  3  5  2  0
  3  6  1  0
  6  7  1  0
  7  8  2  0
  7  9  1  0
  9 10  2  0
 10 11  1  0
 11 12  2  0
 12 13  1  0
 13 14  1  0
 14 15  1  0
 15 16  2  0
 15 17  1  0
 17 18  2  0
 18 19  1  0
 19 20  2  0
 20 21  1  0
 21 22  2  0
 22 23  1  0
 23 24  2  0
 24 25  1  0
 25 26  1  0
 25 27  2  0
 27 28  1  0
 28 29  2  0
 28 30  1  0
 30 31  2  3
 31 32  1  0
 32 33  2  0
 33 34  1  0
 34 35  1  0
 34 36  2  0
 36 37  1  0
 36 38  1  0
 20 39  1  0
 39 40  2  0
 12 41  1  0
 41 42  2  0
 42  9  1  0
 40 17  1  0
 27 21  1  0
 38 31  1  0
  1 43  1  0
  1 44  1  0
  1 45  1  0
  2 46  1  0
 10 47  1  0
 11 48  1  0
 13 49  1  0
 13 50  1  0
 18 51  1  0
 19 52  1  0
 22 53  1  0
 23 54  1  0
 24 55  1  0
 32 56  1  0
 33 57  1  0
 37 58  1  0
 37 59  1  0
 37 60  1  0
 39 61  1  0
 40 62  1  0
 41 63  1  0
 42 64  1  0
M  CHG  3   6  -1  14  -1  38  -1
M  END
>  <UniqueID>  (33) 
30

>  <SMILES>  (33) 
CNS(=O)(=O)[N-]C(=O)c1ccc(C[N-]C(=O)c2ccc(-c3cccc(F)c3C(=O)N=c3ccc(F)c(C)[n-]3)cc2)cc1

>  <Energy>  (33) 
82.13305473729059

>  <Genealogy>  (33) 
CNS(=O)(=O)[N-]C(=O)c1ccc(C[N-]C(=O)c2ccc(-c3cccc(F)c3C(=O)N=c3ccc(F)c(C)[n-]3)cc2)cc1 (protonated)
CNS(=O)(=O)[N-]C(=O)c1ccc(C[N-]C(=O)c2ccc(-c3cccc(F)c3C(=O)N=c3ccc(F)c(C)[n-]3)cc2)cc1 (3D coordinates assigned)
CNS(=O)(=O)[N-]C(=O)c1ccc(C[N-]C(=O)c2ccc(-c3cccc(F)c3C(=O)N=c3ccc(F)c(C)[n-]3)cc2)cc1 (optimized conformer: 82.13305473729059 kcal/mol)

>  <smiles>  (33) 
CNS(=O)(=O)NC(=O)c1ccc(CNC(=O)c2ccc(-c3cccc(F)c3C(=O)N=c3ccc(F)c(C)[nH]3)cc2)cc1

>  <score_type>  (33) 
oracle

>  <origin>  (33) 
adg

>  <m_score__min__energy>  (33) 
-13.93

>  <m_primary>  (33) 
energy

$$$$
33:0
     RDKit          3D

 39 41  0  0  0  0  0  0  0  0999 V2000
   55.0010   26.3370   46.0510 N   0  0  0  0  0  0  0  0  0  0  0  0
   56.6890   25.9710   46.0720 S   0  0  0  0  0  0  0  0  0  0  0  0
   57.0970   25.5610   47.4590 O   0  0  0  0  0  0  0  0  0  0  0  0
   56.9650   24.8310   45.1330 O   0  0  0  0  0  0  0  0  0  0  0  0
   57.6050   27.3900   45.5740 C   0  0  0  0  0  0  0  0  0  0  0  0
   58.9990   27.4060   45.6970 C   0  0  0  0  0  0  0  0  0  0  0  0
   59.7240   28.5340   45.3110 C   0  0  0  0  0  0  0  0  0  0  0  0
   59.0620   29.6560   44.8050 C   0  0  0  0  0  0  0  0  0  0  0  0
   57.6600   29.6620   44.6830 C   0  0  0  0  0  0  0  0  0  0  0  0
   56.9570   30.8530   44.1480 C   0  0  0  0  0  0  0  0  0  0  0  0
   56.6410   30.8940   42.9270 O   0  0  0  0  0  0  0  0  0  0  0  0
   56.7220   31.9870   44.9990 N   0  0  0  0  0  0  0  0  0  0  0  0
   57.5620   32.9060   45.3920 C   0  0  0  0  0  0  0  0  0  0  0  0
   58.2620   32.8340   46.6170 C   0  0  0  0  0  0  0  0  0  0  0  0
   59.1460   33.8640   46.9770 C   0  0  0  0  0  0  0  0  0  0  0  0
   59.8870   33.8210   48.2560 C   0  0  0  0  0  0  0  0  0  0  0  0
   59.2670   33.9910   49.3400 O   0  0  0  0  0  0  0  0  0  0  0  0
   61.2910   33.5440   48.3000 N   0  0  0  0  0  0  0  0  0  0  0  0
   62.3680   33.0920   47.3940 C   0  0  0  0  0  0  0  0  0  0  0  0
   63.3980   32.9190   48.4580 C   0  0  0  0  0  0  0  0  0  0  0  0
   64.4580   33.8050   48.3620 F   0  0  0  0  0  0  0  0  0  0  0  0
   63.7720   31.6020   48.6660 F   0  0  0  0  0  0  0  0  0  0  0  0
   62.3050   33.3830   49.3590 C   0  0  0  0  0  0  0  0  0  0  0  0
   59.3520   34.9270   46.0870 C   0  0  0  0  0  0  0  0  0  0  0  0
   58.6640   34.9530   44.8750 C   0  0  0  0  0  0  0  0  0  0  0  0
   57.7980   33.9550   44.5610 N   0  0  0  0  0  0  0  0  0  0  0  0
   56.9380   28.5180   45.0740 C   0  0  0  0  0  0  0  0  0  0  0  0
   54.7830   26.7150   45.1020 H   0  0  0  0  0  0  0  0  0  0  0  0
   59.5244   26.5272   46.0990 H   0  0  0  0  0  0  0  0  0  0  0  0
   60.8199   28.5401   45.4053 H   0  0  0  0  0  0  0  0  0  0  0  0
   59.6407   30.5404   44.5000 H   0  0  0  0  0  0  0  0  0  0  0  0
   58.1150   31.9738   47.2867 H   0  0  0  0  0  0  0  0  0  0  0  0
   62.1247   32.1504   46.8799 H   0  0  0  0  0  0  0  0  0  0  0  0
   62.6229   33.7477   46.5484 H   0  0  0  0  0  0  0  0  0  0  0  0
   62.0218   32.6282   50.1074 H   0  0  0  0  0  0  0  0  0  0  0  0
   62.5135   34.2583   49.9917 H   0  0  0  0  0  0  0  0  0  0  0  0
   60.0522   35.7357   46.3434 H   0  0  0  0  0  0  0  0  0  0  0  0
   58.8228   35.7835   44.1714 H   0  0  0  0  0  0  0  0  0  0  0  0
   55.8415   28.5089   44.9866 H   0  0  0  0  0  0  0  0  0  0  0  0
  1  2  1  0
  2  3  2  0
  2  4  2  0
  2  5  1  0
  5  6  2  0
  6  7  1  0
  7  8  2  0
  8  9  1  0
  9 10  1  0
 10 11  2  0
 10 12  1  0
 12 13  2  3
 13 14  1  0
 14 15  2  0
 15 16  1  0
 16 17  2  0
 16 18  1  0
 18 19  1  0
 19 20  1  0
 20 21  1  0
 20 22  1  0
 20 23  1  0
 15 24  1  0
 24 25  2  0
 25 26  1  0
  9 27  2  0
 27  5  1  0
 26 13  1  0
 23 18  1  0
  1 28  1  0
  6 29  1  0
  7 30  1  0
  8 31  1  0
 14 32  1  0
 19 33  1  0
 19 34  1  0
 23 35  1  0
 23 36  1  0
 24 37  1  0
 25 38  1  0
 27 39  1  0
M  CHG  2   1  -1  26  -1
M  END
>  <UniqueID>  (34) 
31

>  <SMILES>  (34) 
[NH-]S(=O)(=O)c1cccc(C(=O)N=c2cc(C(=O)N3CC(F)(F)C3)cc[n-]2)c1

>  <Energy>  (34) 
97.79638737062992

>  <Genealogy>  (34) 
[NH-]S(=O)(=O)c1cccc(C(=O)N=c2cc(C(=O)N3CC(F)(F)C3)cc[n-]2)c1 (protonated)
[NH-]S(=O)(=O)c1cccc(C(=O)N=c2cc(C(=O)N3CC(F)(F)C3)cc[n-]2)c1 (3D coordinates assigned)
[NH-]S(=O)(=O)c1cccc(C(=O)N=c2cc(C(=O)N3CC(F)(F)C3)cc[n-]2)c1 (nonaromatic ring conformer: 97.79638737062992 kcal/mol)

>  <smiles>  (34) 
NS(=O)(=O)c1cccc(C(=O)N=c2cc(C(=O)N3CC(F)(F)C3)cc[nH]2)c1

>  <score_type>  (34) 
oracle

>  <origin>  (34) 
adg

>  <m_score__min__energy>  (34) 
-13.08

>  <m_primary>  (34) 
energy

$$$$
34:0
     RDKit          3D

 67 71  0  0  0  0  0  0  0  0999 V2000
   59.5260   33.4100   50.2050 C   0  0  0  0  0  0  0  0  0  0  0  0
   60.5700   34.2880   49.8000 O   0  0  0  0  0  0  0  0  0  0  0  0
   61.5050   34.0040   48.7900 C   0  0  0  0  0  0  0  0  0  0  0  0
   61.1080   33.7960   47.4530 C   0  0  0  0  0  0  0  0  0  0  0  0
   62.0590   33.5030   46.4720 C   0  0  0  0  0  0  0  0  0  0  0  0
   63.4100   33.4140   46.8100 C   0  0  0  0  0  0  0  0  0  0  0  0
   63.8170   33.6190   48.1300 C   0  0  0  0  0  0  0  0  0  0  0  0
   62.8730   33.9220   49.1270 C   0  0  0  0  0  0  0  0  0  0  0  0
   63.3290   34.0750   50.5570 C   0  0  0  0  0  0  0  0  0  0  0  0
   62.6880   33.0280   51.4130 C   0  0  0  0  0  0  0  0  0  0  0  0
   61.8630   33.2620   52.5090 C   0  0  0  0  0  0  0  0  0  0  0  0
   61.3040   32.1450   53.0510 N   0  0  0  0  0  0  0  0  0  0  0  0
   61.6770   31.0280   52.3910 C   0  0  0  0  0  0  0  0  0  0  0  0
   61.2070   29.8560   52.6990 N   0  0  0  0  0  0  0  0  0  0  0  0
   60.6740   28.8960   51.7800 C   0  0  0  0  0  0  0  0  0  0  0  0
   59.8160   28.0680   52.1900 O   0  0  0  0  0  0  0  0  0  0  0  0
   61.1740   28.8000   50.4390 N   0  0  0  0  0  0  0  0  0  0  0  0
   60.3810   28.3500   49.3300 C   0  0  0  0  0  0  0  0  0  0  0  0
   59.3010   29.1280   48.8920 C   0  0  0  0  0  0  0  0  0  0  0  0
   58.5170   28.7070   47.8130 C   0  0  0  0  0  0  0  0  0  0  0  0
   58.7940   27.4910   47.1690 C   0  0  0  0  0  0  0  0  0  0  0  0
   57.8160   26.9590   45.7930 S   0  0  0  0  0  0  0  0  0  0  0  0
   56.3990   27.4220   45.9900 O   0  0  0  0  0  0  0  0  0  0  0  0
   57.8110   25.4560   45.7850 O   0  0  0  0  0  0  0  0  0  0  0  0
   58.4050   27.5190   44.2360 N   0  0  0  0  0  0  0  0  0  0  0  0
   57.4310   28.2930   43.4610 C   0  0  0  0  0  0  0  0  0  0  0  0
   57.1050   29.6250   44.1250 C   0  0  0  0  0  0  0  0  0  0  0  0
   58.2920   30.3010   44.6760 N   0  0  0  0  0  0  0  0  0  0  0  0
   58.1370   31.6300   45.2420 C   0  0  0  0  0  0  0  0  0  0  0  0
   58.1460   31.8270   46.6390 C   0  0  0  0  0  0  0  0  0  0  0  0
   57.9790   33.1050   47.1820 C   0  0  0  0  0  0  0  0  0  0  0  0
   57.7870   34.2020   46.3430 C   0  0  0  0  0  0  0  0  0  0  0  0
   57.7850   34.0290   44.9590 C   0  0  0  0  0  0  0  0  0  0  0  0
   57.9680   32.7590   44.4100 C   0  0  0  0  0  0  0  0  0  0  0  0
   59.6420   29.6990   44.6530 C   0  0  0  0  0  0  0  0  0  0  0  0
   59.7070   28.1940   44.3010 C   0  0  0  0  0  0  0  0  0  0  0  0
   59.8280   26.6800   47.6510 C   0  0  0  0  0  0  0  0  0  0  0  0
   60.6270   27.1110   48.7120 C   0  0  0  0  0  0  0  0  0  0  0  0
   62.7020   31.3770   51.0940 S   0  0  0  0  0  0  0  0  0  0  0  0
   59.4829   33.3737   51.3036 H   0  0  0  0  0  0  0  0  0  0  0  0
   58.5660   33.7761   49.8123 H   0  0  0  0  0  0  0  0  0  0  0  0
   59.7221   32.4014   49.8123 H   0  0  0  0  0  0  0  0  0  0  0  0
   60.0444   33.8647   47.1809 H   0  0  0  0  0  0  0  0  0  0  0  0
   61.7420   33.3421   45.4310 H   0  0  0  0  0  0  0  0  0  0  0  0
   64.1556   33.1820   46.0353 H   0  0  0  0  0  0  0  0  0  0  0  0
   64.8828   33.5430   48.3914 H   0  0  0  0  0  0  0  0  0  0  0  0
   64.4225   33.9652   50.6045 H   0  0  0  0  0  0  0  0  0  0  0  0
   63.0379   35.0701   50.9245 H   0  0  0  0  0  0  0  0  0  0  0  0
   61.6770   34.2707   52.9065 H   0  0  0  0  0  0  0  0  0  0  0  0
   62.1830   29.0150   50.2800 H   0  0  0  0  0  0  0  0  0  0  0  0
   59.0684   30.0756   49.3999 H   0  0  0  0  0  0  0  0  0  0  0  0
   57.6799   29.3314   47.4677 H   0  0  0  0  0  0  0  0  0  0  0  0
   57.8457   28.4865   42.4607 H   0  0  0  0  0  0  0  0  0  0  0  0
   56.5021   27.7070   43.3990 H   0  0  0  0  0  0  0  0  0  0  0  0
   56.6417   30.2851   43.3769 H   0  0  0  0  0  0  0  0  0  0  0  0
   56.4268   29.4156   44.9653 H   0  0  0  0  0  0  0  0  0  0  0  0
   58.2860   30.9657   47.3087 H   0  0  0  0  0  0  0  0  0  0  0  0
   57.9992   33.2450   48.2729 H   0  0  0  0  0  0  0  0  0  0  0  0
   57.6372   35.2035   46.7725 H   0  0  0  0  0  0  0  0  0  0  0  0
   57.6387   34.8962   44.2982 H   0  0  0  0  0  0  0  0  0  0  0  0
   57.9808   32.6358   43.3170 H   0  0  0  0  0  0  0  0  0  0  0  0
   60.2414   30.2448   43.9095 H   0  0  0  0  0  0  0  0  0  0  0  0
   60.0204   29.7795   45.6827 H   0  0  0  0  0  0  0  0  0  0  0  0
   60.1939   28.0930   43.3198 H   0  0  0  0  0  0  0  0  0  0  0  0
   60.2658   27.7099   45.1155 H   0  0  0  0  0  0  0  0  0  0  0  0
   60.0122   25.6977   47.1915 H   0  0  0  0  0  0  0  0  0  0  0  0
   61.4536   26.4777   49.0664 H   0  0  0  0  0  0  0  0  0  0  0  0
  1  2  1  0
  2  3  1  0
  3  4  2  0
  4  5  1  0
  5  6  2  0
  6  7  1  0
  7  8  2  0
  8  9  1  0
  9 10  1  0
 10 11  2  0
 11 12  1  0
 12 13  1  0
 13 14  2  3
 14 15  1  0
 15 16  2  0
 15 17  1  0
 17 18  1  0
 18 19  2  0
 19 20  1  0
 20 21  2  0
 21 22  1  0
 22 23  2  0
 22 24  2  0
 22 25  1  0
 25 26  1  0
 26 27  1  0
 27 28  1  0
 28 29  1  0
 29 30  2  0
 30 31  1  0
 31 32  2  0
 32 33  1  0
 33 34  2  0
 28 35  1  0
 35 36  1  0
 21 37  1  0
 37 38  2  0
 13 39  1  0
  8  3  1  0
 39 10  1  0
 38 18  1  0
 36 25  1  0
 34 29  1  0
  1 40  1  0
  1 41  1  0
  1 42  1  0
  4 43  1  0
  5 44  1  0
  6 45  1  0
  7 46  1  0
  9 47  1  0
  9 48  1  0
 11 49  1  0
 17 50  1  0
 19 51  1  0
 20 52  1  0
 26 53  1  0
 26 54  1  0
 27 55  1  0
 27 56  1  0
 30 57  1  0
 31 58  1  0
 32 59  1  0
 33 60  1  0
 34 61  1  0
 35 62  1  0
 35 63  1  0
 36 64  1  0
 36 65  1  0
 37 66  1  0
 38 67  1  0
M  CHG  1  12  -1
M  END
>  <UniqueID>  (35) 
32

>  <SMILES>  (35) 
COc1ccccc1Cc1c[n-]c(=NC(=O)Nc2ccc(S(=O)(=O)N3CCN(c4ccccc4)CC3)cc2)s1

>  <Energy>  (35) 
118.75069271279432

>  <Genealogy>  (35) 
COc1ccccc1Cc1c[n-]c(=NC(=O)Nc2ccc(S(=O)(=O)N3CCN(c4ccccc4)CC3)cc2)s1 (protonated)
COc1ccccc1Cc1c[n-]c(=NC(=O)Nc2ccc(S(=O)(=O)N3CCN(c4ccccc4)CC3)cc2)s1 (3D coordinates assigned)
COc1ccccc1Cc1c[n-]c(=NC(=O)Nc2ccc(S(=O)(=O)N3CCN(c4ccccc4)CC3)cc2)s1 (nonaromatic ring conformer: 118.75069271279432 kcal/mol)

>  <smiles>  (35) 
COc1ccccc1Cc1c[nH]c(=NC(=O)Nc2ccc(S(=O)(=O)N3CCN(c4ccccc4)CC3)cc2)s1

>  <score_type>  (35) 
oracle

>  <origin>  (35) 
adg

>  <m_score__min__energy>  (35) 
-11.65

>  <m_primary>  (35) 
energy

$$$$
35:0
     RDKit          3D

 59 63  0  0  0  0  0  0  0  0999 V2000
   55.1860   25.8170   46.3210 O   0  0  0  0  0  0  0  0  0  0  0  0
   56.1470   26.6200   46.1910 C   0  0  0  0  0  0  0  0  0  0  0  0
   57.3790   26.4600   47.0260 C   0  0  0  0  0  0  0  0  0  0  0  0
   58.8350   26.6120   45.9510 S   0  0  0  0  0  0  0  0  0  0  0  0
   58.4360   28.2830   45.4210 C   0  0  0  0  0  0  0  0  0  0  0  0
   59.4480   29.2440   45.3450 C   0  0  0  0  0  0  0  0  0  0  0  0
   59.1690   30.5230   44.8610 C   0  0  0  0  0  0  0  0  0  0  0  0
   57.8690   30.8600   44.4480 C   0  0  0  0  0  0  0  0  0  0  0  0
   57.5810   32.2300   43.9580 C   0  0  0  0  0  0  0  0  0  0  0  0
   57.3490   32.4060   42.7320 O   0  0  0  0  0  0  0  0  0  0  0  0
   57.5170   33.3650   44.8350 N   0  0  0  0  0  0  0  0  0  0  0  0
   58.2170   33.5270   46.0780 C   0  0  0  0  0  0  0  0  0  0  0  0
   58.1950   32.5370   47.0750 C   0  0  0  0  0  0  0  0  0  0  0  0
   58.8460   32.7480   48.2920 C   0  0  0  0  0  0  0  0  0  0  0  0
   59.5850   33.9250   48.5130 C   0  0  0  0  0  0  0  0  0  0  0  0
   60.2260   34.2150   49.8520 C   0  0  0  0  0  0  0  0  0  0  0  0
   59.9090   33.1700   50.8780 C   0  0  0  0  0  0  0  0  0  0  0  0
   58.9910   33.3700   51.7150 O   0  0  0  0  0  0  0  0  0  0  0  0
   60.6660   31.9530   50.8760 N   0  0  0  0  0  0  0  0  0  0  0  0
   60.4970   30.7700   50.0780 C   0  0  0  0  0  0  0  0  0  0  0  0
   59.6590   29.7080   50.4690 C   0  0  0  0  0  0  0  0  0  0  0  0
   59.5340   28.5750   49.6600 C   0  0  0  0  0  0  0  0  0  0  0  0
   60.2500   28.4820   48.4660 C   0  0  0  0  0  0  0  0  0  0  0  0
   61.1030   29.5190   48.0820 C   0  0  0  0  0  0  0  0  0  0  0  0
   61.2410   30.6550   48.8870 C   0  0  0  0  0  0  0  0  0  0  0  0
   62.1470   31.6930   48.4850 N   0  0  0  0  0  0  0  0  0  0  0  0
   63.3240   31.9610   49.3180 C   0  0  0  0  0  0  0  0  0  0  0  0
   63.8860   33.3550   49.0170 C   0  0  0  0  0  0  0  0  0  0  0  0
   64.0270   33.5610   47.6250 O   0  0  0  0  0  0  0  0  0  0  0  0
   62.7510   33.5620   47.0150 C   0  0  0  0  0  0  0  0  0  0  0  0
   62.1190   32.1710   47.1000 C   0  0  0  0  0  0  0  0  0  0  0  0
   59.6280   34.8980   47.5000 C   0  0  0  0  0  0  0  0  0  0  0  0
   58.9570   34.6950   46.2900 C   0  0  0  0  0  0  0  0  0  0  0  0
   56.8560   29.8860   44.5170 C   0  0  0  0  0  0  0  0  0  0  0  0
   57.1260   28.6150   45.0350 C   0  0  0  0  0  0  0  0  0  0  0  0
   56.0460   27.7030   45.2630 N   0  0  0  0  0  0  0  0  0  0  0  0
   57.4064   27.2421   47.7990 H   0  0  0  0  0  0  0  0  0  0  0  0
   57.3752   25.4745   47.5146 H   0  0  0  0  0  0  0  0  0  0  0  0
   60.4687   28.9912   45.6680 H   0  0  0  0  0  0  0  0  0  0  0  0
   59.9723   31.2722   44.8025 H   0  0  0  0  0  0  0  0  0  0  0  0
   57.6624   31.5914   46.8958 H   0  0  0  0  0  0  0  0  0  0  0  0
   58.7807   31.9880   49.0845 H   0  0  0  0  0  0  0  0  0  0  0  0
   61.3170   34.2591   49.7187 H   0  0  0  0  0  0  0  0  0  0  0  0
   59.8240   35.1725   50.2148 H   0  0  0  0  0  0  0  0  0  0  0  0
   59.1006   29.7703   51.4147 H   0  0  0  0  0  0  0  0  0  0  0  0
   58.8689   27.7539   49.9657 H   0  0  0  0  0  0  0  0  0  0  0  0
   60.1427   27.5926   47.8277 H   0  0  0  0  0  0  0  0  0  0  0  0
   61.6692   29.4423   47.1420 H   0  0  0  0  0  0  0  0  0  0  0  0
   63.0372   31.9072   50.3786 H   0  0  0  0  0  0  0  0  0  0  0  0
   64.0963   31.2097   49.0965 H   0  0  0  0  0  0  0  0  0  0  0  0
   63.2011   34.1134   49.4242 H   0  0  0  0  0  0  0  0  0  0  0  0
   64.8788   33.4379   49.4833 H   0  0  0  0  0  0  0  0  0  0  0  0
   62.1034   34.2866   47.5302 H   0  0  0  0  0  0  0  0  0  0  0  0
   62.8613   33.8401   45.9565 H   0  0  0  0  0  0  0  0  0  0  0  0
   61.0764   32.2225   46.7532 H   0  0  0  0  0  0  0  0  0  0  0  0
   62.6885   31.4756   46.4658 H   0  0  0  0  0  0  0  0  0  0  0  0
   60.1943   35.8273   47.6602 H   0  0  0  0  0  0  0  0  0  0  0  0
   59.0114   35.4585   45.5000 H   0  0  0  0  0  0  0  0  0  0  0  0
   55.8434   30.1260   44.1607 H   0  0  0  0  0  0  0  0  0  0  0  0
  1  2  2  0
  2  3  1  0
  3  4  1  0
  4  5  1  0
  5  6  2  0
  6  7  1  0
  7  8  2  0
  8  9  1  0
  9 10  2  0
  9 11  1  0
 11 12  1  0
 12 13  2  0
 13 14  1  0
 14 15  2  0
 15 16  1  0
 16 17  1  0
 17 18  2  0
 17 19  1  0
 19 20  1  0
 20 21  2  0
 21 22  1  0
 22 23  2  0
 23 24  1  0
 24 25  2  0
 25 26  1  0
 26 27  1  0
 27 28  1  0
 28 29  1  0
 29 30  1  0
 30 31  1  0
 15 32  1  0
 32 33  2  0
  8 34  1  0
 34 35  2  0
 35 36  1  0
 36  2  1  0
 35  5  1  0
 33 12  1  0
 25 20  1  0
 31 26  1  0
  3 37  1  0
  3 38  1  0
  6 39  1  0
  7 40  1  0
 13 41  1  0
 14 42  1  0
 16 43  1  0
 16 44  1  0
 21 45  1  0
 22 46  1  0
 23 47  1  0
 24 48  1  0
 27 49  1  0
 27 50  1  0
 28 51  1  0
 28 52  1  0
 30 53  1  0
 30 54  1  0
 31 55  1  0
 31 56  1  0
 32 57  1  0
 33 58  1  0
 34 59  1  0
M  CHG  3  11  -1  19  -1  36  -1
M  END
>  <UniqueID>  (36) 
33

>  <SMILES>  (36) 
O=C1CSc2ccc(C(=O)[N-]c3ccc(CC(=O)[N-]c4ccccc4N4CCOCC4)cc3)cc2[N-]1

>  <Energy>  (36) 
84.0803655232483

>  <Genealogy>  (36) 
O=C1CSc2ccc(C(=O)[N-]c3ccc(CC(=O)[N-]c4ccccc4N4CCOCC4)cc3)cc2[N-]1 (protonated)
O=C1CSc2ccc(C(=O)[N-]c3ccc(CC(=O)[N-]c4ccccc4N4CCOCC4)cc3)cc2[N-]1 (3D coordinates assigned)
O=C1CSc2ccc(C(=O)[N-]c3ccc(CC(=O)[N-]c4ccccc4N4CCOCC4)cc3)cc2[N-]1 (nonaromatic ring conformer: 84.0803655232483 kcal/mol)

>  <smiles>  (36) 
O=C1CSc2ccc(C(=O)Nc3ccc(CC(=O)Nc4ccccc4N4CCOCC4)cc3)cc2N1

>  <score_type>  (36) 
oracle

>  <origin>  (36) 
adg

>  <m_score__min__energy>  (36) 
-13.380000000000001

>  <m_primary>  (36) 
energy

$$$$
36:0
     RDKit          3D

 33 34  0  0  0  0  0  0  0  0999 V2000
   55.8940   30.0580   43.1850 C   0  0  0  0  0  0  0  0  0  0  0  0
   57.1480   29.3500   43.5760 C   0  0  0  0  0  0  0  0  0  0  0  0
   57.4070   28.0560   43.2860 N   0  0  0  0  0  0  0  0  0  0  0  0
   58.5530   27.6090   43.7950 N   0  0  0  0  0  0  0  0  0  0  0  0
   59.2090   28.5480   44.5090 C   0  0  0  0  0  0  0  0  0  0  0  0
   60.7770   28.2610   45.3200 S   0  0  0  0  0  0  0  0  0  0  0  0
   60.0360   28.1860   46.9820 C   0  0  0  0  0  0  0  0  0  0  0  0
   59.5480   26.8010   47.2400 C   0  0  0  0  0  0  0  0  0  0  0  0
   59.6130   26.3230   48.4050 O   0  0  0  0  0  0  0  0  0  0  0  0
   59.0060   26.0290   46.1620 N   0  0  0  0  0  0  0  0  0  0  0  0
   57.6290   25.6540   46.0130 C   0  0  0  0  0  0  0  0  0  0  0  0
   57.3150   24.3030   45.8400 C   0  0  0  0  0  0  0  0  0  0  0  0
   55.9820   23.8910   45.7000 C   0  0  0  0  0  0  0  0  0  0  0  0
   55.6660   22.4350   45.4820 C   0  0  0  0  0  0  0  0  0  0  0  0
   54.9630   24.8660   45.7570 C   0  0  0  0  0  0  0  0  0  0  0  0
   53.5130   24.5040   45.6140 C   0  0  0  0  0  0  0  0  0  0  0  0
   55.2930   26.1690   45.9670 N   0  0  0  0  0  0  0  0  0  0  0  0
   56.5790   26.5850   46.1040 C   0  0  0  0  0  0  0  0  0  0  0  0
   56.8090   27.8000   46.3430 O   0  0  0  0  0  0  0  0  0  0  0  0
   58.3660   30.0070   44.5390 S   0  0  0  0  0  0  0  0  0  0  0  0
   55.3492   30.3656   44.0898 H   0  0  0  0  0  0  0  0  0  0  0  0
   56.1458   30.9473   42.5885 H   0  0  0  0  0  0  0  0  0  0  0  0
   55.2626   29.3831   42.5885 H   0  0  0  0  0  0  0  0  0  0  0  0
   56.7740   27.4480   42.7220 H   0  0  0  0  0  0  0  0  0  0  0  0
   60.7919   28.4557   47.7342 H   0  0  0  0  0  0  0  0  0  0  0  0
   59.1942   28.8915   47.0431 H   0  0  0  0  0  0  0  0  0  0  0  0
   58.1216   23.5556   45.8134 H   0  0  0  0  0  0  0  0  0  0  0  0
   55.5572   21.9337   46.4551 H   0  0  0  0  0  0  0  0  0  0  0  0
   54.7273   22.3443   44.9158 H   0  0  0  0  0  0  0  0  0  0  0  0
   56.4827   21.9633   44.9158 H   0  0  0  0  0  0  0  0  0  0  0  0
   53.0630   24.3917   46.6114 H   0  0  0  0  0  0  0  0  0  0  0  0
   52.9892   25.2990   45.0629 H   0  0  0  0  0  0  0  0  0  0  0  0
   53.4243   23.5562   45.0629 H   0  0  0  0  0  0  0  0  0  0  0  0
  1  2  1  0
  2  3  2  0
  3  4  1  0
  4  5  2  0
  5  6  1  0
  6  7  1  0
  7  8  1  0
  8  9  2  0
  8 10  1  0
 10 11  1  0
 11 12  2  0
 12 13  1  0
 13 14  1  0
 13 15  2  0
 15 16  1  0
 15 17  1  0
 17 18  1  0
 18 19  2  0
  5 20  1  0
 20  2  1  0
 18 11  1  0
  1 21  1  0
  1 22  1  0
  1 23  1  0
  3 24  1  0
  7 25  1  0
  7 26  1  0
 12 27  1  0
 14 28  1  0
 14 29  1  0
 14 30  1  0
 16 31  1  0
 16 32  1  0
 16 33  1  0
M  CHG  3   3   1  10  -1  17  -1
M  END
>  <UniqueID>  (37) 
34

>  <SMILES>  (37) 
Cc1[nH+]nc(SCC(=O)[N-]c2cc(C)c(C)[n-]c2=O)s1

>  <Energy>  (37) 
65.34880639208168

>  <Genealogy>  (37) 
Cc1[nH+]nc(SCC(=O)[N-]c2cc(C)c(C)[n-]c2=O)s1 (protonated)
Cc1[nH+]nc(SCC(=O)[N-]c2cc(C)c(C)[n-]c2=O)s1 (3D coordinates assigned)
Cc1[nH+]nc(SCC(=O)[N-]c2cc(C)c(C)[n-]c2=O)s1 (optimized conformer: 65.34880639208168 kcal/mol)

>  <smiles>  (37) 
Cc1nnc(SCC(=O)Nc2cc(C)c(C)[nH]c2=O)s1

>  <score_type>  (37) 
oracle

>  <origin>  (37) 
adg

>  <m_score__min__energy>  (37) 
-10.380000000000001

>  <m_primary>  (37) 
energy

$$$$
37:0
     RDKit          3D

 30 31  0  0  0  0  0  0  0  0999 V2000
   58.9050   34.0980   44.4310 C   0  0  0  0  0  0  0  0  0  0  0  0
   58.4040   32.6940   44.6540 C   0  0  0  0  0  0  0  0  0  0  0  0
   58.4390   32.1480   45.9470 C   0  0  0  0  0  0  0  0  0  0  0  0
   57.9760   30.8530   46.1850 C   0  0  0  0  0  0  0  0  0  0  0  0
   57.4490   30.0870   45.1430 C   0  0  0  0  0  0  0  0  0  0  0  0
   57.0050   28.7490   45.4210 N   0  0  0  0  0  0  0  0  0  0  0  0
   57.6260   27.6370   45.1480 C   0  0  0  0  0  0  0  0  0  0  0  0
   57.4780   26.3880   45.9330 C   0  0  0  0  0  0  0  0  0  0  0  0
   56.2030   25.9520   46.3220 C   0  0  0  0  0  0  0  0  0  0  0  0
   55.0730   26.6980   45.9940 O   0  0  0  0  0  0  0  0  0  0  0  0
   56.0680   24.8030   47.0350 N   0  0  0  0  0  0  0  0  0  0  0  0
   57.1480   24.0530   47.3690 C   0  0  0  0  0  0  0  0  0  0  0  0
   56.9990   22.9960   48.0350 O   0  0  0  0  0  0  0  0  0  0  0  0
   58.3900   24.4390   46.9800 N   0  0  0  0  0  0  0  0  0  0  0  0
   58.5800   25.5770   46.2640 C   0  0  0  0  0  0  0  0  0  0  0  0
   59.7430   25.8820   45.8900 O   0  0  0  0  0  0  0  0  0  0  0  0
   57.4420   30.6100   43.8390 C   0  0  0  0  0  0  0  0  0  0  0  0
   57.8950   31.9170   43.5860 C   0  0  0  0  0  0  0  0  0  0  0  0
   57.8590   32.4510   42.1790 C   0  0  0  0  0  0  0  0  0  0  0  0
   59.0784   34.5840   45.4024 H   0  0  0  0  0  0  0  0  0  0  0  0
   59.8470   34.0654   43.8639 H   0  0  0  0  0  0  0  0  0  0  0  0
   58.1552   34.6691   43.8639 H   0  0  0  0  0  0  0  0  0  0  0  0
   58.8351   32.7466   46.7805 H   0  0  0  0  0  0  0  0  0  0  0  0
   58.0266   30.4328   47.2003 H   0  0  0  0  0  0  0  0  0  0  0  0
   58.3026   27.6238   44.2808 H   0  0  0  0  0  0  0  0  0  0  0  0
   55.1300   27.4640   45.3330 H   0  0  0  0  0  0  0  0  0  0  0  0
   57.0780   29.9900   43.0065 H   0  0  0  0  0  0  0  0  0  0  0  0
   57.7850   33.5482   42.2050 H   0  0  0  0  0  0  0  0  0  0  0  0
   58.7789   32.1579   41.6519 H   0  0  0  0  0  0  0  0  0  0  0  0
   56.9867   32.0371   41.6519 H   0  0  0  0  0  0  0  0  0  0  0  0
  1  2  1  0
  2  3  2  0
  3  4  1  0
  4  5  2  0
  5  6  1  0
  6  7  2  3
  7  8  1  0
  8  9  2  0
  9 10  1  0
  9 11  1  0
 11 12  1  0
 12 13  2  0
 12 14  1  0
 14 15  1  0
 15 16  2  0
  5 17  1  0
 17 18  2  0
 18 19  1  0
 18  2  1  0
 15  8  1  0
  1 20  1  0
  1 21  1  0
  1 22  1  0
  3 23  1  0
  4 24  1  0
  7 25  1  0
 10 26  1  0
 17 27  1  0
 19 28  1  0
 19 29  1  0
 19 30  1  0
M  CHG  2  11  -1  14  -1
M  END
>  <UniqueID>  (38) 
35

>  <SMILES>  (38) 
Cc1ccc(N=Cc2c(O)[n-]c(=O)[n-]c2=O)cc1C

>  <Energy>  (38) 
44.25187900991272

>  <Genealogy>  (38) 
Cc1ccc(N=Cc2c(O)[n-]c(=O)[n-]c2=O)cc1C (protonated)
Cc1ccc(N=Cc2c(O)[n-]c(=O)[n-]c2=O)cc1C (3D coordinates assigned)
Cc1ccc(N=Cc2c(O)[n-]c(=O)[n-]c2=O)cc1C (optimized conformer: 44.25187900991272 kcal/mol)

>  <smiles>  (38) 
Cc1ccc(N=Cc2c(O)[nH]c(=O)[nH]c2=O)cc1C

>  <score_type>  (38) 
oracle

>  <origin>  (38) 
adg

>  <m_score__min__energy>  (38) 
-11.5

>  <m_primary>  (38) 
energy

$$$$
38:0
     RDKit          3D

 32 33  0  0  0  0  0  0  0  0999 V2000
   60.6060   31.4640   46.8550 C   0  0  0  0  0  0  0  0  0  0  0  0
   59.2830   31.6440   46.1510 C   0  0  0  0  0  0  0  0  0  0  0  0
   58.5560   32.8170   46.3980 C   0  0  0  0  0  0  0  0  0  0  0  0
   57.3340   33.0230   45.7630 C   0  0  0  0  0  0  0  0  0  0  0  0
   56.6750   34.0720   45.9860 O   0  0  0  0  0  0  0  0  0  0  0  0
   56.8520   32.0930   44.9050 N   0  0  0  0  0  0  0  0  0  0  0  0
   57.5230   30.9450   44.6150 C   0  0  0  0  0  0  0  0  0  0  0  0
   56.8710   29.9820   43.6640 C   0  0  0  0  0  0  0  0  0  0  0  0
   58.7840   30.6930   45.2200 C   0  0  0  0  0  0  0  0  0  0  0  0
   59.5770   29.4340   44.8970 C   0  0  0  0  0  0  0  0  0  0  0  0
   58.7440   28.2390   45.0270 N   0  0  0  0  0  0  0  0  0  0  0  0
   58.2350   27.7830   46.2910 C   0  0  0  0  0  0  0  0  0  0  0  0
   58.5690   28.3780   47.3520 O   0  0  0  0  0  0  0  0  0  0  0  0
   57.3180   26.6240   46.3570 C   0  0  0  0  0  0  0  0  0  0  0  0
   57.7550   25.3810   46.8400 C   0  0  0  0  0  0  0  0  0  0  0  0
   56.8460   24.3230   46.8840 C   0  0  0  0  0  0  0  0  0  0  0  0
   57.2060   23.1950   47.3130 O   0  0  0  0  0  0  0  0  0  0  0  0
   55.5680   24.5090   46.4630 N   0  0  0  0  0  0  0  0  0  0  0  0
   55.1570   25.7160   45.9980 C   0  0  0  0  0  0  0  0  0  0  0  0
   53.9700   25.8700   45.6130 O   0  0  0  0  0  0  0  0  0  0  0  0
   56.0280   26.7580   45.9480 N   0  0  0  0  0  0  0  0  0  0  0  0
   60.4481   31.4855   47.9434 H   0  0  0  0  0  0  0  0  0  0  0  0
   61.0459   30.4977   46.5673 H   0  0  0  0  0  0  0  0  0  0  0  0
   61.2881   32.2776   46.5673 H   0  0  0  0  0  0  0  0  0  0  0  0
   58.9503   33.5735   47.0924 H   0  0  0  0  0  0  0  0  0  0  0  0
   56.3438   29.2033   44.2347 H   0  0  0  0  0  0  0  0  0  0  0  0
   56.1522   30.5223   43.0305 H   0  0  0  0  0  0  0  0  0  0  0  0
   57.6396   29.5152   43.0305 H   0  0  0  0  0  0  0  0  0  0  0  0
   59.9515   29.5003   43.8648 H   0  0  0  0  0  0  0  0  0  0  0  0
   60.4131   29.3559   45.6075 H   0  0  0  0  0  0  0  0  0  0  0  0
   58.5360   27.6930   44.1610 H   0  0  0  0  0  0  0  0  0  0  0  0
   58.7930   25.2434   47.1771 H   0  0  0  0  0  0  0  0  0  0  0  0
  1  2  1  0
  2  3  2  0
  3  4  1  0
  4  5  2  0
  4  6  1  0
  6  7  1  0
  7  8  1  0
  7  9  2  0
  9 10  1  0
 10 11  1  0
 11 12  1  0
 12 13  2  0
 12 14  1  0
 14 15  2  0
 15 16  1  0
 16 17  2  0
 16 18  1  0
 18 19  1  0
 19 20  2  0
 19 21  1  0
  9  2  1  0
 21 14  1  0
  1 22  1  0
  1 23  1  0
  1 24  1  0
  3 25  1  0
  8 26  1  0
  8 27  1  0
  8 28  1  0
 10 29  1  0
 10 30  1  0
 11 31  1  0
 15 32  1  0
M  CHG  3   6  -1  18  -1  21  -1
M  END
>  <UniqueID>  (39) 
36

>  <SMILES>  (39) 
Cc1cc(=O)[n-]c(C)c1CNC(=O)c1cc(=O)[n-]c(=O)[n-]1

>  <Energy>  (39) 
35.05300762728585

>  <Genealogy>  (39) 
Cc1cc(=O)[n-]c(C)c1CNC(=O)c1cc(=O)[n-]c(=O)[n-]1 (protonated)
Cc1cc(=O)[n-]c(C)c1CNC(=O)c1cc(=O)[n-]c(=O)[n-]1 (3D coordinates assigned)
Cc1cc(=O)[n-]c(C)c1CNC(=O)c1cc(=O)[n-]c(=O)[n-]1 (optimized conformer: 35.05300762728585 kcal/mol)

>  <smiles>  (39) 
Cc1cc(=O)[nH]c(C)c1CNC(=O)c1cc(=O)[nH]c(=O)[nH]1

>  <score_type>  (39) 
oracle

>  <origin>  (39) 
adg

>  <m_score__min__energy>  (39) 
-12.1

>  <m_primary>  (39) 
energy

$$$$
39:0
     RDKit          3D

 63 67  0  0  0  0  0  0  0  0999 V2000
   57.9020   30.1080   46.5780 H   0  0  0  0  0  0  0  0  0  0  0  0
   57.8090   31.0540   46.9410 O   0  0  0  0  0  0  0  0  0  0  0  0
   57.9910   32.1720   46.1280 C   0  0  0  0  0  0  0  0  0  0  0  0
   58.2030   33.4340   46.7060 C   0  0  0  0  0  0  0  0  0  0  0  0
   58.2268   33.5379   47.8008 H   0  0  0  0  0  0  0  0  0  0  0  0
   58.3840   34.5590   45.8960 C   0  0  0  0  0  0  0  0  0  0  0  0
   58.5549   35.5443   46.3543 H   0  0  0  0  0  0  0  0  0  0  0  0
   58.3480   34.4330   44.5030 C   0  0  0  0  0  0  0  0  0  0  0  0
   58.4868   35.3201   43.8675 H   0  0  0  0  0  0  0  0  0  0  0  0
   58.1360   33.1820   43.9180 C   0  0  0  0  0  0  0  0  0  0  0  0
   58.1056   33.0884   42.8224 H   0  0  0  0  0  0  0  0  0  0  0  0
   57.9610   32.0400   44.7240 C   0  0  0  0  0  0  0  0  0  0  0  0
   57.7560   30.6890   44.0800 C   0  0  0  0  0  0  0  0  0  0  0  0
   58.7005   30.1265   44.1199 H   0  0  0  0  0  0  0  0  0  0  0  0
   57.4391   30.8466   43.0385 H   0  0  0  0  0  0  0  0  0  0  0  0
   56.7170   29.9230   44.7660 N   0  0  0  0  0  0  0  0  0  0  0  0
   56.9020   28.7960   45.3880 C   0  0  0  0  0  0  0  0  0  0  0  0
   55.8960   27.8870   45.5100 N   0  0  0  0  0  0  0  0  0  0  0  0
   56.1120   26.7080   46.1440 C   0  0  0  0  0  0  0  0  0  0  0  0
   55.1570   25.8260   46.1970 N   0  0  0  0  0  0  0  0  0  0  0  0
   54.9960   24.7260   45.2490 C   0  0  0  0  0  0  0  0  0  0  0  0
   55.8254   24.7400   44.5266 H   0  0  0  0  0  0  0  0  0  0  0  0
   54.0419   24.8398   44.7136 H   0  0  0  0  0  0  0  0  0  0  0  0
   55.0010   23.4190   45.9930 C   0  0  0  0  0  0  0  0  0  0  0  0
   53.8820   22.5700   45.9510 C   0  0  0  0  0  0  0  0  0  0  0  0
   53.0039   22.8498   45.3505 H   0  0  0  0  0  0  0  0  0  0  0  0
   53.8810   21.3690   46.6710 C   0  0  0  0  0  0  0  0  0  0  0  0
   53.0017   20.7092   46.6335 H   0  0  0  0  0  0  0  0  0  0  0  0
   54.9930   21.0040   47.4380 C   0  0  0  0  0  0  0  0  0  0  0  0
   54.9821   20.0617   48.0054 H   0  0  0  0  0  0  0  0  0  0  0  0
   56.1260   21.8390   47.4860 C   0  0  0  0  0  0  0  0  0  0  0  0
   57.2930   21.4930   48.2520 N   0  0  0  0  0  0  0  0  0  0  0  0
   57.4330   21.5640   49.9790 S   0  0  0  0  0  0  0  0  0  0  0  0
   57.7680   22.9740   50.3850 O   0  0  0  0  0  0  0  0  0  0  0  0
   58.5420   20.6610   50.4350 O   0  0  0  0  0  0  0  0  0  0  0  0
   55.8900   21.0880   50.7410 C   0  0  0  0  0  0  0  0  0  0  0  0
   55.9961   21.1207   51.8354 H   0  0  0  0  0  0  0  0  0  0  0  0
   55.0969   21.7832   50.4285 H   0  0  0  0  0  0  0  0  0  0  0  0
   55.6264   20.0668   50.4285 H   0  0  0  0  0  0  0  0  0  0  0  0
   56.1220   23.0420   46.7570 C   0  0  0  0  0  0  0  0  0  0  0  0
   57.0057   23.6964   46.7841 H   0  0  0  0  0  0  0  0  0  0  0  0
   57.3370   26.4460   46.6740 N   0  0  0  0  0  0  0  0  0  0  0  0
   58.3440   27.3470   46.5590 C   0  0  0  0  0  0  0  0  0  0  0  0
   59.5130   27.0640   47.0530 N   0  0  0  0  0  0  0  0  0  0  0  0
   60.4130   28.0470   47.6620 C   0  0  0  0  0  0  0  0  0  0  0  0
   61.3161   27.4929   47.9577 H   0  0  0  0  0  0  0  0  0  0  0  0
   60.7720   29.1770   46.6740 C   0  0  0  0  0  0  0  0  0  0  0  0
   61.7957   29.0532   46.2910 H   0  0  0  0  0  0  0  0  0  0  0  0
   60.1203   29.1930   45.7880 H   0  0  0  0  0  0  0  0  0  0  0  0
   60.6590   30.4060   47.4940 C   0  0  0  0  0  0  0  0  0  0  0  0
   61.0470   31.6980   47.1250 C   0  0  0  0  0  0  0  0  0  0  0  0
   61.4720   31.8936   46.1294 H   0  0  0  0  0  0  0  0  0  0  0  0
   60.8830   32.7400   48.0510 C   0  0  0  0  0  0  0  0  0  0  0  0
   61.2097   33.7587   47.7949 H   0  0  0  0  0  0  0  0  0  0  0  0
   60.3020   32.4840   49.3050 C   0  0  0  0  0  0  0  0  0  0  0  0
   60.1541   33.3079   50.0186 H   0  0  0  0  0  0  0  0  0  0  0  0
   59.9090   31.1790   49.6510 C   0  0  0  0  0  0  0  0  0  0  0  0
   59.4573   30.9705   50.6321 H   0  0  0  0  0  0  0  0  0  0  0  0
   60.1040   30.1520   48.7230 C   0  0  0  0  0  0  0  0  0  0  0  0
   59.7490   28.7210   48.8810 C   0  0  0  0  0  0  0  0  0  0  0  0
   60.1526   28.3175   49.8214 H   0  0  0  0  0  0  0  0  0  0  0  0
   58.6630   28.5518   48.9246 H   0  0  0  0  0  0  0  0  0  0  0  0
   58.1220   28.5200   45.9090 N   0  0  0  0  0  0  0  0  0  0  0  0
  1  2  1  0
  2  3  1  0
  3  4  2  0
  4  5  1  0
  4  6  1  0
  6  7  1  0
  6  8  2  0
  8  9  1  0
  8 10  1  0
 10 11  1  0
 10 12  2  0
 12 13  1  0
 13 14  1  0
 13 15  1  0
 13 16  1  0
 16 17  2  0
 17 18  1  0
 18 19  1  0
 19 20  2  3
 20 21  1  0
 21 22  1  0
 21 23  1  0
 21 24  1  0
 24 25  2  0
 25 26  1  0
 25 27  1  0
 27 28  1  0
 27 29  2  0
 29 30  1  0
 29 31  1  0
 31 32  1  0
 32 33  1  0
 33 34  2  0
 33 35  2  0
 33 36  1  0
 36 37  1  0
 36 38  1  0
 36 39  1  0
 31 40  2  0
 40 41  1  0
 19 42  1  0
 42 43  1  0
 43 44  2  3
 44 45  1  0
 45 46  1  0
 45 47  1  0
 47 48  1  0
 47 49  1  0
 47 50  1  0
 50 51  2  0
 51 52  1  0
 51 53  1  0
 53 54  1  0
 53 55  2  0
 55 56  1  0
 55 57  1  0
 57 58  1  0
 57 59  2  0
 59 60  1  0
 60 61  1  0
 60 62  1  0
 43 63  1  0
 12  3  1  0
 63 17  1  0
 40 24  1  0
 60 45  1  0
 59 50  1  0
M  CHG  4  18  -1  32  -1  42  -1  63  -1
M  END
>  <UniqueID>  (40) 
37

>  <SMILES>  (40) 
CS(=O)(=O)[N-]c1cccc(CN=c2[n-]c(=NC3Cc4ccccc4C3)[n-]/c(=N/Cc3ccccc3O)[n-]2)c1

>  <Energy>  (40) 
75.68206445292759

>  <Genealogy>  (40) 
CS(=O)(=O)[N-]c1cccc(CN=c2[n-]c(=NCc3ccccc3O)[n-]c(=NC3Cc4ccccc4C3)[n-]2)c1 (protonated)
CS(=O)(=O)[N-]c1cccc(CN=c2[n-]c(=NC3Cc4ccccc4C3)[n-]/c(=N/Cc3ccccc3O)[n-]2)c1 (cis-trans isomerization)
CS(=O)(=O)[N-]c1cccc(CN=c2[n-]c(=NC3Cc4ccccc4C3)[n-]/c(=N/Cc3ccccc3O)[n-]2)c1 (3D coordinates assigned)
CS(=O)(=O)[N-]c1cccc(CN=c2[n-]c(=NC3Cc4ccccc4C3)[n-]/c(=N/Cc3ccccc3O)[n-]2)c1 (nonaromatic ring conformer: 75.68206445292759 kcal/mol)

>  <smiles>  (40) 
CS(=O)(=O)Nc1cccc(CN=c2[nH]c(=NCc3ccccc3O)[nH]c(=NC3Cc4ccccc4C3)[nH]2)c1

>  <score_type>  (40) 
oracle

>  <origin>  (40) 
adg

>  <m_score__min__energy>  (40) 
-16.489999999999998

>  <m_primary>  (40) 
energy

$$$$
40:0
     RDKit          3D

 51 54  0  0  0  0  0  0  0  0999 V2000
   54.3590   26.7060   46.8240 H   0  0  0  0  0  0  0  0  0  0  0  0
   54.5200   26.2960   45.9130 O   0  0  0  0  0  0  0  0  0  0  0  0
   54.1510   24.9860   45.6270 C   0  0  0  0  0  0  0  0  0  0  0  0
   52.8770   24.6010   45.4450 N   0  0  0  0  0  0  0  0  0  0  0  0
   52.9900   23.2700   45.2520 C   0  0  0  0  0  0  0  0  0  0  0  0
   51.9950   22.5280   45.0480 O   0  0  0  0  0  0  0  0  0  0  0  0
   54.2530   22.7940   45.3040 N   0  0  0  0  0  0  0  0  0  0  0  0
   54.9920   23.8970   45.5160 C   0  0  0  0  0  0  0  0  0  0  0  0
   56.4440   23.8660   45.7410 C   0  0  0  0  0  0  0  0  0  0  0  0
   56.9027   22.8805   45.9093 H   0  0  0  0  0  0  0  0  0  0  0  0
   57.2650   24.9350   45.7600 C   0  0  0  0  0  0  0  0  0  0  0  0
   57.8180   25.4230   46.9290 C   0  0  0  0  0  0  0  0  0  0  0  0
   57.7106   24.9903   47.9346 H   0  0  0  0  0  0  0  0  0  0  0  0
   58.5290   26.5540   46.5950 C   0  0  0  0  0  0  0  0  0  0  0  0
   59.3120   27.3720   47.5810 C   0  0  0  0  0  0  0  0  0  0  0  0
   59.0323   27.0798   48.6039 H   0  0  0  0  0  0  0  0  0  0  0  0
   60.3875   27.1967   47.4307 H   0  0  0  0  0  0  0  0  0  0  0  0
   59.0899   28.4388   47.4307 H   0  0  0  0  0  0  0  0  0  0  0  0
   58.4810   26.7730   45.2590 N   0  0  0  0  0  0  0  0  0  0  0  0
   59.1890   27.8530   44.5510 C   0  0  0  0  0  0  0  0  0  0  0  0
   60.0820   28.1371   45.1270 H   0  0  0  0  0  0  0  0  0  0  0  0
   59.4766   27.4912   43.5528 H   0  0  0  0  0  0  0  0  0  0  0  0
   58.2990   29.0610   44.3900 C   0  0  0  0  0  0  0  0  0  0  0  0
   56.9500   28.9060   44.0340 C   0  0  0  0  0  0  0  0  0  0  0  0
   56.5357   27.8984   43.8821 H   0  0  0  0  0  0  0  0  0  0  0  0
   56.1320   30.0260   43.8720 C   0  0  0  0  0  0  0  0  0  0  0  0
   55.0756   29.8984   43.5933 H   0  0  0  0  0  0  0  0  0  0  0  0
   56.6520   31.3070   44.0630 C   0  0  0  0  0  0  0  0  0  0  0  0
   56.0018   32.1844   43.9315 H   0  0  0  0  0  0  0  0  0  0  0  0
   57.9920   31.4850   44.4200 C   0  0  0  0  0  0  0  0  0  0  0  0
   58.4630   32.7970   44.6000 O   0  0  0  0  0  0  0  0  0  0  0  0
   57.9070   33.7610   45.4940 C   0  0  0  0  0  0  0  0  0  0  0  0
   58.0351   34.7659   45.0653 H   0  0  0  0  0  0  0  0  0  0  0  0
   56.8393   33.5365   45.6336 H   0  0  0  0  0  0  0  0  0  0  0  0
   58.5910   33.7060   46.8370 C   0  0  0  0  0  0  0  0  0  0  0  0
   58.2480   32.7090   47.7670 C   0  0  0  0  0  0  0  0  0  0  0  0
   57.4758   31.9675   47.5143 H   0  0  0  0  0  0  0  0  0  0  0  0
   58.8830   32.6550   49.0110 C   0  0  0  0  0  0  0  0  0  0  0  0
   58.6034   31.8772   49.7369 H   0  0  0  0  0  0  0  0  0  0  0  0
   59.8720   33.5870   49.3340 C   0  0  0  0  0  0  0  0  0  0  0  0
   60.3695   33.5446   50.3142 H   0  0  0  0  0  0  0  0  0  0  0  0
   60.2290   34.5740   48.4100 C   0  0  0  0  0  0  0  0  0  0  0  0
   61.0095   35.3063   48.6641 H   0  0  0  0  0  0  0  0  0  0  0  0
   59.5970   34.6330   47.1640 C   0  0  0  0  0  0  0  0  0  0  0  0
   59.9650   35.5930   46.2780 F   0  0  0  0  0  0  0  0  0  0  0  0
   58.8150   30.3530   44.5830 C   0  0  0  0  0  0  0  0  0  0  0  0
   59.8707   30.4822   44.8638 H   0  0  0  0  0  0  0  0  0  0  0  0
   57.7280   25.7680   44.7260 C   0  0  0  0  0  0  0  0  0  0  0  0
   57.5660   25.5700   43.4070 C   0  0  0  0  0  0  0  0  0  0  0  0
   57.9749   26.2949   42.6877 H   0  0  0  0  0  0  0  0  0  0  0  0
   57.0245   24.6830   43.0464 H   0  0  0  0  0  0  0  0  0  0  0  0
  1  2  1  0
  2  3  1  0
  3  4  1  0
  4  5  1  0
  5  6  2  0
  5  7  1  0
  7  8  1  0
  8  9  1  0
  9 10  1  0
  9 11  2  0
 11 12  1  0
 12 13  1  0
 12 14  2  0
 14 15  1  0
 15 16  1  0
 15 17  1  0
 15 18  1  0
 14 19  1  0
 19 20  1  0
 20 21  1  0
 20 22  1  0
 20 23  1  0
 23 24  2  0
 24 25  1  0
 24 26  1  0
 26 27  1  0
 26 28  2  0
 28 29  1  0
 28 30  1  0
 30 31  1  0
 31 32  1  0
 32 33  1  0
 32 34  1  0
 32 35  1  0
 35 36  2  0
 36 37  1  0
 36 38  1  0
 38 39  1  0
 38 40  2  0
 40 41  1  0
 40 42  1  0
 42 43  1  0
 42 44  2  0
 44 45  1  0
 30 46  2  0
 46 47  1  0
 19 48  1  0
 48 49  2  0
 49 50  1  0
 49 51  1  0
  8  3  2  0
 48 11  1  0
 46 23  1  0
 44 35  1  0
M  CHG  2   4  -1   7  -1
M  END
>  <UniqueID>  (41) 
38

>  <SMILES>  (41) 
C=c1/c(=C\c2[n-]c(=O)[n-]c2O)cc(C)n1Cc1cccc(OCc2ccccc2F)c1

>  <Energy>  (41) 
123.75933764647284

>  <Genealogy>  (41) 
C=c1c(=Cc2[n-]c(=O)[n-]c2O)cc(C)n1Cc1cccc(OCc2ccccc2F)c1 (protonated)
C=c1/c(=C\c2[n-]c(=O)[n-]c2O)cc(C)n1Cc1cccc(OCc2ccccc2F)c1 (cis-trans isomerization)
C=c1/c(=C\c2[n-]c(=O)[n-]c2O)cc(C)n1Cc1cccc(OCc2ccccc2F)c1 (3D coordinates assigned)
C=c1/c(=C\c2[n-]c(=O)[n-]c2O)cc(C)n1Cc1cccc(OCc2ccccc2F)c1 (optimized conformer: 123.75933764647284 kcal/mol)

>  <smiles>  (41) 
C=c1c(=Cc2[nH]c(=O)[nH]c2O)cc(C)n1Cc1cccc(OCc2ccccc2F)c1

>  <score_type>  (41) 
oracle

>  <origin>  (41) 
adg

>  <m_score__min__energy>  (41) 
-14

>  <m_primary>  (41) 
energy

$$$$
41:0
     RDKit          3D

 46 48  0  0  0  0  0  0  0  0999 V2000
   58.9983   33.6659   49.8502 H   0  0  0  0  0  0  0  0  0  0  0  0
   59.3640   33.6880   48.8130 C   0  0  0  0  0  0  0  0  0  0  0  0
   60.7360   33.6770   48.5580 C   0  0  0  0  0  0  0  0  0  0  0  0
   61.4466   33.6454   49.3970 H   0  0  0  0  0  0  0  0  0  0  0  0
   61.2170   33.7060   47.2380 C   0  0  0  0  0  0  0  0  0  0  0  0
   62.6810   33.6440   46.9960 C   0  0  0  0  0  0  0  0  0  0  0  0
   63.1580   34.2400   45.9940 O   0  0  0  0  0  0  0  0  0  0  0  0
   63.5740   32.8780   47.8230 N   0  0  0  0  0  0  0  0  0  0  0  0
   63.2790   32.0850   48.8170 C   0  0  0  0  0  0  0  0  0  0  0  0
   63.9700   32.2430   50.0260 C   0  0  0  0  0  0  0  0  0  0  0  0
   64.9290   33.1950   50.1560 F   0  0  0  0  0  0  0  0  0  0  0  0
   63.6790   31.4070   51.1030 C   0  0  0  0  0  0  0  0  0  0  0  0
   64.2207   31.5240   52.0532 H   0  0  0  0  0  0  0  0  0  0  0  0
   62.7010   30.4230   50.9740 C   0  0  0  0  0  0  0  0  0  0  0  0
   62.4290   29.5970   52.0140 F   0  0  0  0  0  0  0  0  0  0  0  0
   62.0060   30.2940   49.7680 C   0  0  0  0  0  0  0  0  0  0  0  0
   61.0540   29.2680   49.6470 O   0  0  0  0  0  0  0  0  0  0  0  0
   60.1070   29.1580   48.6210 C   0  0  0  0  0  0  0  0  0  0  0  0
   59.5300   30.2890   48.0220 C   0  0  0  0  0  0  0  0  0  0  0  0
   59.8034   31.2948   48.3737 H   0  0  0  0  0  0  0  0  0  0  0  0
   58.6090   30.1420   46.9800 C   0  0  0  0  0  0  0  0  0  0  0  0
   58.1734   31.0321   46.5025 H   0  0  0  0  0  0  0  0  0  0  0  0
   58.2400   28.8620   46.5430 C   0  0  0  0  0  0  0  0  0  0  0  0
   57.0900   28.6680   45.2230 S   0  0  0  0  0  0  0  0  0  0  0  0
   56.4040   29.9810   44.9780 O   0  0  0  0  0  0  0  0  0  0  0  0
   57.8090   28.2500   43.9700 O   0  0  0  0  0  0  0  0  0  0  0  0
   55.8970   27.4690   45.6250 N   0  0  0  0  0  0  0  0  0  0  0  0
   56.5190   26.1510   45.6790 C   0  0  0  0  0  0  0  0  0  0  0  0
   56.6590   25.8544   46.7290 H   0  0  0  0  0  0  0  0  0  0  0  0
   55.8713   25.4189   45.1744 H   0  0  0  0  0  0  0  0  0  0  0  0
   57.4958   26.1856   45.1744 H   0  0  0  0  0  0  0  0  0  0  0  0
   58.7790   27.7330   47.1730 C   0  0  0  0  0  0  0  0  0  0  0  0
   58.4728   26.7268   46.8509 H   0  0  0  0  0  0  0  0  0  0  0  0
   59.7050   27.8810   48.2100 C   0  0  0  0  0  0  0  0  0  0  0  0
   60.1196   26.9906   48.7052 H   0  0  0  0  0  0  0  0  0  0  0  0
   62.3020   31.1270   48.7230 N   0  0  0  0  0  0  0  0  0  0  0  0
   61.7690   31.0120   47.8400 H   0  0  0  0  0  0  0  0  0  0  0  0
   60.2960   33.7750   46.1730 C   0  0  0  0  0  0  0  0  0  0  0  0
   60.7350   33.8690   44.8910 F   0  0  0  0  0  0  0  0  0  0  0  0
   58.9130   33.7640   46.4300 C   0  0  0  0  0  0  0  0  0  0  0  0
   57.9340   33.8370   45.2930 C   0  0  0  0  0  0  0  0  0  0  0  0
   56.9122   33.9132   45.6932 H   0  0  0  0  0  0  0  0  0  0  0  0
   58.1532   34.7213   44.6766 H   0  0  0  0  0  0  0  0  0  0  0  0
   58.0196   32.9300   44.6766 H   0  0  0  0  0  0  0  0  0  0  0  0
   58.4550   33.7270   47.7550 C   0  0  0  0  0  0  0  0  0  0  0  0
   57.3745   33.7287   47.9612 H   0  0  0  0  0  0  0  0  0  0  0  0
  1  2  1  0
  2  3  2  0
  3  4  1  0
  3  5  1  0
  5  6  1  0
  6  7  2  0
  6  8  1  0
  8  9  2  0
  9 10  1  0
 10 11  1  0
 10 12  2  0
 12 13  1  0
 12 14  1  0
 14 15  1  0
 14 16  2  0
 16 17  1  0
 17 18  1  0
 18 19  2  0
 19 20  1  0
 19 21  1  0
 21 22  1  0
 21 23  2  0
 23 24  1  0
 24 25  2  0
 24 26  2  0
 24 27  1  0
 27 28  1  0
 28 29  1  0
 28 30  1  0
 28 31  1  0
 23 32  1  0
 32 33  1  0
 32 34  2  0
 34 35  1  0
 16 36  1  0
 36 37  1  0
  5 38  2  0
 38 39  1  0
 38 40  1  0
 40 41  1  0
 41 42  1  0
 41 43  1  0
 41 44  1  0
 40 45  2  0
 45 46  1  0
 45  2  1  0
 36  9  1  0
 34 18  1  0
M  CHG  1  27  -1
M  END
>  <UniqueID>  (42) 
39

>  <SMILES>  (42) 
C[N-]S(=O)(=O)c1ccc(Oc2[nH]/c(=N\C(=O)c3cccc(C)c3F)c(F)cc2F)cc1

>  <Energy>  (42) 
61.82814394731665

>  <Genealogy>  (42) 
C[N-]S(=O)(=O)c1ccc(Oc2[nH]c(=NC(=O)c3cccc(C)c3F)c(F)cc2F)cc1 (protonated)
C[N-]S(=O)(=O)c1ccc(Oc2[nH]/c(=N\C(=O)c3cccc(C)c3F)c(F)cc2F)cc1 (cis-trans isomerization)
C[N-]S(=O)(=O)c1ccc(Oc2[nH]/c(=N\C(=O)c3cccc(C)c3F)c(F)cc2F)cc1 (3D coordinates assigned)
C[N-]S(=O)(=O)c1ccc(Oc2[nH]/c(=N\C(=O)c3cccc(C)c3F)c(F)cc2F)cc1 (optimized conformer: 61.82814394731665 kcal/mol)

>  <smiles>  (42) 
CNS(=O)(=O)c1ccc(Oc2[nH]c(=NC(=O)c3cccc(C)c3F)c(F)cc2F)cc1

>  <score_type>  (42) 
oracle

>  <origin>  (42) 
adg

>  <m_score__min__energy>  (42) 
-10.07

>  <m_primary>  (42) 
energy

$$$$
42:0
     RDKit          3D

 76 80  0  0  0  0  0  0  0  0999 V2000
   59.6190   35.4210   45.8540 O   0  0  0  0  0  0  0  0  0  0  0  0
   59.1850   34.5550   46.6590 C   0  0  0  0  0  0  0  0  0  0  0  0
   59.9560   34.2650   47.9280 C   0  0  0  0  0  0  0  0  0  0  0  0
   61.1620   33.3950   47.6810 C   0  0  0  0  0  0  0  0  0  0  0  0
   61.1080   32.0140   47.9370 C   0  0  0  0  0  0  0  0  0  0  0  0
   62.2120   31.2020   47.6610 C   0  0  0  0  0  0  0  0  0  0  0  0
   63.3720   31.7590   47.1170 C   0  0  0  0  0  0  0  0  0  0  0  0
   63.4320   33.1300   46.8540 C   0  0  0  0  0  0  0  0  0  0  0  0
   62.3310   33.9470   47.1320 C   0  0  0  0  0  0  0  0  0  0  0  0
   57.9510   33.8900   46.3310 N   0  0  0  0  0  0  0  0  0  0  0  0
   57.7720   32.7440   45.7410 C   0  0  0  0  0  0  0  0  0  0  0  0
   58.8100   31.8090   45.7350 C   0  0  0  0  0  0  0  0  0  0  0  0
   58.6110   30.5700   45.1320 C   0  0  0  0  0  0  0  0  0  0  0  0
   57.3750   30.2870   44.5410 C   0  0  0  0  0  0  0  0  0  0  0  0
   57.1230   28.9670   43.8660 C   0  0  0  0  0  0  0  0  0  0  0  0
   58.3990   28.1260   43.7360 C   0  0  0  0  0  0  0  0  0  0  0  0
   58.1000   26.6430   43.4470 C   0  0  0  0  0  0  0  0  0  0  0  0
   57.9380   25.8180   44.7320 C   0  0  0  0  0  0  0  0  0  0  0  0
   58.8360   26.3050   45.8270 C   0  0  0  0  0  0  0  0  0  0  0  0
   60.0590   25.7860   46.0810 N   0  0  0  0  0  0  0  0  0  0  0  0
   60.6470   26.3150   47.1540 N   0  0  0  0  0  0  0  0  0  0  0  0
   59.8890   27.2490   47.7700 C   0  0  0  0  0  0  0  0  0  0  0  0
   60.2720   27.8330   48.8670 N   0  0  0  0  0  0  0  0  0  0  0  0
   59.6870   28.9960   49.4780 C   0  0  0  0  0  0  0  0  0  0  0  0
   59.2130   29.9350   48.7830 O   0  0  0  0  0  0  0  0  0  0  0  0
   59.6570   29.1030   50.9710 C   0  0  0  0  0  0  0  0  0  0  0  0
   59.4970   30.5400   51.3960 C   0  0  0  0  0  0  0  0  0  0  0  0
   60.6340   31.3230   51.6540 C   0  0  0  0  0  0  0  0  0  0  0  0
   60.5060   32.6620   52.0580 C   0  0  0  0  0  0  0  0  0  0  0  0
   61.7170   33.4570   52.3570 C   0  0  0  0  0  0  0  0  0  0  0  0
   61.7780   34.0860   53.4480 O   0  0  0  0  0  0  0  0  0  0  0  0
   62.8270   33.5080   51.4360 N   0  0  0  0  0  0  0  0  0  0  0  0
   63.7390   34.6600   51.4340 C   0  0  0  0  0  0  0  0  0  0  0  0
   65.1740   34.2020   51.7280 C   0  0  0  0  0  0  0  0  0  0  0  0
   65.5820   32.9270   50.9540 C   0  0  0  0  0  0  0  0  0  0  0  0
   64.5260   32.4660   49.9420 C   0  0  0  0  0  0  0  0  0  0  0  0
   63.1520   32.3300   50.6120 C   0  0  0  0  0  0  0  0  0  0  0  0
   59.2260   33.2330   52.1570 C   0  0  0  0  0  0  0  0  0  0  0  0
   59.0660   34.5600   52.5420 O   0  0  0  0  0  0  0  0  0  0  0  0
   58.0930   32.4640   51.8820 C   0  0  0  0  0  0  0  0  0  0  0  0
   58.2210   31.1220   51.5100 C   0  0  0  0  0  0  0  0  0  0  0  0
   57.0740   30.3770   51.2530 O   0  0  0  0  0  0  0  0  0  0  0  0
   58.4130   27.4660   46.9730 S   0  0  0  0  0  0  0  0  0  0  0  0
   56.3970   31.2310   44.5680 N   0  0  0  0  0  0  0  0  0  0  0  0
   56.5860   32.4140   45.1540 N   0  0  0  0  0  0  0  0  0  0  0  0
   60.2910   35.2180   48.3635 H   0  0  0  0  0  0  0  0  0  0  0  0
   59.2857   33.7233   48.6115 H   0  0  0  0  0  0  0  0  0  0  0  0
   60.1930   31.5702   48.3564 H   0  0  0  0  0  0  0  0  0  0  0  0
   62.1673   30.1234   47.8724 H   0  0  0  0  0  0  0  0  0  0  0  0
   64.2382   31.1182   46.8957 H   0  0  0  0  0  0  0  0  0  0  0  0
   64.3467   33.5677   46.4276 H   0  0  0  0  0  0  0  0  0  0  0  0
   62.3810   35.0252   46.9199 H   0  0  0  0  0  0  0  0  0  0  0  0
   59.7761   32.0496   46.2026 H   0  0  0  0  0  0  0  0  0  0  0  0
   59.4171   29.8216   45.1204 H   0  0  0  0  0  0  0  0  0  0  0  0
   56.3862   28.4028   44.4566 H   0  0  0  0  0  0  0  0  0  0  0  0
   56.7517   29.1737   42.8514 H   0  0  0  0  0  0  0  0  0  0  0  0
   59.0060   28.5306   42.9127 H   0  0  0  0  0  0  0  0  0  0  0  0
   58.9337   28.1787   44.6959 H   0  0  0  0  0  0  0  0  0  0  0  0
   57.1689   26.5771   42.8650 H   0  0  0  0  0  0  0  0  0  0  0  0
   58.9537   26.2310   42.8889 H   0  0  0  0  0  0  0  0  0  0  0  0
   56.8939   25.8892   45.0707 H   0  0  0  0  0  0  0  0  0  0  0  0
   58.2120   24.7772   44.5049 H   0  0  0  0  0  0  0  0  0  0  0  0
   58.8121   28.5150   51.3588 H   0  0  0  0  0  0  0  0  0  0  0  0
   60.6052   28.7173   51.3736 H   0  0  0  0  0  0  0  0  0  0  0  0
   61.6355   30.8829   51.5384 H   0  0  0  0  0  0  0  0  0  0  0  0
   63.7078   35.1461   50.4477 H   0  0  0  0  0  0  0  0  0  0  0  0
   63.4224   35.3691   52.2130 H   0  0  0  0  0  0  0  0  0  0  0  0
   65.8628   35.0136   51.4509 H   0  0  0  0  0  0  0  0  0  0  0  0
   65.2251   33.9615   52.8002 H   0  0  0  0  0  0  0  0  0  0  0  0
   66.5177   33.1317   50.4131 H   0  0  0  0  0  0  0  0  0  0  0  0
   65.6976   32.1208   51.6934 H   0  0  0  0  0  0  0  0  0  0  0  0
   64.4593   33.2039   49.1289 H   0  0  0  0  0  0  0  0  0  0  0  0
   64.8233   31.4843   49.5446 H   0  0  0  0  0  0  0  0  0  0  0  0
   62.3847   32.2183   49.8318 H   0  0  0  0  0  0  0  0  0  0  0  0
   63.1775   31.4486   51.2697 H   0  0  0  0  0  0  0  0  0  0  0  0
   57.0935   32.9169   51.9585 H   0  0  0  0  0  0  0  0  0  0  0  0
  1  2  2  0
  2  3  1  0
  3  4  1  0
  4  5  2  0
  5  6  1  0
  6  7  2  0
  7  8  1  0
  8  9  2  0
  2 10  1  0
 10 11  2  3
 11 12  1  0
 12 13  2  0
 13 14  1  0
 14 15  1  0
 15 16  1  0
 16 17  1  0
 17 18  1  0
 18 19  1  0
 19 20  2  0
 20 21  1  0
 21 22  1  0
 22 23  2  3
 23 24  1  0
 24 25  2  0
 24 26  1  0
 26 27  1  0
 27 28  2  0
 28 29  1  0
 29 30  1  0
 30 31  2  0
 30 32  1  0
 32 33  1  0
 33 34  1  0
 34 35  1  0
 35 36  1  0
 36 37  1  0
 29 38  2  0
 38 39  1  0
 38 40  1  0
 40 41  2  0
 41 42  1  0
 22 43  1  0
 14 44  2  0
 44 45  1  0
  9  4  1  0
 45 11  1  0
 43 19  1  0
 41 27  1  0
 37 32  1  0
  3 46  1  0
  3 47  1  0
  5 48  1  0
  6 49  1  0
  7 50  1  0
  8 51  1  0
  9 52  1  0
 12 53  1  0
 13 54  1  0
 15 55  1  0
 15 56  1  0
 16 57  1  0
 16 58  1  0
 17 59  1  0
 17 60  1  0
 18 61  1  0
 18 62  1  0
 26 63  1  0
 26 64  1  0
 28 65  1  0
 33 66  1  0
 33 67  1  0
 34 68  1  0
 34 69  1  0
 35 70  1  0
 35 71  1  0
 36 72  1  0
 36 73  1  0
 37 74  1  0
 37 75  1  0
 40 76  1  0
M  CHG  4  21  -1  39  -1  42  -1  45  -1
M  END
>  <UniqueID>  (43) 
40

>  <SMILES>  (43) 
O=C(Cc1ccccc1)N=c1ccc(CCCCc2n[n-]c(=NC(=O)Cc3cc(C(=O)N4CCCCC4)c([O-])cc3[O-])s2)n[n-]1

>  <Energy>  (43) 
124.17484635711153

>  <Genealogy>  (43) 
O=C(Cc1ccccc1)N=c1ccc(CCCCc2n[n-]c(=NC(=O)Cc3cc(C(=O)N4CCCCC4)c([O-])cc3[O-])s2)n[n-]1 (protonated)
O=C(Cc1ccccc1)N=c1ccc(CCCCc2n[n-]c(=NC(=O)Cc3cc(C(=O)N4CCCCC4)c([O-])cc3[O-])s2)n[n-]1 (3D coordinates assigned)
O=C(Cc1ccccc1)N=c1ccc(CCCCc2n[n-]c(=NC(=O)Cc3cc(C(=O)N4CCCCC4)c([O-])cc3[O-])s2)n[n-]1 (nonaromatic ring conformer: 124.17484635711153 kcal/mol)

>  <smiles>  (43) 
O=C(Cc1ccccc1)N=c1ccc(CCCCc2n[nH]c(=NC(=O)Cc3cc(C(=O)N4CCCCC4)c(O)cc3O)s2)n[nH]1

>  <score_type>  (43) 
oracle

>  <origin>  (43) 
adg

>  <m_score__min__energy>  (43) 
-16.34

>  <m_primary>  (43) 
energy

$$$$
43:0
     RDKit          3D

 39 41  0  0  0  0  0  0  0  0999 V2000
   55.7940   26.0700   46.0000 N   0  0  0  0  0  0  0  0  0  0  0  0
   56.8290   29.3620   45.1810 C   0  0  0  0  0  0  0  0  0  0  0  0
   56.0910   28.2340   45.2800 N   0  0  0  0  0  0  0  0  0  0  0  0
   56.5100   27.1420   45.9130 C   0  0  0  0  0  0  0  0  0  0  0  0
   56.3140   30.3170   44.5580 O   0  0  0  0  0  0  0  0  0  0  0  0
   58.0660   29.4680   45.7240 N   0  0  0  0  0  0  0  0  0  0  0  0
   58.8510   30.6740   45.6140 C   0  0  0  0  0  0  0  0  0  0  0  0
   58.0660   31.8990   45.9880 C   0  0  0  0  0  0  0  0  0  0  0  0
   58.8140   33.1210   46.3210 C   0  0  0  0  0  0  0  0  0  0  0  0
   60.1610   32.9830   46.7690 N   0  0  0  0  0  0  0  0  0  0  0  0
   60.4700   33.9910   47.7590 C   0  0  0  0  0  0  0  0  0  0  0  0
   61.7760   33.7720   48.3800 C   0  0  0  0  0  0  0  0  0  0  0  0
   62.0950   33.9070   50.1640 S   0  0  0  0  0  0  0  0  0  0  0  0
   63.8770   33.4920   49.9800 C   0  0  0  0  0  0  0  0  0  0  0  0
   64.0560   33.2930   48.6050 C   0  0  0  0  0  0  0  0  0  0  0  0
   62.9970   33.4370   47.8220 C   0  0  0  0  0  0  0  0  0  0  0  0
   63.0600   33.2600   46.4060 O   0  0  0  0  0  0  0  0  0  0  0  0
   60.2470   31.6900   47.4290 C   0  0  0  0  0  0  0  0  0  0  0  0
   60.1610   30.6890   46.2690 C   0  0  0  0  0  0  0  0  0  0  0  0
   58.5280   28.3650   46.3810 C   0  0  0  0  0  0  0  0  0  0  0  0
   57.7850   27.2100   46.4880 C   0  0  0  0  0  0  0  0  0  0  0  0
   58.3900   25.8090   47.3310 Cl  0  0  0  0  0  0  0  0  0  0  0  0
   55.1610   26.0290   46.8370 H   0  0  0  0  0  0  0  0  0  0  0  0
   55.1420   28.2000   44.8440 H   0  0  0  0  0  0  0  0  0  0  0  0
   59.0902   30.6879   44.5404 H   0  0  0  0  0  0  0  0  0  0  0  0
   57.4086   32.1385   45.1392 H   0  0  0  0  0  0  0  0  0  0  0  0
   57.5557   31.6246   46.9231 H   0  0  0  0  0  0  0  0  0  0  0  0
   58.8328   33.7487   45.4179 H   0  0  0  0  0  0  0  0  0  0  0  0
   58.2798   33.5418   47.1856 H   0  0  0  0  0  0  0  0  0  0  0  0
   60.4699   34.9775   47.2724 H   0  0  0  0  0  0  0  0  0  0  0  0
   59.7063   33.9346   48.5487 H   0  0  0  0  0  0  0  0  0  0  0  0
   64.6347   33.4167   50.7739 H   0  0  0  0  0  0  0  0  0  0  0  0
   65.0396   33.0270   48.1906 H   0  0  0  0  0  0  0  0  0  0  0  0
   62.1680   33.1260   45.9160 H   0  0  0  0  0  0  0  0  0  0  0  0
   61.2003   31.5863   47.9679 H   0  0  0  0  0  0  0  0  0  0  0  0
   59.4600   31.5407   48.1829 H   0  0  0  0  0  0  0  0  0  0  0  0
   60.9225   30.9548   45.5210 H   0  0  0  0  0  0  0  0  0  0  0  0
   60.3267   29.6864   46.6902 H   0  0  0  0  0  0  0  0  0  0  0  0
   59.5269   28.3992   46.8404 H   0  0  0  0  0  0  0  0  0  0  0  0
  1  2  2  3
  2  3  1  0
  3  4  1  0
  4  5  2  0
  4  6  1  0
  6  7  1  0
  7  8  1  0
  8  9  1  0
  9 10  1  0
 10 11  1  0
 11 12  1  0
 12 13  1  0
 13 14  1  0
 14 15  2  0
 15 16  1  0
 16 17  1  0
 10 18  1  0
 18 19  1  0
  6 20  1  0
 20 21  2  0
 21 22  1  0
 21  2  1  0
 19  7  1  0
 16 12  2  0
  1 23  1  0
  3 24  1  0
  7 25  1  0
  8 26  1  0
  8 27  1  0
  9 28  1  0
  9 29  1  0
 11 30  1  0
 11 31  1  0
 14 32  1  0
 15 33  1  0
 17 34  1  0
 18 35  1  0
 18 36  1  0
 19 37  1  0
 19 38  1  0
 20 39  1  0
M  END
>  <smiles>  (44) 
N=c1[nH]c(=O)n(C2CCN(Cc3sccc3O)CC2)cc1Cl

>  <score_type>  (44) 
oracle

>  <origin>  (44) 
adg

>  <m_score__min__energy>  (44) 
-7.8200000000000003

>  <m_primary>  (44) 
energy

$$$$
44:0
     RDKit          3D

 40 42  0  0  0  0  0  0  0  0999 V2000
   58.4343   33.3849   49.9917 H   0  0  0  0  0  0  0  0  0  0  0  0
   59.3280   33.4690   49.3560 C   0  0  0  0  0  0  0  0  0  0  0  0
   60.5530   33.2530   49.8830 N   0  0  0  0  0  0  0  0  0  0  0  0
   61.6790   33.3080   49.1290 C   0  0  0  0  0  0  0  0  0  0  0  0
   62.9080   33.0650   49.7540 C   0  0  0  0  0  0  0  0  0  0  0  0
   62.9425   32.8714   50.8363 H   0  0  0  0  0  0  0  0  0  0  0  0
   64.0870   33.0670   49.0130 C   0  0  0  0  0  0  0  0  0  0  0  0
   65.6250   32.7870   49.8060 Cl  0  0  0  0  0  0  0  0  0  0  0  0
   64.0360   33.2690   47.6370 C   0  0  0  0  0  0  0  0  0  0  0  0
   64.9631   33.2388   47.0458 H   0  0  0  0  0  0  0  0  0  0  0  0
   62.8150   33.5100   47.0010 C   0  0  0  0  0  0  0  0  0  0  0  0
   62.7920   33.6322   45.9080 H   0  0  0  0  0  0  0  0  0  0  0  0
   61.6090   33.6000   47.7330 C   0  0  0  0  0  0  0  0  0  0  0  0
   60.3180   33.9150   47.1800 C   0  0  0  0  0  0  0  0  0  0  0  0
   60.0560   34.3570   45.9730 N   0  0  0  0  0  0  0  0  0  0  0  0
   58.8940   34.8770   45.2480 C   0  0  0  0  0  0  0  0  0  0  0  0
   59.2396   35.6028   44.4972 H   0  0  0  0  0  0  0  0  0  0  0  0
   58.2215   35.3500   45.9788 H   0  0  0  0  0  0  0  0  0  0  0  0
   58.1130   33.7620   44.5370 C   0  0  0  0  0  0  0  0  0  0  0  0
   58.3707   33.7741   43.4677 H   0  0  0  0  0  0  0  0  0  0  0  0
   57.0397   33.9483   44.6895 H   0  0  0  0  0  0  0  0  0  0  0  0
   58.4240   32.4440   45.0820 N   0  0  0  0  0  0  0  0  0  0  0  0
   59.3440   32.3290   45.5600 H   0  0  0  0  0  0  0  0  0  0  0  0
   57.5650   31.3040   44.9080 C   0  0  0  0  0  0  0  0  0  0  0  0
   56.3760   31.4670   44.5230 O   0  0  0  0  0  0  0  0  0  0  0  0
   58.0610   29.9380   45.2000 C   0  0  0  0  0  0  0  0  0  0  0  0
   59.4490   29.7310   45.2970 C   0  0  0  0  0  0  0  0  0  0  0  0
   60.1364   30.5773   45.1508 H   0  0  0  0  0  0  0  0  0  0  0  0
   59.9630   28.4670   45.5760 C   0  0  0  0  0  0  0  0  0  0  0  0
   61.0509   28.3198   45.6456 H   0  0  0  0  0  0  0  0  0  0  0  0
   59.1020   27.3890   45.7670 C   0  0  0  0  0  0  0  0  0  0  0  0
   59.5136   26.3930   45.9877 H   0  0  0  0  0  0  0  0  0  0  0  0
   57.7190   27.5650   45.6800 C   0  0  0  0  0  0  0  0  0  0  0  0
   56.6150   26.0120   45.9030 Br  0  0  0  0  0  0  0  0  0  0  0  0
   57.1800   28.8400   45.3940 C   0  0  0  0  0  0  0  0  0  0  0  0
   55.7590   28.9990   45.2500 N   0  0  0  0  0  0  0  0  0  0  0  0
   55.2730   29.8750   45.5350 H   0  0  0  0  0  0  0  0  0  0  0  0
   55.1460   28.2170   44.9330 H   0  0  0  0  0  0  0  0  0  0  0  0
   59.1950   33.7970   48.0130 C   0  0  0  0  0  0  0  0  0  0  0  0
   58.1918   33.9672   47.5951 H   0  0  0  0  0  0  0  0  0  0  0  0
  1  2  1  0
  2  3  1  0
  3  4  1  0
  4  5  2  0
  5  6  1  0
  5  7  1  0
  7  8  1  0
  7  9  2  0
  9 10  1  0
  9 11  1  0
 11 12  1  0
 11 13  2  0
 13 14  1  0
 14 15  2  0
 15 16  1  0
 16 17  1  0
 16 18  1  0
 16 19  1  0
 19 20  1  0
 19 21  1  0
 19 22  1  0
 22 23  1  0
 22 24  1  0
 24 25  2  0
 24 26  1  0
 26 27  2  0
 27 28  1  0
 27 29  1  0
 29 30  1  0
 29 31  2  0
 31 32  1  0
 31 33  1  0
 33 34  1  0
 33 35  2  0
 35 36  1  0
 36 37  1  0
 36 38  1  0
 14 39  1  0
 39 40  1  0
 39  2  2  0
 13  4  1  0
 35 26  1  0
M  CHG  1   3  -1
M  END
>  <UniqueID>  (45) 
41

>  <SMILES>  (45) 
Nc1c(Br)cccc1C(=O)NCC/N=c1/cc[n-]c2cc(Cl)ccc12

>  <Energy>  (45) 
64.9016936493704

>  <Genealogy>  (45) 
Nc1c(Br)cccc1C(=O)NCCN=c1cc[n-]c2cc(Cl)ccc12 (protonated)
Nc1c(Br)cccc1C(=O)NCC/N=c1/cc[n-]c2cc(Cl)ccc12 (cis-trans isomerization)
Nc1c(Br)cccc1C(=O)NCC/N=c1/cc[n-]c2cc(Cl)ccc12 (3D coordinates assigned)
Nc1c(Br)cccc1C(=O)NCC/N=c1/cc[n-]c2cc(Cl)ccc12 (optimized conformer: 64.9016936493704 kcal/mol)

>  <smiles>  (45) 
Nc1c(Br)cccc1C(=O)NCCN=c1cc[nH]c2cc(Cl)ccc12

>  <score_type>  (45) 
oracle

>  <origin>  (45) 
adg

>  <m_score__min__energy>  (45) 
-10

>  <m_primary>  (45) 
energy

$$$$
45:0
     RDKit          3D

 48 50  0  0  0  0  0  0  0  0999 V2000
   58.8650   30.1030   48.3660 H   0  0  0  0  0  0  0  0  0  0  0  0
   58.8270   29.0930   48.3280 O   0  0  0  0  0  0  0  0  0  0  0  0
   58.6110   28.3710   47.1520 C   0  0  0  0  0  0  0  0  0  0  0  0
   57.5340   27.4790   47.1230 C   0  0  0  0  0  0  0  0  0  0  0  0
   56.9249   27.3364   48.0278 H   0  0  0  0  0  0  0  0  0  0  0  0
   57.2180   26.7630   45.9580 C   0  0  0  0  0  0  0  0  0  0  0  0
   56.0640   25.8360   45.9390 C   0  0  0  0  0  0  0  0  0  0  0  0
   56.2420   24.5890   45.9110 O   0  0  0  0  0  0  0  0  0  0  0  0
   54.7630   26.3290   45.9560 O   0  0  0  0  0  0  0  0  0  0  0  0
   58.0000   26.9550   44.8090 C   0  0  0  0  0  0  0  0  0  0  0  0
   57.7564   26.4098   43.8852 H   0  0  0  0  0  0  0  0  0  0  0  0
   59.0850   27.8330   44.8300 C   0  0  0  0  0  0  0  0  0  0  0  0
   59.6787   27.9847   43.9165 H   0  0  0  0  0  0  0  0  0  0  0  0
   59.4290   28.5270   46.0060 C   0  0  0  0  0  0  0  0  0  0  0  0
   60.6150   29.4720   46.0110 C   0  0  0  0  0  0  0  0  0  0  0  0
   60.6886   29.9528   45.0244 H   0  0  0  0  0  0  0  0  0  0  0  0
   61.5151   28.8818   46.2379 H   0  0  0  0  0  0  0  0  0  0  0  0
   60.4940   30.4880   47.0100 O   0  0  0  0  0  0  0  0  0  0  0  0
   61.4110   31.5330   47.2250 C   0  0  0  0  0  0  0  0  0  0  0  0
   62.8050   31.3180   47.1640 C   0  0  0  0  0  0  0  0  0  0  0  0
   63.1931   30.3020   46.9991 H   0  0  0  0  0  0  0  0  0  0  0  0
   63.6950   32.3830   47.3110 C   0  0  0  0  0  0  0  0  0  0  0  0
   64.7791   32.2035   47.2619 H   0  0  0  0  0  0  0  0  0  0  0  0
   63.2120   33.6740   47.5200 C   0  0  0  0  0  0  0  0  0  0  0  0
   63.9152   34.5132   47.6259 H   0  0  0  0  0  0  0  0  0  0  0  0
   61.8370   33.9030   47.5950 C   0  0  0  0  0  0  0  0  0  0  0  0
   61.4627   34.9259   47.7488 H   0  0  0  0  0  0  0  0  0  0  0  0
   60.9270   32.8400   47.4760 C   0  0  0  0  0  0  0  0  0  0  0  0
   59.4820   33.1520   47.5740 C   0  0  0  0  0  0  0  0  0  0  0  0
   59.0586   33.3748   48.5645 H   0  0  0  0  0  0  0  0  0  0  0  0
   58.6670   33.1750   46.5090 C   0  0  0  0  0  0  0  0  0  0  0  0
   58.4233   34.1466   46.0546 H   0  0  0  0  0  0  0  0  0  0  0  0
   58.0820   31.9530   45.9190 C   0  0  0  0  0  0  0  0  0  0  0  0
   57.7770   31.0060   46.6930 O   0  0  0  0  0  0  0  0  0  0  0  0
   57.8070   31.8160   44.4650 C   0  0  0  0  0  0  0  0  0  0  0  0
   58.3850   32.7370   43.5730 C   0  0  0  0  0  0  0  0  0  0  0  0
   59.0512   33.5230   43.9581 H   0  0  0  0  0  0  0  0  0  0  0  0
   58.1220   32.6640   42.2040 C   0  0  0  0  0  0  0  0  0  0  0  0
   58.5878   33.3848   41.5159 H   0  0  0  0  0  0  0  0  0  0  0  0
   57.2700   31.6790   41.7080 C   0  0  0  0  0  0  0  0  0  0  0  0
   57.0611   31.6261   40.6293 H   0  0  0  0  0  0  0  0  0  0  0  0
   56.6810   30.7590   42.5780 C   0  0  0  0  0  0  0  0  0  0  0  0
   56.0028   29.9898   42.1802 H   0  0  0  0  0  0  0  0  0  0  0  0
   56.9470   30.8070   43.9580 C   0  0  0  0  0  0  0  0  0  0  0  0
   56.3000   29.7890   44.8620 C   0  0  0  0  0  0  0  0  0  0  0  0
   56.4762   30.0663   45.9118 H   0  0  0  0  0  0  0  0  0  0  0  0
   55.2178   29.7607   44.6670 H   0  0  0  0  0  0  0  0  0  0  0  0
   56.7338   28.7972   44.6670 H   0  0  0  0  0  0  0  0  0  0  0  0
  1  2  1  0
  2  3  1  0
  3  4  2  0
  4  5  1  0
  4  6  1  0
  6  7  1  0
  7  8  2  0
  7  9  1  0
  6 10  2  0
 10 11  1  0
 10 12  1  0
 12 13  1  0
 12 14  2  0
 14 15  1  0
 15 16  1  0
 15 17  1  0
 15 18  1  0
 18 19  1  0
 19 20  2  0
 20 21  1  0
 20 22  1  0
 22 23  1  0
 22 24  2  0
 24 25  1  0
 24 26  1  0
 26 27  1  0
 26 28  2  0
 28 29  1  0
 29 30  1  0
 29 31  2  0
 31 32  1  0
 31 33  1  0
 33 34  2  0
 33 35  1  0
 35 36  2  0
 36 37  1  0
 36 38  1  0
 38 39  1  0
 38 40  2  0
 40 41  1  0
 40 42  1  0
 42 43  1  0
 42 44  2  0
 44 45  1  0
 45 46  1  0
 45 47  1  0
 45 48  1  0
 14  3  1  0
 28 19  1  0
 44 35  1  0
M  CHG  1   9  -1
M  END
>  <UniqueID>  (46) 
42

>  <SMILES>  (46) 
Cc1ccccc1C(=O)/C=C/c1ccccc1OCc1ccc(C(=O)[O-])cc1O

>  <Energy>  (46) 
64.885857957621

>  <Genealogy>  (46) 
Cc1ccccc1C(=O)C=Cc1ccccc1OCc1ccc(C(=O)[O-])cc1O (protonated)
Cc1ccccc1C(=O)/C=C/c1ccccc1OCc1ccc(C(=O)[O-])cc1O (cis-trans isomerization)
Cc1ccccc1C(=O)/C=C/c1ccccc1OCc1ccc(C(=O)[O-])cc1O (3D coordinates assigned)
Cc1ccccc1C(=O)/C=C/c1ccccc1OCc1ccc(C(=O)[O-])cc1O (optimized conformer: 64.885857957621 kcal/mol)

>  <smiles>  (46) 
Cc1ccccc1C(=O)C=Cc1ccccc1OCc1ccc(C(=O)O)cc1O

>  <score_type>  (46) 
oracle

>  <origin>  (46) 
adg

>  <m_score__min__energy>  (46) 
-12.039999999999999

>  <m_primary>  (46) 
energy

$$$$
46:0
     RDKit          3D

 40 42  0  0  0  0  0  0  0  0999 V2000
   61.3201   28.7180   47.3626 H   0  0  0  0  0  0  0  0  0  0  0  0
   60.5740   27.9320   47.5510 C   0  0  0  0  0  0  0  0  0  0  0  0
   60.2870   27.6040   48.9680 C   0  0  0  0  0  0  0  0  0  0  0  0
   60.0610   26.4030   49.2670 O   0  0  0  0  0  0  0  0  0  0  0  0
   60.2230   28.5930   50.0090 N   0  0  0  0  0  0  0  0  0  0  0  0
   59.5300   29.6970   50.0300 C   0  0  0  0  0  0  0  0  0  0  0  0
   58.4970   29.7910   50.9090 N   0  0  0  0  0  0  0  0  0  0  0  0
   57.6980   30.8870   50.9760 C   0  0  0  0  0  0  0  0  0  0  0  0
   56.8723   30.9207   51.7020 H   0  0  0  0  0  0  0  0  0  0  0  0
   57.9220   31.9690   50.1270 C   0  0  0  0  0  0  0  0  0  0  0  0
   57.2580   32.8453   50.1613 H   0  0  0  0  0  0  0  0  0  0  0  0
   58.9990   31.9350   49.2280 C   0  0  0  0  0  0  0  0  0  0  0  0
   59.2590   33.0660   48.3040 C   0  0  0  0  0  0  0  0  0  0  0  0
   59.9270   34.0510   48.7190 O   0  0  0  0  0  0  0  0  0  0  0  0
   58.7560   33.0790   46.9090 C   0  0  0  0  0  0  0  0  0  0  0  0
   58.2360   31.9070   46.3280 C   0  0  0  0  0  0  0  0  0  0  0  0
   58.2158   30.9724   46.9077 H   0  0  0  0  0  0  0  0  0  0  0  0
   57.7450   31.9230   45.0190 C   0  0  0  0  0  0  0  0  0  0  0  0
   57.3476   31.0005   44.5706 H   0  0  0  0  0  0  0  0  0  0  0  0
   57.7580   33.1070   44.2800 C   0  0  0  0  0  0  0  0  0  0  0  0
   57.3724   33.1167   43.2499 H   0  0  0  0  0  0  0  0  0  0  0  0
   58.2610   34.2800   44.8490 C   0  0  0  0  0  0  0  0  0  0  0  0
   58.2686   35.2127   44.2659 H   0  0  0  0  0  0  0  0  0  0  0  0
   58.7550   34.2720   46.1580 C   0  0  0  0  0  0  0  0  0  0  0  0
   59.2510   35.4220   46.6810 F   0  0  0  0  0  0  0  0  0  0  0  0
   59.8100   30.7890   49.1840 C   0  0  0  0  0  0  0  0  0  0  0  0
   60.6625   30.7438   48.4903 H   0  0  0  0  0  0  0  0  0  0  0  0
   60.0080   27.3590   46.4750 C   0  0  0  0  0  0  0  0  0  0  0  0
   60.6698   27.0881   45.6392 H   0  0  0  0  0  0  0  0  0  0  0  0
   58.5690   27.0640   46.3250 C   0  0  0  0  0  0  0  0  0  0  0  0
   58.0390   25.8120   46.6800 C   0  0  0  0  0  0  0  0  0  0  0  0
   58.7022   25.0270   47.0723 H   0  0  0  0  0  0  0  0  0  0  0  0
   56.6710   25.5610   46.5360 C   0  0  0  0  0  0  0  0  0  0  0  0
   56.2582   24.5840   46.8276 H   0  0  0  0  0  0  0  0  0  0  0  0
   55.8270   26.5500   46.0220 C   0  0  0  0  0  0  0  0  0  0  0  0
   54.4660   26.2970   45.8890 O   0  0  0  0  0  0  0  0  0  0  0  0
   56.3540   27.7900   45.6400 C   0  0  0  0  0  0  0  0  0  0  0  0
   55.5190   28.7750   45.1250 O   0  0  0  0  0  0  0  0  0  0  0  0
   57.7230   28.0400   45.7790 C   0  0  0  0  0  0  0  0  0  0  0  0
   58.1381   29.0069   45.4585 H   0  0  0  0  0  0  0  0  0  0  0  0
  1  2  1  0
  2  3  1  0
  3  4  2  0
  3  5  1  0
  5  6  2  3
  6  7  1  0
  7  8  1  0
  8  9  1  0
  8 10  2  0
 10 11  1  0
 10 12  1  0
 12 13  1  0
 13 14  2  0
 13 15  1  0
 15 16  2  0
 16 17  1  0
 16 18  1  0
 18 19  1  0
 18 20  2  0
 20 21  1  0
 20 22  1  0
 22 23  1  0
 22 24  2  0
 24 25  1  0
 12 26  2  0
 26 27  1  0
  2 28  2  0
 28 29  1  0
 28 30  1  0
 30 31  2  0
 31 32  1  0
 31 33  1  0
 33 34  1  0
 33 35  2  0
 35 36  1  0
 35 37  1  0
 37 38  1  0
 37 39  2  0
 39 40  1  0
 26  6  1  0
 39 30  1  0
 24 15  1  0
M  CHG  3   7  -1  36  -1  38  -1
M  END
>  <UniqueID>  (47) 
43

>  <SMILES>  (47) 
O=C(/C=C\c1ccc([O-])c([O-])c1)N=c1cc(C(=O)c2ccccc2F)cc[n-]1

>  <Energy>  (47) 
65.70640627236318

>  <Genealogy>  (47) 
O=C(C=Cc1ccc([O-])c([O-])c1)N=c1cc(C(=O)c2ccccc2F)cc[n-]1 (protonated)
O=C(/C=C\c1ccc([O-])c([O-])c1)N=c1cc(C(=O)c2ccccc2F)cc[n-]1 (cis-trans isomerization)
O=C(/C=C\c1ccc([O-])c([O-])c1)N=c1cc(C(=O)c2ccccc2F)cc[n-]1 (3D coordinates assigned)
O=C(/C=C\c1ccc([O-])c([O-])c1)N=c1cc(C(=O)c2ccccc2F)cc[n-]1 (optimized conformer: 65.70640627236318 kcal/mol)

>  <smiles>  (47) 
O=C(C=Cc1ccc(O)c(O)c1)N=c1cc(C(=O)c2ccccc2F)cc[nH]1

>  <score_type>  (47) 
oracle

>  <origin>  (47) 
adg

>  <m_score__min__energy>  (47) 
-18.670000000000002

>  <m_primary>  (47) 
energy

$$$$
47:0
     RDKit          3D

 72 75  0  0  0  0  0  0  0  0999 V2000
   59.9410   29.6860   48.0270 C   0  0  0  0  0  0  0  0  0  0  0  0
   59.9060   31.1550   47.9990 N   0  0  0  0  0  0  0  0  0  0  0  0
   60.8670   31.6670   47.0010 C   0  0  0  0  0  0  0  0  0  0  0  0
   61.0390   33.2000   47.0880 C   0  0  0  0  0  0  0  0  0  0  0  0
   60.0840   33.8520   48.0070 N   0  0  0  0  0  0  0  0  0  0  0  0
   58.8190   34.3130   47.3940 C   0  0  0  0  0  0  0  0  0  0  0  0
   58.4560   33.5760   46.1250 C   0  0  0  0  0  0  0  0  0  0  0  0
   58.8120   34.0920   44.8710 C   0  0  0  0  0  0  0  0  0  0  0  0
   58.4720   33.4070   43.7030 C   0  0  0  0  0  0  0  0  0  0  0  0
   57.7600   32.2090   43.7710 C   0  0  0  0  0  0  0  0  0  0  0  0
   57.4060   31.6690   45.0220 C   0  0  0  0  0  0  0  0  0  0  0  0
   56.7190   30.4560   45.1680 O   0  0  0  0  0  0  0  0  0  0  0  0
   56.5940   29.4270   44.1860 C   0  0  0  0  0  0  0  0  0  0  0  0
   57.9030   28.6110   44.0780 C   0  0  2  0  0  0  0  0  0  0  0  0
   57.7390   27.5460   43.1760 O   0  0  0  0  0  0  0  0  0  0  0  0
   58.4360   28.0710   45.4270 C   0  0  0  0  0  0  0  0  0  0  0  0
   57.3890   27.4170   46.3590 C   0  0  1  0  0  0  0  0  0  0  0  0
   56.2200   26.9470   45.6090 N   0  0  0  0  0  0  0  0  0  0  0  0
   58.0270   26.2700   47.1210 C   0  0  0  0  0  0  0  0  0  0  0  0
   59.0170   26.5050   47.8640 O   0  0  0  0  0  0  0  0  0  0  0  0
   57.4840   24.9450   47.1210 N   0  0  0  0  0  0  0  0  0  0  0  0
   57.6810   23.9210   46.1360 C   0  0  0  0  0  0  0  0  0  0  0  0
   58.9590   23.6530   45.6190 C   0  0  0  0  0  0  0  0  0  0  0  0
   59.1440   22.6210   44.6930 C   0  0  0  0  0  0  0  0  0  0  0  0
   58.0610   21.8320   44.3000 C   0  0  0  0  0  0  0  0  0  0  0  0
   56.7950   22.0620   44.8440 C   0  0  0  0  0  0  0  0  0  0  0  0
   56.5990   23.1030   45.7620 C   0  0  0  0  0  0  0  0  0  0  0  0
   55.3010   23.3050   46.3300 N   0  0  0  0  0  0  0  0  0  0  0  0
   54.7170   22.4320   47.3380 C   0  0  0  0  0  0  0  0  0  0  0  0
   53.2220   22.2130   46.9890 C   0  0  0  0  0  0  0  0  0  0  0  0
   52.6780   23.3420   46.2140 N   0  0  0  0  0  0  0  0  0  0  0  0
   54.0460   24.0430   45.4460 S   0  0  0  0  0  0  0  0  0  0  0  0
   54.0610   25.5350   45.6270 O   0  0  0  0  0  0  0  0  0  0  0  0
   54.1050   23.6670   43.9900 O   0  0  0  0  0  0  0  0  0  0  0  0
   57.7740   32.3510   46.1890 C   0  0  0  0  0  0  0  0  0  0  0  0
   59.9600   33.2220   49.3420 C   0  0  0  0  0  0  0  0  0  0  0  0
   60.2230   31.7050   49.3240 C   0  0  0  0  0  0  0  0  0  0  0  0
   59.9493   29.3393   49.0709 H   0  0  0  0  0  0  0  0  0  0  0  0
   59.0521   29.2882   47.5155 H   0  0  0  0  0  0  0  0  0  0  0  0
   60.8479   29.3310   47.5155 H   0  0  0  0  0  0  0  0  0  0  0  0
   61.8436   31.1908   47.1730 H   0  0  0  0  0  0  0  0  0  0  0  0
   60.4749   31.4277   46.0015 H   0  0  0  0  0  0  0  0  0  0  0  0
   62.0596   33.4160   47.4368 H   0  0  0  0  0  0  0  0  0  0  0  0
   60.8456   33.6034   46.0831 H   0  0  0  0  0  0  0  0  0  0  0  0
   58.0075   34.1705   48.1228 H   0  0  0  0  0  0  0  0  0  0  0  0
   58.9587   35.3701   47.1237 H   0  0  0  0  0  0  0  0  0  0  0  0
   59.3625   35.0422   44.8070 H   0  0  0  0  0  0  0  0  0  0  0  0
   58.7668   33.8137   42.7244 H   0  0  0  0  0  0  0  0  0  0  0  0
   57.4750   31.6859   42.8462 H   0  0  0  0  0  0  0  0  0  0  0  0
   55.7718   28.7541   44.4710 H   0  0  0  0  0  0  0  0  0  0  0  0
   56.3866   29.8925   43.2112 H   0  0  0  0  0  0  0  0  0  0  0  0
   58.6603   29.3196   43.7114 H   0  0  0  0  0  0  0  0  0  0  0  0
   57.0190   26.9660   43.5380 H   0  0  0  0  0  0  0  0  0  0  0  0
   59.2069   27.3179   45.2067 H   0  0  0  0  0  0  0  0  0  0  0  0
   58.8079   28.9513   45.9717 H   0  0  0  0  0  0  0  0  0  0  0  0
   57.0395   28.1783   47.0719 H   0  0  0  0  0  0  0  0  0  0  0  0
   56.3280   27.1960   44.5990 H   0  0  0  0  0  0  0  0  0  0  0  0
   56.1790   25.9040   45.6710 H   0  0  0  0  0  0  0  0  0  0  0  0
   59.8187   24.2576   45.9438 H   0  0  0  0  0  0  0  0  0  0  0  0
   60.1432   22.4309   44.2742 H   0  0  0  0  0  0  0  0  0  0  0  0
   58.2048   21.0292   43.5619 H   0  0  0  0  0  0  0  0  0  0  0  0
   55.9485   21.4236   44.5508 H   0  0  0  0  0  0  0  0  0  0  0  0
   55.2429   21.4658   47.3424 H   0  0  0  0  0  0  0  0  0  0  0  0
   54.8095   22.8898   48.3339 H   0  0  0  0  0  0  0  0  0  0  0  0
   53.1246   21.2920   46.3955 H   0  0  0  0  0  0  0  0  0  0  0  0
   52.6558   22.1346   47.9288 H   0  0  0  0  0  0  0  0  0  0  0  0
   52.0490   22.9680   45.4660 H   0  0  0  0  0  0  0  0  0  0  0  0
   57.5248   31.9201   47.1699 H   0  0  0  0  0  0  0  0  0  0  0  0
   60.6857   33.6945   50.0203 H   0  0  0  0  0  0  0  0  0  0  0  0
   58.9231   33.3699   49.6780 H   0  0  0  0  0  0  0  0  0  0  0  0
   61.2823   31.5163   49.5526 H   0  0  0  0  0  0  0  0  0  0  0  0
   59.5860   31.2195   50.0780 H   0  0  0  0  0  0  0  0  0  0  0  0
  1  2  1  0
  2  3  1  0
  3  4  1  0
  4  5  1  0
  5  6  1  0
  6  7  1  0
  7  8  2  0
  8  9  1  0
  9 10  2  0
 10 11  1  0
 11 12  1  0
 12 13  1  0
 13 14  1  0
 14 15  1  0
 14 16  1  0
 16 17  1  0
 17 18  1  0
 17 19  1  0
 19 20  2  0
 19 21  1  0
 21 22  1  0
 22 23  2  0
 23 24  1  0
 24 25  2  0
 25 26  1  0
 26 27  2  0
 27 28  1  0
 28 29  1  0
 29 30  1  0
 30 31  1  0
 31 32  1  0
 32 33  2  0
 32 34  2  0
 11 35  2  0
  5 36  1  0
 36 37  1  0
 37  2  1  0
 35  7  1  0
 27 22  1  0
 32 28  1  0
  1 38  1  0
  1 39  1  0
  1 40  1  0
  3 41  1  0
  3 42  1  0
  4 43  1  0
  4 44  1  0
  6 45  1  0
  6 46  1  0
  8 47  1  0
  9 48  1  0
 10 49  1  0
 13 50  1  0
 13 51  1  0
 14 52  1  6
 15 53  1  0
 16 54  1  0
 16 55  1  0
 17 56  1  1
 18 57  1  0
 18 58  1  0
 23 59  1  0
 24 60  1  0
 25 61  1  0
 26 62  1  0
 29 63  1  0
 29 64  1  0
 30 65  1  0
 30 66  1  0
 31 67  1  0
 35 68  1  0
 36 69  1  0
 36 70  1  0
 37 71  1  0
 37 72  1  0
M  CHG  1  21  -1
M  END
>  <UniqueID>  (48) 
44

>  <SMILES>  (48) 
CN1CCN(Cc2cccc(OC[C@H](O)C[C@@H](N)C(=O)[N-]c3ccccc3N3CCNS3(=O)=O)c2)CC1

>  <Energy>  (48) 
100.3590994188268

>  <Genealogy>  (48) 
CN1CCN(Cc2cccc(OCC(O)CC(N)C(=O)[N-]c3ccccc3N3CCNS3(=O)=O)c2)CC1 (protonated)
CN1CCN(Cc2cccc(OC[C@H](O)C[C@@H](N)C(=O)[N-]c3ccccc3N3CCNS3(=O)=O)c2)CC1 (chirality)
CN1CCN(Cc2cccc(OC[C@H](O)C[C@@H](N)C(=O)[N-]c3ccccc3N3CCNS3(=O)=O)c2)CC1 (3D coordinates assigned)
CN1CCN(Cc2cccc(OC[C@H](O)C[C@@H](N)C(=O)[N-]c3ccccc3N3CCNS3(=O)=O)c2)CC1 (nonaromatic ring conformer: 100.3590994188268 kcal/mol)

>  <smiles>  (48) 
CN1CCN(Cc2cccc(OCC(O)CC(N)C(=O)Nc3ccccc3N3CCNS3(=O)=O)c2)CC1

>  <score_type>  (48) 
oracle

>  <origin>  (48) 
adg

>  <m_score__min__energy>  (48) 
-12.220000000000001

>  <m_primary>  (48) 
energy

$$$$
48:0
     RDKit          3D

 19 19  0  0  0  0  0  0  0  0999 V2000
   58.3010   27.4210   43.3500 C   0  0  0  0  0  0  0  0  0  0  0  0
   59.1710   28.0260   44.4480 C   0  0  0  0  0  0  0  0  0  0  0  0
   58.3600   28.2770   45.7240 C   0  0  0  0  0  0  0  0  0  0  0  0
   57.3600   27.1680   45.9460 C   0  0  0  0  0  0  0  0  0  0  0  0
   55.9930   27.3610   45.6760 C   0  0  0  0  0  0  0  0  0  0  0  0
   55.5250   28.5890   45.2230 O   0  0  0  0  0  0  0  0  0  0  0  0
   55.1150   26.3400   45.8550 N   0  0  0  0  0  0  0  0  0  0  0  0
   55.5310   25.1220   46.2830 C   0  0  0  0  0  0  0  0  0  0  0  0
   54.6970   24.1940   46.4430 O   0  0  0  0  0  0  0  0  0  0  0  0
   56.8470   24.9030   46.5340 N   0  0  0  0  0  0  0  0  0  0  0  0
   57.7660   25.8890   46.3710 C   0  0  0  0  0  0  0  0  0  0  0  0
   58.9800   25.6440   46.6040 O   0  0  0  0  0  0  0  0  0  0  0  0
   57.4793   26.8496   43.8064 H   0  0  0  0  0  0  0  0  0  0  0  0
   57.8855   28.2260   42.7261 H   0  0  0  0  0  0  0  0  0  0  0  0
   58.9111   26.7513   42.7261 H   0  0  0  0  0  0  0  0  0  0  0  0
   59.9937   27.3325   44.6766 H   0  0  0  0  0  0  0  0  0  0  0  0
   59.5632   28.9893   44.0899 H   0  0  0  0  0  0  0  0  0  0  0  0
   59.0445   28.3238   46.5838 H   0  0  0  0  0  0  0  0  0  0  0  0
   57.8168   29.2276   45.6172 H   0  0  0  0  0  0  0  0  0  0  0  0
  1  2  1  0
  2  3  1  0
  3  4  1  0
  4  5  2  0
  5  6  1  0
  5  7  1  0
  7  8  1  0
  8  9  2  0
  8 10  1  0
 10 11  1  0
 11 12  2  0
 11  4  1  0
  1 13  1  0
  1 14  1  0
  1 15  1  0
  2 16  1  0
  2 17  1  0
  3 18  1  0
  3 19  1  0
M  CHG  3   6  -1   7  -1  10  -1
M  END
>  <UniqueID>  (49) 
45

>  <SMILES>  (49) 
CCCc1c([O-])[n-]c(=O)[n-]c1=O

>  <Energy>  (49) 
14.69631049560288

>  <Genealogy>  (49) 
CCCc1c([O-])[n-]c(=O)[n-]c1=O (protonated)
CCCc1c([O-])[n-]c(=O)[n-]c1=O (3D coordinates assigned)
CCCc1c([O-])[n-]c(=O)[n-]c1=O (optimized conformer: 14.69631049560288 kcal/mol)

>  <smiles>  (49) 
CCCc1c(O)[nH]c(=O)[nH]c1=O

>  <score_type>  (49) 
oracle

>  <origin>  (49) 
adg

>  <m_score__min__energy>  (49) 
-13.57

>  <m_primary>  (49) 
energy

$$$$
49:0
     RDKit          3D

 69 72  0  0  0  0  0  0  0  0999 V2000
   60.7120   26.4580   48.4500 O   0  0  0  0  0  0  0  0  0  0  0  0
   60.0580   27.5300   48.4000 C   0  0  0  0  0  0  0  0  0  0  0  0
   60.6870   28.7980   48.9140 C   0  0  0  0  0  0  0  0  0  0  0  0
   59.9240   29.9750   48.4830 N   0  0  0  0  0  0  0  0  0  0  0  0
   60.2270   30.6210   47.2000 C   0  0  0  0  0  0  0  0  0  0  0  0
   61.3220   31.6400   47.3670 C   0  0  0  0  0  0  0  0  0  0  0  0
   62.6710   31.2430   47.3670 C   0  0  0  0  0  0  0  0  0  0  0  0
   63.6870   32.1920   47.5220 C   0  0  0  0  0  0  0  0  0  0  0  0
   63.3640   33.5420   47.6840 C   0  0  0  0  0  0  0  0  0  0  0  0
   62.0260   33.9440   47.6960 C   0  0  0  0  0  0  0  0  0  0  0  0
   61.0060   32.9990   47.5420 C   0  0  0  0  0  0  0  0  0  0  0  0
   58.8960   30.5000   49.3380 C   0  0  0  0  0  0  0  0  0  0  0  0
   58.2490   29.7230   50.0870 O   0  0  0  0  0  0  0  0  0  0  0  0
   58.5690   31.9640   49.3340 C   0  0  0  0  0  0  0  0  0  0  0  0
   57.7470   32.3040   50.5040 N   0  0  0  0  0  0  0  0  0  0  0  0
   58.7390   32.8390   51.8290 S   0  0  0  0  0  0  0  0  0  0  0  0
   58.5440   34.3150   52.0260 O   0  0  0  0  0  0  0  0  0  0  0  0
   58.3260   32.1270   53.0840 O   0  0  0  0  0  0  0  0  0  0  0  0
   60.4370   32.4870   51.4980 C   0  0  0  0  0  0  0  0  0  0  0  0
   60.9390   31.1850   51.6470 C   0  0  0  0  0  0  0  0  0  0  0  0
   62.2970   30.9270   51.4290 C   0  0  0  0  0  0  0  0  0  0  0  0
   63.1590   31.9660   51.0630 C   0  0  0  0  0  0  0  0  0  0  0  0
   62.6640   33.2650   50.9090 C   0  0  0  0  0  0  0  0  0  0  0  0
   61.3060   33.5250   51.1240 C   0  0  0  0  0  0  0  0  0  0  0  0
   58.7480   27.5150   47.8170 N   0  0  0  0  0  0  0  0  0  0  0  0
   58.4450   27.7130   46.4300 C   0  0  0  0  0  0  0  0  0  0  0  0
   58.6380   26.6910   45.4850 C   0  0  0  0  0  0  0  0  0  0  0  0
   58.3150   26.9060   44.1430 C   0  0  0  0  0  0  0  0  0  0  0  0
   57.8170   28.1450   43.7340 C   0  0  0  0  0  0  0  0  0  0  0  0
   57.6610   29.1860   44.6600 C   0  0  0  0  0  0  0  0  0  0  0  0
   57.0250   30.7470   44.1330 S   0  0  0  0  0  0  0  0  0  0  0  0
   57.1210   30.8320   42.6350 O   0  0  0  0  0  0  0  0  0  0  0  0
   55.5730   30.8420   44.5110 O   0  0  0  0  0  0  0  0  0  0  0  0
   57.8950   32.0860   44.8410 N   0  0  0  0  0  0  0  0  0  0  0  0
   58.4050   32.9830   43.7930 C   0  0  0  0  0  0  0  0  0  0  0  0
   59.0450   34.2360   44.4250 C   0  0  0  0  0  0  0  0  0  0  0  0
   59.1130   34.1280   45.8340 O   0  0  0  0  0  0  0  0  0  0  0  0
   57.8070   34.0220   46.3710 C   0  0  0  0  0  0  0  0  0  0  0  0
   57.0320   32.8300   45.7700 C   0  0  0  0  0  0  0  0  0  0  0  0
   57.9890   28.9680   46.0070 C   0  0  0  0  0  0  0  0  0  0  0  0
   60.7113   28.7677   50.0133 H   0  0  0  0  0  0  0  0  0  0  0  0
   61.7067   28.8732   48.5083 H   0  0  0  0  0  0  0  0  0  0  0  0
   60.5509   29.8570   46.4779 H   0  0  0  0  0  0  0  0  0  0  0  0
   59.3219   31.1288   46.8355 H   0  0  0  0  0  0  0  0  0  0  0  0
   62.9287   30.1806   47.2445 H   0  0  0  0  0  0  0  0  0  0  0  0
   64.7405   31.8755   47.5164 H   0  0  0  0  0  0  0  0  0  0  0  0
   64.1634   34.2883   47.8021 H   0  0  0  0  0  0  0  0  0  0  0  0
   61.7738   35.0067   47.8269 H   0  0  0  0  0  0  0  0  0  0  0  0
   59.9540   33.3199   47.5578 H   0  0  0  0  0  0  0  0  0  0  0  0
   59.5026   32.5449   49.3648 H   0  0  0  0  0  0  0  0  0  0  0  0
   58.0074   32.2037   48.4191 H   0  0  0  0  0  0  0  0  0  0  0  0
   57.2570   31.4370   50.8260 H   0  0  0  0  0  0  0  0  0  0  0  0
   60.2639   30.3659   51.9356 H   0  0  0  0  0  0  0  0  0  0  0  0
   62.6873   29.9052   51.5457 H   0  0  0  0  0  0  0  0  0  0  0  0
   64.2268   31.7613   50.8962 H   0  0  0  0  0  0  0  0  0  0  0  0
   63.3417   34.0816   50.6191 H   0  0  0  0  0  0  0  0  0  0  0  0
   60.9175   34.5466   50.9996 H   0  0  0  0  0  0  0  0  0  0  0  0
   59.0444   25.7194   45.8027 H   0  0  0  0  0  0  0  0  0  0  0  0
   58.4530   26.0991   43.4082 H   0  0  0  0  0  0  0  0  0  0  0  0
   57.5458   28.3049   42.6800 H   0  0  0  0  0  0  0  0  0  0  0  0
   59.1609   32.4512   43.1965 H   0  0  0  0  0  0  0  0  0  0  0  0
   57.5682   33.2943   43.1504 H   0  0  0  0  0  0  0  0  0  0  0  0
   60.0629   34.3574   44.0261 H   0  0  0  0  0  0  0  0  0  0  0  0
   58.4205   35.1063   44.1750 H   0  0  0  0  0  0  0  0  0  0  0  0
   57.8804   33.8856   47.4600 H   0  0  0  0  0  0  0  0  0  0  0  0
   57.2606   34.9438   46.1225 H   0  0  0  0  0  0  0  0  0  0  0  0
   56.7071   32.1609   46.5804 H   0  0  0  0  0  0  0  0  0  0  0  0
   56.1551   33.2080   45.2240 H   0  0  0  0  0  0  0  0  0  0  0  0
   57.8875   29.7869   46.7343 H   0  0  0  0  0  0  0  0  0  0  0  0
  1  2  2  0
  2  3  1  0
  3  4  1  0
  4  5  1  0
  5  6  1  0
  6  7  2  0
  7  8  1  0
  8  9  2  0
  9 10  1  0
 10 11  2  0
  4 12  1  0
 12 13  2  0
 12 14  1  0
 14 15  1  0
 15 16  1  0
 16 17  2  0
 16 18  2  0
 16 19  1  0
 19 20  2  0
 20 21  1  0
 21 22  2  0
 22 23  1  0
 23 24  2  0
  2 25  1  0
 25 26  1  0
 26 27  2  0
 27 28  1  0
 28 29  2  0
 29 30  1  0
 30 31  1  0
 31 32  2  0
 31 33  2  0
 31 34  1  0
 34 35  1  0
 35 36  1  0
 36 37  1  0
 37 38  1  0
 38 39  1  0
 30 40  2  0
 11  6  1  0
 24 19  1  0
 40 26  1  0
 39 34  1  0
  3 41  1  0
  3 42  1  0
  5 43  1  0
  5 44  1  0
  7 45  1  0
  8 46  1  0
  9 47  1  0
 10 48  1  0
 11 49  1  0
 14 50  1  0
 14 51  1  0
 15 52  1  0
 20 53  1  0
 21 54  1  0
 22 55  1  0
 23 56  1  0
 24 57  1  0
 27 58  1  0
 28 59  1  0
 29 60  1  0
 35 61  1  0
 35 62  1  0
 36 63  1  0
 36 64  1  0
 38 65  1  0
 38 66  1  0
 39 67  1  0
 39 68  1  0
 40 69  1  0
M  CHG  1  25  -1
M  END
>  <UniqueID>  (50) 
46

>  <SMILES>  (50) 
O=C(CN(Cc1ccccc1)C(=O)CNS(=O)(=O)c1ccccc1)[N-]c1cccc(S(=O)(=O)N2CCOCC2)c1

>  <Energy>  (50) 
82.92380653529473

>  <Genealogy>  (50) 
O=C(CN(Cc1ccccc1)C(=O)CNS(=O)(=O)c1ccccc1)[N-]c1cccc(S(=O)(=O)N2CCOCC2)c1 (protonated)
O=C(CN(Cc1ccccc1)C(=O)CNS(=O)(=O)c1ccccc1)[N-]c1cccc(S(=O)(=O)N2CCOCC2)c1 (3D coordinates assigned)
O=C(CN(Cc1ccccc1)C(=O)CNS(=O)(=O)c1ccccc1)[N-]c1cccc(S(=O)(=O)N2CCOCC2)c1 (nonaromatic ring conformer: 82.92380653529473 kcal/mol)

>  <smiles>  (50) 
O=C(CN(Cc1ccccc1)C(=O)CNS(=O)(=O)c1ccccc1)Nc1cccc(S(=O)(=O)N2CCOCC2)c1

>  <score_type>  (50) 
oracle

>  <origin>  (50) 
adg

>  <m_score__min__energy>  (50) 
-13.470000000000001

>  <m_primary>  (50) 
energy

$$$$
50:0
     RDKit          3D

 40 42  0  0  0  0  0  0  0  0999 V2000
   60.1120   28.2680   47.4280 C   0  0  0  0  0  0  0  0  0  0  0  0
   60.7620   29.3830   48.2490 C   0  0  0  0  0  0  0  0  0  0  0  0
   60.4490   30.6800   47.6890 N   0  0  0  0  0  0  0  0  0  0  0  0
   59.2730   31.1880   47.3320 C   0  0  0  0  0  0  0  0  0  0  0  0
   58.1530   30.6100   47.4160 O   0  0  0  0  0  0  0  0  0  0  0  0
   59.3960   32.4350   46.8500 N   0  0  0  0  0  0  0  0  0  0  0  0
   58.3880   33.3470   46.3520 C   0  0  0  0  0  0  0  0  0  0  0  0
   58.2940   33.3110   44.8200 C   0  0  0  0  0  0  0  0  0  0  0  0
   57.1570   32.3730   44.5120 C   0  0  0  0  0  0  0  0  0  0  0  0
   57.5690   30.9480   44.4490 C   0  0  0  0  0  0  0  0  0  0  0  0
   58.8870   30.6040   44.3860 N   0  0  0  0  0  0  0  0  0  0  0  0
   59.2740   29.3410   44.3270 N   0  0  0  0  0  0  0  0  0  0  0  0
   58.4080   28.3070   44.3260 C   0  0  0  0  0  0  0  0  0  0  0  0
   58.8320   27.1270   44.2690 O   0  0  0  0  0  0  0  0  0  0  0  0
   57.0940   28.6210   44.3880 N   0  0  0  0  0  0  0  0  0  0  0  0
   56.6760   29.8980   44.4480 C   0  0  0  0  0  0  0  0  0  0  0  0
   55.4520   30.1920   44.5050 O   0  0  0  0  0  0  0  0  0  0  0  0
   60.7290   32.7270   46.9080 C   0  0  0  0  0  0  0  0  0  0  0  0
   61.4620   33.8570   46.5500 C   0  0  0  0  0  0  0  0  0  0  0  0
   62.8460   33.8180   46.7470 C   0  0  0  0  0  0  0  0  0  0  0  0
   63.4910   32.7340   47.2650 C   0  0  0  0  0  0  0  0  0  0  0  0
   62.7600   31.6210   47.6150 C   0  0  0  0  0  0  0  0  0  0  0  0
   61.3780   31.6250   47.4330 C   0  0  0  0  0  0  0  0  0  0  0  0
   59.6758   27.5198   48.1063 H   0  0  0  0  0  0  0  0  0  0  0  0
   59.3204   28.6935   46.7937 H   0  0  0  0  0  0  0  0  0  0  0  0
   60.8723   27.7888   46.7937 H   0  0  0  0  0  0  0  0  0  0  0  0
   60.3874   29.3359   49.2822 H   0  0  0  0  0  0  0  0  0  0  0  0
   61.8531   29.2445   48.2318 H   0  0  0  0  0  0  0  0  0  0  0  0
   57.4126   33.0654   46.7754 H   0  0  0  0  0  0  0  0  0  0  0  0
   58.6702   34.3665   46.6535 H   0  0  0  0  0  0  0  0  0  0  0  0
   58.0829   34.3151   44.4235 H   0  0  0  0  0  0  0  0  0  0  0  0
   59.2359   32.9778   44.3597 H   0  0  0  0  0  0  0  0  0  0  0  0
   56.3936   32.4809   45.2966 H   0  0  0  0  0  0  0  0  0  0  0  0
   56.7724   32.6442   43.5177 H   0  0  0  0  0  0  0  0  0  0  0  0
   60.3070   29.0910   44.2780 H   0  0  0  0  0  0  0  0  0  0  0  0
   56.4170   27.8190   44.3880 H   0  0  0  0  0  0  0  0  0  0  0  0
   60.9704   34.7461   46.1283 H   0  0  0  0  0  0  0  0  0  0  0  0
   63.4409   34.7013   46.4718 H   0  0  0  0  0  0  0  0  0  0  0  0
   64.5824   32.7486   47.4016 H   0  0  0  0  0  0  0  0  0  0  0  0
   63.2620   30.7367   48.0344 H   0  0  0  0  0  0  0  0  0  0  0  0
  1  2  1  0
  2  3  1  0
  3  4  1  0
  4  5  2  0
  4  6  1  0
  6  7  1  0
  7  8  1  0
  8  9  1  0
  9 10  1  0
 10 11  2  0
 11 12  1  0
 12 13  1  0
 13 14  2  0
 13 15  1  0
 15 16  1  0
 16 17  2  0
  6 18  1  0
 18 19  2  0
 19 20  1  0
 20 21  2  0
 21 22  1  0
 22 23  2  0
 23  3  1  0
 16 10  1  0
 23 18  1  0
  1 24  1  0
  1 25  1  0
  1 26  1  0
  2 27  1  0
  2 28  1  0
  7 29  1  0
  7 30  1  0
  8 31  1  0
  8 32  1  0
  9 33  1  0
  9 34  1  0
 12 35  1  0
 15 36  1  0
 19 37  1  0
 20 38  1  0
 21 39  1  0
 22 40  1  0
M  END
>  <smiles>  (51) 
CCn1c(=O)n(CCCc2n[nH]c(=O)[nH]c2=O)c2ccccc21

>  <score_type>  (51) 
oracle

>  <origin>  (51) 
adg

>  <m_score__min__energy>  (51) 
-7.5599999999999996

>  <m_primary>  (51) 
energy

$$$$
51:0
     RDKit          3D

 38 40  0  0  0  0  0  0  0  0999 V2000
   57.5020   33.6160   46.8270 O   0  0  0  0  0  0  0  0  0  0  0  0
   58.5240   34.0020   46.2000 C   0  0  0  0  0  0  0  0  0  0  0  0
   59.5930   34.7620   46.9400 C   0  0  0  0  0  0  0  0  0  0  0  0
   60.7650   33.8920   47.2820 C   0  0  0  0  0  0  0  0  0  0  0  0
   61.9840   33.8500   46.6150 C   0  0  0  0  0  0  0  0  0  0  0  0
   62.8560   32.8770   47.1190 C   0  0  0  0  0  0  0  0  0  0  0  0
   62.3230   32.1390   48.1680 C   0  0  0  0  0  0  0  0  0  0  0  0
   60.7650   32.6950   48.4650 S   0  0  0  0  0  0  0  0  0  0  0  0
   58.5830   33.7920   44.7830 N   0  0  0  0  0  0  0  0  0  0  0  0
   57.9210   32.7480   44.0600 C   0  0  0  0  0  0  0  0  0  0  0  0
   57.9770   32.6860   42.6600 C   0  0  0  0  0  0  0  0  0  0  0  0
   57.3610   31.6340   41.9800 C   0  0  0  0  0  0  0  0  0  0  0  0
   56.6950   30.6330   42.6910 C   0  0  0  0  0  0  0  0  0  0  0  0
   56.6370   30.6770   44.0880 C   0  0  0  0  0  0  0  0  0  0  0  0
   55.9730   29.6100   44.7830 N   0  0  0  0  0  0  0  0  0  0  0  0
   56.5970   28.4970   45.4380 C   0  0  0  0  0  0  0  0  0  0  0  0
   55.9510   27.4320   45.6270 O   0  0  0  0  0  0  0  0  0  0  0  0
   58.0200   28.5800   45.8460 C   0  0  0  0  0  0  0  0  0  0  0  0
   58.4090   29.4080   46.9170 C   0  0  0  0  0  0  0  0  0  0  0  0
   59.7520   29.4850   47.3010 C   0  0  0  0  0  0  0  0  0  0  0  0
   60.7190   28.7410   46.6210 C   0  0  0  0  0  0  0  0  0  0  0  0
   60.3460   27.9190   45.5570 C   0  0  0  0  0  0  0  0  0  0  0  0
   59.0050   27.8360   45.1690 C   0  0  0  0  0  0  0  0  0  0  0  0
   57.2800   31.7260   44.7720 C   0  0  0  0  0  0  0  0  0  0  0  0
   59.9398   35.5931   46.3084 H   0  0  0  0  0  0  0  0  0  0  0  0
   59.1582   35.1319   47.8803 H   0  0  0  0  0  0  0  0  0  0  0  0
   62.2380   34.5142   45.7758 H   0  0  0  0  0  0  0  0  0  0  0  0
   63.8683   32.7126   46.7213 H   0  0  0  0  0  0  0  0  0  0  0  0
   62.8330   31.3297   48.7111 H   0  0  0  0  0  0  0  0  0  0  0  0
   58.5074   33.4679   42.0967 H   0  0  0  0  0  0  0  0  0  0  0  0
   57.4002   31.5932   40.8815 H   0  0  0  0  0  0  0  0  0  0  0  0
   56.2134   29.8055   42.1494 H   0  0  0  0  0  0  0  0  0  0  0  0
   57.6521   29.9978   47.4548 H   0  0  0  0  0  0  0  0  0  0  0  0
   60.0470   30.1325   48.1399 H   0  0  0  0  0  0  0  0  0  0  0  0
   61.7745   28.8031   46.9243 H   0  0  0  0  0  0  0  0  0  0  0  0
   61.1089   27.3346   45.0218 H   0  0  0  0  0  0  0  0  0  0  0  0
   58.7180   27.1854   44.3297 H   0  0  0  0  0  0  0  0  0  0  0  0
   57.2791   31.7433   45.8719 H   0  0  0  0  0  0  0  0  0  0  0  0
  1  2  2  0
  2  3  1  0
  3  4  1  0
  4  5  2  0
  5  6  1  0
  6  7  2  0
  7  8  1  0
  2  9  1  0
  9 10  1  0
 10 11  2  0
 11 12  1  0
 12 13  2  0
 13 14  1  0
 14 15  1  0
 15 16  1  0
 16 17  2  0
 16 18  1  0
 18 19  2  0
 19 20  1  0
 20 21  2  0
 21 22  1  0
 22 23  2  0
 14 24  2  0
  8  4  1  0
 24 10  1  0
 23 18  1  0
  3 25  1  0
  3 26  1  0
  5 27  1  0
  6 28  1  0
  7 29  1  0
 11 30  1  0
 12 31  1  0
 13 32  1  0
 19 33  1  0
 20 34  1  0
 21 35  1  0
 22 36  1  0
 23 37  1  0
 24 38  1  0
M  CHG  2   9  -1  15  -1
M  END
>  <UniqueID>  (52) 
47

>  <SMILES>  (52) 
O=C(Cc1cccs1)[N-]c1cccc([N-]C(=O)c2ccccc2)c1

>  <Energy>  (52) 
74.33169236440418

>  <Genealogy>  (52) 
O=C(Cc1cccs1)[N-]c1cccc([N-]C(=O)c2ccccc2)c1 (protonated)
O=C(Cc1cccs1)[N-]c1cccc([N-]C(=O)c2ccccc2)c1 (3D coordinates assigned)
O=C(Cc1cccs1)[N-]c1cccc([N-]C(=O)c2ccccc2)c1 (optimized conformer: 74.33169236440418 kcal/mol)

>  <smiles>  (52) 
O=C(Cc1cccs1)Nc1cccc(NC(=O)c2ccccc2)c1

>  <score_type>  (52) 
oracle

>  <origin>  (52) 
adg

>  <m_score__min__energy>  (52) 
-11.69

>  <m_primary>  (52) 
energy

$$$$
52:0
     RDKit          3D

 53 56  0  0  0  0  0  0  0  0999 V2000
   57.9902   31.2236   43.6709 H   0  0  0  0  0  0  0  0  0  0  0  0
   57.8720   30.1810   44.0010 C   0  0  0  0  0  0  0  0  0  0  0  0
   57.6038   29.4008   43.2735 H   0  0  0  0  0  0  0  0  0  0  0  0
   58.0550   29.8610   45.2910 C   0  0  0  0  0  0  0  0  0  0  0  0
   57.9410   28.5860   45.8600 C   0  0  0  0  0  0  0  0  0  0  0  0
   57.6570   27.4330   45.2190 C   0  0  0  0  0  0  0  0  0  0  0  0
   57.7396   27.4291   44.1221 H   0  0  0  0  0  0  0  0  0  0  0  0
   57.2440   26.1760   45.8750 C   0  0  0  0  0  0  0  0  0  0  0  0
   58.2530   24.9490   46.4520 S   0  0  0  0  0  0  0  0  0  0  0  0
   56.9790   24.0990   47.1380 C   0  0  0  0  0  0  0  0  0  0  0  0
   57.1030   23.0060   47.7500 O   0  0  0  0  0  0  0  0  0  0  0  0
   55.7930   24.7200   46.9730 N   0  0  0  0  0  0  0  0  0  0  0  0
   55.9430   25.8810   46.2820 C   0  0  0  0  0  0  0  0  0  0  0  0
   54.8610   26.7080   46.0090 O   0  0  0  0  0  0  0  0  0  0  0  0
   58.2400   28.7370   47.2100 C   0  0  0  0  0  0  0  0  0  0  0  0
   58.2652   27.9419   47.9697 H   0  0  0  0  0  0  0  0  0  0  0  0
   58.4990   30.0780   47.4120 C   0  0  0  0  0  0  0  0  0  0  0  0
   58.9130   30.6770   48.7220 C   0  0  0  0  0  0  0  0  0  0  0  0
   58.4989   30.0778   49.5463 H   0  0  0  0  0  0  0  0  0  0  0  0
   60.0108   30.6857   48.7906 H   0  0  0  0  0  0  0  0  0  0  0  0
   58.5331   31.7070   48.7906 H   0  0  0  0  0  0  0  0  0  0  0  0
   58.4010   30.7560   46.2470 N   0  0  0  0  0  0  0  0  0  0  0  0
   58.6080   32.1700   46.0780 C   0  0  0  0  0  0  0  0  0  0  0  0
   57.5290   32.9700   45.6740 C   0  0  0  0  0  0  0  0  0  0  0  0
   56.5576   32.5046   45.4510 H   0  0  0  0  0  0  0  0  0  0  0  0
   57.6790   34.3520   45.5530 C   0  0  0  0  0  0  0  0  0  0  0  0
   56.8273   34.9718   45.2360 H   0  0  0  0  0  0  0  0  0  0  0  0
   58.9090   34.9480   45.8340 C   0  0  0  0  0  0  0  0  0  0  0  0
   59.0254   36.0377   45.7396 H   0  0  0  0  0  0  0  0  0  0  0  0
   59.9930   34.1630   46.2350 C   0  0  0  0  0  0  0  0  0  0  0  0
   60.9597   34.6397   46.4548 H   0  0  0  0  0  0  0  0  0  0  0  0
   59.8590   32.7690   46.3600 C   0  0  0  0  0  0  0  0  0  0  0  0
   61.0360   31.9560   46.7480 C   0  0  0  0  0  0  0  0  0  0  0  0
   61.0320   30.7120   46.5400 O   0  0  0  0  0  0  0  0  0  0  0  0
   62.1760   32.5720   47.3610 N   0  0  0  0  0  0  0  0  0  0  0  0
   62.1230   33.5810   47.6320 H   0  0  0  0  0  0  0  0  0  0  0  0
   63.3830   31.8060   47.6660 C   0  0  0  0  0  0  0  0  0  0  0  0
   63.1842   30.7370   47.4992 H   0  0  0  0  0  0  0  0  0  0  0  0
   64.1958   32.1496   47.0092 H   0  0  0  0  0  0  0  0  0  0  0  0
   63.7980   32.0150   49.1030 C   0  0  0  0  0  0  0  0  0  0  0  0
   64.9200   32.8170   49.3760 C   0  0  0  0  0  0  0  0  0  0  0  0
   65.4637   33.2932   48.5468 H   0  0  0  0  0  0  0  0  0  0  0  0
   65.3510   33.0150   50.6890 C   0  0  0  0  0  0  0  0  0  0  0  0
   66.2274   33.6485   50.8904 H   0  0  0  0  0  0  0  0  0  0  0  0
   64.6710   32.4100   51.7450 C   0  0  0  0  0  0  0  0  0  0  0  0
   65.0064   32.5748   52.7796 H   0  0  0  0  0  0  0  0  0  0  0  0
   63.5660   31.5960   51.4930 C   0  0  0  0  0  0  0  0  0  0  0  0
   63.0352   31.1222   52.3320 H   0  0  0  0  0  0  0  0  0  0  0  0
   63.1250   31.3760   50.1760 C   0  0  0  0  0  0  0  0  0  0  0  0
   61.9300   30.4900   49.9400 C   0  0  0  0  0  0  0  0  0  0  0  0
   61.5086   30.1775   50.9068 H   0  0  0  0  0  0  0  0  0  0  0  0
   61.1694   31.0442   49.3704 H   0  0  0  0  0  0  0  0  0  0  0  0
   62.2393   29.6012   49.3704 H   0  0  0  0  0  0  0  0  0  0  0  0
  1  2  1  0
  2  3  1  0
  2  4  2  0
  4  5  1  0
  5  6  2  0
  6  7  1  0
  6  8  1  0
  8  9  1  0
  9 10  1  0
 10 11  2  0
 10 12  1  0
 12 13  1  0
 13 14  1  0
  5 15  1  0
 15 16  1  0
 15 17  2  0
 17 18  1  0
 18 19  1  0
 18 20  1  0
 18 21  1  0
 17 22  1  0
 22 23  1  0
 23 24  2  0
 24 25  1  0
 24 26  1  0
 26 27  1  0
 26 28  2  0
 28 29  1  0
 28 30  1  0
 30 31  1  0
 30 32  2  0
 32 33  1  0
 33 34  2  0
 33 35  1  0
 35 36  1  0
 35 37  1  0
 37 38  1  0
 37 39  1  0
 37 40  1  0
 40 41  2  0
 41 42  1  0
 41 43  1  0
 43 44  1  0
 43 45  2  0
 45 46  1  0
 45 47  1  0
 47 48  1  0
 47 49  2  0
 49 50  1  0
 50 51  1  0
 50 52  1  0
 50 53  1  0
 22  4  1  0
 32 23  1  0
 49 40  1  0
 13  8  2  0
M  CHG  2  12  -1  14  -1
M  END
>  <UniqueID>  (53) 
48

>  <SMILES>  (53) 
C=c1/c(=C/c2sc(=O)[n-]c2[O-])cc(C)n1-c1ccccc1C(=O)NCc1ccccc1C

>  <Energy>  (53) 
130.83119995289803

>  <Genealogy>  (53) 
C=c1c(=Cc2sc(=O)[n-]c2[O-])cc(C)n1-c1ccccc1C(=O)NCc1ccccc1C (protonated)
C=c1/c(=C/c2sc(=O)[n-]c2[O-])cc(C)n1-c1ccccc1C(=O)NCc1ccccc1C (cis-trans isomerization)
C=c1/c(=C/c2sc(=O)[n-]c2[O-])cc(C)n1-c1ccccc1C(=O)NCc1ccccc1C (3D coordinates assigned)
C=c1/c(=C/c2sc(=O)[n-]c2[O-])cc(C)n1-c1ccccc1C(=O)NCc1ccccc1C (optimized conformer: 130.83119995289803 kcal/mol)

>  <smiles>  (53) 
C=c1c(=Cc2sc(=O)[nH]c2O)cc(C)n1-c1ccccc1C(=O)NCc1ccccc1C

>  <score_type>  (53) 
oracle

>  <origin>  (53) 
adg

>  <m_score__min__energy>  (53) 
-15.32

>  <m_primary>  (53) 
energy

$$$$
53:0
     RDKit          3D

 61 64  0  0  0  0  0  0  0  0999 V2000
   56.2160   27.8580   45.4850 O   0  0  0  0  0  0  0  0  0  0  0  0
   57.3860   27.6480   45.0640 C   0  0  0  0  0  0  0  0  0  0  0  0
   57.8020   28.2180   43.7420 C   0  0  0  0  0  0  0  0  0  0  0  0
   56.9630   29.3570   43.3700 N   0  0  0  0  0  0  0  0  0  0  0  0
   56.4630   30.3680   44.2580 C   0  0  0  0  0  0  0  0  0  0  0  0
   55.2230   30.4260   44.4690 O   0  0  0  0  0  0  0  0  0  0  0  0
   57.3510   31.3300   44.9430 C   0  0  0  0  0  0  0  0  0  0  0  0
   57.6730   32.5590   44.3480 C   0  0  0  0  0  0  0  0  0  0  0  0
   58.5100   33.4630   45.0070 C   0  0  0  0  0  0  0  0  0  0  0  0
   59.0190   33.1590   46.2770 C   0  0  0  0  0  0  0  0  0  0  0  0
   60.0800   34.3030   47.1050 S   0  0  0  0  0  0  0  0  0  0  0  0
   60.0480   35.6210   46.3820 O   0  0  0  0  0  0  0  0  0  0  0  0
   59.5700   34.5280   48.5010 O   0  0  0  0  0  0  0  0  0  0  0  0
   61.7300   33.7270   47.1680 N   0  0  0  0  0  0  0  0  0  0  0  0
   62.4380   34.2100   48.3740 C   0  0  0  0  0  0  0  0  0  0  0  0
   62.6660   33.0910   49.4040 C   0  0  0  0  0  0  0  0  0  0  0  0
   63.3930   31.9880   48.8840 O   0  0  0  0  0  0  0  0  0  0  0  0
   63.1150   31.7080   47.5170 C   0  0  0  0  0  0  0  0  0  0  0  0
   61.7690   32.2610   47.0210 C   0  0  0  0  0  0  0  0  0  0  0  0
   58.6700   31.9480   46.8880 C   0  0  0  0  0  0  0  0  0  0  0  0
   57.8360   31.0410   46.2270 C   0  0  0  0  0  0  0  0  0  0  0  0
   58.3280   26.9010   45.8500 N   0  0  0  0  0  0  0  0  0  0  0  0
   59.0570   27.3040   46.8530 C   0  0  0  0  0  0  0  0  0  0  0  0
   59.5990   26.4230   47.8100 C   0  0  0  0  0  0  0  0  0  0  0  0
   60.3840   26.9340   48.8450 C   0  0  0  0  0  0  0  0  0  0  0  0
   60.6370   28.3040   48.9330 C   0  0  0  0  0  0  0  0  0  0  0  0
   61.4400   28.7720   49.9850 O   0  0  0  0  0  0  0  0  0  0  0  0
   61.4600   30.1140   50.4720 C   0  0  0  0  0  0  0  0  0  0  0  0
   60.0600   30.6260   50.6760 C   0  0  0  0  0  0  0  0  0  0  0  0
   59.7160   31.9180   50.2460 C   0  0  0  0  0  0  0  0  0  0  0  0
   58.4160   32.3970   50.4210 C   0  0  0  0  0  0  0  0  0  0  0  0
   57.4470   31.5880   51.0210 C   0  0  0  0  0  0  0  0  0  0  0  0
   57.7750   30.2970   51.4460 C   0  0  0  0  0  0  0  0  0  0  0  0
   56.7980   29.5020   52.0410 O   0  0  0  0  0  0  0  0  0  0  0  0
   59.0790   29.8150   51.2700 C   0  0  0  0  0  0  0  0  0  0  0  0
   60.0930   29.1490   47.9510 C   0  0  0  0  0  0  0  0  0  0  0  0
   59.3360   28.6310   46.9500 N   0  0  0  0  0  0  0  0  0  0  0  0
   58.8488   28.5496   43.8075 H   0  0  0  0  0  0  0  0  0  0  0  0
   57.6899   27.4374   42.9751 H   0  0  0  0  0  0  0  0  0  0  0  0
   57.2648   32.8120   43.3584 H   0  0  0  0  0  0  0  0  0  0  0  0
   58.7707   34.4177   44.5269 H   0  0  0  0  0  0  0  0  0  0  0  0
   63.4142   34.6171   48.0719 H   0  0  0  0  0  0  0  0  0  0  0  0
   61.8107   34.9800   48.8468 H   0  0  0  0  0  0  0  0  0  0  0  0
   63.2254   33.5080   50.2544 H   0  0  0  0  0  0  0  0  0  0  0  0
   61.6757   32.7166   49.7025 H   0  0  0  0  0  0  0  0  0  0  0  0
   63.9156   32.1489   46.9049 H   0  0  0  0  0  0  0  0  0  0  0  0
   63.0605   30.6133   47.4236 H   0  0  0  0  0  0  0  0  0  0  0  0
   61.6384   31.9995   45.9605 H   0  0  0  0  0  0  0  0  0  0  0  0
   60.9594   31.8206   47.6215 H   0  0  0  0  0  0  0  0  0  0  0  0
   59.0533   31.7097   47.8911 H   0  0  0  0  0  0  0  0  0  0  0  0
   57.5588   30.0958   46.7166 H   0  0  0  0  0  0  0  0  0  0  0  0
   59.4052   25.3423   47.7420 H   0  0  0  0  0  0  0  0  0  0  0  0
   60.8066   26.2517   49.5972 H   0  0  0  0  0  0  0  0  0  0  0  0
   61.9983   30.1423   51.4309 H   0  0  0  0  0  0  0  0  0  0  0  0
   61.9657   30.7516   49.7319 H   0  0  0  0  0  0  0  0  0  0  0  0
   60.4745   32.5559   49.7689 H   0  0  0  0  0  0  0  0  0  0  0  0
   58.1544   33.4117   50.0864 H   0  0  0  0  0  0  0  0  0  0  0  0
   56.4240   31.9678   51.1592 H   0  0  0  0  0  0  0  0  0  0  0  0
   56.8490   29.2440   53.0190 H   0  0  0  0  0  0  0  0  0  0  0  0
   59.3355   28.7970   51.5985 H   0  0  0  0  0  0  0  0  0  0  0  0
   60.2807   30.2320   47.9933 H   0  0  0  0  0  0  0  0  0  0  0  0
  1  2  2  0
  2  3  1  0
  3  4  1  0
  4  5  1  0
  5  6  2  0
  5  7  1  0
  7  8  2  0
  8  9  1  0
  9 10  2  0
 10 11  1  0
 11 12  2  0
 11 13  2  0
 11 14  1  0
 14 15  1  0
 15 16  1  0
 16 17  1  0
 17 18  1  0
 18 19  1  0
 10 20  1  0
 20 21  2  0
  2 22  1  0
 22 23  2  3
 23 24  1  0
 24 25  2  0
 25 26  1  0
 26 27  1  0
 27 28  1  0
 28 29  1  0
 29 30  2  0
 30 31  1  0
 31 32  2  0
 32 33  1  0
 33 34  1  0
 33 35  2  0
 26 36  2  0
 36 37  1  0
 21  7  1  0
 37 23  1  0
 19 14  1  0
 35 29  1  0
  3 38  1  0
  3 39  1  0
  8 40  1  0
  9 41  1  0
 15 42  1  0
 15 43  1  0
 16 44  1  0
 16 45  1  0
 18 46  1  0
 18 47  1  0
 19 48  1  0
 19 49  1  0
 20 50  1  0
 21 51  1  0
 24 52  1  0
 25 53  1  0
 28 54  1  0
 28 55  1  0
 30 56  1  0
 31 57  1  0
 32 58  1  0
 34 59  1  0
 35 60  1  0
 36 61  1  0
M  CHG  2   4  -1  37  -1
M  END
>  <UniqueID>  (54) 
49

>  <SMILES>  (54) 
O=C(C[N-]C(=O)c1ccc(S(=O)(=O)N2CCOCC2)cc1)N=c1ccc(OCc2cccc(O)c2)c[n-]1

>  <Energy>  (54) 
83.62153647339761

>  <Genealogy>  (54) 
O=C(C[N-]C(=O)c1ccc(S(=O)(=O)N2CCOCC2)cc1)N=c1ccc(OCc2cccc(O)c2)c[n-]1 (protonated)
O=C(C[N-]C(=O)c1ccc(S(=O)(=O)N2CCOCC2)cc1)N=c1ccc(OCc2cccc(O)c2)c[n-]1 (3D coordinates assigned)
O=C(C[N-]C(=O)c1ccc(S(=O)(=O)N2CCOCC2)cc1)N=c1ccc(OCc2cccc(O)c2)c[n-]1 (nonaromatic ring conformer: 83.62153647339761 kcal/mol)

>  <smiles>  (54) 
O=C(CNC(=O)c1ccc(S(=O)(=O)N2CCOCC2)cc1)N=c1ccc(OCc2cccc(O)c2)c[nH]1

>  <score_type>  (54) 
oracle

>  <origin>  (54) 
adg

>  <m_score__min__energy>  (54) 
-12.390000000000001

>  <m_primary>  (54) 
energy

$$$$
54:0
     RDKit          3D

 45 47  0  0  0  0  0  0  0  0999 V2000
   56.2500   28.7970   44.9030 C   0  0  0  0  0  0  0  0  0  0  0  0
   57.0910   27.7980   45.6550 C   0  0  0  0  0  0  0  0  0  0  0  0
   56.5190   26.6190   46.1920 C   0  0  0  0  0  0  0  0  0  0  0  0
   55.1410   26.2870   45.9950 N   0  0  0  0  0  0  0  0  0  0  0  0
   54.6120   24.6860   45.5910 S   0  0  0  0  0  0  0  0  0  0  0  0
   55.5940   24.0730   44.2430 C   0  0  0  0  0  0  0  0  0  0  0  0
   54.7660   23.7830   46.7820 O   0  0  0  0  0  0  0  0  0  0  0  0
   53.1710   24.7140   45.1660 O   0  0  0  0  0  0  0  0  0  0  0  0
   57.3040   25.7510   46.9570 C   0  0  0  0  0  0  0  0  0  0  0  0
   58.6630   26.0000   47.1380 C   0  0  0  0  0  0  0  0  0  0  0  0
   59.2490   27.1270   46.5650 C   0  0  0  0  0  0  0  0  0  0  0  0
   58.4710   28.0410   45.8340 C   0  0  0  0  0  0  0  0  0  0  0  0
   59.0560   29.1700   45.2370 O   0  0  0  0  0  0  0  0  0  0  0  0
   59.5130   30.3100   45.9180 C   0  0  0  0  0  0  0  0  0  0  0  0
   60.6870   30.2790   46.6930 C   0  0  0  0  0  0  0  0  0  0  0  0
   61.1170   31.4230   47.3710 C   0  0  0  0  0  0  0  0  0  0  0  0
   60.3770   32.6080   47.2910 C   0  0  0  0  0  0  0  0  0  0  0  0
   60.9240   34.0560   48.1330 S   0  0  0  0  0  0  0  0  0  0  0  0
   60.4700   34.0370   49.5660 O   0  0  0  0  0  0  0  0  0  0  0  0
   60.3460   35.2630   47.4510 O   0  0  0  0  0  0  0  0  0  0  0  0
   62.6560   34.1540   48.0890 N   0  0  0  0  0  0  0  0  0  0  0  0
   63.4410   33.6260   48.9800 C   0  0  0  0  0  0  0  0  0  0  0  0
   64.3810   32.7110   48.6670 N   0  0  0  0  0  0  0  0  0  0  0  0
   65.0790   32.2950   49.7580 C   0  0  0  0  0  0  0  0  0  0  0  0
   64.6910   32.8840   50.9570 C   0  0  0  0  0  0  0  0  0  0  0  0
   63.4350   33.9590   50.6330 S   0  0  0  0  0  0  0  0  0  0  0  0
   59.1920   32.6370   46.5460 C   0  0  0  0  0  0  0  0  0  0  0  0
   58.7570   31.4940   45.8640 C   0  0  0  0  0  0  0  0  0  0  0  0
   57.5370   31.5460   45.0980 C   0  0  0  0  0  0  0  0  0  0  0  0
   56.5580   31.5890   44.4830 N   0  0  0  0  0  0  0  0  0  0  0  0
   55.7121   29.4360   45.6187 H   0  0  0  0  0  0  0  0  0  0  0  0
   56.8991   29.4205   44.2707 H   0  0  0  0  0  0  0  0  0  0  0  0
   55.5249   28.2637   44.2707 H   0  0  0  0  0  0  0  0  0  0  0  0
   56.4641   23.5299   44.6405 H   0  0  0  0  0  0  0  0  0  0  0  0
   54.9873   23.3929   43.6270 H   0  0  0  0  0  0  0  0  0  0  0  0
   55.9385   24.9167   43.6270 H   0  0  0  0  0  0  0  0  0  0  0  0
   56.8452   24.8647   47.4196 H   0  0  0  0  0  0  0  0  0  0  0  0
   59.2740   25.3061   47.7339 H   0  0  0  0  0  0  0  0  0  0  0  0
   60.3282   27.3025   46.6857 H   0  0  0  0  0  0  0  0  0  0  0  0
   61.2698   29.3489   46.7657 H   0  0  0  0  0  0  0  0  0  0  0  0
   62.0396   31.3918   47.9691 H   0  0  0  0  0  0  0  0  0  0  0  0
   64.5580   32.3570   47.7000 H   0  0  0  0  0  0  0  0  0  0  0  0
   65.8870   31.5511   49.6969 H   0  0  0  0  0  0  0  0  0  0  0  0
   65.1287   32.6826   51.9459 H   0  0  0  0  0  0  0  0  0  0  0  0
   58.5996   33.5625   46.4961 H   0  0  0  0  0  0  0  0  0  0  0  0
  1  2  1  0
  2  3  2  0
  3  4  1  0
  4  5  1  0
  5  6  1  0
  5  7  2  0
  5  8  2  0
  3  9  1  0
  9 10  2  0
 10 11  1  0
 11 12  2  0
 12 13  1  0
 13 14  1  0
 14 15  2  0
 15 16  1  0
 16 17  2  0
 17 18  1  0
 18 19  2  0
 18 20  2  0
 18 21  1  0
 21 22  2  3
 22 23  1  0
 23 24  1  0
 24 25  2  0
 25 26  1  0
 17 27  1  0
 27 28  2  0
 28 29  1  0
 29 30  3  0
 12  2  1  0
 28 14  1  0
 26 22  1  0
  1 31  1  0
  1 32  1  0
  1 33  1  0
  6 34  1  0
  6 35  1  0
  6 36  1  0
  9 37  1  0
 10 38  1  0
 11 39  1  0
 15 40  1  0
 16 41  1  0
 23 42  1  0
 24 43  1  0
 25 44  1  0
 27 45  1  0
M  CHG  1   4  -1
M  END
>  <UniqueID>  (55) 
50

>  <SMILES>  (55) 
Cc1c([N-]S(C)(=O)=O)cccc1Oc1ccc(S(=O)(=O)N=c2[nH]ccs2)cc1C#N

>  <Energy>  (55) 
92.02160644416253

>  <Genealogy>  (55) 
Cc1c([N-]S(C)(=O)=O)cccc1Oc1ccc(S(=O)(=O)N=c2[nH]ccs2)cc1C#N (protonated)
Cc1c([N-]S(C)(=O)=O)cccc1Oc1ccc(S(=O)(=O)N=c2[nH]ccs2)cc1C#N (3D coordinates assigned)
Cc1c([N-]S(C)(=O)=O)cccc1Oc1ccc(S(=O)(=O)N=c2[nH]ccs2)cc1C#N (optimized conformer: 92.02160644416253 kcal/mol)

>  <smiles>  (55) 
Cc1c(NS(C)(=O)=O)cccc1Oc1ccc(S(=O)(=O)N=c2[nH]ccs2)cc1C#N

>  <score_type>  (55) 
oracle

>  <origin>  (55) 
adg

>  <m_score__min__energy>  (55) 
-10.890000000000001

>  <m_primary>  (55) 
energy

$$$$
55:0
     RDKit          3D

 52 54  0  0  0  0  0  0  0  0999 V2000
   65.6990   33.0330   53.4330 C   0  0  0  0  0  0  0  0  0  0  0  0
   65.5310   33.8490   51.8550 S   0  0  0  0  0  0  0  0  0  0  0  0
   65.4090   35.3280   52.0870 O   0  0  0  0  0  0  0  0  0  0  0  0
   66.7690   33.5890   51.0430 O   0  0  0  0  0  0  0  0  0  0  0  0
   64.1260   33.2850   50.9780 N   0  0  0  0  0  0  0  0  0  0  0  0
   64.5190   32.4210   49.8310 C   0  0  0  0  0  0  0  0  0  0  0  0
   64.3340   33.0980   48.4650 C   0  0  0  0  0  0  0  0  0  0  0  0
   62.9570   33.5850   48.3310 N   0  0  0  0  0  0  0  0  0  0  0  0
   62.4090   33.8110   47.0170 C   0  0  0  0  0  0  0  0  0  0  0  0
   63.1870   34.0340   46.0490 O   0  0  0  0  0  0  0  0  0  0  0  0
   60.9480   33.7970   46.7740 C   0  0  0  0  0  0  0  0  0  0  0  0
   60.2950   34.9660   46.3560 C   0  0  0  0  0  0  0  0  0  0  0  0
   58.9160   34.9610   46.1280 C   0  0  0  0  0  0  0  0  0  0  0  0
   58.1830   33.7840   46.2960 C   0  0  0  0  0  0  0  0  0  0  0  0
   58.8300   32.5940   46.6740 C   0  0  0  0  0  0  0  0  0  0  0  0
   58.1280   31.3940   46.8560 O   0  0  0  0  0  0  0  0  0  0  0  0
   57.7850   30.4930   45.8360 C   0  0  0  0  0  0  0  0  0  0  0  0
   57.3180   31.0000   44.6190 C   0  0  0  0  0  0  0  0  0  0  0  0
   56.9490   30.1330   43.5860 C   0  0  0  0  0  0  0  0  0  0  0  0
   57.0360   28.7510   43.7670 C   0  0  0  0  0  0  0  0  0  0  0  0
   57.4920   28.2240   44.9850 C   0  0  0  0  0  0  0  0  0  0  0  0
   57.5460   26.7360   45.1950 C   0  0  0  0  0  0  0  0  0  0  0  0
   56.4950   26.3090   46.1720 C   0  0  0  0  0  0  0  0  0  0  0  0
   55.1430   26.7140   45.9870 N   0  0  0  0  0  0  0  0  0  0  0  0
   56.8080   25.5990   47.1650 O   0  0  0  0  0  0  0  0  0  0  0  0
   57.8500   29.1000   46.0230 C   0  0  0  0  0  0  0  0  0  0  0  0
   60.2090   32.6110   46.9210 C   0  0  0  0  0  0  0  0  0  0  0  0
   62.2520   34.0680   49.5270 C   0  0  0  0  0  0  0  0  0  0  0  0
   63.2600   34.4330   50.6210 C   0  0  0  0  0  0  0  0  0  0  0  0
   65.5486   33.7636   54.2414 H   0  0  0  0  0  0  0  0  0  0  0  0
   64.9463   32.2351   53.5152 H   0  0  0  0  0  0  0  0  0  0  0  0
   66.7057   32.5973   53.5152 H   0  0  0  0  0  0  0  0  0  0  0  0
   63.5880   32.6890   51.6520 H   0  0  0  0  0  0  0  0  0  0  0  0
   65.5791   32.1508   49.9454 H   0  0  0  0  0  0  0  0  0  0  0  0
   63.8608   31.5399   49.8481 H   0  0  0  0  0  0  0  0  0  0  0  0
   65.0303   33.9454   48.3807 H   0  0  0  0  0  0  0  0  0  0  0  0
   64.5387   32.3676   47.6684 H   0  0  0  0  0  0  0  0  0  0  0  0
   60.8710   35.8912   46.2069 H   0  0  0  0  0  0  0  0  0  0  0  0
   58.4074   35.8851   45.8159 H   0  0  0  0  0  0  0  0  0  0  0  0
   57.0953   33.7879   46.1320 H   0  0  0  0  0  0  0  0  0  0  0  0
   57.2405   32.0876   44.4737 H   0  0  0  0  0  0  0  0  0  0  0  0
   56.5897   30.5401   42.6294 H   0  0  0  0  0  0  0  0  0  0  0  0
   56.7458   28.0726   42.9512 H   0  0  0  0  0  0  0  0  0  0  0  0
   57.3759   26.2279   44.2343 H   0  0  0  0  0  0  0  0  0  0  0  0
   58.5351   26.4674   45.5944 H   0  0  0  0  0  0  0  0  0  0  0  0
   54.5790   27.0870   46.7830 H   0  0  0  0  0  0  0  0  0  0  0  0
   58.1837   28.6939   46.9893 H   0  0  0  0  0  0  0  0  0  0  0  0
   60.7180   31.6871   47.2330 H   0  0  0  0  0  0  0  0  0  0  0  0
   61.6603   34.9578   49.2660 H   0  0  0  0  0  0  0  0  0  0  0  0
   61.5887   33.2733   49.8993 H   0  0  0  0  0  0  0  0  0  0  0  0
   63.8928   35.2577   50.2611 H   0  0  0  0  0  0  0  0  0  0  0  0
   62.6974   34.7284   51.5189 H   0  0  0  0  0  0  0  0  0  0  0  0
  1  2  1  0
  2  3  2  0
  2  4  2  0
  2  5  1  0
  5  6  1  0
  6  7  1  0
  7  8  1  0
  8  9  1  0
  9 10  2  0
  9 11  1  0
 11 12  2  0
 12 13  1  0
 13 14  2  0
 14 15  1  0
 15 16  1  0
 16 17  1  0
 17 18  2  0
 18 19  1  0
 19 20  2  0
 20 21  1  0
 21 22  1  0
 22 23  1  0
 23 24  1  0
 23 25  2  0
 21 26  2  0
 15 27  2  0
  8 28  1  0
 28 29  1  0
 29  5  1  0
 27 11  1  0
 26 17  1  0
  1 30  1  0
  1 31  1  0
  1 32  1  0
  5 33  1  0
  6 34  1  0
  6 35  1  0
  7 36  1  0
  7 37  1  0
 12 38  1  0
 13 39  1  0
 14 40  1  0
 18 41  1  0
 19 42  1  0
 20 43  1  0
 22 44  1  0
 22 45  1  0
 24 46  1  0
 26 47  1  0
 27 48  1  0
 28 49  1  0
 28 50  1  0
 29 51  1  0
 29 52  1  0
M  CHG  2   5   1  24  -1
M  END
>  <UniqueID>  (56) 
51

>  <SMILES>  (56) 
CS(=O)(=O)[NH+]1CCN(C(=O)c2cccc(Oc3cccc(CC([NH-])=O)c3)c2)CC1

>  <Energy>  (56) 
62.65766447681301

>  <Genealogy>  (56) 
CS(=O)(=O)[NH+]1CCN(C(=O)c2cccc(Oc3cccc(CC([NH-])=O)c3)c2)CC1 (protonated)
CS(=O)(=O)[NH+]1CCN(C(=O)c2cccc(Oc3cccc(CC([NH-])=O)c3)c2)CC1 (3D coordinates assigned)
CS(=O)(=O)[NH+]1CCN(C(=O)c2cccc(Oc3cccc(CC([NH-])=O)c3)c2)CC1 (nonaromatic ring conformer: 62.65766447681301 kcal/mol)

>  <smiles>  (56) 
CS(=O)(=O)N1CCN(C(=O)c2cccc(Oc3cccc(CC(N)=O)c3)c2)CC1

>  <score_type>  (56) 
oracle

>  <origin>  (56) 
adg

>  <m_score__min__energy>  (56) 
-12

>  <m_primary>  (56) 
energy

$$$$
56:0
     RDKit          3D

 47 49  0  0  0  0  0  0  0  0999 V2000
   57.3850   28.8250   43.3940 C   0  0  0  0  0  0  0  0  0  0  0  0
   56.7050   29.3470   44.9540 S   0  0  0  0  0  0  0  0  0  0  0  0
   55.2050   29.3180   44.8640 O   0  0  0  0  0  0  0  0  0  0  0  0
   57.1510   30.7510   45.2530 O   0  0  0  0  0  0  0  0  0  0  0  0
   57.2140   28.2630   46.2160 N   0  0  0  0  0  0  0  0  0  0  0  0
   58.6660   28.0760   46.1870 C   0  0  1  0  0  0  0  0  0  0  0  0
   59.4010   29.3540   46.6210 C   0  0  0  0  0  0  0  0  0  0  0  0
   60.1650   29.0080   47.8190 N   0  0  0  0  0  0  0  0  0  0  0  0
   60.9220   29.9620   48.5840 C   0  0  0  0  0  0  0  0  0  0  0  0
   61.2930   29.6750   49.7540 O   0  0  0  0  0  0  0  0  0  0  0  0
   61.2580   31.2850   48.0310 C   0  0  0  0  0  0  0  0  0  0  0  0
   62.5800   31.5300   47.6260 C   0  0  0  0  0  0  0  0  0  0  0  0
   62.9450   32.7800   47.1220 C   0  0  0  0  0  0  0  0  0  0  0  0
   61.9950   33.7970   47.0110 C   0  0  0  0  0  0  0  0  0  0  0  0
   60.6650   33.5570   47.3810 C   0  0  0  0  0  0  0  0  0  0  0  0
   60.2890   32.3050   47.8860 C   0  0  0  0  0  0  0  0  0  0  0  0
   58.8290   32.1180   48.2100 C   0  0  0  0  0  0  0  0  0  0  0  0
   57.9930   32.7310   47.0790 C   0  0  0  0  0  0  0  0  0  0  0  0
   58.3130   34.1580   46.8110 N   0  0  0  0  0  0  0  0  0  0  0  0
   58.1140   34.5240   45.1140 S   0  0  0  0  0  0  0  0  0  0  0  0
   58.4830   33.1030   44.1020 C   0  0  0  0  0  0  0  0  0  0  0  0
   56.6980   34.9580   44.8530 O   0  0  0  0  0  0  0  0  0  0  0  0
   59.0390   35.6470   44.7360 O   0  0  0  0  0  0  0  0  0  0  0  0
   59.6240   34.6450   47.3100 C   0  0  0  0  0  0  0  0  0  0  0  0
   59.9730   27.6330   48.2450 C   0  0  0  0  0  0  0  0  0  0  0  0
   59.0600   27.0810   47.2210 C   0  0  0  0  0  0  0  0  0  0  0  0
   58.6800   25.9210   47.2190 O   0  0  0  0  0  0  0  0  0  0  0  0
   58.2460   28.1640   43.5721 H   0  0  0  0  0  0  0  0  0  0  0  0
   56.6177   28.2818   42.8229 H   0  0  0  0  0  0  0  0  0  0  0  0
   57.7115   29.7066   42.8229 H   0  0  0  0  0  0  0  0  0  0  0  0
   58.9221   27.7766   45.1600 H   0  0  0  0  0  0  0  0  0  0  0  0
   60.0784   29.6922   45.8230 H   0  0  0  0  0  0  0  0  0  0  0  0
   58.6925   30.1707   46.8235 H   0  0  0  0  0  0  0  0  0  0  0  0
   63.3329   30.7321   47.7063 H   0  0  0  0  0  0  0  0  0  0  0  0
   63.9841   32.9640   46.8115 H   0  0  0  0  0  0  0  0  0  0  0  0
   62.2906   34.7868   46.6330 H   0  0  0  0  0  0  0  0  0  0  0  0
   58.6035   31.0449   48.2975 H   0  0  0  0  0  0  0  0  0  0  0  0
   58.5899   32.6118   49.1634 H   0  0  0  0  0  0  0  0  0  0  0  0
   58.1752   32.1548   46.1598 H   0  0  0  0  0  0  0  0  0  0  0  0
   56.9404   32.6896   47.3958 H   0  0  0  0  0  0  0  0  0  0  0  0
   58.7068   32.2411   44.7478 H   0  0  0  0  0  0  0  0  0  0  0  0
   57.6156   32.8699   43.4670 H   0  0  0  0  0  0  0  0  0  0  0  0
   59.3542   33.3214   43.4670 H   0  0  0  0  0  0  0  0  0  0  0  0
   59.9860   35.4337   46.6340 H   0  0  0  0  0  0  0  0  0  0  0  0
   59.4693   35.0214   48.3320 H   0  0  0  0  0  0  0  0  0  0  0  0
   60.9281   27.0874   48.2560 H   0  0  0  0  0  0  0  0  0  0  0  0
   59.5721   27.5519   49.2661 H   0  0  0  0  0  0  0  0  0  0  0  0
  1  2  1  0
  2  3  2  0
  2  4  2  0
  2  5  1  0
  5  6  1  0
  6  7  1  0
  7  8  1  0
  8  9  1  0
  9 10  2  0
  9 11  1  0
 11 12  2  0
 12 13  1  0
 13 14  2  0
 14 15  1  0
 15 16  2  0
 16 17  1  0
 17 18  1  0
 18 19  1  0
 19 20  1  0
 20 21  1  0
 20 22  2  0
 20 23  2  0
 19 24  1  0
  8 25  1  0
 25 26  1  0
 26 27  2  0
 26  6  1  0
 16 11  1  0
 24 15  1  0
  1 28  1  0
  1 29  1  0
  1 30  1  0
  6 31  1  6
  7 32  1  0
  7 33  1  0
 12 34  1  0
 13 35  1  0
 14 36  1  0
 17 37  1  0
 17 38  1  0
 18 39  1  0
 18 40  1  0
 21 41  1  0
 21 42  1  0
 21 43  1  0
 24 44  1  0
 24 45  1  0
 25 46  1  0
 25 47  1  0
M  CHG  1   5  -1
M  END
>  <UniqueID>  (57) 
52

>  <SMILES>  (57) 
CS(=O)(=O)[N-][C@H]1CN(C(=O)c2cccc3c2CCN(S(C)(=O)=O)C3)CC1=O

>  <Energy>  (57) 
53.9769112061097

>  <Genealogy>  (57) 
CS(=O)(=O)[N-]C1CN(C(=O)c2cccc3c2CCN(S(C)(=O)=O)C3)CC1=O (protonated)
CS(=O)(=O)[N-][C@H]1CN(C(=O)c2cccc3c2CCN(S(C)(=O)=O)C3)CC1=O (chirality)
CS(=O)(=O)[N-][C@H]1CN(C(=O)c2cccc3c2CCN(S(C)(=O)=O)C3)CC1=O (3D coordinates assigned)
CS(=O)(=O)[N-][C@H]1CN(C(=O)c2cccc3c2CCN(S(C)(=O)=O)C3)CC1=O (nonaromatic ring conformer: 53.9769112061097 kcal/mol)

>  <smiles>  (57) 
CS(=O)(=O)NC1CN(C(=O)c2cccc3c2CCN(S(C)(=O)=O)C3)CC1=O

>  <score_type>  (57) 
oracle

>  <origin>  (57) 
adg

>  <m_score__min__energy>  (57) 
-10.890000000000001

>  <m_primary>  (57) 
energy

$$$$
57:0
     RDKit          3D

 52 55  0  0  0  0  0  0  0  0999 V2000
   57.9450   31.9470   41.7790 C   0  0  0  0  0  0  0  0  0  0  0  0
   57.5940   32.2050   43.2090 C   0  0  0  0  0  0  0  0  0  0  0  0
   57.8650   33.3460   43.8680 N   0  0  0  0  0  0  0  0  0  0  0  0
   57.3590   33.1500   45.1020 C   0  0  0  0  0  0  0  0  0  0  0  0
   57.4390   34.1530   46.2110 C   0  0  0  0  0  0  0  0  0  0  0  0
   58.0640   33.5760   47.3570 O   0  0  0  0  0  0  0  0  0  0  0  0
   59.3830   33.0960   47.4040 C   0  0  0  0  0  0  0  0  0  0  0  0
   60.4280   34.0150   47.2580 C   0  0  0  0  0  0  0  0  0  0  0  0
   61.7580   33.5930   47.3160 C   0  0  0  0  0  0  0  0  0  0  0  0
   62.0560   32.2440   47.5230 C   0  0  0  0  0  0  0  0  0  0  0  0
   61.0200   31.3070   47.6740 C   0  0  0  0  0  0  0  0  0  0  0  0
   61.2800   29.9430   47.8680 O   0  0  0  0  0  0  0  0  0  0  0  0
   60.5120   28.8950   47.3390 C   0  0  0  0  0  0  0  0  0  0  0  0
   60.2370   27.7840   48.1410 C   0  0  0  0  0  0  0  0  0  0  0  0
   59.5130   26.7720   47.6760 O   0  0  0  0  0  0  0  0  0  0  0  0
   59.0250   26.7470   46.4410 C   0  0  0  0  0  0  0  0  0  0  0  0
   58.2650   25.6520   46.0180 C   0  0  0  0  0  0  0  0  0  0  0  0
   57.7520   25.5990   44.7180 C   0  0  0  0  0  0  0  0  0  0  0  0
   56.9980   24.4760   44.3460 O   0  0  0  0  0  0  0  0  0  0  0  0
   55.6060   24.3170   44.6100 C   0  0  0  0  0  0  0  0  0  0  0  0
   55.2640   25.0250   45.8790 C   0  0  0  0  0  0  0  0  0  0  0  0
   55.3890   24.4340   46.9850 O   0  0  0  0  0  0  0  0  0  0  0  0
   54.7560   26.3180   45.8410 O   0  0  0  0  0  0  0  0  0  0  0  0
   58.0060   26.6650   43.8320 C   0  0  0  0  0  0  0  0  0  0  0  0
   58.7620   27.7650   44.2470 C   0  0  0  0  0  0  0  0  0  0  0  0
   59.2740   27.8180   45.5540 C   0  0  0  0  0  0  0  0  0  0  0  0
   60.0410   28.9020   46.0140 C   0  0  0  0  0  0  0  0  0  0  0  0
   60.3240   29.8600   45.2450 O   0  0  0  0  0  0  0  0  0  0  0  0
   59.6900   31.7340   47.5950 C   0  0  0  0  0  0  0  0  0  0  0  0
   56.7900   31.9700   45.2250 O   0  0  0  0  0  0  0  0  0  0  0  0
   56.9240   31.3580   44.0710 C   0  0  0  0  0  0  0  0  0  0  0  0
   56.3960   29.9880   43.7780 C   0  0  0  0  0  0  0  0  0  0  0  0
   55.5830   29.5490   44.8310 O   0  0  0  0  0  0  0  0  0  0  0  0
   58.8305   31.2961   41.7305 H   0  0  0  0  0  0  0  0  0  0  0  0
   57.0995   31.4538   41.2771 H   0  0  0  0  0  0  0  0  0  0  0  0
   58.1634   32.9012   41.2771 H   0  0  0  0  0  0  0  0  0  0  0  0
   58.3600   34.1910   43.5050 H   0  0  0  0  0  0  0  0  0  0  0  0
   58.0272   35.0196   45.8747 H   0  0  0  0  0  0  0  0  0  0  0  0
   56.4208   34.4701   46.4806 H   0  0  0  0  0  0  0  0  0  0  0  0
   60.2000   35.0789   47.0962 H   0  0  0  0  0  0  0  0  0  0  0  0
   62.5718   34.3237   47.1986 H   0  0  0  0  0  0  0  0  0  0  0  0
   63.1045   31.9145   47.5679 H   0  0  0  0  0  0  0  0  0  0  0  0
   60.6248   27.7471   49.1697 H   0  0  0  0  0  0  0  0  0  0  0  0
   58.0687   24.8239   46.7149 H   0  0  0  0  0  0  0  0  0  0  0  0
   55.0229   24.7448   43.7812 H   0  0  0  0  0  0  0  0  0  0  0  0
   55.3677   23.2475   44.7072 H   0  0  0  0  0  0  0  0  0  0  0  0
   57.6069   26.6312   42.8075 H   0  0  0  0  0  0  0  0  0  0  0  0
   58.9566   28.5917   43.5479 H   0  0  0  0  0  0  0  0  0  0  0  0
   58.8760   30.9994   47.6828 H   0  0  0  0  0  0  0  0  0  0  0  0
   55.8056   30.0166   42.8503 H   0  0  0  0  0  0  0  0  0  0  0  0
   57.2415   29.2938   43.6630 H   0  0  0  0  0  0  0  0  0  0  0  0
   55.8330   30.0890   45.6280 H   0  0  0  0  0  0  0  0  0  0  0  0
  1  2  1  0
  2  3  1  0
  3  4  2  0
  4  5  1  0
  5  6  1  0
  6  7  1  0
  7  8  2  0
  8  9  1  0
  9 10  2  0
 10 11  1  0
 11 12  1  0
 12 13  1  0
 13 14  2  0
 14 15  1  0
 15 16  1  0
 16 17  2  0
 17 18  1  0
 18 19  1  0
 19 20  1  0
 20 21  1  0
 21 22  2  0
 21 23  1  0
 18 24  2  0
 24 25  1  0
 25 26  2  0
 26 27  1  0
 27 28  2  0
 11 29  2  0
  4 30  1  0
 30 31  1  0
 31 32  1  0
 32 33  1  0
 31  2  2  0
 29  7  1  0
 27 13  1  0
 26 16  1  0
  1 34  1  0
  1 35  1  0
  1 36  1  0
  3 37  1  0
  5 38  1  0
  5 39  1  0
  8 40  1  0
  9 41  1  0
 10 42  1  0
 14 43  1  0
 17 44  1  0
 20 45  1  0
 20 46  1  0
 24 47  1  0
 25 48  1  0
 29 49  1  0
 32 50  1  0
 32 51  1  0
 33 52  1  0
M  CHG  2   3   1  23  -1
M  END
>  <UniqueID>  (58) 
53

>  <SMILES>  (58) 
Cc1[nH+]c(COc2cccc(Oc3coc4cc(OCC(=O)[O-])ccc4c3=O)c2)oc1CO

>  <Energy>  (58) 
95.32994016355742

>  <Genealogy>  (58) 
Cc1[nH+]c(COc2cccc(Oc3coc4cc(OCC(=O)[O-])ccc4c3=O)c2)oc1CO (protonated)
Cc1[nH+]c(COc2cccc(Oc3coc4cc(OCC(=O)[O-])ccc4c3=O)c2)oc1CO (3D coordinates assigned)
Cc1[nH+]c(COc2cccc(Oc3coc4cc(OCC(=O)[O-])ccc4c3=O)c2)oc1CO (optimized conformer: 95.32994016355742 kcal/mol)

>  <smiles>  (58) 
Cc1nc(COc2cccc(Oc3coc4cc(OCC(=O)O)ccc4c3=O)c2)oc1CO

>  <score_type>  (58) 
oracle

>  <origin>  (58) 
adg

>  <m_score__min__energy>  (58) 
-10.25

>  <m_primary>  (58) 
energy

$$$$
58:0
     RDKit          3D

 51 54  0  0  0  0  0  0  0  0999 V2000
   58.5190   30.0430   48.0490 O   0  0  0  0  0  0  0  0  0  0  0  0
   58.4210   29.8450   46.8070 C   0  0  0  0  0  0  0  0  0  0  0  0
   58.3060   31.0090   45.9020 C   0  0  0  0  0  0  0  0  0  0  0  0
   58.9650   32.2080   46.2200 C   0  0  0  0  0  0  0  0  0  0  0  0
   58.8550   33.3300   45.3800 C   0  0  0  0  0  0  0  0  0  0  0  0
   59.6060   34.5960   45.6930 C   0  0  0  0  0  0  0  0  0  0  0  0
   60.6570   34.3360   46.7460 C   0  0  0  0  0  0  0  0  0  0  0  0
   61.9380   33.9060   46.3670 C   0  0  0  0  0  0  0  0  0  0  0  0
   62.8990   33.7160   47.3070 N   0  0  0  0  0  0  0  0  0  0  0  0
   62.6430   33.9320   48.6210 C   0  0  0  0  0  0  0  0  0  0  0  0
   63.5510   33.7560   49.4750 O   0  0  0  0  0  0  0  0  0  0  0  0
   61.4110   34.3440   49.0170 N   0  0  0  0  0  0  0  0  0  0  0  0
   60.4160   34.5480   48.1160 C   0  0  0  0  0  0  0  0  0  0  0  0
   59.2840   34.9220   48.5230 O   0  0  0  0  0  0  0  0  0  0  0  0
   58.0700   33.2450   44.2200 C   0  0  0  0  0  0  0  0  0  0  0  0
   57.4060   32.0590   43.9040 C   0  0  0  0  0  0  0  0  0  0  0  0
   57.5190   30.9440   44.7380 C   0  0  0  0  0  0  0  0  0  0  0  0
   56.8330   29.8160   44.4250 F   0  0  0  0  0  0  0  0  0  0  0  0
   58.3930   28.4970   46.3040 N   0  0  0  0  0  0  0  0  0  0  0  0
   57.7920   27.4440   47.1300 C   0  0  0  0  0  0  0  0  0  0  0  0
   57.7250   26.1170   46.3650 C   0  0  0  0  0  0  0  0  0  0  0  0
   57.3980   26.3660   44.9470 N   0  0  0  0  0  0  0  0  0  0  0  0
   57.0680   25.1290   44.2600 C   0  0  0  0  0  0  0  0  0  0  0  0
   57.2160   25.0620   43.0480 O   0  0  0  0  0  0  0  0  0  0  0  0
   56.5080   23.9280   44.9910 C   0  0  0  0  0  0  0  0  0  0  0  0
   55.0200   24.0310   45.1470 C   0  0  0  0  0  0  0  0  0  0  0  0
   54.1660   23.0220   44.8950 N   0  0  0  0  0  0  0  0  0  0  0  0
   52.9600   23.5520   45.1910 C   0  0  0  0  0  0  0  0  0  0  0  0
   51.8870   22.9040   45.0720 O   0  0  0  0  0  0  0  0  0  0  0  0
   52.9930   24.8300   45.6240 N   0  0  0  0  0  0  0  0  0  0  0  0
   54.3050   25.1160   45.5950 C   0  0  0  0  0  0  0  0  0  0  0  0
   54.8350   26.3450   45.9670 O   0  0  0  0  0  0  0  0  0  0  0  0
   58.4790   27.0970   44.2410 C   0  0  0  0  0  0  0  0  0  0  0  0
   59.2040   28.1260   45.1350 C   0  0  0  0  0  0  0  0  0  0  0  0
   59.5728   32.2697   47.1348 H   0  0  0  0  0  0  0  0  0  0  0  0
   60.0927   34.9647   44.7780 H   0  0  0  0  0  0  0  0  0  0  0  0
   58.8978   35.3473   46.0725 H   0  0  0  0  0  0  0  0  0  0  0  0
   62.1639   33.7225   45.3062 H   0  0  0  0  0  0  0  0  0  0  0  0
   57.9776   34.1175   43.5565 H   0  0  0  0  0  0  0  0  0  0  0  0
   56.7907   32.0018   42.9940 H   0  0  0  0  0  0  0  0  0  0  0  0
   58.4002   27.3065   48.0362 H   0  0  0  0  0  0  0  0  0  0  0  0
   56.7686   27.7478   47.3953 H   0  0  0  0  0  0  0  0  0  0  0  0
   58.6988   25.6096   46.4303 H   0  0  0  0  0  0  0  0  0  0  0  0
   56.9430   25.4838   46.8095 H   0  0  0  0  0  0  0  0  0  0  0  0
   56.5440   26.9760   44.9260 H   0  0  0  0  0  0  0  0  0  0  0  0
   56.7465   23.0181   44.4208 H   0  0  0  0  0  0  0  0  0  0  0  0
   56.9605   23.8889   45.9928 H   0  0  0  0  0  0  0  0  0  0  0  0
   59.2175   26.3658   43.8805 H   0  0  0  0  0  0  0  0  0  0  0  0
   58.0111   27.6541   43.4159 H   0  0  0  0  0  0  0  0  0  0  0  0
   60.1525   27.6907   45.4827 H   0  0  0  0  0  0  0  0  0  0  0  0
   59.3820   29.0332   44.5390 H   0  0  0  0  0  0  0  0  0  0  0  0
  1  2  2  0
  2  3  1  0
  3  4  2  0
  4  5  1  0
  5  6  1  0
  6  7  1  0
  7  8  2  0
  8  9  1  0
  9 10  1  0
 10 11  2  0
 10 12  1  0
 12 13  1  0
 13 14  2  0
  5 15  2  0
 15 16  1  0
 16 17  2  0
 17 18  1  0
  2 19  1  0
 19 20  1  0
 20 21  1  0
 21 22  1  0
 22 23  1  0
 23 24  2  0
 23 25  1  0
 25 26  1  0
 26 27  1  0
 27 28  1  0
 28 29  2  0
 28 30  1  0
 30 31  1  0
 31 32  1  0
 22 33  1  0
 33 34  1  0
 17  3  1  0
 34 19  1  0
 13  7  1  0
 31 26  2  0
  4 35  1  0
  6 36  1  0
  6 37  1  0
  8 38  1  0
 15 39  1  0
 16 40  1  0
 20 41  1  0
 20 42  1  0
 21 43  1  0
 21 44  1  0
 22 45  1  0
 25 46  1  0
 25 47  1  0
 33 48  1  0
 33 49  1  0
 34 50  1  0
 34 51  1  0
M  CHG  6   9  -1  12  -1  22   1  27  -1  30  -1  32  -1
M  END
>  <UniqueID>  (59) 
54

>  <SMILES>  (59) 
O=C(c1cc(Cc2c[n-]c(=O)[n-]c2=O)ccc1F)N1CC[NH+](C(=O)Cc2[n-]c(=O)[n-]c2[O-])CC1

>  <Energy>  (59) 
97.33593023066749

>  <Genealogy>  (59) 
O=C(c1cc(Cc2c[n-]c(=O)[n-]c2=O)ccc1F)N1CC[NH+](C(=O)Cc2[n-]c(=O)[n-]c2[O-])CC1 (protonated)
O=C(c1cc(Cc2c[n-]c(=O)[n-]c2=O)ccc1F)N1CC[NH+](C(=O)Cc2[n-]c(=O)[n-]c2[O-])CC1 (3D coordinates assigned)
O=C(c1cc(Cc2c[n-]c(=O)[n-]c2=O)ccc1F)N1CC[NH+](C(=O)Cc2[n-]c(=O)[n-]c2[O-])CC1 (nonaromatic ring conformer: 97.33593023066749 kcal/mol)

>  <smiles>  (59) 
O=C(Cc1[nH]c(=O)[nH]c1O)N1CCN(C(=O)c2cc(Cc3c[nH]c(=O)[nH]c3=O)ccc2F)CC1

>  <score_type>  (59) 
oracle

>  <origin>  (59) 
adg

>  <m_score__min__energy>  (59) 
-21.27

>  <m_primary>  (59) 
energy

$$$$
59:0
     RDKit          3D

 39 41  0  0  0  0  0  0  0  0999 V2000
   61.2635   28.3107   45.6349 H   0  0  0  0  0  0  0  0  0  0  0  0
   60.6940   28.0600   46.5420 C   0  0  0  0  0  0  0  0  0  0  0  0
   60.6320   29.0430   47.6450 C   0  0  0  0  0  0  0  0  0  0  0  0
   60.2280   28.6810   48.7830 O   0  0  0  0  0  0  0  0  0  0  0  0
   61.0300   30.4090   47.4650 N   0  0  0  0  0  0  0  0  0  0  0  0
   61.4130   31.3520   48.5160 C   0  0  0  0  0  0  0  0  0  0  0  0
   61.8777   30.7957   49.3434 H   0  0  0  0  0  0  0  0  0  0  0  0
   62.1190   32.0785   48.0874 H   0  0  0  0  0  0  0  0  0  0  0  0
   60.1980   32.1200   49.0520 C   0  0  0  0  0  0  0  0  0  0  0  0
   59.3806   31.4056   49.2293 H   0  0  0  0  0  0  0  0  0  0  0  0
   60.5070   32.6240   49.9796 H   0  0  0  0  0  0  0  0  0  0  0  0
   59.7140   33.1770   48.1020 C   0  0  0  0  0  0  0  0  0  0  0  0
   59.9780   34.5420   48.1760 C   0  0  0  0  0  0  0  0  0  0  0  0
   60.6161   35.0170   48.9357 H   0  0  0  0  0  0  0  0  0  0  0  0
   59.3400   35.2020   47.1830 N   0  0  0  0  0  0  0  0  0  0  0  0
   59.3510   36.2310   47.0100 H   0  0  0  0  0  0  0  0  0  0  0  0
   58.6730   34.2670   46.4840 C   0  0  0  0  0  0  0  0  0  0  0  0
   57.8440   34.4690   45.3820 C   0  0  0  0  0  0  0  0  0  0  0  0
   57.6928   35.4744   44.9621 H   0  0  0  0  0  0  0  0  0  0  0  0
   57.2070   33.3460   44.8240 C   0  0  0  0  0  0  0  0  0  0  0  0
   56.5467   33.4696   43.9530 H   0  0  0  0  0  0  0  0  0  0  0  0
   57.4090   32.0600   45.3740 C   0  0  0  0  0  0  0  0  0  0  0  0
   56.7660   30.9620   44.8190 O   0  0  0  0  0  0  0  0  0  0  0  0
   58.2560   31.8870   46.4850 C   0  0  0  0  0  0  0  0  0  0  0  0
   58.4241   30.8914   46.9216 H   0  0  0  0  0  0  0  0  0  0  0  0
   58.8750   33.0190   47.0140 C   0  0  0  0  0  0  0  0  0  0  0  0
   60.0770   26.8730   46.6150 C   0  0  0  0  0  0  0  0  0  0  0  0
   60.6864   25.9762   46.8001 H   0  0  0  0  0  0  0  0  0  0  0  0
   58.6110   26.7110   46.4580 C   0  0  0  0  0  0  0  0  0  0  0  0
   57.8890   27.7180   45.7970 C   0  0  0  0  0  0  0  0  0  0  0  0
   58.4124   28.6134   45.4305 H   0  0  0  0  0  0  0  0  0  0  0  0
   56.5110   27.5920   45.6010 C   0  0  0  0  0  0  0  0  0  0  0  0
   55.9564   28.3827   45.0745 H   0  0  0  0  0  0  0  0  0  0  0  0
   55.8370   26.4630   46.0730 C   0  0  0  0  0  0  0  0  0  0  0  0
   54.4680   26.3360   45.8720 O   0  0  0  0  0  0  0  0  0  0  0  0
   56.5400   25.4640   46.7510 C   0  0  0  0  0  0  0  0  0  0  0  0
   56.0072   24.5798   47.1308 H   0  0  0  0  0  0  0  0  0  0  0  0
   57.9180   25.5850   46.9480 C   0  0  0  0  0  0  0  0  0  0  0  0
   58.4649   24.7980   47.4880 H   0  0  0  0  0  0  0  0  0  0  0  0
  1  2  1  0
  2  3  1  0
  3  4  2  0
  3  5  1  0
  5  6  1  0
  6  7  1  0
  6  8  1  0
  6  9  1  0
  9 10  1  0
  9 11  1  0
  9 12  1  0
 12 13  2  0
 13 14  1  0
 13 15  1  0
 15 16  1  0
 15 17  1  0
 17 18  2  0
 18 19  1  0
 18 20  1  0
 20 21  1  0
 20 22  2  0
 22 23  1  0
 22 24  1  0
 24 25  1  0
 24 26  2  0
  2 27  2  0
 27 28  1  0
 27 29  1  0
 29 30  2  0
 30 31  1  0
 30 32  1  0
 32 33  1  0
 32 34  2  0
 34 35  1  0
 34 36  1  0
 36 37  1  0
 36 38  2  0
 38 39  1  0
 26 12  1  0
 38 29  1  0
 26 17  1  0
M  CHG  3   5  -1  23  -1  35  -1
M  END
>  <UniqueID>  (60) 
55

>  <SMILES>  (60) 
O=C(/C=C/c1ccc([O-])cc1)[N-]CCc1c[nH]c2ccc([O-])cc12

>  <Energy>  (60) 
67.87705888821289

>  <Genealogy>  (60) 
O=C(C=Cc1ccc([O-])cc1)[N-]CCc1c[nH]c2ccc([O-])cc12 (protonated)
O=C(/C=C/c1ccc([O-])cc1)[N-]CCc1c[nH]c2ccc([O-])cc12 (cis-trans isomerization)
O=C(/C=C/c1ccc([O-])cc1)[N-]CCc1c[nH]c2ccc([O-])cc12 (3D coordinates assigned)
O=C(/C=C/c1ccc([O-])cc1)[N-]CCc1c[nH]c2ccc([O-])cc12 (optimized conformer: 67.87705888821289 kcal/mol)

>  <smiles>  (60) 
O=C(C=Cc1ccc(O)cc1)NCCc1c[nH]c2ccc(O)cc12

>  <score_type>  (60) 
oracle

>  <origin>  (60) 
adg

>  <m_score__min__energy>  (60) 
-14.73

>  <m_primary>  (60) 
energy

$$$$
60:0
     RDKit          3D

 27 28  0  0  0  0  0  0  0  0999 V2000
   59.2640   25.1900   45.6190 O   0  0  0  0  0  0  0  0  0  0  0  0
   58.0900   25.0590   46.0610 C   0  0  0  0  0  0  0  0  0  0  0  0
   57.7760   23.9710   46.8170 N   0  0  0  0  0  0  0  0  0  0  0  0
   56.5140   23.7940   47.2960 C   0  0  0  0  0  0  0  0  0  0  0  0
   56.1460   22.4830   48.2010 S   0  0  0  0  0  0  0  0  0  0  0  0
   55.5480   24.7050   47.0170 N   0  0  0  0  0  0  0  0  0  0  0  0
   55.8120   25.8060   46.2690 C   0  0  0  0  0  0  0  0  0  0  0  0
   54.7850   26.7050   45.9990 O   0  0  0  0  0  0  0  0  0  0  0  0
   57.1090   26.0260   45.7760 C   0  0  0  0  0  0  0  0  0  0  0  0
   57.4170   27.2280   44.9150 C   0  0  0  0  0  0  0  0  0  0  0  0
   57.3110   28.5180   45.7330 C   0  0  0  0  0  0  0  0  0  0  0  0
   57.4600   29.7230   44.8430 C   0  0  0  0  0  0  0  0  0  0  0  0
   58.1320   30.8670   45.3050 C   0  0  0  0  0  0  0  0  0  0  0  0
   58.2400   31.9970   44.4890 C   0  0  0  0  0  0  0  0  0  0  0  0
   57.6730   31.9970   43.2120 C   0  0  0  0  0  0  0  0  0  0  0  0
   56.9910   30.8670   42.7500 C   0  0  0  0  0  0  0  0  0  0  0  0
   56.8800   29.7340   43.5630 C   0  0  0  0  0  0  0  0  0  0  0  0
   58.5160   23.2630   47.0270 H   0  0  0  0  0  0  0  0  0  0  0  0
   58.4382   27.1353   44.5167 H   0  0  0  0  0  0  0  0  0  0  0  0
   56.6896   27.2698   44.0909 H   0  0  0  0  0  0  0  0  0  0  0  0
   56.3290   28.5529   46.2275 H   0  0  0  0  0  0  0  0  0  0  0  0
   58.1153   28.5295   46.4833 H   0  0  0  0  0  0  0  0  0  0  0  0
   58.5746   30.8736   46.3120 H   0  0  0  0  0  0  0  0  0  0  0  0
   58.7725   32.8880   44.8531 H   0  0  0  0  0  0  0  0  0  0  0  0
   57.7631   32.8858   42.5702 H   0  0  0  0  0  0  0  0  0  0  0  0
   56.5413   30.8690   41.7461 H   0  0  0  0  0  0  0  0  0  0  0  0
   56.3371   28.8491   43.1993 H   0  0  0  0  0  0  0  0  0  0  0  0
  1  2  2  0
  2  3  1  0
  3  4  1  0
  4  5  2  0
  4  6  1  0
  6  7  1  0
  7  8  1  0
  7  9  2  0
  9 10  1  0
 10 11  1  0
 11 12  1  0
 12 13  2  0
 13 14  1  0
 14 15  2  0
 15 16  1  0
 16 17  2  0
  9  2  1  0
 17 12  1  0
  3 18  1  0
 10 19  1  0
 10 20  1  0
 11 21  1  0
 11 22  1  0
 13 23  1  0
 14 24  1  0
 15 25  1  0
 16 26  1  0
 17 27  1  0
M  CHG  2   6  -1   8  -1
M  END
>  <UniqueID>  (61) 
56

>  <SMILES>  (61) 
O=c1[nH]c(=S)[n-]c([O-])c1CCc1ccccc1

>  <Energy>  (61) 
26.839646011684

>  <Genealogy>  (61) 
O=c1[nH]c(=S)[n-]c([O-])c1CCc1ccccc1 (protonated)
O=c1[nH]c(=S)[n-]c([O-])c1CCc1ccccc1 (3D coordinates assigned)
O=c1[nH]c(=S)[n-]c([O-])c1CCc1ccccc1 (optimized conformer: 26.839646011684 kcal/mol)

>  <smiles>  (61) 
O=c1[nH]c(=S)[nH]c(O)c1CCc1ccccc1

>  <score_type>  (61) 
oracle

>  <origin>  (61) 
adg

>  <m_score__min__energy>  (61) 
-11.65

>  <m_primary>  (61) 
energy

$$$$
61:0
     RDKit          3D

 66 70  0  0  0  0  0  0  0  0999 V2000
   62.7171   30.5336   53.7358 H   0  0  0  0  0  0  0  0  0  0  0  0
   62.5500   30.6200   52.6520 C   0  0  0  0  0  0  0  0  0  0  0  0
   61.3160   30.3860   52.1320 N   0  0  0  0  0  0  0  0  0  0  0  0
   61.0360   30.5080   50.8050 C   0  0  0  0  0  0  0  0  0  0  0  0
   59.8560   30.1030   50.4160 N   0  0  0  0  0  0  0  0  0  0  0  0
   58.5560   30.5630   50.8000 C   0  0  0  0  0  0  0  0  0  0  0  0
   57.7560   29.7780   51.3770 O   0  0  0  0  0  0  0  0  0  0  0  0
   58.2350   32.0230   50.7060 C   0  0  0  0  0  0  0  0  0  0  0  0
   57.1706   32.1428   50.4557 H   0  0  0  0  0  0  0  0  0  0  0  0
   58.4561   32.4957   51.6743 H   0  0  0  0  0  0  0  0  0  0  0  0
   59.0440   32.6660   49.6760 N   0  0  0  0  0  0  0  0  0  0  0  0
   59.6010   31.9300   49.1860 H   0  0  0  0  0  0  0  0  0  0  0  0
   59.7360   33.2860   50.1550 H   0  0  0  0  0  0  0  0  0  0  0  0
   62.0500   31.0210   49.9350 C   0  0  0  0  0  0  0  0  0  0  0  0
   61.7300   31.8050   48.3680 S   0  0  0  0  0  0  0  0  0  0  0  0
   62.9600   31.7940   47.5060 O   0  0  0  0  0  0  0  0  0  0  0  0
   61.2850   33.2230   48.5960 O   0  0  0  0  0  0  0  0  0  0  0  0
   60.4730   30.9710   47.4980 N   0  0  0  0  0  0  0  0  0  0  0  0
   61.0180   30.2430   46.3520 C   0  0  0  0  0  0  0  0  0  0  0  0
   62.0931   30.0693   46.5073 H   0  0  0  0  0  0  0  0  0  0  0  0
   60.8669   30.8372   45.4387 H   0  0  0  0  0  0  0  0  0  0  0  0
   60.3040   28.9020   46.2050 C   0  0  0  0  0  0  0  0  0  0  0  0
   60.9435   28.1076   46.6173 H   0  0  0  0  0  0  0  0  0  0  0  0
   60.1083   28.7260   45.1370 H   0  0  0  0  0  0  0  0  0  0  0  0
   59.0600   28.9040   46.8980 O   0  0  0  0  0  0  0  0  0  0  0  0
   57.8830   28.3600   46.3790 C   0  0  0  0  0  0  0  0  0  0  0  0
   57.3450   27.1920   46.7810 N   0  0  0  0  0  0  0  0  0  0  0  0
   56.2480   27.0800   46.0040 C   0  0  0  0  0  0  0  0  0  0  0  0
   55.4470   26.0560   46.0870 N   0  0  0  0  0  0  0  0  0  0  0  0
   55.8360   24.6960   46.3540 C   0  0  0  0  0  0  0  0  0  0  0  0
   55.8470   24.2560   47.5350 O   0  0  0  0  0  0  0  0  0  0  0  0
   56.2290   23.8060   45.2330 C   0  0  0  0  0  0  0  0  0  0  0  0
   55.4490   23.7600   44.0590 C   0  0  0  0  0  0  0  0  0  0  0  0
   54.5622   24.4045   43.9681 H   0  0  0  0  0  0  0  0  0  0  0  0
   55.7930   22.9020   43.0090 C   0  0  0  0  0  0  0  0  0  0  0  0
   55.1702   22.8666   42.1030 H   0  0  0  0  0  0  0  0  0  0  0  0
   56.9240   22.0910   43.1080 C   0  0  0  0  0  0  0  0  0  0  0  0
   57.1956   21.4214   42.2786 H   0  0  0  0  0  0  0  0  0  0  0  0
   57.7110   22.1300   44.2610 C   0  0  0  0  0  0  0  0  0  0  0  0
   58.6022   21.4897   44.3369 H   0  0  0  0  0  0  0  0  0  0  0  0
   57.3720   22.9790   45.3200 C   0  0  0  0  0  0  0  0  0  0  0  0
   58.1810   23.0090   46.4120 F   0  0  0  0  0  0  0  0  0  0  0  0
   56.0690   28.1060   45.1400 N   0  0  0  0  0  0  0  0  0  0  0  0
   57.1130   28.9180   45.3790 C   0  0  0  0  0  0  0  0  0  0  0  0
   57.3400   30.1990   44.6740 C   0  0  0  0  0  0  0  0  0  0  0  0
   57.2700   30.4170   43.2980 C   0  0  0  0  0  0  0  0  0  0  0  0
   56.9984   29.6533   42.5543 H   0  0  0  0  0  0  0  0  0  0  0  0
   57.5830   31.6990   43.0080 N   0  0  0  0  0  0  0  0  0  0  0  0
   57.5840   32.3080   41.6810 C   0  0  0  0  0  0  0  0  0  0  0  0
   57.5858   33.4035   41.7803 H   0  0  0  0  0  0  0  0  0  0  0  0
   58.4816   31.9882   41.1315 H   0  0  0  0  0  0  0  0  0  0  0  0
   56.6853   31.9911   41.1315 H   0  0  0  0  0  0  0  0  0  0  0  0
   57.8270   32.3090   44.1850 C   0  0  0  0  0  0  0  0  0  0  0  0
   58.1690   33.6470   44.3990 C   0  0  0  0  0  0  0  0  0  0  0  0
   58.2778   34.3459   43.5565 H   0  0  0  0  0  0  0  0  0  0  0  0
   58.3700   34.0730   45.7250 C   0  0  0  0  0  0  0  0  0  0  0  0
   58.6414   35.1196   45.9272 H   0  0  0  0  0  0  0  0  0  0  0  0
   58.2260   33.1680   46.7960 C   0  0  0  0  0  0  0  0  0  0  0  0
   58.3839   33.5141   47.8281 H   0  0  0  0  0  0  0  0  0  0  0  0
   57.8820   31.8260   46.5550 C   0  0  0  0  0  0  0  0  0  0  0  0
   57.7656   31.1133   47.3848 H   0  0  0  0  0  0  0  0  0  0  0  0
   57.6920   31.4240   45.2270 C   0  0  0  0  0  0  0  0  0  0  0  0
   63.3490   31.1650   50.4520 C   0  0  0  0  0  0  0  0  0  0  0  0
   64.1758   31.4351   49.7786 H   0  0  0  0  0  0  0  0  0  0  0  0
   63.6010   30.9690   51.8100 C   0  0  0  0  0  0  0  0  0  0  0  0
   64.6186   31.0890   52.2102 H   0  0  0  0  0  0  0  0  0  0  0  0
  1  2  1  0
  2  3  1  0
  3  4  1  0
  4  5  2  0
  5  6  1  0
  6  7  2  0
  6  8  1  0
  8  9  1  0
  8 10  1  0
  8 11  1  0
 11 12  1  0
 11 13  1  0
  4 14  1  0
 14 15  1  0
 15 16  2  0
 15 17  2  0
 15 18  1  0
 18 19  1  0
 19 20  1  0
 19 21  1  0
 19 22  1  0
 22 23  1  0
 22 24  1  0
 22 25  1  0
 25 26  1  0
 26 27  1  0
 27 28  1  0
 28 29  2  0
 29 30  1  0
 30 31  2  0
 30 32  1  0
 32 33  2  0
 33 34  1  0
 33 35  1  0
 35 36  1  0
 35 37  2  0
 37 38  1  0
 37 39  1  0
 39 40  1  0
 39 41  2  0
 41 42  1  0
 28 43  1  0
 43 44  1  0
 44 45  1  0
 45 46  2  0
 46 47  1  0
 46 48  1  0
 48 49  1  0
 49 50  1  0
 49 51  1  0
 49 52  1  0
 48 53  1  0
 53 54  2  0
 54 55  1  0
 54 56  1  0
 56 57  1  0
 56 58  2  0
 58 59  1  0
 58 60  1  0
 60 61  1  0
 60 62  2  0
 14 63  2  0
 63 64  1  0
 63 65  1  0
 65 66  1  0
 65  2  2  0
 44 26  2  0
 62 45  1  0
 41 32  1  0
 62 53  1  0
M  CHG  4   3  -1  18  -1  27  -1  43  -1
M  END
>  <UniqueID>  (62) 
57

>  <SMILES>  (62) 
Cn1cc(-c2[n-]/c(=N\C(=O)c3ccccc3F)[n-]c2OCC[N-]S(=O)(=O)c2ccc[n-]/c2=N/C(=O)CN)c2ccccc21

>  <Energy>  (62) 
154.06259958168116

>  <Genealogy>  (62) 
Cn1cc(-c2[n-]c(=NC(=O)c3ccccc3F)[n-]c2OCC[N-]S(=O)(=O)c2ccc[n-]c2=NC(=O)CN)c2ccccc21 (protonated)
Cn1cc(-c2[n-]/c(=N\C(=O)c3ccccc3F)[n-]c2OCC[N-]S(=O)(=O)c2ccc[n-]/c2=N/C(=O)CN)c2ccccc21 (cis-trans isomerization)
Cn1cc(-c2[n-]/c(=N\C(=O)c3ccccc3F)[n-]c2OCC[N-]S(=O)(=O)c2ccc[n-]/c2=N/C(=O)CN)c2ccccc21 (3D coordinates assigned)
Cn1cc(-c2[n-]/c(=N\C(=O)c3ccccc3F)[n-]c2OCC[N-]S(=O)(=O)c2ccc[n-]/c2=N/C(=O)CN)c2ccccc21 (optimized conformer: 154.06259958168116 kcal/mol)

>  <smiles>  (62) 
Cn1cc(-c2[nH]c(=NC(=O)c3ccccc3F)[nH]c2OCCNS(=O)(=O)c2ccc[nH]c2=NC(=O)CN)c2ccccc21

>  <score_type>  (62) 
oracle

>  <origin>  (62) 
adg

>  <m_score__min__energy>  (62) 
-15.52

>  <m_primary>  (62) 
energy

$$$$
62:0
     RDKit          3D

 44 46  0  0  0  0  0  0  0  0999 V2000
   61.2330   30.4580   46.8030 C   0  0  0  0  0  0  0  0  0  0  0  0
   60.1540   29.6130   46.2120 C   0  0  0  0  0  0  0  0  0  0  0  0
   60.1970   28.9870   44.9720 C   0  0  0  0  0  0  0  0  0  0  0  0
   59.1050   28.2330   44.6800 N   0  0  0  0  0  0  0  0  0  0  0  0
   58.2080   28.2300   45.6910 C   0  0  0  0  0  0  0  0  0  0  0  0
   56.8710   27.5710   45.6050 C   0  0  0  0  0  0  0  0  0  0  0  0
   55.8630   28.5580   45.2430 N   0  0  0  0  0  0  0  0  0  0  0  0
   56.1210   29.6630   44.3680 C   0  0  0  0  0  0  0  0  0  0  0  0
   56.4100   29.4580   43.1590 O   0  0  0  0  0  0  0  0  0  0  0  0
   56.0050   31.0080   44.8410 N   0  0  0  0  0  0  0  0  0  0  0  0
   57.0720   31.9650   44.9080 C   0  0  0  0  0  0  0  0  0  0  0  0
   57.6010   32.4700   43.7150 C   0  0  0  0  0  0  0  0  0  0  0  0
   58.6700   33.3710   43.7410 C   0  0  0  0  0  0  0  0  0  0  0  0
   59.2270   33.7640   44.9610 C   0  0  0  0  0  0  0  0  0  0  0  0
   58.7210   33.2500   46.1630 C   0  0  0  0  0  0  0  0  0  0  0  0
   59.4330   33.7240   47.7080 S   0  0  0  0  0  0  0  0  0  0  0  0
   58.6800   33.0510   48.8200 O   0  0  0  0  0  0  0  0  0  0  0  0
   59.2930   35.2110   47.8840 O   0  0  0  0  0  0  0  0  0  0  0  0
   61.1220   33.2920   47.8090 N   0  0  0  0  0  0  0  0  0  0  0  0
   61.7050   33.7740   49.0720 C   0  0  0  0  0  0  0  0  0  0  0  0
   63.2420   33.6440   49.0500 C   0  0  0  0  0  0  0  0  0  0  0  0
   63.6620   32.8020   47.9950 O   0  0  0  0  0  0  0  0  0  0  0  0
   63.3430   33.3940   46.7470 C   0  0  0  0  0  0  0  0  0  0  0  0
   61.8670   33.8360   46.6660 C   0  0  0  0  0  0  0  0  0  0  0  0
   57.6490   32.3480   46.1330 C   0  0  0  0  0  0  0  0  0  0  0  0
   58.7190   29.1880   46.9780 S   0  0  0  0  0  0  0  0  0  0  0  0
   61.1748   30.4124   47.9005 H   0  0  0  0  0  0  0  0  0  0  0  0
   62.2135   30.0851   46.4720 H   0  0  0  0  0  0  0  0  0  0  0  0
   61.1060   31.4993   46.4720 H   0  0  0  0  0  0  0  0  0  0  0  0
   61.0471   29.0934   44.2821 H   0  0  0  0  0  0  0  0  0  0  0  0
   56.9008   26.7806   44.8405 H   0  0  0  0  0  0  0  0  0  0  0  0
   56.6173   27.1301   46.5803 H   0  0  0  0  0  0  0  0  0  0  0  0
   57.1735   32.1564   42.7512 H   0  0  0  0  0  0  0  0  0  0  0  0
   59.0734   33.7713   42.7992 H   0  0  0  0  0  0  0  0  0  0  0  0
   60.0638   34.4778   44.9781 H   0  0  0  0  0  0  0  0  0  0  0  0
   61.4343   34.8307   49.2142 H   0  0  0  0  0  0  0  0  0  0  0  0
   61.3111   33.1637   49.8980 H   0  0  0  0  0  0  0  0  0  0  0  0
   63.6858   34.6412   48.9134 H   0  0  0  0  0  0  0  0  0  0  0  0
   63.5712   33.2042   50.0030 H   0  0  0  0  0  0  0  0  0  0  0  0
   63.9843   34.2755   46.5999 H   0  0  0  0  0  0  0  0  0  0  0  0
   63.5104   32.6388   45.9649 H   0  0  0  0  0  0  0  0  0  0  0  0
   61.8131   34.9345   46.6843 H   0  0  0  0  0  0  0  0  0  0  0  0
   61.4254   33.4591   45.7317 H   0  0  0  0  0  0  0  0  0  0  0  0
   57.2556   31.9362   47.0741 H   0  0  0  0  0  0  0  0  0  0  0  0
  1  2  1  0
  2  3  2  0
  3  4  1  0
  4  5  2  0
  5  6  1  0
  6  7  1  0
  7  8  1  0
  8  9  2  0
  8 10  1  0
 10 11  1  0
 11 12  2  0
 12 13  1  0
 13 14  2  0
 14 15  1  0
 15 16  1  0
 16 17  2  0
 16 18  2  0
 16 19  1  0
 19 20  1  0
 20 21  1  0
 21 22  1  0
 22 23  1  0
 23 24  1  0
 15 25  2  0
  5 26  1  0
 26  2  1  0
 25 11  1  0
 24 19  1  0
  1 27  1  0
  1 28  1  0
  1 29  1  0
  3 30  1  0
  6 31  1  0
  6 32  1  0
 12 33  1  0
 13 34  1  0
 14 35  1  0
 20 36  1  0
 20 37  1  0
 21 38  1  0
 21 39  1  0
 23 40  1  0
 23 41  1  0
 24 42  1  0
 24 43  1  0
 25 44  1  0
M  CHG  2   7  -1  10  -1
M  END
>  <UniqueID>  (63) 
58

>  <SMILES>  (63) 
Cc1cnc(C[N-]C(=O)[N-]c2cccc(S(=O)(=O)N3CCOCC3)c2)s1

>  <Energy>  (63) 
77.78200592773723

>  <Genealogy>  (63) 
Cc1cnc(C[N-]C(=O)[N-]c2cccc(S(=O)(=O)N3CCOCC3)c2)s1 (protonated)
Cc1cnc(C[N-]C(=O)[N-]c2cccc(S(=O)(=O)N3CCOCC3)c2)s1 (3D coordinates assigned)
Cc1cnc(C[N-]C(=O)[N-]c2cccc(S(=O)(=O)N3CCOCC3)c2)s1 (nonaromatic ring conformer: 77.78200592773723 kcal/mol)

>  <smiles>  (63) 
Cc1cnc(CNC(=O)Nc2cccc(S(=O)(=O)N3CCOCC3)c2)s1

>  <score_type>  (63) 
oracle

>  <origin>  (63) 
adg

>  <m_score__min__energy>  (63) 
-12.33

>  <m_primary>  (63) 
energy

$$$$
63:0
     RDKit          3D

 53 56  0  0  0  0  0  0  0  0999 V2000
   58.8036   23.3395   45.6502 H   0  0  0  0  0  0  0  0  0  0  0  0
   57.9560   24.0370   45.7220 C   0  0  0  0  0  0  0  0  0  0  0  0
   58.1500   25.2940   46.2010 N   0  0  0  0  0  0  0  0  0  0  0  0
   57.1300   26.1930   46.3080 C   0  0  0  0  0  0  0  0  0  0  0  0
   57.3340   27.3970   46.7600 N   0  0  0  0  0  0  0  0  0  0  0  0
   57.3490   28.6180   45.9990 C   0  0  0  0  0  0  0  0  0  0  0  0
   56.4200   28.8760   45.1850 O   0  0  0  0  0  0  0  0  0  0  0  0
   58.4810   29.5650   46.1350 C   0  0  0  0  0  0  0  0  0  0  0  0
   58.2110   30.9450   46.1490 C   0  0  0  0  0  0  0  0  0  0  0  0
   57.1750   31.2961   46.0334 H   0  0  0  0  0  0  0  0  0  0  0  0
   59.2420   31.8780   46.3080 C   0  0  0  0  0  0  0  0  0  0  0  0
   58.8620   33.5810   46.5700 S   0  0  0  0  0  0  0  0  0  0  0  0
   59.2680   34.3760   45.3610 O   0  0  0  0  0  0  0  0  0  0  0  0
   57.3790   33.7380   46.7580 O   0  0  0  0  0  0  0  0  0  0  0  0
   59.6940   34.1890   47.9850 N   0  0  0  0  0  0  0  0  0  0  0  0
   61.1570   34.2070   47.7570 C   0  0  0  0  0  0  0  0  0  0  0  0
   61.4455   33.2919   47.2191 H   0  0  0  0  0  0  0  0  0  0  0  0
   61.4019   35.1033   47.1682 H   0  0  0  0  0  0  0  0  0  0  0  0
   61.9340   34.2740   49.0760 C   0  0  0  0  0  0  0  0  0  0  0  0
   63.0104   34.3303   48.8565 H   0  0  0  0  0  0  0  0  0  0  0  0
   61.6056   35.1655   49.6304 H   0  0  0  0  0  0  0  0  0  0  0  0
   61.6620   33.0320   49.9420 C   0  0  0  0  0  0  0  0  0  0  0  0
   62.4343   32.2783   49.7286 H   0  0  0  0  0  0  0  0  0  0  0  0
   61.6836   33.3501   50.9948 H   0  0  0  0  0  0  0  0  0  0  0  0
   60.2810   32.4110   49.6730 C   0  0  0  0  0  0  0  0  0  0  0  0
   60.3779   31.6485   48.8861 H   0  0  0  0  0  0  0  0  0  0  0  0
   59.9142   31.9609   50.6073 H   0  0  0  0  0  0  0  0  0  0  0  0
   59.2700   33.4760   49.2170 C   0  0  0  0  0  0  0  0  0  0  0  0
   58.3058   32.9835   49.0227 H   0  0  0  0  0  0  0  0  0  0  0  0
   59.1948   34.2236   50.0204 H   0  0  0  0  0  0  0  0  0  0  0  0
   60.5670   31.4390   46.3650 C   0  0  0  0  0  0  0  0  0  0  0  0
   61.3863   32.1715   46.4116 H   0  0  0  0  0  0  0  0  0  0  0  0
   60.8530   30.0750   46.3630 C   0  0  0  0  0  0  0  0  0  0  0  0
   61.8987   29.7369   46.4106 H   0  0  0  0  0  0  0  0  0  0  0  0
   59.8210   29.1320   46.3010 C   0  0  0  0  0  0  0  0  0  0  0  0
   60.2480   27.4150   46.6340 S   0  0  0  0  0  0  0  0  0  0  0  0
   60.2380   27.6980   48.4080 C   0  0  0  0  0  0  0  0  0  0  0  0
   59.7450   28.9050   48.9240 C   0  0  0  0  0  0  0  0  0  0  0  0
   59.3079   29.6544   48.2478 H   0  0  0  0  0  0  0  0  0  0  0  0
   59.8090   29.1560   50.2980 C   0  0  0  0  0  0  0  0  0  0  0  0
   59.4262   30.1051   50.7014 H   0  0  0  0  0  0  0  0  0  0  0  0
   60.3590   28.2020   51.1600 C   0  0  0  0  0  0  0  0  0  0  0  0
   60.4290   28.4510   52.4910 F   0  0  0  0  0  0  0  0  0  0  0  0
   60.8370   26.9910   50.6490 C   0  0  0  0  0  0  0  0  0  0  0  0
   61.2636   26.2380   51.3280 H   0  0  0  0  0  0  0  0  0  0  0  0
   60.7730   26.7370   49.2760 C   0  0  0  0  0  0  0  0  0  0  0  0
   61.1432   25.7813   48.8764 H   0  0  0  0  0  0  0  0  0  0  0  0
   55.8370   25.8180   45.9100 C   0  0  0  0  0  0  0  0  0  0  0  0
   54.7760   26.7130   46.0010 O   0  0  0  0  0  0  0  0  0  0  0  0
   55.6190   24.5290   45.4160 C   0  0  0  0  0  0  0  0  0  0  0  0
   54.6100   24.2233   45.1022 H   0  0  0  0  0  0  0  0  0  0  0  0
   56.6820   23.6300   45.3210 C   0  0  0  0  0  0  0  0  0  0  0  0
   56.5183   22.6131   44.9349 H   0  0  0  0  0  0  0  0  0  0  0  0
  1  2  1  0
  2  3  1  0
  3  4  1  0
  4  5  2  0
  5  6  1  0
  6  7  2  0
  6  8  1  0
  8  9  2  0
  9 10  1  0
  9 11  1  0
 11 12  1  0
 12 13  2  0
 12 14  2  0
 12 15  1  0
 15 16  1  0
 16 17  1  0
 16 18  1  0
 16 19  1  0
 19 20  1  0
 19 21  1  0
 19 22  1  0
 22 23  1  0
 22 24  1  0
 22 25  1  0
 25 26  1  0
 25 27  1  0
 25 28  1  0
 28 29  1  0
 28 30  1  0
 11 31  2  0
 31 32  1  0
 31 33  1  0
 33 34  1  0
 33 35  2  0
 35 36  1  0
 36 37  1  0
 37 38  2  0
 38 39  1  0
 38 40  1  0
 40 41  1  0
 40 42  2  0
 42 43  1  0
 42 44  1  0
 44 45  1  0
 44 46  2  0
 46 47  1  0
  4 48  1  0
 48 49  1  0
 48 50  2  0
 50 51  1  0
 50 52  1  0
 52 53  1  0
 52  2  2  0
 35  8  1  0
 46 37  1  0
 28 15  1  0
M  CHG  2   3  -1  49  -1
M  END
>  <UniqueID>  (64) 
59

>  <SMILES>  (64) 
O=C(/N=c1\[n-]cccc1[O-])c1cc(S(=O)(=O)N2CCCCC2)ccc1Sc1ccc(F)cc1

>  <Energy>  (64) 
63.426075386234835

>  <Genealogy>  (64) 
O=C(N=c1[n-]cccc1[O-])c1cc(S(=O)(=O)N2CCCCC2)ccc1Sc1ccc(F)cc1 (protonated)
O=C(/N=c1\[n-]cccc1[O-])c1cc(S(=O)(=O)N2CCCCC2)ccc1Sc1ccc(F)cc1 (cis-trans isomerization)
O=C(/N=c1\[n-]cccc1[O-])c1cc(S(=O)(=O)N2CCCCC2)ccc1Sc1ccc(F)cc1 (3D coordinates assigned)
O=C(/N=c1\[n-]cccc1[O-])c1cc(S(=O)(=O)N2CCCCC2)ccc1Sc1ccc(F)cc1 (nonaromatic ring conformer: 63.426075386234835 kcal/mol)

>  <smiles>  (64) 
O=C(N=c1[nH]cccc1O)c1cc(S(=O)(=O)N2CCCCC2)ccc1Sc1ccc(F)cc1

>  <score_type>  (64) 
oracle

>  <origin>  (64) 
adg

>  <m_score__min__energy>  (64) 
-15.31

>  <m_primary>  (64) 
energy

$$$$
64:0
     RDKit          3D

 49 52  0  0  0  0  0  0  0  0999 V2000
   59.7570   26.6610   47.6900 O   0  0  0  0  0  0  0  0  0  0  0  0
   58.6840   27.2760   47.4510 C   0  0  0  0  0  0  0  0  0  0  0  0
   58.5240   28.6360   47.8640 N   0  0  0  0  0  0  0  0  0  0  0  0
   59.5570   29.6230   47.7660 C   0  0  0  0  0  0  0  0  0  0  0  0
   60.1340   30.0140   46.5230 C   0  0  0  0  0  0  0  0  0  0  0  0
   59.8260   29.3560   45.2850 N   0  0  0  0  0  0  0  0  0  0  0  0
   58.5230   29.1420   44.7220 C   0  0  0  0  0  0  0  0  0  0  0  0
   58.3050   28.0430   44.1430 O   0  0  0  0  0  0  0  0  0  0  0  0
   57.4060   30.1790   44.7780 C   0  0  2  0  0  0  0  0  0  0  0  0
   56.0660   29.6830   44.1820 C   0  0  0  0  0  0  0  0  0  0  0  0
   55.1560   29.3410   45.1940 O   0  0  0  0  0  0  0  0  0  0  0  0
   57.8570   31.5190   44.1320 C   0  0  0  0  0  0  0  0  0  0  0  0
   58.2000   32.5970   45.1390 C   0  0  0  0  0  0  0  0  0  0  0  0
   57.8440   32.4520   46.4910 C   0  0  0  0  0  0  0  0  0  0  0  0
   58.1840   33.4380   47.4230 C   0  0  0  0  0  0  0  0  0  0  0  0
   58.8810   34.5780   47.0130 C   0  0  0  0  0  0  0  0  0  0  0  0
   59.2280   34.7380   45.6690 C   0  0  0  0  0  0  0  0  0  0  0  0
   58.8880   33.7550   44.7340 C   0  0  0  0  0  0  0  0  0  0  0  0
   61.0750   31.0670   46.4920 C   0  0  0  0  0  0  0  0  0  0  0  0
   61.5000   31.6880   47.6760 C   0  0  0  0  0  0  0  0  0  0  0  0
   60.9630   31.2380   48.8770 C   0  0  0  0  0  0  0  0  0  0  0  0
   60.0250   30.2360   48.9310 C   0  0  0  0  0  0  0  0  0  0  0  0
   59.6010   29.9950   50.3530 C   0  0  0  0  0  0  0  0  0  0  0  0
   60.3880   30.9330   51.0940 O   0  0  0  0  0  0  0  0  0  0  0  0
   61.1890   31.6700   50.2310 C   0  0  0  0  0  0  0  0  0  0  0  0
   61.9820   32.5750   50.5980 O   0  0  0  0  0  0  0  0  0  0  0  0
   57.5980   26.5940   46.7390 C   0  0  0  0  0  0  0  0  0  0  0  0
   57.7110   25.3890   46.0670 C   0  0  0  0  0  0  0  0  0  0  0  0
   56.4640   25.1210   45.5470 C   0  0  0  0  0  0  0  0  0  0  0  0
   55.6660   26.1760   45.9320 C   0  0  0  0  0  0  0  0  0  0  0  0
   54.3180   26.3040   45.6200 O   0  0  0  0  0  0  0  0  0  0  0  0
   56.3440   27.0850   46.6580 N   0  0  0  0  0  0  0  0  0  0  0  0
   57.2059   30.3552   45.8452 H   0  0  0  0  0  0  0  0  0  0  0  0
   55.6310   30.4818   43.5633 H   0  0  0  0  0  0  0  0  0  0  0  0
   56.2650   28.7872   43.5754 H   0  0  0  0  0  0  0  0  0  0  0  0
   55.1440   28.3490   45.2450 H   0  0  0  0  0  0  0  0  0  0  0  0
   58.7468   31.3247   43.5151 H   0  0  0  0  0  0  0  0  0  0  0  0
   57.0080   31.8915   43.5400 H   0  0  0  0  0  0  0  0  0  0  0  0
   57.2944   31.5571   46.8183 H   0  0  0  0  0  0  0  0  0  0  0  0
   57.9026   33.3161   48.4794 H   0  0  0  0  0  0  0  0  0  0  0  0
   59.1562   35.3488   47.7480 H   0  0  0  0  0  0  0  0  0  0  0  0
   59.7698   35.6391   45.3456 H   0  0  0  0  0  0  0  0  0  0  0  0
   59.1600   33.8882   43.6765 H   0  0  0  0  0  0  0  0  0  0  0  0
   61.4800   31.4046   45.5266 H   0  0  0  0  0  0  0  0  0  0  0  0
   62.2354   32.5057   47.6549 H   0  0  0  0  0  0  0  0  0  0  0  0
   58.5267   30.1924   50.4828 H   0  0  0  0  0  0  0  0  0  0  0  0
   59.7523   28.9548   50.6772 H   0  0  0  0  0  0  0  0  0  0  0  0
   58.6149   24.7700   45.9682 H   0  0  0  0  0  0  0  0  0  0  0  0
   56.1672   24.2468   44.9490 H   0  0  0  0  0  0  0  0  0  0  0  0
  1  2  2  0
  2  3  1  0
  3  4  1  0
  4  5  1  0
  5  6  1  0
  6  7  1  0
  7  8  2  0
  7  9  1  0
  9 10  1  0
 10 11  1  0
  9 12  1  0
 12 13  1  0
 13 14  2  0
 14 15  1  0
 15 16  2  0
 16 17  1  0
 17 18  2  0
  5 19  2  0
 19 20  1  0
 20 21  2  0
 21 22  1  0
 22 23  1  0
 23 24  1  0
 24 25  1  0
 25 26  2  0
  2 27  1  0
 27 28  2  0
 28 29  1  0
 29 30  2  0
 30 31  1  0
 30 32  1  0
 22  4  2  0
 32 27  1  0
 18 13  1  0
 25 21  1  0
  9 33  1  1
 10 34  1  0
 10 35  1  0
 11 36  1  0
 12 37  1  0
 12 38  1  0
 14 39  1  0
 15 40  1  0
 16 41  1  0
 17 42  1  0
 18 43  1  0
 19 44  1  0
 20 45  1  0
 23 46  1  0
 23 47  1  0
 28 48  1  0
 29 49  1  0
M  CHG  4   3  -1   6  -1  31  -1  32  -1
M  END
>  <UniqueID>  (65) 
60

>  <SMILES>  (65) 
O=C([N-]c1c([N-]C(=O)[C@H](CO)Cc2ccccc2)ccc2c1COC2=O)c1ccc([O-])[n-]1

>  <Energy>  (65) 
115.53488757039206

>  <Genealogy>  (65) 
O=C([N-]c1c([N-]C(=O)C(CO)Cc2ccccc2)ccc2c1COC2=O)c1ccc([O-])[n-]1 (protonated)
O=C([N-]c1c([N-]C(=O)[C@H](CO)Cc2ccccc2)ccc2c1COC2=O)c1ccc([O-])[n-]1 (chirality)
O=C([N-]c1c([N-]C(=O)[C@H](CO)Cc2ccccc2)ccc2c1COC2=O)c1ccc([O-])[n-]1 (3D coordinates assigned)
O=C([N-]c1c([N-]C(=O)[C@H](CO)Cc2ccccc2)ccc2c1COC2=O)c1ccc([O-])[n-]1 (nonaromatic ring conformer: 115.53488757039206 kcal/mol)

>  <smiles>  (65) 
O=C(Nc1c(NC(=O)C(CO)Cc2ccccc2)ccc2c1COC2=O)c1ccc(O)[nH]1

>  <score_type>  (65) 
oracle

>  <origin>  (65) 
adg

>  <m_score__min__energy>  (65) 
-15.92

>  <m_primary>  (65) 
energy

$$$$
65:0
     RDKit          3D

 45 48  0  0  0  0  0  0  0  0999 V2000
   57.6510   21.0390   43.4430 N   0  0  0  0  0  0  0  0  0  0  0  0
   56.6840   22.0850   43.3170 C   0  0  0  0  0  0  0  0  0  0  0  0
   55.8910   22.0660   42.3370 O   0  0  0  0  0  0  0  0  0  0  0  0
   56.5870   23.1760   44.3190 C   0  0  0  0  0  0  0  0  0  0  0  0
   55.3380   23.6330   44.7760 C   0  0  0  0  0  0  0  0  0  0  0  0
   55.2650   24.6520   45.7260 C   0  0  0  0  0  0  0  0  0  0  0  0
   56.4300   25.2280   46.2350 C   0  0  0  0  0  0  0  0  0  0  0  0
   57.6910   24.7840   45.8020 C   0  0  0  0  0  0  0  0  0  0  0  0
   58.9310   25.3940   46.3410 C   0  0  0  0  0  0  0  0  0  0  0  0
   60.0480   24.8580   46.0990 O   0  0  0  0  0  0  0  0  0  0  0  0
   58.8510   26.5900   47.1360 N   0  0  0  0  0  0  0  0  0  0  0  0
   58.3800   27.7470   46.7700 C   0  0  0  0  0  0  0  0  0  0  0  0
   58.9840   28.8770   47.2180 N   0  0  0  0  0  0  0  0  0  0  0  0
   58.5210   30.1010   46.8500 C   0  0  0  0  0  0  0  0  0  0  0  0
   59.1220   31.2740   47.3210 O   0  0  0  0  0  0  0  0  0  0  0  0
   59.1390   32.5010   46.6420 C   0  0  0  0  0  0  0  0  0  0  0  0
   60.2750   33.3140   46.7550 C   0  0  0  0  0  0  0  0  0  0  0  0
   60.3310   34.5490   46.1020 C   0  0  0  0  0  0  0  0  0  0  0  0
   59.2430   34.9870   45.3410 C   0  0  0  0  0  0  0  0  0  0  0  0
   58.0980   34.1930   45.2380 C   0  0  0  0  0  0  0  0  0  0  0  0
   58.0410   32.9570   45.8880 C   0  0  0  0  0  0  0  0  0  0  0  0
   57.4340   30.1900   46.0450 N   0  0  0  0  0  0  0  0  0  0  0  0
   56.8190   29.0640   45.5920 C   0  0  0  0  0  0  0  0  0  0  0  0
   55.7790   29.1360   44.8170 N   0  0  0  0  0  0  0  0  0  0  0  0
   55.6530   30.0980   43.7270 C   0  0  0  0  0  0  0  0  0  0  0  0
   56.9770   30.6930   43.2820 C   0  0  0  0  0  0  0  0  0  0  0  0
   56.3010   29.6190   42.4420 C   0  0  0  0  0  0  0  0  0  0  0  0
   57.2960   27.8470   45.9550 N   0  0  0  0  0  0  0  0  0  0  0  0
   57.7590   23.7520   44.8460 C   0  0  0  0  0  0  0  0  0  0  0  0
   58.2290   20.9240   44.3030 H   0  0  0  0  0  0  0  0  0  0  0  0
   57.7410   20.3200   42.6900 H   0  0  0  0  0  0  0  0  0  0  0  0
   54.4139   23.1847   44.3824 H   0  0  0  0  0  0  0  0  0  0  0  0
   54.2833   25.0037   46.0761 H   0  0  0  0  0  0  0  0  0  0  0  0
   56.3606   26.0346   46.9798 H   0  0  0  0  0  0  0  0  0  0  0  0
   61.1287   32.9780   47.3618 H   0  0  0  0  0  0  0  0  0  0  0  0
   61.2309   35.1759   46.1870 H   0  0  0  0  0  0  0  0  0  0  0  0
   59.2884   35.9566   44.8234 H   0  0  0  0  0  0  0  0  0  0  0  0
   57.2399   34.5412   44.6443 H   0  0  0  0  0  0  0  0  0  0  0  0
   57.1349   32.3382   45.8102 H   0  0  0  0  0  0  0  0  0  0  0  0
   54.6721   30.5108   44.0054 H   0  0  0  0  0  0  0  0  0  0  0  0
   57.0198   31.7303   42.9185 H   0  0  0  0  0  0  0  0  0  0  0  0
   57.9698   30.8132   43.7401 H   0  0  0  0  0  0  0  0  0  0  0  0
   55.8553   29.8797   41.4707 H   0  0  0  0  0  0  0  0  0  0  0  0
   56.6029   28.6404   42.0406 H   0  0  0  0  0  0  0  0  0  0  0  0
   58.7410   23.3910   44.5064 H   0  0  0  0  0  0  0  0  0  0  0  0
  1  2  1  0
  2  3  2  0
  2  4  1  0
  4  5  2  0
  5  6  1  0
  6  7  2  0
  7  8  1  0
  8  9  1  0
  9 10  2  0
  9 11  1  0
 11 12  2  3
 12 13  1  0
 13 14  1  0
 14 15  1  0
 15 16  1  0
 16 17  2  0
 17 18  1  0
 18 19  2  0
 19 20  1  0
 20 21  2  0
 14 22  2  0
 22 23  1  0
 23 24  2  3
 24 25  1  0
 25 26  1  0
 26 27  1  0
 23 28  1  0
  8 29  2  0
 29  4  1  0
 28 12  1  0
 21 16  1  0
 27 25  1  0
  1 30  1  0
  1 31  1  0
  5 32  1  0
  6 33  1  0
  7 34  1  0
 17 35  1  0
 18 36  1  0
 19 37  1  0
 20 38  1  0
 21 39  1  0
 25 40  1  0
 26 41  1  0
 26 42  1  0
 27 43  1  0
 27 44  1  0
 29 45  1  0
M  CHG  2  13  -1  28  -1
M  END
>  <UniqueID>  (66) 
61

>  <SMILES>  (66) 
NC(=O)c1cccc(C(=O)N=c2[n-]c(Oc3ccccc3)nc(=NC3CC3)[n-]2)c1

>  <Energy>  (66) 
323.05885046670636

>  <Genealogy>  (66) 
NC(=O)c1cccc(C(=O)N=c2[n-]c(Oc3ccccc3)nc(=NC3CC3)[n-]2)c1 (protonated)
NC(=O)c1cccc(C(=O)N=c2[n-]c(Oc3ccccc3)nc(=NC3CC3)[n-]2)c1 (3D coordinates assigned)
NC(=O)c1cccc(C(=O)N=c2[n-]c(Oc3ccccc3)nc(=NC3CC3)[n-]2)c1 (nonaromatic ring conformer: 323.05885046670636 kcal/mol)

>  <smiles>  (66) 
NC(=O)c1cccc(C(=O)N=c2[nH]c(Oc3ccccc3)nc(=NC3CC3)[nH]2)c1

>  <score_type>  (66) 
oracle

>  <origin>  (66) 
adg

>  <m_score__min__energy>  (66) 
-11.57

>  <m_primary>  (66) 
energy

$$$$
66:0
     RDKit          3D

 55 58  0  0  0  0  0  0  0  0999 V2000
   59.2530   35.1310   44.8730 C   0  0  0  0  0  0  0  0  0  0  0  0
   58.6500   33.7480   44.8780 C   0  0  0  0  0  0  0  0  0  0  0  0
   58.1960   33.2110   43.6640 C   0  0  0  0  0  0  0  0  0  0  0  0
   57.6500   31.9300   43.6090 C   0  0  0  0  0  0  0  0  0  0  0  0
   57.5230   31.1570   44.7720 C   0  0  0  0  0  0  0  0  0  0  0  0
   56.9720   29.7280   44.7100 C   0  0  0  0  0  0  0  0  0  0  0  0
   55.6020   29.6390   45.0140 O   0  0  0  0  0  0  0  0  0  0  0  0
   57.7900   28.6670   45.4620 C   0  0  0  0  0  0  0  0  0  0  0  0
   58.1130   27.9820   44.1390 C   0  0  0  0  0  0  0  0  0  0  0  0
   57.2830   29.0170   43.3890 C   0  0  0  0  0  0  0  0  0  0  0  0
   57.9860   31.6910   45.9870 C   0  0  0  0  0  0  0  0  0  0  0  0
   58.5780   32.9700   46.0630 C   0  0  0  0  0  0  0  0  0  0  0  0
   59.1330   33.5380   47.3750 C   0  0  0  0  0  0  0  0  0  0  0  0
   60.3770   32.8450   48.0470 C   0  0  2  0  0  0  0  0  0  0  0  0
   60.0910   31.3700   48.4460 C   0  0  0  0  0  0  0  0  0  0  0  0
   60.6100   30.2970   47.6840 C   0  0  0  0  0  0  0  0  0  0  0  0
   60.3460   28.9700   48.0320 C   0  0  0  0  0  0  0  0  0  0  0  0
   59.5280   28.6790   49.1210 C   0  0  0  0  0  0  0  0  0  0  0  0
   58.9460   29.7180   49.8530 C   0  0  0  0  0  0  0  0  0  0  0  0
   58.1020   29.4410   50.9260 O   0  0  0  0  0  0  0  0  0  0  0  0
   59.2070   31.0470   49.5050 C   0  0  0  0  0  0  0  0  0  0  0  0
   60.8130   33.7360   49.2860 C   0  0  0  0  0  0  0  0  0  0  0  0
   62.1800   34.4290   49.1350 C   0  0  0  0  0  0  0  0  0  0  0  0
   63.2810   33.4360   48.7530 C   0  0  0  0  0  0  0  0  0  0  0  0
   62.8580   32.5940   47.5840 C   0  0  0  0  0  0  0  0  0  0  0  0
   63.6240   31.7590   47.1260 O   0  0  0  0  0  0  0  0  0  0  0  0
   61.5030   32.8010   46.9660 C   0  0  0  0  0  0  0  0  0  0  0  0
   59.4009   35.4703   45.9089 H   0  0  0  0  0  0  0  0  0  0  0  0
   60.2222   35.1066   44.3532 H   0  0  0  0  0  0  0  0  0  0  0  0
   58.5756   35.8245   44.3532 H   0  0  0  0  0  0  0  0  0  0  0  0
   58.2720   33.8088   42.7437 H   0  0  0  0  0  0  0  0  0  0  0  0
   57.3155   31.5214   42.6441 H   0  0  0  0  0  0  0  0  0  0  0  0
   55.5210   29.7260   46.0010 H   0  0  0  0  0  0  0  0  0  0  0  0
   58.6697   29.0669   45.9876 H   0  0  0  0  0  0  0  0  0  0  0  0
   57.3395   28.0984   46.2889 H   0  0  0  0  0  0  0  0  0  0  0  0
   59.1818   27.9917   43.8791 H   0  0  0  0  0  0  0  0  0  0  0  0
   57.9100   26.9089   44.0074 H   0  0  0  0  0  0  0  0  0  0  0  0
   57.8605   29.6251   42.6772 H   0  0  0  0  0  0  0  0  0  0  0  0
   56.4672   28.6990   42.7232 H   0  0  0  0  0  0  0  0  0  0  0  0
   57.8840   31.0946   46.9056 H   0  0  0  0  0  0  0  0  0  0  0  0
   59.4144   34.5832   47.1791 H   0  0  0  0  0  0  0  0  0  0  0  0
   58.3196   33.3718   48.0967 H   0  0  0  0  0  0  0  0  0  0  0  0
   61.2321   30.5112   46.8024 H   0  0  0  0  0  0  0  0  0  0  0  0
   60.7861   28.1515   47.4434 H   0  0  0  0  0  0  0  0  0  0  0  0
   59.3402   27.6329   49.4047 H   0  0  0  0  0  0  0  0  0  0  0  0
   58.4590   29.3450   51.8700 H   0  0  0  0  0  0  0  0  0  0  0  0
   58.7165   31.8573   50.0643 H   0  0  0  0  0  0  0  0  0  0  0  0
   60.0495   34.5141   49.4333 H   0  0  0  0  0  0  0  0  0  0  0  0
   60.9063   33.0512   50.1418 H   0  0  0  0  0  0  0  0  0  0  0  0
   62.1053   35.1970   48.3510 H   0  0  0  0  0  0  0  0  0  0  0  0
   62.4450   34.8778   50.1037 H   0  0  0  0  0  0  0  0  0  0  0  0
   64.1915   33.9924   48.4859 H   0  0  0  0  0  0  0  0  0  0  0  0
   63.4735   32.7758   49.6115 H   0  0  0  0  0  0  0  0  0  0  0  0
   61.5045   33.7522   46.4136 H   0  0  0  0  0  0  0  0  0  0  0  0
   61.2998   31.9551   46.2928 H   0  0  0  0  0  0  0  0  0  0  0  0
  1  2  1  0
  2  3  2  0
  3  4  1  0
  4  5  2  0
  5  6  1  0
  6  7  1  0
  6  8  1  0
  8  9  1  0
  9 10  1  0
  5 11  1  0
 11 12  2  0
 12 13  1  0
 14 13  1  6
 14 15  1  0
 15 16  2  0
 16 17  1  0
 17 18  2  0
 18 19  1  0
 19 20  1  0
 19 21  2  0
 14 22  1  0
 22 23  1  0
 23 24  1  0
 24 25  1  0
 25 26  2  0
 25 27  1  0
 12  2  1  0
 27 14  1  0
 10  6  1  0
 21 15  1  0
  1 28  1  0
  1 29  1  0
  1 30  1  0
  3 31  1  0
  4 32  1  0
  7 33  1  0
  8 34  1  0
  8 35  1  0
  9 36  1  0
  9 37  1  0
 10 38  1  0
 10 39  1  0
 11 40  1  0
 13 41  1  0
 13 42  1  0
 16 43  1  0
 17 44  1  0
 18 45  1  0
 20 46  1  0
 21 47  1  0
 22 48  1  0
 22 49  1  0
 23 50  1  0
 23 51  1  0
 24 52  1  0
 24 53  1  0
 27 54  1  0
 27 55  1  0
M  END
>  <UniqueID>  (67) 
62

>  <SMILES>  (67) 
Cc1ccc(C2(O)CCC2)cc1C[C@]1(c2cccc(O)c2)CCCC(=O)C1

>  <Energy>  (67) 
136.47125172117742

>  <Genealogy>  (67) 
Cc1ccc(C2(O)CCC2)cc1C[C@]1(c2cccc(O)c2)CCCC(=O)C1 (chirality)
Cc1ccc(C2(O)CCC2)cc1C[C@]1(c2cccc(O)c2)CCCC(=O)C1 (3D coordinates assigned)
Cc1ccc(C2(O)CCC2)cc1C[C@]1(c2cccc(O)c2)CCCC(=O)C1 (nonaromatic ring conformer: 136.47125172117742 kcal/mol)

>  <smiles>  (67) 
Cc1ccc(C2(O)CCC2)cc1CC1(c2cccc(O)c2)CCCC(=O)C1

>  <score_type>  (67) 
oracle

>  <origin>  (67) 
adg

>  <m_score__min__energy>  (67) 
-10.4

>  <m_primary>  (67) 
energy

$$$$
67:0
     RDKit          3D

 54 57  0  0  0  0  0  0  0  0999 V2000
   60.0860   32.6780   51.2660 C   0  0  0  0  0  0  0  0  0  0  0  0
   60.2560   33.0030   49.8530 N   0  0  0  0  0  0  0  0  0  0  0  0
   59.2730   33.3190   48.9800 C   0  0  0  0  0  0  0  0  0  0  0  0
   59.8050   33.5500   47.7130 C   0  0  0  0  0  0  0  0  0  0  0  0
   59.0310   33.8480   46.4900 C   0  0  0  0  0  0  0  0  0  0  0  0
   58.6520   35.0310   46.2790 O   0  0  0  0  0  0  0  0  0  0  0  0
   58.7250   32.8000   45.4850 C   0  0  0  0  0  0  0  0  0  0  0  0
   58.1280   33.1270   44.2590 C   0  0  0  0  0  0  0  0  0  0  0  0
   57.8450   32.1170   43.3390 C   0  0  0  0  0  0  0  0  0  0  0  0
   58.1650   30.8250   43.6160 N   0  0  0  0  0  0  0  0  0  0  0  0
   58.7800   30.4690   44.7800 C   0  0  0  0  0  0  0  0  0  0  0  0
   59.0670   29.2110   44.9790 N   0  0  0  0  0  0  0  0  0  0  0  0
   59.9660   28.6820   45.9630 C   0  0  0  0  0  0  0  0  0  0  0  0
   60.5690   29.4770   46.7310 O   0  0  0  0  0  0  0  0  0  0  0  0
   60.0440   27.1970   46.2110 C   0  0  0  0  0  0  0  0  0  0  0  0
   58.6890   26.5380   46.1440 C   0  0  0  0  0  0  0  0  0  0  0  0
   58.5800   25.1600   45.8930 C   0  0  0  0  0  0  0  0  0  0  0  0
   57.3260   24.5470   45.8300 C   0  0  0  0  0  0  0  0  0  0  0  0
   56.1550   25.3040   46.0190 C   0  0  0  0  0  0  0  0  0  0  0  0
   54.8470   24.7220   45.9580 N   0  0  0  0  0  0  0  0  0  0  0  0
   54.4590   23.1580   45.3150 S   0  0  0  0  0  0  0  0  0  0  0  0
   55.0720   21.8830   46.3960 C   0  0  0  0  0  0  0  0  0  0  0  0
   55.1190   23.0120   43.9740 O   0  0  0  0  0  0  0  0  0  0  0  0
   52.9730   23.0290   45.1380 O   0  0  0  0  0  0  0  0  0  0  0  0
   56.2650   26.6740   46.2840 C   0  0  0  0  0  0  0  0  0  0  0  0
   57.5200   27.2880   46.3510 C   0  0  0  0  0  0  0  0  0  0  0  0
   59.0570   31.4620   45.7410 C   0  0  0  0  0  0  0  0  0  0  0  0
   61.1740   33.3530   47.8390 C   0  0  0  0  0  0  0  0  0  0  0  0
   62.2260   33.4640   46.9210 C   0  0  0  0  0  0  0  0  0  0  0  0
   62.0190   33.8390   45.6350 F   0  0  0  0  0  0  0  0  0  0  0  0
   63.5320   33.2040   47.3740 C   0  0  0  0  0  0  0  0  0  0  0  0
   63.7650   32.8500   48.7200 C   0  0  0  0  0  0  0  0  0  0  0  0
   62.6970   32.7580   49.6280 C   0  0  0  0  0  0  0  0  0  0  0  0
   61.4080   33.0210   49.1540 C   0  0  0  0  0  0  0  0  0  0  0  0
   60.5086   33.4859   51.8815 H   0  0  0  0  0  0  0  0  0  0  0  0
   59.0148   32.5679   51.4906 H   0  0  0  0  0  0  0  0  0  0  0  0
   60.6065   31.7353   51.4906 H   0  0  0  0  0  0  0  0  0  0  0  0
   58.2047   33.3844   49.2340 H   0  0  0  0  0  0  0  0  0  0  0  0
   57.8843   34.1736   44.0240 H   0  0  0  0  0  0  0  0  0  0  0  0
   57.3601   32.3675   42.3839 H   0  0  0  0  0  0  0  0  0  0  0  0
   57.9400   30.0930   42.9040 H   0  0  0  0  0  0  0  0  0  0  0  0
   60.6965   26.7442   45.4499 H   0  0  0  0  0  0  0  0  0  0  0  0
   60.4453   27.0436   47.2236 H   0  0  0  0  0  0  0  0  0  0  0  0
   59.4892   24.5588   45.7449 H   0  0  0  0  0  0  0  0  0  0  0  0
   57.2538   23.4674   45.6317 H   0  0  0  0  0  0  0  0  0  0  0  0
   54.9254   22.1879   47.4427 H   0  0  0  0  0  0  0  0  0  0  0  0
   54.5252   20.9475   46.2066 H   0  0  0  0  0  0  0  0  0  0  0  0
   56.1441   21.7258   46.2066 H   0  0  0  0  0  0  0  0  0  0  0  0
   55.3561   27.2733   46.4410 H   0  0  0  0  0  0  0  0  0  0  0  0
   57.5916   28.3642   46.5670 H   0  0  0  0  0  0  0  0  0  0  0  0
   59.5343   31.1870   46.6931 H   0  0  0  0  0  0  0  0  0  0  0  0
   64.3776   33.2771   46.6742 H   0  0  0  0  0  0  0  0  0  0  0  0
   64.7905   32.6446   49.0608 H   0  0  0  0  0  0  0  0  0  0  0  0
   62.8695   32.4872   50.6801 H   0  0  0  0  0  0  0  0  0  0  0  0
  1  2  1  0
  2  3  1  0
  3  4  2  0
  4  5  1  0
  5  6  2  0
  5  7  1  0
  7  8  1  0
  8  9  2  0
  9 10  1  0
 10 11  1  0
 11 12  2  3
 12 13  1  0
 13 14  2  0
 13 15  1  0
 15 16  1  0
 16 17  2  0
 17 18  1  0
 18 19  2  0
 19 20  1  0
 20 21  1  0
 21 22  1  0
 21 23  2  0
 21 24  2  0
 19 25  1  0
 25 26  2  0
 11 27  1  0
  4 28  1  0
 28 29  2  0
 29 30  1  0
 29 31  1  0
 31 32  2  0
 32 33  1  0
 33 34  2  0
 34  2  1  0
 27  7  2  0
 34 28  1  0
 26 16  1  0
  1 35  1  0
  1 36  1  0
  1 37  1  0
  3 38  1  0
  8 39  1  0
  9 40  1  0
 10 41  1  0
 15 42  1  0
 15 43  1  0
 17 44  1  0
 18 45  1  0
 22 46  1  0
 22 47  1  0
 22 48  1  0
 25 49  1  0
 26 50  1  0
 27 51  1  0
 31 52  1  0
 32 53  1  0
 33 54  1  0
M  CHG  1  20  -1
M  END
>  <UniqueID>  (68) 
63

>  <SMILES>  (68) 
Cn1cc(C(=O)c2cc[nH]c(=NC(=O)Cc3ccc([N-]S(C)(=O)=O)cc3)c2)c2c(F)cccc21

>  <Energy>  (68) 
105.60537623097363

>  <Genealogy>  (68) 
Cn1cc(C(=O)c2cc[nH]c(=NC(=O)Cc3ccc([N-]S(C)(=O)=O)cc3)c2)c2c(F)cccc21 (protonated)
Cn1cc(C(=O)c2cc[nH]c(=NC(=O)Cc3ccc([N-]S(C)(=O)=O)cc3)c2)c2c(F)cccc21 (3D coordinates assigned)
Cn1cc(C(=O)c2cc[nH]c(=NC(=O)Cc3ccc([N-]S(C)(=O)=O)cc3)c2)c2c(F)cccc21 (optimized conformer: 105.60537623097363 kcal/mol)

>  <smiles>  (68) 
Cn1cc(C(=O)c2cc[nH]c(=NC(=O)Cc3ccc(NS(C)(=O)=O)cc3)c2)c2c(F)cccc21

>  <score_type>  (68) 
oracle

>  <origin>  (68) 
adg

>  <m_score__min__energy>  (68) 
-11.27

>  <m_primary>  (68) 
energy

$$$$
68:0
     RDKit          3D

 47 49  0  0  0  0  0  0  0  0999 V2000
   55.1960   29.1080   44.8320 O   0  0  0  0  0  0  0  0  0  0  0  0
   56.2700   29.7640   44.8410 C   0  0  0  0  0  0  0  0  0  0  0  0
   56.2160   31.1710   44.5840 N   0  0  0  0  0  0  0  0  0  0  0  0
   57.5940   32.1790   44.2690 S   0  0  0  0  0  0  0  0  0  0  0  0
   58.8620   31.3770   44.3660 O   0  0  0  0  0  0  0  0  0  0  0  0
   57.4760   32.7820   42.8960 O   0  0  0  0  0  0  0  0  0  0  0  0
   57.6480   33.4890   45.4820 C   0  0  0  0  0  0  0  0  0  0  0  0
   58.9430   33.4310   46.2430 C   0  0  0  0  0  0  0  0  0  0  0  0
   60.1380   33.8550   45.6390 C   0  0  0  0  0  0  0  0  0  0  0  0
   61.3230   33.9090   46.3790 C   0  0  0  0  0  0  0  0  0  0  0  0
   61.3260   33.5650   47.7430 C   0  0  0  0  0  0  0  0  0  0  0  0
   62.5750   33.7040   48.5270 C   0  0  0  0  0  0  0  0  0  0  0  0
   63.5900   34.2060   47.9600 O   0  0  0  0  0  0  0  0  0  0  0  0
   62.5930   33.4240   49.9540 N   0  0  1  0  0  0  0  0  0  0  0  0
   62.5280   31.9840   50.2540 C   0  0  0  0  0  0  0  0  0  0  0  0
   63.9630   31.4680   50.3250 C   0  0  0  0  0  0  0  0  0  0  0  0
   64.8370   32.7120   50.4800 C   0  0  1  0  0  0  0  0  0  0  0  0
   65.6880   32.8650   49.3720 O   0  0  0  0  0  0  0  0  0  0  0  0
   63.8570   33.8810   50.5450 C   0  0  0  0  0  0  0  0  0  0  0  0
   60.1330   33.1190   48.3420 C   0  0  0  0  0  0  0  0  0  0  0  0
   58.9520   33.0520   47.5960 C   0  0  0  0  0  0  0  0  0  0  0  0
   57.5360   29.0600   45.1130 C   0  0  0  0  0  0  0  0  0  0  0  0
   58.0280   28.1150   44.1990 C   0  0  0  0  0  0  0  0  0  0  0  0
   59.2420   27.4640   44.4420 C   0  0  0  0  0  0  0  0  0  0  0  0
   59.9770   27.7610   45.5920 C   0  0  0  0  0  0  0  0  0  0  0  0
   59.5050   28.7170   46.4970 C   0  0  0  0  0  0  0  0  0  0  0  0
   58.2950   29.3760   46.2530 C   0  0  0  0  0  0  0  0  0  0  0  0
   57.8610   30.3140   47.1320 F   0  0  0  0  0  0  0  0  0  0  0  0
   57.5678   34.4607   44.9727 H   0  0  0  0  0  0  0  0  0  0  0  0
   56.8103   33.3660   46.1843 H   0  0  0  0  0  0  0  0  0  0  0  0
   60.1416   34.1461   44.5782 H   0  0  0  0  0  0  0  0  0  0  0  0
   62.2582   34.2222   45.8919 H   0  0  0  0  0  0  0  0  0  0  0  0
   61.7930   33.9070   50.4300 H   0  0  0  0  0  0  0  0  0  0  0  0
   62.0223   31.8230   51.2175 H   0  0  0  0  0  0  0  0  0  0  0  0
   61.9610   31.4503   49.4770 H   0  0  0  0  0  0  0  0  0  0  0  0
   64.0889   30.7996   51.1895 H   0  0  0  0  0  0  0  0  0  0  0  0
   64.2330   30.8885   49.4299 H   0  0  0  0  0  0  0  0  0  0  0  0
   65.4775   32.6483   51.3721 H   0  0  0  0  0  0  0  0  0  0  0  0
   65.1120   32.7870   48.5640 H   0  0  0  0  0  0  0  0  0  0  0  0
   63.6969   34.1803   51.5913 H   0  0  0  0  0  0  0  0  0  0  0  0
   64.2509   34.7504   49.9982 H   0  0  0  0  0  0  0  0  0  0  0  0
   60.1295   32.8220   49.4011 H   0  0  0  0  0  0  0  0  0  0  0  0
   58.0244   32.7004   48.0714 H   0  0  0  0  0  0  0  0  0  0  0  0
   57.4564   27.8854   43.2877 H   0  0  0  0  0  0  0  0  0  0  0  0
   59.6181   26.7176   43.7269 H   0  0  0  0  0  0  0  0  0  0  0  0
   60.9276   27.2426   45.7859 H   0  0  0  0  0  0  0  0  0  0  0  0
   60.0855   28.9511   47.4015 H   0  0  0  0  0  0  0  0  0  0  0  0
  1  2  2  0
  2  3  1  0
  3  4  1  0
  4  5  2  0
  4  6  2  0
  4  7  1  0
  7  8  1  0
  8  9  2  0
  9 10  1  0
 10 11  2  0
 11 12  1  0
 12 13  2  0
 12 14  1  0
 14 15  1  0
 15 16  1  0
 16 17  1  0
 17 18  1  0
 17 19  1  0
 11 20  1  0
 20 21  2  0
  2 22  1  0
 22 23  2  0
 23 24  1  0
 24 25  2  0
 25 26  1  0
 26 27  2  0
 27 28  1  0
 21  8  1  0
 27 22  1  0
 19 14  1  0
  7 29  1  0
  7 30  1  0
  9 31  1  0
 10 32  1  0
 14 33  1  1
 15 34  1  0
 15 35  1  0
 16 36  1  0
 16 37  1  0
 17 38  1  1
 18 39  1  0
 19 40  1  0
 19 41  1  0
 20 42  1  0
 21 43  1  0
 23 44  1  0
 24 45  1  0
 25 46  1  0
 26 47  1  0
M  CHG  2   3  -1  14   1
M  END
>  <UniqueID>  (69) 
64

>  <SMILES>  (69) 
O=C([N-]S(=O)(=O)Cc1ccc(C(=O)[N@H+]2CC[C@@H](O)C2)cc1)c1ccccc1F

>  <Energy>  (69) 
63.51507942063249

>  <Genealogy>  (69) 
O=C([N-]S(=O)(=O)Cc1ccc(C(=O)[NH+]2CCC(O)C2)cc1)c1ccccc1F (protonated)
O=C([N-]S(=O)(=O)Cc1ccc(C(=O)[N@H+]2CC[C@@H](O)C2)cc1)c1ccccc1F (chirality)
O=C([N-]S(=O)(=O)Cc1ccc(C(=O)[N@H+]2CC[C@@H](O)C2)cc1)c1ccccc1F (3D coordinates assigned)
O=C([N-]S(=O)(=O)Cc1ccc(C(=O)[N@H+]2CC[C@@H](O)C2)cc1)c1ccccc1F (nonaromatic ring conformer: 63.51507942063249 kcal/mol)

>  <smiles>  (69) 
O=C(NS(=O)(=O)Cc1ccc(C(=O)N2CCC(O)C2)cc1)c1ccccc1F

>  <score_type>  (69) 
oracle

>  <origin>  (69) 
adg

>  <m_score__min__energy>  (69) 
-9.2799999999999994

>  <m_primary>  (69) 
energy

$$$$
69:0
     RDKit          3D

 60 62  0  0  0  0  0  0  0  0999 V2000
   55.6280   29.5740   44.9180 O   0  0  0  0  0  0  0  0  0  0  0  0
   56.8330   29.7660   44.9460 C   0  0  0  0  0  0  0  0  0  0  0  0
   57.7160   28.9190   45.8200 C   0  0  1  0  0  0  0  0  0  0  0  0
   57.9390   27.5230   45.1940 C   0  0  0  0  0  0  0  0  0  0  0  0
   57.5210   26.3880   46.0920 C   0  0  0  0  0  0  0  0  0  0  0  0
   58.3420   25.4930   46.7470 C   0  0  0  0  0  0  0  0  0  0  0  0
   57.5010   24.6440   47.4430 C   0  0  0  0  0  0  0  0  0  0  0  0
   56.2040   24.9640   47.2410 N   0  0  0  0  0  0  0  0  0  0  0  0
   56.2300   26.0280   46.4160 C   0  0  0  0  0  0  0  0  0  0  0  0
   55.0830   26.6710   45.9560 O   0  0  0  0  0  0  0  0  0  0  0  0
   58.9740   29.6290   46.0510 N   0  0  0  0  0  0  0  0  0  0  0  0
   59.7750   29.5190   47.2300 C   0  0  0  0  0  0  0  0  0  0  0  0
   60.2780   28.4100   47.5620 O   0  0  0  0  0  0  0  0  0  0  0  0
   60.0120   30.7470   48.0650 C   0  0  1  0  0  0  0  0  0  0  0  0
   59.9260   30.4570   49.5780 C   0  0  0  0  0  0  0  0  0  0  0  0
   58.5940   30.8550   50.2710 C   0  0  0  0  0  0  0  0  0  0  0  0
   58.3290   29.9210   51.4720 C   0  0  0  0  0  0  0  0  0  0  0  0
   56.9620   30.1980   52.1290 C   0  0  0  0  0  0  0  0  0  0  0  0
   56.5280   31.6750   52.0440 C   0  0  0  0  0  0  0  0  0  0  0  0
   57.7350   32.6110   51.9800 C   0  0  0  0  0  0  0  0  0  0  0  0
   58.5850   32.3450   50.7220 C   0  0  0  0  0  0  0  0  0  0  0  0
   61.2850   31.3860   47.7320 N   0  0  0  0  0  0  0  0  0  0  0  0
   61.4260   32.7940   47.5230 C   0  0  0  0  0  0  0  0  0  0  0  0
   61.8690   33.2310   46.4270 O   0  0  0  0  0  0  0  0  0  0  0  0
   61.0400   33.6740   48.5370 O   0  0  0  0  0  0  0  0  0  0  0  0
   59.7620   34.3070   48.5770 C   0  0  0  0  0  0  0  0  0  0  0  0
   59.0450   34.1550   47.2620 C   0  0  0  0  0  0  0  0  0  0  0  0
   59.4500   34.9000   46.1390 C   0  0  0  0  0  0  0  0  0  0  0  0
   58.8120   34.7190   44.9080 C   0  0  0  0  0  0  0  0  0  0  0  0
   57.7650   33.7960   44.7910 C   0  0  0  0  0  0  0  0  0  0  0  0
   57.3560   33.0540   45.9030 C   0  0  0  0  0  0  0  0  0  0  0  0
   57.9950   33.2290   47.1350 C   0  0  0  0  0  0  0  0  0  0  0  0
   57.2750   30.5622   44.3291 H   0  0  0  0  0  0  0  0  0  0  0  0
   57.2274   28.7482   46.7906 H   0  0  0  0  0  0  0  0  0  0  0  0
   57.3573   27.4622   44.2624 H   0  0  0  0  0  0  0  0  0  0  0  0
   59.0197   27.4158   45.0188 H   0  0  0  0  0  0  0  0  0  0  0  0
   59.4412   25.4613   46.7209 H   0  0  0  0  0  0  0  0  0  0  0  0
   57.8439   23.8148   48.0792 H   0  0  0  0  0  0  0  0  0  0  0  0
   55.1500   27.5360   45.4360 H   0  0  0  0  0  0  0  0  0  0  0  0
   59.2005   31.4483   47.8208 H   0  0  0  0  0  0  0  0  0  0  0  0
   60.0713   29.3763   49.7227 H   0  0  0  0  0  0  0  0  0  0  0  0
   60.7023   31.0810   50.0450 H   0  0  0  0  0  0  0  0  0  0  0  0
   57.7862   30.7409   49.5331 H   0  0  0  0  0  0  0  0  0  0  0  0
   58.3501   28.8783   51.1223 H   0  0  0  0  0  0  0  0  0  0  0  0
   59.1106   30.1046   52.2239 H   0  0  0  0  0  0  0  0  0  0  0  0
   56.2023   29.5821   51.6255 H   0  0  0  0  0  0  0  0  0  0  0  0
   57.0592   29.9497   53.1962 H   0  0  0  0  0  0  0  0  0  0  0  0
   55.9175   31.8167   51.1400 H   0  0  0  0  0  0  0  0  0  0  0  0
   55.9508   31.9176   52.9484 H   0  0  0  0  0  0  0  0  0  0  0  0
   57.3802   33.6520   51.9590 H   0  0  0  0  0  0  0  0  0  0  0  0
   58.3612   32.4306   52.8662 H   0  0  0  0  0  0  0  0  0  0  0  0
   58.1845   32.9539   49.8981 H   0  0  0  0  0  0  0  0  0  0  0  0
   59.6224   32.6083   50.9757 H   0  0  0  0  0  0  0  0  0  0  0  0
   59.1571   33.8468   49.3722 H   0  0  0  0  0  0  0  0  0  0  0  0
   59.9072   35.3791   48.7759 H   0  0  0  0  0  0  0  0  0  0  0  0
   60.2707   35.6267   46.2298 H   0  0  0  0  0  0  0  0  0  0  0  0
   59.1323   35.3014   44.0316 H   0  0  0  0  0  0  0  0  0  0  0  0
   57.2635   33.6547   43.8222 H   0  0  0  0  0  0  0  0  0  0  0  0
   56.5313   32.3322   45.8091 H   0  0  0  0  0  0  0  0  0  0  0  0
   57.6748   32.6401   48.0072 H   0  0  0  0  0  0  0  0  0  0  0  0
  1  2  2  0
  2  3  1  0
  3  4  1  0
  4  5  1  0
  5  6  1  0
  6  7  2  0
  7  8  1  0
  8  9  1  0
  9 10  1  0
  3 11  1  0
 11 12  1  0
 12 13  2  0
 12 14  1  0
 14 15  1  0
 15 16  1  0
 16 17  1  0
 17 18  1  0
 18 19  1  0
 19 20  1  0
 20 21  1  0
 14 22  1  0
 22 23  1  0
 23 24  2  0
 23 25  1  0
 25 26  1  0
 26 27  1  0
 27 28  2  0
 28 29  1  0
 29 30  2  0
 30 31  1  0
 31 32  2  0
  9  5  2  0
 21 16  1  0
 32 27  1  0
  2 33  1  0
  3 34  1  1
  4 35  1  0
  4 36  1  0
  6 37  1  0
  7 38  1  0
 10 39  1  0
 14 40  1  6
 15 41  1  0
 15 42  1  0
 16 43  1  0
 17 44  1  0
 17 45  1  0
 18 46  1  0
 18 47  1  0
 19 48  1  0
 19 49  1  0
 20 50  1  0
 20 51  1  0
 21 52  1  0
 21 53  1  0
 26 54  1  0
 26 55  1  0
 28 56  1  0
 29 57  1  0
 30 58  1  0
 31 59  1  0
 32 60  1  0
M  CHG  3   8  -1  11  -1  22  -1
M  END
>  <UniqueID>  (70) 
65

>  <SMILES>  (70) 
O=C[C@@H](Cc1cc[n-]c1O)[N-]C(=O)[C@@H](CC1CCCCC1)[N-]C(=O)OCc1ccccc1

>  <Energy>  (70) 
77.52533811690448

>  <Genealogy>  (70) 
O=CC(Cc1cc[n-]c1O)[N-]C(=O)C(CC1CCCCC1)[N-]C(=O)OCc1ccccc1 (protonated)
O=C[C@@H](Cc1cc[n-]c1O)[N-]C(=O)[C@@H](CC1CCCCC1)[N-]C(=O)OCc1ccccc1 (chirality)
O=C[C@@H](Cc1cc[n-]c1O)[N-]C(=O)[C@@H](CC1CCCCC1)[N-]C(=O)OCc1ccccc1 (3D coordinates assigned)
O=C[C@@H](Cc1cc[n-]c1O)[N-]C(=O)[C@@H](CC1CCCCC1)[N-]C(=O)OCc1ccccc1 (nonaromatic ring conformer: 77.52533811690448 kcal/mol)

>  <smiles>  (70) 
O=CC(Cc1cc[nH]c1O)NC(=O)C(CC1CCCCC1)NC(=O)OCc1ccccc1

>  <score_type>  (70) 
oracle

>  <origin>  (70) 
adg

>  <m_score__min__energy>  (70) 
-14.44

>  <m_primary>  (70) 
energy

$$$$
70:0
     RDKit          3D

 53 57  0  0  0  0  0  0  0  0999 V2000
   62.5340   33.5060   51.0910 C   0  0  0  0  0  0  0  0  0  0  0  0
   62.9200   32.0860   51.1440 N   0  0  0  0  0  0  0  0  0  0  0  0
   62.1150   31.3230   52.0780 C   0  0  0  0  0  0  0  0  0  0  0  0
   62.0920   29.9360   51.4910 C   0  0  0  0  0  0  0  0  0  0  0  0
   62.2260   30.0750   50.1000 O   0  0  0  0  0  0  0  0  0  0  0  0
   62.8610   31.3190   49.8800 C   0  0  1  0  0  0  0  0  0  0  0  0
   62.2390   32.0540   48.6900 C   0  0  0  0  0  0  0  0  0  0  0  0
   60.8880   31.7850   48.3910 C   0  0  0  0  0  0  0  0  0  0  0  0
   60.2600   32.3550   47.2690 C   0  0  0  0  0  0  0  0  0  0  0  0
   58.7990   32.1160   46.9600 C   0  0  0  0  0  0  0  0  0  0  0  0
   58.5350   31.9040   45.5250 N   0  0  0  0  0  0  0  0  0  0  0  0
   58.1500   32.8570   44.6280 C   0  0  0  0  0  0  0  0  0  0  0  0
   58.0960   34.3170   44.8540 C   0  0  0  0  0  0  0  0  0  0  0  0
   59.1280   34.9770   45.1400 O   0  0  0  0  0  0  0  0  0  0  0  0
   56.8680   34.9710   44.7960 O   0  0  0  0  0  0  0  0  0  0  0  0
   57.6300   32.2700   43.4880 C   0  0  0  0  0  0  0  0  0  0  0  0
   57.6600   30.9110   43.7080 C   0  0  0  0  0  0  0  0  0  0  0  0
   58.2460   30.7050   44.9410 C   0  0  0  0  0  0  0  0  0  0  0  0
   58.1340   29.3840   45.6250 C   0  0  0  0  0  0  0  0  0  0  0  0
   56.9240   28.6780   45.4440 C   0  0  0  0  0  0  0  0  0  0  0  0
   56.8010   27.4070   45.9980 C   0  0  0  0  0  0  0  0  0  0  0  0
   55.7200   26.7660   45.9070 O   0  0  0  0  0  0  0  0  0  0  0  0
   57.8550   26.8470   46.6320 N   0  0  0  0  0  0  0  0  0  0  0  0
   59.0520   27.4780   46.7120 C   0  0  0  0  0  0  0  0  0  0  0  0
   60.0300   26.8540   47.2040 O   0  0  0  0  0  0  0  0  0  0  0  0
   59.2130   28.7440   46.2040 N   0  0  0  0  0  0  0  0  0  0  0  0
   60.5860   29.2640   46.0610 C   0  0  0  0  0  0  0  0  0  0  0  0
   55.5970   29.3390   44.3910 S   0  0  0  0  0  0  0  0  0  0  0  0
   56.7430   29.9080   43.0820 C   0  0  0  0  0  0  0  0  0  0  0  0
   60.9940   33.2130   46.4400 C   0  0  0  0  0  0  0  0  0  0  0  0
   62.3320   33.4770   46.7120 C   0  0  0  0  0  0  0  0  0  0  0  0
   62.9660   32.9200   47.8250 C   0  0  0  0  0  0  0  0  0  0  0  0
   64.3070   33.2550   48.0200 O   0  0  0  0  0  0  0  0  0  0  0  0
   62.4281   33.8956   52.1142 H   0  0  0  0  0  0  0  0  0  0  0  0
   63.3095   34.0772   50.5596 H   0  0  0  0  0  0  0  0  0  0  0  0
   61.5761   33.6060   50.5596 H   0  0  0  0  0  0  0  0  0  0  0  0
   62.5754   31.3172   53.0770 H   0  0  0  0  0  0  0  0  0  0  0  0
   61.1072   31.7435   52.2101 H   0  0  0  0  0  0  0  0  0  0  0  0
   62.9260   29.3420   51.8931 H   0  0  0  0  0  0  0  0  0  0  0  0
   61.1550   29.4186   51.7447 H   0  0  0  0  0  0  0  0  0  0  0  0
   63.9087   31.1665   49.5814 H   0  0  0  0  0  0  0  0  0  0  0  0
   60.3134   31.1159   49.0483 H   0  0  0  0  0  0  0  0  0  0  0  0
   58.4664   31.2245   47.5119 H   0  0  0  0  0  0  0  0  0  0  0  0
   58.2492   33.0192   47.2631 H   0  0  0  0  0  0  0  0  0  0  0  0
   57.2658   32.7854   42.5870 H   0  0  0  0  0  0  0  0  0  0  0  0
   61.0213   29.4289   47.0577 H   0  0  0  0  0  0  0  0  0  0  0  0
   61.1984   28.5355   45.5094 H   0  0  0  0  0  0  0  0  0  0  0  0
   60.5622   30.2154   45.5094 H   0  0  0  0  0  0  0  0  0  0  0  0
   57.3225   29.0583   42.6919 H   0  0  0  0  0  0  0  0  0  0  0  0
   56.1893   30.3532   42.2423 H   0  0  0  0  0  0  0  0  0  0  0  0
   60.5098   33.6801   45.5698 H   0  0  0  0  0  0  0  0  0  0  0  0
   62.9007   34.1357   46.0392 H   0  0  0  0  0  0  0  0  0  0  0  0
   65.0780   32.8780   47.4890 H   0  0  0  0  0  0  0  0  0  0  0  0
  1  2  1  0
  2  3  1  0
  3  4  1  0
  4  5  1  0
  5  6  1  0
  6  7  1  0
  7  8  2  0
  8  9  1  0
  9 10  1  0
 10 11  1  0
 11 12  1  0
 12 13  1  0
 13 14  2  0
 13 15  1  0
 12 16  2  0
 16 17  1  0
 17 18  2  0
 18 19  1  0
 19 20  2  0
 20 21  1  0
 21 22  2  0
 21 23  1  0
 23 24  1  0
 24 25  2  0
 24 26  1  0
 26 27  1  0
 20 28  1  0
 28 29  1  0
  9 30  2  0
 30 31  1  0
 31 32  2  0
 32 33  1  0
  6  2  1  0
 32  7  1  0
 18 11  1  0
 26 19  1  0
 29 17  1  0
  1 34  1  0
  1 35  1  0
  1 36  1  0
  3 37  1  0
  3 38  1  0
  4 39  1  0
  4 40  1  0
  6 41  1  6
  8 42  1  0
 10 43  1  0
 10 44  1  0
 16 45  1  0
 27 46  1  0
 27 47  1  0
 27 48  1  0
 29 49  1  0
 29 50  1  0
 30 51  1  0
 31 52  1  0
 33 53  1  0
M  CHG  2  15  -1  23  -1
M  END
>  <UniqueID>  (71) 
66

>  <SMILES>  (71) 
CN1CCO[C@H]1c1cc(Cn2c(C(=O)[O-])cc3c2-c2c(c(=O)[n-]c(=O)n2C)SC3)ccc1O

>  <Energy>  (71) 
124.82006921392876

>  <Genealogy>  (71) 
CN1CCOC1c1cc(Cn2c(C(=O)[O-])cc3c2-c2c(c(=O)[n-]c(=O)n2C)SC3)ccc1O (protonated)
CN1CCO[C@H]1c1cc(Cn2c(C(=O)[O-])cc3c2-c2c(c(=O)[n-]c(=O)n2C)SC3)ccc1O (chirality)
CN1CCO[C@H]1c1cc(Cn2c(C(=O)[O-])cc3c2-c2c(c(=O)[n-]c(=O)n2C)SC3)ccc1O (3D coordinates assigned)
CN1CCO[C@H]1c1cc(Cn2c(C(=O)[O-])cc3c2-c2c(c(=O)[n-]c(=O)n2C)SC3)ccc1O (nonaromatic ring conformer: 124.82006921392876 kcal/mol)

>  <smiles>  (71) 
CN1CCOC1c1cc(Cn2c(C(=O)O)cc3c2-c2c(c(=O)[nH]c(=O)n2C)SC3)ccc1O

>  <score_type>  (71) 
oracle

>  <origin>  (71) 
adg

>  <m_score__min__energy>  (71) 
-11.26

>  <m_primary>  (71) 
energy

$$$$
71:0
     RDKit          3D

 52 55  0  0  0  0  0  0  0  0999 V2000
   56.8935   33.7569   45.4544 H   0  0  0  0  0  0  0  0  0  0  0  0
   57.8480   33.5810   45.9720 C   0  0  0  0  0  0  0  0  0  0  0  0
   58.5610   34.5690   46.3860 N   0  0  0  0  0  0  0  0  0  0  0  0
   59.8490   34.3270   47.0050 C   0  0  0  0  0  0  0  0  0  0  0  0
   60.5792   34.0568   46.2279 H   0  0  0  0  0  0  0  0  0  0  0  0
   60.1709   35.2407   47.5261 H   0  0  0  0  0  0  0  0  0  0  0  0
   59.7480   33.1750   48.0310 C   0  0  0  0  0  0  0  0  0  0  0  0
   60.7548   32.7600   48.1865 H   0  0  0  0  0  0  0  0  0  0  0  0
   59.3216   33.6019   48.9507 H   0  0  0  0  0  0  0  0  0  0  0  0
   58.8380   32.0610   47.6040 N   0  0  2  0  0  0  0  0  0  0  0  0
   57.9830   32.1330   48.2080 H   0  0  0  0  0  0  0  0  0  0  0  0
   59.3980   30.7140   47.8870 C   0  0  0  0  0  0  0  0  0  0  0  0
   60.4751   30.7338   47.6645 H   0  0  0  0  0  0  0  0  0  0  0  0
   58.8471   30.0018   47.2551 H   0  0  0  0  0  0  0  0  0  0  0  0
   59.2170   30.2600   49.3150 C   0  0  0  0  0  0  0  0  0  0  0  0
   58.1500   30.9320   50.4270 S   0  0  0  0  0  0  0  0  0  0  0  0
   58.5400   29.9100   51.7080 C   0  0  0  0  0  0  0  0  0  0  0  0
   57.8680   29.9690   53.0560 C   0  0  0  0  0  0  0  0  0  0  0  0
   58.1731   30.8956   53.5642 H   0  0  0  0  0  0  0  0  0  0  0  0
   58.1758   29.0807   53.6271 H   0  0  0  0  0  0  0  0  0  0  0  0
   56.3970   29.9500   52.9440 N   0  0  0  0  0  0  0  0  0  0  0  0
   55.6040   28.8610   53.1030 C   0  0  0  0  0  0  0  0  0  0  0  0
   56.0710   27.5030   53.5380 C   0  0  0  0  0  0  0  0  0  0  0  0
   56.0873   27.4555   54.6368 H   0  0  0  0  0  0  0  0  0  0  0  0
   55.3847   26.7369   53.1480 H   0  0  0  0  0  0  0  0  0  0  0  0
   57.0833   27.3211   53.1480 H   0  0  0  0  0  0  0  0  0  0  0  0
   54.2820   29.1930   52.8970 C   0  0  0  0  0  0  0  0  0  0  0  0
   53.4238   28.5053   52.9219 H   0  0  0  0  0  0  0  0  0  0  0  0
   54.2380   30.5540   52.6530 C   0  0  0  0  0  0  0  0  0  0  0  0
   53.0750   31.2200   52.4980 C   0  0  0  0  0  0  0  0  0  0  0  0
   52.7503   31.8581   53.3331 H   0  0  0  0  0  0  0  0  0  0  0  0
   52.2010   31.1720   51.3160 C   0  0  0  0  0  0  0  0  0  0  0  0
   52.2760   30.2500   50.3400 N   0  0  0  0  0  0  0  0  0  0  0  0
   51.4010   30.7000   49.4160 C   0  0  0  0  0  0  0  0  0  0  0  0
   51.1720   30.0830   48.3440 O   0  0  0  0  0  0  0  0  0  0  0  0
   50.7970   31.8660   49.7280 N   0  0  0  0  0  0  0  0  0  0  0  0
   51.3290   32.1600   50.9250 C   0  0  0  0  0  0  0  0  0  0  0  0
   51.0310   33.3130   51.6400 O   0  0  0  0  0  0  0  0  0  0  0  0
   55.5710   30.9980   52.6610 C   0  0  0  0  0  0  0  0  0  0  0  0
   56.0100   32.2250   52.3470 C   0  0  0  0  0  0  0  0  0  0  0  0
   57.0853   32.4526   52.3917 H   0  0  0  0  0  0  0  0  0  0  0  0
   55.2950   33.0043   52.0446 H   0  0  0  0  0  0  0  0  0  0  0  0
   59.5620   29.0530   51.2880 C   0  0  0  0  0  0  0  0  0  0  0  0
   60.2080   28.0150   52.1520 C   0  0  0  0  0  0  0  0  0  0  0  0
   60.0500   28.2689   53.2106 H   0  0  0  0  0  0  0  0  0  0  0  0
   59.7618   27.0321   51.9401 H   0  0  0  0  0  0  0  0  0  0  0  0
   61.2869   27.9813   51.9401 H   0  0  0  0  0  0  0  0  0  0  0  0
   59.9390   29.2560   49.9510 C   0  0  0  0  0  0  0  0  0  0  0  0
   60.7304   28.6760   49.4537 H   0  0  0  0  0  0  0  0  0  0  0  0
   58.3440   32.1820   46.2090 C   0  0  0  0  0  0  0  0  0  0  0  0
   59.1634   31.9602   45.5094 H   0  0  0  0  0  0  0  0  0  0  0  0
   57.5214   31.4695   46.0485 H   0  0  0  0  0  0  0  0  0  0  0  0
  1  2  1  0
  2  3  2  0
  3  4  1  0
  4  5  1  0
  4  6  1  0
  4  7  1  0
  7  8  1  0
  7  9  1  0
  7 10  1  0
 10 11  1  1
 10 12  1  0
 12 13  1  0
 12 14  1  0
 12 15  1  0
 15 16  1  0
 16 17  1  0
 17 18  1  0
 18 19  1  0
 18 20  1  0
 18 21  1  0
 21 22  1  0
 22 23  1  0
 23 24  1  0
 23 25  1  0
 23 26  1  0
 22 27  2  0
 27 28  1  0
 27 29  1  0
 29 30  2  0
 30 31  1  0
 30 32  1  0
 32 33  1  0
 33 34  1  0
 34 35  2  0
 34 36  1  0
 36 37  1  0
 37 38  1  0
 29 39  1  0
 39 40  2  0
 40 41  1  0
 40 42  1  0
 17 43  2  0
 43 44  1  0
 44 45  1  0
 44 46  1  0
 44 47  1  0
 43 48  1  0
 48 49  1  0
 10 50  1  0
 50 51  1  0
 50 52  1  0
 50  2  1  0
 48 15  2  0
 39 21  1  0
 37 32  2  0
M  CHG  4  10   1  33  -1  36  -1  38  -1
M  END
>  <UniqueID>  (72) 
67

>  <SMILES>  (72) 
C=c1/c(=C\c2[n-]c(=O)[n-]c2[O-])cc(C)n1Cc1sc(C[N@@H+]2CC=NCC2)cc1C

>  <Energy>  (72) 
158.5486287256236

>  <Genealogy>  (72) 
C=c1c(=Cc2[n-]c(=O)[n-]c2[O-])cc(C)n1Cc1sc(C[NH+]2CC=NCC2)cc1C (protonated)
C=c1c(=Cc2[n-]c(=O)[n-]c2[O-])cc(C)n1Cc1sc(C[N@@H+]2CC=NCC2)cc1C (chirality)
C=c1/c(=C\c2[n-]c(=O)[n-]c2[O-])cc(C)n1Cc1sc(C[N@@H+]2CC=NCC2)cc1C (cis-trans isomerization)
C=c1/c(=C\c2[n-]c(=O)[n-]c2[O-])cc(C)n1Cc1sc(C[N@@H+]2CC=NCC2)cc1C (3D coordinates assigned)
C=c1/c(=C\c2[n-]c(=O)[n-]c2[O-])cc(C)n1Cc1sc(C[N@@H+]2CC=NCC2)cc1C (nonaromatic ring conformer: 158.5486287256236 kcal/mol)

>  <smiles>  (72) 
C=c1c(=Cc2[nH]c(=O)[nH]c2O)cc(C)n1Cc1sc(CN2CC=NCC2)cc1C

>  <score_type>  (72) 
oracle

>  <origin>  (72) 
adg

>  <m_score__min__energy>  (72) 
-15.23

>  <m_primary>  (72) 
energy

$$$$
72:0
     RDKit          3D

 51 54  0  0  0  0  0  0  0  0999 V2000
   65.4991   32.9249   49.0554 H   0  0  0  0  0  0  0  0  0  0  0  0
   64.4170   33.0980   48.9600 C   0  0  0  0  0  0  0  0  0  0  0  0
   63.7150   33.7210   49.9940 C   0  0  0  0  0  0  0  0  0  0  0  0
   64.2431   34.0267   50.9093 H   0  0  0  0  0  0  0  0  0  0  0  0
   62.3440   33.9570   49.8690 C   0  0  0  0  0  0  0  0  0  0  0  0
   61.7933   34.4324   50.6940 H   0  0  0  0  0  0  0  0  0  0  0  0
   61.6640   33.5900   48.6940 C   0  0  0  0  0  0  0  0  0  0  0  0
   60.1840   33.8600   48.5600 C   0  0  0  0  0  0  0  0  0  0  0  0
   59.8487   34.4037   49.4556 H   0  0  0  0  0  0  0  0  0  0  0  0
   59.6902   32.8834   48.4491 H   0  0  0  0  0  0  0  0  0  0  0  0
   59.8110   34.6930   47.3190 C   0  0  0  0  0  0  0  0  0  0  0  0
   60.4392   35.5959   47.3073 H   0  0  0  0  0  0  0  0  0  0  0  0
   58.7385   34.9232   47.4016 H   0  0  0  0  0  0  0  0  0  0  0  0
   60.0050   33.9510   45.9830 C   0  0  0  0  0  0  0  0  0  0  0  0
   60.8284   33.2298   46.0918 H   0  0  0  0  0  0  0  0  0  0  0  0
   60.2342   34.6957   45.2066 H   0  0  0  0  0  0  0  0  0  0  0  0
   58.7920   33.2310   45.5830 N   0  0  0  0  0  0  0  0  0  0  0  0
   57.6480   33.7980   45.1160 C   0  0  0  0  0  0  0  0  0  0  0  0
   57.5331   34.8805   44.9580 H   0  0  0  0  0  0  0  0  0  0  0  0
   56.6600   32.9000   44.8630 N   0  0  0  0  0  0  0  0  0  0  0  0
   57.2400   31.7320   45.1800 C   0  0  0  0  0  0  0  0  0  0  0  0
   56.6530   30.5120   45.1430 N   0  0  0  0  0  0  0  0  0  0  0  0
   57.3810   29.4250   45.5370 C   0  0  0  0  0  0  0  0  0  0  0  0
   56.8180   28.2530   45.5410 N   0  0  0  0  0  0  0  0  0  0  0  0
   57.2380   27.1310   46.3800 C   0  0  0  0  0  0  0  0  0  0  0  0
   56.6482   27.1320   47.3085 H   0  0  0  0  0  0  0  0  0  0  0  0
   58.3078   27.2394   46.6119 H   0  0  0  0  0  0  0  0  0  0  0  0
   57.0240   25.8260   45.6570 C   0  0  0  0  0  0  0  0  0  0  0  0
   57.5270   25.6360   44.3600 C   0  0  0  0  0  0  0  0  0  0  0  0
   58.0373   26.4626   43.8439 H   0  0  0  0  0  0  0  0  0  0  0  0
   57.3820   24.4010   43.7220 C   0  0  0  0  0  0  0  0  0  0  0  0
   57.7816   24.2582   42.7071 H   0  0  0  0  0  0  0  0  0  0  0  0
   56.7300   23.3450   44.3700 C   0  0  0  0  0  0  0  0  0  0  0  0
   56.6170   21.7690   43.5940 S   0  0  0  0  0  0  0  0  0  0  0  0
   55.8110   20.8350   44.4530 O   0  0  0  0  0  0  0  0  0  0  0  0
   55.9370   21.9040   42.2610 O   0  0  0  0  0  0  0  0  0  0  0  0
   58.2050   21.1220   43.3710 N   0  0  0  0  0  0  0  0  0  0  0  0
   58.1140   20.3080   42.7240 H   0  0  0  0  0  0  0  0  0  0  0  0
   58.5110   20.7410   44.2940 H   0  0  0  0  0  0  0  0  0  0  0  0
   56.2250   23.5310   45.6630 C   0  0  0  0  0  0  0  0  0  0  0  0
   55.7131   22.7037   46.1764 H   0  0  0  0  0  0  0  0  0  0  0  0
   56.3700   24.7660   46.3030 C   0  0  0  0  0  0  0  0  0  0  0  0
   55.9694   24.9070   47.3177 H   0  0  0  0  0  0  0  0  0  0  0  0
   58.6840   29.5810   45.9420 N   0  0  0  0  0  0  0  0  0  0  0  0
   59.2810   30.8070   45.9810 C   0  0  0  0  0  0  0  0  0  0  0  0
   60.4760   30.9130   46.3600 O   0  0  0  0  0  0  0  0  0  0  0  0
   58.5180   31.9120   45.6010 C   0  0  0  0  0  0  0  0  0  0  0  0
   62.3710   32.9280   47.6750 C   0  0  0  0  0  0  0  0  0  0  0  0
   61.8419   32.5917   46.7712 H   0  0  0  0  0  0  0  0  0  0  0  0
   63.7440   32.6950   47.8050 C   0  0  0  0  0  0  0  0  0  0  0  0
   64.2947   32.1933   46.9957 H   0  0  0  0  0  0  0  0  0  0  0  0
  1  2  1  0
  2  3  2  0
  3  4  1  0
  3  5  1  0
  5  6  1  0
  5  7  2  0
  7  8  1  0
  8  9  1  0
  8 10  1  0
  8 11  1  0
 11 12  1  0
 11 13  1  0
 11 14  1  0
 14 15  1  0
 14 16  1  0
 14 17  1  0
 17 18  1  0
 18 19  1  0
 18 20  2  0
 20 21  1  0
 21 22  1  0
 22 23  1  0
 23 24  2  0
 24 25  1  0
 25 26  1  0
 25 27  1  0
 25 28  1  0
 28 29  2  0
 29 30  1  0
 29 31  1  0
 31 32  1  0
 31 33  2  0
 33 34  1  0
 34 35  2  0
 34 36  2  0
 34 37  1  0
 37 38  1  0
 37 39  1  0
 33 40  1  0
 40 41  1  0
 40 42  2  0
 42 43  1  0
 23 44  1  0
 44 45  1  0
 45 46  2  0
 45 47  1  0
  7 48  1  0
 48 49  1  0
 48 50  2  0
 50 51  1  0
 50  2  1  0
 47 17  1  0
 47 21  2  0
 42 28  1  0
M  CHG  2  22  -1  44  -1
M  END
>  <UniqueID>  (73) 
68

>  <SMILES>  (73) 
NS(=O)(=O)c1ccc(C/N=c2\[n-]c(=O)c3c(ncn3CCCc3ccccc3)[n-]2)cc1

>  <Energy>  (73) 
85.93644634387724

>  <Genealogy>  (73) 
NS(=O)(=O)c1ccc(CN=c2[n-]c(=O)c3c(ncn3CCCc3ccccc3)[n-]2)cc1 (protonated)
NS(=O)(=O)c1ccc(C/N=c2\[n-]c(=O)c3c(ncn3CCCc3ccccc3)[n-]2)cc1 (cis-trans isomerization)
NS(=O)(=O)c1ccc(C/N=c2\[n-]c(=O)c3c(ncn3CCCc3ccccc3)[n-]2)cc1 (3D coordinates assigned)
NS(=O)(=O)c1ccc(C/N=c2\[n-]c(=O)c3c(ncn3CCCc3ccccc3)[n-]2)cc1 (optimized conformer: 85.93644634387724 kcal/mol)

>  <smiles>  (73) 
NS(=O)(=O)c1ccc(CN=c2[nH]c(=O)c3c(ncn3CCCc3ccccc3)[nH]2)cc1

>  <score_type>  (73) 
oracle

>  <origin>  (73) 
adg

>  <m_score__min__energy>  (73) 
-12.720000000000001

>  <m_primary>  (73) 
energy

$$$$
73:0
     RDKit          3D

 40 42  0  0  0  0  0  0  0  0999 V2000
   59.1570   34.9850   46.2190 C   0  0  0  0  0  0  0  0  0  0  0  0
   58.5160   34.4270   45.1890 C   0  0  0  0  0  0  0  0  0  0  0  0
   59.2130   33.4930   44.2400 C   0  0  0  0  0  0  0  0  0  0  0  0
   58.4040   32.2890   44.0130 N   0  0  0  0  0  0  0  0  0  0  0  0
   57.7920   31.9520   42.8560 C   0  0  0  0  0  0  0  0  0  0  0  0
   57.9110   32.6490   41.6550 O   0  0  0  0  0  0  0  0  0  0  0  0
   57.0170   30.8330   43.0320 C   0  0  0  0  0  0  0  0  0  0  0  0
   56.2510   30.2090   42.0550 O   0  0  0  0  0  0  0  0  0  0  0  0
   57.1420   30.4450   44.3510 C   0  0  0  0  0  0  0  0  0  0  0  0
   56.4670   29.2880   44.9810 C   0  0  0  0  0  0  0  0  0  0  0  0
   55.2270   29.3480   45.2000 O   0  0  0  0  0  0  0  0  0  0  0  0
   57.2030   28.0690   45.3740 C   0  0  0  0  0  0  0  0  0  0  0  0
   58.6040   28.0480   45.2790 C   0  0  0  0  0  0  0  0  0  0  0  0
   59.3180   26.8890   45.5970 C   0  0  0  0  0  0  0  0  0  0  0  0
   58.6410   25.7460   46.0280 C   0  0  0  0  0  0  0  0  0  0  0  0
   59.3510   24.5920   46.3350 O   0  0  0  0  0  0  0  0  0  0  0  0
   57.2490   25.7640   46.1530 C   0  0  0  0  0  0  0  0  0  0  0  0
   56.5280   26.9210   45.8390 C   0  0  0  0  0  0  0  0  0  0  0  0
   55.1470   26.9240   45.9980 O   0  0  0  0  0  0  0  0  0  0  0  0
   58.0030   31.3760   44.9390 C   0  0  0  0  0  0  0  0  0  0  0  0
   58.3650   31.4220   46.3700 C   0  0  0  0  0  0  0  0  0  0  0  0
   57.7880   32.3810   47.2170 C   0  0  0  0  0  0  0  0  0  0  0  0
   58.1780   32.4610   48.5570 C   0  0  0  0  0  0  0  0  0  0  0  0
   59.1460   31.5860   49.0580 C   0  0  0  0  0  0  0  0  0  0  0  0
   59.7240   30.6280   48.2210 C   0  0  0  0  0  0  0  0  0  0  0  0
   60.6900   29.7620   48.7190 O   0  0  0  0  0  0  0  0  0  0  0  0
   59.3350   30.5440   46.8800 C   0  0  0  0  0  0  0  0  0  0  0  0
   58.6208   35.6650   46.8973 H   0  0  0  0  0  0  0  0  0  0  0  0
   60.2212   34.7647   46.3891 H   0  0  0  0  0  0  0  0  0  0  0  0
   57.4518   34.6565   45.0313 H   0  0  0  0  0  0  0  0  0  0  0  0
   59.3744   34.0064   43.2806 H   0  0  0  0  0  0  0  0  0  0  0  0
   60.1767   33.1953   44.6789 H   0  0  0  0  0  0  0  0  0  0  0  0
   57.3980   32.3770   40.8260 H   0  0  0  0  0  0  0  0  0  0  0  0
   59.1431   28.9495   44.9522 H   0  0  0  0  0  0  0  0  0  0  0  0
   60.4143   26.8772   45.5077 H   0  0  0  0  0  0  0  0  0  0  0  0
   56.7184   24.8649   46.4996 H   0  0  0  0  0  0  0  0  0  0  0  0
   57.0267   33.0716   46.8252 H   0  0  0  0  0  0  0  0  0  0  0  0
   57.7226   33.2133   49.2178 H   0  0  0  0  0  0  0  0  0  0  0  0
   59.4531   31.6516   50.1122 H   0  0  0  0  0  0  0  0  0  0  0  0
   59.7902   29.7881   46.2232 H   0  0  0  0  0  0  0  0  0  0  0  0
  1  2  2  0
  2  3  1  0
  3  4  1  0
  4  5  1  0
  5  6  1  0
  5  7  2  0
  7  8  1  0
  7  9  1  0
  9 10  1  0
 10 11  2  0
 10 12  1  0
 12 13  2  0
 13 14  1  0
 14 15  2  0
 15 16  1  0
 15 17  1  0
 17 18  2  0
 18 19  1  0
  9 20  2  0
 20 21  1  0
 21 22  2  0
 22 23  1  0
 23 24  2  0
 24 25  1  0
 25 26  1  0
 25 27  2  0
 20  4  1  0
 27 21  1  0
 18 12  1  0
  1 28  1  0
  1 29  1  0
  2 30  1  0
  3 31  1  0
  3 32  1  0
  6 33  1  0
 13 34  1  0
 14 35  1  0
 17 36  1  0
 22 37  1  0
 23 38  1  0
 24 39  1  0
 27 40  1  0
M  CHG  4   8  -1  16  -1  19  -1  26  -1
M  END
>  <UniqueID>  (74) 
69

>  <SMILES>  (74) 
C=CCn1c(O)c([O-])c(C(=O)c2ccc([O-])cc2[O-])c1-c1cccc([O-])c1

>  <Energy>  (74) 
79.10430456690239

>  <Genealogy>  (74) 
C=CCn1c(O)c([O-])c(C(=O)c2ccc([O-])cc2[O-])c1-c1cccc([O-])c1 (protonated)
C=CCn1c(O)c([O-])c(C(=O)c2ccc([O-])cc2[O-])c1-c1cccc([O-])c1 (3D coordinates assigned)
C=CCn1c(O)c([O-])c(C(=O)c2ccc([O-])cc2[O-])c1-c1cccc([O-])c1 (optimized conformer: 79.10430456690239 kcal/mol)

>  <smiles>  (74) 
C=CCn1c(O)c(O)c(C(=O)c2ccc(O)cc2O)c1-c1cccc(O)c1

>  <score_type>  (74) 
oracle

>  <origin>  (74) 
adg

>  <m_score__min__energy>  (74) 
-14.859999999999999

>  <m_primary>  (74) 
energy

$$$$
74:0
     RDKit          3D

 53 56  0  0  0  0  0  0  0  0999 V2000
   58.2450   27.5340   46.3640 O   0  0  0  0  0  0  0  0  0  0  0  0
   58.2080   28.7930   46.3160 C   0  0  0  0  0  0  0  0  0  0  0  0
   58.5010   29.5300   47.5140 N   0  0  0  0  0  0  0  0  0  0  0  0
   59.5840   30.4520   47.6940 C   0  0  0  0  0  0  0  0  0  0  0  0
   60.6890   30.3820   46.8390 C   0  0  0  0  0  0  0  0  0  0  0  0
   61.7870   31.2260   47.0330 C   0  0  0  0  0  0  0  0  0  0  0  0
   61.7750   32.1670   48.0730 C   0  0  0  0  0  0  0  0  0  0  0  0
   63.1850   33.1730   48.3910 S   0  0  0  0  0  0  0  0  0  0  0  0
   63.7430   33.7060   47.1000 O   0  0  0  0  0  0  0  0  0  0  0  0
   62.7670   34.3340   49.2500 O   0  0  0  0  0  0  0  0  0  0  0  0
   64.3890   32.2210   49.2230 N   0  0  0  0  0  0  0  0  0  0  0  0
   63.7630   31.4560   50.3160 C   0  0  0  0  0  0  0  0  0  0  0  0
   64.8360   30.8430   51.2410 C   0  0  0  0  0  0  0  0  0  0  0  0
   66.1150   30.9010   50.6390 O   0  0  0  0  0  0  0  0  0  0  0  0
   66.5110   32.2530   50.4830 C   0  0  0  0  0  0  0  0  0  0  0  0
   65.4410   33.0980   49.7580 C   0  0  0  0  0  0  0  0  0  0  0  0
   60.6500   32.2690   48.9020 C   0  0  0  0  0  0  0  0  0  0  0  0
   59.5540   31.4250   48.7060 C   0  0  0  0  0  0  0  0  0  0  0  0
   57.7870   29.4640   45.0610 C   0  0  0  0  0  0  0  0  0  0  0  0
   56.9520   28.8260   44.1370 C   0  0  0  0  0  0  0  0  0  0  0  0
   56.5570   29.5090   42.9900 C   0  0  0  0  0  0  0  0  0  0  0  0
   57.0100   30.8110   42.7760 C   0  0  0  0  0  0  0  0  0  0  0  0
   56.6470   31.4320   41.7400 O   0  0  0  0  0  0  0  0  0  0  0  0
   57.8420   31.3950   43.6940 N   0  0  0  0  0  0  0  0  0  0  0  0
   58.3640   32.7540   43.5170 C   0  0  0  0  0  0  0  0  0  0  0  0
   58.5420   33.4170   44.8540 C   0  0  0  0  0  0  0  0  0  0  0  0
   57.5880   33.2370   45.8690 C   0  0  0  0  0  0  0  0  0  0  0  0
   57.7690   33.8380   47.1190 C   0  0  0  0  0  0  0  0  0  0  0  0
   58.9060   34.6140   47.3650 C   0  0  0  0  0  0  0  0  0  0  0  0
   59.8650   34.7870   46.3630 C   0  0  0  0  0  0  0  0  0  0  0  0
   59.6890   34.1870   45.1140 C   0  0  0  0  0  0  0  0  0  0  0  0
   58.1870   30.7370   44.8040 N   0  0  0  0  0  0  0  0  0  0  0  0
   60.6942   29.6593   46.0098 H   0  0  0  0  0  0  0  0  0  0  0  0
   62.6610   31.1518   46.3693 H   0  0  0  0  0  0  0  0  0  0  0  0
   63.1207   32.1277   50.9045 H   0  0  0  0  0  0  0  0  0  0  0  0
   63.1668   30.6412   49.8794 H   0  0  0  0  0  0  0  0  0  0  0  0
   64.8579   31.4029   52.1876 H   0  0  0  0  0  0  0  0  0  0  0  0
   64.5813   29.7886   51.4238 H   0  0  0  0  0  0  0  0  0  0  0  0
   66.6892   32.6863   51.4782 H   0  0  0  0  0  0  0  0  0  0  0  0
   67.4235   32.2673   49.8689 H   0  0  0  0  0  0  0  0  0  0  0  0
   64.9958   33.8103   50.4683 H   0  0  0  0  0  0  0  0  0  0  0  0
   65.9126   33.6456   48.9287 H   0  0  0  0  0  0  0  0  0  0  0  0
   60.6297   33.0157   49.7095 H   0  0  0  0  0  0  0  0  0  0  0  0
   58.6650   31.5230   49.3463 H   0  0  0  0  0  0  0  0  0  0  0  0
   56.6112   27.7954   44.3151 H   0  0  0  0  0  0  0  0  0  0  0  0
   55.8929   29.0258   42.2582 H   0  0  0  0  0  0  0  0  0  0  0  0
   59.3350   32.7066   43.0022 H   0  0  0  0  0  0  0  0  0  0  0  0
   57.6506   33.3385   42.9174 H   0  0  0  0  0  0  0  0  0  0  0  0
   56.6960   32.6216   45.6804 H   0  0  0  0  0  0  0  0  0  0  0  0
   57.0163   33.7001   47.9092 H   0  0  0  0  0  0  0  0  0  0  0  0
   59.0457   35.0885   48.3475 H   0  0  0  0  0  0  0  0  0  0  0  0
   60.7596   35.3965   46.5583 H   0  0  0  0  0  0  0  0  0  0  0  0
   60.4506   34.3175   44.3311 H   0  0  0  0  0  0  0  0  0  0  0  0
  1  2  2  0
  2  3  1  0
  3  4  1  0
  4  5  2  0
  5  6  1  0
  6  7  2  0
  7  8  1  0
  8  9  2  0
  8 10  2  0
  8 11  1  0
 11 12  1  0
 12 13  1  0
 13 14  1  0
 14 15  1  0
 15 16  1  0
  7 17  1  0
 17 18  2  0
  2 19  1  0
 19 20  1  0
 20 21  2  0
 21 22  1  0
 22 23  2  0
 22 24  1  0
 24 25  1  0
 25 26  1  0
 26 27  2  0
 27 28  1  0
 28 29  2  0
 29 30  1  0
 30 31  2  0
 24 32  1  0
 18  4  1  0
 32 19  2  0
 16 11  1  0
 31 26  1  0
  5 33  1  0
  6 34  1  0
 12 35  1  0
 12 36  1  0
 13 37  1  0
 13 38  1  0
 15 39  1  0
 15 40  1  0
 16 41  1  0
 16 42  1  0
 17 43  1  0
 18 44  1  0
 20 45  1  0
 21 46  1  0
 25 47  1  0
 25 48  1  0
 27 49  1  0
 28 50  1  0
 29 51  1  0
 30 52  1  0
 31 53  1  0
M  CHG  1   3  -1
M  END
>  <UniqueID>  (75) 
70

>  <SMILES>  (75) 
O=C([N-]c1ccc(S(=O)(=O)N2CCOCC2)cc1)c1ccc(=O)n(Cc2ccccc2)n1

>  <Energy>  (75) 
66.31906126449661

>  <Genealogy>  (75) 
O=C([N-]c1ccc(S(=O)(=O)N2CCOCC2)cc1)c1ccc(=O)n(Cc2ccccc2)n1 (protonated)
O=C([N-]c1ccc(S(=O)(=O)N2CCOCC2)cc1)c1ccc(=O)n(Cc2ccccc2)n1 (3D coordinates assigned)
O=C([N-]c1ccc(S(=O)(=O)N2CCOCC2)cc1)c1ccc(=O)n(Cc2ccccc2)n1 (nonaromatic ring conformer: 66.31906126449661 kcal/mol)

>  <smiles>  (75) 
O=C(Nc1ccc(S(=O)(=O)N2CCOCC2)cc1)c1ccc(=O)n(Cc2ccccc2)n1

>  <score_type>  (75) 
oracle

>  <origin>  (75) 
adg

>  <m_score__min__energy>  (75) 
-11.710000000000001

>  <m_primary>  (75) 
energy

$$$$
75:0
     RDKit          3D

 39 41  0  0  0  0  0  0  0  0999 V2000
   57.3630   32.2900   45.4730 O   0  0  0  0  0  0  0  0  0  0  0  0
   58.0690   31.3040   45.6390 C   0  0  0  0  0  0  0  0  0  0  0  0
   58.8720   31.1360   46.9060 C   0  0  0  0  0  0  0  0  0  0  0  0
   60.1110   31.9960   46.9200 C   0  0  0  0  0  0  0  0  0  0  0  0
   60.0330   33.3580   46.5890 C   0  0  0  0  0  0  0  0  0  0  0  0
   61.1770   34.1610   46.6340 C   0  0  0  0  0  0  0  0  0  0  0  0
   62.4040   33.6100   47.0170 C   0  0  0  0  0  0  0  0  0  0  0  0
   62.4870   32.2580   47.3600 C   0  0  0  0  0  0  0  0  0  0  0  0
   61.3450   31.4530   47.3160 C   0  0  0  0  0  0  0  0  0  0  0  0
   58.1780   30.2850   44.5410 C   0  0  0  0  0  0  0  0  0  0  0  0
   57.8810   28.9110   45.0750 C   0  0  0  0  0  0  0  0  0  0  0  0
   58.9150   28.0760   45.3580 N   0  0  0  0  0  0  0  0  0  0  0  0
   58.7150   26.8330   45.8000 N   0  0  0  0  0  0  0  0  0  0  0  0
   57.4650   26.3260   45.9810 C   0  0  0  0  0  0  0  0  0  0  0  0
   57.3200   24.9350   46.4710 C   0  0  0  0  0  0  0  0  0  0  0  0
   56.9130   24.6650   47.7900 C   0  0  0  0  0  0  0  0  0  0  0  0
   56.7620   23.3460   48.2280 C   0  0  0  0  0  0  0  0  0  0  0  0
   57.0060   22.2810   47.3530 C   0  0  0  0  0  0  0  0  0  0  0  0
   56.8530   20.9720   47.8040 O   0  0  0  0  0  0  0  0  0  0  0  0
   57.3950   22.5420   46.0340 C   0  0  0  0  0  0  0  0  0  0  0  0
   57.5450   23.8610   45.5930 C   0  0  0  0  0  0  0  0  0  0  0  0
   56.3560   27.1490   45.7140 C   0  0  0  0  0  0  0  0  0  0  0  0
   55.0580   26.7000   45.9360 O   0  0  0  0  0  0  0  0  0  0  0  0
   56.5670   28.4480   45.2450 C   0  0  0  0  0  0  0  0  0  0  0  0
   55.5830   29.1910   44.9840 O   0  0  0  0  0  0  0  0  0  0  0  0
   58.2407   31.4120   47.7635 H   0  0  0  0  0  0  0  0  0  0  0  0
   59.1925   30.0853   46.9630 H   0  0  0  0  0  0  0  0  0  0  0  0
   59.0681   33.7954   46.2930 H   0  0  0  0  0  0  0  0  0  0  0  0
   61.1118   35.2264   46.3681 H   0  0  0  0  0  0  0  0  0  0  0  0
   63.3043   34.2413   47.0482 H   0  0  0  0  0  0  0  0  0  0  0  0
   63.4519   31.8267   47.6649 H   0  0  0  0  0  0  0  0  0  0  0  0
   61.4126   30.3904   47.5924 H   0  0  0  0  0  0  0  0  0  0  0  0
   57.4579   30.5292   43.7461 H   0  0  0  0  0  0  0  0  0  0  0  0
   59.2016   30.2997   44.1386 H   0  0  0  0  0  0  0  0  0  0  0  0
   56.7123   25.4968   48.4812 H   0  0  0  0  0  0  0  0  0  0  0  0
   56.4505   23.1444   49.2635 H   0  0  0  0  0  0  0  0  0  0  0  0
   56.0050   20.6660   48.2640 H   0  0  0  0  0  0  0  0  0  0  0  0
   57.5833   21.7076   45.3423 H   0  0  0  0  0  0  0  0  0  0  0  0
   57.8410   24.0589   44.5522 H   0  0  0  0  0  0  0  0  0  0  0  0
  1  2  2  0
  2  3  1  0
  3  4  1  0
  4  5  2  0
  5  6  1  0
  6  7  2  0
  7  8  1  0
  8  9  2  0
  2 10  1  0
 10 11  1  0
 11 12  2  0
 12 13  1  0
 13 14  1  0
 14 15  1  0
 15 16  2  0
 16 17  1  0
 17 18  2  0
 18 19  1  0
 18 20  1  0
 20 21  2  0
 14 22  2  0
 22 23  1  0
 22 24  1  0
 24 25  2  0
  9  4  1  0
 24 11  1  0
 21 15  1  0
  3 26  1  0
  3 27  1  0
  5 28  1  0
  6 29  1  0
  7 30  1  0
  8 31  1  0
  9 32  1  0
 10 33  1  0
 10 34  1  0
 16 35  1  0
 17 36  1  0
 19 37  1  0
 20 38  1  0
 21 39  1  0
M  CHG  2  13  -1  23  -1
M  END
>  <UniqueID>  (76) 
71

>  <SMILES>  (76) 
O=C(Cc1ccccc1)Cc1n[n-]c(-c2ccc(O)cc2)c([O-])c1=O

>  <Energy>  (76) 
47.66181550660834

>  <Genealogy>  (76) 
O=C(Cc1ccccc1)Cc1n[n-]c(-c2ccc(O)cc2)c([O-])c1=O (protonated)
O=C(Cc1ccccc1)Cc1n[n-]c(-c2ccc(O)cc2)c([O-])c1=O (3D coordinates assigned)
O=C(Cc1ccccc1)Cc1n[n-]c(-c2ccc(O)cc2)c([O-])c1=O (optimized conformer: 47.66181550660834 kcal/mol)

>  <smiles>  (76) 
O=C(Cc1ccccc1)Cc1n[nH]c(-c2ccc(O)cc2)c(O)c1=O

>  <score_type>  (76) 
oracle

>  <origin>  (76) 
adg

>  <m_score__min__energy>  (76) 
-12.699999999999999

>  <m_primary>  (76) 
energy

$$$$
76:0
     RDKit          3D

 45 47  0  0  0  0  0  0  0  0999 V2000
   59.6120   33.8020   50.3630 C   0  0  0  0  0  0  0  0  0  0  0  0
   60.7670   33.8660   49.6920 C   0  0  0  0  0  0  0  0  0  0  0  0
   60.8680   34.5410   48.3520 C   0  0  0  0  0  0  0  0  0  0  0  0
   59.5000   34.6480   47.6780 C   0  0  0  0  0  0  0  0  0  0  0  0
   59.2530   33.4340   46.8730 N   0  0  0  0  0  0  0  0  0  0  0  0
   58.3950   33.6170   45.6820 C   0  0  0  0  0  0  0  0  0  0  0  0
   58.6430   32.6020   44.5540 C   0  0  0  0  0  0  0  0  0  0  0  0
   57.8630   31.3270   44.7580 C   0  0  0  0  0  0  0  0  0  0  0  0
   56.8160   31.0160   43.8740 C   0  0  0  0  0  0  0  0  0  0  0  0
   56.0400   29.8690   44.0640 C   0  0  0  0  0  0  0  0  0  0  0  0
   55.0040   29.5620   43.1840 O   0  0  0  0  0  0  0  0  0  0  0  0
   56.3060   29.0240   45.1420 C   0  0  0  0  0  0  0  0  0  0  0  0
   55.5430   27.8780   45.3320 O   0  0  0  0  0  0  0  0  0  0  0  0
   57.3370   29.3270   46.0360 C   0  0  0  0  0  0  0  0  0  0  0  0
   58.1240   30.4880   45.8730 C   0  0  0  0  0  0  0  0  0  0  0  0
   59.2630   30.8480   46.8370 C   0  0  2  0  0  0  0  0  0  0  0  0
   59.6860   29.7070   47.7610 C   0  0  0  0  0  0  0  0  0  0  0  0
   59.8200   29.9350   49.1440 C   0  0  0  0  0  0  0  0  0  0  0  0
   60.2250   28.9030   49.9970 C   0  0  0  0  0  0  0  0  0  0  0  0
   60.5090   27.6370   49.4820 C   0  0  0  0  0  0  0  0  0  0  0  0
   60.3930   27.4000   48.1100 C   0  0  0  0  0  0  0  0  0  0  0  0
   60.6860   26.1420   47.5960 O   0  0  0  0  0  0  0  0  0  0  0  0
   59.9870   28.4270   47.2520 C   0  0  0  0  0  0  0  0  0  0  0  0
   59.0640   32.1820   47.6380 C   0  0  0  0  0  0  0  0  0  0  0  0
   59.5714   33.3009   51.3414 H   0  0  0  0  0  0  0  0  0  0  0  0
   58.7026   34.2504   49.9365 H   0  0  0  0  0  0  0  0  0  0  0  0
   61.6674   33.4127   50.1321 H   0  0  0  0  0  0  0  0  0  0  0  0
   61.2791   35.5519   48.4903 H   0  0  0  0  0  0  0  0  0  0  0  0
   61.5252   33.9376   47.7086 H   0  0  0  0  0  0  0  0  0  0  0  0
   58.7188   34.7440   48.4465 H   0  0  0  0  0  0  0  0  0  0  0  0
   59.4808   35.5324   47.0243 H   0  0  0  0  0  0  0  0  0  0  0  0
   57.3452   33.5290   45.9984 H   0  0  0  0  0  0  0  0  0  0  0  0
   58.6393   34.6074   45.2703 H   0  0  0  0  0  0  0  0  0  0  0  0
   58.3411   33.0536   43.5975 H   0  0  0  0  0  0  0  0  0  0  0  0
   59.7134   32.3487   44.5548 H   0  0  0  0  0  0  0  0  0  0  0  0
   56.6050   31.6817   43.0241 H   0  0  0  0  0  0  0  0  0  0  0  0
   55.0040   28.7050   42.6420 H   0  0  0  0  0  0  0  0  0  0  0  0
   57.5384   28.6504   46.8796 H   0  0  0  0  0  0  0  0  0  0  0  0
   60.1002   31.0331   46.1479 H   0  0  0  0  0  0  0  0  0  0  0  0
   59.6047   30.9317   49.5566 H   0  0  0  0  0  0  0  0  0  0  0  0
   60.3200   29.0896   51.0769 H   0  0  0  0  0  0  0  0  0  0  0  0
   60.8239   26.8266   50.1559 H   0  0  0  0  0  0  0  0  0  0  0  0
   59.9019   28.2348   46.1723 H   0  0  0  0  0  0  0  0  0  0  0  0
   58.0395   32.1841   48.0385 H   0  0  0  0  0  0  0  0  0  0  0  0
   59.8494   32.1845   48.4082 H   0  0  0  0  0  0  0  0  0  0  0  0
  1  2  2  0
  2  3  1  0
  3  4  1  0
  4  5  1  0
  5  6  1  0
  6  7  1  0
  7  8  1  0
  8  9  2  0
  9 10  1  0
 10 11  1  0
 10 12  2  0
 12 13  1  0
 12 14  1  0
 14 15  2  0
 15 16  1  0
 16 17  1  0
 17 18  2  0
 18 19  1  0
 19 20  2  0
 20 21  1  0
 21 22  1  0
 21 23  2  0
 16 24  1  0
 24  5  1  0
 15  8  1  0
 23 17  1  0
  1 25  1  0
  1 26  1  0
  2 27  1  0
  3 28  1  0
  3 29  1  0
  4 30  1  0
  4 31  1  0
  6 32  1  0
  6 33  1  0
  7 34  1  0
  7 35  1  0
  9 36  1  0
 11 37  1  0
 14 38  1  0
 16 39  1  6
 18 40  1  0
 19 41  1  0
 20 42  1  0
 23 43  1  0
 24 44  1  0
 24 45  1  0
M  CHG  2  13  -1  22  -1
M  END
>  <UniqueID>  (77) 
72

>  <SMILES>  (77) 
C=CCCN1CCc2cc(O)c([O-])cc2[C@H](c2cccc([O-])c2)C1

>  <Energy>  (77) 
65.92658009984125

>  <Genealogy>  (77) 
C=CCCN1CCc2cc(O)c([O-])cc2C(c2cccc([O-])c2)C1 (protonated)
C=CCCN1CCc2cc(O)c([O-])cc2[C@H](c2cccc([O-])c2)C1 (chirality)
C=CCCN1CCc2cc(O)c([O-])cc2[C@H](c2cccc([O-])c2)C1 (3D coordinates assigned)
C=CCCN1CCc2cc(O)c([O-])cc2[C@H](c2cccc([O-])c2)C1 (nonaromatic ring conformer: 65.92658009984125 kcal/mol)

>  <smiles>  (77) 
C=CCCN1CCc2cc(O)c(O)cc2C(c2cccc(O)c2)C1

>  <score_type>  (77) 
oracle

>  <origin>  (77) 
adg

>  <m_score__min__energy>  (77) 
-10.210000000000001

>  <m_primary>  (77) 
energy

$$$$
77:0
     RDKit          3D

 41 43  0  0  0  0  0  0  0  0999 V2000
   56.3880   29.4970   52.0070 O   0  0  0  0  0  0  0  0  0  0  0  0
   56.5570   30.7450   51.9310 C   0  0  0  0  0  0  0  0  0  0  0  0
   55.4210   31.6290   51.9710 N   0  0  0  0  0  0  0  0  0  0  0  0
   54.0560   31.1790   52.0010 C   0  0  0  0  0  0  0  0  0  0  0  0
   53.7580   29.9300   52.5690 C   0  0  0  0  0  0  0  0  0  0  0  0
   52.4360   29.4790   52.6320 C   0  0  0  0  0  0  0  0  0  0  0  0
   51.3990   30.2790   52.1440 C   0  0  0  0  0  0  0  0  0  0  0  0
   51.6820   31.5350   51.6010 C   0  0  0  0  0  0  0  0  0  0  0  0
   50.6470   32.3370   51.1330 O   0  0  0  0  0  0  0  0  0  0  0  0
   53.0040   31.9890   51.5340 C   0  0  0  0  0  0  0  0  0  0  0  0
   57.9360   31.2740   51.8080 C   0  0  0  0  0  0  0  0  0  0  0  0
   58.7870   31.2690   52.9270 C   0  0  0  0  0  0  0  0  0  0  0  0
   60.0910   31.7620   52.8290 C   0  0  0  0  0  0  0  0  0  0  0  0
   60.5580   32.2710   51.6160 C   0  0  0  0  0  0  0  0  0  0  0  0
   59.7220   32.2940   50.4920 C   0  0  0  0  0  0  0  0  0  0  0  0
   60.3080   32.9590   48.9620 S   0  0  0  0  0  0  0  0  0  0  0  0
   61.3290   34.0250   49.2510 O   0  0  0  0  0  0  0  0  0  0  0  0
   60.9850   31.8690   48.1800 O   0  0  0  0  0  0  0  0  0  0  0  0
   59.0290   33.6460   47.9890 N   0  0  0  0  0  0  0  0  0  0  0  0
   59.5440   34.5630   46.9740 C   0  0  0  0  0  0  0  0  0  0  0  0
   58.5150   34.5860   45.8540 C   0  0  0  0  0  0  0  0  0  0  0  0
   57.6910   33.3200   46.0390 C   0  0  0  0  0  0  0  0  0  0  0  0
   58.2870   32.6240   47.2530 C   0  0  0  0  0  0  0  0  0  0  0  0
   58.4110   31.8070   50.5950 C   0  0  0  0  0  0  0  0  0  0  0  0
   55.5780   32.6590   52.0300 H   0  0  0  0  0  0  0  0  0  0  0  0
   54.5693   29.3026   52.9668 H   0  0  0  0  0  0  0  0  0  0  0  0
   52.2119   28.4935   53.0661 H   0  0  0  0  0  0  0  0  0  0  0  0
   50.3602   29.9199   52.1874 H   0  0  0  0  0  0  0  0  0  0  0  0
   53.2217   32.9824   51.1149 H   0  0  0  0  0  0  0  0  0  0  0  0
   58.4236   30.8740   53.8872 H   0  0  0  0  0  0  0  0  0  0  0  0
   60.7505   31.7489   53.7093 H   0  0  0  0  0  0  0  0  0  0  0  0
   61.5860   32.6554   51.5424 H   0  0  0  0  0  0  0  0  0  0  0  0
   59.6667   35.5703   47.3985 H   0  0  0  0  0  0  0  0  0  0  0  0
   60.5278   34.2375   46.6049 H   0  0  0  0  0  0  0  0  0  0  0  0
   57.8756   35.4773   45.9366 H   0  0  0  0  0  0  0  0  0  0  0  0
   58.9893   34.6251   44.8623 H   0  0  0  0  0  0  0  0  0  0  0  0
   56.6352   33.5708   46.2190 H   0  0  0  0  0  0  0  0  0  0  0  0
   57.7192   32.6793   45.1453 H   0  0  0  0  0  0  0  0  0  0  0  0
   57.4879   32.2060   47.8828 H   0  0  0  0  0  0  0  0  0  0  0  0
   58.9415   31.7916   46.9552 H   0  0  0  0  0  0  0  0  0  0  0  0
   57.7470   31.8419   49.7187 H   0  0  0  0  0  0  0  0  0  0  0  0
  1  2  2  0
  2  3  1  0
  3  4  1  0
  4  5  2  0
  5  6  1  0
  6  7  2  0
  7  8  1  0
  8  9  1  0
  8 10  2  0
  2 11  1  0
 11 12  2  0
 12 13  1  0
 13 14  2  0
 14 15  1  0
 15 16  1  0
 16 17  2  0
 16 18  2  0
 16 19  1  0
 19 20  1  0
 20 21  1  0
 21 22  1  0
 22 23  1  0
 15 24  2  0
 10  4  1  0
 24 11  1  0
 23 19  1  0
  3 25  1  0
  5 26  1  0
  6 27  1  0
  7 28  1  0
 10 29  1  0
 12 30  1  0
 13 31  1  0
 14 32  1  0
 20 33  1  0
 20 34  1  0
 21 35  1  0
 21 36  1  0
 22 37  1  0
 22 38  1  0
 23 39  1  0
 23 40  1  0
 24 41  1  0
M  CHG  1   9  -1
M  END
>  <UniqueID>  (78) 
73

>  <SMILES>  (78) 
O=C(Nc1cccc([O-])c1)c1cccc(S(=O)(=O)N2CCCC2)c1

>  <Energy>  (78) 
50.29475675378984

>  <Genealogy>  (78) 
O=C(Nc1cccc([O-])c1)c1cccc(S(=O)(=O)N2CCCC2)c1 (protonated)
O=C(Nc1cccc([O-])c1)c1cccc(S(=O)(=O)N2CCCC2)c1 (3D coordinates assigned)
O=C(Nc1cccc([O-])c1)c1cccc(S(=O)(=O)N2CCCC2)c1 (nonaromatic ring conformer: 50.29475675378984 kcal/mol)

>  <smiles>  (78) 
O=C(Nc1cccc(O)c1)c1cccc(S(=O)(=O)N2CCCC2)c1

>  <score_type>  (78) 
oracle

>  <origin>  (78) 
adg

>  <m_score__min__energy>  (78) 
-12.31

>  <m_primary>  (78) 
energy

$$$$
78:0
     RDKit          3D

 48 51  0  0  0  0  0  0  0  0999 V2000
   59.5372   23.5971   45.9643 H   0  0  0  0  0  0  0  0  0  0  0  0
   58.6410   24.2340   45.9990 C   0  0  0  0  0  0  0  0  0  0  0  0
   57.3750   23.6530   46.0690 C   0  0  0  0  0  0  0  0  0  0  0  0
   57.2739   22.5582   46.1037 H   0  0  0  0  0  0  0  0  0  0  0  0
   56.2370   24.4590   46.0950 C   0  0  0  0  0  0  0  0  0  0  0  0
   55.2418   23.9935   46.1482 H   0  0  0  0  0  0  0  0  0  0  0  0
   56.3480   25.8580   46.0540 C   0  0  0  0  0  0  0  0  0  0  0  0
   55.1480   26.6420   45.9970 N   0  0  0  0  0  0  0  0  0  0  0  0
   55.1610   27.5950   45.5690 H   0  0  0  0  0  0  0  0  0  0  0  0
   54.2720   26.3510   46.4820 H   0  0  0  0  0  0  0  0  0  0  0  0
   57.6350   26.4540   46.0160 C   0  0  0  0  0  0  0  0  0  0  0  0
   57.8380   27.9190   46.0710 C   0  0  0  0  0  0  0  0  0  0  0  0
   57.7480   28.5360   47.1670 O   0  0  0  0  0  0  0  0  0  0  0  0
   58.2070   28.6270   44.8820 N   0  0  0  0  0  0  0  0  0  0  0  0
   57.2620   29.0130   43.8380 C   0  0  0  0  0  0  0  0  0  0  0  0
   56.8040   28.1067   43.4150 H   0  0  0  0  0  0  0  0  0  0  0  0
   57.8073   29.5692   43.0613 H   0  0  0  0  0  0  0  0  0  0  0  0
   56.1770   29.9010   44.3900 C   0  0  0  0  0  0  0  0  0  0  0  0
   55.1300   29.3650   44.8370 O   0  0  0  0  0  0  0  0  0  0  0  0
   56.3210   31.3270   44.4990 N   0  0  0  0  0  0  0  0  0  0  0  0
   57.3160   31.9880   45.0150 C   0  0  0  0  0  0  0  0  0  0  0  0
   57.6660   33.6290   44.7750 S   0  0  0  0  0  0  0  0  0  0  0  0
   59.0290   33.5640   45.7560 C   0  0  0  0  0  0  0  0  0  0  0  0
   59.1530   32.2880   46.2810 C   0  0  0  0  0  0  0  0  0  0  0  0
   58.1970   31.4120   45.8650 N   0  0  0  0  0  0  0  0  0  0  0  0
   58.1480   30.4060   46.1390 H   0  0  0  0  0  0  0  0  0  0  0  0
   60.2680   31.9720   47.2010 C   0  0  0  0  0  0  0  0  0  0  0  0
   60.3060   30.7840   47.9480 C   0  0  0  0  0  0  0  0  0  0  0  0
   59.4975   30.0453   47.8446 H   0  0  0  0  0  0  0  0  0  0  0  0
   61.3670   30.5370   48.8220 C   0  0  0  0  0  0  0  0  0  0  0  0
   61.3864   29.6036   49.4036 H   0  0  0  0  0  0  0  0  0  0  0  0
   62.4050   31.4630   48.9660 C   0  0  0  0  0  0  0  0  0  0  0  0
   63.4480   31.1570   49.8520 O   0  0  0  0  0  0  0  0  0  0  0  0
   64.5210   32.0400   50.1670 C   0  0  0  0  0  0  0  0  0  0  0  0
   64.6201   32.1215   51.2595 H   0  0  0  0  0  0  0  0  0  0  0  0
   65.4564   31.6466   49.7423 H   0  0  0  0  0  0  0  0  0  0  0  0
   64.3149   33.0336   49.7423 H   0  0  0  0  0  0  0  0  0  0  0  0
   62.3710   32.6570   48.2220 C   0  0  0  0  0  0  0  0  0  0  0  0
   63.1893   33.3853   48.3214 H   0  0  0  0  0  0  0  0  0  0  0  0
   61.3010   32.9260   47.3540 C   0  0  0  0  0  0  0  0  0  0  0  0
   61.3270   34.1810   46.4960 C   0  0  0  0  0  0  0  0  0  0  0  0
   61.8672   34.9685   47.0419 H   0  0  0  0  0  0  0  0  0  0  0  0
   61.8253   33.9241   45.5496 H   0  0  0  0  0  0  0  0  0  0  0  0
   59.9170   34.7000   46.1510 C   0  0  0  0  0  0  0  0  0  0  0  0
   59.4909   35.2051   47.0304 H   0  0  0  0  0  0  0  0  0  0  0  0
   59.9909   35.4058   45.3105 H   0  0  0  0  0  0  0  0  0  0  0  0
   58.7710   25.6230   45.9730 C   0  0  0  0  0  0  0  0  0  0  0  0
   59.7727   26.0742   45.9183 H   0  0  0  0  0  0  0  0  0  0  0  0
  1  2  1  0
  2  3  2  0
  3  4  1  0
  3  5  1  0
  5  6  1  0
  5  7  2  0
  7  8  1  0
  8  9  1  0
  8 10  1  0
  7 11  1  0
 11 12  1  0
 12 13  2  0
 12 14  1  0
 14 15  1  0
 15 16  1  0
 15 17  1  0
 15 18  1  0
 18 19  2  0
 18 20  1  0
 20 21  2  0
 21 22  1  0
 22 23  1  0
 23 24  2  0
 24 25  1  0
 25 26  1  0
 24 27  1  0
 27 28  2  0
 28 29  1  0
 28 30  1  0
 30 31  1  0
 30 32  2  0
 32 33  1  0
 33 34  1  0
 34 35  1  0
 34 36  1  0
 34 37  1  0
 32 38  1  0
 38 39  1  0
 38 40  2  0
 40 41  1  0
 41 42  1  0
 41 43  1  0
 41 44  1  0
 44 45  1  0
 44 46  1  0
 11 47  2  0
 47 48  1  0
 47  2  1  0
 25 21  1  0
 40 27  1  0
 44 23  1  0
M  CHG  1  14  -1
M  END
>  <UniqueID>  (79) 
74

>  <SMILES>  (79) 
COc1ccc2c(c1)CCc1s/c(=N\C(=O)C[N-]C(=O)c3ccccc3N)[nH]c1-2

>  <Energy>  (79) 
93.76336416615996

>  <Genealogy>  (79) 
COc1ccc2c(c1)CCc1sc(=NC(=O)C[N-]C(=O)c3ccccc3N)[nH]c1-2 (protonated)
COc1ccc2c(c1)CCc1s/c(=N\C(=O)C[N-]C(=O)c3ccccc3N)[nH]c1-2 (cis-trans isomerization)
COc1ccc2c(c1)CCc1s/c(=N\C(=O)C[N-]C(=O)c3ccccc3N)[nH]c1-2 (3D coordinates assigned)
COc1ccc2c(c1)CCc1s/c(=N\C(=O)C[N-]C(=O)c3ccccc3N)[nH]c1-2 (nonaromatic ring conformer: 93.76336416615996 kcal/mol)

>  <smiles>  (79) 
COc1ccc2c(c1)CCc1sc(=NC(=O)CNC(=O)c3ccccc3N)[nH]c1-2

>  <score_type>  (79) 
oracle

>  <origin>  (79) 
adg

>  <m_score__min__energy>  (79) 
-11.140000000000001

>  <m_primary>  (79) 
energy

$$$$
79:0
     RDKit          3D

 57 60  0  0  0  0  0  0  0  0999 V2000
   57.7478   33.2947   48.7694 H   0  0  0  0  0  0  0  0  0  0  0  0
   58.3910   33.3980   47.8830 C   0  0  0  0  0  0  0  0  0  0  0  0
   57.8370   33.4360   46.6430 N   0  0  0  0  0  0  0  0  0  0  0  0
   58.5930   33.5820   45.5190 C   0  0  0  0  0  0  0  0  0  0  0  0
   58.0470   33.5940   44.3380 N   0  0  0  0  0  0  0  0  0  0  0  0
   57.7490   32.4390   43.5370 C   0  0  0  0  0  0  0  0  0  0  0  0
   57.4340   32.6100   42.3290 O   0  0  0  0  0  0  0  0  0  0  0  0
   57.7460   31.0680   44.1020 C   0  0  0  0  0  0  0  0  0  0  0  0
   56.5530   30.3280   44.1930 C   0  0  0  0  0  0  0  0  0  0  0  0
   55.6047   30.7782   43.8643 H   0  0  0  0  0  0  0  0  0  0  0  0
   56.5640   29.0250   44.6980 C   0  0  0  0  0  0  0  0  0  0  0  0
   55.6222   28.4629   44.7821 H   0  0  0  0  0  0  0  0  0  0  0  0
   57.7720   28.4290   45.0990 C   0  0  0  0  0  0  0  0  0  0  0  0
   57.8270   27.0950   45.6250 N   0  0  0  0  0  0  0  0  0  0  0  0
   57.6790   26.7190   46.9980 C   0  0  0  0  0  0  0  0  0  0  0  0
   58.2650   27.3660   47.9100 O   0  0  0  0  0  0  0  0  0  0  0  0
   56.8460   25.6020   47.3270 N   0  0  0  0  0  0  0  0  0  0  0  0
   56.2030   24.7430   46.3770 C   0  0  0  0  0  0  0  0  0  0  0  0
   56.8250   23.5350   46.0350 C   0  0  0  0  0  0  0  0  0  0  0  0
   57.7861   23.2648   46.4968 H   0  0  0  0  0  0  0  0  0  0  0  0
   56.2310   22.6710   45.1100 C   0  0  0  0  0  0  0  0  0  0  0  0
   56.7175   21.7169   44.8590 H   0  0  0  0  0  0  0  0  0  0  0  0
   55.0210   23.0170   44.5040 C   0  0  0  0  0  0  0  0  0  0  0  0
   54.5485   22.3300   43.7865 H   0  0  0  0  0  0  0  0  0  0  0  0
   54.4110   24.2370   44.8100 C   0  0  0  0  0  0  0  0  0  0  0  0
   53.4638   24.5130   44.3236 H   0  0  0  0  0  0  0  0  0  0  0  0
   55.0000   25.1080   45.7320 C   0  0  0  0  0  0  0  0  0  0  0  0
   54.4040   26.3410   45.9750 O   0  0  0  0  0  0  0  0  0  0  0  0
   58.9570   29.1710   45.0270 C   0  0  0  0  0  0  0  0  0  0  0  0
   59.9015   28.7261   45.3733 H   0  0  0  0  0  0  0  0  0  0  0  0
   58.9490   30.4740   44.5180 C   0  0  0  0  0  0  0  0  0  0  0  0
   59.8910   31.0371   44.4430 H   0  0  0  0  0  0  0  0  0  0  0  0
   59.9850   33.6750   45.6310 C   0  0  0  0  0  0  0  0  0  0  0  0
   60.6035   33.7987   44.7298 H   0  0  0  0  0  0  0  0  0  0  0  0
   60.5910   33.6100   46.8980 C   0  0  0  0  0  0  0  0  0  0  0  0
   62.0610   33.7000   47.0450 C   0  0  0  0  0  0  0  0  0  0  0  0
   62.7620   33.9000   46.0150 O   0  0  0  0  0  0  0  0  0  0  0  0
   62.7090   33.5690   48.3270 N   0  0  0  0  0  0  0  0  0  0  0  0
   62.0450   34.0060   49.5640 C   0  0  0  0  0  0  0  0  0  0  0  0
   61.5561   33.1429   50.0394 H   0  0  0  0  0  0  0  0  0  0  0  0
   61.2945   34.7721   49.3195 H   0  0  0  0  0  0  0  0  0  0  0  0
   63.0760   34.6020   50.5310 C   0  0  0  0  0  0  0  0  0  0  0  0
   62.5666   34.8590   51.4714 H   0  0  0  0  0  0  0  0  0  0  0  0
   63.5104   35.4871   50.0433 H   0  0  0  0  0  0  0  0  0  0  0  0
   64.1930   33.6710   50.8370 N   0  0  0  0  0  0  0  0  0  0  0  0
   64.0060   33.0260   52.1470 C   0  0  0  0  0  0  0  0  0  0  0  0
   64.2164   33.7517   52.9464 H   0  0  0  0  0  0  0  0  0  0  0  0
   62.9683   32.6723   52.2367 H   0  0  0  0  0  0  0  0  0  0  0  0
   64.6935   32.1721   52.2367 H   0  0  0  0  0  0  0  0  0  0  0  0
   64.4500   32.6450   49.7950 C   0  0  0  0  0  0  0  0  0  0  0  0
   63.8345   31.7595   50.0117 H   0  0  0  0  0  0  0  0  0  0  0  0
   65.5233   32.4050   49.8178 H   0  0  0  0  0  0  0  0  0  0  0  0
   64.1130   33.1460   48.3870 C   0  0  0  0  0  0  0  0  0  0  0  0
   64.2805   32.3356   47.6623 H   0  0  0  0  0  0  0  0  0  0  0  0
   64.7588   34.0029   48.1446 H   0  0  0  0  0  0  0  0  0  0  0  0
   59.7760   33.4900   48.0330 C   0  0  0  0  0  0  0  0  0  0  0  0
   60.2258   33.4685   49.0366 H   0  0  0  0  0  0  0  0  0  0  0  0
  1  2  1  0
  2  3  1  0
  3  4  1  0
  4  5  2  0
  5  6  1  0
  6  7  2  0
  6  8  1  0
  8  9  2  0
  9 10  1  0
  9 11  1  0
 11 12  1  0
 11 13  2  0
 13 14  1  0
 14 15  1  0
 15 16  2  0
 15 17  1  0
 17 18  1  0
 18 19  2  0
 19 20  1  0
 19 21  1  0
 21 22  1  0
 21 23  2  0
 23 24  1  0
 23 25  1  0
 25 26  1  0
 25 27  2  0
 27 28  1  0
 13 29  1  0
 29 30  1  0
 29 31  2  0
 31 32  1  0
  4 33  1  0
 33 34  1  0
 33 35  2  0
 35 36  1  0
 36 37  2  0
 36 38  1  0
 38 39  1  0
 39 40  1  0
 39 41  1  0
 39 42  1  0
 42 43  1  0
 42 44  1  0
 42 45  1  0
 45 46  1  0
 46 47  1  0
 46 48  1  0
 46 49  1  0
 45 50  1  0
 50 51  1  0
 50 52  1  0
 50 53  1  0
 53 54  1  0
 53 55  1  0
 35 56  1  0
 56 57  1  0
 56  2  2  0
 31  8  1  0
 53 38  1  0
 27 18  1  0
M  CHG  4   3  -1  14  -1  17  -1  28  -1
M  END
>  <UniqueID>  (80) 
75

>  <SMILES>  (80) 
CN1CCN(C(=O)c2cc[n-]/c(=N\C(=O)c3ccc([N-]C(=O)[N-]c4ccccc4[O-])cc3)c2)CC1

>  <Energy>  (80) 
89.55295881273365

>  <Genealogy>  (80) 
CN1CCN(C(=O)c2cc[n-]c(=NC(=O)c3ccc([N-]C(=O)[N-]c4ccccc4[O-])cc3)c2)CC1 (protonated)
CN1CCN(C(=O)c2cc[n-]/c(=N\C(=O)c3ccc([N-]C(=O)[N-]c4ccccc4[O-])cc3)c2)CC1 (cis-trans isomerization)
CN1CCN(C(=O)c2cc[n-]/c(=N\C(=O)c3ccc([N-]C(=O)[N-]c4ccccc4[O-])cc3)c2)CC1 (3D coordinates assigned)
CN1CCN(C(=O)c2cc[n-]/c(=N\C(=O)c3ccc([N-]C(=O)[N-]c4ccccc4[O-])cc3)c2)CC1 (nonaromatic ring conformer: 89.55295881273365 kcal/mol)

>  <smiles>  (80) 
CN1CCN(C(=O)c2cc[nH]c(=NC(=O)c3ccc(NC(=O)Nc4ccccc4O)cc3)c2)CC1

>  <score_type>  (80) 
oracle

>  <origin>  (80) 
adg

>  <m_score__min__energy>  (80) 
-17.969999999999999

>  <m_primary>  (80) 
energy

$$$$
80:0
     RDKit          3D

 98102  0  0  0  0  0  0  0  0999 V2000
   63.7100   31.2310   50.9410 C   0  0  0  0  0  0  0  0  0  0  0  0
   63.6470   32.0010   52.2760 C   0  0  0  0  0  0  0  0  0  0  0  0
   64.2700   33.3890   52.0700 C   0  0  0  0  0  0  0  0  0  0  0  0
   64.4330   31.2520   53.3720 C   0  0  0  0  0  0  0  0  0  0  0  0
   62.2870   32.2030   52.6820 O   0  0  0  0  0  0  0  0  0  0  0  0
   61.2700   32.7980   51.9180 C   0  0  0  0  0  0  0  0  0  0  0  0
   60.7820   33.9170   52.2380 O   0  0  0  0  0  0  0  0  0  0  0  0
   60.8000   32.1100   50.7520 N   0  0  0  0  0  0  0  0  0  0  0  0
   59.6030   32.5150   50.0090 C   0  0  1  0  0  0  0  0  0  0  0  0
   59.8550   33.8880   49.3500 C   0  0  0  0  0  0  0  0  0  0  0  0
   61.0540   33.8820   48.4340 C   0  0  0  0  0  0  0  0  0  0  0  0
   60.8800   33.8600   47.0400 C   0  0  0  0  0  0  0  0  0  0  0  0
   61.9910   33.8400   46.1910 C   0  0  0  0  0  0  0  0  0  0  0  0
   63.2830   33.8440   46.7280 C   0  0  0  0  0  0  0  0  0  0  0  0
   63.4640   33.8750   48.1120 C   0  0  0  0  0  0  0  0  0  0  0  0
   62.3550   33.8920   48.9620 C   0  0  0  0  0  0  0  0  0  0  0  0
   59.2600   31.4690   48.9790 C   0  0  0  0  0  0  0  0  0  0  0  0
   58.3780   31.7100   48.1110 O   0  0  0  0  0  0  0  0  0  0  0  0
   59.9620   30.2270   48.9600 N   0  0  0  0  0  0  0  0  0  0  0  0
   59.3520   28.9460   49.3020 C   0  0  2  0  0  0  0  0  0  0  0  0
   60.1740   28.2860   50.4200 C   0  0  0  0  0  0  0  0  0  0  0  0
   60.1580   29.0950   51.6860 C   0  0  0  0  0  0  0  0  0  0  0  0
   61.2580   29.4090   52.4820 C   0  0  0  0  0  0  0  0  0  0  0  0
   60.8960   30.2540   53.4720 N   0  0  0  0  0  0  0  0  0  0  0  0
   59.5840   30.4860   53.3040 C   0  0  0  0  0  0  0  0  0  0  0  0
   58.7730   31.3250   54.0650 C   0  0  0  0  0  0  0  0  0  0  0  0
   57.4260   31.4610   53.6840 C   0  0  0  0  0  0  0  0  0  0  0  0
   56.9230   30.7680   52.5620 C   0  0  0  0  0  0  0  0  0  0  0  0
   57.7640   29.9220   51.8140 C   0  0  0  0  0  0  0  0  0  0  0  0
   59.0960   29.8010   52.2210 C   0  0  0  0  0  0  0  0  0  0  0  0
   59.2860   28.0720   48.0740 C   0  0  0  0  0  0  0  0  0  0  0  0
   60.0360   27.0650   47.9740 O   0  0  0  0  0  0  0  0  0  0  0  0
   58.3410   28.3800   47.0420 N   0  0  0  0  0  0  0  0  0  0  0  0
   57.9600   27.5360   45.9070 C   0  0  2  0  0  0  0  0  0  0  0  0
   58.5730   28.0130   44.5770 C   0  0  0  0  0  0  0  0  0  0  0  0
   58.2330   29.4570   44.3150 C   0  0  0  0  0  0  0  0  0  0  0  0
   58.8340   30.4820   45.0690 C   0  0  0  0  0  0  0  0  0  0  0  0
   58.4730   31.8150   44.8580 C   0  0  0  0  0  0  0  0  0  0  0  0
   57.5120   32.1390   43.8960 C   0  0  0  0  0  0  0  0  0  0  0  0
   56.9080   31.1260   43.1460 C   0  0  0  0  0  0  0  0  0  0  0  0
   57.2630   29.7900   43.3540 C   0  0  0  0  0  0  0  0  0  0  0  0
   56.4620   27.4150   45.8240 C   0  0  0  0  0  0  0  0  0  0  0  0
   55.7740   28.3020   45.2440 O   0  0  0  0  0  0  0  0  0  0  0  0
   55.8100   26.2960   46.4240 N   0  0  0  0  0  0  0  0  0  0  0  0
   55.2210   25.2310   45.6230 C   0  0  0  0  0  0  0  0  0  0  0  0
   56.2780   24.2270   45.2450 C   0  0  0  0  0  0  0  0  0  0  0  0
   57.5610   24.2920   45.8120 C   0  0  0  0  0  0  0  0  0  0  0  0
   58.5710   23.4360   45.3660 C   0  0  0  0  0  0  0  0  0  0  0  0
   58.3090   22.5120   44.3510 C   0  0  0  0  0  0  0  0  0  0  0  0
   57.0310   22.4350   43.7770 C   0  0  0  0  0  0  0  0  0  0  0  0
   56.7650   21.4860   42.6450 C   0  0  0  0  0  0  0  0  0  0  0  0
   56.2650   20.2200   43.1680 N   0  0  0  0  0  0  0  0  0  0  0  0
   56.0230   23.3060   44.2160 C   0  0  0  0  0  0  0  0  0  0  0  0
   63.7982   30.1533   51.1431 H   0  0  0  0  0  0  0  0  0  0  0  0
   62.7932   31.4220   50.3639 H   0  0  0  0  0  0  0  0  0  0  0  0
   64.5835   31.5685   50.3639 H   0  0  0  0  0  0  0  0  0  0  0  0
   64.4758   33.8474   53.0485 H   0  0  0  0  0  0  0  0  0  0  0  0
   65.2097   33.2892   51.5069 H   0  0  0  0  0  0  0  0  0  0  0  0
   63.5709   34.0248   51.5069 H   0  0  0  0  0  0  0  0  0  0  0  0
   64.0864   31.5823   54.3624 H   0  0  0  0  0  0  0  0  0  0  0  0
   64.2669   30.1696   53.2676 H   0  0  0  0  0  0  0  0  0  0  0  0
   65.5061   31.4700   53.2676 H   0  0  0  0  0  0  0  0  0  0  0  0
   61.2460   31.1940   50.5160 H   0  0  0  0  0  0  0  0  0  0  0  0
   58.7478   32.6067   50.6948 H   0  0  0  0  0  0  0  0  0  0  0  0
   58.9661   34.1660   48.7647 H   0  0  0  0  0  0  0  0  0  0  0  0
   60.0545   34.6114   50.1543 H   0  0  0  0  0  0  0  0  0  0  0  0
   59.8656   33.8585   46.6146 H   0  0  0  0  0  0  0  0  0  0  0  0
   61.8491   33.8211   45.1004 H   0  0  0  0  0  0  0  0  0  0  0  0
   64.1564   33.8227   46.0596 H   0  0  0  0  0  0  0  0  0  0  0  0
   64.4800   33.8860   48.5335 H   0  0  0  0  0  0  0  0  0  0  0  0
   62.5022   33.9134   50.0519 H   0  0  0  0  0  0  0  0  0  0  0  0
   58.3241   29.0942   49.6646 H   0  0  0  0  0  0  0  0  0  0  0  0
   59.7537   27.2913   50.6294 H   0  0  0  0  0  0  0  0  0  0  0  0
   61.2166   28.2145   50.0768 H   0  0  0  0  0  0  0  0  0  0  0  0
   62.2764   29.0235   52.3263 H   0  0  0  0  0  0  0  0  0  0  0  0
   61.5200   30.6640   54.2010 H   0  0  0  0  0  0  0  0  0  0  0  0
   59.1735   31.8640   54.9363 H   0  0  0  0  0  0  0  0  0  0  0  0
   56.7583   32.1135   54.2658 H   0  0  0  0  0  0  0  0  0  0  0  0
   55.8693   30.8894   52.2706 H   0  0  0  0  0  0  0  0  0  0  0  0
   57.3855   29.3744   50.9383 H   0  0  0  0  0  0  0  0  0  0  0  0
   58.3791   26.5348   46.0858 H   0  0  0  0  0  0  0  0  0  0  0  0
   59.6665   27.9035   44.6248 H   0  0  0  0  0  0  0  0  0  0  0  0
   58.1607   27.4015   43.7609 H   0  0  0  0  0  0  0  0  0  0  0  0
   59.5908   30.2327   45.8273 H   0  0  0  0  0  0  0  0  0  0  0  0
   58.9463   32.6118   45.4505 H   0  0  0  0  0  0  0  0  0  0  0  0
   57.2316   33.1895   43.7295 H   0  0  0  0  0  0  0  0  0  0  0  0
   56.1510   31.3808   42.3897 H   0  0  0  0  0  0  0  0  0  0  0  0
   56.7815   28.9966   42.7635 H   0  0  0  0  0  0  0  0  0  0  0  0
   54.4339   24.7297   46.2054 H   0  0  0  0  0  0  0  0  0  0  0  0
   54.7896   25.6633   44.7081 H   0  0  0  0  0  0  0  0  0  0  0  0
   57.7715   25.0193   46.6100 H   0  0  0  0  0  0  0  0  0  0  0  0
   59.5740   23.4895   45.8145 H   0  0  0  0  0  0  0  0  0  0  0  0
   59.1081   21.8422   44.0005 H   0  0  0  0  0  0  0  0  0  0  0  0
   56.0148   21.9239   41.9701 H   0  0  0  0  0  0  0  0  0  0  0  0
   57.7001   21.3071   42.0941 H   0  0  0  0  0  0  0  0  0  0  0  0
   56.8210   19.9780   44.0190 H   0  0  0  0  0  0  0  0  0  0  0  0
   56.4630   19.4800   42.4570 H   0  0  0  0  0  0  0  0  0  0  0  0
   55.0267   23.2674   43.7514 H   0  0  0  0  0  0  0  0  0  0  0  0
  1  2  1  0
  2  3  1  0
  2  4  1  0
  2  5  1  0
  5  6  1  0
  6  7  2  0
  6  8  1  0
  8  9  1  0
  9 10  1  0
 10 11  1  0
 11 12  2  0
 12 13  1  0
 13 14  2  0
 14 15  1  0
 15 16  2  0
  9 17  1  0
 17 18  2  0
 17 19  1  0
 19 20  1  0
 20 21  1  0
 21 22  1  0
 22 23  2  0
 23 24  1  0
 24 25  1  0
 25 26  2  0
 26 27  1  0
 27 28  2  0
 28 29  1  0
 29 30  2  0
 20 31  1  0
 31 32  2  0
 31 33  1  0
 33 34  1  0
 34 35  1  0
 35 36  1  0
 36 37  2  0
 37 38  1  0
 38 39  2  0
 39 40  1  0
 40 41  2  0
 34 42  1  0
 42 43  2  0
 42 44  1  0
 44 45  1  0
 45 46  1  0
 46 47  2  0
 47 48  1  0
 48 49  2  0
 49 50  1  0
 50 51  1  0
 51 52  1  0
 50 53  2  0
 16 11  1  0
 30 22  1  0
 41 36  1  0
 53 46  1  0
 30 25  1  0
  1 54  1  0
  1 55  1  0
  1 56  1  0
  3 57  1  0
  3 58  1  0
  3 59  1  0
  4 60  1  0
  4 61  1  0
  4 62  1  0
  8 63  1  0
  9 64  1  1
 10 65  1  0
 10 66  1  0
 12 67  1  0
 13 68  1  0
 14 69  1  0
 15 70  1  0
 16 71  1  0
 20 72  1  1
 21 73  1  0
 21 74  1  0
 23 75  1  0
 24 76  1  0
 26 77  1  0
 27 78  1  0
 28 79  1  0
 29 80  1  0
 34 81  1  1
 35 82  1  0
 35 83  1  0
 37 84  1  0
 38 85  1  0
 39 86  1  0
 40 87  1  0
 41 88  1  0
 45 89  1  0
 45 90  1  0
 47 91  1  0
 48 92  1  0
 49 93  1  0
 51 94  1  0
 51 95  1  0
 52 96  1  0
 52 97  1  0
 53 98  1  0
M  CHG  3  19  -1  33  -1  44  -1
M  END
>  <UniqueID>  (81) 
76

>  <SMILES>  (81) 
CC(C)(C)OC(=O)N[C@@H](Cc1ccccc1)C(=O)[N-][C@H](Cc1c[nH]c2ccccc12)C(=O)[N-]C(Cc1ccccc1)C(=O)[N-]Cc1cccc(CN)c1

>  <Energy>  (81) 
116.03813247091006

>  <Genealogy>  (81) 
CC(C)(C)OC(=O)NC(Cc1ccccc1)C(=O)[N-]C(Cc1c[nH]c2ccccc12)C(=O)[N-]C(Cc1ccccc1)C(=O)[N-]Cc1cccc(CN)c1 (protonated)
CC(C)(C)OC(=O)N[C@@H](Cc1ccccc1)C(=O)[N-][C@H](Cc1c[nH]c2ccccc12)C(=O)[N-]C(Cc1ccccc1)C(=O)[N-]Cc1cccc(CN)c1 (chirality)
CC(C)(C)OC(=O)N[C@@H](Cc1ccccc1)C(=O)[N-][C@H](Cc1c[nH]c2ccccc12)C(=O)[N-]C(Cc1ccccc1)C(=O)[N-]Cc1cccc(CN)c1 (3D coordinates assigned)
CC(C)(C)OC(=O)N[C@@H](Cc1ccccc1)C(=O)[N-][C@H](Cc1c[nH]c2ccccc12)C(=O)[N-]C(Cc1ccccc1)C(=O)[N-]Cc1cccc(CN)c1 (optimized conformer: 116.03813247091006 kcal/mol)

>  <smiles>  (81) 
CC(C)(C)OC(=O)NC(Cc1ccccc1)C(=O)NC(Cc1c[nH]c2ccccc12)C(=O)NC(Cc1ccccc1)C(=O)NCc1cccc(CN)c1

>  <score_type>  (81) 
oracle

>  <origin>  (81) 
adg

>  <m_score__min__energy>  (81) 
-16.280000000000001

>  <m_primary>  (81) 
energy

$$$$
81:0
     RDKit          3D

 33 34  0  0  0  0  0  0  0  0999 V2000
   59.6600   27.5700   47.2420 C   0  0  0  0  0  0  0  0  0  0  0  0
   59.2210   28.6210   46.5110 C   0  0  0  0  0  0  0  0  0  0  0  0
   59.7180   29.9230   46.8040 C   0  0  0  0  0  0  0  0  0  0  0  0
   61.0330   30.1070   47.5440 C   0  0  0  0  0  0  0  0  0  0  0  0
   58.9390   31.0560   46.4670 C   0  0  0  0  0  0  0  0  0  0  0  0
   59.3470   32.4440   46.9110 C   0  0  0  0  0  0  0  0  0  0  0  0
   57.7860   30.8970   45.6840 C   0  0  0  0  0  0  0  0  0  0  0  0
   57.0350   32.0180   45.3310 O   0  0  0  0  0  0  0  0  0  0  0  0
   57.4040   29.6340   45.2060 C   0  0  0  0  0  0  0  0  0  0  0  0
   56.2580   29.5920   44.2620 C   0  0  0  0  0  0  0  0  0  0  0  0
   55.1460   29.1300   44.6280 O   0  0  0  0  0  0  0  0  0  0  0  0
   56.4240   30.0130   42.9470 O   0  0  0  0  0  0  0  0  0  0  0  0
   58.1540   28.4730   45.5600 C   0  0  0  0  0  0  0  0  0  0  0  0
   57.8290   27.2740   44.9930 C   0  0  0  0  0  0  0  0  0  0  0  0
   57.4390   26.0400   45.7230 C   0  0  0  0  0  0  0  0  0  0  0  0
   56.1350   25.8490   46.2160 C   0  0  0  0  0  0  0  0  0  0  0  0
   55.1550   26.8210   46.0320 O   0  0  0  0  0  0  0  0  0  0  0  0
   55.8290   24.7120   46.8970 N   0  0  0  0  0  0  0  0  0  0  0  0
   56.7660   23.7600   47.1300 C   0  0  0  0  0  0  0  0  0  0  0  0
   56.3650   22.4060   47.9480 S   0  0  0  0  0  0  0  0  0  0  0  0
   58.0390   23.9360   46.6930 N   0  0  0  0  0  0  0  0  0  0  0  0
   58.3970   25.0520   46.0060 C   0  0  0  0  0  0  0  0  0  0  0  0
   59.5890   25.1810   45.6190 O   0  0  0  0  0  0  0  0  0  0  0  0
   59.2864   26.5575   47.0290 H   0  0  0  0  0  0  0  0  0  0  0  0
   60.3904   27.7282   48.0491 H   0  0  0  0  0  0  0  0  0  0  0  0
   60.8502   30.0814   48.6284 H   0  0  0  0  0  0  0  0  0  0  0  0
   61.7247   29.2969   47.2695 H   0  0  0  0  0  0  0  0  0  0  0  0
   61.4757   31.0758   47.2695 H   0  0  0  0  0  0  0  0  0  0  0  0
   59.3600   32.4884   48.0100 H   0  0  0  0  0  0  0  0  0  0  0  0
   60.3505   32.6730   46.5229 H   0  0  0  0  0  0  0  0  0  0  0  0
   58.6271   33.1796   46.5229 H   0  0  0  0  0  0  0  0  0  0  0  0
   57.8586   27.2164   43.8949 H   0  0  0  0  0  0  0  0  0  0  0  0
   55.2290   27.4990   45.2830 H   0  0  0  0  0  0  0  0  0  0  0  0
  1  2  2  0
  2  3  1  0
  3  4  1  0
  3  5  2  0
  5  6  1  0
  5  7  1  0
  7  8  1  0
  7  9  2  0
  9 10  1  0
 10 11  2  0
 10 12  1  0
  9 13  1  0
 13 14  2  3
 14 15  1  0
 15 16  2  0
 16 17  1  0
 16 18  1  0
 18 19  1  0
 19 20  2  0
 19 21  1  0
 21 22  1  0
 22 23  2  0
 13  2  1  0
 22 15  1  0
  1 24  1  0
  1 25  1  0
  4 26  1  0
  4 27  1  0
  4 28  1  0
  6 29  1  0
  6 30  1  0
  6 31  1  0
 14 32  1  0
 17 33  1  0
M  CHG  4   8  -1  12  -1  18  -1  21  -1
M  END
>  <UniqueID>  (82) 
77

>  <SMILES>  (82) 
C=c1c(C)c(C)c([O-])c(C(=O)[O-])c1=Cc1c(O)[n-]c(=S)[n-]c1=O

>  <Energy>  (82) 
76.74744446120641

>  <Genealogy>  (82) 
C=c1c(C)c(C)c([O-])c(C(=O)[O-])c1=Cc1c(O)[n-]c(=S)[n-]c1=O (protonated)
C=c1c(C)c(C)c([O-])c(C(=O)[O-])c1=Cc1c(O)[n-]c(=S)[n-]c1=O (3D coordinates assigned)
C=c1c(C)c(C)c([O-])c(C(=O)[O-])c1=Cc1c(O)[n-]c(=S)[n-]c1=O (optimized conformer: 76.74744446120641 kcal/mol)

>  <smiles>  (82) 
C=c1c(C)c(C)c(O)c(C(=O)O)c1=Cc1c(O)[nH]c(=S)[nH]c1=O

>  <score_type>  (82) 
oracle

>  <origin>  (82) 
adg

>  <m_score__min__energy>  (82) 
-15.26

>  <m_primary>  (82) 
energy

$$$$
82:0
     RDKit          3D

 59 62  0  0  0  0  0  0  0  0999 V2000
   55.9530   29.3420   52.3240 O   0  0  0  0  0  0  0  0  0  0  0  0
   56.0180   30.5540   51.9730 C   0  0  0  0  0  0  0  0  0  0  0  0
   57.3330   31.1600   51.5920 C   0  0  0  0  0  0  0  0  0  0  0  0
   58.3280   30.1260   51.2530 N   0  0  0  0  0  0  0  0  0  0  0  0
   58.8120   29.3250   52.2500 C   0  0  0  0  0  0  0  0  0  0  0  0
   59.7530   28.3380   51.9580 C   0  0  0  0  0  0  0  0  0  0  0  0
   60.1800   28.1790   50.6830 N   0  0  0  0  0  0  0  0  0  0  0  0
   59.7060   28.9510   49.6690 C   0  0  0  0  0  0  0  0  0  0  0  0
   60.1360   28.7890   48.4510 N   0  0  0  0  0  0  0  0  0  0  0  0
   59.7710   27.6710   47.5820 C   0  0  0  0  0  0  0  0  0  0  0  0
   58.5570   28.0140   46.7570 C   0  0  0  0  0  0  0  0  0  0  0  0
   57.4550   27.1480   46.7190 C   0  0  0  0  0  0  0  0  0  0  0  0
   56.3200   27.4830   45.9750 C   0  0  0  0  0  0  0  0  0  0  0  0
   55.2220   26.6300   45.9720 O   0  0  0  0  0  0  0  0  0  0  0  0
   56.2860   28.6790   45.2460 C   0  0  0  0  0  0  0  0  0  0  0  0
   55.1310   29.0040   44.5400 O   0  0  0  0  0  0  0  0  0  0  0  0
   57.4020   29.5440   45.2390 C   0  0  0  0  0  0  0  0  0  0  0  0
   57.3990   30.8300   44.4250 C   0  0  0  0  0  0  0  0  0  0  0  0
   57.1230   32.0630   45.2050 N   0  0  0  0  0  0  0  0  0  0  0  0
   57.3910   33.3070   44.4770 C   0  0  0  0  0  0  0  0  0  0  0  0
   58.7360   33.8370   44.9440 C   0  0  0  0  0  0  0  0  0  0  0  0
   59.0340   33.1160   46.2470 C   0  0  0  0  0  0  0  0  0  0  0  0
   57.8740   32.1540   46.4620 C   0  0  0  0  0  0  0  0  0  0  0  0
   58.5140   29.2200   46.0420 C   0  0  0  0  0  0  0  0  0  0  0  0
   58.7490   29.9420   49.9580 C   0  0  0  0  0  0  0  0  0  0  0  0
   58.2890   30.6560   49.0240 O   0  0  0  0  0  0  0  0  0  0  0  0
   54.8510   31.3820   52.0090 N   0  0  0  0  0  0  0  0  0  0  0  0
   53.6230   31.0540   51.2910 C   0  0  0  0  0  0  0  0  0  0  0  0
   52.4430   31.2730   52.2050 C   0  0  0  0  0  0  0  0  0  0  0  0
   52.4470   30.7140   53.4950 C   0  0  0  0  0  0  0  0  0  0  0  0
   51.4160   30.9980   54.3930 C   0  0  0  0  0  0  0  0  0  0  0  0
   50.3680   31.8410   54.0120 C   0  0  0  0  0  0  0  0  0  0  0  0
   50.3520   32.4010   52.7340 C   0  0  0  0  0  0  0  0  0  0  0  0
   51.3880   32.1260   51.8310 C   0  0  0  0  0  0  0  0  0  0  0  0
   51.3620   32.7160   50.5710 O   0  0  0  0  0  0  0  0  0  0  0  0
   57.1857   31.8136   50.7196 H   0  0  0  0  0  0  0  0  0  0  0  0
   57.7105   31.7327   52.4519 H   0  0  0  0  0  0  0  0  0  0  0  0
   58.4589   29.4593   53.2831 H   0  0  0  0  0  0  0  0  0  0  0  0
   60.1456   27.6931   52.7580 H   0  0  0  0  0  0  0  0  0  0  0  0
   60.6125   27.4456   46.9104 H   0  0  0  0  0  0  0  0  0  0  0  0
   59.5387   26.7968   48.2079 H   0  0  0  0  0  0  0  0  0  0  0  0
   57.4837   26.2006   47.2772 H   0  0  0  0  0  0  0  0  0  0  0  0
   58.3868   30.9381   43.9532 H   0  0  0  0  0  0  0  0  0  0  0  0
   56.5780   30.7338   43.6993 H   0  0  0  0  0  0  0  0  0  0  0  0
   57.4219   33.1086   43.3955 H   0  0  0  0  0  0  0  0  0  0  0  0
   56.5985   34.0447   44.6714 H   0  0  0  0  0  0  0  0  0  0  0  0
   59.5142   33.6178   44.1981 H   0  0  0  0  0  0  0  0  0  0  0  0
   58.7164   34.9284   45.0801 H   0  0  0  0  0  0  0  0  0  0  0  0
   59.9817   32.5627   46.1708 H   0  0  0  0  0  0  0  0  0  0  0  0
   59.1372   33.8204   47.0856 H   0  0  0  0  0  0  0  0  0  0  0  0
   58.2584   31.1616   46.7401 H   0  0  0  0  0  0  0  0  0  0  0  0
   57.2226   32.5150   47.2716 H   0  0  0  0  0  0  0  0  0  0  0  0
   59.3586   29.9215   46.1088 H   0  0  0  0  0  0  0  0  0  0  0  0
   53.5292   31.7016   50.4068 H   0  0  0  0  0  0  0  0  0  0  0  0
   53.6519   30.0027   50.9687 H   0  0  0  0  0  0  0  0  0  0  0  0
   53.2681   30.0482   53.7991 H   0  0  0  0  0  0  0  0  0  0  0  0
   51.4285   30.5580   55.4011 H   0  0  0  0  0  0  0  0  0  0  0  0
   49.5558   32.0630   54.7198 H   0  0  0  0  0  0  0  0  0  0  0  0
   49.5239   33.0602   52.4344 H   0  0  0  0  0  0  0  0  0  0  0  0
  1  2  2  0
  2  3  1  0
  3  4  1  0
  4  5  1  0
  5  6  2  0
  6  7  1  0
  7  8  1  0
  8  9  2  3
  9 10  1  0
 10 11  1  0
 11 12  2  0
 12 13  1  0
 13 14  1  0
 13 15  2  0
 15 16  1  0
 15 17  1  0
 17 18  1  0
 18 19  1  0
 19 20  1  0
 20 21  1  0
 21 22  1  0
 22 23  1  0
 17 24  2  0
  8 25  1  0
 25 26  2  0
  2 27  1  0
 27 28  1  0
 28 29  1  0
 29 30  2  0
 30 31  1  0
 31 32  2  0
 32 33  1  0
 33 34  2  0
 34 35  1  0
 25  4  1  0
 34 29  1  0
 24 11  1  0
 23 19  1  0
  3 36  1  0
  3 37  1  0
  5 38  1  0
  6 39  1  0
 10 40  1  0
 10 41  1  0
 12 42  1  0
 18 43  1  0
 18 44  1  0
 20 45  1  0
 20 46  1  0
 21 47  1  0
 21 48  1  0
 22 49  1  0
 22 50  1  0
 23 51  1  0
 23 52  1  0
 24 53  1  0
 28 54  1  0
 28 55  1  0
 30 56  1  0
 31 57  1  0
 32 58  1  0
 33 59  1  0
M  CHG  5   7  -1  14  -1  16  -1  27  -1  35  -1
M  END
>  <UniqueID>  (83) 
78

>  <SMILES>  (83) 
O=C(Cn1cc[n-]c(=NCc2cc([O-])c([O-])c(CN3CCCC3)c2)c1=O)[N-]Cc1ccccc1[O-]

>  <Energy>  (83) 
72.98913148139432

>  <Genealogy>  (83) 
O=C(Cn1cc[n-]c(=NCc2cc([O-])c([O-])c(CN3CCCC3)c2)c1=O)[N-]Cc1ccccc1[O-] (protonated)
O=C(Cn1cc[n-]c(=NCc2cc([O-])c([O-])c(CN3CCCC3)c2)c1=O)[N-]Cc1ccccc1[O-] (3D coordinates assigned)
O=C(Cn1cc[n-]c(=NCc2cc([O-])c([O-])c(CN3CCCC3)c2)c1=O)[N-]Cc1ccccc1[O-] (nonaromatic ring conformer: 72.98913148139432 kcal/mol)

>  <smiles>  (83) 
O=C(Cn1cc[nH]c(=NCc2cc(O)c(O)c(CN3CCCC3)c2)c1=O)NCc1ccccc1O

>  <score_type>  (83) 
oracle

>  <origin>  (83) 
adg

>  <m_score__min__energy>  (83) 
-22.309999999999999

>  <m_primary>  (83) 
energy

$$$$
83:0
     RDKit          3D

 24 25  0  0  0  0  0  0  0  0999 V2000
   60.2241   31.4793   51.6463 H   0  0  0  0  0  0  0  0  0  0  0  0
   59.6380   31.3490   52.5680 C   0  0  0  0  0  0  0  0  0  0  0  0
   60.0970   31.5572   53.5457 H   0  0  0  0  0  0  0  0  0  0  0  0
   58.3690   30.9380   52.5000 C   0  0  0  0  0  0  0  0  0  0  0  0
   57.6610   30.7830   53.6510 N   0  0  0  0  0  0  0  0  0  0  0  0
   56.3680   30.3680   53.6520 C   0  0  0  0  0  0  0  0  0  0  0  0
   55.7640   30.2440   54.7520 O   0  0  0  0  0  0  0  0  0  0  0  0
   55.7300   30.0790   52.4270 C   0  0  0  0  0  0  0  0  0  0  0  0
   54.4410   29.6830   52.3790 C   0  0  0  0  0  0  0  0  0  0  0  0
   54.2381   28.6067   52.2774 H   0  0  0  0  0  0  0  0  0  0  0  0
   53.2810   30.6010   52.4540 C   0  0  0  0  0  0  0  0  0  0  0  0
   52.4970   30.6120   53.6190 C   0  0  0  0  0  0  0  0  0  0  0  0
   52.7637   29.9592   54.4632 H   0  0  0  0  0  0  0  0  0  0  0  0
   51.3800   31.4470   53.7130 C   0  0  0  0  0  0  0  0  0  0  0  0
   50.7819   31.4613   54.6361 H   0  0  0  0  0  0  0  0  0  0  0  0
   51.0210   32.2640   52.6370 C   0  0  0  0  0  0  0  0  0  0  0  0
   49.9100   33.0930   52.7380 O   0  0  0  0  0  0  0  0  0  0  0  0
   51.7780   32.2410   51.4610 C   0  0  0  0  0  0  0  0  0  0  0  0
   51.4170   33.0380   50.3810 O   0  0  0  0  0  0  0  0  0  0  0  0
   52.8980   31.4070   51.3650 C   0  0  0  0  0  0  0  0  0  0  0  0
   53.4823   31.3811   50.4334 H   0  0  0  0  0  0  0  0  0  0  0  0
   56.4420   30.2430   51.2770 N   0  0  0  0  0  0  0  0  0  0  0  0
   57.7340   30.6590   51.2750 C   0  0  0  0  0  0  0  0  0  0  0  0
   58.3410   30.7880   50.1770 O   0  0  0  0  0  0  0  0  0  0  0  0
  1  2  1  0
  2  3  1  0
  2  4  2  0
  4  5  1  0
  5  6  1  0
  6  7  2  0
  6  8  1  0
  8  9  2  0
  9 10  1  0
  9 11  1  0
 11 12  2  0
 12 13  1  0
 12 14  1  0
 14 15  1  0
 14 16  2  0
 16 17  1  0
 16 18  1  0
 18 19  1  0
 18 20  2  0
 20 21  1  0
  8 22  1  0
 22 23  1  0
 23 24  2  0
 23  4  1  0
 20 11  1  0
M  CHG  4   5  -1  17  -1  19  -1  22  -1
M  END
>  <UniqueID>  (84) 
79

>  <SMILES>  (84) 
C=c1[n-]c(=O)/c(=C/c2ccc([O-])c([O-])c2)[n-]c1=O

>  <Energy>  (84) 
35.70707375271623

>  <Genealogy>  (84) 
C=c1[n-]c(=O)c(=Cc2ccc([O-])c([O-])c2)[n-]c1=O (protonated)
C=c1[n-]c(=O)/c(=C/c2ccc([O-])c([O-])c2)[n-]c1=O (cis-trans isomerization)
C=c1[n-]c(=O)/c(=C/c2ccc([O-])c([O-])c2)[n-]c1=O (3D coordinates assigned)
C=c1[n-]c(=O)/c(=C/c2ccc([O-])c([O-])c2)[n-]c1=O (optimized conformer: 35.70707375271623 kcal/mol)

>  <smiles>  (84) 
C=c1[nH]c(=O)c(=Cc2ccc(O)c(O)c2)[nH]c1=O

>  <score_type>  (84) 
oracle

>  <origin>  (84) 
adg

>  <m_score__min__energy>  (84) 
-16.890000000000001

>  <m_primary>  (84) 
energy

$$$$
84:0
     RDKit          3D

 48 51  0  0  0  0  0  0  0  0999 V2000
   59.2820   34.8770   45.7810 O   0  0  0  0  0  0  0  0  0  0  0  0
   59.0370   33.6410   45.6930 C   0  0  0  0  0  0  0  0  0  0  0  0
   57.9450   33.1790   44.7770 C   0  0  0  0  0  0  0  0  0  0  0  0
   57.7580   31.6990   44.9090 C   0  0  0  0  0  0  0  0  0  0  0  0
   56.5140   31.1590   44.8010 N   0  0  0  0  0  0  0  0  0  0  0  0
   56.3190   29.8140   44.8570 C   0  0  0  0  0  0  0  0  0  0  0  0
   55.1490   29.3540   44.7530 O   0  0  0  0  0  0  0  0  0  0  0  0
   57.4210   28.9560   45.0230 C   0  0  0  0  0  0  0  0  0  0  0  0
   57.2890   27.5550   45.0710 C   0  0  0  0  0  0  0  0  0  0  0  0
   58.4240   26.7510   45.2280 C   0  0  0  0  0  0  0  0  0  0  0  0
   59.6890   27.3350   45.3410 C   0  0  0  0  0  0  0  0  0  0  0  0
   59.8310   28.7250   45.2930 C   0  0  0  0  0  0  0  0  0  0  0  0
   58.7030   29.5390   45.1320 C   0  0  0  0  0  0  0  0  0  0  0  0
   58.8400   30.8890   45.0660 N   0  0  0  0  0  0  0  0  0  0  0  0
   59.7610   32.6930   46.4950 N   0  0  0  0  0  0  0  0  0  0  0  0
   60.8160   33.0690   47.4030 C   0  0  0  0  0  0  0  0  0  0  0  0
   61.9890   33.6750   46.9140 C   0  0  0  0  0  0  0  0  0  0  0  0
   63.0010   34.0730   47.7940 C   0  0  0  0  0  0  0  0  0  0  0  0
   62.8600   33.8630   49.1690 C   0  0  0  0  0  0  0  0  0  0  0  0
   61.7130   33.2380   49.6650 C   0  0  0  0  0  0  0  0  0  0  0  0
   60.6930   32.8260   48.7920 C   0  0  0  0  0  0  0  0  0  0  0  0
   59.4950   32.1750   49.3610 C   0  0  0  0  0  0  0  0  0  0  0  0
   58.9140   31.2800   48.6900 O   0  0  0  0  0  0  0  0  0  0  0  0
   59.0140   32.5170   50.6770 N   0  0  0  0  0  0  0  0  0  0  0  0
   58.4380   31.4680   51.5280 C   0  0  0  0  0  0  0  0  0  0  0  0
   57.4900   32.0840   52.5630 C   0  0  0  0  0  0  0  0  0  0  0  0
   58.1230   33.1430   53.2600 O   0  0  0  0  0  0  0  0  0  0  0  0
   58.3930   34.2050   52.3640 C   0  0  0  0  0  0  0  0  0  0  0  0
   59.4210   33.7790   51.3090 C   0  0  0  0  0  0  0  0  0  0  0  0
   57.0073   33.6897   45.0414 H   0  0  0  0  0  0  0  0  0  0  0  0
   58.2195   33.4172   43.7388 H   0  0  0  0  0  0  0  0  0  0  0  0
   56.2946   27.0926   44.9852 H   0  0  0  0  0  0  0  0  0  0  0  0
   58.3202   25.6565   45.2626 H   0  0  0  0  0  0  0  0  0  0  0  0
   60.5767   26.6980   45.4683 H   0  0  0  0  0  0  0  0  0  0  0  0
   60.8289   29.1793   45.3817 H   0  0  0  0  0  0  0  0  0  0  0  0
   59.4230   31.7050   46.5020 H   0  0  0  0  0  0  0  0  0  0  0  0
   62.1105   33.8366   45.8327 H   0  0  0  0  0  0  0  0  0  0  0  0
   63.9104   34.5526   47.4029 H   0  0  0  0  0  0  0  0  0  0  0  0
   63.6514   34.1895   49.8597 H   0  0  0  0  0  0  0  0  0  0  0  0
   61.6082   33.0675   50.7466 H   0  0  0  0  0  0  0  0  0  0  0  0
   57.8788   30.7582   50.9008 H   0  0  0  0  0  0  0  0  0  0  0  0
   59.2516   30.9465   52.0535 H   0  0  0  0  0  0  0  0  0  0  0  0
   56.5988   32.4730   52.0488 H   0  0  0  0  0  0  0  0  0  0  0  0
   57.2063   31.3061   53.2872 H   0  0  0  0  0  0  0  0  0  0  0  0
   57.4599   34.4982   51.8606 H   0  0  0  0  0  0  0  0  0  0  0  0
   58.8029   35.0518   52.9340 H   0  0  0  0  0  0  0  0  0  0  0  0
   59.4964   34.5617   50.5398 H   0  0  0  0  0  0  0  0  0  0  0  0
   60.3954   33.6346   51.7985 H   0  0  0  0  0  0  0  0  0  0  0  0
  1  2  2  0
  2  3  1  0
  3  4  1  0
  4  5  2  0
  5  6  1  0
  6  7  2  0
  6  8  1  0
  8  9  2  0
  9 10  1  0
 10 11  2  0
 11 12  1  0
 12 13  2  0
 13 14  1  0
  2 15  1  0
 15 16  1  0
 16 17  2  0
 17 18  1  0
 18 19  2  0
 19 20  1  0
 20 21  2  0
 21 22  1  0
 22 23  2  0
 22 24  1  0
 24 25  1  0
 25 26  1  0
 26 27  1  0
 27 28  1  0
 28 29  1  0
 14  4  1  0
 21 16  1  0
 29 24  1  0
 13  8  1  0
  3 30  1  0
  3 31  1  0
  9 32  1  0
 10 33  1  0
 11 34  1  0
 12 35  1  0
 15 36  1  0
 17 37  1  0
 18 38  1  0
 19 39  1  0
 20 40  1  0
 25 41  1  0
 25 42  1  0
 26 43  1  0
 26 44  1  0
 28 45  1  0
 28 46  1  0
 29 47  1  0
 29 48  1  0
M  CHG  1  14  -1
M  END
>  <UniqueID>  (85) 
80

>  <SMILES>  (85) 
O=C(Cc1nc(=O)c2ccccc2[n-]1)Nc1ccccc1C(=O)N1CCOCC1

>  <Energy>  (85) 
66.88532713527117

>  <Genealogy>  (85) 
O=C(Cc1nc(=O)c2ccccc2[n-]1)Nc1ccccc1C(=O)N1CCOCC1 (protonated)
O=C(Cc1nc(=O)c2ccccc2[n-]1)Nc1ccccc1C(=O)N1CCOCC1 (3D coordinates assigned)
O=C(Cc1nc(=O)c2ccccc2[n-]1)Nc1ccccc1C(=O)N1CCOCC1 (nonaromatic ring conformer: 66.88532713527117 kcal/mol)

>  <smiles>  (85) 
O=C(Cc1nc(=O)c2ccccc2[nH]1)Nc1ccccc1C(=O)N1CCOCC1

>  <score_type>  (85) 
oracle

>  <origin>  (85) 
adg

>  <m_score__min__energy>  (85) 
-10.279999999999999

>  <m_primary>  (85) 
energy

$$$$
85:0
     RDKit          3D

 29 30  0  0  0  0  0  0  0  0999 V2000
   51.9840   23.1110   45.4200 H   0  0  0  0  0  0  0  0  0  0  0  0
   52.9170   22.6460   45.3470 N   0  0  0  0  0  0  0  0  0  0  0  0
   54.0070   23.3320   45.2320 C   0  0  0  0  0  0  0  0  0  0  0  0
   54.0610   24.6140   45.6820 N   0  0  0  0  0  0  0  0  0  0  0  0
   55.1960   25.3550   45.5750 C   0  0  0  0  0  0  0  0  0  0  0  0
   55.1770   26.7170   46.0130 N   0  0  0  0  0  0  0  0  0  0  0  0
   55.2210   26.9730   47.0230 H   0  0  0  0  0  0  0  0  0  0  0  0
   55.1790   27.4890   45.3100 H   0  0  0  0  0  0  0  0  0  0  0  0
   56.3470   24.7800   45.0000 C   0  0  0  0  0  0  0  0  0  0  0  0
   57.5780   25.5080   44.8760 N   0  0  0  0  0  0  0  0  0  0  0  0
   58.3970   25.0050   44.4650 H   0  0  0  0  0  0  0  0  0  0  0  0
   57.7910   26.8210   45.4300 C   0  0  0  0  0  0  0  0  0  0  0  0
   58.3830   26.9990   46.6930 C   0  0  0  0  0  0  0  0  0  0  0  0
   58.6994   26.1226   47.2777 H   0  0  0  0  0  0  0  0  0  0  0  0
   58.5710   28.2820   47.2080 C   0  0  0  0  0  0  0  0  0  0  0  0
   59.0250   28.4128   48.2014 H   0  0  0  0  0  0  0  0  0  0  0  0
   58.1850   29.4000   46.4670 C   0  0  0  0  0  0  0  0  0  0  0  0
   58.3280   30.4074   46.8849 H   0  0  0  0  0  0  0  0  0  0  0  0
   57.6150   29.2490   45.1910 C   0  0  0  0  0  0  0  0  0  0  0  0
   57.2110   30.4460   44.4150 C   0  0  0  0  0  0  0  0  0  0  0  0
   56.8100   31.4770   45.0210 O   0  0  0  0  0  0  0  0  0  0  0  0
   57.2800   30.4700   42.9860 N   0  0  0  0  0  0  0  0  0  0  0  0
   57.7500   29.7120   42.4450 H   0  0  0  0  0  0  0  0  0  0  0  0
   56.9330   31.3040   42.4620 H   0  0  0  0  0  0  0  0  0  0  0  0
   57.4170   27.9500   44.6840 C   0  0  0  0  0  0  0  0  0  0  0  0
   56.9634   27.8183   43.6906 H   0  0  0  0  0  0  0  0  0  0  0  0
   56.2580   23.4650   44.5210 C   0  0  0  0  0  0  0  0  0  0  0  0
   57.2520   22.9140   43.9790 O   0  0  0  0  0  0  0  0  0  0  0  0
   55.0980   22.7720   44.6510 N   0  0  0  0  0  0  0  0  0  0  0  0
  1  2  1  0
  2  3  2  0
  3  4  1  0
  4  5  1  0
  5  6  1  0
  6  7  1  0
  6  8  1  0
  5  9  2  0
  9 10  1  0
 10 11  1  0
 10 12  1  0
 12 13  2  0
 13 14  1  0
 13 15  1  0
 15 16  1  0
 15 17  2  0
 17 18  1  0
 17 19  1  0
 19 20  1  0
 20 21  2  0
 20 22  1  0
 22 23  1  0
 22 24  1  0
 19 25  2  0
 25 26  1  0
  9 27  1  0
 27 28  2  0
 27 29  1  0
 29  3  1  0
 25 12  1  0
M  CHG  2   4  -1  29  -1
M  END
>  <UniqueID>  (86) 
81

>  <SMILES>  (86) 
[H]/N=c1\[n-]c(N)c(Nc2cccc(C(N)=O)c2)c(=O)[n-]1

>  <Energy>  (86) 
38.82567224631828

>  <Genealogy>  (86) 
N=c1[n-]c(N)c(Nc2cccc(C(N)=O)c2)c(=O)[n-]1 (protonated)
[H]/N=c1\[n-]c(N)c(Nc2cccc(C(N)=O)c2)c(=O)[n-]1 (cis-trans isomerization)
[H]/N=c1\[n-]c(N)c(Nc2cccc(C(N)=O)c2)c(=O)[n-]1 (3D coordinates assigned)
[H]/N=c1\[n-]c(N)c(Nc2cccc(C(N)=O)c2)c(=O)[n-]1 (optimized conformer: 38.82567224631828 kcal/mol)

>  <smiles>  (86) 
N=c1[nH]c(N)c(Nc2cccc(C(N)=O)c2)c(=O)[nH]1

>  <score_type>  (86) 
oracle

>  <origin>  (86) 
adg

>  <m_score__min__energy>  (86) 
-10.42

>  <m_primary>  (86) 
energy

$$$$
86:0
     RDKit          3D

 46 48  0  0  0  0  0  0  0  0999 V2000
   62.5510   33.5030   47.2320 C   0  0  0  0  0  0  0  0  0  0  0  0
   62.3190   32.0290   47.1640 C   0  0  0  0  0  0  0  0  0  0  0  0
   63.2710   31.2400   47.4130 O   0  0  0  0  0  0  0  0  0  0  0  0
   61.0430   31.5260   46.7370 N   0  0  0  0  0  0  0  0  0  0  0  0
   60.6260   30.1520   46.8550 C   0  0  0  0  0  0  0  0  0  0  0  0
   60.0640   29.6520   48.0430 C   0  0  0  0  0  0  0  0  0  0  0  0
   59.6270   28.3250   48.1160 C   0  0  0  0  0  0  0  0  0  0  0  0
   59.7330   27.4830   46.9980 C   0  0  0  0  0  0  0  0  0  0  0  0
   59.2330   26.0650   47.0590 C   0  0  0  0  0  0  0  0  0  0  0  0
   57.7990   26.0370   47.3280 N   0  0  0  0  0  0  0  0  0  0  0  0
   56.8200   26.6630   46.4930 C   0  0  0  0  0  0  0  0  0  0  0  0
   55.6690   26.1650   46.3730 O   0  0  0  0  0  0  0  0  0  0  0  0
   57.1600   27.9340   45.7800 C   0  0  0  0  0  0  0  0  0  0  0  0
   55.9510   28.5620   45.2350 N   0  0  0  0  0  0  0  0  0  0  0  0
   56.3030   29.4360   43.7710 S   0  0  0  0  0  0  0  0  0  0  0  0
   57.1600   28.5800   42.8800 O   0  0  0  0  0  0  0  0  0  0  0  0
   55.0190   29.7440   43.0490 O   0  0  0  0  0  0  0  0  0  0  0  0
   57.1740   30.9230   44.1350 C   0  0  0  0  0  0  0  0  0  0  0  0
   57.6080   31.7800   43.0920 C   0  0  0  0  0  0  0  0  0  0  0  0
   58.2590   32.9930   43.3870 C   0  0  0  0  0  0  0  0  0  0  0  0
   58.4550   33.3160   44.7260 C   0  0  0  0  0  0  0  0  0  0  0  0
   59.0190   34.4290   45.3090 C   0  0  0  0  0  0  0  0  0  0  0  0
   58.9110   34.2160   46.6810 C   0  0  0  0  0  0  0  0  0  0  0  0
   58.3140   33.0300   46.9370 N   0  0  0  0  0  0  0  0  0  0  0  0
   58.0400   32.4900   45.7370 C   0  0  0  0  0  0  0  0  0  0  0  0
   57.3990   31.2800   45.4800 C   0  0  0  0  0  0  0  0  0  0  0  0
   60.2750   27.9870   45.8060 C   0  0  0  0  0  0  0  0  0  0  0  0
   60.7130   29.3120   45.7350 C   0  0  0  0  0  0  0  0  0  0  0  0
   62.6006   33.8182   48.2847 H   0  0  0  0  0  0  0  0  0  0  0  0
   63.4988   33.7485   46.7307 H   0  0  0  0  0  0  0  0  0  0  0  0
   61.7244   34.0278   46.7307 H   0  0  0  0  0  0  0  0  0  0  0  0
   60.4000   32.1950   46.2540 H   0  0  0  0  0  0  0  0  0  0  0  0
   59.9673   30.3083   48.9204 H   0  0  0  0  0  0  0  0  0  0  0  0
   59.1987   27.9400   49.0532 H   0  0  0  0  0  0  0  0  0  0  0  0
   59.4299   25.5705   46.0963 H   0  0  0  0  0  0  0  0  0  0  0  0
   59.7564   25.5391   47.8711 H   0  0  0  0  0  0  0  0  0  0  0  0
   57.6399   28.6272   46.4865 H   0  0  0  0  0  0  0  0  0  0  0  0
   57.8432   27.7020   44.9497 H   0  0  0  0  0  0  0  0  0  0  0  0
   57.4346   31.4948   42.0439 H   0  0  0  0  0  0  0  0  0  0  0  0
   58.6015   33.6635   42.5850 H   0  0  0  0  0  0  0  0  0  0  0  0
   59.4599   35.2990   44.8004 H   0  0  0  0  0  0  0  0  0  0  0  0
   59.2634   34.9172   47.4517 H   0  0  0  0  0  0  0  0  0  0  0  0
   58.1000   32.6260   47.8770 H   0  0  0  0  0  0  0  0  0  0  0  0
   57.0781   30.6230   46.3019 H   0  0  0  0  0  0  0  0  0  0  0  0
   60.3555   27.3359   44.9231 H   0  0  0  0  0  0  0  0  0  0  0  0
   61.1293   29.6994   44.7934 H   0  0  0  0  0  0  0  0  0  0  0  0
  1  2  1  0
  2  3  2  0
  2  4  1  0
  4  5  1  0
  5  6  2  0
  6  7  1  0
  7  8  2  0
  8  9  1  0
  9 10  1  0
 10 11  1  0
 11 12  2  0
 11 13  1  0
 13 14  1  0
 14 15  1  0
 15 16  2  0
 15 17  2  0
 15 18  1  0
 18 19  2  0
 19 20  1  0
 20 21  2  0
 21 22  1  0
 22 23  2  0
 23 24  1  0
 24 25  1  0
 25 26  2  0
  8 27  1  0
 27 28  2  0
 28  5  1  0
 26 18  1  0
 25 21  1  0
  1 29  1  0
  1 30  1  0
  1 31  1  0
  4 32  1  0
  6 33  1  0
  7 34  1  0
  9 35  1  0
  9 36  1  0
 13 37  1  0
 13 38  1  0
 19 39  1  0
 20 40  1  0
 22 41  1  0
 23 42  1  0
 24 43  1  0
 26 44  1  0
 27 45  1  0
 28 46  1  0
M  CHG  2  10  -1  14  -1
M  END
>  <UniqueID>  (87) 
82

>  <SMILES>  (87) 
CC(=O)Nc1ccc(C[N-]C(=O)C[N-]S(=O)(=O)c2ccc3cc[nH]c3c2)cc1

>  <Energy>  (87) 
75.2643906901102

>  <Genealogy>  (87) 
CC(=O)Nc1ccc(C[N-]C(=O)C[N-]S(=O)(=O)c2ccc3cc[nH]c3c2)cc1 (protonated)
CC(=O)Nc1ccc(C[N-]C(=O)C[N-]S(=O)(=O)c2ccc3cc[nH]c3c2)cc1 (3D coordinates assigned)
CC(=O)Nc1ccc(C[N-]C(=O)C[N-]S(=O)(=O)c2ccc3cc[nH]c3c2)cc1 (optimized conformer: 75.2643906901102 kcal/mol)

>  <smiles>  (87) 
CC(=O)Nc1ccc(CNC(=O)CNS(=O)(=O)c2ccc3cc[nH]c3c2)cc1

>  <score_type>  (87) 
oracle

>  <origin>  (87) 
adg

>  <m_score__min__energy>  (87) 
-11.539999999999999

>  <m_primary>  (87) 
energy

$$$$
87:0
     RDKit          3D

 40 42  0  0  0  0  0  0  0  0999 V2000
   56.7050   34.0650   45.6300 O   0  0  0  0  0  0  0  0  0  0  0  0
   57.6980   33.6380   44.9850 C   0  0  0  0  0  0  0  0  0  0  0  0
   58.9880   34.4220   45.0480 C   0  0  0  0  0  0  0  0  0  0  0  0
   59.6980   34.2390   46.3680 C   0  0  0  0  0  0  0  0  0  0  0  0
   59.0050   34.4120   47.5800 C   0  0  0  0  0  0  0  0  0  0  0  0
   59.6640   34.2450   48.8010 C   0  0  0  0  0  0  0  0  0  0  0  0
   61.0140   33.8870   48.8250 C   0  0  0  0  0  0  0  0  0  0  0  0
   61.7050   33.6840   47.6280 C   0  0  0  0  0  0  0  0  0  0  0  0
   61.0500   33.8520   46.4030 C   0  0  0  0  0  0  0  0  0  0  0  0
   57.5680   32.3910   44.2790 N   0  0  0  0  0  0  0  0  0  0  0  0
   57.4700   31.2000   44.7910 C   0  0  0  0  0  0  0  0  0  0  0  0
   56.4240   30.3680   44.5920 N   0  0  0  0  0  0  0  0  0  0  0  0
   56.6030   29.1800   45.2230 C   0  0  0  0  0  0  0  0  0  0  0  0
   57.7930   29.0770   45.9260 C   0  0  0  0  0  0  0  0  0  0  0  0
   58.3680   27.6080   46.7740 S   0  0  0  0  0  0  0  0  0  0  0  0
   57.4930   26.4310   45.6810 C   0  0  0  0  0  0  0  0  0  0  0  0
   56.1720   26.0150   46.2490 C   0  0  0  0  0  0  0  0  0  0  0  0
   55.1430   26.7010   46.0040 O   0  0  0  0  0  0  0  0  0  0  0  0
   56.0870   24.8640   47.0960 N   0  0  0  0  0  0  0  0  0  0  0  0
   55.4350   23.6470   46.7130 C   0  0  0  0  0  0  0  0  0  0  0  0
   54.1220   23.6260   46.2040 C   0  0  0  0  0  0  0  0  0  0  0  0
   53.4030   24.7970   45.9680 O   0  0  0  0  0  0  0  0  0  0  0  0
   53.5420   22.4340   45.9020 N   0  0  0  0  0  0  0  0  0  0  0  0
   54.2100   21.2630   46.0590 C   0  0  0  0  0  0  0  0  0  0  0  0
   53.6470   20.1750   45.7740 O   0  0  0  0  0  0  0  0  0  0  0  0
   55.4870   21.2650   46.5170 N   0  0  0  0  0  0  0  0  0  0  0  0
   56.1130   22.4270   46.8400 C   0  0  0  0  0  0  0  0  0  0  0  0
   57.2980   22.3950   47.2650 O   0  0  0  0  0  0  0  0  0  0  0  0
   58.6490   30.5180   45.7770 S   0  0  0  0  0  0  0  0  0  0  0  0
   59.6503   34.0815   44.2384 H   0  0  0  0  0  0  0  0  0  0  0  0
   58.7426   35.4888   44.9396 H   0  0  0  0  0  0  0  0  0  0  0  0
   57.9383   34.6803   47.5665 H   0  0  0  0  0  0  0  0  0  0  0  0
   59.1189   34.3957   49.7445 H   0  0  0  0  0  0  0  0  0  0  0  0
   61.5333   33.7649   49.7870 H   0  0  0  0  0  0  0  0  0  0  0  0
   62.7653   33.3917   47.6485 H   0  0  0  0  0  0  0  0  0  0  0  0
   61.5949   33.6807   45.4629 H   0  0  0  0  0  0  0  0  0  0  0  0
   55.8645   28.3659   45.1801 H   0  0  0  0  0  0  0  0  0  0  0  0
   57.3251   26.9100   44.7051 H   0  0  0  0  0  0  0  0  0  0  0  0
   58.1182   25.5316   45.5801 H   0  0  0  0  0  0  0  0  0  0  0  0
   53.6640   25.6890   46.3670 H   0  0  0  0  0  0  0  0  0  0  0  0
  1  2  2  0
  2  3  1  0
  3  4  1  0
  4  5  2  0
  5  6  1  0
  6  7  2  0
  7  8  1  0
  8  9  2  0
  2 10  1  0
 10 11  2  3
 11 12  1  0
 12 13  1  0
 13 14  2  0
 14 15  1  0
 15 16  1  0
 16 17  1  0
 17 18  2  0
 17 19  1  0
 19 20  1  0
 20 21  2  0
 21 22  1  0
 21 23  1  0
 23 24  1  0
 24 25  2  0
 24 26  1  0
 26 27  1  0
 27 28  2  0
 14 29  1  0
  9  4  1  0
 29 11  1  0
 27 20  1  0
  3 30  1  0
  3 31  1  0
  5 32  1  0
  6 33  1  0
  7 34  1  0
  8 35  1  0
  9 36  1  0
 13 37  1  0
 16 38  1  0
 16 39  1  0
 22 40  1  0
M  CHG  4  12  -1  19  -1  23  -1  26  -1
M  END
>  <UniqueID>  (88) 
83

>  <SMILES>  (88) 
O=C(Cc1ccccc1)N=c1[n-]cc(SCC(=O)[N-]c2c(O)[n-]c(=O)[n-]c2=O)s1

>  <Energy>  (88) 
77.38699472611731

>  <Genealogy>  (88) 
O=C(Cc1ccccc1)N=c1[n-]cc(SCC(=O)[N-]c2c(O)[n-]c(=O)[n-]c2=O)s1 (protonated)
O=C(Cc1ccccc1)N=c1[n-]cc(SCC(=O)[N-]c2c(O)[n-]c(=O)[n-]c2=O)s1 (3D coordinates assigned)
O=C(Cc1ccccc1)N=c1[n-]cc(SCC(=O)[N-]c2c(O)[n-]c(=O)[n-]c2=O)s1 (optimized conformer: 77.38699472611731 kcal/mol)

>  <smiles>  (88) 
O=C(Cc1ccccc1)N=c1[nH]cc(SCC(=O)Nc2c(O)[nH]c(=O)[nH]c2=O)s1

>  <score_type>  (88) 
oracle

>  <origin>  (88) 
adg

>  <m_score__min__energy>  (88) 
-15.76

>  <m_primary>  (88) 
energy

$$$$
88:0
     RDKit          3D

 44 46  0  0  0  0  0  0  0  0999 V2000
   59.6390   26.3930   45.2430 O   0  0  0  0  0  0  0  0  0  0  0  0
   58.6220   26.7720   45.8850 C   0  0  0  0  0  0  0  0  0  0  0  0
   58.2100   26.0750   47.1530 C   0  0  0  0  0  0  0  0  0  0  0  0
   58.4930   24.6390   47.0810 N   0  0  0  0  0  0  0  0  0  0  0  0
   57.0300   23.7180   46.8920 S   0  0  0  0  0  0  0  0  0  0  0  0
   55.8490   24.5820   47.2350 O   0  0  0  0  0  0  0  0  0  0  0  0
   57.0580   22.5510   47.8370 O   0  0  0  0  0  0  0  0  0  0  0  0
   56.8810   23.1130   45.2420 C   0  0  0  0  0  0  0  0  0  0  0  0
   56.0330   23.7650   44.3350 C   0  0  0  0  0  0  0  0  0  0  0  0
   55.9130   23.2930   43.0240 C   0  0  0  0  0  0  0  0  0  0  0  0
   56.6390   22.1720   42.6130 C   0  0  0  0  0  0  0  0  0  0  0  0
   57.4830   21.5170   43.5140 C   0  0  0  0  0  0  0  0  0  0  0  0
   57.6020   21.9830   44.8280 C   0  0  0  0  0  0  0  0  0  0  0  0
   57.8140   27.8890   45.3610 C   0  0  0  0  0  0  0  0  0  0  0  0
   58.4090   29.0370   44.8000 C   0  0  0  0  0  0  0  0  0  0  0  0
   59.7960   29.1060   44.6250 O   0  0  0  0  0  0  0  0  0  0  0  0
   57.6250   30.0900   44.3960 N   0  0  0  0  0  0  0  0  0  0  0  0
   58.2600   31.3150   43.8700 C   0  0  0  0  0  0  0  0  0  0  0  0
   58.4320   32.3320   44.9690 C   0  0  0  0  0  0  0  0  0  0  0  0
   58.1860   31.9830   46.3090 C   0  0  0  0  0  0  0  0  0  0  0  0
   58.3180   32.9390   47.3210 C   0  0  0  0  0  0  0  0  0  0  0  0
   58.6910   34.2470   47.0060 C   0  0  0  0  0  0  0  0  0  0  0  0
   58.9340   34.6030   45.6770 C   0  0  0  0  0  0  0  0  0  0  0  0
   58.8040   33.6510   44.6600 C   0  0  0  0  0  0  0  0  0  0  0  0
   56.2590   30.0070   44.5090 C   0  0  0  0  0  0  0  0  0  0  0  0
   55.5200   30.9600   44.1440 O   0  0  0  0  0  0  0  0  0  0  0  0
   55.6800   28.8890   45.0120 N   0  0  0  0  0  0  0  0  0  0  0  0
   56.4180   27.8370   45.4350 C   0  0  0  0  0  0  0  0  0  0  0  0
   55.8340   26.8220   45.9000 O   0  0  0  0  0  0  0  0  0  0  0  0
   58.7649   26.5087   47.9980 H   0  0  0  0  0  0  0  0  0  0  0  0
   57.1272   26.2114   47.2910 H   0  0  0  0  0  0  0  0  0  0  0  0
   55.4616   24.6487   44.6551 H   0  0  0  0  0  0  0  0  0  0  0  0
   55.2459   23.8052   42.3151 H   0  0  0  0  0  0  0  0  0  0  0  0
   56.5462   21.8051   41.5802 H   0  0  0  0  0  0  0  0  0  0  0  0
   58.0542   20.6345   43.1900 H   0  0  0  0  0  0  0  0  0  0  0  0
   58.2620   21.4625   45.5375 H   0  0  0  0  0  0  0  0  0  0  0  0
   60.4000   28.2960   44.6580 H   0  0  0  0  0  0  0  0  0  0  0  0
   59.2460   31.0617   43.4532 H   0  0  0  0  0  0  0  0  0  0  0  0
   57.6165   31.7420   43.0867 H   0  0  0  0  0  0  0  0  0  0  0  0
   57.8888   30.9546   46.5619 H   0  0  0  0  0  0  0  0  0  0  0  0
   58.1275   32.6598   48.3678 H   0  0  0  0  0  0  0  0  0  0  0  0
   58.7935   34.9971   47.8040 H   0  0  0  0  0  0  0  0  0  0  0  0
   59.2281   35.6337   45.4298 H   0  0  0  0  0  0  0  0  0  0  0  0
   58.9937   33.9363   43.6147 H   0  0  0  0  0  0  0  0  0  0  0  0
  1  2  2  0
  2  3  1  0
  3  4  1  0
  4  5  1  0
  5  6  2  0
  5  7  2  0
  5  8  1  0
  8  9  2  0
  9 10  1  0
 10 11  2  0
 11 12  1  0
 12 13  2  0
  2 14  1  0
 14 15  2  0
 15 16  1  0
 15 17  1  0
 17 18  1  0
 18 19  1  0
 19 20  2  0
 20 21  1  0
 21 22  2  0
 22 23  1  0
 23 24  2  0
 17 25  1  0
 25 26  2  0
 25 27  1  0
 27 28  1  0
 28 29  2  0
 13  8  1  0
 28 14  1  0
 24 19  1  0
  3 30  1  0
  3 31  1  0
  9 32  1  0
 10 33  1  0
 11 34  1  0
 12 35  1  0
 13 36  1  0
 16 37  1  0
 18 38  1  0
 18 39  1  0
 20 40  1  0
 21 41  1  0
 22 42  1  0
 23 43  1  0
 24 44  1  0
M  CHG  2   4  -1  27  -1
M  END
>  <UniqueID>  (89) 
84

>  <SMILES>  (89) 
O=C(C[N-]S(=O)(=O)c1ccccc1)c1c(O)n(Cc2ccccc2)c(=O)[n-]c1=O

>  <Energy>  (89) 
57.44196648061635

>  <Genealogy>  (89) 
O=C(C[N-]S(=O)(=O)c1ccccc1)c1c(O)n(Cc2ccccc2)c(=O)[n-]c1=O (protonated)
O=C(C[N-]S(=O)(=O)c1ccccc1)c1c(O)n(Cc2ccccc2)c(=O)[n-]c1=O (3D coordinates assigned)
O=C(C[N-]S(=O)(=O)c1ccccc1)c1c(O)n(Cc2ccccc2)c(=O)[n-]c1=O (optimized conformer: 57.44196648061635 kcal/mol)

>  <smiles>  (89) 
O=C(CNS(=O)(=O)c1ccccc1)c1c(O)n(Cc2ccccc2)c(=O)[nH]c1=O

>  <score_type>  (89) 
oracle

>  <origin>  (89) 
adg

>  <m_score__min__energy>  (89) 
-12.710000000000001

>  <m_primary>  (89) 
energy

$$$$
89:0
     RDKit          3D

 43 45  0  0  0  0  0  0  0  0999 V2000
   56.5500   29.4720   43.5920 O   0  0  0  0  0  0  0  0  0  0  0  0
   56.9980   29.9980   44.6460 C   0  0  0  0  0  0  0  0  0  0  0  0
   57.8400   29.1920   45.5830 C   0  0  0  0  0  0  0  0  0  0  0  0
   57.1770   27.8780   45.8800 C   0  0  0  0  0  0  0  0  0  0  0  0
   55.8890   27.6240   45.5810 N   0  0  0  0  0  0  0  0  0  0  0  0
   55.6860   26.3900   46.0810 C   0  0  0  0  0  0  0  0  0  0  0  0
   54.5810   25.7960   45.9940 O   0  0  0  0  0  0  0  0  0  0  0  0
   56.7580   25.8460   46.6890 N   0  0  0  0  0  0  0  0  0  0  0  0
   57.7070   26.7910   46.5640 C   0  0  0  0  0  0  0  0  0  0  0  0
   59.0650   26.6360   47.1100 C   0  0  0  0  0  0  0  0  0  0  0  0
   59.8890   25.8500   46.5700 O   0  0  0  0  0  0  0  0  0  0  0  0
   59.4450   27.3880   48.2680 N   0  0  0  0  0  0  0  0  0  0  0  0
   58.8910   28.6960   48.5970 C   0  0  0  0  0  0  0  0  0  0  0  0
   59.9510   29.7560   48.4820 C   0  0  0  0  0  0  0  0  0  0  0  0
   60.3780   30.4490   49.6260 C   0  0  0  0  0  0  0  0  0  0  0  0
   61.3800   31.4200   49.5290 C   0  0  0  0  0  0  0  0  0  0  0  0
   61.9650   31.7010   48.2900 C   0  0  0  0  0  0  0  0  0  0  0  0
   61.5490   31.0110   47.1480 C   0  0  0  0  0  0  0  0  0  0  0  0
   60.5470   30.0390   47.2410 C   0  0  0  0  0  0  0  0  0  0  0  0
   56.7180   31.3700   44.9450 N   0  0  0  0  0  0  0  0  0  0  0  0
   57.4890   32.4750   44.3920 C   0  0  0  0  0  0  0  0  0  0  0  0
   58.2260   33.1790   45.4990 C   0  0  0  0  0  0  0  0  0  0  0  0
   58.0960   32.7520   46.8320 C   0  0  0  0  0  0  0  0  0  0  0  0
   58.7410   33.4470   47.8600 C   0  0  0  0  0  0  0  0  0  0  0  0
   59.5110   34.5760   47.5670 C   0  0  0  0  0  0  0  0  0  0  0  0
   59.6350   35.0140   46.2450 C   0  0  0  0  0  0  0  0  0  0  0  0
   58.9940   34.3210   45.2150 C   0  0  0  0  0  0  0  0  0  0  0  0
   58.8213   29.0072   45.1215 H   0  0  0  0  0  0  0  0  0  0  0  0
   57.9646   29.7504   46.5225 H   0  0  0  0  0  0  0  0  0  0  0  0
   58.0698   28.9273   47.9026 H   0  0  0  0  0  0  0  0  0  0  0  0
   58.5161   28.6758   49.6309 H   0  0  0  0  0  0  0  0  0  0  0  0
   59.9227   30.2274   50.6025 H   0  0  0  0  0  0  0  0  0  0  0  0
   61.7081   31.9630   50.4276 H   0  0  0  0  0  0  0  0  0  0  0  0
   62.7526   32.4652   48.2144 H   0  0  0  0  0  0  0  0  0  0  0  0
   62.0102   31.2326   46.1743 H   0  0  0  0  0  0  0  0  0  0  0  0
   60.2249   29.4950   46.3408 H   0  0  0  0  0  0  0  0  0  0  0  0
   58.2121   32.0867   43.6597 H   0  0  0  0  0  0  0  0  0  0  0  0
   56.8089   33.1838   43.8970 H   0  0  0  0  0  0  0  0  0  0  0  0
   57.4849   31.8682   47.0673 H   0  0  0  0  0  0  0  0  0  0  0  0
   58.6422   33.1046   48.9007 H   0  0  0  0  0  0  0  0  0  0  0  0
   60.0195   35.1201   48.3766 H   0  0  0  0  0  0  0  0  0  0  0  0
   60.2378   35.9051   46.0156 H   0  0  0  0  0  0  0  0  0  0  0  0
   59.0910   34.6710   44.1767 H   0  0  0  0  0  0  0  0  0  0  0  0
  1  2  2  0
  2  3  1  0
  3  4  1  0
  4  5  1  0
  5  6  1  0
  6  7  2  0
  6  8  1  0
  8  9  1  0
  9 10  1  0
 10 11  2  0
 10 12  1  0
 12 13  1  0
 13 14  1  0
 14 15  2  0
 15 16  1  0
 16 17  2  0
 17 18  1  0
 18 19  2  0
  2 20  1  0
 20 21  1  0
 21 22  1  0
 22 23  2  0
 23 24  1  0
 24 25  2  0
 25 26  1  0
 26 27  2  0
  9  4  2  0
 19 14  1  0
 27 22  1  0
  3 28  1  0
  3 29  1  0
 13 30  1  0
 13 31  1  0
 15 32  1  0
 16 33  1  0
 17 34  1  0
 18 35  1  0
 19 36  1  0
 21 37  1  0
 21 38  1  0
 23 39  1  0
 24 40  1  0
 25 41  1  0
 26 42  1  0
 27 43  1  0
M  CHG  4   5  -1   8  -1  12  -1  20  -1
M  END
>  <UniqueID>  (90) 
85

>  <SMILES>  (90) 
O=C(Cc1[n-]c(=O)[n-]c1C(=O)[N-]Cc1ccccc1)[N-]Cc1ccccc1

>  <Energy>  (90) 
63.921701406498464

>  <Genealogy>  (90) 
O=C(Cc1[n-]c(=O)[n-]c1C(=O)[N-]Cc1ccccc1)[N-]Cc1ccccc1 (protonated)
O=C(Cc1[n-]c(=O)[n-]c1C(=O)[N-]Cc1ccccc1)[N-]Cc1ccccc1 (3D coordinates assigned)
O=C(Cc1[n-]c(=O)[n-]c1C(=O)[N-]Cc1ccccc1)[N-]Cc1ccccc1 (optimized conformer: 63.921701406498464 kcal/mol)

>  <smiles>  (90) 
O=C(Cc1[nH]c(=O)[nH]c1C(=O)NCc1ccccc1)NCc1ccccc1

>  <score_type>  (90) 
oracle

>  <origin>  (90) 
adg

>  <m_score__min__energy>  (90) 
-14.84

>  <m_primary>  (90) 
energy

$$$$
90:0
     RDKit          3D

 66 70  0  0  0  0  0  0  0  0999 V2000
   61.2759   30.2376   47.3863 H   0  0  0  0  0  0  0  0  0  0  0  0
   60.3360   30.1890   46.8170 C   0  0  0  0  0  0  0  0  0  0  0  0
   59.8632   29.2159   46.6181 H   0  0  0  0  0  0  0  0  0  0  0  0
   59.7660   31.3170   46.3650 C   0  0  0  0  0  0  0  0  0  0  0  0
   58.5770   31.4380   45.6280 C   0  0  0  0  0  0  0  0  0  0  0  0
   57.7880   30.5040   45.0620 C   0  0  0  0  0  0  0  0  0  0  0  0
   57.3397   30.7465   44.0872 H   0  0  0  0  0  0  0  0  0  0  0  0
   57.4760   29.1880   45.6380 C   0  0  0  0  0  0  0  0  0  0  0  0
   58.3810   28.3760   46.2160 N   0  0  0  0  0  0  0  0  0  0  0  0
   57.6900   27.2330   46.4160 C   0  0  0  0  0  0  0  0  0  0  0  0
   58.2040   26.2140   46.9490 O   0  0  0  0  0  0  0  0  0  0  0  0
   56.4130   27.2600   45.9770 N   0  0  0  0  0  0  0  0  0  0  0  0
   56.3000   28.5000   45.4750 C   0  0  0  0  0  0  0  0  0  0  0  0
   55.1480   28.9930   44.8740 O   0  0  0  0  0  0  0  0  0  0  0  0
   58.3110   32.7950   45.5420 C   0  0  0  0  0  0  0  0  0  0  0  0
   57.4354   33.2622   45.0676 H   0  0  0  0  0  0  0  0  0  0  0  0
   59.3540   33.4480   46.1650 C   0  0  0  0  0  0  0  0  0  0  0  0
   59.4960   34.9340   46.2800 C   0  0  0  0  0  0  0  0  0  0  0  0
   59.5232   35.2186   47.3422 H   0  0  0  0  0  0  0  0  0  0  0  0
   60.4286   35.2521   45.7911 H   0  0  0  0  0  0  0  0  0  0  0  0
   58.6405   35.4230   45.7911 H   0  0  0  0  0  0  0  0  0  0  0  0
   60.2290   32.5560   46.6700 N   0  0  0  0  0  0  0  0  0  0  0  0
   61.3990   32.8820   47.4410 C   0  0  0  0  0  0  0  0  0  0  0  0
   62.6510   32.8690   46.8100 C   0  0  0  0  0  0  0  0  0  0  0  0
   62.7191   32.6340   45.7376 H   0  0  0  0  0  0  0  0  0  0  0  0
   63.8120   33.1520   47.5320 C   0  0  0  0  0  0  0  0  0  0  0  0
   64.7905   33.1353   47.0297 H   0  0  0  0  0  0  0  0  0  0  0  0
   63.7300   33.4560   48.8910 C   0  0  0  0  0  0  0  0  0  0  0  0
   64.6443   33.6836   49.4587 H   0  0  0  0  0  0  0  0  0  0  0  0
   62.4900   33.4720   49.5320 C   0  0  0  0  0  0  0  0  0  0  0  0
   62.4347   33.7115   50.6042 H   0  0  0  0  0  0  0  0  0  0  0  0
   61.3100   33.1850   48.8210 C   0  0  0  0  0  0  0  0  0  0  0  0
   59.9980   33.2340   49.5180 C   0  0  0  0  0  0  0  0  0  0  0  0
   59.2280   34.2150   49.3070 O   0  0  0  0  0  0  0  0  0  0  0  0
   59.5970   32.1900   50.4390 N   0  0  1  0  0  0  0  0  0  0  0  0
   60.4390   31.8330   50.9540 H   0  0  0  0  0  0  0  0  0  0  0  0
   58.6190   32.7270   51.4000 C   0  0  0  0  0  0  0  0  0  0  0  0
   57.7122   33.0247   50.8531 H   0  0  0  0  0  0  0  0  0  0  0  0
   59.0821   33.5862   51.9072 H   0  0  0  0  0  0  0  0  0  0  0  0
   58.2320   31.6960   52.4770 C   0  0  0  0  0  0  0  0  0  0  0  0
   57.1589   31.8139   52.6882 H   0  0  0  0  0  0  0  0  0  0  0  0
   58.8809   31.9048   53.3403 H   0  0  0  0  0  0  0  0  0  0  0  0
   58.4860   30.2050   52.1040 C   0  0  1  0  0  0  0  0  0  0  0  0
   59.4685   30.0080   52.5577 H   0  0  0  0  0  0  0  0  0  0  0  0
   57.4280   29.3000   52.7080 C   0  0  0  0  0  0  0  0  0  0  0  0
   57.8110   28.2270   53.2540 O   0  0  0  0  0  0  0  0  0  0  0  0
   56.0140   29.6260   52.6950 N   0  0  0  0  0  0  0  0  0  0  0  0
   55.0890   28.8230   53.5090 C   0  0  0  0  0  0  0  0  0  0  0  0
   54.7680   27.9428   52.9326 H   0  0  0  0  0  0  0  0  0  0  0  0
   55.6035   28.5030   54.4271 H   0  0  0  0  0  0  0  0  0  0  0  0
   53.8610   29.6550   53.8880 C   0  0  0  0  0  0  0  0  0  0  0  0
   53.1249   29.0051   54.3839 H   0  0  0  0  0  0  0  0  0  0  0  0
   54.1789   30.4621   54.5644 H   0  0  0  0  0  0  0  0  0  0  0  0
   53.2700   30.2330   52.7430 O   0  0  0  0  0  0  0  0  0  0  0  0
   54.1640   31.1650   52.1640 C   0  0  0  0  0  0  0  0  0  0  0  0
   53.6614   31.6747   51.3288 H   0  0  0  0  0  0  0  0  0  0  0  0
   54.4618   31.8911   52.9348 H   0  0  0  0  0  0  0  0  0  0  0  0
   55.4220   30.4650   51.6400 C   0  0  0  0  0  0  0  0  0  0  0  0
   55.1547   29.8329   50.7803 H   0  0  0  0  0  0  0  0  0  0  0  0
   56.1547   31.2260   51.3333 H   0  0  0  0  0  0  0  0  0  0  0  0
   58.7260   29.8640   50.6060 C   0  0  0  0  0  0  0  0  0  0  0  0
   57.8344   29.3421   50.2283 H   0  0  0  0  0  0  0  0  0  0  0  0
   59.6390   29.2513   50.5739 H   0  0  0  0  0  0  0  0  0  0  0  0
   58.9900   31.0710   49.6980 C   0  0  0  0  0  0  0  0  0  0  0  0
   58.0360   31.4064   49.2651 H   0  0  0  0  0  0  0  0  0  0  0  0
   59.6933   30.7600   48.9114 H   0  0  0  0  0  0  0  0  0  0  0  0
  1  2  1  0
  2  3  1  0
  2  4  2  0
  4  5  1  0
  5  6  2  0
  6  7  1  0
  6  8  1  0
  8  9  1  0
  9 10  1  0
 10 11  2  0
 10 12  1  0
 12 13  1  0
 13 14  1  0
  5 15  1  0
 15 16  1  0
 15 17  2  0
 17 18  1  0
 18 19  1  0
 18 20  1  0
 18 21  1  0
 17 22  1  0
 22 23  1  0
 23 24  2  0
 24 25  1  0
 24 26  1  0
 26 27  1  0
 26 28  2  0
 28 29  1  0
 28 30  1  0
 30 31  1  0
 30 32  2  0
 32 33  1  0
 33 34  2  0
 33 35  1  0
 35 36  1  6
 35 37  1  0
 37 38  1  0
 37 39  1  0
 37 40  1  0
 40 41  1  0
 40 42  1  0
 40 43  1  0
 43 44  1  6
 43 45  1  0
 45 46  2  0
 45 47  1  0
 47 48  1  0
 48 49  1  0
 48 50  1  0
 48 51  1  0
 51 52  1  0
 51 53  1  0
 51 54  1  0
 54 55  1  0
 55 56  1  0
 55 57  1  0
 55 58  1  0
 58 59  1  0
 58 60  1  0
 43 61  1  0
 61 62  1  0
 61 63  1  0
 61 64  1  0
 64 65  1  0
 64 66  1  0
 22  4  1  0
 32 23  1  0
 64 35  1  0
 13  8  2  0
 58 47  1  0
M  CHG  4   9  -1  12  -1  14  -1  35   1
M  END
>  <UniqueID>  (91) 
86

>  <SMILES>  (91) 
C=c1/c(=C\c2[n-]c(=O)[n-]c2[O-])cc(C)n1-c1ccccc1C(=O)[NH+]1CCC(C(=O)N2CCOCC2)CC1

>  <Energy>  (91) 
164.09787985492807

>  <Genealogy>  (91) 
C=c1c(=Cc2[n-]c(=O)[n-]c2[O-])cc(C)n1-c1ccccc1C(=O)[NH+]1CCC(C(=O)N2CCOCC2)CC1 (protonated)
C=c1/c(=C\c2[n-]c(=O)[n-]c2[O-])cc(C)n1-c1ccccc1C(=O)[NH+]1CCC(C(=O)N2CCOCC2)CC1 (cis-trans isomerization)
C=c1/c(=C\c2[n-]c(=O)[n-]c2[O-])cc(C)n1-c1ccccc1C(=O)[NH+]1CCC(C(=O)N2CCOCC2)CC1 (3D coordinates assigned)
C=c1/c(=C\c2[n-]c(=O)[n-]c2[O-])cc(C)n1-c1ccccc1C(=O)[NH+]1CCC(C(=O)N2CCOCC2)CC1 (nonaromatic ring conformer: 164.09787985492807 kcal/mol)

>  <smiles>  (91) 
C=c1c(=Cc2[nH]c(=O)[nH]c2O)cc(C)n1-c1ccccc1C(=O)N1CCC(C(=O)N2CCOCC2)CC1

>  <score_type>  (91) 
oracle

>  <origin>  (91) 
adg

>  <m_score__min__energy>  (91) 
-16.23

>  <m_primary>  (91) 
energy

$$$$
91:0
     RDKit          3D

 57 60  0  0  0  0  0  0  0  0999 V2000
   56.8900   27.8330   53.7080 C   0  0  0  0  0  0  0  0  0  0  0  0
   55.4010   27.8840   53.5170 C   0  0  0  0  0  0  0  0  0  0  0  0
   54.7300   26.7860   53.7220 N   0  0  0  0  0  0  0  0  0  0  0  0
   53.3030   26.7350   53.6350 C   0  0  0  0  0  0  0  0  0  0  0  0
   52.6810   25.7070   54.0050 O   0  0  0  0  0  0  0  0  0  0  0  0
   52.5900   27.8650   53.1360 N   0  0  0  0  0  0  0  0  0  0  0  0
   53.3450   28.9320   52.4890 C   0  0  1  0  0  0  0  0  0  0  0  0
   52.4940   30.1770   52.3710 C   0  0  0  0  0  0  0  0  0  0  0  0
   52.1160   30.9030   53.5140 C   0  0  0  0  0  0  0  0  0  0  0  0
   51.3790   32.0830   53.3900 C   0  0  0  0  0  0  0  0  0  0  0  0
   51.0220   32.5600   52.1250 C   0  0  0  0  0  0  0  0  0  0  0  0
   50.2950   33.7390   52.0110 O   0  0  0  0  0  0  0  0  0  0  0  0
   51.4000   31.8530   50.9770 C   0  0  0  0  0  0  0  0  0  0  0  0
   51.0540   32.3400   49.7170 O   0  0  0  0  0  0  0  0  0  0  0  0
   52.1300   30.6620   51.1020 C   0  0  0  0  0  0  0  0  0  0  0  0
   54.6600   29.1990   53.2720 C   0  0  2  0  0  0  0  0  0  0  0  0
   55.5040   30.2160   52.5440 C   0  0  0  0  0  0  0  0  0  0  0  0
   55.0450   30.7850   51.5180 O   0  0  0  0  0  0  0  0  0  0  0  0
   56.8060   30.5500   53.0380 N   0  0  0  0  0  0  0  0  0  0  0  0
   57.6310   31.6290   52.5770 C   0  0  0  0  0  0  0  0  0  0  0  0
   57.9540   32.7260   53.3950 C   0  0  0  0  0  0  0  0  0  0  0  0
   58.6950   33.7940   52.8810 C   0  0  0  0  0  0  0  0  0  0  0  0
   59.0900   33.7910   51.5420 C   0  0  0  0  0  0  0  0  0  0  0  0
   58.7340   32.7250   50.7050 C   0  0  0  0  0  0  0  0  0  0  0  0
   59.1780   32.7500   48.9990 S   0  0  0  0  0  0  0  0  0  0  0  0
   57.9230   32.7840   48.1720 O   0  0  0  0  0  0  0  0  0  0  0  0
   59.9030   31.4740   48.6730 O   0  0  0  0  0  0  0  0  0  0  0  0
   60.1990   34.1060   48.5660 N   0  0  0  0  0  0  0  0  0  0  0  0
   60.2430   34.3930   47.1180 C   0  0  0  0  0  0  0  0  0  0  0  0
   61.3470   33.6270   46.3740 C   0  0  0  0  0  0  0  0  0  0  0  0
   62.6960   33.8100   47.0590 C   0  0  0  0  0  0  0  0  0  0  0  0
   62.6060   33.3640   48.5130 C   0  0  0  0  0  0  0  0  0  0  0  0
   61.5060   34.1360   49.2550 C   0  0  0  0  0  0  0  0  0  0  0  0
   58.0290   31.6370   51.2340 C   0  0  0  0  0  0  0  0  0  0  0  0
   57.1217   27.8251   54.7833 H   0  0  0  0  0  0  0  0  0  0  0  0
   57.2886   26.9207   53.2403 H   0  0  0  0  0  0  0  0  0  0  0  0
   57.3501   28.7159   53.2403 H   0  0  0  0  0  0  0  0  0  0  0  0
   53.6191   28.6233   51.4694 H   0  0  0  0  0  0  0  0  0  0  0  0
   52.4024   30.5396   54.5120 H   0  0  0  0  0  0  0  0  0  0  0  0
   51.0785   32.6388   54.2904 H   0  0  0  0  0  0  0  0  0  0  0  0
   51.7170   32.3500   48.9530 H   0  0  0  0  0  0  0  0  0  0  0  0
   52.4202   30.1027   50.2003 H   0  0  0  0  0  0  0  0  0  0  0  0
   54.4243   29.6259   54.2580 H   0  0  0  0  0  0  0  0  0  0  0  0
   57.6223   32.7439   54.4436 H   0  0  0  0  0  0  0  0  0  0  0  0
   58.9672   34.6377   53.5322 H   0  0  0  0  0  0  0  0  0  0  0  0
   59.6823   34.6276   51.1429 H   0  0  0  0  0  0  0  0  0  0  0  0
   59.2725   34.1183   46.6791 H   0  0  0  0  0  0  0  0  0  0  0  0
   60.4628   35.4651   47.0076 H   0  0  0  0  0  0  0  0  0  0  0  0
   61.0940   32.5566   46.3581 H   0  0  0  0  0  0  0  0  0  0  0  0
   61.4179   34.0217   45.3497 H   0  0  0  0  0  0  0  0  0  0  0  0
   63.4538   33.2058   46.5387 H   0  0  0  0  0  0  0  0  0  0  0  0
   62.9780   34.8726   47.0237 H   0  0  0  0  0  0  0  0  0  0  0  0
   62.3767   32.2887   48.5465 H   0  0  0  0  0  0  0  0  0  0  0  0
   63.5697   33.5664   49.0033 H   0  0  0  0  0  0  0  0  0  0  0  0
   61.3832   33.6932   50.2544 H   0  0  0  0  0  0  0  0  0  0  0  0
   61.8236   35.1881   49.3016 H   0  0  0  0  0  0  0  0  0  0  0  0
   57.7853   30.7802   50.5886 H   0  0  0  0  0  0  0  0  0  0  0  0
  1  2  1  0
  2  3  2  0
  3  4  1  0
  4  5  2  0
  4  6  1  0
  6  7  1  0
  7  8  1  0
  8  9  2  0
  9 10  1  0
 10 11  2  0
 11 12  1  0
 11 13  1  0
 13 14  1  0
 13 15  2  0
  7 16  1  0
 16 17  1  0
 17 18  2  0
 17 19  1  0
 19 20  1  0
 20 21  2  0
 21 22  1  0
 22 23  2  0
 23 24  1  0
 24 25  1  0
 25 26  2  0
 25 27  2  0
 25 28  1  0
 28 29  1  0
 29 30  1  0
 30 31  1  0
 31 32  1  0
 32 33  1  0
 24 34  2  0
 16  2  1  0
 34 20  1  0
 15  8  1  0
 33 28  1  0
  1 35  1  0
  1 36  1  0
  1 37  1  0
  7 38  1  6
  9 39  1  0
 10 40  1  0
 14 41  1  0
 15 42  1  0
 16 43  1  1
 21 44  1  0
 22 45  1  0
 23 46  1  0
 29 47  1  0
 29 48  1  0
 30 49  1  0
 30 50  1  0
 31 51  1  0
 31 52  1  0
 32 53  1  0
 32 54  1  0
 33 55  1  0
 33 56  1  0
 34 57  1  0
M  CHG  3   6  -1  12  -1  19  -1
M  END
>  <UniqueID>  (92) 
87

>  <SMILES>  (92) 
CC1=NC(=O)[N-][C@@H](c2ccc([O-])c(O)c2)[C@@H]1C(=O)[N-]c1cccc(S(=O)(=O)N2CCCCC2)c1

>  <Energy>  (92) 
61.74043036063227

>  <Genealogy>  (92) 
CC1=NC(=O)[N-]C(c2ccc([O-])c(O)c2)C1C(=O)[N-]c1cccc(S(=O)(=O)N2CCCCC2)c1 (protonated)
CC1=NC(=O)[N-][C@@H](c2ccc([O-])c(O)c2)[C@@H]1C(=O)[N-]c1cccc(S(=O)(=O)N2CCCCC2)c1 (chirality)
CC1=NC(=O)[N-][C@@H](c2ccc([O-])c(O)c2)[C@@H]1C(=O)[N-]c1cccc(S(=O)(=O)N2CCCCC2)c1 (3D coordinates assigned)
CC1=NC(=O)[N-][C@@H](c2ccc([O-])c(O)c2)[C@@H]1C(=O)[N-]c1cccc(S(=O)(=O)N2CCCCC2)c1 (nonaromatic ring conformer: 61.74043036063227 kcal/mol)

>  <smiles>  (92) 
CC1=NC(=O)NC(c2ccc(O)c(O)c2)C1C(=O)Nc1cccc(S(=O)(=O)N2CCCCC2)c1

>  <score_type>  (92) 
oracle

>  <origin>  (92) 
adg

>  <m_score__min__energy>  (92) 
-16.309999999999999

>  <m_primary>  (92) 
energy

$$$$
92:0
     RDKit          3D

 47 49  0  0  0  0  0  0  0  0999 V2000
   54.8947   28.3067   53.8413 H   0  0  0  0  0  0  0  0  0  0  0  0
   54.5040   29.2000   53.3320 C   0  0  0  0  0  0  0  0  0  0  0  0
   55.4620   30.1640   52.7460 C   0  0  0  0  0  0  0  0  0  0  0  0
   55.3470   30.4460   51.5230 O   0  0  0  0  0  0  0  0  0  0  0  0
   56.5590   30.7390   53.4930 N   0  0  0  0  0  0  0  0  0  0  0  0
   57.9660   30.7490   53.0900 C   0  0  0  0  0  0  0  0  0  0  0  0
   58.5814   31.1039   53.9299 H   0  0  0  0  0  0  0  0  0  0  0  0
   58.2646   29.7284   52.8085 H   0  0  0  0  0  0  0  0  0  0  0  0
   58.1690   31.6780   51.8860 C   0  0  0  0  0  0  0  0  0  0  0  0
   57.3787   32.4430   51.9020 H   0  0  0  0  0  0  0  0  0  0  0  0
   59.1767   32.1086   51.9820 H   0  0  0  0  0  0  0  0  0  0  0  0
   58.1190   30.9560   50.5210 C   0  0  0  0  0  0  0  0  0  0  0  0
   57.2656   30.2620   50.5278 H   0  0  0  0  0  0  0  0  0  0  0  0
   58.0242   31.7362   49.7514 H   0  0  0  0  0  0  0  0  0  0  0  0
   59.3890   30.1570   50.1900 C   0  0  0  0  0  0  0  0  0  0  0  0
   60.1791   30.8483   49.8616 H   0  0  0  0  0  0  0  0  0  0  0  0
   59.7184   29.6138   51.0880 H   0  0  0  0  0  0  0  0  0  0  0  0
   59.1110   29.1960   49.1220 N   0  0  0  0  0  0  0  0  0  0  0  0
   58.7540   29.3700   47.8710 C   0  0  0  0  0  0  0  0  0  0  0  0
   58.2720   28.2290   47.2170 C   0  0  0  0  0  0  0  0  0  0  0  0
   58.3897   27.2416   47.6873 H   0  0  0  0  0  0  0  0  0  0  0  0
   57.6420   28.3320   45.9710 C   0  0  0  0  0  0  0  0  0  0  0  0
   57.2709   27.4265   45.4687 H   0  0  0  0  0  0  0  0  0  0  0  0
   57.4870   29.5440   45.3800 N   0  0  0  0  0  0  0  0  0  0  0  0
   57.9860   30.6810   45.9380 C   0  0  0  0  0  0  0  0  0  0  0  0
   57.8120   31.8950   45.2560 C   0  0  0  0  0  0  0  0  0  0  0  0
   57.2098   31.9233   44.3359 H   0  0  0  0  0  0  0  0  0  0  0  0
   58.3950   33.0610   45.7350 C   0  0  0  0  0  0  0  0  0  0  0  0
   58.1870   34.5780   44.8650 Cl  0  0  0  0  0  0  0  0  0  0  0  0
   59.1830   33.0100   46.8840 C   0  0  0  0  0  0  0  0  0  0  0  0
   59.6798   33.9237   47.2423 H   0  0  0  0  0  0  0  0  0  0  0  0
   59.3510   31.8080   47.5900 C   0  0  0  0  0  0  0  0  0  0  0  0
   60.0005   31.7859   48.4775 H   0  0  0  0  0  0  0  0  0  0  0  0
   58.6980   30.6290   47.1760 C   0  0  0  0  0  0  0  0  0  0  0  0
   53.1770   29.3770   53.2640 C   0  0  0  0  0  0  0  0  0  0  0  0
   52.5486   28.8315   53.9834 H   0  0  0  0  0  0  0  0  0  0  0  0
   52.4950   30.2660   52.2760 C   0  0  0  0  0  0  0  0  0  0  0  0
   52.4740   29.8690   50.9210 C   0  0  0  0  0  0  0  0  0  0  0  0
   52.9529   28.9234   50.6268 H   0  0  0  0  0  0  0  0  0  0  0  0
   51.8530   30.6600   49.9450 C   0  0  0  0  0  0  0  0  0  0  0  0
   51.8457   30.3333   48.8946 H   0  0  0  0  0  0  0  0  0  0  0  0
   51.2430   31.8640   50.3070 C   0  0  0  0  0  0  0  0  0  0  0  0
   50.6320   32.6480   49.3290 O   0  0  0  0  0  0  0  0  0  0  0  0
   51.2490   32.2750   51.6530 C   0  0  0  0  0  0  0  0  0  0  0  0
   50.6430   33.4720   52.0180 O   0  0  0  0  0  0  0  0  0  0  0  0
   51.8640   31.4800   52.6360 C   0  0  0  0  0  0  0  0  0  0  0  0
   51.8545   31.8027   53.6876 H   0  0  0  0  0  0  0  0  0  0  0  0
  1  2  1  0
  2  3  1  0
  3  4  2  0
  3  5  1  0
  5  6  1  0
  6  7  1  0
  6  8  1  0
  6  9  1  0
  9 10  1  0
  9 11  1  0
  9 12  1  0
 12 13  1  0
 12 14  1  0
 12 15  1  0
 15 16  1  0
 15 17  1  0
 15 18  1  0
 18 19  2  0
 19 20  1  0
 20 21  1  0
 20 22  2  0
 22 23  1  0
 22 24  1  0
 24 25  1  0
 25 26  2  0
 26 27  1  0
 26 28  1  0
 28 29  1  0
 28 30  2  0
 30 31  1  0
 30 32  1  0
 32 33  1  0
 32 34  2  0
  2 35  2  3
 35 36  1  0
 35 37  1  0
 37 38  2  0
 38 39  1  0
 38 40  1  0
 40 41  1  0
 40 42  2  0
 42 43  1  0
 42 44  1  0
 44 45  1  0
 44 46  2  0
 46 47  1  0
 34 19  1  0
 46 37  1  0
 34 25  1  0
M  CHG  4   5  -1  24  -1  43  -1  45  -1
M  END
>  <UniqueID>  (93) 
88

>  <SMILES>  (93) 
O=C(C=Cc1ccc([O-])c([O-])c1)[N-]CCCC/N=c1/cc[n-]c2cc(Cl)ccc12

>  <Energy>  (93) 
67.28817583401349

>  <Genealogy>  (93) 
O=C(C=Cc1ccc([O-])c([O-])c1)[N-]CCCCN=c1cc[n-]c2cc(Cl)ccc12 (protonated)
O=C(C=Cc1ccc([O-])c([O-])c1)[N-]CCCC/N=c1/cc[n-]c2cc(Cl)ccc12 (cis-trans isomerization)
O=C(C=Cc1ccc([O-])c([O-])c1)[N-]CCCC/N=c1/cc[n-]c2cc(Cl)ccc12 (3D coordinates assigned)
O=C(C=Cc1ccc([O-])c([O-])c1)[N-]CCCC/N=c1/cc[n-]c2cc(Cl)ccc12 (optimized conformer: 67.28817583401349 kcal/mol)

>  <smiles>  (93) 
O=C(C=Cc1ccc(O)c(O)c1)NCCCCN=c1cc[nH]c2cc(Cl)ccc12

>  <score_type>  (93) 
oracle

>  <origin>  (93) 
adg

>  <m_score__min__energy>  (93) 
-19.02

>  <m_primary>  (93) 
energy

$$$$
93:0
     RDKit          3D

 48 51  0  0  0  0  0  0  0  0999 V2000
   58.4050   30.0400   51.1390 C   0  0  0  0  0  0  0  0  0  0  0  0
   59.2310   30.4650   49.9530 C   0  0  0  0  0  0  0  0  0  0  0  0
   59.0050   31.7410   49.4070 C   0  0  0  0  0  0  0  0  0  0  0  0
   59.7150   32.1810   48.2830 C   0  0  0  0  0  0  0  0  0  0  0  0
   59.4400   33.5460   47.7050 C   0  0  0  0  0  0  0  0  0  0  0  0
   58.2570   33.5050   46.8220 N   0  0  0  0  0  0  0  0  0  0  0  0
   58.4940   34.3110   45.5990 C   0  0  0  0  0  0  0  0  0  0  0  0
   57.5060   33.9540   44.4830 C   0  0  0  0  0  0  0  0  0  0  0  0
   57.6640   32.4860   44.0490 C   0  0  0  0  0  0  0  0  0  0  0  0
   58.2380   31.5960   45.1730 C   0  0  2  0  0  0  0  0  0  0  0  0
   57.8440   30.1570   44.9820 C   0  0  0  0  0  0  0  0  0  0  0  0
   57.9380   29.4890   43.8150 N   0  0  0  0  0  0  0  0  0  0  0  0
   57.4910   28.2510   44.0880 C   0  0  0  0  0  0  0  0  0  0  0  0
   57.1410   28.2160   45.4210 C   0  0  0  0  0  0  0  0  0  0  0  0
   56.6040   27.0690   46.1600 C   0  0  0  0  0  0  0  0  0  0  0  0
   55.2310   26.7140   46.0190 N   0  0  0  0  0  0  0  0  0  0  0  0
   57.3500   26.3950   46.9190 O   0  0  0  0  0  0  0  0  0  0  0  0
   57.3690   29.3990   45.9450 O   0  0  0  0  0  0  0  0  0  0  0  0
   57.8010   32.1120   46.5580 C   0  0  0  0  0  0  0  0  0  0  0  0
   60.6670   31.3390   47.6990 C   0  0  0  0  0  0  0  0  0  0  0  0
   60.9120   30.0760   48.2350 C   0  0  0  0  0  0  0  0  0  0  0  0
   60.2160   29.6200   49.3700 C   0  0  0  0  0  0  0  0  0  0  0  0
   60.5490   28.2710   49.9010 C   0  0  0  0  0  0  0  0  0  0  0  0
   60.3730   27.1150   49.2250 N   0  0  0  0  0  0  0  0  0  0  0  0
   60.7500   26.1790   50.0420 O   0  0  0  0  0  0  0  0  0  0  0  0
   61.1330   26.7230   51.1660 C   0  0  0  0  0  0  0  0  0  0  0  0
   61.5520   26.0680   52.1540 O   0  0  0  0  0  0  0  0  0  0  0  0
   61.0270   28.0630   51.1500 N   0  0  0  0  0  0  0  0  0  0  0  0
   58.9300   30.3101   52.0671 H   0  0  0  0  0  0  0  0  0  0  0  0
   57.4300   30.5484   51.1079 H   0  0  0  0  0  0  0  0  0  0  0  0
   58.2519   28.9512   51.1079 H   0  0  0  0  0  0  0  0  0  0  0  0
   58.2590   32.4037   49.8699 H   0  0  0  0  0  0  0  0  0  0  0  0
   59.2554   34.2558   48.5248 H   0  0  0  0  0  0  0  0  0  0  0  0
   60.3125   33.8654   47.1162 H   0  0  0  0  0  0  0  0  0  0  0  0
   58.3812   35.3767   45.8472 H   0  0  0  0  0  0  0  0  0  0  0  0
   59.5105   34.0951   45.2383 H   0  0  0  0  0  0  0  0  0  0  0  0
   56.4803   34.1120   44.8476 H   0  0  0  0  0  0  0  0  0  0  0  0
   57.7126   34.5980   43.6155 H   0  0  0  0  0  0  0  0  0  0  0  0
   56.6773   32.0956   43.7590 H   0  0  0  0  0  0  0  0  0  0  0  0
   58.3721   32.4604   43.2076 H   0  0  0  0  0  0  0  0  0  0  0  0
   59.3354   31.6506   45.1206 H   0  0  0  0  0  0  0  0  0  0  0  0
   58.2830   29.8460   42.8950 H   0  0  0  0  0  0  0  0  0  0  0  0
   57.4177   27.4159   43.3758 H   0  0  0  0  0  0  0  0  0  0  0  0
   54.7710   26.7130   45.0820 H   0  0  0  0  0  0  0  0  0  0  0  0
   56.7027   32.0847   46.6133 H   0  0  0  0  0  0  0  0  0  0  0  0
   58.2626   31.4619   47.3158 H   0  0  0  0  0  0  0  0  0  0  0  0
   61.2249   31.6752   46.8126 H   0  0  0  0  0  0  0  0  0  0  0  0
   61.6621   29.4245   47.7629 H   0  0  0  0  0  0  0  0  0  0  0  0
  1  2  1  0
  2  3  2  0
  3  4  1  0
  4  5  1  0
  5  6  1  0
  6  7  1  0
  7  8  1  0
  8  9  1  0
  9 10  1  0
 10 11  1  0
 11 12  2  0
 12 13  1  0
 13 14  2  0
 14 15  1  0
 15 16  1  0
 15 17  2  0
 14 18  1  0
 10 19  1  0
  4 20  2  0
 20 21  1  0
 21 22  2  0
 22 23  1  0
 23 24  2  0
 24 25  1  0
 25 26  1  0
 26 27  2  0
 26 28  1  0
 22  2  1  0
 28 23  1  0
 19  6  1  0
 18 11  1  0
  1 29  1  0
  1 30  1  0
  1 31  1  0
  3 32  1  0
  5 33  1  0
  5 34  1  0
  7 35  1  0
  7 36  1  0
  8 37  1  0
  8 38  1  0
  9 39  1  0
  9 40  1  0
 10 41  1  1
 12 42  1  0
 13 43  1  0
 16 44  1  0
 19 45  1  0
 19 46  1  0
 20 47  1  0
 21 48  1  0
M  CHG  3  12   1  16  -1  28  -1
M  END
>  <UniqueID>  (94) 
89

>  <SMILES>  (94) 
Cc1cc(CN2CCC[C@H](c3[nH+]cc(C([NH-])=O)o3)C2)ccc1-c1noc(=O)[n-]1

>  <Energy>  (94) 
125.16675900553098

>  <Genealogy>  (94) 
Cc1cc(CN2CCCC(c3[nH+]cc(C([NH-])=O)o3)C2)ccc1-c1noc(=O)[n-]1 (protonated)
Cc1cc(CN2CCC[C@H](c3[nH+]cc(C([NH-])=O)o3)C2)ccc1-c1noc(=O)[n-]1 (chirality)
Cc1cc(CN2CCC[C@H](c3[nH+]cc(C([NH-])=O)o3)C2)ccc1-c1noc(=O)[n-]1 (3D coordinates assigned)
Cc1cc(CN2CCC[C@H](c3[nH+]cc(C([NH-])=O)o3)C2)ccc1-c1noc(=O)[n-]1 (nonaromatic ring conformer: 125.16675900553098 kcal/mol)

>  <smiles>  (94) 
Cc1cc(CN2CCCC(c3ncc(C(N)=O)o3)C2)ccc1-c1noc(=O)[nH]1

>  <score_type>  (94) 
oracle

>  <origin>  (94) 
adg

>  <m_score__min__energy>  (94) 
-11.27

>  <m_primary>  (94) 
energy

$$$$
