0:0
     RDKit          3D

 44 47  0  0  0  0  0  0  0  0999 V2000
   54.5250   29.3860   43.6230 O   0  0  0  0  0  0  0  0  0  0  0  0
   55.6350   29.5120   44.2030 C   0  0  0  0  0  0  0  0  0  0  0  0
   55.9760   28.5860   45.2440 N   0  0  0  0  0  0  0  0  0  0  0  0
   57.2850   28.0730   45.5280 C   0  0  0  0  0  0  0  0  0  0  0  0
   57.4290   27.0940   46.5190 C   0  0  0  0  0  0  0  0  0  0  0  0
   58.6910   26.5710   46.8180 C   0  0  0  0  0  0  0  0  0  0  0  0
   59.8170   27.0150   46.1180 C   0  0  0  0  0  0  0  0  0  0  0  0
   61.0400   26.5080   46.4090 F   0  0  0  0  0  0  0  0  0  0  0  0
   59.6790   27.9740   45.1110 C   0  0  0  0  0  0  0  0  0  0  0  0
   58.4180   28.4970   44.8090 C   0  0  0  0  0  0  0  0  0  0  0  0
   56.5250   30.6400   43.8290 C   0  0  0  0  0  0  0  0  0  0  0  0
   56.8880   30.8360   42.4860 C   0  0  0  0  0  0  0  0  0  0  0  0
   57.7240   31.8960   42.1280 C   0  0  0  0  0  0  0  0  0  0  0  0
   58.2040   32.7730   43.1040 C   0  0  0  0  0  0  0  0  0  0  0  0
   57.8470   32.5930   44.4460 C   0  0  0  0  0  0  0  0  0  0  0  0
   58.4240   33.7080   45.6800 S   0  0  0  0  0  0  0  0  0  0  0  0
   57.3540   33.9120   46.7170 O   0  0  0  0  0  0  0  0  0  0  0  0
   58.7440   35.0300   45.0400 O   0  0  0  0  0  0  0  0  0  0  0  0
   59.8460   33.0650   46.4330 N   0  0  0  0  0  0  0  0  0  0  0  0
   61.1610   33.6990   46.4110 C   0  0  0  0  0  0  0  0  0  0  0  0
   62.0990   32.7510   47.1990 C   0  0  0  0  0  0  0  0  0  0  0  0
   61.1990   31.6350   47.6090 C   0  0  0  0  0  0  0  0  0  0  0  0
   61.5200   30.4950   48.3490 C   0  0  0  0  0  0  0  0  0  0  0  0
   60.5030   29.5650   48.6200 C   0  0  0  0  0  0  0  0  0  0  0  0
   59.1940   29.7870   48.1500 C   0  0  0  0  0  0  0  0  0  0  0  0
   58.8960   30.9420   47.4070 C   0  0  0  0  0  0  0  0  0  0  0  0
   59.9280   31.8500   47.1530 C   0  0  0  0  0  0  0  0  0  0  0  0
   56.9940   31.5390   44.8020 C   0  0  0  0  0  0  0  0  0  0  0  0
   56.5445   26.7344   47.0652 H   0  0  0  0  0  0  0  0  0  0  0  0
   58.7980   25.8096   47.6046 H   0  0  0  0  0  0  0  0  0  0  0  0
   60.5637   28.3179   44.5551 H   0  0  0  0  0  0  0  0  0  0  0  0
   58.3112   29.2422   44.0069 H   0  0  0  0  0  0  0  0  0  0  0  0
   56.5117   30.1508   41.7121 H   0  0  0  0  0  0  0  0  0  0  0  0
   58.0054   32.0408   41.0745 H   0  0  0  0  0  0  0  0  0  0  0  0
   58.8631   33.6059   42.8179 H   0  0  0  0  0  0  0  0  0  0  0  0
   61.5139   33.8135   45.3755 H   0  0  0  0  0  0  0  0  0  0  0  0
   61.1336   34.7043   46.8566 H   0  0  0  0  0  0  0  0  0  0  0  0
   62.9149   32.3837   46.5592 H   0  0  0  0  0  0  0  0  0  0  0  0
   62.5882   33.2433   48.0524 H   0  0  0  0  0  0  0  0  0  0  0  0
   62.5454   30.3293   48.7112 H   0  0  0  0  0  0  0  0  0  0  0  0
   60.7298   28.6594   49.2018 H   0  0  0  0  0  0  0  0  0  0  0  0
   58.4025   29.0541   48.3652 H   0  0  0  0  0  0  0  0  0  0  0  0
   57.8774   31.1267   47.0351 H   0  0  0  0  0  0  0  0  0  0  0  0
   56.6893   31.4146   45.8516 H   0  0  0  0  0  0  0  0  0  0  0  0
  1  2  2  0
  2  3  1  0
  3  4  1  0
  4  5  2  0
  5  6  1  0
  6  7  2  0
  7  8  1  0
  7  9  1  0
  9 10  2  0
  2 11  1  0
 11 12  2  0
 12 13  1  0
 13 14  2  0
 14 15  1  0
 15 16  1  0
 16 17  2  0
 16 18  2  0
 16 19  1  0
 19 20  1  0
 20 21  1  0
 21 22  1  0
 22 23  2  0
 23 24  1  0
 24 25  2  0
 25 26  1  0
 26 27  2  0
 15 28  2  0
 10  4  1  0
 28 11  1  0
 27 19  1  0
 27 22  1  0
  5 29  1  0
  6 30  1  0
  9 31  1  0
 10 32  1  0
 12 33  1  0
 13 34  1  0
 14 35  1  0
 20 36  1  0
 20 37  1  0
 21 38  1  0
 21 39  1  0
 23 40  1  0
 24 41  1  0
 25 42  1  0
 26 43  1  0
 28 44  1  0
M  CHG  1   3  -1
M  END
>  <UniqueID>  (1) 
1

>  <SMILES>  (1) 
O=C([N-]c1ccc(F)cc1)c1cccc(S(=O)(=O)N2CCc3ccccc32)c1

>  <Energy>  (1) 
70.56994699452363

>  <Genealogy>  (1) 
O=C([N-]c1ccc(F)cc1)c1cccc(S(=O)(=O)N2CCc3ccccc32)c1 (protonated)
O=C([N-]c1ccc(F)cc1)c1cccc(S(=O)(=O)N2CCc3ccccc32)c1 (3D coordinates assigned)
O=C([N-]c1ccc(F)cc1)c1cccc(S(=O)(=O)N2CCc3ccccc32)c1 (nonaromatic ring conformer: 70.56994699452363 kcal/mol)

>  <smiles>  (1) 
O=C(Nc1ccc(F)cc1)c1cccc(S(=O)(=O)N2CCc3ccccc32)c1

>  <score_type>  (1) 
oracle

>  <origin>  (1) 
adg

>  <m_score__min__energy>  (1) 
-11.779999999999999

>  <m_primary>  (1) 
energy

$$$$
1:0
     RDKit          3D

 38 40  0  0  0  0  0  0  0  0999 V2000
   59.3920   34.8760   47.0060 C   0  0  0  0  0  0  0  0  0  0  0  0
   59.6460   34.9650   45.6350 C   0  0  0  0  0  0  0  0  0  0  0  0
   59.0050   34.0960   44.7450 C   0  0  0  0  0  0  0  0  0  0  0  0
   58.1010   33.1320   45.2230 C   0  0  0  0  0  0  0  0  0  0  0  0
   57.3770   32.2320   44.2540 C   0  0  0  0  0  0  0  0  0  0  0  0
   57.0080   31.0220   44.8980 O   0  0  0  0  0  0  0  0  0  0  0  0
   57.7080   29.9050   44.3750 C   0  0  0  0  0  0  0  0  0  0  0  0
   58.9700   29.5850   45.1800 C   0  0  0  0  0  0  0  0  0  0  0  0
   58.8870   30.1970   46.4650 O   0  0  0  0  0  0  0  0  0  0  0  0
   59.9880   30.6520   47.2020 C   0  0  0  0  0  0  0  0  0  0  0  0
   60.3840   30.0500   48.4120 C   0  0  0  0  0  0  0  0  0  0  0  0
   61.5220   30.5140   49.0740 C   0  0  0  0  0  0  0  0  0  0  0  0
   62.2570   31.5770   48.5360 C   0  0  0  0  0  0  0  0  0  0  0  0
   63.4120   32.0600   49.1700 C   0  0  0  0  0  0  0  0  0  0  0  0
   64.1260   33.1220   48.6040 C   0  0  0  0  0  0  0  0  0  0  0  0
   63.6910   33.7040   47.4100 C   0  0  0  0  0  0  0  0  0  0  0  0
   62.5400   33.2300   46.7720 C   0  0  0  0  0  0  0  0  0  0  0  0
   61.8200   32.1690   47.3310 C   0  0  0  0  0  0  0  0  0  0  0  0
   60.7080   31.6950   46.7080 N   0  0  0  0  0  0  0  0  0  0  0  0
   57.8660   33.0370   46.6060 C   0  0  0  0  0  0  0  0  0  0  0  0
   58.5050   33.9110   47.4900 C   0  0  0  0  0  0  0  0  0  0  0  0
   59.8900   35.5652   47.7039 H   0  0  0  0  0  0  0  0  0  0  0  0
   60.3508   35.7191   45.2547 H   0  0  0  0  0  0  0  0  0  0  0  0
   59.2096   34.1677   43.6666 H   0  0  0  0  0  0  0  0  0  0  0  0
   56.4726   32.7414   43.8899 H   0  0  0  0  0  0  0  0  0  0  0  0
   58.0421   32.0027   43.4084 H   0  0  0  0  0  0  0  0  0  0  0  0
   57.0431   29.0289   44.3955 H   0  0  0  0  0  0  0  0  0  0  0  0
   58.0157   30.1500   43.3477 H   0  0  0  0  0  0  0  0  0  0  0  0
   59.0616   28.4953   45.2990 H   0  0  0  0  0  0  0  0  0  0  0  0
   59.8507   29.9731   44.6473 H   0  0  0  0  0  0  0  0  0  0  0  0
   59.7997   29.2186   48.8332 H   0  0  0  0  0  0  0  0  0  0  0  0
   61.8406   30.0452   50.0167 H   0  0  0  0  0  0  0  0  0  0  0  0
   63.7555   31.6045   50.1105 H   0  0  0  0  0  0  0  0  0  0  0  0
   65.0321   33.4999   49.1001 H   0  0  0  0  0  0  0  0  0  0  0  0
   64.2564   34.5387   46.9700 H   0  0  0  0  0  0  0  0  0  0  0  0
   62.2016   33.6908   45.8323 H   0  0  0  0  0  0  0  0  0  0  0  0
   57.1769   32.2722   46.9936 H   0  0  0  0  0  0  0  0  0  0  0  0
   58.3090   33.8389   48.5700 H   0  0  0  0  0  0  0  0  0  0  0  0
  1  2  2  0
  2  3  1  0
  3  4  2  0
  4  5  1  0
  5  6  1  0
  6  7  1  0
  7  8  1  0
  8  9  1  0
  9 10  1  0
 10 11  2  0
 11 12  1  0
 12 13  2  0
 13 14  1  0
 14 15  2  0
 15 16  1  0
 16 17  2  0
 17 18  1  0
 18 19  2  0
  4 20  1  0
 20 21  2  0
 21  1  1  0
 19 10  1  0
 18 13  1  0
  1 22  1  0
  2 23  1  0
  3 24  1  0
  5 25  1  0
  5 26  1  0
  7 27  1  0
  7 28  1  0
  8 29  1  0
  8 30  1  0
 11 31  1  0
 12 32  1  0
 14 33  1  0
 15 34  1  0
 16 35  1  0
 17 36  1  0
 20 37  1  0
 21 38  1  0
M  END
>  <UniqueID>  (2) 
2

>  <SMILES>  (2) 
c1ccc(COCCOc2ccc3ccccc3n2)cc1

>  <Energy>  (2) 
41.99839905085594

>  <Genealogy>  (2) 
c1ccc(COCCOc2ccc3ccccc3n2)cc1 (3D coordinates assigned)
c1ccc(COCCOc2ccc3ccccc3n2)cc1 (optimized conformer: 41.99839905085594 kcal/mol)

>  <smiles>  (2) 
c1ccc(COCCOc2ccc3ccccc3n2)cc1

>  <score_type>  (2) 
oracle

>  <origin>  (2) 
adg

>  <m_score__min__energy>  (2) 
-7.1399999999999997

>  <m_primary>  (2) 
energy

$$$$
2:0
     RDKit          3D

 35 36  0  0  0  0  0  0  0  0999 V2000
   55.6800   29.2640   44.6750 N   0  0  0  0  0  0  0  0  0  0  0  0
   57.0550   29.2220   45.1680 C   0  0  0  0  0  0  0  0  0  0  0  0
   57.5920   30.6120   45.3920 C   0  0  0  0  0  0  0  0  0  0  0  0
   58.5020   30.8600   46.4320 C   0  0  0  0  0  0  0  0  0  0  0  0
   59.0250   32.1420   46.6220 C   0  0  0  0  0  0  0  0  0  0  0  0
   58.6550   33.1910   45.7660 C   0  0  0  0  0  0  0  0  0  0  0  0
   59.1950   34.5790   45.9770 C   0  0  0  0  0  0  0  0  0  0  0  0
   60.0710   34.6090   47.1460 N   0  0  0  0  0  0  0  0  0  0  0  0
   61.3930   34.0530   47.1360 C   0  0  0  0  0  0  0  0  0  0  0  0
   61.8520   33.5440   46.0770 O   0  0  0  0  0  0  0  0  0  0  0  0
   62.1790   34.0700   48.3370 N   0  0  0  0  0  0  0  0  0  0  0  0
   63.5450   33.6210   48.4040 C   0  0  0  0  0  0  0  0  0  0  0  0
   64.1910   33.4100   47.3420 O   0  0  0  0  0  0  0  0  0  0  0  0
   64.2200   33.4220   49.7050 C   0  0  0  0  0  0  0  0  0  0  0  0
   65.4200   32.7070   49.8770 C   0  0  0  0  0  0  0  0  0  0  0  0
   65.8650   32.6710   51.1920 C   0  0  0  0  0  0  0  0  0  0  0  0
   64.7750   33.5290   52.1380 S   0  0  0  0  0  0  0  0  0  0  0  0
   63.7290   33.9570   50.8950 C   0  0  0  0  0  0  0  0  0  0  0  0
   57.7530   32.9420   44.7200 C   0  0  0  0  0  0  0  0  0  0  0  0
   57.2300   31.6590   44.5310 C   0  0  0  0  0  0  0  0  0  0  0  0
   55.0940   28.6200   45.2550 H   0  0  0  0  0  0  0  0  0  0  0  0
   55.6630   28.9100   43.6920 H   0  0  0  0  0  0  0  0  0  0  0  0
   57.0793   28.6696   46.1189 H   0  0  0  0  0  0  0  0  0  0  0  0
   57.6817   28.7217   44.4150 H   0  0  0  0  0  0  0  0  0  0  0  0
   58.8049   30.0409   47.1008 H   0  0  0  0  0  0  0  0  0  0  0  0
   59.7295   32.3297   47.4457 H   0  0  0  0  0  0  0  0  0  0  0  0
   59.7655   34.8857   45.0879 H   0  0  0  0  0  0  0  0  0  0  0  0
   58.3545   35.2693   46.1414 H   0  0  0  0  0  0  0  0  0  0  0  0
   59.7180   35.0600   48.0200 H   0  0  0  0  0  0  0  0  0  0  0  0
   61.7310   34.4590   49.1950 H   0  0  0  0  0  0  0  0  0  0  0  0
   65.9553   32.2220   49.0474 H   0  0  0  0  0  0  0  0  0  0  0  0
   66.7744   32.1674   51.5517 H   0  0  0  0  0  0  0  0  0  0  0  0
   62.8132   34.5569   51.0018 H   0  0  0  0  0  0  0  0  0  0  0  0
   57.4563   33.7593   44.0462 H   0  0  0  0  0  0  0  0  0  0  0  0
   56.5311   31.4696   43.7029 H   0  0  0  0  0  0  0  0  0  0  0  0
  1  2  1  0
  2  3  1  0
  3  4  2  0
  4  5  1  0
  5  6  2  0
  6  7  1  0
  7  8  1  0
  8  9  1  0
  9 10  2  0
  9 11  1  0
 11 12  1  0
 12 13  2  0
 12 14  1  0
 14 15  1  0
 15 16  2  0
 16 17  1  0
 17 18  1  0
  6 19  1  0
 19 20  2  0
 20  3  1  0
 18 14  2  0
  1 21  1  0
  1 22  1  0
  2 23  1  0
  2 24  1  0
  4 25  1  0
  5 26  1  0
  7 27  1  0
  7 28  1  0
  8 29  1  0
 11 30  1  0
 15 31  1  0
 16 32  1  0
 18 33  1  0
 19 34  1  0
 20 35  1  0
M  END
>  <UniqueID>  (3) 
3

>  <SMILES>  (3) 
NCc1ccc(CNC(=O)NC(=O)c2ccsc2)cc1

>  <Energy>  (3) 
57.52070825947495

>  <Genealogy>  (3) 
NCc1ccc(CNC(=O)NC(=O)c2ccsc2)cc1 (3D coordinates assigned)
NCc1ccc(CNC(=O)NC(=O)c2ccsc2)cc1 (optimized conformer: 57.52070825947495 kcal/mol)

>  <smiles>  (3) 
NCc1ccc(CNC(=O)NC(=O)c2ccsc2)cc1

>  <score_type>  (3) 
oracle

>  <origin>  (3) 
adg

>  <m_score__min__energy>  (3) 
-7.7000000000000002

>  <m_primary>  (3) 
energy

$$$$
3:0
     RDKit          3D

 60 62  0  0  1  0  0  0  0  0999 V2000
   63.7990   33.1860   52.2130 C   0  0  0  0  0  0  0  0  0  0  0  0
   64.2100   34.1380   51.1320 C   0  0  0  0  0  0  0  0  0  0  0  0
   64.3860   33.3580   49.8870 N   0  0  0  0  0  0  0  0  0  0  0  0
   65.6530   32.7000   49.7950 C   0  0  0  0  0  0  0  0  0  0  0  0
   66.7440   33.3940   50.5130 C   0  0  0  0  0  0  0  0  0  0  0  0
   63.3280   33.4140   48.9650 C   0  0  0  0  0  0  0  0  0  0  0  0
   62.0400   33.6610   49.4120 C   0  0  0  0  0  0  0  0  0  0  0  0
   60.9330   33.6460   48.5690 C   0  0  0  0  0  0  0  0  0  0  0  0
   61.0690   33.3800   47.2140 C   0  0  0  0  0  0  0  0  0  0  0  0
   59.8930   33.3840   46.3550 C   0  0  0  0  0  0  0  0  0  0  0  0
   59.5620   34.5300   45.6960 N   0  0  0  0  0  0  0  0  0  0  0  0
   58.5080   34.5930   44.8920 C   0  0  0  0  0  0  0  0  0  0  0  0
   57.7000   33.5020   44.6880 C   0  0  0  0  0  0  0  0  0  0  0  0
   58.0190   32.3410   45.3450 C   0  0  0  0  0  0  0  0  0  0  0  0
   57.3550   31.2480   45.2450 N   0  0  0  0  0  0  0  0  0  0  0  0
   57.9340   29.9970   45.6730 C   0  0  0  0  0  0  0  0  0  0  0  0
   58.4260   29.1580   44.5170 C   0  0  0  0  0  0  0  0  0  0  0  0
   57.8910   27.7730   44.5760 C   0  0  0  0  0  0  0  0  0  0  0  0
   58.2150   26.9500   43.4880 C   0  0  0  0  0  0  0  0  0  0  0  0
   57.7660   25.6440   43.4460 C   0  0  0  0  0  0  0  0  0  0  0  0
   56.9990   25.1820   44.4910 C   0  0  0  0  0  0  0  0  0  0  0  0
   56.5500   23.8940   44.4590 O   0  0  0  0  0  0  0  0  0  0  0  0
   56.6510   22.9640   43.4320 C   0  0  0  0  0  0  0  0  0  0  0  0
   56.6750   25.9830   45.5610 C   0  0  0  0  0  0  0  0  0  0  0  0
   55.8980   25.4470   46.5750 O   0  0  0  0  0  0  0  0  0  0  0  0
   56.3570   24.4050   47.3810 C   0  0  0  0  0  0  0  0  0  0  0  0
   57.1200   27.3090   45.6270 C   0  0  0  0  0  0  0  0  0  0  0  0
   59.1040   32.3150   46.1580 N   0  0  0  0  0  0  0  0  0  0  0  0
   62.3270   33.1370   46.7610 C   0  0  0  0  0  0  0  0  0  0  0  0
   63.4430   33.1490   47.6100 C   0  0  0  0  0  0  0  0  0  0  0  0
   63.9950   33.6401   53.1955 H   0  0  0  0  0  0  0  0  0  0  0  0
   62.7255   32.9654   52.1187 H   0  0  0  0  0  0  0  0  0  0  0  0
   64.3747   32.2534   52.1187 H   0  0  0  0  0  0  0  0  0  0  0  0
   63.4307   34.9010   50.9888 H   0  0  0  0  0  0  0  0  0  0  0  0
   65.1469   34.6467   51.4030 H   0  0  0  0  0  0  0  0  0  0  0  0
   65.5494   31.6893   50.2165 H   0  0  0  0  0  0  0  0  0  0  0  0
   65.9293   32.6882   48.7303 H   0  0  0  0  0  0  0  0  0  0  0  0
   66.5897   33.2958   51.5977 H   0  0  0  0  0  0  0  0  0  0  0  0
   67.7089   32.9434   50.2377 H   0  0  0  0  0  0  0  0  0  0  0  0
   66.7448   34.4590   50.2377 H   0  0  0  0  0  0  0  0  0  0  0  0
   61.8859   33.8783   50.4793 H   0  0  0  0  0  0  0  0  0  0  0  0
   59.9343   33.8482   48.9834 H   0  0  0  0  0  0  0  0  0  0  0  0
   58.2772   35.5382   44.3788 H   0  0  0  0  0  0  0  0  0  0  0  0
   56.8271   33.5570   44.0209 H   0  0  0  0  0  0  0  0  0  0  0  0
   58.7829   30.2114   46.3389 H   0  0  0  0  0  0  0  0  0  0  0  0
   57.1479   29.4255   46.1882 H   0  0  0  0  0  0  0  0  0  0  0  0
   58.1031   29.6250   43.5748 H   0  0  0  0  0  0  0  0  0  0  0  0
   59.5232   29.1044   44.5748 H   0  0  0  0  0  0  0  0  0  0  0  0
   58.8287   27.3454   42.6652 H   0  0  0  0  0  0  0  0  0  0  0  0
   58.0156   24.9895   42.5979 H   0  0  0  0  0  0  0  0  0  0  0  0
   56.7604   21.9563   43.8593 H   0  0  0  0  0  0  0  0  0  0  0  0
   55.7434   23.0027   42.8117 H   0  0  0  0  0  0  0  0  0  0  0  0
   57.5292   23.1966   42.8117 H   0  0  0  0  0  0  0  0  0  0  0  0
   56.2361   24.6795   48.4393 H   0  0  0  0  0  0  0  0  0  0  0  0
   55.7765   23.4949   47.1696 H   0  0  0  0  0  0  0  0  0  0  0  0
   57.4204   24.2190   47.1696 H   0  0  0  0  0  0  0  0  0  0  0  0
   56.8668   27.9557   46.4800 H   0  0  0  0  0  0  0  0  0  0  0  0
   59.3310   31.4230   46.6510 H   0  0  0  0  0  0  0  0  0  0  0  0
   62.4749   32.9237   45.6921 H   0  0  0  0  0  0  0  0  0  0  0  0
   64.4377   32.9422   47.1883 H   0  0  0  0  0  0  0  0  0  0  0  0
  1  2  1  0
  2  3  1  0
  3  4  1  0
  4  5  1  0
  3  6  1  0
  6  7  2  0
  7  8  1  0
  8  9  2  0
  9 10  1  0
 10 11  2  0
 11 12  1  0
 12 13  2  0
 13 14  1  0
 14 15  2  0
 15 16  1  0
 16 17  1  0
 17 18  1  0
 18 19  2  0
 19 20  1  0
 20 21  2  0
 21 22  1  0
 22 23  1  0
 21 24  1  0
 24 25  1  0
 25 26  1  0
 24 27  2  0
 14 28  1  0
  9 29  1  0
 29 30  2  0
 30  6  1  0
 28 10  1  0
 27 18  1  0
  1 31  1  0
  1 32  1  0
  1 33  1  0
  2 34  1  0
  2 35  1  0
  4 36  1  0
  4 37  1  0
  5 38  1  0
  5 39  1  0
  5 40  1  0
  7 41  1  0
  8 42  1  0
 12 43  1  0
 13 44  1  0
 16 45  1  0
 16 46  1  0
 17 47  1  0
 17 48  1  0
 19 49  1  0
 20 50  1  0
 23 51  1  0
 23 52  1  0
 23 53  1  0
 26 54  1  0
 26 55  1  0
 26 56  1  0
 27 57  1  0
 28 58  1  0
 29 59  1  0
 30 60  1  0
M  END
>  <smiles>  (4) 
CCN(CC)c1ccc(-c2nccc(=NCCc3ccc(OC)c(OC)c3)[nH]2)cc1

>  <score_type>  (4) 
oracle

>  <origin>  (4) 
adg

>  <m_score__min__energy>  (4) 
-8.3699999999999992

>  <m_primary>  (4) 
energy

$$$$
4:0
     RDKit          3D

 41 43  0  0  1  0  0  0  0  0999 V2000
   57.0950   28.8160   44.9630 C   0  0  0  0  0  0  0  0  0  0  0  0
   56.6560   30.0990   45.3600 O   0  0  0  0  0  0  0  0  0  0  0  0
   57.2780   31.2330   44.8330 C   0  0  0  0  0  0  0  0  0  0  0  0
   57.5070   31.2580   43.4810 C   0  0  0  0  0  0  0  0  0  0  0  0
   58.1210   32.3790   42.9680 C   0  0  0  0  0  0  0  0  0  0  0  0
   58.4810   33.4210   43.8100 C   0  0  0  0  0  0  0  0  0  0  0  0
   58.2690   33.4310   45.1620 C   0  0  0  0  0  0  0  0  0  0  0  0
   58.6080   34.5310   46.0920 C   0  0  0  0  0  0  0  0  0  0  0  0
   59.9350   34.6410   46.5440 N   0  0  0  0  0  0  0  0  0  0  0  0
   60.3030   34.2350   47.6820 C   0  0  0  0  0  0  0  0  0  0  0  0
   59.4690   34.5230   48.7100 N   0  0  0  0  0  0  0  0  0  0  0  0
   59.7220   34.2060   49.9870 C   0  0  0  0  0  0  0  0  0  0  0  0
   60.8650   33.5670   50.2640 N   0  0  0  0  0  0  0  0  0  0  0  0
   61.7090   33.2650   49.2830 C   0  0  0  0  0  0  0  0  0  0  0  0
   61.4910   33.5740   47.9230 C   0  0  0  0  0  0  0  0  0  0  0  0
   62.3090   33.2780   46.7490 C   0  0  0  0  0  0  0  0  0  0  0  0
   63.7370   33.7390   46.8230 C   0  0  0  0  0  0  0  0  0  0  0  0
   64.5100   33.1300   47.8680 N   0  0  0  0  0  0  0  0  0  0  0  0
   64.1670   33.4120   49.2080 C   0  0  0  0  0  0  0  0  0  0  0  0
   62.9690   32.5970   49.7390 C   0  0  0  0  0  0  0  0  0  0  0  0
   57.6390   32.2720   45.6610 C   0  0  0  0  0  0  0  0  0  0  0  0
   57.3033   28.2074   45.8553 H   0  0  0  0  0  0  0  0  0  0  0  0
   56.3120   28.3301   44.3623 H   0  0  0  0  0  0  0  0  0  0  0  0
   58.0115   28.9117   44.3623 H   0  0  0  0  0  0  0  0  0  0  0  0
   57.2128   30.4185   42.8339 H   0  0  0  0  0  0  0  0  0  0  0  0
   58.3261   32.4481   41.8895 H   0  0  0  0  0  0  0  0  0  0  0  0
   58.9697   34.2982   43.3608 H   0  0  0  0  0  0  0  0  0  0  0  0
   58.3584   35.4744   45.5843 H   0  0  0  0  0  0  0  0  0  0  0  0
   58.0314   34.3034   47.0007 H   0  0  0  0  0  0  0  0  0  0  0  0
   58.5460   35.0300   48.5490 H   0  0  0  0  0  0  0  0  0  0  0  0
   59.0104   34.4636   50.7853 H   0  0  0  0  0  0  0  0  0  0  0  0
   62.3119   32.1876   46.6041 H   0  0  0  0  0  0  0  0  0  0  0  0
   61.8546   33.8346   45.9161 H   0  0  0  0  0  0  0  0  0  0  0  0
   64.2209   33.5115   45.8617 H   0  0  0  0  0  0  0  0  0  0  0  0
   63.7050   34.8155   47.0470 H   0  0  0  0  0  0  0  0  0  0  0  0
   64.5200   32.0960   47.7270 H   0  0  0  0  0  0  0  0  0  0  0  0
   65.0400   33.1942   49.8408 H   0  0  0  0  0  0  0  0  0  0  0  0
   63.8694   34.4704   49.2422 H   0  0  0  0  0  0  0  0  0  0  0  0
   63.0113   31.5718   49.3426 H   0  0  0  0  0  0  0  0  0  0  0  0
   62.9982   32.5510   50.8376 H   0  0  0  0  0  0  0  0  0  0  0  0
   57.4309   32.1963   46.7385 H   0  0  0  0  0  0  0  0  0  0  0  0
  1  2  1  0
  2  3  1  0
  3  4  2  0
  4  5  1  0
  5  6  2  0
  6  7  1  0
  7  8  1  0
  8  9  1  0
  9 10  2  0
 10 11  1  0
 11 12  1  0
 12 13  2  0
 13 14  1  0
 14 15  2  0
 15 16  1  0
 16 17  1  0
 17 18  1  0
 18 19  1  0
 19 20  1  0
  7 21  2  0
 21  3  1  0
 15 10  1  0
 20 14  1  0
  1 22  1  0
  1 23  1  0
  1 24  1  0
  4 25  1  0
  5 26  1  0
  6 27  1  0
  8 28  1  0
  8 29  1  0
 11 30  1  0
 12 31  1  0
 16 32  1  0
 16 33  1  0
 17 34  1  0
 17 35  1  0
 18 36  1  0
 19 37  1  0
 19 38  1  0
 20 39  1  0
 20 40  1  0
 21 41  1  0
M  END
>  <smiles>  (5) 
COc1cccc(CN=c2[nH]cnc3c2CCNCC3)c1

>  <score_type>  (5) 
oracle

>  <origin>  (5) 
adg

>  <m_score__min__energy>  (5) 
-5.6100000000000003

>  <m_primary>  (5) 
energy

$$$$
5:0
     RDKit          3D

 48 51  0  0  0  0  0  0  0  0999 V2000
   55.5360   29.7060   43.3570 C   0  0  0  0  0  0  0  0  0  0  0  0
   56.5720   30.6670   43.8340 C   0  0  0  0  0  0  0  0  0  0  0  0
   57.8310   30.7220   43.3710 N   0  0  0  0  0  0  0  0  0  0  0  0
   58.4580   31.6760   44.0400 N   0  0  0  0  0  0  0  0  0  0  0  0
   57.5450   32.1690   44.9020 C   0  0  0  0  0  0  0  0  0  0  0  0
   57.8070   33.2890   45.8700 C   0  0  0  0  0  0  0  0  0  0  0  0
   58.1670   32.7470   47.2740 C   0  0  0  0  0  0  0  0  0  0  0  0
   59.6880   32.6690   47.4800 C   0  0  0  0  0  0  0  0  0  0  0  0
   60.3690   33.9790   47.2920 N   0  0  0  0  0  0  0  0  0  0  0  0
   60.7700   34.5950   48.5730 C   0  0  0  0  0  0  0  0  0  0  0  0
   61.8540   33.7760   49.2420 C   0  0  0  0  0  0  0  0  0  0  0  0
   63.1670   33.8350   48.7470 C   0  0  0  0  0  0  0  0  0  0  0  0
   64.1640   33.1370   49.3500 N   0  0  0  0  0  0  0  0  0  0  0  0
   63.9360   32.3640   50.4430 C   0  0  0  0  0  0  0  0  0  0  0  0
   62.6500   32.2650   50.9730 C   0  0  0  0  0  0  0  0  0  0  0  0
   61.5940   32.9600   50.3690 C   0  0  0  0  0  0  0  0  0  0  0  0
   60.2410   32.8420   50.9510 C   0  0  0  0  0  0  0  0  0  0  0  0
   59.7700   33.8240   51.8370 C   0  0  0  0  0  0  0  0  0  0  0  0
   58.4770   33.7360   52.3610 C   0  0  0  0  0  0  0  0  0  0  0  0
   57.6520   32.6630   52.0110 C   0  0  0  0  0  0  0  0  0  0  0  0
   58.1200   31.6750   51.1390 C   0  0  0  0  0  0  0  0  0  0  0  0
   59.4110   31.7610   50.6120 C   0  0  0  0  0  0  0  0  0  0  0  0
   59.6250   34.9460   46.4530 C   0  0  0  0  0  0  0  0  0  0  0  0
   58.8890   34.2380   45.3120 C   0  0  0  0  0  0  0  0  0  0  0  0
   56.3880   31.5550   44.7810 O   0  0  0  0  0  0  0  0  0  0  0  0
   55.0381   29.2442   44.2223 H   0  0  0  0  0  0  0  0  0  0  0  0
   54.7921   30.2410   42.7484 H   0  0  0  0  0  0  0  0  0  0  0  0
   56.0137   28.9241   42.7484 H   0  0  0  0  0  0  0  0  0  0  0  0
   58.2600   30.1330   42.6240 H   0  0  0  0  0  0  0  0  0  0  0  0
   56.8829   33.8737   45.9894 H   0  0  0  0  0  0  0  0  0  0  0  0
   57.7379   33.4154   48.0350 H   0  0  0  0  0  0  0  0  0  0  0  0
   57.7559   31.7308   47.3652 H   0  0  0  0  0  0  0  0  0  0  0  0
   59.8854   32.3151   48.5026 H   0  0  0  0  0  0  0  0  0  0  0  0
   60.0874   31.9791   46.7220 H   0  0  0  0  0  0  0  0  0  0  0  0
   61.1491   35.6100   48.3830 H   0  0  0  0  0  0  0  0  0  0  0  0
   59.8941   34.6341   49.2373 H   0  0  0  0  0  0  0  0  0  0  0  0
   63.3898   34.4516   47.8637 H   0  0  0  0  0  0  0  0  0  0  0  0
   64.7667   31.8153   50.9108 H   0  0  0  0  0  0  0  0  0  0  0  0
   62.4654   31.6437   51.8618 H   0  0  0  0  0  0  0  0  0  0  0  0
   60.4203   34.6650   52.1196 H   0  0  0  0  0  0  0  0  0  0  0  0
   58.1086   34.5113   53.0489 H   0  0  0  0  0  0  0  0  0  0  0  0
   56.6338   32.5958   52.4219 H   0  0  0  0  0  0  0  0  0  0  0  0
   57.4710   30.8293   50.8677 H   0  0  0  0  0  0  0  0  0  0  0  0
   59.7783   30.9801   49.9299 H   0  0  0  0  0  0  0  0  0  0  0  0
   58.8916   35.4747   47.0795 H   0  0  0  0  0  0  0  0  0  0  0  0
   60.3446   35.6543   46.0166 H   0  0  0  0  0  0  0  0  0  0  0  0
   58.4120   34.9909   44.6673 H   0  0  0  0  0  0  0  0  0  0  0  0
   59.6151   33.6474   44.7341 H   0  0  0  0  0  0  0  0  0  0  0  0
  1  2  1  0
  2  3  2  0
  3  4  1  0
  4  5  2  0
  5  6  1  0
  6  7  1  0
  7  8  1  0
  8  9  1  0
  9 10  1  0
 10 11  1  0
 11 12  2  0
 12 13  1  0
 13 14  2  0
 14 15  1  0
 15 16  2  0
 16 17  1  0
 17 18  2  0
 18 19  1  0
 19 20  2  0
 20 21  1  0
 21 22  2  0
  9 23  1  0
 23 24  1  0
  5 25  1  0
 25  2  1  0
 24  6  1  0
 16 11  1  0
 22 17  1  0
  1 26  1  0
  1 27  1  0
  1 28  1  0
  3 29  1  0
  6 30  1  0
  7 31  1  0
  7 32  1  0
  8 33  1  0
  8 34  1  0
 10 35  1  0
 10 36  1  0
 12 37  1  0
 14 38  1  0
 15 39  1  0
 18 40  1  0
 19 41  1  0
 20 42  1  0
 21 43  1  0
 22 44  1  0
 23 45  1  0
 23 46  1  0
 24 47  1  0
 24 48  1  0
M  CHG  1   3   1
M  END
>  <UniqueID>  (6) 
4

>  <SMILES>  (6) 
Cc1[nH+]nc(C2CCN(Cc3cnccc3-c3ccccc3)CC2)o1

>  <Energy>  (6) 
99.68591522271194

>  <Genealogy>  (6) 
Cc1[nH+]nc(C2CCN(Cc3cnccc3-c3ccccc3)CC2)o1 (protonated)
Cc1[nH+]nc(C2CCN(Cc3cnccc3-c3ccccc3)CC2)o1 (3D coordinates assigned)
Cc1[nH+]nc(C2CCN(Cc3cnccc3-c3ccccc3)CC2)o1 (nonaromatic ring conformer: 99.68591522271194 kcal/mol)

>  <smiles>  (6) 
Cc1nnc(C2CCN(Cc3cnccc3-c3ccccc3)CC2)o1

>  <score_type>  (6) 
oracle

>  <origin>  (6) 
adg

>  <m_score__min__energy>  (6) 
-7.4199999999999999

>  <m_primary>  (6) 
energy

$$$$
6:0
     RDKit          3D

 38 39  0  0  0  0  0  0  0  0999 V2000
   54.8090   26.3350   46.0070 N   0  0  0  0  0  0  0  0  0  0  0  0
   56.3990   25.6980   46.2320 S   0  0  0  0  0  0  0  0  0  0  0  0
   56.4350   24.8700   47.4850 O   0  0  0  0  0  0  0  0  0  0  0  0
   56.7560   24.8210   45.0640 O   0  0  0  0  0  0  0  0  0  0  0  0
   57.5520   27.0230   46.3540 C   0  0  0  0  0  0  0  0  0  0  0  0
   58.8420   26.7940   46.8510 C   0  0  0  0  0  0  0  0  0  0  0  0
   59.7530   27.8460   46.9470 C   0  0  0  0  0  0  0  0  0  0  0  0
   59.3790   29.1380   46.5640 C   0  0  0  0  0  0  0  0  0  0  0  0
   58.0770   29.3870   46.0950 C   0  0  0  0  0  0  0  0  0  0  0  0
   57.6530   30.6920   45.6770 N   0  0  0  0  0  0  0  0  0  0  0  0
   56.8790   31.0090   44.5130 C   0  0  0  0  0  0  0  0  0  0  0  0
   55.6680   30.6740   44.4320 O   0  0  0  0  0  0  0  0  0  0  0  0
   57.5440   31.6580   43.3410 C   0  0  0  0  0  0  0  0  0  0  0  0
   58.4980   32.6210   43.7830 O   0  0  0  0  0  0  0  0  0  0  0  0
   58.1700   33.7070   44.6030 C   0  0  0  0  0  0  0  0  0  0  0  0
   56.9790   33.9070   44.9650 O   0  0  0  0  0  0  0  0  0  0  0  0
   59.2400   34.6690   45.0070 C   0  0  0  0  0  0  0  0  0  0  0  0
   59.8590   34.2330   46.3060 C   0  0  0  0  0  0  0  0  0  0  0  0
   61.2130   33.8560   46.3540 C   0  0  0  0  0  0  0  0  0  0  0  0
   61.7960   33.4810   47.5690 C   0  0  0  0  0  0  0  0  0  0  0  0
   61.0370   33.4910   48.7430 C   0  0  0  0  0  0  0  0  0  0  0  0
   59.6950   33.8770   48.7050 C   0  0  0  0  0  0  0  0  0  0  0  0
   59.1070   34.2520   47.4920 C   0  0  0  0  0  0  0  0  0  0  0  0
   57.1760   28.3200   45.9760 C   0  0  0  0  0  0  0  0  0  0  0  0
   54.6800   27.0910   46.7160 H   0  0  0  0  0  0  0  0  0  0  0  0
   59.1370   25.7822   47.1662 H   0  0  0  0  0  0  0  0  0  0  0  0
   60.7688   27.6587   47.3252 H   0  0  0  0  0  0  0  0  0  0  0  0
   60.1052   29.9615   46.6298 H   0  0  0  0  0  0  0  0  0  0  0  0
   58.0550   30.8895   42.7425 H   0  0  0  0  0  0  0  0  0  0  0  0
   56.7806   32.1645   42.7322 H   0  0  0  0  0  0  0  0  0  0  0  0
   60.0148   34.7010   44.2268 H   0  0  0  0  0  0  0  0  0  0  0  0
   58.7981   35.6682   45.1347 H   0  0  0  0  0  0  0  0  0  0  0  0
   61.8153   33.8560   45.4335 H   0  0  0  0  0  0  0  0  0  0  0  0
   62.8529   33.1779   47.6007 H   0  0  0  0  0  0  0  0  0  0  0  0
   61.4969   33.1947   49.6973 H   0  0  0  0  0  0  0  0  0  0  0  0
   59.0997   33.8862   49.6300 H   0  0  0  0  0  0  0  0  0  0  0  0
   58.0521   34.5628   47.4672 H   0  0  0  0  0  0  0  0  0  0  0  0
   56.1649   28.5016   45.5826 H   0  0  0  0  0  0  0  0  0  0  0  0
  1  2  1  0
  2  3  2  0
  2  4  2  0
  2  5  1  0
  5  6  2  0
  6  7  1  0
  7  8  2  0
  8  9  1  0
  9 10  1  0
 10 11  1  0
 11 12  2  0
 11 13  1  0
 13 14  1  0
 14 15  1  0
 15 16  2  0
 15 17  1  0
 17 18  1  0
 18 19  2  0
 19 20  1  0
 20 21  2  0
 21 22  1  0
 22 23  2  0
  9 24  2  0
 24  5  1  0
 23 18  1  0
  1 25  1  0
  6 26  1  0
  7 27  1  0
  8 28  1  0
 13 29  1  0
 13 30  1  0
 17 31  1  0
 17 32  1  0
 19 33  1  0
 20 34  1  0
 21 35  1  0
 22 36  1  0
 23 37  1  0
 24 38  1  0
M  CHG  2   1  -1  10  -1
M  END
>  <UniqueID>  (7) 
5

>  <SMILES>  (7) 
[NH-]S(=O)(=O)c1cccc([N-]C(=O)COC(=O)Cc2ccccc2)c1

>  <Energy>  (7) 
36.96252738674098

>  <Genealogy>  (7) 
[NH-]S(=O)(=O)c1cccc([N-]C(=O)COC(=O)Cc2ccccc2)c1 (protonated)
[NH-]S(=O)(=O)c1cccc([N-]C(=O)COC(=O)Cc2ccccc2)c1 (3D coordinates assigned)
[NH-]S(=O)(=O)c1cccc([N-]C(=O)COC(=O)Cc2ccccc2)c1 (optimized conformer: 36.96252738674098 kcal/mol)

>  <smiles>  (7) 
NS(=O)(=O)c1cccc(NC(=O)COC(=O)Cc2ccccc2)c1

>  <score_type>  (7) 
oracle

>  <origin>  (7) 
adg

>  <m_score__min__energy>  (7) 
-12.52

>  <m_primary>  (7) 
energy

$$$$
7:0
     RDKit          3D

 43 46  0  0  0  0  0  0  0  0999 V2000
   59.0920   26.5990   46.9250 C   0  0  0  0  0  0  0  0  0  0  0  0
   57.7060   26.6000   46.7460 C   0  0  0  0  0  0  0  0  0  0  0  0
   57.1440   27.2140   45.6230 C   0  0  0  0  0  0  0  0  0  0  0  0
   57.9680   27.8330   44.6650 C   0  0  0  0  0  0  0  0  0  0  0  0
   57.3890   28.4970   43.5210 N   0  0  0  0  0  0  0  0  0  0  0  0
   56.3860   29.4940   43.9290 C   0  0  0  0  0  0  0  0  0  0  0  0
   57.0130   30.6290   44.6850 C   0  0  0  0  0  0  0  0  0  0  0  0
   58.1370   30.4920   45.4180 N   0  0  0  0  0  0  0  0  0  0  0  0
   58.3880   31.7360   45.8640 C   0  0  0  0  0  0  0  0  0  0  0  0
   59.5460   32.0850   46.7220 C   0  0  0  0  0  0  0  0  0  0  0  0
   59.9400   33.4250   46.8650 C   0  0  0  0  0  0  0  0  0  0  0  0
   61.0290   33.7600   47.6710 C   0  0  0  0  0  0  0  0  0  0  0  0
   61.7370   32.7470   48.3390 C   0  0  0  0  0  0  0  0  0  0  0  0
   62.8990   33.0510   49.2120 C   0  0  0  0  0  0  0  0  0  0  0  0
   62.7940   33.9520   50.2910 C   0  0  0  0  0  0  0  0  0  0  0  0
   63.9040   34.2290   51.0950 C   0  0  0  0  0  0  0  0  0  0  0  0
   65.1310   33.6190   50.8300 C   0  0  0  0  0  0  0  0  0  0  0  0
   65.2530   32.7330   49.7570 C   0  0  0  0  0  0  0  0  0  0  0  0
   64.1470   32.4530   48.9500 C   0  0  0  0  0  0  0  0  0  0  0  0
   61.3320   31.4560   48.1930 N   0  0  0  0  0  0  0  0  0  0  0  0
   60.2750   31.1030   47.4140 C   0  0  0  0  0  0  0  0  0  0  0  0
   57.4160   32.5920   45.3830 C   0  0  0  0  0  0  0  0  0  0  0  0
   56.5480   31.8940   44.6320 N   0  0  0  0  0  0  0  0  0  0  0  0
   59.3620   27.8330   44.8570 C   0  0  0  0  0  0  0  0  0  0  0  0
   59.9190   27.2150   45.9820 C   0  0  0  0  0  0  0  0  0  0  0  0
   59.5320   26.1132   47.8084 H   0  0  0  0  0  0  0  0  0  0  0  0
   57.0560   26.1167   47.4903 H   0  0  0  0  0  0  0  0  0  0  0  0
   56.0524   27.2133   45.4876 H   0  0  0  0  0  0  0  0  0  0  0  0
   58.1480   28.9840   42.9870 H   0  0  0  0  0  0  0  0  0  0  0  0
   56.9540   27.8000   42.8710 H   0  0  0  0  0  0  0  0  0  0  0  0
   55.8925   29.8927   43.0304 H   0  0  0  0  0  0  0  0  0  0  0  0
   55.6581   29.0003   44.5896 H   0  0  0  0  0  0  0  0  0  0  0  0
   59.3865   34.2163   46.3381 H   0  0  0  0  0  0  0  0  0  0  0  0
   61.3314   34.8117   47.7826 H   0  0  0  0  0  0  0  0  0  0  0  0
   61.8315   34.4409   50.5021 H   0  0  0  0  0  0  0  0  0  0  0  0
   63.8099   34.9292   51.9381 H   0  0  0  0  0  0  0  0  0  0  0  0
   66.0019   33.8359   51.4660 H   0  0  0  0  0  0  0  0  0  0  0  0
   66.2212   32.2550   49.5469 H   0  0  0  0  0  0  0  0  0  0  0  0
   64.2520   31.7594   48.1027 H   0  0  0  0  0  0  0  0  0  0  0  0
   59.9894   30.0445   47.3251 H   0  0  0  0  0  0  0  0  0  0  0  0
   57.3616   33.6723   45.5830 H   0  0  0  0  0  0  0  0  0  0  0  0
   60.0165   28.3208   44.1197 H   0  0  0  0  0  0  0  0  0  0  0  0
   61.0097   27.2141   46.1243 H   0  0  0  0  0  0  0  0  0  0  0  0
  1  2  2  0
  2  3  1  0
  3  4  2  0
  4  5  1  0
  5  6  1  0
  6  7  1  0
  7  8  2  0
  8  9  1  0
  9 10  1  0
 10 11  2  0
 11 12  1  0
 12 13  2  0
 13 14  1  0
 14 15  2  0
 15 16  1  0
 16 17  2  0
 17 18  1  0
 18 19  2  0
 13 20  1  0
 20 21  2  0
  9 22  2  0
 22 23  1  0
  4 24  1  0
 24 25  2  0
 25  1  1  0
 23  7  1  0
 21 10  1  0
 19 14  1  0
  1 26  1  0
  2 27  1  0
  3 28  1  0
  5 29  1  0
  5 30  1  0
  6 31  1  0
  6 32  1  0
 11 33  1  0
 12 34  1  0
 15 35  1  0
 16 36  1  0
 17 37  1  0
 18 38  1  0
 19 39  1  0
 21 40  1  0
 22 41  1  0
 24 42  1  0
 25 43  1  0
M  CHG  2   5   1  23  -1
M  END
>  <UniqueID>  (8) 
6

>  <SMILES>  (8) 
c1ccc([NH2+]Cc2nc(-c3ccc(-c4ccccc4)nc3)c[n-]2)cc1

>  <Energy>  (8) 
81.01546739422322

>  <Genealogy>  (8) 
c1ccc([NH2+]Cc2nc(-c3ccc(-c4ccccc4)nc3)c[n-]2)cc1 (protonated)
c1ccc([NH2+]Cc2nc(-c3ccc(-c4ccccc4)nc3)c[n-]2)cc1 (3D coordinates assigned)
c1ccc([NH2+]Cc2nc(-c3ccc(-c4ccccc4)nc3)c[n-]2)cc1 (optimized conformer: 81.01546739422322 kcal/mol)

>  <smiles>  (8) 
c1ccc(NCc2nc(-c3ccc(-c4ccccc4)nc3)c[nH]2)cc1

>  <score_type>  (8) 
oracle

>  <origin>  (8) 
adg

>  <m_score__min__energy>  (8) 
-7.5800000000000001

>  <m_primary>  (8) 
energy

$$$$
8:0
     RDKit          3D

 42 45  0  0  0  0  0  0  0  0999 V2000
   59.3050   28.8250   44.4290 C   0  0  0  0  0  0  0  0  0  0  0  0
   58.6730   29.0920   45.8300 C   0  0  2  0  0  0  0  0  0  0  0  0
   59.3950   28.3070   46.9340 C   0  0  0  0  0  0  0  0  0  0  0  0
   59.3860   28.6660   48.3010 C   0  0  0  0  0  0  0  0  0  0  0  0
   60.0770   27.8810   49.2270 C   0  0  0  0  0  0  0  0  0  0  0  0
   60.7770   26.7530   48.8020 C   0  0  0  0  0  0  0  0  0  0  0  0
   60.7780   26.4240   47.4490 C   0  0  0  0  0  0  0  0  0  0  0  0
   60.1000   27.1980   46.5600 N   0  0  0  0  0  0  0  0  0  0  0  0
   57.3090   28.7020   45.9870 O   0  0  0  0  0  0  0  0  0  0  0  0
   56.5290   28.6580   44.8160 C   0  0  0  0  0  0  0  0  0  0  0  0
   56.2190   30.0150   44.2790 C   0  0  0  0  0  0  0  0  0  0  0  0
   55.4720   30.0970   43.2690 O   0  0  0  0  0  0  0  0  0  0  0  0
   56.6500   31.2250   44.9050 N   0  0  0  0  0  0  0  0  0  0  0  0
   57.7830   31.5290   45.7370 C   0  0  0  0  0  0  0  0  0  0  0  0
   57.9280   32.8760   46.0950 C   0  0  0  0  0  0  0  0  0  0  0  0
   59.0690   33.3320   46.7470 C   0  0  0  0  0  0  0  0  0  0  0  0
   60.1150   32.4510   47.0360 C   0  0  0  0  0  0  0  0  0  0  0  0
   61.3580   32.9420   47.6790 C   0  0  0  0  0  0  0  0  0  0  0  0
   62.6120   32.5930   47.1430 C   0  0  0  0  0  0  0  0  0  0  0  0
   63.7900   33.0520   47.7400 C   0  0  0  0  0  0  0  0  0  0  0  0
   63.7300   33.8590   48.8760 C   0  0  0  0  0  0  0  0  0  0  0  0
   62.4930   34.2090   49.4220 C   0  0  0  0  0  0  0  0  0  0  0  0
   61.3100   33.7550   48.8300 C   0  0  0  0  0  0  0  0  0  0  0  0
   60.1210   34.0780   49.4030 F   0  0  0  0  0  0  0  0  0  0  0  0
   59.9800   31.0990   46.6930 C   0  0  0  0  0  0  0  0  0  0  0  0
   58.7930   30.5940   46.1060 C   0  0  0  0  0  0  0  0  0  0  0  0
   60.3115   28.3998   44.5558 H   0  0  0  0  0  0  0  0  0  0  0  0
   58.6750   28.1161   43.8716 H   0  0  0  0  0  0  0  0  0  0  0  0
   59.3741   29.7708   43.8716 H   0  0  0  0  0  0  0  0  0  0  0  0
   58.8374   29.5594   48.6341 H   0  0  0  0  0  0  0  0  0  0  0  0
   60.0687   28.1533   50.2927 H   0  0  0  0  0  0  0  0  0  0  0  0
   61.3220   26.1303   49.5267 H   0  0  0  0  0  0  0  0  0  0  0  0
   61.3275   25.5376   47.0991 H   0  0  0  0  0  0  0  0  0  0  0  0
   57.0781   28.0929   44.0485 H   0  0  0  0  0  0  0  0  0  0  0  0
   55.5739   28.1756   45.0711 H   0  0  0  0  0  0  0  0  0  0  0  0
   57.1235   33.5870   45.8557 H   0  0  0  0  0  0  0  0  0  0  0  0
   59.1485   34.3903   47.0364 H   0  0  0  0  0  0  0  0  0  0  0  0
   62.6654   31.9549   46.2486 H   0  0  0  0  0  0  0  0  0  0  0  0
   64.7656   32.7763   47.3131 H   0  0  0  0  0  0  0  0  0  0  0  0
   64.6583   34.2203   49.3426 H   0  0  0  0  0  0  0  0  0  0  0  0
   62.4491   34.8432   50.3197 H   0  0  0  0  0  0  0  0  0  0  0  0
   60.8173   30.4117   46.8844 H   0  0  0  0  0  0  0  0  0  0  0  0
  2  1  1  6
  2  3  1  0
  3  4  2  0
  4  5  1  0
  5  6  2  0
  6  7  1  0
  7  8  2  0
  2  9  1  0
  9 10  1  0
 10 11  1  0
 11 12  2  0
 11 13  1  0
 13 14  1  0
 14 15  2  0
 15 16  1  0
 16 17  2  0
 17 18  1  0
 18 19  2  0
 19 20  1  0
 20 21  2  0
 21 22  1  0
 22 23  2  0
 23 24  1  0
 17 25  1  0
 25 26  2  0
 26  2  1  0
  8  3  1  0
 26 14  1  0
 23 18  1  0
  1 27  1  0
  1 28  1  0
  1 29  1  0
  4 30  1  0
  5 31  1  0
  6 32  1  0
  7 33  1  0
 10 34  1  0
 10 35  1  0
 15 36  1  0
 16 37  1  0
 19 38  1  0
 20 39  1  0
 21 40  1  0
 22 41  1  0
 25 42  1  0
M  CHG  1  13  -1
M  END
>  <UniqueID>  (9) 
7

>  <SMILES>  (9) 
C[C@]1(c2ccccn2)OCC(=O)[N-]c2ccc(-c3ccccc3F)cc21

>  <Energy>  (9) 
83.57888936066031

>  <Genealogy>  (9) 
CC1(c2ccccn2)OCC(=O)[N-]c2ccc(-c3ccccc3F)cc21 (protonated)
C[C@]1(c2ccccn2)OCC(=O)[N-]c2ccc(-c3ccccc3F)cc21 (chirality)
C[C@]1(c2ccccn2)OCC(=O)[N-]c2ccc(-c3ccccc3F)cc21 (3D coordinates assigned)
C[C@]1(c2ccccn2)OCC(=O)[N-]c2ccc(-c3ccccc3F)cc21 (nonaromatic ring conformer: 83.57888936066031 kcal/mol)

>  <smiles>  (9) 
CC1(c2ccccn2)OCC(=O)Nc2ccc(-c3ccccc3F)cc21

>  <score_type>  (9) 
oracle

>  <origin>  (9) 
adg

>  <m_score__min__energy>  (9) 
-7.71

>  <m_primary>  (9) 
energy

$$$$
9:0
     RDKit          3D

 38 41  0  0  0  0  0  0  0  0999 V2000
   55.6200   27.4150   45.6190 F   0  0  0  0  0  0  0  0  0  0  0  0
   56.9760   27.3610   45.6020 C   0  0  0  0  0  0  0  0  0  0  0  0
   57.6260   26.3690   46.3430 C   0  0  0  0  0  0  0  0  0  0  0  0
   59.0200   26.2920   46.3450 C   0  0  0  0  0  0  0  0  0  0  0  0
   59.7710   27.2090   45.6070 C   0  0  0  0  0  0  0  0  0  0  0  0
   59.1300   28.2060   44.8620 C   0  0  0  0  0  0  0  0  0  0  0  0
   59.8830   29.0890   44.1580 F   0  0  0  0  0  0  0  0  0  0  0  0
   57.7250   28.2860   44.8470 C   0  0  0  0  0  0  0  0  0  0  0  0
   57.0370   29.3880   44.0810 C   0  0  0  0  0  0  0  0  0  0  0  0
   57.5820   30.6860   44.4720 N   0  0  0  0  0  0  0  0  0  0  0  0
   57.7720   31.7750   43.6860 C   0  0  0  0  0  0  0  0  0  0  0  0
   58.3950   32.8030   44.3290 N   0  0  0  0  0  0  0  0  0  0  0  0
   58.5940   32.3020   45.5630 C   0  0  0  0  0  0  0  0  0  0  0  0
   59.2210   32.8800   46.6590 C   0  0  0  0  0  0  0  0  0  0  0  0
   59.9070   34.5350   46.5790 S   0  0  0  0  0  0  0  0  0  0  0  0
   61.3900   34.0560   47.4620 C   0  0  0  0  0  0  0  0  0  0  0  0
   62.4770   33.5100   46.7660 C   0  0  0  0  0  0  0  0  0  0  0  0
   63.6300   33.1240   47.4580 C   0  0  0  0  0  0  0  0  0  0  0  0
   63.7010   33.2850   48.8470 C   0  0  0  0  0  0  0  0  0  0  0  0
   65.1450   32.7980   49.7150 Cl  0  0  0  0  0  0  0  0  0  0  0  0
   62.6170   33.8350   49.5420 C   0  0  0  0  0  0  0  0  0  0  0  0
   61.4640   34.2210   48.8510 C   0  0  0  0  0  0  0  0  0  0  0  0
   59.3170   32.1360   47.8030 N   0  0  0  0  0  0  0  0  0  0  0  0
   58.8210   30.8560   47.8620 C   0  0  0  0  0  0  0  0  0  0  0  0
   58.2140   30.2950   46.7730 N   0  0  0  0  0  0  0  0  0  0  0  0
   58.1140   31.0410   45.6470 C   0  0  0  0  0  0  0  0  0  0  0  0
   57.0366   25.6465   46.9266 H   0  0  0  0  0  0  0  0  0  0  0  0
   59.5267   25.5088   46.9280 H   0  0  0  0  0  0  0  0  0  0  0  0
   60.8693   27.1479   45.6110 H   0  0  0  0  0  0  0  0  0  0  0  0
   57.1960   29.2362   43.0032 H   0  0  0  0  0  0  0  0  0  0  0  0
   55.9607   29.3662   44.3068 H   0  0  0  0  0  0  0  0  0  0  0  0
   57.4548   31.8238   42.6339 H   0  0  0  0  0  0  0  0  0  0  0  0
   62.4236   33.3848   45.6745 H   0  0  0  0  0  0  0  0  0  0  0  0
   64.4814   32.6937   46.9104 H   0  0  0  0  0  0  0  0  0  0  0  0
   62.6724   33.9637   50.6330 H   0  0  0  0  0  0  0  0  0  0  0  0
   60.6144   34.6546   49.3988 H   0  0  0  0  0  0  0  0  0  0  0  0
   59.7840   32.5400   48.6460 H   0  0  0  0  0  0  0  0  0  0  0  0
   58.9131   30.2778   48.7932 H   0  0  0  0  0  0  0  0  0  0  0  0
  1  2  1  0
  2  3  2  0
  3  4  1  0
  4  5  2  0
  5  6  1  0
  6  7  1  0
  6  8  2  0
  8  9  1  0
  9 10  1  0
 10 11  1  0
 11 12  2  0
 12 13  1  0
 13 14  2  0
 14 15  1  0
 15 16  1  0
 16 17  2  0
 17 18  1  0
 18 19  2  0
 19 20  1  0
 19 21  1  0
 21 22  2  0
 14 23  1  0
 23 24  2  0
 24 25  1  0
 25 26  2  0
  8  2  1  0
 26 10  1  0
 26 13  1  0
 22 16  1  0
  3 27  1  0
  4 28  1  0
  5 29  1  0
  9 30  1  0
  9 31  1  0
 11 32  1  0
 17 33  1  0
 18 34  1  0
 21 35  1  0
 22 36  1  0
 23 37  1  0
 24 38  1  0
M  CHG  1  23   1
M  END
>  <UniqueID>  (10) 
8

>  <SMILES>  (10) 
Fc1cccc(F)c1Cn1cnc2c(Sc3ccc(Cl)cc3)[nH+]cnc21

>  <Energy>  (10) 
77.41476815863751

>  <Genealogy>  (10) 
Fc1cccc(F)c1Cn1cnc2c(Sc3ccc(Cl)cc3)[nH+]cnc21 (protonated)
Fc1cccc(F)c1Cn1cnc2c(Sc3ccc(Cl)cc3)[nH+]cnc21 (3D coordinates assigned)
Fc1cccc(F)c1Cn1cnc2c(Sc3ccc(Cl)cc3)[nH+]cnc21 (optimized conformer: 77.41476815863751 kcal/mol)

>  <smiles>  (10) 
Fc1cccc(F)c1Cn1cnc2c(Sc3ccc(Cl)cc3)ncnc21

>  <score_type>  (10) 
oracle

>  <origin>  (10) 
adg

>  <m_score__min__energy>  (10) 
-6.5700000000000003

>  <m_primary>  (10) 
energy

$$$$
10:0
     RDKit          3D

 45 48  0  0  0  0  0  0  0  0999 V2000
   56.9830   24.6820   46.7660 C   0  0  0  0  0  0  0  0  0  0  0  0
   57.4590   25.8390   47.4440 O   0  0  0  0  0  0  0  0  0  0  0  0
   57.5930   27.1370   46.9120 C   0  0  0  0  0  0  0  0  0  0  0  0
   58.7310   27.8750   47.2850 C   0  0  0  0  0  0  0  0  0  0  0  0
   59.7490   27.3040   48.2460 C   0  0  0  0  0  0  0  0  0  0  0  0
   59.9790   28.2580   49.3880 C   0  0  0  0  0  0  0  0  0  0  0  0
   61.1860   28.2220   50.1060 C   0  0  0  0  0  0  0  0  0  0  0  0
   61.4180   29.1340   51.1410 C   0  0  0  0  0  0  0  0  0  0  0  0
   60.4500   30.0900   51.4610 C   0  0  0  0  0  0  0  0  0  0  0  0
   59.2500   30.1380   50.7450 C   0  0  0  0  0  0  0  0  0  0  0  0
   59.0150   29.2280   49.7100 C   0  0  0  0  0  0  0  0  0  0  0  0
   58.9040   29.1830   46.8230 C   0  0  0  0  0  0  0  0  0  0  0  0
   57.9580   29.7930   45.9830 C   0  0  0  0  0  0  0  0  0  0  0  0
   58.1270   31.1330   45.5410 C   0  0  0  0  0  0  0  0  0  0  0  0
   59.2360   31.9930   46.0160 C   0  0  0  0  0  0  0  0  0  0  0  0
   60.4690   31.4190   46.3680 C   0  0  0  0  0  0  0  0  0  0  0  0
   61.5170   32.2230   46.8250 C   0  0  0  0  0  0  0  0  0  0  0  0
   61.3380   33.6040   46.9430 C   0  0  0  0  0  0  0  0  0  0  0  0
   60.1120   34.1820   46.6040 C   0  0  0  0  0  0  0  0  0  0  0  0
   59.0600   33.3830   46.1450 C   0  0  0  0  0  0  0  0  0  0  0  0
   57.8790   33.9620   45.8120 F   0  0  0  0  0  0  0  0  0  0  0  0
   57.2000   31.6890   44.6520 C   0  0  0  0  0  0  0  0  0  0  0  0
   56.1050   30.9530   44.2170 C   0  0  0  0  0  0  0  0  0  0  0  0
   55.9050   29.6460   44.6620 C   0  0  0  0  0  0  0  0  0  0  0  0
   54.7830   28.9660   44.2010 O   0  0  0  0  0  0  0  0  0  0  0  0
   56.8270   29.0440   45.5550 C   0  0  0  0  0  0  0  0  0  0  0  0
   56.6480   27.7190   46.0290 C   0  0  0  0  0  0  0  0  0  0  0  0
   55.5380   26.9870   45.6230 O   0  0  0  0  0  0  0  0  0  0  0  0
   56.6724   23.9269   47.5031 H   0  0  0  0  0  0  0  0  0  0  0  0
   56.1238   24.9541   46.1354 H   0  0  0  0  0  0  0  0  0  0  0  0
   57.7849   24.2706   46.1354 H   0  0  0  0  0  0  0  0  0  0  0  0
   59.3784   26.3467   48.6413 H   0  0  0  0  0  0  0  0  0  0  0  0
   60.6981   27.1479   47.7123 H   0  0  0  0  0  0  0  0  0  0  0  0
   61.9516   27.4737   49.8533 H   0  0  0  0  0  0  0  0  0  0  0  0
   62.3628   29.0987   51.7033 H   0  0  0  0  0  0  0  0  0  0  0  0
   60.6323   30.8051   52.2767 H   0  0  0  0  0  0  0  0  0  0  0  0
   58.4900   30.8925   50.9963 H   0  0  0  0  0  0  0  0  0  0  0  0
   58.0718   29.2716   49.1456 H   0  0  0  0  0  0  0  0  0  0  0  0
   59.7998   29.7462   47.1236 H   0  0  0  0  0  0  0  0  0  0  0  0
   60.6103   30.3314   46.2835 H   0  0  0  0  0  0  0  0  0  0  0  0
   62.4827   31.7688   47.0918 H   0  0  0  0  0  0  0  0  0  0  0  0
   62.1629   34.2364   47.3030 H   0  0  0  0  0  0  0  0  0  0  0  0
   59.9738   35.2692   46.6985 H   0  0  0  0  0  0  0  0  0  0  0  0
   57.3399   32.7196   44.2939 H   0  0  0  0  0  0  0  0  0  0  0  0
   55.3889   31.4051   43.5150 H   0  0  0  0  0  0  0  0  0  0  0  0
  1  2  1  0
  2  3  1  0
  3  4  2  0
  4  5  1  0
  5  6  1  0
  6  7  2  0
  7  8  1  0
  8  9  2  0
  9 10  1  0
 10 11  2  0
  4 12  1  0
 12 13  2  0
 13 14  1  0
 14 15  1  0
 15 16  2  0
 16 17  1  0
 17 18  2  0
 18 19  1  0
 19 20  2  0
 20 21  1  0
 14 22  2  0
 22 23  1  0
 23 24  2  0
 24 25  1  0
 24 26  1  0
 26 27  2  0
 27 28  1  0
 27  3  1  0
 11  6  1  0
 26 13  1  0
 20 15  1  0
  1 29  1  0
  1 30  1  0
  1 31  1  0
  5 32  1  0
  5 33  1  0
  7 34  1  0
  8 35  1  0
  9 36  1  0
 10 37  1  0
 11 38  1  0
 12 39  1  0
 16 40  1  0
 17 41  1  0
 18 42  1  0
 19 43  1  0
 22 44  1  0
 23 45  1  0
M  CHG  2  25  -1  28  -1
M  END
>  <UniqueID>  (11) 
9

>  <SMILES>  (11) 
COc1c(Cc2ccccc2)cc2c(-c3ccccc3F)ccc([O-])c2c1[O-]

>  <Energy>  (11) 
66.92990775860707

>  <Genealogy>  (11) 
COc1c(Cc2ccccc2)cc2c(-c3ccccc3F)ccc([O-])c2c1[O-] (protonated)
COc1c(Cc2ccccc2)cc2c(-c3ccccc3F)ccc([O-])c2c1[O-] (3D coordinates assigned)
COc1c(Cc2ccccc2)cc2c(-c3ccccc3F)ccc([O-])c2c1[O-] (optimized conformer: 66.92990775860707 kcal/mol)

>  <smiles>  (11) 
COc1c(Cc2ccccc2)cc2c(-c3ccccc3F)ccc(O)c2c1O

>  <score_type>  (11) 
oracle

>  <origin>  (11) 
adg

>  <m_score__min__energy>  (11) 
-13.56

>  <m_primary>  (11) 
energy

$$$$
11:0
     RDKit          3D

 42 44  0  0  1  0  0  0  0  0999 V2000
   63.9630   31.9750   49.0130 C   0  0  0  0  0  0  0  0  0  0  0  0
   62.4990   31.9010   48.8910 C   0  0  0  0  0  0  0  0  0  0  0  0
   61.8600   30.6710   48.9850 C   0  0  0  0  0  0  0  0  0  0  0  0
   60.4840   30.5430   48.8770 C   0  0  0  0  0  0  0  0  0  0  0  0
   59.9910   29.3790   48.9770 N   0  0  0  0  0  0  0  0  0  0  0  0
   59.3950   28.7860   47.8270 C   0  0  0  0  0  0  0  0  0  0  0  0
   59.7420   27.4550   47.5720 C   0  0  0  0  0  0  0  0  0  0  0  0
   59.1960   26.8080   46.4610 C   0  0  0  0  0  0  0  0  0  0  0  0
   58.3370   27.5190   45.6690 C   0  0  0  0  0  0  0  0  0  0  0  0
   57.9790   28.8310   45.9010 C   0  0  0  0  0  0  0  0  0  0  0  0
   56.8770   29.5990   44.8050 S   0  0  0  0  0  0  0  0  0  0  0  0
   57.1210   29.1020   43.1550 N   0  0  0  0  0  0  0  0  0  0  0  0
   55.4510   29.3390   45.2030 O   0  0  0  0  0  0  0  0  0  0  0  0
   57.0480   31.0960   44.8390 O   0  0  0  0  0  0  0  0  0  0  0  0
   58.5270   29.4570   47.0010 C   0  0  0  0  0  0  0  0  0  0  0  0
   59.7800   31.6650   48.6740 N   0  0  0  0  0  0  0  0  0  0  0  0
   60.3730   32.8700   48.5780 C   0  0  0  0  0  0  0  0  0  0  0  0
   59.7180   33.9680   48.3830 N   0  0  0  0  0  0  0  0  0  0  0  0
   58.9970   34.0960   47.1570 C   0  0  0  0  0  0  0  0  0  0  0  0
   57.7400   33.5300   47.1210 C   0  0  0  0  0  0  0  0  0  0  0  0
   57.0170   33.6360   45.9490 C   0  0  0  0  0  0  0  0  0  0  0  0
   57.5520   34.2920   44.8590 C   0  0  0  0  0  0  0  0  0  0  0  0
   58.8120   34.8490   44.9200 C   0  0  0  0  0  0  0  0  0  0  0  0
   59.5560   34.7560   46.0810 C   0  0  0  0  0  0  0  0  0  0  0  0
   61.7010   32.9660   48.6860 N   0  0  0  0  0  0  0  0  0  0  0  0
   64.2420   31.9891   50.0769 H   0  0  0  0  0  0  0  0  0  0  0  0
   64.4162   31.0986   48.5267 H   0  0  0  0  0  0  0  0  0  0  0  0
   64.3256   32.8926   48.5267 H   0  0  0  0  0  0  0  0  0  0  0  0
   62.4664   29.7683   49.1507 H   0  0  0  0  0  0  0  0  0  0  0  0
   60.4371   26.9239   48.2389 H   0  0  0  0  0  0  0  0  0  0  0  0
   59.4483   25.7623   46.2309 H   0  0  0  0  0  0  0  0  0  0  0  0
   57.9048   27.0135   44.7928 H   0  0  0  0  0  0  0  0  0  0  0  0
   56.9080   28.0650   43.0700 H   0  0  0  0  0  0  0  0  0  0  0  0
   58.0780   29.3140   42.8290 H   0  0  0  0  0  0  0  0  0  0  0  0
   58.2664   30.5033   47.2187 H   0  0  0  0  0  0  0  0  0  0  0  0
   58.7380   31.5890   48.5900 H   0  0  0  0  0  0  0  0  0  0  0  0
   57.3263   33.0106   47.9979 H   0  0  0  0  0  0  0  0  0  0  0  0
   56.0110   33.1959   45.8841 H   0  0  0  0  0  0  0  0  0  0  0  0
   56.9667   34.3714   43.9310 H   0  0  0  0  0  0  0  0  0  0  0  0
   59.2257   35.3683   44.0430 H   0  0  0  0  0  0  0  0  0  0  0  0
   60.5628   35.1945   46.1457 H   0  0  0  0  0  0  0  0  0  0  0  0
   62.1830   33.9020   48.6130 H   0  0  0  0  0  0  0  0  0  0  0  0
  1  2  1  0
  2  3  2  0
  3  4  1  0
  4  5  2  0
  5  6  1  0
  6  7  2  0
  7  8  1  0
  8  9  2  0
  9 10  1  0
 10 11  1  0
 11 12  1  0
 11 13  2  0
 11 14  2  0
 10 15  2  0
  4 16  1  0
 16 17  1  0
 17 18  2  0
 18 19  1  0
 19 20  2  0
 20 21  1  0
 21 22  2  0
 22 23  1  0
 23 24  2  0
 17 25  1  0
 25  2  1  0
 15  6  1  0
 24 19  1  0
  1 26  1  0
  1 27  1  0
  1 28  1  0
  3 29  1  0
  7 30  1  0
  8 31  1  0
  9 32  1  0
 12 33  1  0
 12 34  1  0
 15 35  1  0
 16 36  1  0
 20 37  1  0
 21 38  1  0
 22 39  1  0
 23 40  1  0
 24 41  1  0
 25 42  1  0
M  END
>  <smiles>  (12) 
Cc1cc(=Nc2cccc(S(N)(=O)=O)c2)[nH]c(=Nc2ccccc2)[nH]1

>  <score_type>  (12) 
oracle

>  <origin>  (12) 
adg

>  <m_score__min__energy>  (12) 
-9.0999999999999996

>  <m_primary>  (12) 
energy

$$$$
12:0
     RDKit          3D

 46 49  0  0  0  0  0  0  0  0999 V2000
   60.0780   25.7090   46.3730 C   0  0  0  0  0  0  0  0  0  0  0  0
   59.4610   26.9690   45.8590 C   0  0  0  0  0  0  0  0  0  0  0  0
   60.3550   28.2940   45.3000 S   0  0  0  0  0  0  0  0  0  0  0  0
   59.0090   29.2190   44.9350 C   0  0  0  0  0  0  0  0  0  0  0  0
   59.0050   30.4690   44.4140 N   0  0  0  0  0  0  0  0  0  0  0  0
   57.8100   31.0760   44.1730 C   0  0  0  0  0  0  0  0  0  0  0  0
   57.7690   32.7160   43.4540 S   0  0  0  0  0  0  0  0  0  0  0  0
   57.3880   33.5860   45.0210 C   0  0  0  0  0  0  0  0  0  0  0  0
   56.3060   32.9730   45.6310 F   0  0  0  0  0  0  0  0  0  0  0  0
   57.0230   34.8860   44.7190 F   0  0  0  0  0  0  0  0  0  0  0  0
   58.5980   33.6090   45.9300 C   0  0  0  0  0  0  0  0  0  0  0  0
   59.2970   34.8050   46.1790 C   0  0  0  0  0  0  0  0  0  0  0  0
   60.3920   34.8130   47.0460 C   0  0  0  0  0  0  0  0  0  0  0  0
   60.7910   33.6380   47.6850 C   0  0  0  0  0  0  0  0  0  0  0  0
   60.0860   32.4450   47.4790 C   0  0  0  0  0  0  0  0  0  0  0  0
   60.5190   31.2470   48.1450 N   0  0  0  0  0  0  0  0  0  0  0  0
   59.6840   30.4870   49.0400 C   0  0  0  0  0  0  0  0  0  0  0  0
   58.5390   30.9190   49.3460 O   0  0  0  0  0  0  0  0  0  0  0  0
   60.1450   29.2040   49.6240 C   0  0  0  0  0  0  0  0  0  0  0  0
   60.3790   29.0560   51.0020 C   0  0  0  0  0  0  0  0  0  0  0  0
   60.8070   27.8300   51.5140 C   0  0  0  0  0  0  0  0  0  0  0  0
   60.9920   26.7520   50.6470 C   0  0  0  0  0  0  0  0  0  0  0  0
   60.7510   26.9010   49.3190 N   0  0  0  0  0  0  0  0  0  0  0  0
   60.3340   28.0840   48.7950 C   0  0  0  0  0  0  0  0  0  0  0  0
   59.0010   32.4330   46.5840 C   0  0  0  0  0  0  0  0  0  0  0  0
   56.6390   30.4340   44.4620 N   0  0  0  0  0  0  0  0  0  0  0  0
   56.6250   29.1760   44.9840 C   0  0  0  0  0  0  0  0  0  0  0  0
   55.5250   28.6170   45.2330 O   0  0  0  0  0  0  0  0  0  0  0  0
   57.8470   28.5330   45.2300 C   0  0  0  0  0  0  0  0  0  0  0  0
   58.0870   27.2440   45.7540 C   0  0  0  0  0  0  0  0  0  0  0  0
   57.0030   26.2860   46.1620 C   0  0  0  0  0  0  0  0  0  0  0  0
   60.0725   25.7202   47.4729 H   0  0  0  0  0  0  0  0  0  0  0  0
   59.5012   24.8446   46.0122 H   0  0  0  0  0  0  0  0  0  0  0  0
   61.1145   25.6346   46.0122 H   0  0  0  0  0  0  0  0  0  0  0  0
   58.9796   35.7372   45.6888 H   0  0  0  0  0  0  0  0  0  0  0  0
   60.9419   35.7486   47.2259 H   0  0  0  0  0  0  0  0  0  0  0  0
   61.6640   33.6488   48.3542 H   0  0  0  0  0  0  0  0  0  0  0  0
   61.5140   30.9630   48.0050 H   0  0  0  0  0  0  0  0  0  0  0  0
   60.2244   29.9090   51.6791 H   0  0  0  0  0  0  0  0  0  0  0  0
   60.9968   27.7145   52.5913 H   0  0  0  0  0  0  0  0  0  0  0  0
   61.3328   25.7824   51.0392 H   0  0  0  0  0  0  0  0  0  0  0  0
   60.1431   28.1657   47.7148 H   0  0  0  0  0  0  0  0  0  0  0  0
   58.4624   31.4928   46.3942 H   0  0  0  0  0  0  0  0  0  0  0  0
   56.9495   26.2387   47.2597 H   0  0  0  0  0  0  0  0  0  0  0  0
   56.0383   26.6321   45.7624 H   0  0  0  0  0  0  0  0  0  0  0  0
   57.2279   25.2861   45.7624 H   0  0  0  0  0  0  0  0  0  0  0  0
  1  2  1  0
  2  3  1  0
  3  4  1  0
  4  5  1  0
  5  6  2  0
  6  7  1  0
  7  8  1  0
  8  9  1  0
  8 10  1  0
  8 11  1  0
 11 12  2  0
 12 13  1  0
 13 14  2  0
 14 15  1  0
 15 16  1  0
 16 17  1  0
 17 18  2  0
 17 19  1  0
 19 20  2  0
 20 21  1  0
 21 22  2  0
 22 23  1  0
 23 24  2  0
 15 25  2  0
  6 26  1  0
 26 27  1  0
 27 28  2  0
 27 29  1  0
 29 30  1  0
 30 31  1  0
 30  2  2  0
 29  4  2  0
 25 11  1  0
 24 19  1  0
  1 32  1  0
  1 33  1  0
  1 34  1  0
 12 35  1  0
 13 36  1  0
 14 37  1  0
 16 38  1  0
 20 39  1  0
 21 40  1  0
 22 41  1  0
 24 42  1  0
 25 43  1  0
 31 44  1  0
 31 45  1  0
 31 46  1  0
M  CHG  1  26  -1
M  END
>  <UniqueID>  (13) 
10

>  <SMILES>  (13) 
Cc1sc2nc(SC(F)(F)c3cccc(NC(=O)c4cccnc4)c3)[n-]c(=O)c2c1C

>  <Energy>  (13) 
88.23156471878832

>  <Genealogy>  (13) 
Cc1sc2nc(SC(F)(F)c3cccc(NC(=O)c4cccnc4)c3)[n-]c(=O)c2c1C (protonated)
Cc1sc2nc(SC(F)(F)c3cccc(NC(=O)c4cccnc4)c3)[n-]c(=O)c2c1C (3D coordinates assigned)
Cc1sc2nc(SC(F)(F)c3cccc(NC(=O)c4cccnc4)c3)[n-]c(=O)c2c1C (optimized conformer: 88.23156471878832 kcal/mol)

>  <smiles>  (13) 
Cc1sc2nc(SC(F)(F)c3cccc(NC(=O)c4cccnc4)c3)[nH]c(=O)c2c1C

>  <score_type>  (13) 
oracle

>  <origin>  (13) 
adg

>  <m_score__min__energy>  (13) 
-10.07

>  <m_primary>  (13) 
energy

$$$$
13:0
     RDKit          3D

 45 48  0  0  0  0  0  0  0  0999 V2000
   61.3950   28.2660   44.8020 C   0  0  0  0  0  0  0  0  0  0  0  0
   60.0610   28.5920   45.4920 C   0  0  1  0  0  0  0  0  0  0  0  0
   60.3850   29.3970   46.7620 C   0  0  0  0  0  0  0  0  0  0  0  0
   60.2870   28.7900   48.0330 C   0  0  0  0  0  0  0  0  0  0  0  0
   60.6480   29.4850   49.1900 C   0  0  0  0  0  0  0  0  0  0  0  0
   61.1530   30.7810   49.0990 C   0  0  0  0  0  0  0  0  0  0  0  0
   61.3040   31.3830   47.8500 C   0  0  0  0  0  0  0  0  0  0  0  0
   60.9310   30.6990   46.6900 C   0  0  0  0  0  0  0  0  0  0  0  0
   59.1640   29.3630   44.4760 C   0  0  0  0  0  0  0  0  0  0  0  0
   57.8610   29.8380   45.0820 C   0  0  0  0  0  0  0  0  0  0  0  0
   57.2700   31.1360   44.6600 C   0  0  0  0  0  0  0  0  0  0  0  0
   56.9220   31.2930   43.4600 O   0  0  0  0  0  0  0  0  0  0  0  0
   57.0390   32.2200   45.5760 N   0  0  0  0  0  0  0  0  0  0  0  0
   57.9860   33.2340   45.9360 C   0  0  0  0  0  0  0  0  0  0  0  0
   58.4100   34.1280   44.9450 C   0  0  0  0  0  0  0  0  0  0  0  0
   59.2830   35.1700   45.2560 C   0  0  0  0  0  0  0  0  0  0  0  0
   59.7560   35.3260   46.5590 C   0  0  0  0  0  0  0  0  0  0  0  0
   59.3730   34.4240   47.5620 C   0  0  0  0  0  0  0  0  0  0  0  0
   59.8700   34.5670   48.8670 C   0  0  0  0  0  0  0  0  0  0  0  0
   59.5190   33.6470   49.8570 C   0  0  0  0  0  0  0  0  0  0  0  0
   58.6740   32.5790   49.5530 C   0  0  0  0  0  0  0  0  0  0  0  0
   58.1540   32.4340   48.2650 C   0  0  0  0  0  0  0  0  0  0  0  0
   58.4890   33.3560   47.2530 C   0  0  0  0  0  0  0  0  0  0  0  0
   57.2010   29.0650   45.8870 N   0  0  0  0  0  0  0  0  0  0  0  0
   57.7930   27.5250   46.3950 S   0  0  0  0  0  0  0  0  0  0  0  0
   56.9230   26.4420   45.8240 O   0  0  0  0  0  0  0  0  0  0  0  0
   57.7710   27.4520   47.8950 O   0  0  0  0  0  0  0  0  0  0  0  0
   59.4220   27.3070   45.8260 N   0  0  0  0  0  0  0  0  0  0  0  0
   62.1656   28.0777   45.5641 H   0  0  0  0  0  0  0  0  0  0  0  0
   61.2739   27.3710   44.1740 H   0  0  0  0  0  0  0  0  0  0  0  0
   61.7003   29.1160   44.1740 H   0  0  0  0  0  0  0  0  0  0  0  0
   59.9214   27.7557   48.1134 H   0  0  0  0  0  0  0  0  0  0  0  0
   60.5335   29.0085   50.1748 H   0  0  0  0  0  0  0  0  0  0  0  0
   61.4322   31.3284   50.0114 H   0  0  0  0  0  0  0  0  0  0  0  0
   61.7181   32.3995   47.7778 H   0  0  0  0  0  0  0  0  0  0  0  0
   61.0638   31.1793   45.7093 H   0  0  0  0  0  0  0  0  0  0  0  0
   59.7207   30.2385   44.1104 H   0  0  0  0  0  0  0  0  0  0  0  0
   58.9146   28.6668   43.6617 H   0  0  0  0  0  0  0  0  0  0  0  0
   58.0513   34.0072   43.9122 H   0  0  0  0  0  0  0  0  0  0  0  0
   59.6000   35.8719   44.4706 H   0  0  0  0  0  0  0  0  0  0  0  0
   60.4319   36.1596   46.8006 H   0  0  0  0  0  0  0  0  0  0  0  0
   60.5380   35.4064   49.1105 H   0  0  0  0  0  0  0  0  0  0  0  0
   59.9094   33.7644   50.8787 H   0  0  0  0  0  0  0  0  0  0  0  0
   58.4159   31.8470   50.3324 H   0  0  0  0  0  0  0  0  0  0  0  0
   57.4790   31.5953   48.0390 H   0  0  0  0  0  0  0  0  0  0  0  0
  2  1  1  6
  2  3  1  0
  3  4  2  0
  4  5  1  0
  5  6  2  0
  6  7  1  0
  7  8  2  0
  2  9  1  0
  9 10  1  0
 10 11  1  0
 11 12  2  0
 11 13  1  0
 13 14  1  0
 14 15  2  0
 15 16  1  0
 16 17  2  0
 17 18  1  0
 18 19  2  0
 19 20  1  0
 20 21  2  0
 21 22  1  0
 22 23  2  0
 10 24  2  0
 24 25  1  0
 25 26  2  0
 25 27  2  0
 25 28  1  0
 28  2  1  0
  8  3  1  0
 23 14  1  0
 23 18  1  0
  1 29  1  0
  1 30  1  0
  1 31  1  0
  4 32  1  0
  5 33  1  0
  6 34  1  0
  7 35  1  0
  8 36  1  0
  9 37  1  0
  9 38  1  0
 15 39  1  0
 16 40  1  0
 17 41  1  0
 19 42  1  0
 20 43  1  0
 21 44  1  0
 22 45  1  0
M  CHG  2  13  -1  28  -1
M  END
>  <UniqueID>  (14) 
11

>  <SMILES>  (14) 
C[C@@]1(c2ccccc2)CC(C(=O)[N-]c2cccc3ccccc23)=NS(=O)(=O)[N-]1

>  <Energy>  (14) 
63.49206925522186

>  <Genealogy>  (14) 
CC1(c2ccccc2)CC(C(=O)[N-]c2cccc3ccccc23)=NS(=O)(=O)[N-]1 (protonated)
C[C@@]1(c2ccccc2)CC(C(=O)[N-]c2cccc3ccccc23)=NS(=O)(=O)[N-]1 (chirality)
C[C@@]1(c2ccccc2)CC(C(=O)[N-]c2cccc3ccccc23)=NS(=O)(=O)[N-]1 (3D coordinates assigned)
C[C@@]1(c2ccccc2)CC(C(=O)[N-]c2cccc3ccccc23)=NS(=O)(=O)[N-]1 (nonaromatic ring conformer: 63.49206925522186 kcal/mol)

>  <smiles>  (14) 
CC1(c2ccccc2)CC(C(=O)Nc2cccc3ccccc23)=NS(=O)(=O)N1

>  <score_type>  (14) 
oracle

>  <origin>  (14) 
adg

>  <m_score__min__energy>  (14) 
-11.23

>  <m_primary>  (14) 
energy

$$$$
14:0
     RDKit          3D

 39 40  0  0  0  0  0  0  0  0999 V2000
   59.2100   24.1760   45.6890 C   0  0  0  0  0  0  0  0  0  0  0  0
   58.6770   25.5960   45.7100 C   0  0  0  0  0  0  0  0  0  0  0  0
   59.6040   26.5960   45.6890 N   0  0  0  0  0  0  0  0  0  0  0  0
   59.4820   27.9450   45.6460 C   0  0  0  0  0  0  0  0  0  0  0  0
   58.3190   28.7060   45.5890 C   0  0  0  0  0  0  0  0  0  0  0  0
   58.4820   30.1780   45.4650 C   0  0  0  0  0  0  0  0  0  0  0  0
   58.4700   30.6800   44.3070 O   0  0  0  0  0  0  0  0  0  0  0  0
   58.6720   31.0410   46.6150 N   0  0  0  0  0  0  0  0  0  0  0  0
   57.8860   32.2890   46.6680 C   0  0  0  0  0  0  0  0  0  0  0  0
   58.7010   33.5510   46.3550 C   0  0  0  0  0  0  0  0  0  0  0  0
   59.9830   33.6780   47.1910 C   0  0  0  0  0  0  0  0  0  0  0  0
   61.1220   32.8560   46.7280 N   0  0  0  0  0  0  0  0  0  0  0  0
   62.4300   33.5320   46.7430 C   0  0  0  0  0  0  0  0  0  0  0  0
   61.1330   31.4220   47.0820 C   0  0  0  0  0  0  0  0  0  0  0  0
   59.7870   30.8210   47.5560 C   0  0  0  0  0  0  0  0  0  0  0  0
   57.0140   28.2400   45.7020 C   0  0  0  0  0  0  0  0  0  0  0  0
   56.5450   26.9410   45.8420 C   0  0  0  0  0  0  0  0  0  0  0  0
   55.1620   26.8210   45.9830 O   0  0  0  0  0  0  0  0  0  0  0  0
   57.2790   25.7510   45.8370 C   0  0  0  0  0  0  0  0  0  0  0  0
   56.5970   24.6940   45.9550 O   0  0  0  0  0  0  0  0  0  0  0  0
   59.3439   23.8193   46.7209 H   0  0  0  0  0  0  0  0  0  0  0  0
   58.4955   23.5239   45.1654 H   0  0  0  0  0  0  0  0  0  0  0  0
   60.1772   24.1551   45.1654 H   0  0  0  0  0  0  0  0  0  0  0  0
   60.6050   26.2910   45.6880 H   0  0  0  0  0  0  0  0  0  0  0  0
   60.4248   28.5116   45.6577 H   0  0  0  0  0  0  0  0  0  0  0  0
   57.0682   32.2145   45.9362 H   0  0  0  0  0  0  0  0  0  0  0  0
   57.5208   32.3927   47.7004 H   0  0  0  0  0  0  0  0  0  0  0  0
   58.9802   33.5297   45.2912 H   0  0  0  0  0  0  0  0  0  0  0  0
   58.0667   34.4146   46.6039 H   0  0  0  0  0  0  0  0  0  0  0  0
   60.2961   34.7324   47.1755 H   0  0  0  0  0  0  0  0  0  0  0  0
   59.7294   33.3090   48.1958 H   0  0  0  0  0  0  0  0  0  0  0  0
   62.7463   33.6955   47.7838 H   0  0  0  0  0  0  0  0  0  0  0  0
   63.1728   32.9049   46.2282 H   0  0  0  0  0  0  0  0  0  0  0  0
   62.3480   34.5007   46.2282 H   0  0  0  0  0  0  0  0  0  0  0  0
   61.4563   30.8601   46.1933 H   0  0  0  0  0  0  0  0  0  0  0  0
   61.8108   31.3384   47.9443 H   0  0  0  0  0  0  0  0  0  0  0  0
   59.9191   29.7372   47.6898 H   0  0  0  0  0  0  0  0  0  0  0  0
   59.5206   31.3316   48.4932 H   0  0  0  0  0  0  0  0  0  0  0  0
   56.2363   29.0175   45.6767 H   0  0  0  0  0  0  0  0  0  0  0  0
  1  2  1  0
  2  3  2  0
  3  4  1  0
  4  5  2  0
  5  6  1  0
  6  7  2  0
  6  8  1  0
  8  9  1  0
  9 10  1  0
 10 11  1  0
 11 12  1  0
 12 13  1  0
 12 14  1  0
 14 15  1  0
  5 16  1  0
 16 17  2  0
 17 18  1  0
 17 19  1  0
 19 20  2  0
 19  2  1  0
 15  8  1  0
  1 21  1  0
  1 22  1  0
  1 23  1  0
  3 24  1  0
  4 25  1  0
  9 26  1  0
  9 27  1  0
 10 28  1  0
 10 29  1  0
 11 30  1  0
 11 31  1  0
 13 32  1  0
 13 33  1  0
 13 34  1  0
 14 35  1  0
 14 36  1  0
 15 37  1  0
 15 38  1  0
 16 39  1  0
M  CHG  2   3   1  18  -1
M  END
>  <UniqueID>  (15) 
12

>  <SMILES>  (15) 
Cc1[nH+]cc(C(=O)N2CCCN(C)CC2)cc([O-])c1=O

>  <Energy>  (15) 
87.53048825896227

>  <Genealogy>  (15) 
Cc1[nH+]cc(C(=O)N2CCCN(C)CC2)cc([O-])c1=O (protonated)
Cc1[nH+]cc(C(=O)N2CCCN(C)CC2)cc([O-])c1=O (3D coordinates assigned)
Cc1[nH+]cc(C(=O)N2CCCN(C)CC2)cc([O-])c1=O (nonaromatic ring conformer: 87.53048825896227 kcal/mol)

>  <smiles>  (15) 
Cc1ncc(C(=O)N2CCCN(C)CC2)cc(O)c1=O

>  <score_type>  (15) 
oracle

>  <origin>  (15) 
adg

>  <m_score__min__energy>  (15) 
-6.5700000000000003

>  <m_primary>  (15) 
energy

$$$$
15:0
     RDKit          3D

 53 57  0  0  0  0  0  0  0  0999 V2000
   54.5520   29.5760   52.5330 C   0  0  0  0  0  0  0  0  0  0  0  0
   55.9510   29.3860   52.3320 O   0  0  0  0  0  0  0  0  0  0  0  0
   56.8610   30.4210   52.0800 C   0  0  0  0  0  0  0  0  0  0  0  0
   56.6570   31.7490   52.5570 C   0  0  0  0  0  0  0  0  0  0  0  0
   57.5980   32.7580   52.2840 C   0  0  0  0  0  0  0  0  0  0  0  0
   58.7210   32.4140   51.5400 C   0  0  0  0  0  0  0  0  0  0  0  0
   59.7340   33.2090   51.1720 N   0  0  0  0  0  0  0  0  0  0  0  0
   60.5320   32.3580   50.4710 C   0  0  0  0  0  0  0  0  0  0  0  0
   61.8100   32.7700   49.8720 C   0  0  0  0  0  0  0  0  0  0  0  0
   62.9940   32.4950   50.4870 N   0  0  0  0  0  0  0  0  0  0  0  0
   64.0500   33.0220   49.8300 C   0  0  0  0  0  0  0  0  0  0  0  0
   63.5640   33.8510   48.4520 S   0  0  0  0  0  0  0  0  0  0  0  0
   61.9350   33.5300   48.7100 C   0  0  0  0  0  0  0  0  0  0  0  0
   60.9020   33.7880   47.7470 N   0  0  0  0  0  0  0  0  0  0  0  0
   61.1200   33.3740   46.3490 C   0  0  0  0  0  0  0  0  0  0  0  0
   60.2020   34.1380   45.3940 C   0  0  0  0  0  0  0  0  0  0  0  0
   58.8250   34.0990   45.9030 N   0  0  0  0  0  0  0  0  0  0  0  0
   57.7150   33.7890   45.0400 C   0  0  0  0  0  0  0  0  0  0  0  0
   56.6230   34.4080   45.1810 O   0  0  0  0  0  0  0  0  0  0  0  0
   57.8430   32.7630   43.9490 C   0  0  0  0  0  0  0  0  0  0  0  0
   57.4280   31.4400   44.4130 N   0  0  0  0  0  0  0  0  0  0  0  0
   56.2430   30.8380   44.1790 C   0  0  0  0  0  0  0  0  0  0  0  0
   56.2040   29.5740   44.6530 N   0  0  0  0  0  0  0  0  0  0  0  0
   57.4230   29.3920   45.2070 C   0  0  0  0  0  0  0  0  0  0  0  0
   57.8850   28.1120   45.8220 C   0  0  0  0  0  0  0  0  0  0  0  0
   58.1850   30.5260   45.0460 C   0  0  0  0  0  0  0  0  0  0  0  0
   58.5590   34.4200   47.3130 C   0  0  0  0  0  0  0  0  0  0  0  0
   59.8480   34.7520   48.0770 C   0  0  0  0  0  0  0  0  0  0  0  0
   60.0720   31.0810   50.3970 N   0  0  0  0  0  0  0  0  0  0  0  0
   58.9180   31.1520   51.0770 C   0  0  0  0  0  0  0  0  0  0  0  0
   58.0140   30.1230   51.3260 C   0  0  0  0  0  0  0  0  0  0  0  0
   54.3371   29.6052   53.6114 H   0  0  0  0  0  0  0  0  0  0  0  0
   54.2407   30.5247   52.0713 H   0  0  0  0  0  0  0  0  0  0  0  0
   53.9990   28.7447   52.0713 H   0  0  0  0  0  0  0  0  0  0  0  0
   55.7568   31.9862   53.1430 H   0  0  0  0  0  0  0  0  0  0  0  0
   57.4503   33.7857   52.6473 H   0  0  0  0  0  0  0  0  0  0  0  0
   65.0957   32.9211   50.1560 H   0  0  0  0  0  0  0  0  0  0  0  0
   62.1668   33.5726   46.0755 H   0  0  0  0  0  0  0  0  0  0  0  0
   60.8928   32.3010   46.2651 H   0  0  0  0  0  0  0  0  0  0  0  0
   60.5367   35.1833   45.3214 H   0  0  0  0  0  0  0  0  0  0  0  0
   60.2384   33.6715   44.3985 H   0  0  0  0  0  0  0  0  0  0  0  0
   57.2088   33.0606   43.1010 H   0  0  0  0  0  0  0  0  0  0  0  0
   58.8988   32.7091   43.6450 H   0  0  0  0  0  0  0  0  0  0  0  0
   55.4028   31.3227   43.6602 H   0  0  0  0  0  0  0  0  0  0  0  0
   57.8534   28.1995   46.9181 H   0  0  0  0  0  0  0  0  0  0  0  0
   57.2261   27.2919   45.5005 H   0  0  0  0  0  0  0  0  0  0  0  0
   58.9157   27.9018   45.5005 H   0  0  0  0  0  0  0  0  0  0  0  0
   59.2258   30.6609   45.3755 H   0  0  0  0  0  0  0  0  0  0  0  0
   57.8846   35.2878   47.3591 H   0  0  0  0  0  0  0  0  0  0  0  0
   58.1015   33.5371   47.7834 H   0  0  0  0  0  0  0  0  0  0  0  0
   60.1824   35.7629   47.8010 H   0  0  0  0  0  0  0  0  0  0  0  0
   59.6449   34.7020   49.1569 H   0  0  0  0  0  0  0  0  0  0  0  0
   58.1943   29.1068   50.9454 H   0  0  0  0  0  0  0  0  0  0  0  0
  1  2  1  0
  2  3  1  0
  3  4  2  0
  4  5  1  0
  5  6  2  0
  6  7  1  0
  7  8  1  0
  8  9  1  0
  9 10  1  0
 10 11  2  0
 11 12  1  0
 12 13  1  0
 13 14  1  0
 14 15  1  0
 15 16  1  0
 16 17  1  0
 17 18  1  0
 18 19  2  0
 18 20  1  0
 20 21  1  0
 21 22  1  0
 22 23  2  0
 23 24  1  0
 24 25  1  0
 24 26  2  0
 17 27  1  0
 27 28  1  0
  8 29  2  0
 29 30  1  0
 30 31  2  0
 31  3  1  0
 30  6  1  0
 13  9  2  0
 28 14  1  0
 26 21  1  0
  1 32  1  0
  1 33  1  0
  1 34  1  0
  4 35  1  0
  5 36  1  0
 11 37  1  0
 15 38  1  0
 15 39  1  0
 16 40  1  0
 16 41  1  0
 20 42  1  0
 20 43  1  0
 22 44  1  0
 25 45  1  0
 25 46  1  0
 25 47  1  0
 26 48  1  0
 27 49  1  0
 27 50  1  0
 28 51  1  0
 28 52  1  0
 31 53  1  0
M  CHG  1   7  -1
M  END
>  <UniqueID>  (16) 
13

>  <SMILES>  (16) 
COc1ccc2[n-]c(-c3ncsc3N3CCN(C(=O)Cn4cnc(C)c4)CC3)nc2c1

>  <Energy>  (16) 
156.8209304759356

>  <Genealogy>  (16) 
COc1ccc2[n-]c(-c3ncsc3N3CCN(C(=O)Cn4cnc(C)c4)CC3)nc2c1 (protonated)
COc1ccc2[n-]c(-c3ncsc3N3CCN(C(=O)Cn4cnc(C)c4)CC3)nc2c1 (3D coordinates assigned)
COc1ccc2[n-]c(-c3ncsc3N3CCN(C(=O)Cn4cnc(C)c4)CC3)nc2c1 (nonaromatic ring conformer: 156.8209304759356 kcal/mol)

>  <smiles>  (16) 
COc1ccc2[nH]c(-c3ncsc3N3CCN(C(=O)Cn4cnc(C)c4)CC3)nc2c1

>  <score_type>  (16) 
oracle

>  <origin>  (16) 
adg

>  <m_score__min__energy>  (16) 
-9.6999999999999993

>  <m_primary>  (16) 
energy

$$$$
16:0
     RDKit          3D

 52 54  0  0  0  0  0  0  0  0999 V2000
   55.6840   30.7010   44.6900 O   0  0  0  0  0  0  0  0  0  0  0  0
   56.8820   30.3090   44.7190 C   0  0  0  0  0  0  0  0  0  0  0  0
   57.3030   29.1250   43.8970 C   0  0  0  0  0  0  0  0  0  0  0  0
   58.5250   28.4240   44.5120 C   0  0  0  0  0  0  0  0  0  0  0  0
   58.3120   28.0040   45.9550 C   0  0  0  0  0  0  0  0  0  0  0  0
   57.1270   27.9000   46.3770 O   0  0  0  0  0  0  0  0  0  0  0  0
   59.4150   27.7830   46.8720 N   0  0  0  0  0  0  0  0  0  0  0  0
   59.7190   26.4490   47.4200 C   0  0  0  0  0  0  0  0  0  0  0  0
   59.2700   25.3690   46.4760 C   0  0  0  0  0  0  0  0  0  0  0  0
   60.1130   24.6220   45.9240 O   0  0  0  0  0  0  0  0  0  0  0  0
   57.8610   25.1980   46.1910 N   0  0  0  0  0  0  0  0  0  0  0  0
   57.3960   24.4020   45.0580 C   0  0  0  0  0  0  0  0  0  0  0  0
   55.8950   24.3280   45.0660 C   0  0  0  0  0  0  0  0  0  0  0  0
   55.1310   23.4980   44.2670 C   0  0  0  0  0  0  0  0  0  0  0  0
   53.8220   23.7390   44.6290 C   0  0  0  0  0  0  0  0  0  0  0  0
   53.8720   24.6940   45.6320 C   0  0  0  0  0  0  0  0  0  0  0  0
   55.1190   25.0200   45.8760 O   0  0  0  0  0  0  0  0  0  0  0  0
   60.2190   28.9040   47.3030 C   0  0  0  0  0  0  0  0  0  0  0  0
   60.4670   29.1120   48.6720 C   0  0  0  0  0  0  0  0  0  0  0  0
   61.2270   30.2100   49.0930 C   0  0  0  0  0  0  0  0  0  0  0  0
   61.7330   31.1190   48.1560 C   0  0  0  0  0  0  0  0  0  0  0  0
   61.4980   30.9220   46.7910 C   0  0  0  0  0  0  0  0  0  0  0  0
   60.7360   29.8270   46.3650 C   0  0  0  0  0  0  0  0  0  0  0  0
   57.8200   30.9040   45.6320 N   0  0  0  0  0  0  0  0  0  0  0  0
   58.2520   32.2730   45.6300 C   0  0  0  0  0  0  0  0  0  0  0  0
   58.3850   33.0120   44.4210 C   0  0  0  0  0  0  0  0  0  0  0  0
   58.0550   32.3110   42.8250 Cl  0  0  0  0  0  0  0  0  0  0  0  0
   58.8630   34.3270   44.4610 C   0  0  0  0  0  0  0  0  0  0  0  0
   59.2350   34.9060   45.6820 C   0  0  0  0  0  0  0  0  0  0  0  0
   59.1460   34.1660   46.8670 C   0  0  0  0  0  0  0  0  0  0  0  0
   58.6600   32.8550   46.8480 C   0  0  0  0  0  0  0  0  0  0  0  0
   58.5070   31.9690   48.3770 Cl  0  0  0  0  0  0  0  0  0  0  0  0
   56.4686   28.4102   43.8447 H   0  0  0  0  0  0  0  0  0  0  0  0
   57.5755   29.4794   42.8919 H   0  0  0  0  0  0  0  0  0  0  0  0
   58.7494   27.5267   43.9165 H   0  0  0  0  0  0  0  0  0  0  0  0
   59.3548   29.1460   44.5015 H   0  0  0  0  0  0  0  0  0  0  0  0
   60.8043   26.3624   47.5770 H   0  0  0  0  0  0  0  0  0  0  0  0
   59.1834   26.3291   48.3733 H   0  0  0  0  0  0  0  0  0  0  0  0
   57.1600   25.7590   46.7220 H   0  0  0  0  0  0  0  0  0  0  0  0
   57.7330   24.8695   44.1211 H   0  0  0  0  0  0  0  0  0  0  0  0
   57.8089   23.3854   45.1361 H   0  0  0  0  0  0  0  0  0  0  0  0
   55.4913   22.7934   43.5030 H   0  0  0  0  0  0  0  0  0  0  0  0
   52.9214   23.2687   44.2073 H   0  0  0  0  0  0  0  0  0  0  0  0
   52.9963   25.1159   46.1469 H   0  0  0  0  0  0  0  0  0  0  0  0
   60.0621   28.4090   49.4149 H   0  0  0  0  0  0  0  0  0  0  0  0
   61.4274   30.3591   50.1643 H   0  0  0  0  0  0  0  0  0  0  0  0
   62.3158   31.9888   48.4934 H   0  0  0  0  0  0  0  0  0  0  0  0
   61.9111   31.6260   46.0536 H   0  0  0  0  0  0  0  0  0  0  0  0
   60.5382   29.6839   45.2924 H   0  0  0  0  0  0  0  0  0  0  0  0
   58.9470   34.9081   43.5308 H   0  0  0  0  0  0  0  0  0  0  0  0
   59.5977   35.9441   45.7092 H   0  0  0  0  0  0  0  0  0  0  0  0
   59.4603   34.6187   47.8190 H   0  0  0  0  0  0  0  0  0  0  0  0
  1  2  2  0
  2  3  1  0
  3  4  1  0
  4  5  1  0
  5  6  2  0
  5  7  1  0
  7  8  1  0
  8  9  1  0
  9 10  2  0
  9 11  1  0
 11 12  1  0
 12 13  1  0
 13 14  2  0
 14 15  1  0
 15 16  2  0
 16 17  1  0
  7 18  1  0
 18 19  2  0
 19 20  1  0
 20 21  2  0
 21 22  1  0
 22 23  2  0
  2 24  1  0
 24 25  1  0
 25 26  2  0
 26 27  1  0
 26 28  1  0
 28 29  2  0
 29 30  1  0
 30 31  2  0
 31 32  1  0
 17 13  1  0
 23 18  1  0
 31 25  1  0
  3 33  1  0
  3 34  1  0
  4 35  1  0
  4 36  1  0
  8 37  1  0
  8 38  1  0
 11 39  1  0
 12 40  1  0
 12 41  1  0
 14 42  1  0
 15 43  1  0
 16 44  1  0
 19 45  1  0
 20 46  1  0
 21 47  1  0
 22 48  1  0
 23 49  1  0
 28 50  1  0
 29 51  1  0
 30 52  1  0
M  CHG  1  24  -1
M  END
>  <UniqueID>  (17) 
14

>  <SMILES>  (17) 
O=C(CCC(=O)N(CC(=O)NCc1ccco1)c1ccccc1)[N-]c1c(Cl)cccc1Cl

>  <Energy>  (17) 
84.75223934261714

>  <Genealogy>  (17) 
O=C(CCC(=O)N(CC(=O)NCc1ccco1)c1ccccc1)[N-]c1c(Cl)cccc1Cl (protonated)
O=C(CCC(=O)N(CC(=O)NCc1ccco1)c1ccccc1)[N-]c1c(Cl)cccc1Cl (3D coordinates assigned)
O=C(CCC(=O)N(CC(=O)NCc1ccco1)c1ccccc1)[N-]c1c(Cl)cccc1Cl (optimized conformer: 84.75223934261714 kcal/mol)

>  <smiles>  (17) 
O=C(CN(C(=O)CCC(=O)Nc1c(Cl)cccc1Cl)c1ccccc1)NCc1ccco1

>  <score_type>  (17) 
oracle

>  <origin>  (17) 
adg

>  <m_score__min__energy>  (17) 
-10.609999999999999

>  <m_primary>  (17) 
energy

$$$$
17:0
     RDKit          3D

 40 42  0  0  0  0  0  0  0  0999 V2000
   62.5930   33.8330   48.5620 C   0  0  0  0  0  0  0  0  0  0  0  0
   61.2280   34.1760   48.7710 O   0  0  0  0  0  0  0  0  0  0  0  0
   60.1980   33.9230   47.8520 C   0  0  0  0  0  0  0  0  0  0  0  0
   60.3870   34.3050   46.5190 C   0  0  0  0  0  0  0  0  0  0  0  0
   59.3930   34.0730   45.5650 C   0  0  0  0  0  0  0  0  0  0  0  0
   58.1920   33.4460   45.9310 C   0  0  0  0  0  0  0  0  0  0  0  0
   57.1220   33.1990   44.8990 C   0  0  0  0  0  0  0  0  0  0  0  0
   57.4010   31.9760   44.1460 N   0  0  0  0  0  0  0  0  0  0  0  0
   57.7630   30.7140   44.7440 C   0  0  0  0  0  0  0  0  0  0  0  0
   59.0740   30.4440   45.1680 C   0  0  0  0  0  0  0  0  0  0  0  0
   59.3990   29.2120   45.7380 C   0  0  0  0  0  0  0  0  0  0  0  0
   58.4170   28.2090   45.9070 C   0  0  0  0  0  0  0  0  0  0  0  0
   57.0940   28.4890   45.4850 C   0  0  0  0  0  0  0  0  0  0  0  0
   56.7800   29.7310   44.9140 C   0  0  0  0  0  0  0  0  0  0  0  0
   56.1260   27.5460   45.6360 N   0  0  0  0  0  0  0  0  0  0  0  0
   56.4040   26.3380   46.1840 C   0  0  0  0  0  0  0  0  0  0  0  0
   55.4860   25.4820   46.3120 O   0  0  0  0  0  0  0  0  0  0  0  0
   57.7060   26.0440   46.6060 C   0  0  0  0  0  0  0  0  0  0  0  0
   57.9420   24.9130   47.1140 O   0  0  0  0  0  0  0  0  0  0  0  0
   58.7060   26.9790   46.4650 N   0  0  0  0  0  0  0  0  0  0  0  0
   60.0770   26.6610   46.9130 C   0  0  0  0  0  0  0  0  0  0  0  0
   57.9930   33.0720   47.2700 C   0  0  0  0  0  0  0  0  0  0  0  0
   58.9890   33.3050   48.2230 C   0  0  0  0  0  0  0  0  0  0  0  0
   63.0925   33.7075   49.5340 H   0  0  0  0  0  0  0  0  0  0  0  0
   62.6520   32.8921   47.9952 H   0  0  0  0  0  0  0  0  0  0  0  0
   63.0898   34.6342   47.9952 H   0  0  0  0  0  0  0  0  0  0  0  0
   61.3266   34.7923   46.2197 H   0  0  0  0  0  0  0  0  0  0  0  0
   59.5526   34.3833   44.5218 H   0  0  0  0  0  0  0  0  0  0  0  0
   56.1500   33.0981   45.4039 H   0  0  0  0  0  0  0  0  0  0  0  0
   57.1030   34.0479   44.1997 H   0  0  0  0  0  0  0  0  0  0  0  0
   57.3800   32.0450   43.1030 H   0  0  0  0  0  0  0  0  0  0  0  0
   59.8532   31.2114   45.0497 H   0  0  0  0  0  0  0  0  0  0  0  0
   60.4329   29.0189   46.0600 H   0  0  0  0  0  0  0  0  0  0  0  0
   55.7473   29.9359   44.5953 H   0  0  0  0  0  0  0  0  0  0  0  0
   55.1470   27.7470   45.3260 H   0  0  0  0  0  0  0  0  0  0  0  0
   60.1109   26.6531   48.0124 H   0  0  0  0  0  0  0  0  0  0  0  0
   60.3676   25.6716   46.5301 H   0  0  0  0  0  0  0  0  0  0  0  0
   60.7735   27.4214   46.5301 H   0  0  0  0  0  0  0  0  0  0  0  0
   57.0491   32.5935   47.5703 H   0  0  0  0  0  0  0  0  0  0  0  0
   58.8270   33.0037   49.2685 H   0  0  0  0  0  0  0  0  0  0  0  0
  1  2  1  0
  2  3  1  0
  3  4  2  0
  4  5  1  0
  5  6  2  0
  6  7  1  0
  7  8  1  0
  8  9  1  0
  9 10  2  0
 10 11  1  0
 11 12  2  0
 12 13  1  0
 13 14  2  0
 13 15  1  0
 15 16  1  0
 16 17  2  0
 16 18  1  0
 18 19  2  0
 18 20  1  0
 20 21  1  0
  6 22  1  0
 22 23  2  0
 23  3  1  0
 14  9  1  0
 20 12  1  0
  1 24  1  0
  1 25  1  0
  1 26  1  0
  4 27  1  0
  5 28  1  0
  7 29  1  0
  7 30  1  0
  8 31  1  0
 10 32  1  0
 11 33  1  0
 14 34  1  0
 15 35  1  0
 21 36  1  0
 21 37  1  0
 21 38  1  0
 22 39  1  0
 23 40  1  0
M  END
>  <UniqueID>  (18) 
15

>  <SMILES>  (18) 
COc1ccc(CNc2ccc3c(c2)[nH]c(=O)c(=O)n3C)cc1

>  <Energy>  (18) 
51.697672268434935

>  <Genealogy>  (18) 
COc1ccc(CNc2ccc3c(c2)[nH]c(=O)c(=O)n3C)cc1 (3D coordinates assigned)
COc1ccc(CNc2ccc3c(c2)[nH]c(=O)c(=O)n3C)cc1 (optimized conformer: 51.697672268434935 kcal/mol)

>  <smiles>  (18) 
COc1ccc(CNc2ccc3c(c2)[nH]c(=O)c(=O)n3C)cc1

>  <score_type>  (18) 
oracle

>  <origin>  (18) 
adg

>  <m_score__min__energy>  (18) 
-8.0199999999999996

>  <m_primary>  (18) 
energy

$$$$
18:0
     RDKit          3D

 33 35  0  0  0  0  0  0  0  0999 V2000
   57.3624   24.1548   46.9106 H   0  0  0  0  0  0  0  0  0  0  0  0
   57.1910   25.1600   46.4980 C   0  0  0  0  0  0  0  0  0  0  0  0
   58.3710   26.3270   46.2120 S   0  0  0  0  0  0  0  0  0  0  0  0
   57.2750   27.4460   45.6100 C   0  0  0  0  0  0  0  0  0  0  0  0
   57.6260   28.6380   45.2170 N   0  0  0  0  0  0  0  0  0  0  0  0
   56.7830   29.7660   44.9290 C   0  0  0  0  0  0  0  0  0  0  0  0
   55.5320   29.6340   44.8570 O   0  0  0  0  0  0  0  0  0  0  0  0
   57.3960   31.0880   44.6500 C   0  0  0  0  0  0  0  0  0  0  0  0
   57.5820   31.5260   43.3240 C   0  0  0  0  0  0  0  0  0  0  0  0
   57.2674   30.8852   42.4871 H   0  0  0  0  0  0  0  0  0  0  0  0
   58.1640   32.7700   43.0660 C   0  0  0  0  0  0  0  0  0  0  0  0
   58.3051   33.1036   42.0273 H   0  0  0  0  0  0  0  0  0  0  0  0
   58.5670   33.5910   44.1200 C   0  0  0  0  0  0  0  0  0  0  0  0
   59.0219   34.5707   43.9118 H   0  0  0  0  0  0  0  0  0  0  0  0
   58.3920   33.1670   45.4420 C   0  0  0  0  0  0  0  0  0  0  0  0
   58.9200   34.2160   46.7960 S   0  0  0  0  0  0  0  0  0  0  0  0
   60.5130   33.4050   46.9270 C   0  0  0  0  0  0  0  0  0  0  0  0
   60.5830   32.0360   47.2090 C   0  0  0  0  0  0  0  0  0  0  0  0
   59.6589   31.4555   47.3467 H   0  0  0  0  0  0  0  0  0  0  0  0
   61.8270   31.4050   47.3160 C   0  0  0  0  0  0  0  0  0  0  0  0
   61.8805   30.3291   47.5386 H   0  0  0  0  0  0  0  0  0  0  0  0
   63.0030   32.1420   47.1400 C   0  0  0  0  0  0  0  0  0  0  0  0
   63.9812   31.6463   47.2256 H   0  0  0  0  0  0  0  0  0  0  0  0
   62.9340   33.5100   46.8550 C   0  0  0  0  0  0  0  0  0  0  0  0
   63.8586   34.0895   46.7158 H   0  0  0  0  0  0  0  0  0  0  0  0
   61.6920   34.1410   46.7470 C   0  0  0  0  0  0  0  0  0  0  0  0
   61.6396   35.2162   46.5205 H   0  0  0  0  0  0  0  0  0  0  0  0
   57.8060   31.9230   45.7060 C   0  0  0  0  0  0  0  0  0  0  0  0
   57.6650   31.5959   46.7467 H   0  0  0  0  0  0  0  0  0  0  0  0
   56.0100   26.9580   45.6320 N   0  0  0  0  0  0  0  0  0  0  0  0
   55.1480   27.4710   45.3540 H   0  0  0  0  0  0  0  0  0  0  0  0
   55.9620   25.6900   46.1210 C   0  0  0  0  0  0  0  0  0  0  0  0
   55.0219   25.1261   46.2115 H   0  0  0  0  0  0  0  0  0  0  0  0
  1  2  1  0
  2  3  1  0
  3  4  1  0
  4  5  2  0
  5  6  1  0
  6  7  2  0
  6  8  1  0
  8  9  2  0
  9 10  1  0
  9 11  1  0
 11 12  1  0
 11 13  2  0
 13 14  1  0
 13 15  1  0
 15 16  1  0
 16 17  1  0
 17 18  2  0
 18 19  1  0
 18 20  1  0
 20 21  1  0
 20 22  2  0
 22 23  1  0
 22 24  1  0
 24 25  1  0
 24 26  2  0
 26 27  1  0
 15 28  2  0
 28 29  1  0
  4 30  1  0
 30 31  1  0
 30 32  1  0
 32 33  1  0
 32  2  2  0
 28  8  1  0
 26 17  1  0
M  END
>  <UniqueID>  (19) 
16

>  <SMILES>  (19) 
O=C(/N=c1\[nH]ccs1)c1cccc(Sc2ccccc2)c1

>  <Energy>  (19) 
66.70544824810734

>  <Genealogy>  (19) 
O=C(/N=c1\[nH]ccs1)c1cccc(Sc2ccccc2)c1 (cis-trans isomerization)
O=C(/N=c1\[nH]ccs1)c1cccc(Sc2ccccc2)c1 (3D coordinates assigned)
O=C(/N=c1\[nH]ccs1)c1cccc(Sc2ccccc2)c1 (optimized conformer: 66.70544824810734 kcal/mol)

>  <smiles>  (19) 
O=C(N=c1[nH]ccs1)c1cccc(Sc2ccccc2)c1

>  <score_type>  (19) 
oracle

>  <origin>  (19) 
adg

>  <m_score__min__energy>  (19) 
-8.4100000000000001

>  <m_primary>  (19) 
energy

$$$$
19:0
     RDKit          3D

 36 38  0  0  0  0  0  0  0  0999 V2000
   55.6240   25.3290   46.4490 O   0  0  0  0  0  0  0  0  0  0  0  0
   56.3320   26.3640   46.3560 C   0  0  0  0  0  0  0  0  0  0  0  0
   57.6050   26.4160   46.9970 N   0  0  0  0  0  0  0  0  0  0  0  0
   58.4510   27.5610   46.8720 C   0  0  0  0  0  0  0  0  0  0  0  0
   59.5610   27.5640   47.4700 O   0  0  0  0  0  0  0  0  0  0  0  0
   58.0310   28.7150   46.0360 C   0  0  0  0  0  0  0  0  0  0  0  0
   58.8890   29.7410   45.8360 C   0  0  0  0  0  0  0  0  0  0  0  0
   58.5090   31.1000   45.3980 C   0  0  0  0  0  0  0  0  0  0  0  0
   58.2390   31.3730   44.0490 C   0  0  0  0  0  0  0  0  0  0  0  0
   57.9330   32.6750   43.6440 C   0  0  0  0  0  0  0  0  0  0  0  0
   57.9130   33.7140   44.5770 C   0  0  0  0  0  0  0  0  0  0  0  0
   58.2090   33.4590   45.9290 C   0  0  0  0  0  0  0  0  0  0  0  0
   58.2100   34.4650   46.9090 O   0  0  0  0  0  0  0  0  0  0  0  0
   59.3710   35.1390   47.3980 C   0  0  0  0  0  0  0  0  0  0  0  0
   60.5300   34.1850   47.5250 C   0  0  0  0  0  0  0  0  0  0  0  0
   61.5720   34.2140   46.5830 C   0  0  0  0  0  0  0  0  0  0  0  0
   62.6540   33.3370   46.7010 C   0  0  0  0  0  0  0  0  0  0  0  0
   62.7090   32.4320   47.7650 C   0  0  0  0  0  0  0  0  0  0  0  0
   63.7590   31.5820   47.8790 F   0  0  0  0  0  0  0  0  0  0  0  0
   61.6820   32.4050   48.7130 C   0  0  0  0  0  0  0  0  0  0  0  0
   60.5980   33.2810   48.5980 C   0  0  0  0  0  0  0  0  0  0  0  0
   58.5200   32.1520   46.3270 C   0  0  0  0  0  0  0  0  0  0  0  0
   56.6450   28.6750   45.4870 C   0  0  0  0  0  0  0  0  0  0  0  0
   56.1190   29.6880   44.9520 O   0  0  0  0  0  0  0  0  0  0  0  0
   55.8580   27.4890   45.6180 N   0  0  0  0  0  0  0  0  0  0  0  0
   59.9572   29.5480   46.0140 H   0  0  0  0  0  0  0  0  0  0  0  0
   58.2682   30.5604   43.3082 H   0  0  0  0  0  0  0  0  0  0  0  0
   57.7073   32.8821   42.5875 H   0  0  0  0  0  0  0  0  0  0  0  0
   57.6649   34.7358   44.2538 H   0  0  0  0  0  0  0  0  0  0  0  0
   59.6417   35.9442   46.6991 H   0  0  0  0  0  0  0  0  0  0  0  0
   59.1455   35.5539   48.3915 H   0  0  0  0  0  0  0  0  0  0  0  0
   61.5362   34.9301   45.7488 H   0  0  0  0  0  0  0  0  0  0  0  0
   63.4629   33.3590   45.9559 H   0  0  0  0  0  0  0  0  0  0  0  0
   61.7266   31.6936   49.5508 H   0  0  0  0  0  0  0  0  0  0  0  0
   59.7958   33.2621   49.3504 H   0  0  0  0  0  0  0  0  0  0  0  0
   58.7752   31.9485   47.3775 H   0  0  0  0  0  0  0  0  0  0  0  0
  1  2  2  0
  2  3  1  0
  3  4  1  0
  4  5  2  0
  4  6  1  0
  6  7  2  3
  7  8  1  0
  8  9  2  0
  9 10  1  0
 10 11  2  0
 11 12  1  0
 12 13  1  0
 13 14  1  0
 14 15  1  0
 15 16  2  0
 16 17  1  0
 17 18  2  0
 18 19  1  0
 18 20  1  0
 20 21  2  0
 12 22  2  0
  6 23  1  0
 23 24  2  0
 23 25  1  0
 25  2  1  0
 22  8  1  0
 21 15  1  0
  7 26  1  0
  9 27  1  0
 10 28  1  0
 11 29  1  0
 14 30  1  0
 14 31  1  0
 16 32  1  0
 17 33  1  0
 20 34  1  0
 21 35  1  0
 22 36  1  0
M  CHG  2   3  -1  25  -1
M  END
>  <UniqueID>  (20) 
17

>  <SMILES>  (20) 
O=C1[N-]C(=O)C(=Cc2cccc(OCc3ccc(F)cc3)c2)C(=O)[N-]1

>  <Energy>  (20) 
46.80657643169823

>  <Genealogy>  (20) 
O=C1[N-]C(=O)C(=Cc2cccc(OCc3ccc(F)cc3)c2)C(=O)[N-]1 (protonated)
O=C1[N-]C(=O)C(=Cc2cccc(OCc3ccc(F)cc3)c2)C(=O)[N-]1 (3D coordinates assigned)
O=C1[N-]C(=O)C(=Cc2cccc(OCc3ccc(F)cc3)c2)C(=O)[N-]1 (nonaromatic ring conformer: 46.80657643169823 kcal/mol)

>  <smiles>  (20) 
O=C1NC(=O)C(=Cc2cccc(OCc3ccc(F)cc3)c2)C(=O)N1

>  <score_type>  (20) 
oracle

>  <origin>  (20) 
adg

>  <m_score__min__energy>  (20) 
-12.529999999999999

>  <m_primary>  (20) 
energy

$$$$
20:0
     RDKit          3D

 38 40  0  0  0  0  0  0  0  0999 V2000
   59.4910   28.3091   45.5810 H   0  0  0  0  0  0  0  0  0  0  0  0
   58.4290   28.0230   45.5980 C   0  0  0  0  0  0  0  0  0  0  0  0
   57.8100   26.5700   46.1800 S   0  0  0  0  0  0  0  0  0  0  0  0
   56.2210   26.9920   45.8240 C   0  0  0  0  0  0  0  0  0  0  0  0
   55.1720   26.2610   46.0470 N   0  0  0  0  0  0  0  0  0  0  0  0
   54.9510   24.9420   45.4630 C   0  0  0  0  0  0  0  0  0  0  0  0
   53.9659   24.5679   45.7787 H   0  0  0  0  0  0  0  0  0  0  0  0
   54.9934   25.0292   44.3673 H   0  0  0  0  0  0  0  0  0  0  0  0
   56.0360   23.9550   45.9220 C   0  0  0  0  0  0  0  0  0  0  0  0
   56.5864   24.4144   46.7563 H   0  0  0  0  0  0  0  0  0  0  0  0
   55.5141   23.0292   46.2057 H   0  0  0  0  0  0  0  0  0  0  0  0
   57.0140   23.5800   44.8750 N   0  0  0  0  0  0  0  0  0  0  0  0
   56.6330   23.9190   43.4870 C   0  0  0  0  0  0  0  0  0  0  0  0
   55.7090   24.5154   43.5107 H   0  0  0  0  0  0  0  0  0  0  0  0
   57.4664   24.4808   43.0400 H   0  0  0  0  0  0  0  0  0  0  0  0
   56.3930   22.6740   42.6210 C   0  0  0  0  0  0  0  0  0  0  0  0
   55.6445   22.9075   41.8495 H   0  0  0  0  0  0  0  0  0  0  0  0
   57.3416   22.3786   42.1489 H   0  0  0  0  0  0  0  0  0  0  0  0
   55.9250   21.6080   43.4150 O   0  0  0  0  0  0  0  0  0  0  0  0
   56.9720   21.1380   44.2400 C   0  0  0  0  0  0  0  0  0  0  0  0
   56.5582   20.4025   44.9455 H   0  0  0  0  0  0  0  0  0  0  0  0
   57.7338   20.6949   43.5818 H   0  0  0  0  0  0  0  0  0  0  0  0
   57.6610   22.2640   45.0500 C   0  0  0  0  0  0  0  0  0  0  0  0
   57.6303   21.9975   46.1168 H   0  0  0  0  0  0  0  0  0  0  0  0
   58.6925   22.3526   44.6782 H   0  0  0  0  0  0  0  0  0  0  0  0
   56.1390   28.2180   45.2690 N   0  0  0  0  0  0  0  0  0  0  0  0
   57.3620   28.8060   45.1390 C   0  0  0  0  0  0  0  0  0  0  0  0
   57.5090   30.1610   44.5450 C   0  0  0  0  0  0  0  0  0  0  0  0
   57.2410   30.3570   43.1750 C   0  0  0  0  0  0  0  0  0  0  0  0
   56.9267   29.5053   42.5539 H   0  0  0  0  0  0  0  0  0  0  0  0
   57.3710   31.6230   42.5990 C   0  0  0  0  0  0  0  0  0  0  0  0
   57.1601   31.7631   41.5285 H   0  0  0  0  0  0  0  0  0  0  0  0
   57.7680   32.7110   43.3790 C   0  0  0  0  0  0  0  0  0  0  0  0
   57.8729   33.7062   42.9224 H   0  0  0  0  0  0  0  0  0  0  0  0
   58.0320   32.5350   44.7400 C   0  0  0  0  0  0  0  0  0  0  0  0
   58.5200   33.9060   45.7200 Cl  0  0  0  0  0  0  0  0  0  0  0  0
   57.9030   31.2690   45.3220 C   0  0  0  0  0  0  0  0  0  0  0  0
   58.1107   31.1375   46.3942 H   0  0  0  0  0  0  0  0  0  0  0  0
  1  2  1  0
  2  3  1  0
  3  4  1  0
  4  5  2  0
  5  6  1  0
  6  7  1  0
  6  8  1  0
  6  9  1  0
  9 10  1  0
  9 11  1  0
  9 12  1  0
 12 13  1  0
 13 14  1  0
 13 15  1  0
 13 16  1  0
 16 17  1  0
 16 18  1  0
 16 19  1  0
 19 20  1  0
 20 21  1  0
 20 22  1  0
 20 23  1  0
 23 24  1  0
 23 25  1  0
  4 26  1  0
 26 27  1  0
 27 28  1  0
 28 29  2  0
 29 30  1  0
 29 31  1  0
 31 32  1  0
 31 33  2  0
 33 34  1  0
 33 35  1  0
 35 36  1  0
 35 37  2  0
 37 38  1  0
 27  2  2  0
 37 28  1  0
 23 12  1  0
M  CHG  1  26  -1
M  END
>  <UniqueID>  (21) 
18

>  <SMILES>  (21) 
Clc1cccc(-c2cs/c(=N\CCN3CCOCC3)[n-]2)c1

>  <Energy>  (21) 
85.82489102877055

>  <Genealogy>  (21) 
Clc1cccc(-c2csc(=NCCN3CCOCC3)[n-]2)c1 (protonated)
Clc1cccc(-c2cs/c(=N\CCN3CCOCC3)[n-]2)c1 (cis-trans isomerization)
Clc1cccc(-c2cs/c(=N\CCN3CCOCC3)[n-]2)c1 (3D coordinates assigned)
Clc1cccc(-c2cs/c(=N\CCN3CCOCC3)[n-]2)c1 (nonaromatic ring conformer: 85.82489102877055 kcal/mol)

>  <smiles>  (21) 
Clc1cccc(-c2csc(=NCCN3CCOCC3)[nH]2)c1

>  <score_type>  (21) 
oracle

>  <origin>  (21) 
adg

>  <m_score__min__energy>  (21) 
-10.210000000000001

>  <m_primary>  (21) 
energy

$$$$
21:0
     RDKit          3D

 23 25  0  0  0  0  0  0  0  0999 V2000
   57.3160   26.0030   45.6400 O   0  0  0  0  0  0  0  0  0  0  0  0
   56.5250   26.9720   45.7790 C   0  0  0  0  0  0  0  0  0  0  0  0
   55.1800   26.7130   46.0090 O   0  0  0  0  0  0  0  0  0  0  0  0
   57.0130   28.3700   45.6730 C   0  0  0  0  0  0  0  0  0  0  0  0
   56.2190   29.3310   44.9850 C   0  0  0  0  0  0  0  0  0  0  0  0
   55.0090   28.9690   44.4010 O   0  0  0  0  0  0  0  0  0  0  0  0
   56.6470   30.6620   44.8600 C   0  0  0  0  0  0  0  0  0  0  0  0
   57.8640   31.0200   45.4190 C   0  0  0  0  0  0  0  0  0  0  0  0
   58.4150   32.2150   45.3970 O   0  0  0  0  0  0  0  0  0  0  0  0
   59.5550   32.1170   46.0420 C   0  0  0  0  0  0  0  0  0  0  0  0
   60.4790   33.1350   46.2670 C   0  0  0  0  0  0  0  0  0  0  0  0
   61.6470   32.8180   46.9820 C   0  0  0  0  0  0  0  0  0  0  0  0
   61.8660   31.5060   47.4500 C   0  0  0  0  0  0  0  0  0  0  0  0
   60.9200   30.4930   47.2100 C   0  0  0  0  0  0  0  0  0  0  0  0
   59.7630   30.8300   46.5010 C   0  0  0  0  0  0  0  0  0  0  0  0
   58.6530   30.1060   46.0920 C   0  0  0  0  0  0  0  0  0  0  0  0
   58.2570   28.7670   46.2470 C   0  0  0  0  0  0  0  0  0  0  0  0
   59.2400   27.6440   47.1880 Cl  0  0  0  0  0  0  0  0  0  0  0  0
   56.0309   31.4038   44.3307 H   0  0  0  0  0  0  0  0  0  0  0  0
   60.3001   34.1552   45.8966 H   0  0  0  0  0  0  0  0  0  0  0  0
   62.3959   33.5995   47.1779 H   0  0  0  0  0  0  0  0  0  0  0  0
   62.7849   31.2726   48.0078 H   0  0  0  0  0  0  0  0  0  0  0  0
   61.0855   29.4666   47.5693 H   0  0  0  0  0  0  0  0  0  0  0  0
  1  2  2  0
  2  3  1  0
  2  4  1  0
  4  5  2  0
  5  6  1  0
  5  7  1  0
  7  8  2  0
  8  9  1  0
  9 10  1  0
 10 11  2  0
 11 12  1  0
 12 13  2  0
 13 14  1  0
 14 15  2  0
 15 16  1  0
 16 17  2  0
 17 18  1  0
 17  4  1  0
 16  8  1  0
 15 10  1  0
  7 19  1  0
 11 20  1  0
 12 21  1  0
 13 22  1  0
 14 23  1  0
M  CHG  2   3  -1   6  -1
M  END
>  <UniqueID>  (22) 
19

>  <SMILES>  (22) 
O=C([O-])c1c([O-])cc2oc3ccccc3c2c1Cl

>  <Energy>  (22) 
75.8091020852248

>  <Genealogy>  (22) 
O=C([O-])c1c([O-])cc2oc3ccccc3c2c1Cl (protonated)
O=C([O-])c1c([O-])cc2oc3ccccc3c2c1Cl (3D coordinates assigned)
O=C([O-])c1c([O-])cc2oc3ccccc3c2c1Cl (optimized conformer: 75.8091020852248 kcal/mol)

>  <smiles>  (22) 
O=C(O)c1c(O)cc2oc3ccccc3c2c1Cl

>  <score_type>  (22) 
oracle

>  <origin>  (22) 
adg

>  <m_score__min__energy>  (22) 
-11.67

>  <m_primary>  (22) 
energy

$$$$
22:0
     RDKit          3D

 52 55  0  0  0  0  0  0  0  0999 V2000
   56.2960   30.2330   43.4240 C   0  0  0  0  0  0  0  0  0  0  0  0
   56.4000   30.8340   44.7110 O   0  0  0  0  0  0  0  0  0  0  0  0
   57.3930   31.7540   45.0780 C   0  0  0  0  0  0  0  0  0  0  0  0
   57.5040   33.0210   44.4800 C   0  0  0  0  0  0  0  0  0  0  0  0
   58.5260   33.8890   44.8640 C   0  0  0  0  0  0  0  0  0  0  0  0
   59.4310   33.5150   45.8590 C   0  0  0  0  0  0  0  0  0  0  0  0
   59.3030   32.2750   46.5180 C   0  0  0  0  0  0  0  0  0  0  0  0
   60.3510   31.8330   47.5400 C   0  0  1  0  0  0  0  0  0  0  0  0
   61.7920   32.3710   47.3040 C   0  0  0  0  0  0  0  0  0  0  0  0
   62.1670   32.8900   48.7100 C   0  0  1  0  0  0  0  0  0  0  0  0
   61.4010   34.2050   48.9210 C   0  0  0  0  0  0  0  0  0  0  0  0
   59.9530   33.6900   49.0720 C   0  0  0  0  0  0  0  0  0  0  0  0
   60.0610   32.2100   48.9540 N   0  0  2  0  0  0  0  0  0  0  0  0
   61.3510   31.9940   49.6160 C   0  0  1  0  0  0  0  0  0  0  0  0
   61.8070   30.5100   49.7090 C   0  0  0  0  0  0  0  0  0  0  0  0
   60.6730   29.6490   50.0310 N   0  0  0  0  0  0  0  0  0  0  0  0
   59.7280   29.1100   49.0950 C   0  0  0  0  0  0  0  0  0  0  0  0
   58.6330   29.7090   48.9320 O   0  0  0  0  0  0  0  0  0  0  0  0
   59.9700   27.8290   48.3420 C   0  0  0  0  0  0  0  0  0  0  0  0
   59.5420   27.9770   46.9070 C   0  0  0  0  0  0  0  0  0  0  0  0
   58.2770   27.5240   46.4960 C   0  0  0  0  0  0  0  0  0  0  0  0
   57.8880   27.6340   45.1570 C   0  0  0  0  0  0  0  0  0  0  0  0
   58.7610   28.1900   44.2180 C   0  0  0  0  0  0  0  0  0  0  0  0
   60.0230   28.6380   44.6170 C   0  0  0  0  0  0  0  0  0  0  0  0
   60.4160   28.5320   45.9550 C   0  0  0  0  0  0  0  0  0  0  0  0
   58.3050   31.3840   46.0740 C   0  0  0  0  0  0  0  0  0  0  0  0
   56.1094   29.1548   43.5368 H   0  0  0  0  0  0  0  0  0  0  0  0
   55.4641   30.6931   42.8706 H   0  0  0  0  0  0  0  0  0  0  0  0
   57.2341   30.3869   42.8706 H   0  0  0  0  0  0  0  0  0  0  0  0
   56.7836   33.3286   43.7077 H   0  0  0  0  0  0  0  0  0  0  0  0
   58.6194   34.8727   44.3807 H   0  0  0  0  0  0  0  0  0  0  0  0
   60.2521   34.1944   46.1316 H   0  0  0  0  0  0  0  0  0  0  0  0
   60.2943   30.7457   47.3834 H   0  0  0  0  0  0  0  0  0  0  0  0
   62.4710   31.5692   46.9783 H   0  0  0  0  0  0  0  0  0  0  0  0
   61.8601   33.1333   46.5139 H   0  0  0  0  0  0  0  0  0  0  0  0
   63.2553   32.9514   48.8578 H   0  0  0  0  0  0  0  0  0  0  0  0
   61.7394   34.7272   49.8281 H   0  0  0  0  0  0  0  0  0  0  0  0
   61.5362   34.9399   48.1137 H   0  0  0  0  0  0  0  0  0  0  0  0
   59.5420   33.9715   50.0527 H   0  0  0  0  0  0  0  0  0  0  0  0
   59.2791   34.1186   48.3156 H   0  0  0  0  0  0  0  0  0  0  0  0
   59.2770   31.6820   49.4040 H   0  0  0  0  0  0  0  0  0  0  0  0
   61.4025   32.2267   50.6899 H   0  0  0  0  0  0  0  0  0  0  0  0
   62.2343   30.2009   48.7437 H   0  0  0  0  0  0  0  0  0  0  0  0
   62.5623   30.4177   50.5033 H   0  0  0  0  0  0  0  0  0  0  0  0
   61.0419   27.5844   48.3774 H   0  0  0  0  0  0  0  0  0  0  0  0
   59.3837   27.0238   48.8087 H   0  0  0  0  0  0  0  0  0  0  0  0
   57.5891   27.0806   47.2310 H   0  0  0  0  0  0  0  0  0  0  0  0
   56.8941   27.2826   44.8428 H   0  0  0  0  0  0  0  0  0  0  0  0
   58.4547   28.2750   43.1649 H   0  0  0  0  0  0  0  0  0  0  0  0
   60.7092   29.0752   43.8767 H   0  0  0  0  0  0  0  0  0  0  0  0
   61.4115   28.8837   46.2637 H   0  0  0  0  0  0  0  0  0  0  0  0
   58.2415   30.3796   46.5181 H   0  0  0  0  0  0  0  0  0  0  0  0
  1  2  1  0
  2  3  1  0
  3  4  2  0
  4  5  1  0
  5  6  2  0
  6  7  1  0
  7  8  1  0
  8  9  1  0
  9 10  1  0
 10 11  1  0
 11 12  1  0
 12 13  1  0
 13 14  1  0
 14 15  1  0
 15 16  1  0
 16 17  1  0
 17 18  2  0
 17 19  1  0
 19 20  1  0
 20 21  2  0
 21 22  1  0
 22 23  2  0
 23 24  1  0
 24 25  2  0
  7 26  2  0
 26  3  1  0
 13  8  1  0
 25 20  1  0
 14 10  1  0
  1 27  1  0
  1 28  1  0
  1 29  1  0
  4 30  1  0
  5 31  1  0
  6 32  1  0
  8 33  1  1
  9 34  1  0
  9 35  1  0
 10 36  1  1
 11 37  1  0
 11 38  1  0
 12 39  1  0
 12 40  1  0
 13 41  1  1
 14 42  1  1
 15 43  1  0
 15 44  1  0
 19 45  1  0
 19 46  1  0
 21 47  1  0
 22 48  1  0
 23 49  1  0
 24 50  1  0
 25 51  1  0
 26 52  1  0
M  CHG  2  13   1  16  -1
M  END
>  <UniqueID>  (23) 
20

>  <SMILES>  (23) 
COc1cccc([C@H]2C[C@H]3CC[NH+]2C3C[N-]C(=O)Cc2ccccc2)c1

>  <Energy>  (23) 
95.21032660011507

>  <Genealogy>  (23) 
COc1cccc(C2CC3CC[NH+]2C3C[N-]C(=O)Cc2ccccc2)c1 (protonated)
COc1cccc([C@H]2C[C@H]3CC[NH+]2C3C[N-]C(=O)Cc2ccccc2)c1 (chirality)
COc1cccc([C@H]2C[C@H]3CC[NH+]2C3C[N-]C(=O)Cc2ccccc2)c1 (3D coordinates assigned)
COc1cccc([C@H]2C[C@H]3CC[NH+]2C3C[N-]C(=O)Cc2ccccc2)c1 (nonaromatic ring conformer: 95.21032660011507 kcal/mol)

>  <smiles>  (23) 
COc1cccc(C2CC3CCN2C3CNC(=O)Cc2ccccc2)c1

>  <score_type>  (23) 
oracle

>  <origin>  (23) 
adg

>  <m_score__min__energy>  (23) 
-8.5800000000000001

>  <m_primary>  (23) 
energy

$$$$
23:0
     RDKit          3D

 53 54  0  0  1  0  0  0  0  0999 V2000
   61.5040   34.2090   49.7330 C   0  0  0  0  0  0  0  0  0  0  0  0
   60.3630   34.5590   49.2010 C   0  0  0  0  0  0  0  0  0  0  0  0
   59.7890   33.8920   48.0520 C   0  0  0  0  0  0  0  0  0  0  0  0
   58.7410   33.0040   48.1450 C   0  0  0  0  0  0  0  0  0  0  0  0
   58.2140   32.3790   47.0200 C   0  0  0  0  0  0  0  0  0  0  0  0
   58.7120   32.6140   45.7570 C   0  0  0  0  0  0  0  0  0  0  0  0
   58.2090   31.9990   44.5820 N   0  0  0  0  0  0  0  0  0  0  0  0
   57.4740   30.9510   44.7190 C   0  0  0  0  0  0  0  0  0  0  0  0
   56.3560   30.8970   43.8750 C   0  0  0  0  0  0  0  0  0  0  0  0
   55.5100   29.8140   43.9480 C   0  0  0  0  0  0  0  0  0  0  0  0
   55.7910   28.8370   44.8390 N   0  0  0  0  0  0  0  0  0  0  0  0
   56.8830   28.9280   45.6380 C   0  0  0  0  0  0  0  0  0  0  0  0
   57.0640   27.9460   46.4530 N   0  0  0  0  0  0  0  0  0  0  0  0
   56.6940   26.6230   46.1000 C   0  0  0  0  0  0  0  0  0  0  0  0
   55.4510   26.3250   46.0680 O   0  0  0  0  0  0  0  0  0  0  0  0
   57.7060   25.5770   45.7670 C   0  0  0  0  0  0  0  0  0  0  0  0
   59.0330   26.2480   45.4360 C   0  0  0  0  0  0  0  0  0  0  0  0
   59.7170   26.7620   46.6850 C   0  0  0  0  0  0  0  0  0  0  0  0
   59.6760   28.1940   46.7050 N   0  0  0  0  0  0  0  0  0  0  0  0
   59.6280   28.7780   48.0100 C   0  0  0  0  0  0  0  0  0  0  0  0
   60.5230   29.9980   48.0480 C   0  0  0  0  0  0  0  0  0  0  0  0
   60.7320   28.8060   45.9510 C   0  0  0  0  0  0  0  0  0  0  0  0
   60.2470   28.9370   44.5040 C   0  0  0  0  0  0  0  0  0  0  0  0
   57.7330   29.9650   45.5980 N   0  0  0  0  0  0  0  0  0  0  0  0
   59.7750   33.5130   45.6520 C   0  0  0  0  0  0  0  0  0  0  0  0
   60.2910   34.1290   46.7780 C   0  0  0  0  0  0  0  0  0  0  0  0
   61.8930   34.7521   50.6069 H   0  0  0  0  0  0  0  0  0  0  0  0
   62.0755   33.3712   49.3070 H   0  0  0  0  0  0  0  0  0  0  0  0
   59.8128   35.4003   49.6475 H   0  0  0  0  0  0  0  0  0  0  0  0
   58.3102   32.7836   49.1328 H   0  0  0  0  0  0  0  0  0  0  0  0
   57.3758   31.6771   47.1419 H   0  0  0  0  0  0  0  0  0  0  0  0
   56.1572   31.7111   43.1624 H   0  0  0  0  0  0  0  0  0  0  0  0
   54.6262   29.7450   43.2968 H   0  0  0  0  0  0  0  0  0  0  0  0
   55.1440   28.0130   44.8920 H   0  0  0  0  0  0  0  0  0  0  0  0
   57.8383   24.9061   46.6286 H   0  0  0  0  0  0  0  0  0  0  0  0
   57.3617   24.9936   44.9003 H   0  0  0  0  0  0  0  0  0  0  0  0
   59.6906   25.5173   44.9424 H   0  0  0  0  0  0  0  0  0  0  0  0
   58.8336   27.1028   44.7730 H   0  0  0  0  0  0  0  0  0  0  0  0
   59.1998   26.3692   47.5728 H   0  0  0  0  0  0  0  0  0  0  0  0
   60.7651   26.4280   46.6893 H   0  0  0  0  0  0  0  0  0  0  0  0
   58.5942   29.0739   48.2419 H   0  0  0  0  0  0  0  0  0  0  0  0
   59.9742   28.0450   48.7535 H   0  0  0  0  0  0  0  0  0  0  0  0
   60.7244   30.2726   49.0940 H   0  0  0  0  0  0  0  0  0  0  0  0
   61.4717   29.7728   47.5388 H   0  0  0  0  0  0  0  0  0  0  0  0
   60.0233   30.8353   47.5388 H   0  0  0  0  0  0  0  0  0  0  0  0
   60.9599   29.8004   46.3624 H   0  0  0  0  0  0  0  0  0  0  0  0
   61.6467   28.1970   45.9998 H   0  0  0  0  0  0  0  0  0  0  0  0
   59.1851   29.2238   44.4978 H   0  0  0  0  0  0  0  0  0  0  0  0
   60.8380   29.7077   43.9875 H   0  0  0  0  0  0  0  0  0  0  0  0
   60.3696   27.9736   43.9875 H   0  0  0  0  0  0  0  0  0  0  0  0
   58.5760   30.0200   46.2270 H   0  0  0  0  0  0  0  0  0  0  0  0
   60.2063   33.7336   44.6644 H   0  0  0  0  0  0  0  0  0  0  0  0
   61.1290   34.8319   46.6607 H   0  0  0  0  0  0  0  0  0  0  0  0
  1  2  2  0
  2  3  1  0
  3  4  2  0
  4  5  1  0
  5  6  2  0
  6  7  1  0
  7  8  2  0
  8  9  1  0
  9 10  2  0
 10 11  1  0
 11 12  1  0
 12 13  2  0
 13 14  1  0
 14 15  2  0
 14 16  1  0
 16 17  1  0
 17 18  1  0
 18 19  1  0
 19 20  1  0
 20 21  1  0
 19 22  1  0
 22 23  1  0
 12 24  1  0
  6 25  1  0
 25 26  2  0
 26  3  1  0
 24  8  1  0
  1 27  1  0
  1 28  1  0
  2 29  1  0
  4 30  1  0
  5 31  1  0
  9 32  1  0
 10 33  1  0
 11 34  1  0
 16 35  1  0
 16 36  1  0
 17 37  1  0
 17 38  1  0
 18 39  1  0
 18 40  1  0
 20 41  1  0
 20 42  1  0
 21 43  1  0
 21 44  1  0
 21 45  1  0
 22 46  1  0
 22 47  1  0
 23 48  1  0
 23 49  1  0
 23 50  1  0
 24 51  1  0
 25 52  1  0
 26 53  1  0
M  END
>  <smiles>  (24) 
C=Cc1ccc(N=c2cc[nH]c(=NC(=O)CCCN(CC)CC)[nH]2)cc1

>  <score_type>  (24) 
oracle

>  <origin>  (24) 
adg

>  <m_score__min__energy>  (24) 
-7.79

>  <m_primary>  (24) 
energy

$$$$
24:0
     RDKit          3D

 50 53  0  0  0  0  0  0  0  0999 V2000
   58.1320   32.0880   42.8560 C   0  0  0  0  0  0  0  0  0  0  0  0
   57.0060   31.3230   42.1700 C   0  0  0  0  0  0  0  0  0  0  0  0
   56.9080   29.9990   42.6900 O   0  0  0  0  0  0  0  0  0  0  0  0
   56.6490   29.7150   44.0340 C   0  0  0  0  0  0  0  0  0  0  0  0
   55.4770   29.8220   44.4910 O   0  0  0  0  0  0  0  0  0  0  0  0
   57.7520   29.3300   44.9350 C   0  0  0  0  0  0  0  0  0  0  0  0
   58.3660   30.1080   45.9110 C   0  0  0  0  0  0  0  0  0  0  0  0
   59.3430   29.3320   46.4860 C   0  0  0  0  0  0  0  0  0  0  0  0
   59.3700   28.1020   45.9240 N   0  0  0  0  0  0  0  0  0  0  0  0
   60.2420   26.9890   46.3070 C   0  0  0  0  0  0  0  0  0  0  0  0
   58.4160   28.1030   44.9580 C   0  0  0  0  0  0  0  0  0  0  0  0
   58.1030   26.9510   44.0870 C   0  0  0  0  0  0  0  0  0  0  0  0
   58.4870   26.9830   42.8860 O   0  0  0  0  0  0  0  0  0  0  0  0
   57.3720   25.7620   44.5940 C   0  0  0  0  0  0  0  0  0  0  0  0
   56.9590   25.6880   45.9370 C   0  0  0  0  0  0  0  0  0  0  0  0
   56.2700   24.5670   46.4040 C   0  0  0  0  0  0  0  0  0  0  0  0
   55.9950   23.5040   45.5440 C   0  0  0  0  0  0  0  0  0  0  0  0
   56.4030   23.5490   44.2070 C   0  0  0  0  0  0  0  0  0  0  0  0
   56.1030   22.4530   43.3840 O   0  0  0  0  0  0  0  0  0  0  0  0
   57.0350   21.4380   43.0240 C   0  0  0  0  0  0  0  0  0  0  0  0
   57.0960   24.6810   43.7360 C   0  0  0  0  0  0  0  0  0  0  0  0
   60.2230   29.8620   47.5470 C   0  0  0  0  0  0  0  0  0  0  0  0
   61.1360   29.1540   48.0470 O   0  0  0  0  0  0  0  0  0  0  0  0
   60.0160   31.2620   48.0030 C   0  0  0  0  0  0  0  0  0  0  0  0
   60.7830   31.7830   49.0070 N   0  0  0  0  0  0  0  0  0  0  0  0
   60.6200   33.0620   49.4410 C   0  0  0  0  0  0  0  0  0  0  0  0
   59.6540   33.8850   48.8640 C   0  0  0  0  0  0  0  0  0  0  0  0
   58.8530   33.3870   47.8360 C   0  0  0  0  0  0  0  0  0  0  0  0
   59.0210   32.0690   47.3910 C   0  0  0  0  0  0  0  0  0  0  0  0
   58.1820   31.5220   46.2920 C   0  0  0  0  0  0  0  0  0  0  0  0
   57.3600   32.2580   45.6840 O   0  0  0  0  0  0  0  0  0  0  0  0
   58.0168   32.0097   43.9471 H   0  0  0  0  0  0  0  0  0  0  0  0
   59.1006   31.6602   42.5579 H   0  0  0  0  0  0  0  0  0  0  0  0
   58.0911   33.1461   42.5579 H   0  0  0  0  0  0  0  0  0  0  0  0
   56.0553   31.8494   42.3405 H   0  0  0  0  0  0  0  0  0  0  0  0
   57.2218   31.2654   41.0929 H   0  0  0  0  0  0  0  0  0  0  0  0
   60.2930   26.9239   47.4039 H   0  0  0  0  0  0  0  0  0  0  0  0
   59.8369   26.0498   45.9024 H   0  0  0  0  0  0  0  0  0  0  0  0
   61.2509   27.1576   45.9024 H   0  0  0  0  0  0  0  0  0  0  0  0
   57.1803   26.5186   46.6234 H   0  0  0  0  0  0  0  0  0  0  0  0
   55.9431   24.5221   47.4533 H   0  0  0  0  0  0  0  0  0  0  0  0
   55.4532   22.6237   45.9201 H   0  0  0  0  0  0  0  0  0  0  0  0
   57.4522   20.9836   43.9347 H   0  0  0  0  0  0  0  0  0  0  0  0
   56.5247   20.6658   42.4296 H   0  0  0  0  0  0  0  0  0  0  0  0
   57.8478   21.8807   42.4296 H   0  0  0  0  0  0  0  0  0  0  0  0
   57.4248   24.7207   42.6871 H   0  0  0  0  0  0  0  0  0  0  0  0
   61.5180   31.2000   49.4640 H   0  0  0  0  0  0  0  0  0  0  0  0
   61.2543   33.4491   50.2521 H   0  0  0  0  0  0  0  0  0  0  0  0
   59.5243   34.9189   49.2165 H   0  0  0  0  0  0  0  0  0  0  0  0
   58.0888   34.0296   47.3744 H   0  0  0  0  0  0  0  0  0  0  0  0
  1  2  1  0
  2  3  1  0
  3  4  1  0
  4  5  2  0
  4  6  1  0
  6  7  1  0
  7  8  2  0
  8  9  1  0
  9 10  1  0
  9 11  1  0
 11 12  1  0
 12 13  2  0
 12 14  1  0
 14 15  2  0
 15 16  1  0
 16 17  2  0
 17 18  1  0
 18 19  1  0
 19 20  1  0
 18 21  2  0
  8 22  1  0
 22 23  2  0
 22 24  1  0
 24 25  2  0
 25 26  1  0
 26 27  2  0
 27 28  1  0
 28 29  2  0
 29 30  1  0
 30 31  2  0
 11  6  2  0
 21 14  1  0
 29 24  1  0
 30  7  1  0
  1 32  1  0
  1 33  1  0
  1 34  1  0
  2 35  1  0
  2 36  1  0
 10 37  1  0
 10 38  1  0
 10 39  1  0
 15 40  1  0
 16 41  1  0
 17 42  1  0
 20 43  1  0
 20 44  1  0
 20 45  1  0
 21 46  1  0
 25 47  1  0
 26 48  1  0
 27 49  1  0
 28 50  1  0
M  CHG  1  25   1
M  END
>  <UniqueID>  (25) 
21

>  <SMILES>  (25) 
CCOC(=O)c1c2c(n(C)c1C(=O)c1cccc(OC)c1)C(=O)c1[nH+]cccc1C2=O

>  <Energy>  (25) 
93.42254837539997

>  <Genealogy>  (25) 
CCOC(=O)c1c2c(n(C)c1C(=O)c1cccc(OC)c1)C(=O)c1[nH+]cccc1C2=O (protonated)
CCOC(=O)c1c2c(n(C)c1C(=O)c1cccc(OC)c1)C(=O)c1[nH+]cccc1C2=O (3D coordinates assigned)
CCOC(=O)c1c2c(n(C)c1C(=O)c1cccc(OC)c1)C(=O)c1[nH+]cccc1C2=O (nonaromatic ring conformer: 93.42254837539997 kcal/mol)

>  <smiles>  (25) 
CCOC(=O)c1c2c(n(C)c1C(=O)c1cccc(OC)c1)C(=O)c1ncccc1C2=O

>  <score_type>  (25) 
oracle

>  <origin>  (25) 
adg

>  <m_score__min__energy>  (25) 
-7.7400000000000002

>  <m_primary>  (25) 
energy

$$$$
25:0
     RDKit          3D

 35 37  0  0  0  0  0  0  0  0999 V2000
   57.0090   33.1840   45.2500 C   0  0  0  0  0  0  0  0  0  0  0  0
   56.7380   31.8210   44.9350 O   0  0  0  0  0  0  0  0  0  0  0  0
   57.6460   30.7700   45.1300 C   0  0  0  0  0  0  0  0  0  0  0  0
   57.6090   29.5890   44.3650 C   0  0  0  0  0  0  0  0  0  0  0  0
   58.5440   28.5740   44.5900 C   0  0  0  0  0  0  0  0  0  0  0  0
   59.5300   28.7240   45.5780 C   0  0  0  0  0  0  0  0  0  0  0  0
   60.5870   27.6700   45.7660 C   0  0  0  0  0  0  0  0  0  0  0  0
   60.2760   26.6860   47.2770 S   0  0  0  0  0  0  0  0  0  0  0  0
   58.8860   25.7920   46.5860 C   0  0  0  0  0  0  0  0  0  0  0  0
   59.0270   24.6080   45.9310 N   0  0  0  0  0  0  0  0  0  0  0  0
   57.7690   24.3480   45.5320 C   0  0  0  0  0  0  0  0  0  0  0  0
   56.9280   25.3280   45.9410 C   0  0  0  0  0  0  0  0  0  0  0  0
   57.6130   26.2590   46.6140 N   0  0  0  0  0  0  0  0  0  0  0  0
   55.5800   25.2700   45.6300 C   0  0  0  0  0  0  0  0  0  0  0  0
   54.7800   26.1700   45.9950 O   0  0  0  0  0  0  0  0  0  0  0  0
   55.1410   24.1970   44.9120 N   0  0  0  0  0  0  0  0  0  0  0  0
   55.9990   23.2100   44.4970 C   0  0  0  0  0  0  0  0  0  0  0  0
   55.5390   22.2340   43.8460 O   0  0  0  0  0  0  0  0  0  0  0  0
   57.3450   23.2880   44.7870 N   0  0  0  0  0  0  0  0  0  0  0  0
   58.2840   22.2410   44.3650 C   0  0  0  0  0  0  0  0  0  0  0  0
   59.5620   29.8990   46.3440 C   0  0  0  0  0  0  0  0  0  0  0  0
   58.6240   30.9110   46.1220 C   0  0  0  0  0  0  0  0  0  0  0  0
   57.0340   33.3099   46.3425 H   0  0  0  0  0  0  0  0  0  0  0  0
   57.9820   33.4720   44.8253 H   0  0  0  0  0  0  0  0  0  0  0  0
   56.2202   33.8223   44.8253 H   0  0  0  0  0  0  0  0  0  0  0  0
   56.8414   29.4641   43.5870 H   0  0  0  0  0  0  0  0  0  0  0  0
   58.5068   27.6530   43.9896 H   0  0  0  0  0  0  0  0  0  0  0  0
   60.5846   26.9995   44.8940 H   0  0  0  0  0  0  0  0  0  0  0  0
   61.5624   28.1682   45.8685 H   0  0  0  0  0  0  0  0  0  0  0  0
   57.2610   27.1460   47.0380 H   0  0  0  0  0  0  0  0  0  0  0  0
   58.7175   21.7577   45.2530 H   0  0  0  0  0  0  0  0  0  0  0  0
   57.7503   21.4908   43.7630 H   0  0  0  0  0  0  0  0  0  0  0  0
   59.0876   22.6902   43.7630 H   0  0  0  0  0  0  0  0  0  0  0  0
   60.3287   30.0243   47.1227 H   0  0  0  0  0  0  0  0  0  0  0  0
   58.6543   31.8260   46.7318 H   0  0  0  0  0  0  0  0  0  0  0  0
  1  2  1  0
  2  3  1  0
  3  4  2  0
  4  5  1  0
  5  6  2  0
  6  7  1  0
  7  8  1  0
  8  9  1  0
  9 10  2  0
 10 11  1  0
 11 12  2  0
 12 13  1  0
 12 14  1  0
 14 15  2  0
 14 16  1  0
 16 17  1  0
 17 18  2  0
 17 19  1  0
 19 20  1  0
  6 21  1  0
 21 22  2  0
 22  3  1  0
 13  9  1  0
 19 11  1  0
  1 23  1  0
  1 24  1  0
  1 25  1  0
  4 26  1  0
  5 27  1  0
  7 28  1  0
  7 29  1  0
 13 30  1  0
 20 31  1  0
 20 32  1  0
 20 33  1  0
 21 34  1  0
 22 35  1  0
M  CHG  1  16  -1
M  END
>  <UniqueID>  (26) 
22

>  <SMILES>  (26) 
COc1ccc(CSc2nc3c([nH]2)c(=O)[n-]c(=O)n3C)cc1

>  <Energy>  (26) 
72.19434718638938

>  <Genealogy>  (26) 
COc1ccc(CSc2nc3c([nH]2)c(=O)[n-]c(=O)n3C)cc1 (protonated)
COc1ccc(CSc2nc3c([nH]2)c(=O)[n-]c(=O)n3C)cc1 (3D coordinates assigned)
COc1ccc(CSc2nc3c([nH]2)c(=O)[n-]c(=O)n3C)cc1 (optimized conformer: 72.19434718638938 kcal/mol)

>  <smiles>  (26) 
COc1ccc(CSc2nc3c([nH]2)c(=O)[nH]c(=O)n3C)cc1

>  <score_type>  (26) 
oracle

>  <origin>  (26) 
adg

>  <m_score__min__energy>  (26) 
-8.8800000000000008

>  <m_primary>  (26) 
energy

$$$$
26:0
     RDKit          3D

 46 49  0  0  0  0  0  0  0  0999 V2000
   56.6730   33.5540   44.8800 O   0  0  0  0  0  0  0  0  0  0  0  0
   57.3430   32.6370   45.4240 C   0  0  0  0  0  0  0  0  0  0  0  0
   56.9640   31.2750   45.1810 N   0  0  0  0  0  0  0  0  0  0  0  0
   57.8370   30.1360   45.2280 C   0  0  0  0  0  0  0  0  0  0  0  0
   59.0490   30.1070   44.5170 C   0  0  0  0  0  0  0  0  0  0  0  0
   59.8760   28.9820   44.5850 C   0  0  0  0  0  0  0  0  0  0  0  0
   59.4940   27.8750   45.3480 C   0  0  0  0  0  0  0  0  0  0  0  0
   58.2700   27.8790   46.0340 C   0  0  0  0  0  0  0  0  0  0  0  0
   57.8750   26.7010   46.8890 C   0  0  0  0  0  0  0  0  0  0  0  0
   56.6960   25.9390   46.3250 C   0  0  0  0  0  0  0  0  0  0  0  0
   55.4710   26.5350   46.2760 N   0  0  0  0  0  0  0  0  0  0  0  0
   54.3950   25.9080   45.8010 N   0  0  0  0  0  0  0  0  0  0  0  0
   54.4600   24.6360   45.3370 C   0  0  0  0  0  0  0  0  0  0  0  0
   53.4130   24.0750   44.9190 O   0  0  0  0  0  0  0  0  0  0  0  0
   55.6920   23.9660   45.3320 C   0  0  0  0  0  0  0  0  0  0  0  0
   56.8290   24.6250   45.8240 C   0  0  0  0  0  0  0  0  0  0  0  0
   58.1340   23.8600   45.8310 C   0  0  0  0  0  0  0  0  0  0  0  0
   58.3260   23.1200   44.4990 C   0  0  0  0  0  0  0  0  0  0  0  0
   57.0880   22.3120   44.0370 C   0  0  0  0  0  0  0  0  0  0  0  0
   55.8230   22.5280   44.8890 C   0  0  0  0  0  0  0  0  0  0  0  0
   57.4470   29.0150   45.9710 C   0  0  0  0  0  0  0  0  0  0  0  0
   58.4580   32.9920   46.3340 C   0  0  0  0  0  0  0  0  0  0  0  0
   59.6380   33.5750   45.8360 C   0  0  0  0  0  0  0  0  0  0  0  0
   60.6840   33.9030   46.7020 C   0  0  0  0  0  0  0  0  0  0  0  0
   60.5700   33.6430   48.0700 C   0  0  0  0  0  0  0  0  0  0  0  0
   59.4090   33.0500   48.5750 C   0  0  0  0  0  0  0  0  0  0  0  0
   59.2700   32.7190   50.2920 Cl  0  0  0  0  0  0  0  0  0  0  0  0
   58.3590   32.7190   47.7110 C   0  0  0  0  0  0  0  0  0  0  0  0
   59.3475   30.9714   43.9057 H   0  0  0  0  0  0  0  0  0  0  0  0
   60.8295   28.9679   44.0368 H   0  0  0  0  0  0  0  0  0  0  0  0
   60.1549   26.9980   45.4109 H   0  0  0  0  0  0  0  0  0  0  0  0
   58.7331   26.0168   46.9634 H   0  0  0  0  0  0  0  0  0  0  0  0
   57.5783   27.0903   47.8741 H   0  0  0  0  0  0  0  0  0  0  0  0
   58.9664   24.5639   45.9782 H   0  0  0  0  0  0  0  0  0  0  0  0
   58.1129   23.1246   46.6488 H   0  0  0  0  0  0  0  0  0  0  0  0
   58.5624   23.8627   43.7228 H   0  0  0  0  0  0  0  0  0  0  0  0
   59.1371   22.3936   44.6552 H   0  0  0  0  0  0  0  0  0  0  0  0
   56.8570   22.6016   43.0013 H   0  0  0  0  0  0  0  0  0  0  0  0
   57.3543   21.2498   44.1405 H   0  0  0  0  0  0  0  0  0  0  0  0
   54.9397   22.2560   44.2925 H   0  0  0  0  0  0  0  0  0  0  0  0
   55.8996   21.8964   45.7863 H   0  0  0  0  0  0  0  0  0  0  0  0
   56.4880   29.0244   46.5098 H   0  0  0  0  0  0  0  0  0  0  0  0
   59.7373   33.7736   44.7586 H   0  0  0  0  0  0  0  0  0  0  0  0
   61.5994   34.3670   46.3060 H   0  0  0  0  0  0  0  0  0  0  0  0
   61.3940   33.9050   48.7500 H   0  0  0  0  0  0  0  0  0  0  0  0
   57.4514   32.2429   48.1104 H   0  0  0  0  0  0  0  0  0  0  0  0
  1  2  2  0
  2  3  1  0
  3  4  1  0
  4  5  2  0
  5  6  1  0
  6  7  2  0
  7  8  1  0
  8  9  1  0
  9 10  1  0
 10 11  2  0
 11 12  1  0
 12 13  1  0
 13 14  2  0
 13 15  1  0
 15 16  2  0
 16 17  1  0
 17 18  1  0
 18 19  1  0
 19 20  1  0
  8 21  2  0
  2 22  1  0
 22 23  2  0
 23 24  1  0
 24 25  2  0
 25 26  1  0
 26 27  1  0
 26 28  2  0
 21  4  1  0
 28 22  1  0
 16 10  1  0
 20 15  1  0
  5 29  1  0
  6 30  1  0
  7 31  1  0
  9 32  1  0
  9 33  1  0
 17 34  1  0
 17 35  1  0
 18 36  1  0
 18 37  1  0
 19 38  1  0
 19 39  1  0
 20 40  1  0
 20 41  1  0
 21 42  1  0
 23 43  1  0
 24 44  1  0
 25 45  1  0
 28 46  1  0
M  CHG  2   3  -1  12  -1
M  END
>  <UniqueID>  (27) 
23

>  <SMILES>  (27) 
O=C([N-]c1cccc(Cc2n[n-]c(=O)c3c2CCCC3)c1)c1cccc(Cl)c1

>  <Energy>  (27) 
65.28542663718706

>  <Genealogy>  (27) 
O=C([N-]c1cccc(Cc2n[n-]c(=O)c3c2CCCC3)c1)c1cccc(Cl)c1 (protonated)
O=C([N-]c1cccc(Cc2n[n-]c(=O)c3c2CCCC3)c1)c1cccc(Cl)c1 (3D coordinates assigned)
O=C([N-]c1cccc(Cc2n[n-]c(=O)c3c2CCCC3)c1)c1cccc(Cl)c1 (nonaromatic ring conformer: 65.28542663718706 kcal/mol)

>  <smiles>  (27) 
O=C(Nc1cccc(Cc2n[nH]c(=O)c3c2CCCC3)c1)c1cccc(Cl)c1

>  <score_type>  (27) 
oracle

>  <origin>  (27) 
adg

>  <m_score__min__energy>  (27) 
-13.9

>  <m_primary>  (27) 
energy

$$$$
27:0
     RDKit          3D

 51 53  0  0  0  0  0  0  0  0999 V2000
   62.2720   30.8170   52.0800 C   0  0  0  0  0  0  0  0  0  0  0  0
   63.1580   30.5830   50.9860 O   0  0  0  0  0  0  0  0  0  0  0  0
   63.2440   31.3900   49.8410 C   0  0  0  0  0  0  0  0  0  0  0  0
   64.2570   32.3560   49.6840 C   0  0  0  0  0  0  0  0  0  0  0  0
   64.2950   33.1650   48.5460 C   0  0  0  0  0  0  0  0  0  0  0  0
   63.3250   33.0240   47.5460 C   0  0  0  0  0  0  0  0  0  0  0  0
   63.3930   33.8680   46.3050 C   0  0  0  0  0  0  0  0  0  0  0  0
   62.3290   32.0460   47.6850 C   0  0  0  0  0  0  0  0  0  0  0  0
   62.2710   31.2390   48.8330 C   0  0  0  0  0  0  0  0  0  0  0  0
   61.2070   30.2910   49.0010 N   0  0  0  0  0  0  0  0  0  0  0  0
   59.5560   30.7890   49.2180 S   0  0  0  0  0  0  0  0  0  0  0  0
   59.4410   31.5920   50.4860 O   0  0  0  0  0  0  0  0  0  0  0  0
   58.6840   29.5680   49.3210 O   0  0  0  0  0  0  0  0  0  0  0  0
   59.0540   31.7970   47.8600 C   0  0  0  0  0  0  0  0  0  0  0  0
   59.5290   33.1060   47.7250 C   0  0  0  0  0  0  0  0  0  0  0  0
   59.0870   33.9040   46.6700 C   0  0  0  0  0  0  0  0  0  0  0  0
   58.1660   33.4040   45.7310 C   0  0  0  0  0  0  0  0  0  0  0  0
   57.6970   34.2780   44.6000 C   0  0  0  0  0  0  0  0  0  0  0  0
   57.6970   32.0800   45.8510 C   0  0  0  0  0  0  0  0  0  0  0  0
   56.7760   31.5620   44.8760 N   0  0  0  0  0  0  0  0  0  0  0  0
   56.6780   29.9030   44.3730 S   0  0  0  0  0  0  0  0  0  0  0  0
   55.3800   29.3200   44.8590 O   0  0  0  0  0  0  0  0  0  0  0  0
   56.7150   29.8340   42.8710 O   0  0  0  0  0  0  0  0  0  0  0  0
   58.0550   29.0040   45.0140 C   0  0  0  0  0  0  0  0  0  0  0  0
   57.8780   28.0510   46.0270 C   0  0  0  0  0  0  0  0  0  0  0  0
   58.9870   27.3970   46.5770 C   0  0  0  0  0  0  0  0  0  0  0  0
   60.2750   27.6900   46.1180 C   0  0  0  0  0  0  0  0  0  0  0  0
   60.4530   28.6390   45.1030 C   0  0  0  0  0  0  0  0  0  0  0  0
   59.3460   29.2950   44.5510 C   0  0  0  0  0  0  0  0  0  0  0  0
   58.1490   31.2880   46.9220 C   0  0  0  0  0  0  0  0  0  0  0  0
   62.8130   30.6741   53.0270 H   0  0  0  0  0  0  0  0  0  0  0  0
   61.8894   31.8470   52.0281 H   0  0  0  0  0  0  0  0  0  0  0  0
   61.4307   30.1103   52.0281 H   0  0  0  0  0  0  0  0  0  0  0  0
   65.0240   32.4742   50.4635 H   0  0  0  0  0  0  0  0  0  0  0  0
   65.0906   33.9164   48.4348 H   0  0  0  0  0  0  0  0  0  0  0  0
   63.4784   34.9279   46.5866 H   0  0  0  0  0  0  0  0  0  0  0  0
   64.2704   33.5749   45.7099 H   0  0  0  0  0  0  0  0  0  0  0  0
   62.4800   33.7192   45.7099 H   0  0  0  0  0  0  0  0  0  0  0  0
   61.5852   31.9097   46.8861 H   0  0  0  0  0  0  0  0  0  0  0  0
   61.4350   29.2980   49.2230 H   0  0  0  0  0  0  0  0  0  0  0  0
   60.2516   33.5061   48.4515 H   0  0  0  0  0  0  0  0  0  0  0  0
   59.4617   34.9335   46.5711 H   0  0  0  0  0  0  0  0  0  0  0  0
   57.2140   35.1781   45.0081 H   0  0  0  0  0  0  0  0  0  0  0  0
   58.5584   34.5722   43.9824 H   0  0  0  0  0  0  0  0  0  0  0  0
   56.9756   33.7228   43.9824 H   0  0  0  0  0  0  0  0  0  0  0  0
   56.8664   27.8168   46.3901 H   0  0  0  0  0  0  0  0  0  0  0  0
   58.8448   26.6506   47.3724 H   0  0  0  0  0  0  0  0  0  0  0  0
   61.1456   27.1770   46.5525 H   0  0  0  0  0  0  0  0  0  0  0  0
   61.4650   28.8694   44.7387 H   0  0  0  0  0  0  0  0  0  0  0  0
   59.4893   30.0391   43.7536 H   0  0  0  0  0  0  0  0  0  0  0  0
   57.7861   30.2546   47.0235 H   0  0  0  0  0  0  0  0  0  0  0  0
  1  2  1  0
  2  3  1  0
  3  4  2  0
  4  5  1  0
  5  6  2  0
  6  7  1  0
  6  8  1  0
  8  9  2  0
  9 10  1  0
 10 11  1  0
 11 12  2  0
 11 13  2  0
 11 14  1  0
 14 15  2  0
 15 16  1  0
 16 17  2  0
 17 18  1  0
 17 19  1  0
 19 20  1  0
 20 21  1  0
 21 22  2  0
 21 23  2  0
 21 24  1  0
 24 25  2  0
 25 26  1  0
 26 27  2  0
 27 28  1  0
 28 29  2  0
 19 30  2  0
  9  3  1  0
 30 14  1  0
 29 24  1  0
  1 31  1  0
  1 32  1  0
  1 33  1  0
  4 34  1  0
  5 35  1  0
  7 36  1  0
  7 37  1  0
  7 38  1  0
  8 39  1  0
 10 40  1  0
 15 41  1  0
 16 42  1  0
 18 43  1  0
 18 44  1  0
 18 45  1  0
 25 46  1  0
 26 47  1  0
 27 48  1  0
 28 49  1  0
 29 50  1  0
 30 51  1  0
M  CHG  1  20  -1
M  END
>  <UniqueID>  (28) 
24

>  <SMILES>  (28) 
COc1ccc(C)cc1NS(=O)(=O)c1ccc(C)c([N-]S(=O)(=O)c2ccccc2)c1

>  <Energy>  (28) 
55.64324381466005

>  <Genealogy>  (28) 
COc1ccc(C)cc1NS(=O)(=O)c1ccc(C)c([N-]S(=O)(=O)c2ccccc2)c1 (protonated)
COc1ccc(C)cc1NS(=O)(=O)c1ccc(C)c([N-]S(=O)(=O)c2ccccc2)c1 (3D coordinates assigned)
COc1ccc(C)cc1NS(=O)(=O)c1ccc(C)c([N-]S(=O)(=O)c2ccccc2)c1 (optimized conformer: 55.64324381466005 kcal/mol)

>  <smiles>  (28) 
COc1ccc(C)cc1NS(=O)(=O)c1ccc(C)c(NS(=O)(=O)c2ccccc2)c1

>  <score_type>  (28) 
oracle

>  <origin>  (28) 
adg

>  <m_score__min__energy>  (28) 
-10.789999999999999

>  <m_primary>  (28) 
energy

$$$$
28:0
     RDKit          3D

 31 32  0  0  0  0  0  0  0  0999 V2000
   53.7380   24.7720   45.5160 C   0  0  0  0  0  0  0  0  0  0  0  0
   54.5270   25.9280   45.7750 O   0  0  0  0  0  0  0  0  0  0  0  0
   55.8800   25.9050   46.1570 C   0  0  0  0  0  0  0  0  0  0  0  0
   56.4520   24.7850   46.7940 C   0  0  0  0  0  0  0  0  0  0  0  0
   57.8120   24.7700   47.1100 C   0  0  0  0  0  0  0  0  0  0  0  0
   58.6180   25.8620   46.7890 C   0  0  0  0  0  0  0  0  0  0  0  0
   58.0630   26.9810   46.1660 C   0  0  0  0  0  0  0  0  0  0  0  0
   56.6930   27.0240   45.8700 C   0  0  0  0  0  0  0  0  0  0  0  0
   56.1560   28.1920   45.2270 N   0  0  0  0  0  0  0  0  0  0  0  0
   56.9610   29.3070   44.8300 C   0  0  0  0  0  0  0  0  0  0  0  0
   58.2150   29.1930   44.7530 O   0  0  0  0  0  0  0  0  0  0  0  0
   56.3300   30.5500   44.5060 N   0  0  0  0  0  0  0  0  0  0  0  0
   57.0250   31.6500   43.8480 C   0  0  0  0  0  0  0  0  0  0  0  0
   57.5650   32.5990   44.8720 C   0  0  0  0  0  0  0  0  0  0  0  0
   58.3470   33.7080   44.6150 C   0  0  0  0  0  0  0  0  0  0  0  0
   58.6380   34.2470   45.8490 C   0  0  0  0  0  0  0  0  0  0  0  0
   58.0190   33.4360   46.7780 C   0  0  0  0  0  0  0  0  0  0  0  0
   57.3890   32.4610   46.1650 O   0  0  0  0  0  0  0  0  0  0  0  0
   53.4284   24.3183   46.4691 H   0  0  0  0  0  0  0  0  0  0  0  0
   52.8461   25.0585   44.9394 H   0  0  0  0  0  0  0  0  0  0  0  0
   54.3298   24.0458   44.9394 H   0  0  0  0  0  0  0  0  0  0  0  0
   55.8231   23.9177   47.0436 H   0  0  0  0  0  0  0  0  0  0  0  0
   58.2487   23.8948   47.6133 H   0  0  0  0  0  0  0  0  0  0  0  0
   59.6918   25.8414   47.0269 H   0  0  0  0  0  0  0  0  0  0  0  0
   58.7050   27.8353   45.9053 H   0  0  0  0  0  0  0  0  0  0  0  0
   55.1470   28.1930   44.9530 H   0  0  0  0  0  0  0  0  0  0  0  0
   57.8557   31.2495   43.2484 H   0  0  0  0  0  0  0  0  0  0  0  0
   56.3189   32.1852   43.1961 H   0  0  0  0  0  0  0  0  0  0  0  0
   58.6695   34.0821   43.6321 H   0  0  0  0  0  0  0  0  0  0  0  0
   59.2422   35.1434   46.0527 H   0  0  0  0  0  0  0  0  0  0  0  0
   58.0489   33.5841   47.8676 H   0  0  0  0  0  0  0  0  0  0  0  0
  1  2  1  0
  2  3  1  0
  3  4  2  0
  4  5  1  0
  5  6  2  0
  6  7  1  0
  7  8  2  0
  8  9  1  0
  9 10  1  0
 10 11  2  0
 10 12  1  0
 12 13  1  0
 13 14  1  0
 14 15  2  0
 15 16  1  0
 16 17  2  0
 17 18  1  0
  8  3  1  0
 18 14  1  0
  1 19  1  0
  1 20  1  0
  1 21  1  0
  4 22  1  0
  5 23  1  0
  6 24  1  0
  7 25  1  0
  9 26  1  0
 13 27  1  0
 13 28  1  0
 15 29  1  0
 16 30  1  0
 17 31  1  0
M  CHG  1  12  -1
M  END
>  <UniqueID>  (29) 
25

>  <SMILES>  (29) 
COc1ccccc1NC(=O)[N-]Cc1ccco1

>  <Energy>  (29) 
57.36829015310688

>  <Genealogy>  (29) 
COc1ccccc1NC(=O)[N-]Cc1ccco1 (protonated)
COc1ccccc1NC(=O)[N-]Cc1ccco1 (3D coordinates assigned)
COc1ccccc1NC(=O)[N-]Cc1ccco1 (optimized conformer: 57.36829015310688 kcal/mol)

>  <smiles>  (29) 
COc1ccccc1NC(=O)NCc1ccco1

>  <score_type>  (29) 
oracle

>  <origin>  (29) 
adg

>  <m_score__min__energy>  (29) 
-8.5600000000000005

>  <m_primary>  (29) 
energy

$$$$
29:0
     RDKit          3D

 66 68  0  0  0  0  0  0  0  0999 V2000
   56.7870   30.6210   43.8280 C   0  0  0  0  0  0  0  0  0  0  0  0
   56.8090   31.4910   44.9550 O   0  0  0  0  0  0  0  0  0  0  0  0
   57.9630   32.1110   45.4550 C   0  0  0  0  0  0  0  0  0  0  0  0
   58.2270   33.4320   45.0730 C   0  0  0  0  0  0  0  0  0  0  0  0
   59.3680   34.0920   45.5400 C   0  0  0  0  0  0  0  0  0  0  0  0
   60.2550   33.4420   46.4110 C   0  0  0  0  0  0  0  0  0  0  0  0
   61.5050   34.1380   46.8850 C   0  0  0  0  0  0  0  0  0  0  0  0
   62.7610   33.3830   46.4090 C   0  0  0  0  0  0  0  0  0  0  0  0
   63.5420   32.8000   47.5310 N   0  0  1  0  0  0  0  0  0  0  0  0
   63.8740   33.8320   48.5370 C   0  0  0  0  0  0  0  0  0  0  0  0
   62.7950   31.7050   48.2030 C   0  0  0  0  0  0  0  0  0  0  0  0
   63.1080   31.5220   49.7080 C   0  0  0  0  0  0  0  0  0  0  0  0
   61.8740   31.4310   50.6210 C   0  0  0  0  0  0  0  0  0  0  0  0
   61.5410   32.7340   51.2190 N   0  0  0  0  0  0  0  0  0  0  0  0
   61.7840   32.9720   52.6500 C   0  0  0  0  0  0  0  0  0  0  0  0
   60.5090   33.4220   53.3770 C   0  0  0  0  0  0  0  0  0  0  0  0
   59.3240   32.6020   52.9180 C   0  0  0  0  0  0  0  0  0  0  0  0
   58.8090   31.6030   53.7600 C   0  0  0  0  0  0  0  0  0  0  0  0
   57.7390   30.7900   53.3430 C   0  0  0  0  0  0  0  0  0  0  0  0
   57.2040   29.7840   54.1650 O   0  0  0  0  0  0  0  0  0  0  0  0
   57.3860   28.3880   53.9580 C   0  0  0  0  0  0  0  0  0  0  0  0
   57.1830   30.9740   52.0700 C   0  0  0  0  0  0  0  0  0  0  0  0
   56.1160   30.1470   51.6860 O   0  0  0  0  0  0  0  0  0  0  0  0
   54.7610   30.3380   52.0820 C   0  0  0  0  0  0  0  0  0  0  0  0
   57.7030   31.9670   51.2210 C   0  0  0  0  0  0  0  0  0  0  0  0
   58.7700   32.7810   51.6320 C   0  0  0  0  0  0  0  0  0  0  0  0
   59.2950   33.8440   50.7010 C   0  0  0  0  0  0  0  0  0  0  0  0
   60.7660   33.6750   50.4530 C   0  0  0  0  0  0  0  0  0  0  0  0
   61.3350   34.4040   49.5950 O   0  0  0  0  0  0  0  0  0  0  0  0
   59.9990   32.1150   46.7900 C   0  0  0  0  0  0  0  0  0  0  0  0
   58.8600   31.4530   46.3190 C   0  0  0  0  0  0  0  0  0  0  0  0
   56.7606   29.5764   44.1716 H   0  0  0  0  0  0  0  0  0  0  0  0
   55.8939   30.8300   43.2209 H   0  0  0  0  0  0  0  0  0  0  0  0
   57.6896   30.7846   43.2209 H   0  0  0  0  0  0  0  0  0  0  0  0
   57.5313   33.9548   44.4002 H   0  0  0  0  0  0  0  0  0  0  0  0
   59.5709   35.1256   45.2229 H   0  0  0  0  0  0  0  0  0  0  0  0
   61.5239   35.1612   46.4816 H   0  0  0  0  0  0  0  0  0  0  0  0
   61.5017   34.1620   47.9847 H   0  0  0  0  0  0  0  0  0  0  0  0
   62.4487   32.5693   45.7379 H   0  0  0  0  0  0  0  0  0  0  0  0
   63.4092   34.1087   45.8960 H   0  0  0  0  0  0  0  0  0  0  0  0
   64.4460   32.4260   47.1650 H   0  0  0  0  0  0  0  0  0  0  0  0
   63.7403   33.4163   49.5466 H   0  0  0  0  0  0  0  0  0  0  0  0
   64.9193   34.1486   48.4063 H   0  0  0  0  0  0  0  0  0  0  0  0
   63.2093   34.6987   48.4063 H   0  0  0  0  0  0  0  0  0  0  0  0
   61.7198   31.9142   48.1018 H   0  0  0  0  0  0  0  0  0  0  0  0
   63.1090   30.7732   47.7099 H   0  0  0  0  0  0  0  0  0  0  0  0
   63.6889   30.5953   49.8257 H   0  0  0  0  0  0  0  0  0  0  0  0
   63.6562   32.4231   50.0202 H   0  0  0  0  0  0  0  0  0  0  0  0
   61.0164   31.0818   50.0272 H   0  0  0  0  0  0  0  0  0  0  0  0
   62.1020   30.7283   51.4360 H   0  0  0  0  0  0  0  0  0  0  0  0
   62.1461   32.0405   53.1095 H   0  0  0  0  0  0  0  0  0  0  0  0
   62.5312   33.7741   52.7414 H   0  0  0  0  0  0  0  0  0  0  0  0
   60.6436   33.2896   54.4607 H   0  0  0  0  0  0  0  0  0  0  0  0
   60.3213   34.4811   53.1464 H   0  0  0  0  0  0  0  0  0  0  0  0
   59.2475   31.4543   54.7578 H   0  0  0  0  0  0  0  0  0  0  0  0
   57.4524   27.8787   54.9307 H   0  0  0  0  0  0  0  0  0  0  0  0
   56.5325   27.9870   53.3916 H   0  0  0  0  0  0  0  0  0  0  0  0
   58.3138   28.2192   53.3916 H   0  0  0  0  0  0  0  0  0  0  0  0
   54.6977   30.3469   53.1801 H   0  0  0  0  0  0  0  0  0  0  0  0
   54.3949   31.2966   51.6858 H   0  0  0  0  0  0  0  0  0  0  0  0
   54.1441   29.5179   51.6858 H   0  0  0  0  0  0  0  0  0  0  0  0
   57.2675   32.1078   50.2208 H   0  0  0  0  0  0  0  0  0  0  0  0
   58.7600   33.7764   49.7422 H   0  0  0  0  0  0  0  0  0  0  0  0
   59.1328   34.8261   51.1692 H   0  0  0  0  0  0  0  0  0  0  0  0
   60.6973   31.5929   47.4607 H   0  0  0  0  0  0  0  0  0  0  0  0
   58.6642   30.4146   46.6246 H   0  0  0  0  0  0  0  0  0  0  0  0
  1  2  1  0
  2  3  1  0
  3  4  2  0
  4  5  1  0
  5  6  2  0
  6  7  1  0
  7  8  1  0
  8  9  1  0
  9 10  1  0
  9 11  1  0
 11 12  1  0
 12 13  1  0
 13 14  1  0
 14 15  1  0
 15 16  1  0
 16 17  1  0
 17 18  2  0
 18 19  1  0
 19 20  1  0
 20 21  1  0
 19 22  2  0
 22 23  1  0
 23 24  1  0
 22 25  1  0
 25 26  2  0
 26 27  1  0
 27 28  1  0
 28 29  2  0
  6 30  1  0
 30 31  2  0
 31  3  1  0
 28 14  1  0
 26 17  1  0
  1 32  1  0
  1 33  1  0
  1 34  1  0
  4 35  1  0
  5 36  1  0
  7 37  1  0
  7 38  1  0
  8 39  1  0
  8 40  1  0
  9 41  1  6
 10 42  1  0
 10 43  1  0
 10 44  1  0
 11 45  1  0
 11 46  1  0
 12 47  1  0
 12 48  1  0
 13 49  1  0
 13 50  1  0
 15 51  1  0
 15 52  1  0
 16 53  1  0
 16 54  1  0
 18 55  1  0
 21 56  1  0
 21 57  1  0
 21 58  1  0
 24 59  1  0
 24 60  1  0
 24 61  1  0
 25 62  1  0
 27 63  1  0
 27 64  1  0
 30 65  1  0
 31 66  1  0
M  CHG  1   9   1
M  END
>  <UniqueID>  (30) 
26

>  <SMILES>  (30) 
COc1ccc(CC[N@@H+](C)CCCN2CCc3cc(OC)c(OC)cc3CC2=O)cc1

>  <Energy>  (30) 
68.08542490375584

>  <Genealogy>  (30) 
COc1ccc(CC[NH+](C)CCCN2CCc3cc(OC)c(OC)cc3CC2=O)cc1 (protonated)
COc1ccc(CC[N@@H+](C)CCCN2CCc3cc(OC)c(OC)cc3CC2=O)cc1 (chirality)
COc1ccc(CC[N@@H+](C)CCCN2CCc3cc(OC)c(OC)cc3CC2=O)cc1 (3D coordinates assigned)
COc1ccc(CC[N@@H+](C)CCCN2CCc3cc(OC)c(OC)cc3CC2=O)cc1 (nonaromatic ring conformer: 68.08542490375584 kcal/mol)

>  <smiles>  (30) 
COc1ccc(CCN(C)CCCN2CCc3cc(OC)c(OC)cc3CC2=O)cc1

>  <score_type>  (30) 
oracle

>  <origin>  (30) 
adg

>  <m_score__min__energy>  (30) 
-4.9100000000000001

>  <m_primary>  (30) 
energy

$$$$
30:0
     RDKit          3D

 47 49  0  0  0  0  0  0  0  0999 V2000
   52.7570   24.1390   45.2600 C   0  0  0  0  0  0  0  0  0  0  0  0
   54.2500   24.0720   45.2040 C   0  0  0  0  0  0  0  0  0  0  0  0
   54.8880   23.2020   44.3170 C   0  0  0  0  0  0  0  0  0  0  0  0
   56.2860   23.1850   44.2870 C   0  0  0  0  0  0  0  0  0  0  0  0
   57.0120   22.2830   43.3410 C   0  0  0  0  0  0  0  0  0  0  0  0
   56.9860   24.0160   45.1050 N   0  0  0  0  0  0  0  0  0  0  0  0
   56.3550   24.8550   45.9680 C   0  0  0  0  0  0  0  0  0  0  0  0
   57.0670   25.6480   46.7150 N   0  0  0  0  0  0  0  0  0  0  0  0
   57.4500   27.0010   46.4160 C   0  0  0  0  0  0  0  0  0  0  0  0
   58.1590   27.7270   47.3810 C   0  0  0  0  0  0  0  0  0  0  0  0
   58.5270   29.0530   47.1420 C   0  0  0  0  0  0  0  0  0  0  0  0
   58.1680   29.6790   45.9400 C   0  0  0  0  0  0  0  0  0  0  0  0
   58.6510   31.3420   45.6140 S   0  0  0  0  0  0  0  0  0  0  0  0
   58.5610   31.6180   44.1380 O   0  0  0  0  0  0  0  0  0  0  0  0
   60.0830   31.5100   46.0380 O   0  0  0  0  0  0  0  0  0  0  0  0
   57.6500   32.4650   46.5130 N   0  0  0  0  0  0  0  0  0  0  0  0
   57.0570   33.5030   45.6510 C   0  0  0  0  0  0  0  0  0  0  0  0
   58.0960   34.5300   45.1500 C   0  0  0  0  0  0  0  0  0  0  0  0
   59.2860   34.6030   46.0270 N   0  0  0  0  0  0  0  0  0  0  0  0
   60.0060   35.8660   45.8160 C   0  0  0  0  0  0  0  0  0  0  0  0
   58.9110   34.4470   47.4400 C   0  0  0  0  0  0  0  0  0  0  0  0
   58.3630   33.0290   47.6830 C   0  0  0  0  0  0  0  0  0  0  0  0
   57.4340   28.9670   44.9830 C   0  0  0  0  0  0  0  0  0  0  0  0
   57.0670   27.6400   45.2220 C   0  0  0  0  0  0  0  0  0  0  0  0
   54.9930   24.8830   46.0010 N   0  0  0  0  0  0  0  0  0  0  0  0
   52.4298   24.1537   46.3101 H   0  0  0  0  0  0  0  0  0  0  0  0
   52.4118   25.0535   44.7555 H   0  0  0  0  0  0  0  0  0  0  0  0
   52.3313   23.2591   44.7555 H   0  0  0  0  0  0  0  0  0  0  0  0
   54.3036   22.5446   43.6565 H   0  0  0  0  0  0  0  0  0  0  0  0
   57.6015   21.5506   43.9121 H   0  0  0  0  0  0  0  0  0  0  0  0
   56.2847   21.7542   42.7074 H   0  0  0  0  0  0  0  0  0  0  0  0
   57.6840   22.8805   42.7074 H   0  0  0  0  0  0  0  0  0  0  0  0
   58.4282   27.2493   48.3346 H   0  0  0  0  0  0  0  0  0  0  0  0
   59.1003   29.6079   47.8992 H   0  0  0  0  0  0  0  0  0  0  0  0
   56.5965   33.0151   44.7793 H   0  0  0  0  0  0  0  0  0  0  0  0
   56.3150   34.0488   46.2523 H   0  0  0  0  0  0  0  0  0  0  0  0
   58.4194   34.2408   44.1392 H   0  0  0  0  0  0  0  0  0  0  0  0
   57.6167   35.5201   45.1522 H   0  0  0  0  0  0  0  0  0  0  0  0
   60.2595   36.3106   46.7897 H   0  0  0  0  0  0  0  0  0  0  0  0
   60.9291   35.6717   45.2502 H   0  0  0  0  0  0  0  0  0  0  0  0
   59.3686   36.5613   45.2502 H   0  0  0  0  0  0  0  0  0  0  0  0
   59.7963   34.6093   48.0724 H   0  0  0  0  0  0  0  0  0  0  0  0
   58.1340   35.1837   47.6920 H   0  0  0  0  0  0  0  0  0  0  0  0
   59.2061   32.3670   47.9299 H   0  0  0  0  0  0  0  0  0  0  0  0
   57.6346   33.0988   48.5044 H   0  0  0  0  0  0  0  0  0  0  0  0
   57.1454   29.4541   44.0399 H   0  0  0  0  0  0  0  0  0  0  0  0
   56.4759   27.0922   44.4733 H   0  0  0  0  0  0  0  0  0  0  0  0
  1  2  1  0
  2  3  1  0
  3  4  2  0
  4  5  1  0
  4  6  1  0
  6  7  1  0
  7  8  2  3
  8  9  1  0
  9 10  2  0
 10 11  1  0
 11 12  2  0
 12 13  1  0
 13 14  2  0
 13 15  2  0
 13 16  1  0
 16 17  1  0
 17 18  1  0
 18 19  1  0
 19 20  1  0
 19 21  1  0
 21 22  1  0
 12 23  1  0
 23 24  2  0
  7 25  1  0
 25  2  2  0
 24  9  1  0
 22 16  1  0
  1 26  1  0
  1 27  1  0
  1 28  1  0
  3 29  1  0
  5 30  1  0
  5 31  1  0
  5 32  1  0
 10 33  1  0
 11 34  1  0
 17 35  1  0
 17 36  1  0
 18 37  1  0
 18 38  1  0
 20 39  1  0
 20 40  1  0
 20 41  1  0
 21 42  1  0
 21 43  1  0
 22 44  1  0
 22 45  1  0
 23 46  1  0
 24 47  1  0
M  CHG  1   6  -1
M  END
>  <UniqueID>  (31) 
27

>  <SMILES>  (31) 
Cc1cc(C)[n-]c(=Nc2ccc(S(=O)(=O)N3CCN(C)CC3)cc2)n1

>  <Energy>  (31) 
61.744703172098646

>  <Genealogy>  (31) 
Cc1cc(C)[n-]c(=Nc2ccc(S(=O)(=O)N3CCN(C)CC3)cc2)n1 (protonated)
Cc1cc(C)[n-]c(=Nc2ccc(S(=O)(=O)N3CCN(C)CC3)cc2)n1 (3D coordinates assigned)
Cc1cc(C)[n-]c(=Nc2ccc(S(=O)(=O)N3CCN(C)CC3)cc2)n1 (nonaromatic ring conformer: 61.744703172098646 kcal/mol)

>  <smiles>  (31) 
Cc1cc(C)[nH]c(=Nc2ccc(S(=O)(=O)N3CCN(C)CC3)cc2)n1

>  <score_type>  (31) 
oracle

>  <origin>  (31) 
adg

>  <m_score__min__energy>  (31) 
-9.2599999999999998

>  <m_primary>  (31) 
energy

$$$$
31:0
     RDKit          3D

 40 42  0  0  0  0  0  0  0  0999 V2000
   57.0780   27.0230   42.4810 H   0  0  0  0  0  0  0  0  0  0  0  0
   57.7450   27.6680   42.8840 O   0  0  0  0  0  0  0  0  0  0  0  0
   57.3610   28.6360   43.8090 C   0  0  0  0  0  0  0  0  0  0  0  0
   57.2380   29.9420   43.5010 N   0  0  0  0  0  0  0  0  0  0  0  0
   56.8580   30.4810   44.6780 C   0  0  0  0  0  0  0  0  0  0  0  0
   56.6460   31.7550   44.8250 N   0  0  0  0  0  0  0  0  0  0  0  0
   57.6000   32.7040   45.3260 C   0  0  0  0  0  0  0  0  0  0  0  0
   57.6700   33.0350   46.6930 C   0  0  0  0  0  0  0  0  0  0  0  0
   56.9843   32.5583   47.4089 H   0  0  0  0  0  0  0  0  0  0  0  0
   58.6090   33.9680   47.1420 C   0  0  0  0  0  0  0  0  0  0  0  0
   58.6708   34.2129   48.2126 H   0  0  0  0  0  0  0  0  0  0  0  0
   59.4690   34.5900   46.2340 C   0  0  0  0  0  0  0  0  0  0  0  0
   60.2130   35.3174   46.5908 H   0  0  0  0  0  0  0  0  0  0  0  0
   59.3840   34.2880   44.8720 C   0  0  0  0  0  0  0  0  0  0  0  0
   60.0561   34.7837   44.1560 H   0  0  0  0  0  0  0  0  0  0  0  0
   58.4450   33.3560   44.4190 C   0  0  0  0  0  0  0  0  0  0  0  0
   58.3696   33.1337   43.3443 H   0  0  0  0  0  0  0  0  0  0  0  0
   56.7550   29.5990   45.6500 O   0  0  0  0  0  0  0  0  0  0  0  0
   57.0660   28.4340   45.1420 C   0  0  0  0  0  0  0  0  0  0  0  0
   57.0730   27.1480   45.8690 C   0  0  0  0  0  0  0  0  0  0  0  0
   56.1362   26.5727   45.9069 H   0  0  0  0  0  0  0  0  0  0  0  0
   58.1180   26.6520   46.4680 N   0  0  0  0  0  0  0  0  0  0  0  0
   58.7810   27.1520   47.6740 C   0  0  0  0  0  0  0  0  0  0  0  0
   59.5554   26.4329   47.9792 H   0  0  0  0  0  0  0  0  0  0  0  0
   58.0204   27.2693   48.4599 H   0  0  0  0  0  0  0  0  0  0  0  0
   59.4280   28.4990   47.4390 C   0  0  0  0  0  0  0  0  0  0  0  0
   60.1320   28.7260   46.2440 C   0  0  0  0  0  0  0  0  0  0  0  0
   60.2049   27.9240   45.4947 H   0  0  0  0  0  0  0  0  0  0  0  0
   60.7390   29.9570   45.9980 C   0  0  0  0  0  0  0  0  0  0  0  0
   61.3038   30.1157   45.0675 H   0  0  0  0  0  0  0  0  0  0  0  0
   60.6300   30.9860   46.9310 C   0  0  0  0  0  0  0  0  0  0  0  0
   61.1199   31.9525   46.7418 H   0  0  0  0  0  0  0  0  0  0  0  0
   59.9000   30.7930   48.1060 C   0  0  0  0  0  0  0  0  0  0  0  0
   59.8074   31.6139   48.8323 H   0  0  0  0  0  0  0  0  0  0  0  0
   59.2810   29.5540   48.3680 C   0  0  0  0  0  0  0  0  0  0  0  0
   58.5170   29.3430   49.5280 O   0  0  0  0  0  0  0  0  0  0  0  0
   58.5440   30.1810   50.6780 C   0  0  0  0  0  0  0  0  0  0  0  0
   58.5240   29.5593   51.5853 H   0  0  0  0  0  0  0  0  0  0  0  0
   59.4621   30.7868   50.6688 H   0  0  0  0  0  0  0  0  0  0  0  0
   57.6668   30.8446   50.6688 H   0  0  0  0  0  0  0  0  0  0  0  0
  1  2  1  0
  2  3  1  0
  3  4  1  0
  4  5  1  0
  5  6  2  0
  6  7  1  0
  7  8  2  0
  8  9  1  0
  8 10  1  0
 10 11  1  0
 10 12  2  0
 12 13  1  0
 12 14  1  0
 14 15  1  0
 14 16  2  0
 16 17  1  0
  5 18  1  0
 18 19  1  0
 19 20  1  0
 20 21  1  0
 20 22  2  0
 22 23  1  0
 23 24  1  0
 23 25  1  0
 23 26  1  0
 26 27  2  0
 27 28  1  0
 27 29  1  0
 29 30  1  0
 29 31  2  0
 31 32  1  0
 31 33  1  0
 33 34  1  0
 33 35  2  0
 35 36  1  0
 36 37  1  0
 37 38  1  0
 37 39  1  0
 37 40  1  0
 19  3  2  0
 35 26  1  0
 16  7  1  0
M  CHG  1   4  -1
M  END
>  <UniqueID>  (32) 
28

>  <SMILES>  (32) 
COc1ccccc1C/N=C\c1o/c(=N\c2ccccc2)[n-]c1O

>  <Energy>  (32) 
77.15671547355356

>  <Genealogy>  (32) 
COc1ccccc1CN=Cc1oc(=Nc2ccccc2)[n-]c1O (protonated)
COc1ccccc1C/N=C\c1o/c(=N\c2ccccc2)[n-]c1O (cis-trans isomerization)
COc1ccccc1C/N=C\c1o/c(=N\c2ccccc2)[n-]c1O (3D coordinates assigned)
COc1ccccc1C/N=C\c1o/c(=N\c2ccccc2)[n-]c1O (optimized conformer: 77.15671547355356 kcal/mol)

>  <smiles>  (32) 
COc1ccccc1CN=Cc1oc(=Nc2ccccc2)[nH]c1O

>  <score_type>  (32) 
oracle

>  <origin>  (32) 
adg

>  <m_score__min__energy>  (32) 
-9.0500000000000007

>  <m_primary>  (32) 
energy

$$$$
32:0
     RDKit          3D

 43 45  0  0  0  0  0  0  0  0999 V2000
   57.7930   32.2220   41.6300 C   0  0  0  0  0  0  0  0  0  0  0  0
   57.8160   32.3550   43.1170 C   0  0  0  0  0  0  0  0  0  0  0  0
   58.2950   33.4360   43.7640 N   0  0  0  0  0  0  0  0  0  0  0  0
   58.1080   33.2350   45.0600 N   0  0  0  0  0  0  0  0  0  0  0  0
   58.4170   34.2200   46.0880 C   0  0  0  0  0  0  0  0  0  0  0  0
   57.4880   32.0580   45.2650 C   0  0  0  0  0  0  0  0  0  0  0  0
   57.2850   31.4670   44.0370 C   0  0  0  0  0  0  0  0  0  0  0  0
   56.4400   29.9550   43.7310 S   0  0  0  0  0  0  0  0  0  0  0  0
   55.1420   29.9090   44.4880 O   0  0  0  0  0  0  0  0  0  0  0  0
   56.1600   29.8440   42.2590 O   0  0  0  0  0  0  0  0  0  0  0  0
   57.4330   28.6220   44.2290 N   0  0  0  0  0  0  0  0  0  0  0  0
   58.2770   28.6800   45.3900 C   0  0  0  0  0  0  0  0  0  0  0  0
   59.6110   29.0870   45.2530 C   0  0  0  0  0  0  0  0  0  0  0  0
   60.4290   29.2230   46.3770 C   0  0  0  0  0  0  0  0  0  0  0  0
   59.9260   28.9450   47.6600 C   0  0  0  0  0  0  0  0  0  0  0  0
   60.7710   29.1370   48.8590 C   0  0  0  0  0  0  0  0  0  0  0  0
   61.1680   28.1290   49.5020 O   0  0  0  0  0  0  0  0  0  0  0  0
   61.1870   30.4400   49.2910 N   0  0  0  0  0  0  0  0  0  0  0  0
   61.7690   31.4560   48.4610 C   0  0  0  0  0  0  0  0  0  0  0  0
   63.1620   31.6600   48.4120 C   0  0  0  0  0  0  0  0  0  0  0  0
   63.6990   32.6530   47.5860 C   0  0  0  0  0  0  0  0  0  0  0  0
   62.8560   33.4360   46.7930 C   0  0  0  0  0  0  0  0  0  0  0  0
   63.3790   34.3960   45.9910 F   0  0  0  0  0  0  0  0  0  0  0  0
   61.4750   33.2210   46.8180 C   0  0  0  0  0  0  0  0  0  0  0  0
   60.9340   32.2300   47.6440 C   0  0  0  0  0  0  0  0  0  0  0  0
   59.5910   32.0320   47.6600 F   0  0  0  0  0  0  0  0  0  0  0  0
   58.6080   28.4850   47.7920 C   0  0  0  0  0  0  0  0  0  0  0  0
   57.7870   28.3580   46.6680 C   0  0  0  0  0  0  0  0  0  0  0  0
   57.6113   31.1716   41.3586 H   0  0  0  0  0  0  0  0  0  0  0  0
   56.9904   32.8513   41.2180 H   0  0  0  0  0  0  0  0  0  0  0  0
   58.7604   32.5451   41.2180 H   0  0  0  0  0  0  0  0  0  0  0  0
   58.2757   33.7697   47.0816 H   0  0  0  0  0  0  0  0  0  0  0  0
   59.4613   34.5482   45.9793 H   0  0  0  0  0  0  0  0  0  0  0  0
   57.7473   35.0859   45.9793 H   0  0  0  0  0  0  0  0  0  0  0  0
   57.1952   31.6417   46.2402 H   0  0  0  0  0  0  0  0  0  0  0  0
   57.5640   27.8440   43.5440 H   0  0  0  0  0  0  0  0  0  0  0  0
   60.0168   29.3009   44.2532 H   0  0  0  0  0  0  0  0  0  0  0  0
   61.4726   29.5495   46.2576 H   0  0  0  0  0  0  0  0  0  0  0  0
   63.8294   31.0366   49.0251 H   0  0  0  0  0  0  0  0  0  0  0  0
   64.7863   32.8177   47.5607 H   0  0  0  0  0  0  0  0  0  0  0  0
   60.8126   33.8320   46.1872 H   0  0  0  0  0  0  0  0  0  0  0  0
   58.2177   28.2224   48.7864 H   0  0  0  0  0  0  0  0  0  0  0  0
   56.7519   28.0042   46.7838 H   0  0  0  0  0  0  0  0  0  0  0  0
  1  2  1  0
  2  3  2  0
  3  4  1  0
  4  5  1  0
  4  6  1  0
  6  7  2  0
  7  8  1  0
  8  9  2  0
  8 10  2  0
  8 11  1  0
 11 12  1  0
 12 13  2  0
 13 14  1  0
 14 15  2  0
 15 16  1  0
 16 17  2  0
 16 18  1  0
 18 19  1  0
 19 20  2  0
 20 21  1  0
 21 22  2  0
 22 23  1  0
 22 24  1  0
 24 25  2  0
 25 26  1  0
 15 27  1  0
 27 28  2  0
  7  2  1  0
 28 12  1  0
 25 19  1  0
  1 29  1  0
  1 30  1  0
  1 31  1  0
  5 32  1  0
  5 33  1  0
  5 34  1  0
  6 35  1  0
 11 36  1  0
 13 37  1  0
 14 38  1  0
 20 39  1  0
 21 40  1  0
 24 41  1  0
 27 42  1  0
 28 43  1  0
M  CHG  1  18  -1
M  END
>  <UniqueID>  (33) 
29

>  <SMILES>  (33) 
Cc1nn(C)cc1S(=O)(=O)Nc1ccc(C(=O)[N-]c2ccc(F)cc2F)cc1

>  <Energy>  (33) 
82.2791766149373

>  <Genealogy>  (33) 
Cc1nn(C)cc1S(=O)(=O)Nc1ccc(C(=O)[N-]c2ccc(F)cc2F)cc1 (protonated)
Cc1nn(C)cc1S(=O)(=O)Nc1ccc(C(=O)[N-]c2ccc(F)cc2F)cc1 (3D coordinates assigned)
Cc1nn(C)cc1S(=O)(=O)Nc1ccc(C(=O)[N-]c2ccc(F)cc2F)cc1 (optimized conformer: 82.2791766149373 kcal/mol)

>  <smiles>  (33) 
Cc1nn(C)cc1S(=O)(=O)Nc1ccc(C(=O)Nc2ccc(F)cc2F)cc1

>  <score_type>  (33) 
oracle

>  <origin>  (33) 
adg

>  <m_score__min__energy>  (33) 
-9.9900000000000002

>  <m_primary>  (33) 
energy

$$$$
33:0
     RDKit          3D

 41 44  0  0  0  0  0  0  0  0999 V2000
   55.8020   29.7430   43.9510 C   0  0  0  0  0  0  0  0  0  0  0  0
   57.0530   29.8480   44.6990 N   0  0  0  0  0  0  0  0  0  0  0  0
   57.9380   30.8810   44.7170 C   0  0  0  0  0  0  0  0  0  0  0  0
   57.7520   32.3880   43.7630 S   0  0  0  0  0  0  0  0  0  0  0  0
   58.3470   33.4110   45.1090 C   0  0  0  0  0  0  0  0  0  0  0  0
   57.9300   33.1550   46.4210 C   0  0  0  0  0  0  0  0  0  0  0  0
   58.3860   33.9580   47.4700 C   0  0  0  0  0  0  0  0  0  0  0  0
   59.2620   35.0180   47.2110 C   0  0  0  0  0  0  0  0  0  0  0  0
   59.6840   35.2720   45.9030 C   0  0  0  0  0  0  0  0  0  0  0  0
   59.2290   34.4690   44.8520 C   0  0  0  0  0  0  0  0  0  0  0  0
   58.9820   30.6900   45.5650 N   0  0  0  0  0  0  0  0  0  0  0  0
   58.7110   29.4840   46.0980 C   0  0  0  0  0  0  0  0  0  0  0  0
   59.4330   28.7920   47.0610 C   0  0  0  0  0  0  0  0  0  0  0  0
   60.6170   29.3220   47.5850 O   0  0  0  0  0  0  0  0  0  0  0  0
   60.6470   30.3550   48.5670 C   0  0  0  0  0  0  0  0  0  0  0  0
   61.6250   31.4260   48.1700 C   0  0  0  0  0  0  0  0  0  0  0  0
   62.8500   31.5410   48.8460 C   0  0  0  0  0  0  0  0  0  0  0  0
   63.7750   32.5210   48.4710 C   0  0  0  0  0  0  0  0  0  0  0  0
   63.4820   33.3920   47.4170 C   0  0  0  0  0  0  0  0  0  0  0  0
   62.2660   33.2820   46.7370 C   0  0  0  0  0  0  0  0  0  0  0  0
   61.3390   32.3030   47.1100 C   0  0  0  0  0  0  0  0  0  0  0  0
   58.9370   27.5860   47.4750 N   0  0  0  0  0  0  0  0  0  0  0  0
   57.7950   27.0840   46.9810 N   0  0  0  0  0  0  0  0  0  0  0  0
   57.0670   27.7510   46.0380 C   0  0  0  0  0  0  0  0  0  0  0  0
   55.9930   27.2630   45.6000 O   0  0  0  0  0  0  0  0  0  0  0  0
   57.5570   28.9780   45.5940 C   0  0  0  0  0  0  0  0  0  0  0  0
   54.9591   29.6723   44.6543 H   0  0  0  0  0  0  0  0  0  0  0  0
   55.6775   30.6339   43.3179 H   0  0  0  0  0  0  0  0  0  0  0  0
   55.8277   28.8439   43.3179 H   0  0  0  0  0  0  0  0  0  0  0  0
   57.2428   32.3210   46.6262 H   0  0  0  0  0  0  0  0  0  0  0  0
   58.0561   33.7566   48.4999 H   0  0  0  0  0  0  0  0  0  0  0  0
   59.6185   35.6513   48.0367 H   0  0  0  0  0  0  0  0  0  0  0  0
   60.3744   36.1039   45.7000 H   0  0  0  0  0  0  0  0  0  0  0  0
   59.5637   34.6682   43.8233 H   0  0  0  0  0  0  0  0  0  0  0  0
   59.6437   30.7964   48.6598 H   0  0  0  0  0  0  0  0  0  0  0  0
   60.9603   29.9241   49.5294 H   0  0  0  0  0  0  0  0  0  0  0  0
   63.0837   30.8568   49.6750 H   0  0  0  0  0  0  0  0  0  0  0  0
   64.7328   32.6065   49.0052 H   0  0  0  0  0  0  0  0  0  0  0  0
   64.2086   34.1638   47.1231 H   0  0  0  0  0  0  0  0  0  0  0  0
   62.0374   33.9666   45.9069 H   0  0  0  0  0  0  0  0  0  0  0  0
   60.3833   32.2195   46.5719 H   0  0  0  0  0  0  0  0  0  0  0  0
  1  2  1  0
  2  3  1  0
  3  4  1  0
  4  5  1  0
  5  6  2  0
  6  7  1  0
  7  8  2  0
  8  9  1  0
  9 10  2  0
  3 11  2  0
 11 12  1  0
 12 13  1  0
 13 14  1  0
 14 15  1  0
 15 16  1  0
 16 17  2  0
 17 18  1  0
 18 19  2  0
 19 20  1  0
 20 21  2  0
 13 22  2  0
 22 23  1  0
 23 24  1  0
 24 25  2  0
 24 26  1  0
 26  2  1  0
 10  5  1  0
 26 12  2  0
 21 16  1  0
  1 27  1  0
  1 28  1  0
  1 29  1  0
  6 30  1  0
  7 31  1  0
  8 32  1  0
  9 33  1  0
 10 34  1  0
 15 35  1  0
 15 36  1  0
 17 37  1  0
 18 38  1  0
 19 39  1  0
 20 40  1  0
 21 41  1  0
M  CHG  1  23  -1
M  END
>  <UniqueID>  (34) 
30

>  <SMILES>  (34) 
Cn1c(Sc2ccccc2)nc2c(OCc3ccccc3)n[n-]c(=O)c21

>  <Energy>  (34) 
80.00239410209039

>  <Genealogy>  (34) 
Cn1c(Sc2ccccc2)nc2c(OCc3ccccc3)n[n-]c(=O)c21 (protonated)
Cn1c(Sc2ccccc2)nc2c(OCc3ccccc3)n[n-]c(=O)c21 (3D coordinates assigned)
Cn1c(Sc2ccccc2)nc2c(OCc3ccccc3)n[n-]c(=O)c21 (optimized conformer: 80.00239410209039 kcal/mol)

>  <smiles>  (34) 
Cn1c(Sc2ccccc2)nc2c(OCc3ccccc3)n[nH]c(=O)c21

>  <score_type>  (34) 
oracle

>  <origin>  (34) 
adg

>  <m_score__min__energy>  (34) 
-9.8599999999999994

>  <m_primary>  (34) 
energy

$$$$
34:0
     RDKit          3D

 53 56  0  0  0  0  0  0  0  0999 V2000
   55.8970   28.3780   45.2470 O   0  0  0  0  0  0  0  0  0  0  0  0
   56.6700   29.2670   44.7960 C   0  0  0  0  0  0  0  0  0  0  0  0
   58.1080   28.9410   44.5280 C   0  0  0  0  0  0  0  0  0  0  0  0
   58.5370   27.8130   45.3740 N   0  0  0  0  0  0  0  0  0  0  0  0
   58.2330   26.4630   44.9450 C   0  0  0  0  0  0  0  0  0  0  0  0
   57.5670   26.2610   43.8910 O   0  0  0  0  0  0  0  0  0  0  0  0
   58.6640   25.2850   45.7690 C   0  0  0  0  0  0  0  0  0  0  0  0
   60.3790   25.5520   46.3050 S   0  0  0  0  0  0  0  0  0  0  0  0
   59.9440   27.0140   47.2500 C   0  0  0  0  0  0  0  0  0  0  0  0
   60.3850   27.1280   48.5730 C   0  0  0  0  0  0  0  0  0  0  0  0
   60.0630   28.2570   49.3280 C   0  0  0  0  0  0  0  0  0  0  0  0
   59.2960   29.2820   48.7650 C   0  0  0  0  0  0  0  0  0  0  0  0
   58.8030   30.6720   49.7390 S   0  0  0  0  0  0  0  0  0  0  0  0
   60.0110   31.2650   50.4080 O   0  0  0  0  0  0  0  0  0  0  0  0
   58.2090   31.7170   48.8390 O   0  0  0  0  0  0  0  0  0  0  0  0
   57.6210   30.2190   50.9450 N   0  0  0  0  0  0  0  0  0  0  0  0
   58.2590   29.4690   52.0380 C   0  0  0  0  0  0  0  0  0  0  0  0
   57.1950   29.0270   53.0640 C   0  0  0  0  0  0  0  0  0  0  0  0
   55.9510   29.6920   52.8800 O   0  0  0  0  0  0  0  0  0  0  0  0
   56.1610   31.0860   52.7640 C   0  0  0  0  0  0  0  0  0  0  0  0
   56.9310   31.4140   51.4660 C   0  0  0  0  0  0  0  0  0  0  0  0
   58.8560   29.1730   47.4400 C   0  0  0  0  0  0  0  0  0  0  0  0
   59.1490   28.0260   46.6730 C   0  0  0  0  0  0  0  0  0  0  0  0
   56.1930   30.5990   44.5780 N   0  0  0  0  0  0  0  0  0  0  0  0
   57.0160   31.6610   44.0170 C   0  0  0  0  0  0  0  0  0  0  0  0
   57.7910   32.3320   45.1220 C   0  0  0  0  0  0  0  0  0  0  0  0
   57.3440   33.5540   45.6570 C   0  0  0  0  0  0  0  0  0  0  0  0
   58.1110   34.2270   46.6170 C   0  0  0  0  0  0  0  0  0  0  0  0
   59.3310   33.6860   47.0490 C   0  0  0  0  0  0  0  0  0  0  0  0
   60.2910   34.5330   48.2500 Cl  0  0  0  0  0  0  0  0  0  0  0  0
   59.7800   32.4670   46.5220 C   0  0  0  0  0  0  0  0  0  0  0  0
   59.0160   31.7940   45.5600 C   0  0  0  0  0  0  0  0  0  0  0  0
   58.2281   28.6681   43.4692 H   0  0  0  0  0  0  0  0  0  0  0  0
   58.7262   29.8208   44.7598 H   0  0  0  0  0  0  0  0  0  0  0  0
   58.0110   25.1891   46.6490 H   0  0  0  0  0  0  0  0  0  0  0  0
   58.5949   24.3630   45.1730 H   0  0  0  0  0  0  0  0  0  0  0  0
   60.9882   26.3242   49.0202 H   0  0  0  0  0  0  0  0  0  0  0  0
   60.4131   28.3406   50.3674 H   0  0  0  0  0  0  0  0  0  0  0  0
   58.7599   28.5803   51.6265 H   0  0  0  0  0  0  0  0  0  0  0  0
   58.9966   30.1145   52.5372 H   0  0  0  0  0  0  0  0  0  0  0  0
   57.0344   27.9437   52.9611 H   0  0  0  0  0  0  0  0  0  0  0  0
   57.5681   29.2874   54.0655 H   0  0  0  0  0  0  0  0  0  0  0  0
   55.1875   31.5979   52.7459 H   0  0  0  0  0  0  0  0  0  0  0  0
   56.7550   31.4278   53.6245 H   0  0  0  0  0  0  0  0  0  0  0  0
   56.2211   31.7783   50.7088 H   0  0  0  0  0  0  0  0  0  0  0  0
   57.6840   32.1839   51.6900 H   0  0  0  0  0  0  0  0  0  0  0  0
   58.2746   29.9921   46.9917 H   0  0  0  0  0  0  0  0  0  0  0  0
   57.7168   31.2339   43.2845 H   0  0  0  0  0  0  0  0  0  0  0  0
   56.3716   32.4006   43.5193 H   0  0  0  0  0  0  0  0  0  0  0  0
   56.3886   33.9827   45.3203 H   0  0  0  0  0  0  0  0  0  0  0  0
   57.7558   35.1815   47.0328 H   0  0  0  0  0  0  0  0  0  0  0  0
   60.7335   32.0385   46.8644 H   0  0  0  0  0  0  0  0  0  0  0  0
   59.3749   30.8407   45.1448 H   0  0  0  0  0  0  0  0  0  0  0  0
  1  2  2  0
  2  3  1  0
  3  4  1  0
  4  5  1  0
  5  6  2  0
  5  7  1  0
  7  8  1  0
  8  9  1  0
  9 10  2  0
 10 11  1  0
 11 12  2  0
 12 13  1  0
 13 14  2  0
 13 15  2  0
 13 16  1  0
 16 17  1  0
 17 18  1  0
 18 19  1  0
 19 20  1  0
 20 21  1  0
 12 22  1  0
 22 23  2  0
  2 24  1  0
 24 25  1  0
 25 26  1  0
 26 27  2  0
 27 28  1  0
 28 29  2  0
 29 30  1  0
 29 31  1  0
 31 32  2  0
 23  4  1  0
 32 26  1  0
 23  9  1  0
 21 16  1  0
  3 33  1  0
  3 34  1  0
  7 35  1  0
  7 36  1  0
 10 37  1  0
 11 38  1  0
 17 39  1  0
 17 40  1  0
 18 41  1  0
 18 42  1  0
 20 43  1  0
 20 44  1  0
 21 45  1  0
 21 46  1  0
 22 47  1  0
 25 48  1  0
 25 49  1  0
 27 50  1  0
 28 51  1  0
 31 52  1  0
 32 53  1  0
M  CHG  1  24  -1
M  END
>  <UniqueID>  (35) 
31

>  <SMILES>  (35) 
O=C(CN1C(=O)CSc2ccc(S(=O)(=O)N3CCOCC3)cc21)[N-]Cc1ccc(Cl)cc1

>  <Energy>  (35) 
62.24163222776724

>  <Genealogy>  (35) 
O=C(CN1C(=O)CSc2ccc(S(=O)(=O)N3CCOCC3)cc21)[N-]Cc1ccc(Cl)cc1 (protonated)
O=C(CN1C(=O)CSc2ccc(S(=O)(=O)N3CCOCC3)cc21)[N-]Cc1ccc(Cl)cc1 (3D coordinates assigned)
O=C(CN1C(=O)CSc2ccc(S(=O)(=O)N3CCOCC3)cc21)[N-]Cc1ccc(Cl)cc1 (nonaromatic ring conformer: 62.24163222776724 kcal/mol)

>  <smiles>  (35) 
O=C(CN1C(=O)CSc2ccc(S(=O)(=O)N3CCOCC3)cc21)NCc1ccc(Cl)cc1

>  <score_type>  (35) 
oracle

>  <origin>  (35) 
adg

>  <m_score__min__energy>  (35) 
-11.52

>  <m_primary>  (35) 
energy

$$$$
35:0
     RDKit          3D

 59 61  0  0  0  0  0  0  0  0999 V2000
   60.8640   26.4060   46.5670 C   0  0  0  0  0  0  0  0  0  0  0  0
   60.0140   27.6300   46.7380 C   0  0  0  0  0  0  0  0  0  0  0  0
   59.0380   27.9560   45.7850 C   0  0  0  0  0  0  0  0  0  0  0  0
   58.1860   29.0560   45.9860 C   0  0  0  0  0  0  0  0  0  0  0  0
   57.1490   29.3910   45.0990 O   0  0  0  0  0  0  0  0  0  0  0  0
   57.3000   29.7840   43.7330 C   0  0  0  0  0  0  0  0  0  0  0  0
   56.6960   31.1730   43.4760 C   0  0  0  0  0  0  0  0  0  0  0  0
   57.4300   32.2640   44.2080 C   0  0  0  0  0  0  0  0  0  0  0  0
   58.4900   32.9470   43.5920 C   0  0  0  0  0  0  0  0  0  0  0  0
   59.2040   33.9190   44.2930 C   0  0  0  0  0  0  0  0  0  0  0  0
   58.8750   34.2170   45.6250 C   0  0  0  0  0  0  0  0  0  0  0  0
   59.6350   35.2790   46.3780 C   0  0  0  0  0  0  0  0  0  0  0  0
   59.6960   34.9700   47.8080 N   0  0  0  0  0  0  0  0  0  0  0  0
   57.8000   33.5510   46.2350 C   0  0  0  0  0  0  0  0  0  0  0  0
   57.0850   32.5790   45.5310 C   0  0  0  0  0  0  0  0  0  0  0  0
   58.3640   29.8620   47.1170 C   0  0  0  0  0  0  0  0  0  0  0  0
   59.3430   29.5470   48.0770 C   0  0  0  0  0  0  0  0  0  0  0  0
   59.5470   30.3170   49.2310 O   0  0  0  0  0  0  0  0  0  0  0  0
   59.4560   32.0280   49.2900 S   0  0  0  0  0  0  0  0  0  0  0  0
   60.5770   32.5970   48.4670 O   0  0  0  0  0  0  0  0  0  0  0  0
   58.1350   32.4910   48.7430 O   0  0  0  0  0  0  0  0  0  0  0  0
   59.6150   32.5670   50.9650 C   0  0  0  0  0  0  0  0  0  0  0  0
   60.8640   33.0320   51.4070 C   0  0  0  0  0  0  0  0  0  0  0  0
   61.0210   33.5090   52.7100 C   0  0  0  0  0  0  0  0  0  0  0  0
   59.9340   33.5300   53.5850 C   0  0  0  0  0  0  0  0  0  0  0  0
   58.6870   33.0630   53.1630 C   0  0  0  0  0  0  0  0  0  0  0  0
   58.5110   32.5690   51.8560 C   0  0  0  0  0  0  0  0  0  0  0  0
   57.2350   32.0460   51.4500 N   0  0  0  0  0  0  0  0  0  0  0  0
   56.5370   30.6280   52.1610 S   0  0  0  0  0  0  0  0  0  0  0  0
   56.5220   30.7820   53.9340 C   0  0  0  0  0  0  0  0  0  0  0  0
   55.1380   30.4320   51.6430 O   0  0  0  0  0  0  0  0  0  0  0  0
   57.3650   29.4340   51.7720 O   0  0  0  0  0  0  0  0  0  0  0  0
   60.1440   28.4160   47.8890 C   0  0  0  0  0  0  0  0  0  0  0  0
   61.1392   26.0097   47.5555 H   0  0  0  0  0  0  0  0  0  0  0  0
   60.3004   25.6430   46.0100 H   0  0  0  0  0  0  0  0  0  0  0  0
   61.7758   26.6676   46.0100 H   0  0  0  0  0  0  0  0  0  0  0  0
   58.9385   27.3470   44.8744 H   0  0  0  0  0  0  0  0  0  0  0  0
   58.3713   29.8087   43.4846 H   0  0  0  0  0  0  0  0  0  0  0  0
   56.7685   29.0550   43.1037 H   0  0  0  0  0  0  0  0  0  0  0  0
   56.7380   31.3820   42.3968 H   0  0  0  0  0  0  0  0  0  0  0  0
   55.6598   31.1609   43.8451 H   0  0  0  0  0  0  0  0  0  0  0  0
   58.7592   32.7147   42.5511 H   0  0  0  0  0  0  0  0  0  0  0  0
   60.0287   34.4545   43.7999 H   0  0  0  0  0  0  0  0  0  0  0  0
   60.6585   35.3390   45.9795 H   0  0  0  0  0  0  0  0  0  0  0  0
   59.1133   36.2389   46.2500 H   0  0  0  0  0  0  0  0  0  0  0  0
   59.0960   34.1360   47.9970 H   0  0  0  0  0  0  0  0  0  0  0  0
   60.6790   34.7160   48.0530 H   0  0  0  0  0  0  0  0  0  0  0  0
   57.5199   33.7953   47.2703 H   0  0  0  0  0  0  0  0  0  0  0  0
   56.2469   32.0577   46.0166 H   0  0  0  0  0  0  0  0  0  0  0  0
   57.7315   30.7511   47.2564 H   0  0  0  0  0  0  0  0  0  0  0  0
   61.7247   33.0205   50.7221 H   0  0  0  0  0  0  0  0  0  0  0  0
   62.0040   33.8691   53.0476 H   0  0  0  0  0  0  0  0  0  0  0  0
   60.0593   33.9146   54.6079 H   0  0  0  0  0  0  0  0  0  0  0  0
   57.8346   33.0813   53.8580 H   0  0  0  0  0  0  0  0  0  0  0  0
   56.6380   32.5900   50.7900 H   0  0  0  0  0  0  0  0  0  0  0  0
   56.6191   29.7854   54.3894 H   0  0  0  0  0  0  0  0  0  0  0  0
   57.3627   31.4149   54.2542 H   0  0  0  0  0  0  0  0  0  0  0  0
   55.5749   31.2408   54.2542 H   0  0  0  0  0  0  0  0  0  0  0  0
   60.8846   28.1410   48.6544 H   0  0  0  0  0  0  0  0  0  0  0  0
  1  2  1  0
  2  3  2  0
  3  4  1  0
  4  5  1  0
  5  6  1  0
  6  7  1  0
  7  8  1  0
  8  9  2  0
  9 10  1  0
 10 11  2  0
 11 12  1  0
 12 13  1  0
 11 14  1  0
 14 15  2  0
  4 16  2  0
 16 17  1  0
 17 18  1  0
 18 19  1  0
 19 20  2  0
 19 21  2  0
 19 22  1  0
 22 23  2  0
 23 24  1  0
 24 25  2  0
 25 26  1  0
 26 27  2  0
 27 28  1  0
 28 29  1  0
 29 30  1  0
 29 31  2  0
 29 32  2  0
 17 33  2  0
 33  2  1  0
 15  8  1  0
 27 22  1  0
  1 34  1  0
  1 35  1  0
  1 36  1  0
  3 37  1  0
  6 38  1  0
  6 39  1  0
  7 40  1  0
  7 41  1  0
  9 42  1  0
 10 43  1  0
 12 44  1  0
 12 45  1  0
 13 46  1  0
 13 47  1  0
 14 48  1  0
 15 49  1  0
 16 50  1  0
 23 51  1  0
 24 52  1  0
 25 53  1  0
 26 54  1  0
 28 55  1  0
 30 56  1  0
 30 57  1  0
 30 58  1  0
 33 59  1  0
M  END
>  <UniqueID>  (36) 
32

>  <SMILES>  (36) 
Cc1cc(OCCc2ccc(CN)cc2)cc(OS(=O)(=O)c2ccccc2NS(C)(=O)=O)c1

>  <Energy>  (36) 
57.51647570551973

>  <Genealogy>  (36) 
Cc1cc(OCCc2ccc(CN)cc2)cc(OS(=O)(=O)c2ccccc2NS(C)(=O)=O)c1 (3D coordinates assigned)
Cc1cc(OCCc2ccc(CN)cc2)cc(OS(=O)(=O)c2ccccc2NS(C)(=O)=O)c1 (optimized conformer: 57.51647570551973 kcal/mol)

>  <smiles>  (36) 
Cc1cc(OCCc2ccc(CN)cc2)cc(OS(=O)(=O)c2ccccc2NS(C)(=O)=O)c1

>  <score_type>  (36) 
oracle

>  <origin>  (36) 
adg

>  <m_score__min__energy>  (36) 
-8.8599999999999994

>  <m_primary>  (36) 
energy

$$$$
36:0
     RDKit          3D

 67 70  0  0  0  0  0  0  0  0999 V2000
   60.2400   29.8220   46.5250 H   0  0  0  0  0  0  0  0  0  0  0  0
   60.5900   29.0520   45.9130 N   0  0  0  0  0  0  0  0  0  0  0  0
   59.9400   27.9390   45.7820 C   0  0  0  0  0  0  0  0  0  0  0  0
   60.4370   26.8050   46.3490 N   0  0  0  0  0  0  0  0  0  0  0  0
   59.7860   25.6150   46.2820 C   0  0  0  0  0  0  0  0  0  0  0  0
   60.2243   24.7233   46.7539 H   0  0  0  0  0  0  0  0  0  0  0  0
   58.5600   25.5190   45.6150 C   0  0  0  0  0  0  0  0  0  0  0  0
   57.8160   24.2370   45.5780 C   0  0  0  0  0  0  0  0  0  0  0  0
   57.8010   23.5090   44.3770 C   0  0  0  0  0  0  0  0  0  0  0  0
   58.2865   23.9270   43.4828 H   0  0  0  0  0  0  0  0  0  0  0  0
   57.1760   22.2580   44.3030 C   0  0  0  0  0  0  0  0  0  0  0  0
   57.1470   21.5040   43.0070 C   0  0  0  0  0  0  0  0  0  0  0  0
   57.1055   20.4241   43.2119 H   0  0  0  0  0  0  0  0  0  0  0  0
   56.2596   21.8020   42.4292 H   0  0  0  0  0  0  0  0  0  0  0  0
   58.0546   21.7329   42.4292 H   0  0  0  0  0  0  0  0  0  0  0  0
   56.5330   21.7420   45.4330 C   0  0  0  0  0  0  0  0  0  0  0  0
   56.0302   20.7652   45.3770 H   0  0  0  0  0  0  0  0  0  0  0  0
   56.5250   22.4580   46.6310 C   0  0  0  0  0  0  0  0  0  0  0  0
   55.9020   21.9190   47.7100 F   0  0  0  0  0  0  0  0  0  0  0  0
   57.1440   23.7200   46.7160 C   0  0  0  0  0  0  0  0  0  0  0  0
   57.0930   24.4750   48.0210 C   0  0  0  0  0  0  0  0  0  0  0  0
   57.1411   23.7634   48.8584 H   0  0  0  0  0  0  0  0  0  0  0  0
   57.9465   25.1666   48.0781 H   0  0  0  0  0  0  0  0  0  0  0  0
   56.1543   25.0455   48.0781 H   0  0  0  0  0  0  0  0  0  0  0  0
   58.0230   26.6710   45.0280 C   0  0  0  0  0  0  0  0  0  0  0  0
   57.0532   26.6167   44.5117 H   0  0  0  0  0  0  0  0  0  0  0  0
   58.7090   27.8960   45.0910 C   0  0  0  0  0  0  0  0  0  0  0  0
   58.1100   29.0970   44.4490 C   0  0  0  0  0  0  0  0  0  0  0  0
   57.2100   28.9710   43.3770 C   0  0  0  0  0  0  0  0  0  0  0  0
   56.9660   27.9744   42.9805 H   0  0  0  0  0  0  0  0  0  0  0  0
   56.6240   30.1070   42.8130 C   0  0  0  0  0  0  0  0  0  0  0  0
   55.9395   30.0027   41.9583 H   0  0  0  0  0  0  0  0  0  0  0  0
   56.9030   31.3740   43.3290 C   0  0  0  0  0  0  0  0  0  0  0  0
   56.4365   32.2625   42.8786 H   0  0  0  0  0  0  0  0  0  0  0  0
   57.7760   31.5210   44.4200 C   0  0  0  0  0  0  0  0  0  0  0  0
   58.0260   32.8680   44.9950 C   0  0  0  0  0  0  0  0  0  0  0  0
   57.4170   33.8620   44.5050 O   0  0  0  0  0  0  0  0  0  0  0  0
   58.9710   33.0640   46.0780 N   0  0  2  0  0  0  0  0  0  0  0  0
   59.3430   32.1300   46.3630 H   0  0  0  0  0  0  0  0  0  0  0  0
   58.3070   33.6440   47.2780 C   0  0  0  0  0  0  0  0  0  0  0  0
   57.4953   34.3056   46.9412 H   0  0  0  0  0  0  0  0  0  0  0  0
   57.9359   32.8022   47.8811 H   0  0  0  0  0  0  0  0  0  0  0  0
   59.2630   34.4610   48.1770 C   0  0  0  0  0  0  0  0  0  0  0  0
   59.2362   35.5113   47.8513 H   0  0  0  0  0  0  0  0  0  0  0  0
   58.9178   34.3398   49.2144 H   0  0  0  0  0  0  0  0  0  0  0  0
   60.7240   33.9680   48.1210 C   0  0  1  0  0  0  0  0  0  0  0  0
   61.3346   34.7085   48.6585 H   0  0  0  0  0  0  0  0  0  0  0  0
   60.9220   32.6200   48.8590 C   0  0  0  0  0  0  0  0  0  0  0  0
   61.9474   32.5769   49.2549 H   0  0  0  0  0  0  0  0  0  0  0  0
   60.1843   32.5613   49.6728 H   0  0  0  0  0  0  0  0  0  0  0  0
   60.7070   31.4670   47.9540 N   0  0  0  0  0  0  0  0  0  0  0  0
   59.9190   30.4100   48.6130 C   0  0  0  0  0  0  0  0  0  0  0  0
   60.0001   30.5188   49.7046 H   0  0  0  0  0  0  0  0  0  0  0  0
   58.8643   30.4980   48.3131 H   0  0  0  0  0  0  0  0  0  0  0  0
   60.3045   29.4244   48.3131 H   0  0  0  0  0  0  0  0  0  0  0  0
   62.0000   30.9120   47.5190 C   0  0  0  0  0  0  0  0  0  0  0  0
   62.6034   30.6530   48.4015 H   0  0  0  0  0  0  0  0  0  0  0  0
   61.8269   30.0089   46.9153 H   0  0  0  0  0  0  0  0  0  0  0  0
   62.5354   31.6596   46.9153 H   0  0  0  0  0  0  0  0  0  0  0  0
   61.2370   33.9020   46.6560 C   0  0  0  0  0  0  0  0  0  0  0  0
   61.8715   34.7808   46.4684 H   0  0  0  0  0  0  0  0  0  0  0  0
   61.7925   32.9587   46.5476 H   0  0  0  0  0  0  0  0  0  0  0  0
   60.1020   33.8860   45.6120 C   0  0  0  0  0  0  0  0  0  0  0  0
   59.7535   34.9156   45.4430 H   0  0  0  0  0  0  0  0  0  0  0  0
   60.4896   33.4536   44.6778 H   0  0  0  0  0  0  0  0  0  0  0  0
   58.3980   30.3770   44.9530 C   0  0  0  0  0  0  0  0  0  0  0  0
   59.1199   30.4860   45.7758 H   0  0  0  0  0  0  0  0  0  0  0  0
  1  2  1  0
  2  3  2  0
  3  4  1  0
  4  5  1  0
  5  6  1  0
  5  7  2  0
  7  8  1  0
  8  9  2  0
  9 10  1  0
  9 11  1  0
 11 12  1  0
 12 13  1  0
 12 14  1  0
 12 15  1  0
 11 16  2  0
 16 17  1  0
 16 18  1  0
 18 19  1  0
 18 20  2  0
 20 21  1  0
 21 22  1  0
 21 23  1  0
 21 24  1  0
  7 25  1  0
 25 26  1  0
 25 27  2  0
 27 28  1  0
 28 29  2  0
 29 30  1  0
 29 31  1  0
 31 32  1  0
 31 33  2  0
 33 34  1  0
 33 35  1  0
 35 36  1  0
 36 37  2  0
 36 38  1  0
 38 39  1  6
 38 40  1  0
 40 41  1  0
 40 42  1  0
 40 43  1  0
 43 44  1  0
 43 45  1  0
 43 46  1  0
 46 47  1  6
 46 48  1  0
 48 49  1  0
 48 50  1  0
 48 51  1  0
 51 52  1  0
 52 53  1  0
 52 54  1  0
 52 55  1  0
 51 56  1  0
 56 57  1  0
 56 58  1  0
 56 59  1  0
 46 60  1  0
 60 61  1  0
 60 62  1  0
 60 63  1  0
 63 64  1  0
 63 65  1  0
 35 66  2  0
 66 67  1  0
 27  3  1  0
 66 28  1  0
 20  8  1  0
 63 38  1  0
M  CHG  2   4  -1  38   1
M  END
>  <UniqueID>  (37) 
33

>  <SMILES>  (37) 
[H]/N=c1\[n-]cc(-c2cc(C)cc(F)c2C)cc1-c1cccc(C(=O)[NH+]2CCC(CN(C)C)CC2)c1

>  <Energy>  (37) 
96.81742112160283

>  <Genealogy>  (37) 
Cc1cc(F)c(C)c(-c2c[n-]c(=N)c(-c3cccc(C(=O)[NH+]4CCC(CN(C)C)CC4)c3)c2)c1 (protonated)
[H]/N=c1\[n-]cc(-c2cc(C)cc(F)c2C)cc1-c1cccc(C(=O)[NH+]2CCC(CN(C)C)CC2)c1 (cis-trans isomerization)
[H]/N=c1\[n-]cc(-c2cc(C)cc(F)c2C)cc1-c1cccc(C(=O)[NH+]2CCC(CN(C)C)CC2)c1 (3D coordinates assigned)
[H]/N=c1\[n-]cc(-c2cc(C)cc(F)c2C)cc1-c1cccc(C(=O)[NH+]2CCC(CN(C)C)CC2)c1 (nonaromatic ring conformer: 96.81742112160283 kcal/mol)

>  <smiles>  (37) 
Cc1cc(F)c(C)c(-c2c[nH]c(=N)c(-c3cccc(C(=O)N4CCC(CN(C)C)CC4)c3)c2)c1

>  <score_type>  (37) 
oracle

>  <origin>  (37) 
adg

>  <m_score__min__energy>  (37) 
-8.8100000000000005

>  <m_primary>  (37) 
energy

$$$$
37:0
     RDKit          3D

 33 35  0  0  0  0  0  0  0  0999 V2000
   56.6530   30.7250   43.1100 O   0  0  0  0  0  0  0  0  0  0  0  0
   56.6840   30.9530   44.3510 C   0  0  0  0  0  0  0  0  0  0  0  0
   56.8710   29.8790   45.2830 N   0  0  0  0  0  0  0  0  0  0  0  0
   57.2070   28.5310   44.9090 C   0  0  0  0  0  0  0  0  0  0  0  0
   57.7970   28.2930   43.6610 C   0  0  0  0  0  0  0  0  0  0  0  0
   58.1140   26.9940   43.2660 C   0  0  0  0  0  0  0  0  0  0  0  0
   57.8310   25.9140   44.1060 C   0  0  0  0  0  0  0  0  0  0  0  0
   57.2160   26.1240   45.3530 C   0  0  0  0  0  0  0  0  0  0  0  0
   56.8890   24.9900   46.2540 C   0  0  0  0  0  0  0  0  0  0  0  0
   57.7480   24.0090   46.7100 C   0  0  0  0  0  0  0  0  0  0  0  0
   57.0670   23.1650   47.5050 N   0  0  0  0  0  0  0  0  0  0  0  0
   55.8110   23.6560   47.5110 C   0  0  0  0  0  0  0  0  0  0  0  0
   55.6630   24.7670   46.7610 N   0  0  0  0  0  0  0  0  0  0  0  0
   56.9000   27.4400   45.7430 C   0  0  0  0  0  0  0  0  0  0  0  0
   56.5530   32.2580   44.8410 O   0  0  0  0  0  0  0  0  0  0  0  0
   57.5460   32.9720   45.5280 C   0  0  0  0  0  0  0  0  0  0  0  0
   58.2880   34.0040   44.9210 C   0  0  0  0  0  0  0  0  0  0  0  0
   59.2590   34.6960   45.6520 C   0  0  0  0  0  0  0  0  0  0  0  0
   59.4920   34.3730   46.9910 C   0  0  0  0  0  0  0  0  0  0  0  0
   60.4330   35.0450   47.6980 F   0  0  0  0  0  0  0  0  0  0  0  0
   58.7450   33.3630   47.6050 C   0  0  0  0  0  0  0  0  0  0  0  0
   57.7730   32.6710   46.8770 C   0  0  0  0  0  0  0  0  0  0  0  0
   56.6530   30.0740   46.2860 H   0  0  0  0  0  0  0  0  0  0  0  0
   58.0116   29.1364   42.9883 H   0  0  0  0  0  0  0  0  0  0  0  0
   58.5887   26.8188   42.2893 H   0  0  0  0  0  0  0  0  0  0  0  0
   58.0909   24.8930   43.7899 H   0  0  0  0  0  0  0  0  0  0  0  0
   58.8170   23.9308   46.4626 H   0  0  0  0  0  0  0  0  0  0  0  0
   54.9862   23.1945   48.0738 H   0  0  0  0  0  0  0  0  0  0  0  0
   56.4076   27.6169   46.7106 H   0  0  0  0  0  0  0  0  0  0  0  0
   58.1032   34.2665   43.8689 H   0  0  0  0  0  0  0  0  0  0  0  0
   59.8406   35.4965   45.1714 H   0  0  0  0  0  0  0  0  0  0  0  0
   58.9224   33.1129   48.6614 H   0  0  0  0  0  0  0  0  0  0  0  0
   57.1816   31.8837   47.3674 H   0  0  0  0  0  0  0  0  0  0  0  0
  1  2  2  0
  2  3  1  0
  3  4  1  0
  4  5  2  0
  5  6  1  0
  6  7  2  0
  7  8  1  0
  8  9  1  0
  9 10  2  0
 10 11  1  0
 11 12  1  0
 12 13  2  0
  8 14  2  0
  2 15  1  0
 15 16  1  0
 16 17  2  0
 17 18  1  0
 18 19  2  0
 19 20  1  0
 19 21  1  0
 21 22  2  0
 14  4  1  0
 22 16  1  0
 13  9  1  0
  3 23  1  0
  5 24  1  0
  6 25  1  0
  7 26  1  0
 10 27  1  0
 12 28  1  0
 14 29  1  0
 17 30  1  0
 18 31  1  0
 21 32  1  0
 22 33  1  0
M  CHG  1  11  -1
M  END
>  <UniqueID>  (38) 
34

>  <SMILES>  (38) 
O=C(Nc1cccc(-c2c[n-]cn2)c1)Oc1ccc(F)cc1

>  <Energy>  (38) 
72.71260527488936

>  <Genealogy>  (38) 
O=C(Nc1cccc(-c2c[n-]cn2)c1)Oc1ccc(F)cc1 (protonated)
O=C(Nc1cccc(-c2c[n-]cn2)c1)Oc1ccc(F)cc1 (3D coordinates assigned)
O=C(Nc1cccc(-c2c[n-]cn2)c1)Oc1ccc(F)cc1 (optimized conformer: 72.71260527488936 kcal/mol)

>  <smiles>  (38) 
O=C(Nc1cccc(-c2c[nH]cn2)c1)Oc1ccc(F)cc1

>  <score_type>  (38) 
oracle

>  <origin>  (38) 
adg

>  <m_score__min__energy>  (38) 
-9.3000000000000007

>  <m_primary>  (38) 
energy

$$$$
38:0
     RDKit          3D

 50 53  0  0  0  0  0  0  0  0999 V2000
   58.9710   30.4660   49.4070 O   0  0  0  0  0  0  0  0  0  0  0  0
   60.0820   30.0840   48.9490 C   0  0  0  0  0  0  0  0  0  0  0  0
   60.1940   28.8080   48.3020 N   0  0  0  0  0  0  0  0  0  0  0  0
   59.0300   27.9840   47.9780 C   0  0  0  0  0  0  0  0  0  0  0  0
   59.1760   27.3340   46.5970 C   0  0  0  0  0  0  0  0  0  0  0  0
   59.5120   28.3630   45.5120 C   0  0  0  0  0  0  0  0  0  0  0  0
   58.2850   28.9390   44.9690 N   0  0  0  0  0  0  0  0  0  0  0  0
   57.7680   28.7320   43.7480 C   0  0  0  0  0  0  0  0  0  0  0  0
   56.5670   29.4020   43.6800 C   0  0  0  0  0  0  0  0  0  0  0  0
   56.3230   30.0160   44.8580 N   0  0  0  0  0  0  0  0  0  0  0  0
   57.3910   29.7050   45.6230 C   0  0  0  0  0  0  0  0  0  0  0  0
   61.2720   30.9520   49.1140 C   0  0  0  0  0  0  0  0  0  0  0  0
   62.2660   30.5330   50.0080 C   0  0  0  0  0  0  0  0  0  0  0  0
   63.4290   31.2880   50.1650 C   0  0  0  0  0  0  0  0  0  0  0  0
   64.4360   30.8650   51.0440 C   0  0  0  0  0  0  0  0  0  0  0  0
   65.5990   31.6190   51.1980 C   0  0  0  0  0  0  0  0  0  0  0  0
   65.7790   32.8110   50.4750 C   0  0  0  0  0  0  0  0  0  0  0  0
   66.9810   33.5900   50.6330 N   0  0  0  0  0  0  0  0  0  0  0  0
   66.9580   34.6800   51.2410 O   0  0  0  0  0  0  0  0  0  0  0  0
   68.1770   33.1440   50.1170 O   0  0  0  0  0  0  0  0  0  0  0  0
   64.7690   33.2350   49.5930 C   0  0  0  0  0  0  0  0  0  0  0  0
   63.5900   32.4790   49.4320 C   0  0  0  0  0  0  0  0  0  0  0  0
   62.5610   32.8900   48.5600 C   0  0  0  0  0  0  0  0  0  0  0  0
   62.6830   33.9740   47.9220 O   0  0  0  0  0  0  0  0  0  0  0  0
   61.4230   32.1310   48.4150 N   0  0  0  0  0  0  0  0  0  0  0  0
   60.3610   32.6240   47.5700 C   0  0  0  0  0  0  0  0  0  0  0  0
   60.0270   31.9490   46.3840 C   0  0  0  0  0  0  0  0  0  0  0  0
   59.0120   32.4380   45.5580 C   0  0  0  0  0  0  0  0  0  0  0  0
   58.3190   33.6020   45.9120 C   0  0  0  0  0  0  0  0  0  0  0  0
   57.0480   34.2160   44.8710 Cl  0  0  0  0  0  0  0  0  0  0  0  0
   58.6390   34.2730   47.0960 C   0  0  0  0  0  0  0  0  0  0  0  0
   59.6550   33.7860   47.9240 C   0  0  0  0  0  0  0  0  0  0  0  0
   61.1380   28.4530   48.0300 H   0  0  0  0  0  0  0  0  0  0  0  0
   58.9273   27.1943   48.7369 H   0  0  0  0  0  0  0  0  0  0  0  0
   58.1395   28.6296   47.9660 H   0  0  0  0  0  0  0  0  0  0  0  0
   59.9818   26.5864   46.6395 H   0  0  0  0  0  0  0  0  0  0  0  0
   58.2144   26.8673   46.3372 H   0  0  0  0  0  0  0  0  0  0  0  0
   60.1277   29.1635   45.9480 H   0  0  0  0  0  0  0  0  0  0  0  0
   60.0647   27.8645   44.7020 H   0  0  0  0  0  0  0  0  0  0  0  0
   58.2227   28.1337   42.9447 H   0  0  0  0  0  0  0  0  0  0  0  0
   55.9070   29.4325   42.8005 H   0  0  0  0  0  0  0  0  0  0  0  0
   57.5168   30.0396   46.6633 H   0  0  0  0  0  0  0  0  0  0  0  0
   62.1295   29.6077   50.5869 H   0  0  0  0  0  0  0  0  0  0  0  0
   64.3081   29.9336   51.6151 H   0  0  0  0  0  0  0  0  0  0  0  0
   66.3822   31.2781   51.8911 H   0  0  0  0  0  0  0  0  0  0  0  0
   64.9003   34.1664   49.0227 H   0  0  0  0  0  0  0  0  0  0  0  0
   60.5667   31.0321   46.1048 H   0  0  0  0  0  0  0  0  0  0  0  0
   58.7569   31.9080   44.6285 H   0  0  0  0  0  0  0  0  0  0  0  0
   58.0911   35.1847   47.3764 H   0  0  0  0  0  0  0  0  0  0  0  0
   59.9025   34.3147   48.8563 H   0  0  0  0  0  0  0  0  0  0  0  0
  1  2  2  0
  2  3  1  0
  3  4  1  0
  4  5  1  0
  5  6  1  0
  6  7  1  0
  7  8  1  0
  8  9  2  0
  9 10  1  0
 10 11  2  0
  2 12  1  0
 12 13  2  0
 13 14  1  0
 14 15  2  0
 15 16  1  0
 16 17  2  0
 17 18  1  0
 18 19  2  0
 18 20  1  0
 17 21  1  0
 21 22  2  0
 22 23  1  0
 23 24  2  0
 23 25  1  0
 25 26  1  0
 26 27  2  0
 27 28  1  0
 28 29  2  0
 29 30  1  0
 29 31  1  0
 31 32  2  0
 11  7  1  0
 25 12  1  0
 32 26  1  0
 22 14  1  0
  3 33  1  0
  4 34  1  0
  4 35  1  0
  5 36  1  0
  5 37  1  0
  6 38  1  0
  6 39  1  0
  8 40  1  0
  9 41  1  0
 11 42  1  0
 13 43  1  0
 15 44  1  0
 16 45  1  0
 21 46  1  0
 27 47  1  0
 28 48  1  0
 31 49  1  0
 32 50  1  0
M  CHG  2  18   1  20  -1
M  END
>  <UniqueID>  (39) 
35

>  <SMILES>  (39) 
O=C(NCCCn1ccnc1)c1cc2ccc([N+](=O)[O-])cc2c(=O)n1-c1ccc(Cl)cc1

>  <Energy>  (39) 
97.02639730898274

>  <Genealogy>  (39) 
O=C(NCCCn1ccnc1)c1cc2ccc([N+](=O)[O-])cc2c(=O)n1-c1ccc(Cl)cc1 (3D coordinates assigned)
O=C(NCCCn1ccnc1)c1cc2ccc([N+](=O)[O-])cc2c(=O)n1-c1ccc(Cl)cc1 (optimized conformer: 97.02639730898274 kcal/mol)

>  <smiles>  (39) 
O=C(NCCCn1ccnc1)c1cc2ccc([N+](=O)[O-])cc2c(=O)n1-c1ccc(Cl)cc1

>  <score_type>  (39) 
oracle

>  <origin>  (39) 
adg

>  <m_score__min__energy>  (39) 
-8.6500000000000004

>  <m_primary>  (39) 
energy

$$$$
39:0
     RDKit          3D

 58 61  0  0  0  0  0  0  0  0999 V2000
   64.8496   31.0082   52.9116 H   0  0  0  0  0  0  0  0  0  0  0  0
   64.1520   30.8550   52.0750 C   0  0  0  0  0  0  0  0  0  0  0  0
   63.1010   30.0150   52.2270 N   0  0  0  0  0  0  0  0  0  0  0  0
   62.2120   29.7900   51.2300 C   0  0  0  0  0  0  0  0  0  0  0  0
   61.1590   28.8950   51.4380 C   0  0  0  0  0  0  0  0  0  0  0  0
   61.0660   28.3745   52.4026 H   0  0  0  0  0  0  0  0  0  0  0  0
   60.2250   28.6580   50.4290 C   0  0  0  0  0  0  0  0  0  0  0  0
   59.4016   27.9496   50.6029 H   0  0  0  0  0  0  0  0  0  0  0  0
   60.3280   29.3170   49.1930 C   0  0  0  0  0  0  0  0  0  0  0  0
   59.3230   29.0740   48.1270 C   0  0  0  0  0  0  0  0  0  0  0  0
   58.8480   27.7750   47.8780 C   0  0  0  0  0  0  0  0  0  0  0  0
   59.2270   26.9318   48.4742 H   0  0  0  0  0  0  0  0  0  0  0  0
   57.8980   27.5460   46.8790 C   0  0  0  0  0  0  0  0  0  0  0  0
   57.3290   25.9090   46.5900 Cl  0  0  0  0  0  0  0  0  0  0  0  0
   57.4100   28.6140   46.1170 C   0  0  0  0  0  0  0  0  0  0  0  0
   56.4630   28.3840   45.1250 O   0  0  0  0  0  0  0  0  0  0  0  0
   57.8690   29.9170   46.3490 C   0  0  0  0  0  0  0  0  0  0  0  0
   57.3520   30.9600   45.5630 O   0  0  0  0  0  0  0  0  0  0  0  0
   57.1250   30.8760   44.1600 C   0  0  0  0  0  0  0  0  0  0  0  0
   56.1081   30.4997   43.9750 H   0  0  0  0  0  0  0  0  0  0  0  0
   57.2341   31.8740   43.7105 H   0  0  0  0  0  0  0  0  0  0  0  0
   57.8575   30.1894   43.7105 H   0  0  0  0  0  0  0  0  0  0  0  0
   58.8280   30.1420   47.3570 C   0  0  0  0  0  0  0  0  0  0  0  0
   59.1930   31.1628   47.5434 H   0  0  0  0  0  0  0  0  0  0  0  0
   61.3890   30.2160   48.9820 C   0  0  0  0  0  0  0  0  0  0  0  0
   61.4758   30.7350   48.0160 H   0  0  0  0  0  0  0  0  0  0  0  0
   62.3450   30.4620   49.9930 C   0  0  0  0  0  0  0  0  0  0  0  0
   63.4020   31.3900   49.8180 C   0  0  0  0  0  0  0  0  0  0  0  0
   63.4290   32.0880   48.7090 N   0  0  0  0  0  0  0  0  0  0  0  0
   62.4250   32.9330   48.1320 C   0  0  0  0  0  0  0  0  0  0  0  0
   61.4180   33.5010   48.9280 C   0  0  0  0  0  0  0  0  0  0  0  0
   61.4218   33.3384   50.0159 H   0  0  0  0  0  0  0  0  0  0  0  0
   60.4100   34.2730   48.3420 C   0  0  0  0  0  0  0  0  0  0  0  0
   59.6391   34.7376   48.9743 H   0  0  0  0  0  0  0  0  0  0  0  0
   60.3770   34.4580   46.9510 C   0  0  0  0  0  0  0  0  0  0  0  0
   59.2790   35.2880   46.3150 C   0  0  0  0  0  0  0  0  0  0  0  0
   58.8949   35.9904   47.0694 H   0  0  0  0  0  0  0  0  0  0  0  0
   59.7263   35.7996   45.4500 H   0  0  0  0  0  0  0  0  0  0  0  0
   58.1430   34.4890   45.8010 N   0  0  0  0  0  0  0  0  0  0  0  0
   58.4420   33.8380   44.5150 C   0  0  0  0  0  0  0  0  0  0  0  0
   58.8946   32.8525   44.6994 H   0  0  0  0  0  0  0  0  0  0  0  0
   57.5112   33.7126   43.9423 H   0  0  0  0  0  0  0  0  0  0  0  0
   59.1436   34.4624   43.9423 H   0  0  0  0  0  0  0  0  0  0  0  0
   57.6480   33.5110   46.7820 C   0  0  0  0  0  0  0  0  0  0  0  0
   57.8369   33.8843   47.7993 H   0  0  0  0  0  0  0  0  0  0  0  0
   56.5671   33.3643   46.6401 H   0  0  0  0  0  0  0  0  0  0  0  0
   58.1698   32.5531   46.6401 H   0  0  0  0  0  0  0  0  0  0  0  0
   61.3660   33.8580   46.1550 C   0  0  0  0  0  0  0  0  0  0  0  0
   61.3491   33.9970   45.0639 H   0  0  0  0  0  0  0  0  0  0  0  0
   62.3720   33.0850   46.7420 C   0  0  0  0  0  0  0  0  0  0  0  0
   63.1253   32.5940   46.1084 H   0  0  0  0  0  0  0  0  0  0  0  0
   64.3630   31.5320   50.8660 C   0  0  0  0  0  0  0  0  0  0  0  0
   65.6650   32.2150   50.7110 C   0  0  0  0  0  0  0  0  0  0  0  0
   65.6970   33.4010   50.2890 O   0  0  0  0  0  0  0  0  0  0  0  0
   66.9360   31.5740   51.1770 C   0  0  0  0  0  0  0  0  0  0  0  0
   66.9590   31.5624   52.2767 H   0  0  0  0  0  0  0  0  0  0  0  0
   66.9867   30.5425   50.7983 H   0  0  0  0  0  0  0  0  0  0  0  0
   67.7956   32.1464   50.7983 H   0  0  0  0  0  0  0  0  0  0  0  0
  1  2  1  0
  2  3  1  0
  3  4  1  0
  4  5  2  0
  5  6  1  0
  5  7  1  0
  7  8  1  0
  7  9  2  0
  9 10  1  0
 10 11  2  0
 11 12  1  0
 11 13  1  0
 13 14  1  0
 13 15  2  0
 15 16  1  0
 15 17  1  0
 17 18  1  0
 18 19  1  0
 19 20  1  0
 19 21  1  0
 19 22  1  0
 17 23  2  0
 23 24  1  0
  9 25  1  0
 25 26  1  0
 25 27  2  0
 27 28  1  0
 28 29  2  0
 29 30  1  0
 30 31  2  0
 31 32  1  0
 31 33  1  0
 33 34  1  0
 33 35  2  0
 35 36  1  0
 36 37  1  0
 36 38  1  0
 36 39  1  0
 39 40  1  0
 40 41  1  0
 40 42  1  0
 40 43  1  0
 39 44  1  0
 44 45  1  0
 44 46  1  0
 44 47  1  0
 35 48  1  0
 48 49  1  0
 48 50  2  0
 50 51  1  0
 28 52  1  0
 52 53  1  0
 53 54  2  0
 53 55  1  0
 55 56  1  0
 55 57  1  0
 55 58  1  0
 52  2  2  0
 27  4  1  0
 50 30  1  0
 23 10  1  0
M  CHG  2   3  -1  16  -1
M  END
>  <UniqueID>  (40) 
36

>  <SMILES>  (40) 
COc1cc(-c2ccc3[n-]cc(C(C)=O)/c(=N\c4ccc(CN(C)C)cc4)c3c2)cc(Cl)c1[O-]

>  <Energy>  (40) 
94.65233693613159

>  <Genealogy>  (40) 
COc1cc(-c2ccc3[n-]cc(C(C)=O)c(=Nc4ccc(CN(C)C)cc4)c3c2)cc(Cl)c1[O-] (protonated)
COc1cc(-c2ccc3[n-]cc(C(C)=O)/c(=N\c4ccc(CN(C)C)cc4)c3c2)cc(Cl)c1[O-] (cis-trans isomerization)
COc1cc(-c2ccc3[n-]cc(C(C)=O)/c(=N\c4ccc(CN(C)C)cc4)c3c2)cc(Cl)c1[O-] (3D coordinates assigned)
COc1cc(-c2ccc3[n-]cc(C(C)=O)/c(=N\c4ccc(CN(C)C)cc4)c3c2)cc(Cl)c1[O-] (optimized conformer: 94.65233693613159 kcal/mol)

>  <smiles>  (40) 
COc1cc(-c2ccc3[nH]cc(C(C)=O)c(=Nc4ccc(CN(C)C)cc4)c3c2)cc(Cl)c1O

>  <score_type>  (40) 
oracle

>  <origin>  (40) 
adg

>  <m_score__min__energy>  (40) 
-13.35

>  <m_primary>  (40) 
energy

$$$$
40:0
     RDKit          3D

 44 46  0  0  0  0  0  0  0  0999 V2000
   55.5090   29.7230   43.7060 C   0  0  0  0  0  0  0  0  0  0  0  0
   55.8190   29.2230   45.0030 O   0  0  0  0  0  0  0  0  0  0  0  0
   56.9960   28.5320   45.3360 C   0  0  0  0  0  0  0  0  0  0  0  0
   57.0430   27.1220   45.3230 C   0  0  0  0  0  0  0  0  0  0  0  0
   58.2190   26.4490   45.6570 C   0  0  0  0  0  0  0  0  0  0  0  0
   59.3600   27.1660   46.0070 C   0  0  0  0  0  0  0  0  0  0  0  0
   59.3320   28.5600   46.0270 C   0  0  0  0  0  0  0  0  0  0  0  0
   58.1560   29.2630   45.6930 C   0  0  0  0  0  0  0  0  0  0  0  0
   58.1420   30.7510   45.7160 C   0  0  0  0  0  0  0  0  0  0  0  0
   59.1240   31.5960   46.2170 C   0  0  0  0  0  0  0  0  0  0  0  0
   58.6270   32.8640   45.9880 C   0  0  0  0  0  0  0  0  0  0  0  0
   59.2810   34.1310   46.3650 C   0  0  0  0  0  0  0  0  0  0  0  0
   58.5740   35.0940   46.7610 O   0  0  0  0  0  0  0  0  0  0  0  0
   60.6970   34.3200   46.2390 N   0  0  0  0  0  0  0  0  0  0  0  0
   61.6950   33.8530   47.1580 C   0  0  0  0  0  0  0  0  0  0  0  0
   62.9960   33.5390   46.7360 C   0  0  0  0  0  0  0  0  0  0  0  0
   63.9420   33.0700   47.6520 C   0  0  0  0  0  0  0  0  0  0  0  0
   63.6050   32.8870   49.0090 C   0  0  0  0  0  0  0  0  0  0  0  0
   64.5870   32.4030   49.9620 N   0  0  0  0  0  0  0  0  0  0  0  0
   64.2780   31.2660   50.8390 C   0  0  0  0  0  0  0  0  0  0  0  0
   65.9060   33.0390   50.0650 C   0  0  0  0  0  0  0  0  0  0  0  0
   62.2860   33.1830   49.4140 C   0  0  0  0  0  0  0  0  0  0  0  0
   61.3430   33.6520   48.4950 C   0  0  0  0  0  0  0  0  0  0  0  0
   57.4210   32.7560   45.4030 N   0  0  0  0  0  0  0  0  0  0  0  0
   57.1590   31.4920   45.2520 O   0  0  0  0  0  0  0  0  0  0  0  0
   54.9315   30.6544   43.8005 H   0  0  0  0  0  0  0  0  0  0  0  0
   56.4414   29.9236   43.1579 H   0  0  0  0  0  0  0  0  0  0  0  0
   54.9147   28.9771   43.1579 H   0  0  0  0  0  0  0  0  0  0  0  0
   56.1456   26.5486   45.0474 H   0  0  0  0  0  0  0  0  0  0  0  0
   58.2446   25.3494   45.6437 H   0  0  0  0  0  0  0  0  0  0  0  0
   60.2854   26.6318   46.2683 H   0  0  0  0  0  0  0  0  0  0  0  0
   60.2379   29.1179   46.3066 H   0  0  0  0  0  0  0  0  0  0  0  0
   60.0786   31.3188   46.6881 H   0  0  0  0  0  0  0  0  0  0  0  0
   63.2729   33.6626   45.6786 H   0  0  0  0  0  0  0  0  0  0  0  0
   64.9621   32.8408   47.3100 H   0  0  0  0  0  0  0  0  0  0  0  0
   64.3633   31.5797   51.8899 H   0  0  0  0  0  0  0  0  0  0  0  0
   63.2530   30.9189   50.6420 H   0  0  0  0  0  0  0  0  0  0  0  0
   64.9864   30.4478   50.6420 H   0  0  0  0  0  0  0  0  0  0  0  0
   66.1699   33.1663   51.1253 H   0  0  0  0  0  0  0  0  0  0  0  0
   66.6583   32.4047   49.5735 H   0  0  0  0  0  0  0  0  0  0  0  0
   65.8781   34.0227   49.5735 H   0  0  0  0  0  0  0  0  0  0  0  0
   61.9964   33.0429   50.4659 H   0  0  0  0  0  0  0  0  0  0  0  0
   60.3160   33.8644   48.8270 H   0  0  0  0  0  0  0  0  0  0  0  0
   56.7750   33.5290   45.1320 H   0  0  0  0  0  0  0  0  0  0  0  0
  1  2  1  0
  2  3  1  0
  3  4  2  0
  4  5  1  0
  5  6  2  0
  6  7  1  0
  7  8  2  0
  8  9  1  0
  9 10  2  0
 10 11  1  0
 11 12  1  0
 12 13  2  0
 12 14  1  0
 14 15  1  0
 15 16  2  0
 16 17  1  0
 17 18  2  0
 18 19  1  0
 19 20  1  0
 19 21  1  0
 18 22  1  0
 22 23  2  0
 11 24  2  0
 24 25  1  0
  8  3  1  0
 25  9  1  0
 23 15  1  0
  1 26  1  0
  1 27  1  0
  1 28  1  0
  4 29  1  0
  5 30  1  0
  6 31  1  0
  7 32  1  0
 10 33  1  0
 16 34  1  0
 17 35  1  0
 20 36  1  0
 20 37  1  0
 20 38  1  0
 21 39  1  0
 21 40  1  0
 21 41  1  0
 22 42  1  0
 23 43  1  0
 24 44  1  0
M  CHG  2  14  -1  24   1
M  END
>  <UniqueID>  (41) 
37

>  <SMILES>  (41) 
COc1ccccc1-c1cc(C(=O)[N-]c2ccc(N(C)C)cc2)[nH+]o1

>  <Energy>  (41) 
85.50314303105424

>  <Genealogy>  (41) 
COc1ccccc1-c1cc(C(=O)[N-]c2ccc(N(C)C)cc2)[nH+]o1 (protonated)
COc1ccccc1-c1cc(C(=O)[N-]c2ccc(N(C)C)cc2)[nH+]o1 (3D coordinates assigned)
COc1ccccc1-c1cc(C(=O)[N-]c2ccc(N(C)C)cc2)[nH+]o1 (optimized conformer: 85.50314303105424 kcal/mol)

>  <smiles>  (41) 
COc1ccccc1-c1cc(C(=O)Nc2ccc(N(C)C)cc2)no1

>  <score_type>  (41) 
oracle

>  <origin>  (41) 
adg

>  <m_score__min__energy>  (41) 
-7.3099999999999996

>  <m_primary>  (41) 
energy

$$$$
41:0
     RDKit          3D

 31 33  0  0  0  0  0  0  0  0999 V2000
   55.1630   29.3020   44.6670 O   0  0  0  0  0  0  0  0  0  0  0  0
   56.4020   30.0710   44.3010 S   0  0  0  0  0  0  0  0  0  0  0  0
   56.5930   30.0760   42.8100 O   0  0  0  0  0  0  0  0  0  0  0  0
   56.2580   31.7030   44.8710 N   0  0  0  0  0  0  0  0  0  0  0  0
   57.3210   32.6250   45.1590 C   0  0  0  0  0  0  0  0  0  0  0  0
   57.4640   33.0570   46.4850 C   0  0  0  0  0  0  0  0  0  0  0  0
   58.4770   33.9540   46.8380 C   0  0  0  0  0  0  0  0  0  0  0  0
   59.3580   34.4300   45.8660 C   0  0  0  0  0  0  0  0  0  0  0  0
   59.2280   34.0090   44.5420 C   0  0  0  0  0  0  0  0  0  0  0  0
   58.2170   33.1110   44.1790 C   0  0  0  0  0  0  0  0  0  0  0  0
   58.1350   32.7340   42.8810 F   0  0  0  0  0  0  0  0  0  0  0  0
   57.7970   29.2880   45.0500 C   0  0  0  0  0  0  0  0  0  0  0  0
   59.0440   29.9360   45.0600 C   0  0  0  0  0  0  0  0  0  0  0  0
   60.1550   29.3270   45.6500 C   0  0  0  0  0  0  0  0  0  0  0  0
   60.0400   28.0650   46.2360 C   0  0  0  0  0  0  0  0  0  0  0  0
   58.8050   27.4030   46.2350 C   0  0  0  0  0  0  0  0  0  0  0  0
   58.6640   26.1360   46.8170 C   0  0  0  0  0  0  0  0  0  0  0  0
   57.4230   25.4990   46.8020 C   0  0  0  0  0  0  0  0  0  0  0  0
   56.3310   26.1340   46.2060 C   0  0  0  0  0  0  0  0  0  0  0  0
   56.4800   27.3630   45.6450 N   0  0  0  0  0  0  0  0  0  0  0  0
   57.6770   28.0150   45.6400 C   0  0  0  0  0  0  0  0  0  0  0  0
   56.7722   32.6865   47.2558 H   0  0  0  0  0  0  0  0  0  0  0  0
   58.5795   34.2845   47.8822 H   0  0  0  0  0  0  0  0  0  0  0  0
   60.1542   35.1365   46.1433 H   0  0  0  0  0  0  0  0  0  0  0  0
   59.9246   34.3852   43.7783 H   0  0  0  0  0  0  0  0  0  0  0  0
   59.1464   30.9300   44.6000 H   0  0  0  0  0  0  0  0  0  0  0  0
   61.1255   29.8449   45.6527 H   0  0  0  0  0  0  0  0  0  0  0  0
   60.9183   27.5907   46.6982 H   0  0  0  0  0  0  0  0  0  0  0  0
   59.5300   25.6448   47.2847 H   0  0  0  0  0  0  0  0  0  0  0  0
   57.3053   24.5041   47.2561 H   0  0  0  0  0  0  0  0  0  0  0  0
   55.3489   25.6387   46.1906 H   0  0  0  0  0  0  0  0  0  0  0  0
  1  2  2  0
  2  3  2  0
  2  4  1  0
  4  5  1  0
  5  6  2  0
  6  7  1  0
  7  8  2  0
  8  9  1  0
  9 10  2  0
 10 11  1  0
  2 12  1  0
 12 13  2  0
 13 14  1  0
 14 15  2  0
 15 16  1  0
 16 17  2  0
 17 18  1  0
 18 19  2  0
 19 20  1  0
 20 21  2  0
 10  5  1  0
 21 12  1  0
 21 16  1  0
  6 22  1  0
  7 23  1  0
  8 24  1  0
  9 25  1  0
 13 26  1  0
 14 27  1  0
 15 28  1  0
 17 29  1  0
 18 30  1  0
 19 31  1  0
M  CHG  1   4  -1
M  END
>  <UniqueID>  (42) 
38

>  <SMILES>  (42) 
O=S(=O)([N-]c1ccccc1F)c1cccc2cccnc12

>  <Energy>  (42) 
44.80053181140524

>  <Genealogy>  (42) 
O=S(=O)([N-]c1ccccc1F)c1cccc2cccnc12 (protonated)
O=S(=O)([N-]c1ccccc1F)c1cccc2cccnc12 (3D coordinates assigned)
O=S(=O)([N-]c1ccccc1F)c1cccc2cccnc12 (optimized conformer: 44.80053181140524 kcal/mol)

>  <smiles>  (42) 
O=S(=O)(Nc1ccccc1F)c1cccc2cccnc12

>  <score_type>  (42) 
oracle

>  <origin>  (42) 
adg

>  <m_score__min__energy>  (42) 
-9.5700000000000003

>  <m_primary>  (42) 
energy

$$$$
42:0
     RDKit          3D

 50 53  0  0  0  0  0  0  0  0999 V2000
   57.9980   33.1010   44.4660 C   0  0  0  0  0  0  0  0  0  0  0  0
   57.0070   32.1900   45.1740 C   0  0  0  0  0  0  0  0  0  0  0  0
   56.8120   30.9760   44.3880 N   0  0  0  0  0  0  0  0  0  0  0  0
   56.3910   29.7130   44.9200 C   0  0  0  0  0  0  0  0  0  0  0  0
   55.1710   29.4070   44.8590 O   0  0  0  0  0  0  0  0  0  0  0  0
   57.3450   28.7480   45.5040 C   0  0  0  0  0  0  0  0  0  0  0  0
   57.0930   27.3630   45.4990 C   0  0  0  0  0  0  0  0  0  0  0  0
   58.0320   26.4580   46.0630 C   0  0  0  0  0  0  0  0  0  0  0  0
   57.7850   25.0300   46.0970 N   0  0  0  0  0  0  0  0  0  0  0  0
   56.5510   24.4890   46.6830 C   0  0  0  0  0  0  0  0  0  0  0  0
   55.8960   23.4940   45.7100 C   0  0  0  0  0  0  0  0  0  0  0  0
   56.8560   22.5670   45.0510 N   0  0  0  0  0  0  0  0  0  0  0  0
   56.8320   22.7080   43.5850 C   0  0  0  0  0  0  0  0  0  0  0  0
   58.2340   22.6390   45.5840 C   0  0  0  0  0  0  0  0  0  0  0  0
   58.7780   24.0770   45.5790 C   0  0  0  0  0  0  0  0  0  0  0  0
   59.1900   26.9630   46.5850 N   0  0  0  0  0  0  0  0  0  0  0  0
   59.4120   28.2730   46.5550 N   0  0  0  0  0  0  0  0  0  0  0  0
   60.4710   28.9470   47.0130 C   0  0  0  0  0  0  0  0  0  0  0  0
   60.2200   30.2930   46.7570 C   0  0  0  0  0  0  0  0  0  0  0  0
   61.1040   31.4390   47.0820 C   0  0  0  0  0  0  0  0  0  0  0  0
   60.6070   32.7540   47.0010 C   0  0  0  0  0  0  0  0  0  0  0  0
   61.4310   33.8430   47.3010 C   0  0  0  0  0  0  0  0  0  0  0  0
   62.7570   33.6350   47.6840 C   0  0  0  0  0  0  0  0  0  0  0  0
   63.2620   32.3360   47.7710 C   0  0  0  0  0  0  0  0  0  0  0  0
   62.4440   31.2420   47.4720 C   0  0  0  0  0  0  0  0  0  0  0  0
   59.0120   30.4320   46.1480 N   0  0  0  0  0  0  0  0  0  0  0  0
   58.5600   29.1650   46.0450 C   0  0  0  0  0  0  0  0  0  0  0  0
   58.5923   33.6473   45.2132 H   0  0  0  0  0  0  0  0  0  0  0  0
   58.6670   32.4961   43.8364 H   0  0  0  0  0  0  0  0  0  0  0  0
   57.4514   33.8185   43.8364 H   0  0  0  0  0  0  0  0  0  0  0  0
   57.3984   31.9245   46.1671 H   0  0  0  0  0  0  0  0  0  0  0  0
   56.0452   32.7121   45.2855 H   0  0  0  0  0  0  0  0  0  0  0  0
   56.1627   26.9787   45.0554 H   0  0  0  0  0  0  0  0  0  0  0  0
   56.7910   23.9729   47.6243 H   0  0  0  0  0  0  0  0  0  0  0  0
   55.8520   25.3158   46.8772 H   0  0  0  0  0  0  0  0  0  0  0  0
   55.1650   22.8930   46.2707 H   0  0  0  0  0  0  0  0  0  0  0  0
   55.4319   24.0907   44.9109 H   0  0  0  0  0  0  0  0  0  0  0  0
   56.6528   23.7607   43.3208 H   0  0  0  0  0  0  0  0  0  0  0  0
   57.7980   22.3850   43.1697 H   0  0  0  0  0  0  0  0  0  0  0  0
   56.0272   22.0836   43.1697 H   0  0  0  0  0  0  0  0  0  0  0  0
   58.2354   22.2622   46.6174 H   0  0  0  0  0  0  0  0  0  0  0  0
   58.8812   22.0282   44.9374 H   0  0  0  0  0  0  0  0  0  0  0  0
   59.6784   24.1208   46.2093 H   0  0  0  0  0  0  0  0  0  0  0  0
   59.0134   24.3536   44.5407 H   0  0  0  0  0  0  0  0  0  0  0  0
   61.3637   28.5231   47.4962 H   0  0  0  0  0  0  0  0  0  0  0  0
   59.5631   32.9257   46.6996 H   0  0  0  0  0  0  0  0  0  0  0  0
   61.0332   34.8664   47.2350 H   0  0  0  0  0  0  0  0  0  0  0  0
   63.4037   34.4937   47.9171 H   0  0  0  0  0  0  0  0  0  0  0  0
   64.3063   32.1729   48.0756 H   0  0  0  0  0  0  0  0  0  0  0  0
   62.8488   30.2215   47.5416 H   0  0  0  0  0  0  0  0  0  0  0  0
  1  2  1  0
  2  3  1  0
  3  4  1  0
  4  5  2  0
  4  6  1  0
  6  7  2  0
  7  8  1  0
  8  9  1  0
  9 10  1  0
 10 11  1  0
 11 12  1  0
 12 13  1  0
 12 14  1  0
 14 15  1  0
  8 16  2  0
 16 17  1  0
 17 18  1  0
 18 19  2  0
 19 20  1  0
 20 21  2  0
 21 22  1  0
 22 23  2  0
 23 24  1  0
 24 25  2  0
 19 26  1  0
 26 27  2  0
 27  6  1  0
 15  9  1  0
 27 17  1  0
 25 20  1  0
  1 28  1  0
  1 29  1  0
  1 30  1  0
  2 31  1  0
  2 32  1  0
  7 33  1  0
 10 34  1  0
 10 35  1  0
 11 36  1  0
 11 37  1  0
 13 38  1  0
 13 39  1  0
 13 40  1  0
 14 41  1  0
 14 42  1  0
 15 43  1  0
 15 44  1  0
 18 45  1  0
 21 46  1  0
 22 47  1  0
 23 48  1  0
 24 49  1  0
 25 50  1  0
M  CHG  1   3  -1
M  END
>  <UniqueID>  (43) 
39

>  <SMILES>  (43) 
CC[N-]C(=O)c1cc(N2CCN(C)CC2)nn2cc(-c3ccccc3)nc12

>  <Energy>  (43) 
100.77577861519268

>  <Genealogy>  (43) 
CC[N-]C(=O)c1cc(N2CCN(C)CC2)nn2cc(-c3ccccc3)nc12 (protonated)
CC[N-]C(=O)c1cc(N2CCN(C)CC2)nn2cc(-c3ccccc3)nc12 (3D coordinates assigned)
CC[N-]C(=O)c1cc(N2CCN(C)CC2)nn2cc(-c3ccccc3)nc12 (nonaromatic ring conformer: 100.77577861519268 kcal/mol)

>  <smiles>  (43) 
CCNC(=O)c1cc(N2CCN(C)CC2)nn2cc(-c3ccccc3)nc12

>  <score_type>  (43) 
oracle

>  <origin>  (43) 
adg

>  <m_score__min__energy>  (43) 
-9.25

>  <m_primary>  (43) 
energy

$$$$
43:0
     RDKit          3D

 46 48  0  0  0  0  0  0  0  0999 V2000
   55.1530   29.9920   44.4680 O   0  0  0  0  0  0  0  0  0  0  0  0
   56.5480   29.9460   43.9110 S   0  0  0  0  0  0  0  0  0  0  0  0
   56.5170   30.3750   42.4700 O   0  0  0  0  0  0  0  0  0  0  0  0
   57.1570   28.3220   44.0190 N   0  0  0  0  0  0  0  0  0  0  0  0
   58.6170   28.3450   44.1250 C   0  0  0  0  0  0  0  0  0  0  0  0
   59.0310   27.8250   45.4720 C   0  0  0  0  0  0  0  0  0  0  0  0
   60.1400   28.3780   46.1330 C   0  0  0  0  0  0  0  0  0  0  0  0
   60.5070   27.9150   47.4010 C   0  0  0  0  0  0  0  0  0  0  0  0
   59.7620   26.9080   48.0220 C   0  0  0  0  0  0  0  0  0  0  0  0
   58.6470   26.3660   47.3770 C   0  0  0  0  0  0  0  0  0  0  0  0
   58.2770   26.8250   46.1100 C   0  0  0  0  0  0  0  0  0  0  0  0
   57.5720   31.0310   44.8470 C   0  0  0  0  0  0  0  0  0  0  0  0
   58.0480   32.2230   44.2850 C   0  0  0  0  0  0  0  0  0  0  0  0
   58.8610   33.0770   45.0350 C   0  0  0  0  0  0  0  0  0  0  0  0
   59.2050   32.7480   46.3540 C   0  0  0  0  0  0  0  0  0  0  0  0
   60.2100   33.8320   47.3140 S   0  0  0  0  0  0  0  0  0  0  0  0
   59.3340   34.7500   48.1210 O   0  0  0  0  0  0  0  0  0  0  0  0
   61.0300   34.6720   46.3730 O   0  0  0  0  0  0  0  0  0  0  0  0
   61.2820   32.9200   48.3570 N   0  0  0  0  0  0  0  0  0  0  0  0
   62.3340   33.7680   48.9470 C   0  0  0  0  0  0  0  0  0  0  0  0
   63.4240   34.1530   47.9160 C   0  0  0  0  0  0  0  0  0  0  0  0
   63.4310   33.3280   46.7640 O   0  0  0  0  0  0  0  0  0  0  0  0
   63.2650   31.9770   47.1310 C   0  0  0  0  0  0  0  0  0  0  0  0
   61.8420   31.7370   47.6680 C   0  0  0  0  0  0  0  0  0  0  0  0
   58.7200   31.5620   46.9180 C   0  0  0  0  0  0  0  0  0  0  0  0
   57.9080   30.7060   46.1680 C   0  0  0  0  0  0  0  0  0  0  0  0
   56.9020   27.8410   43.1250 H   0  0  0  0  0  0  0  0  0  0  0  0
   59.0515   27.7110   43.3381 H   0  0  0  0  0  0  0  0  0  0  0  0
   58.9765   29.3777   44.0050 H   0  0  0  0  0  0  0  0  0  0  0  0
   60.7220   29.1779   45.6520 H   0  0  0  0  0  0  0  0  0  0  0  0
   61.3828   28.3437   47.9101 H   0  0  0  0  0  0  0  0  0  0  0  0
   60.0533   26.5425   49.0178 H   0  0  0  0  0  0  0  0  0  0  0  0
   58.0592   25.5763   47.8678 H   0  0  0  0  0  0  0  0  0  0  0  0
   57.3928   26.4023   45.6104 H   0  0  0  0  0  0  0  0  0  0  0  0
   57.7811   32.4871   43.2511 H   0  0  0  0  0  0  0  0  0  0  0  0
   59.2327   34.0112   44.5888 H   0  0  0  0  0  0  0  0  0  0  0  0
   61.8716   34.6882   49.3335 H   0  0  0  0  0  0  0  0  0  0  0  0
   62.8181   33.1941   49.7509 H   0  0  0  0  0  0  0  0  0  0  0  0
   63.2513   35.1920   47.5988 H   0  0  0  0  0  0  0  0  0  0  0  0
   64.3974   34.0236   48.4117 H   0  0  0  0  0  0  0  0  0  0  0  0
   63.4324   31.3392   46.2506 H   0  0  0  0  0  0  0  0  0  0  0  0
   63.9903   31.7302   47.9203 H   0  0  0  0  0  0  0  0  0  0  0  0
   61.1864   31.4793   46.8231 H   0  0  0  0  0  0  0  0  0  0  0  0
   61.8990   30.9214   48.4039 H   0  0  0  0  0  0  0  0  0  0  0  0
   58.9788   31.3026   47.9552 H   0  0  0  0  0  0  0  0  0  0  0  0
   57.5318   29.7746   46.6162 H   0  0  0  0  0  0  0  0  0  0  0  0
  1  2  2  0
  2  3  2  0
  2  4  1  0
  4  5  1  0
  5  6  1  0
  6  7  2  0
  7  8  1  0
  8  9  2  0
  9 10  1  0
 10 11  2  0
  2 12  1  0
 12 13  2  0
 13 14  1  0
 14 15  2  0
 15 16  1  0
 16 17  2  0
 16 18  2  0
 16 19  1  0
 19 20  1  0
 20 21  1  0
 21 22  1  0
 22 23  1  0
 23 24  1  0
 15 25  1  0
 25 26  2  0
 11  6  1  0
 26 12  1  0
 24 19  1  0
  4 27  1  0
  5 28  1  0
  5 29  1  0
  7 30  1  0
  8 31  1  0
  9 32  1  0
 10 33  1  0
 11 34  1  0
 13 35  1  0
 14 36  1  0
 20 37  1  0
 20 38  1  0
 21 39  1  0
 21 40  1  0
 23 41  1  0
 23 42  1  0
 24 43  1  0
 24 44  1  0
 25 45  1  0
 26 46  1  0
M  END
>  <UniqueID>  (44) 
40

>  <SMILES>  (44) 
O=S(=O)(NCc1ccccc1)c1ccc(S(=O)(=O)N2CCOCC2)cc1

>  <Energy>  (44) 
54.89398973311475

>  <Genealogy>  (44) 
O=S(=O)(NCc1ccccc1)c1ccc(S(=O)(=O)N2CCOCC2)cc1 (3D coordinates assigned)
O=S(=O)(NCc1ccccc1)c1ccc(S(=O)(=O)N2CCOCC2)cc1 (nonaromatic ring conformer: 54.89398973311475 kcal/mol)

>  <smiles>  (44) 
O=S(=O)(NCc1ccccc1)c1ccc(S(=O)(=O)N2CCOCC2)cc1

>  <score_type>  (44) 
oracle

>  <origin>  (44) 
adg

>  <m_score__min__energy>  (44) 
-9.2599999999999998

>  <m_primary>  (44) 
energy

$$$$
44:0
     RDKit          3D

 38 40  0  0  0  0  0  0  0  0999 V2000
   58.2939   32.0725   45.5898 H   0  0  0  0  0  0  0  0  0  0  0  0
   58.3510   31.0220   45.9110 C   0  0  0  0  0  0  0  0  0  0  0  0
   57.3670   30.1530   45.5580 N   0  0  0  0  0  0  0  0  0  0  0  0
   57.3930   28.8430   45.9180 C   0  0  0  0  0  0  0  0  0  0  0  0
   56.2930   28.0000   45.5470 N   0  0  0  0  0  0  0  0  0  0  0  0
   56.2450   26.7030   45.6360 C   0  0  0  0  0  0  0  0  0  0  0  0
   55.1200   26.0510   45.9940 N   0  0  0  0  0  0  0  0  0  0  0  0
   55.2890   24.7010   45.9710 C   0  0  0  0  0  0  0  0  0  0  0  0
   54.4843   24.0013   46.2408 H   0  0  0  0  0  0  0  0  0  0  0  0
   56.5520   24.2700   45.5820 C   0  0  0  0  0  0  0  0  0  0  0  0
   56.8812   23.2234   45.5031 H   0  0  0  0  0  0  0  0  0  0  0  0
   57.4890   25.6270   45.2530 S   0  0  0  0  0  0  0  0  0  0  0  0
   58.4430   28.3730   46.7220 C   0  0  0  0  0  0  0  0  0  0  0  0
   58.4574   27.3254   47.0573 H   0  0  0  0  0  0  0  0  0  0  0  0
   59.4680   29.2430   47.0930 C   0  0  0  0  0  0  0  0  0  0  0  0
   60.3018   28.8752   47.7091 H   0  0  0  0  0  0  0  0  0  0  0  0
   59.4410   30.5860   46.6840 C   0  0  0  0  0  0  0  0  0  0  0  0
   60.4940   31.5000   47.0640 N   0  0  0  0  0  0  0  0  0  0  0  0
   61.6540   31.0300   47.8340 C   0  0  0  0  0  0  0  0  0  0  0  0
   61.8480   29.9744   47.5932 H   0  0  0  0  0  0  0  0  0  0  0  0
   61.4413   31.1338   48.9082 H   0  0  0  0  0  0  0  0  0  0  0  0
   62.8910   31.8680   47.4810 C   0  0  0  0  0  0  0  0  0  0  0  0
   63.1547   31.6755   46.4305 H   0  0  0  0  0  0  0  0  0  0  0  0
   63.6936   31.5701   48.1717 H   0  0  0  0  0  0  0  0  0  0  0  0
   62.6810   33.3340   47.6550 N   0  0  0  0  0  0  0  0  0  0  0  0
   63.1120   33.8060   46.8230 H   0  0  0  0  0  0  0  0  0  0  0  0
   63.3640   33.8150   48.8400 C   0  0  0  0  0  0  0  0  0  0  0  0
   62.9520   34.8050   49.4310 O   0  0  0  0  0  0  0  0  0  0  0  0
   64.5760   33.1010   49.3640 C   0  0  0  0  0  0  0  0  0  0  0  0
   64.5601   33.1104   50.4638 H   0  0  0  0  0  0  0  0  0  0  0  0
   64.5721   32.0609   49.0061 H   0  0  0  0  0  0  0  0  0  0  0  0
   65.4839   33.6086   49.0061 H   0  0  0  0  0  0  0  0  0  0  0  0
   61.2580   33.7550   47.6930 C   0  0  0  0  0  0  0  0  0  0  0  0
   61.1927   34.8149   47.4059 H   0  0  0  0  0  0  0  0  0  0  0  0
   60.8826   33.5977   48.7149 H   0  0  0  0  0  0  0  0  0  0  0  0
   60.3930   32.9280   46.7360 C   0  0  0  0  0  0  0  0  0  0  0  0
   60.7380   33.0887   45.7040 H   0  0  0  0  0  0  0  0  0  0  0  0
   59.3445   33.2452   46.8360 H   0  0  0  0  0  0  0  0  0  0  0  0
  1  2  1  0
  2  3  2  0
  3  4  1  0
  4  5  1  0
  5  6  2  0
  6  7  1  0
  7  8  1  0
  8  9  1  0
  8 10  2  0
 10 11  1  0
 10 12  1  0
  4 13  2  0
 13 14  1  0
 13 15  1  0
 15 16  1  0
 15 17  2  0
 17 18  1  0
 18 19  1  0
 19 20  1  0
 19 21  1  0
 19 22  1  0
 22 23  1  0
 22 24  1  0
 22 25  1  0
 25 26  1  0
 25 27  1  0
 27 28  2  0
 27 29  1  0
 29 30  1  0
 29 31  1  0
 29 32  1  0
 25 33  1  0
 33 34  1  0
 33 35  1  0
 33 36  1  0
 36 37  1  0
 36 38  1  0
 17  2  1  0
 36 18  1  0
 12  6  1  0
M  CHG  2   7  -1  25   1
M  END
>  <UniqueID>  (45) 
41

>  <SMILES>  (45) 
CC(=O)[NH+]1CCN(c2ccc(/N=c3/[n-]ccs3)nc2)CC1

>  <Energy>  (45) 
86.80071430393338

>  <Genealogy>  (45) 
CC(=O)[NH+]1CCN(c2ccc(N=c3[n-]ccs3)nc2)CC1 (protonated)
CC(=O)[NH+]1CCN(c2ccc(/N=c3/[n-]ccs3)nc2)CC1 (cis-trans isomerization)
CC(=O)[NH+]1CCN(c2ccc(/N=c3/[n-]ccs3)nc2)CC1 (3D coordinates assigned)
CC(=O)[NH+]1CCN(c2ccc(/N=c3/[n-]ccs3)nc2)CC1 (nonaromatic ring conformer: 86.80071430393338 kcal/mol)

>  <smiles>  (45) 
CC(=O)N1CCN(c2ccc(N=c3[nH]ccs3)nc2)CC1

>  <score_type>  (45) 
oracle

>  <origin>  (45) 
adg

>  <m_score__min__energy>  (45) 
-6.9699999999999998

>  <m_primary>  (45) 
energy

$$$$
45:0
     RDKit          3D

 47 49  0  0  0  0  0  0  0  0999 V2000
   55.9760   30.0690   43.6000 C   0  0  0  0  0  0  0  0  0  0  0  0
   55.6210   29.4280   44.8620 N   0  0  0  0  0  0  0  0  0  0  0  0
   56.8100   28.2270   45.2640 S   0  0  0  0  0  0  0  0  0  0  0  0
   56.1400   27.0750   45.9580 O   0  0  0  0  0  0  0  0  0  0  0  0
   57.4430   27.7180   43.9970 O   0  0  0  0  0  0  0  0  0  0  0  0
   58.0500   28.9070   46.3280 C   0  0  0  0  0  0  0  0  0  0  0  0
   58.1510   30.3000   46.4590 C   0  0  0  0  0  0  0  0  0  0  0  0
   59.0780   30.8520   47.2870 N   0  0  0  0  0  0  0  0  0  0  0  0
   59.9340   30.0820   48.0090 C   0  0  0  0  0  0  0  0  0  0  0  0
   59.8790   28.6920   47.9100 C   0  0  0  0  0  0  0  0  0  0  0  0
   58.9370   28.0900   47.0640 C   0  0  0  0  0  0  0  0  0  0  0  0
   58.9080   26.6570   46.9600 N   0  0  0  0  0  0  0  0  0  0  0  0
   59.6790   26.0000   45.8940 C   0  0  0  0  0  0  0  0  0  0  0  0
   59.5240   24.4770   45.9530 C   0  0  0  0  0  0  0  0  0  0  0  0
   58.1040   24.1200   46.0740 N   0  0  0  0  0  0  0  0  0  0  0  0
   57.5760   22.9960   45.3480 C   0  0  0  0  0  0  0  0  0  0  0  0
   57.3960   23.0880   43.9570 C   0  0  0  0  0  0  0  0  0  0  0  0
   56.8940   22.0040   43.2350 C   0  0  0  0  0  0  0  0  0  0  0  0
   56.5630   20.8200   43.8910 C   0  0  0  0  0  0  0  0  0  0  0  0
   56.7300   20.7130   45.2730 C   0  0  0  0  0  0  0  0  0  0  0  0
   57.2320   21.8010   46.0170 C   0  0  0  0  0  0  0  0  0  0  0  0
   57.3840   21.7350   47.4110 O   0  0  0  0  0  0  0  0  0  0  0  0
   56.3080   21.6320   48.3380 C   0  0  0  0  0  0  0  0  0  0  0  0
   57.2230   24.8690   46.9820 C   0  0  0  0  0  0  0  0  0  0  0  0
   58.0130   25.8770   47.8220 C   0  0  0  0  0  0  0  0  0  0  0  0
   56.4997   31.0146   43.8037 H   0  0  0  0  0  0  0  0  0  0  0  0
   56.6336   29.4026   43.0225 H   0  0  0  0  0  0  0  0  0  0  0  0
   55.0622   30.2729   43.0225 H   0  0  0  0  0  0  0  0  0  0  0  0
   57.4743   30.9517   45.8869 H   0  0  0  0  0  0  0  0  0  0  0  0
   59.1340   31.8920   47.3700 H   0  0  0  0  0  0  0  0  0  0  0  0
   60.6718   30.5561   48.6729 H   0  0  0  0  0  0  0  0  0  0  0  0
   60.5729   28.0696   48.4941 H   0  0  0  0  0  0  0  0  0  0  0  0
   59.3197   26.3593   44.9184 H   0  0  0  0  0  0  0  0  0  0  0  0
   60.7421   26.2465   46.0319 H   0  0  0  0  0  0  0  0  0  0  0  0
   59.9339   24.0334   45.0337 H   0  0  0  0  0  0  0  0  0  0  0  0
   60.0684   24.0926   46.8281 H   0  0  0  0  0  0  0  0  0  0  0  0
   57.6526   24.0209   43.4337 H   0  0  0  0  0  0  0  0  0  0  0  0
   56.7594   22.0845   42.1462 H   0  0  0  0  0  0  0  0  0  0  0  0
   56.1691   19.9674   43.3185 H   0  0  0  0  0  0  0  0  0  0  0  0
   56.4686   19.7749   45.7845 H   0  0  0  0  0  0  0  0  0  0  0  0
   56.7030   21.6698   49.3639 H   0  0  0  0  0  0  0  0  0  0  0  0
   55.6093   22.4674   48.1831 H   0  0  0  0  0  0  0  0  0  0  0  0
   55.7805   20.6793   48.1831 H   0  0  0  0  0  0  0  0  0  0  0  0
   56.4721   25.4095   46.3870 H   0  0  0  0  0  0  0  0  0  0  0  0
   56.7398   24.1536   47.6637 H   0  0  0  0  0  0  0  0  0  0  0  0
   57.3125   26.5566   48.3294 H   0  0  0  0  0  0  0  0  0  0  0  0
   58.6126   25.3341   48.5675 H   0  0  0  0  0  0  0  0  0  0  0  0
  1  2  1  0
  2  3  1  0
  3  4  2  0
  3  5  2  0
  3  6  1  0
  6  7  2  0
  7  8  1  0
  8  9  2  0
  9 10  1  0
 10 11  2  0
 11 12  1  0
 12 13  1  0
 13 14  1  0
 14 15  1  0
 15 16  1  0
 16 17  2  0
 17 18  1  0
 18 19  2  0
 19 20  1  0
 20 21  2  0
 21 22  1  0
 22 23  1  0
 15 24  1  0
 24 25  1  0
 11  6  1  0
 25 12  1  0
 21 16  1  0
  1 26  1  0
  1 27  1  0
  1 28  1  0
  7 29  1  0
  8 30  1  0
  9 31  1  0
 10 32  1  0
 13 33  1  0
 13 34  1  0
 14 35  1  0
 14 36  1  0
 17 37  1  0
 18 38  1  0
 19 39  1  0
 20 40  1  0
 23 41  1  0
 23 42  1  0
 23 43  1  0
 24 44  1  0
 24 45  1  0
 25 46  1  0
 25 47  1  0
M  CHG  2   2  -1   8   1
M  END
>  <UniqueID>  (46) 
42

>  <SMILES>  (46) 
C[N-]S(=O)(=O)c1c[nH+]ccc1N1CCN(c2ccccc2OC)CC1

>  <Energy>  (46) 
55.61321465444944

>  <Genealogy>  (46) 
C[N-]S(=O)(=O)c1c[nH+]ccc1N1CCN(c2ccccc2OC)CC1 (protonated)
C[N-]S(=O)(=O)c1c[nH+]ccc1N1CCN(c2ccccc2OC)CC1 (3D coordinates assigned)
C[N-]S(=O)(=O)c1c[nH+]ccc1N1CCN(c2ccccc2OC)CC1 (nonaromatic ring conformer: 55.61321465444944 kcal/mol)

>  <smiles>  (46) 
CNS(=O)(=O)c1cnccc1N1CCN(c2ccccc2OC)CC1

>  <score_type>  (46) 
oracle

>  <origin>  (46) 
adg

>  <m_score__min__energy>  (46) 
-7.7999999999999998

>  <m_primary>  (46) 
energy

$$$$
46:0
     RDKit          3D

 33 36  0  0  0  0  0  0  0  0999 V2000
   65.4860   32.9433   48.6361 H   0  0  0  0  0  0  0  0  0  0  0  0
   64.3960   33.0910   48.6300 C   0  0  0  0  0  0  0  0  0  0  0  0
   63.7410   33.4260   47.4260 C   0  0  0  0  0  0  0  0  0  0  0  0
   64.3220   33.5220   46.4969 H   0  0  0  0  0  0  0  0  0  0  0  0
   62.3510   33.6380   47.4050 C   0  0  0  0  0  0  0  0  0  0  0  0
   61.8320   33.8783   46.4653 H   0  0  0  0  0  0  0  0  0  0  0  0
   61.6440   33.5360   48.6080 C   0  0  0  0  0  0  0  0  0  0  0  0
   62.2890   33.1520   49.7720 C   0  0  0  0  0  0  0  0  0  0  0  0
   63.6660   32.9450   49.8200 C   0  0  0  0  0  0  0  0  0  0  0  0
   64.1660   32.6753   50.7620 H   0  0  0  0  0  0  0  0  0  0  0  0
   61.2750   33.0230   50.8080 C   0  0  0  0  0  0  0  0  0  0  0  0
   61.4120   33.3350   52.0470 N   0  0  0  0  0  0  0  0  0  0  0  0
   62.3290   33.4650   52.5290 H   0  0  0  0  0  0  0  0  0  0  0  0
   60.1250   33.7970   52.5650 C   0  0  0  0  0  0  0  0  0  0  0  0
   59.7225   33.0811   53.2967 H   0  0  0  0  0  0  0  0  0  0  0  0
   60.2097   34.7624   53.0853 H   0  0  0  0  0  0  0  0  0  0  0  0
   59.2060   33.8820   51.3240 C   0  0  0  0  0  0  0  0  0  0  0  0
   58.2638   33.3403   51.4937 H   0  0  0  0  0  0  0  0  0  0  0  0
   58.9147   34.9129   51.0742 H   0  0  0  0  0  0  0  0  0  0  0  0
   59.9920   33.2450   50.2810 N   0  0  0  0  0  0  0  0  0  0  0  0
   60.2070   33.6780   48.9370 C   0  0  0  0  0  0  0  0  0  0  0  0
   59.2570   34.2000   48.2140 N   0  0  0  0  0  0  0  0  0  0  0  0
   58.8510   33.7740   46.9100 C   0  0  0  0  0  0  0  0  0  0  0  0
   58.1460   32.5720   46.7350 C   0  0  0  0  0  0  0  0  0  0  0  0
   57.8614   31.9705   47.6109 H   0  0  0  0  0  0  0  0  0  0  0  0
   57.8050   32.1380   45.4510 C   0  0  0  0  0  0  0  0  0  0  0  0
   57.2343   31.2069   45.3191 H   0  0  0  0  0  0  0  0  0  0  0  0
   58.1890   32.8870   44.3330 C   0  0  0  0  0  0  0  0  0  0  0  0
   57.7620   32.3430   42.7210 Cl  0  0  0  0  0  0  0  0  0  0  0  0
   58.9230   34.0660   44.5030 C   0  0  0  0  0  0  0  0  0  0  0  0
   59.2316   34.6519   43.6246 H   0  0  0  0  0  0  0  0  0  0  0  0
   59.2650   34.5010   45.7870 C   0  0  0  0  0  0  0  0  0  0  0  0
   59.8608   35.4167   45.9154 H   0  0  0  0  0  0  0  0  0  0  0  0
  1  2  1  0
  2  3  2  0
  3  4  1  0
  3  5  1  0
  5  6  1  0
  5  7  2  0
  7  8  1  0
  8  9  2  0
  9 10  1  0
  8 11  1  0
 11 12  2  0
 12 13  1  0
 12 14  1  0
 14 15  1  0
 14 16  1  0
 14 17  1  0
 17 18  1  0
 17 19  1  0
 17 20  1  0
 20 21  1  0
 21 22  2  0
 22 23  1  0
 23 24  2  0
 24 25  1  0
 24 26  1  0
 26 27  1  0
 26 28  2  0
 28 29  1  0
 28 30  1  0
 30 31  1  0
 30 32  2  0
 32 33  1  0
  9  2  1  0
 20 11  1  0
 32 23  1  0
 21  7  1  0
M  CHG  1  12   1
M  END
>  <UniqueID>  (47) 
43

>  <SMILES>  (47) 
Clc1ccc(/N=C2\c3ccccc3C3=[NH+]CCN32)cc1

>  <Energy>  (47) 
103.4370280979216

>  <Genealogy>  (47) 
Clc1ccc(N=C2c3ccccc3C3=[NH+]CCN23)cc1 (protonated)
Clc1ccc(/N=C2\c3ccccc3C3=[NH+]CCN32)cc1 (cis-trans isomerization)
Clc1ccc(/N=C2\c3ccccc3C3=[NH+]CCN32)cc1 (3D coordinates assigned)
Clc1ccc(/N=C2\c3ccccc3C3=[NH+]CCN32)cc1 (nonaromatic ring conformer: 103.4370280979216 kcal/mol)

>  <smiles>  (47) 
Clc1ccc(N=C2c3ccccc3C3=NCCN32)cc1

>  <score_type>  (47) 
oracle

>  <origin>  (47) 
adg

>  <m_score__min__energy>  (47) 
-5.7999999999999998

>  <m_primary>  (47) 
energy

$$$$
47:0
     RDKit          3D

 53 56  0  0  0  0  0  0  0  0999 V2000
   57.6955   29.7591   54.3575 H   0  0  0  0  0  0  0  0  0  0  0  0
   57.0820   29.8270   53.4470 C   0  0  0  0  0  0  0  0  0  0  0  0
   57.6990   30.4380   52.2550 C   0  0  0  0  0  0  0  0  0  0  0  0
   57.7730   29.7540   51.2000 O   0  0  0  0  0  0  0  0  0  0  0  0
   58.1790   31.7960   52.2810 N   0  0  0  0  0  0  0  0  0  0  0  0
   58.0230   32.3610   53.1460 H   0  0  0  0  0  0  0  0  0  0  0  0
   58.9990   32.3770   51.2560 C   0  0  0  0  0  0  0  0  0  0  0  0
   60.3380   32.7300   51.5620 C   0  0  0  0  0  0  0  0  0  0  0  0
   60.7316   32.5420   52.5718 H   0  0  0  0  0  0  0  0  0  0  0  0
   61.1690   33.3170   50.5920 C   0  0  0  0  0  0  0  0  0  0  0  0
   62.2118   33.5816   50.8214 H   0  0  0  0  0  0  0  0  0  0  0  0
   60.6280   33.5520   49.3320 C   0  0  0  0  0  0  0  0  0  0  0  0
   61.2330   34.1200   48.2730 N   0  0  0  0  0  0  0  0  0  0  0  0
   60.2540   34.1330   47.3320 C   0  0  0  0  0  0  0  0  0  0  0  0
   60.3947   34.5375   46.3188 H   0  0  0  0  0  0  0  0  0  0  0  0
   59.0860   33.5980   47.7650 N   0  0  0  0  0  0  0  0  0  0  0  0
   57.8240   33.5290   47.0310 C   0  0  0  0  0  0  0  0  0  0  0  0
   57.0027   33.3379   47.7374 H   0  0  0  0  0  0  0  0  0  0  0  0
   57.6580   34.4844   46.5118 H   0  0  0  0  0  0  0  0  0  0  0  0
   57.8740   32.4190   46.0140 C   0  0  0  0  0  0  0  0  0  0  0  0
   57.4470   32.6370   44.6940 C   0  0  0  0  0  0  0  0  0  0  0  0
   57.0482   33.6198   44.4023 H   0  0  0  0  0  0  0  0  0  0  0  0
   57.5270   31.6090   43.7490 C   0  0  0  0  0  0  0  0  0  0  0  0
   57.1925   31.7853   42.7160 H   0  0  0  0  0  0  0  0  0  0  0  0
   58.0310   30.3590   44.1150 C   0  0  0  0  0  0  0  0  0  0  0  0
   58.0944   29.5521   43.3701 H   0  0  0  0  0  0  0  0  0  0  0  0
   58.4550   30.1330   45.4280 C   0  0  0  0  0  0  0  0  0  0  0  0
   58.8494   29.1474   45.7163 H   0  0  0  0  0  0  0  0  0  0  0  0
   58.3780   31.1590   46.3750 C   0  0  0  0  0  0  0  0  0  0  0  0
   58.7136   30.9784   47.4069 H   0  0  0  0  0  0  0  0  0  0  0  0
   59.3360   33.2370   49.0340 C   0  0  0  0  0  0  0  0  0  0  0  0
   58.4810   32.6510   49.9690 C   0  0  0  0  0  0  0  0  0  0  0  0
   57.4386   32.4103   49.7131 H   0  0  0  0  0  0  0  0  0  0  0  0
   55.8290   29.3470   53.5070 C   0  0  0  0  0  0  0  0  0  0  0  0
   55.6820   28.3781   54.0065 H   0  0  0  0  0  0  0  0  0  0  0  0
   54.6300   30.0170   52.9550 C   0  0  0  0  0  0  0  0  0  0  0  0
   53.4580   30.1710   53.7160 C   0  0  0  0  0  0  0  0  0  0  0  0
   53.4187   29.7831   54.7446 H   0  0  0  0  0  0  0  0  0  0  0  0
   52.3430   30.8140   53.1730 C   0  0  0  0  0  0  0  0  0  0  0  0
   51.4421   30.9571   53.7877 H   0  0  0  0  0  0  0  0  0  0  0  0
   52.3640   31.2790   51.8480 C   0  0  0  0  0  0  0  0  0  0  0  0
   51.1940   31.9710   51.2610 C   0  0  0  0  0  0  0  0  0  0  0  0
   51.0320   31.9610   50.0120 O   0  0  0  0  0  0  0  0  0  0  0  0
   50.2190   32.6330   52.0750 N   0  0  0  0  0  0  0  0  0  0  0  0
   50.2910   33.9560   52.3770 O   0  0  0  0  0  0  0  0  0  0  0  0
   50.2360   34.0460   53.7760 C   0  0  0  0  0  0  0  0  0  0  0  0
   50.7609   33.1871   54.2196 H   0  0  0  0  0  0  0  0  0  0  0  0
   50.7184   34.9791   54.1026 H   0  0  0  0  0  0  0  0  0  0  0  0
   49.1856   34.0424   54.1026 H   0  0  0  0  0  0  0  0  0  0  0  0
   53.5290   31.1060   51.0840 C   0  0  0  0  0  0  0  0  0  0  0  0
   53.5623   31.4754   50.0484 H   0  0  0  0  0  0  0  0  0  0  0  0
   54.6470   30.4680   51.6290 C   0  0  0  0  0  0  0  0  0  0  0  0
   55.5458   30.3192   51.0126 H   0  0  0  0  0  0  0  0  0  0  0  0
  1  2  1  0
  2  3  1  0
  3  4  2  0
  3  5  1  0
  5  6  1  0
  5  7  1  0
  7  8  2  0
  8  9  1  0
  8 10  1  0
 10 11  1  0
 10 12  2  0
 12 13  1  0
 13 14  2  0
 14 15  1  0
 14 16  1  0
 16 17  1  0
 17 18  1  0
 17 19  1  0
 17 20  1  0
 20 21  2  0
 21 22  1  0
 21 23  1  0
 23 24  1  0
 23 25  2  0
 25 26  1  0
 25 27  1  0
 27 28  1  0
 27 29  2  0
 29 30  1  0
 16 31  1  0
 31 32  2  0
 32 33  1  0
  2 34  2  0
 34 35  1  0
 34 36  1  0
 36 37  2  0
 37 38  1  0
 37 39  1  0
 39 40  1  0
 39 41  2  0
 41 42  1  0
 42 43  2  0
 42 44  1  0
 44 45  1  0
 45 46  1  0
 46 47  1  0
 46 48  1  0
 46 49  1  0
 41 50  1  0
 50 51  1  0
 50 52  2  0
 52 53  1  0
 32  7  1  0
 52 36  1  0
 31 12  1  0
 29 20  1  0
M  CHG  1  44  -1
M  END
>  <UniqueID>  (48) 
44

>  <SMILES>  (48) 
CO[N-]C(=O)c1ccc(/C=C\C(=O)Nc2ccc3ncn(Cc4ccccc4)c3c2)cc1

>  <Energy>  (48) 
106.14086583778882

>  <Genealogy>  (48) 
CO[N-]C(=O)c1ccc(C=CC(=O)Nc2ccc3ncn(Cc4ccccc4)c3c2)cc1 (protonated)
CO[N-]C(=O)c1ccc(/C=C\C(=O)Nc2ccc3ncn(Cc4ccccc4)c3c2)cc1 (cis-trans isomerization)
CO[N-]C(=O)c1ccc(/C=C\C(=O)Nc2ccc3ncn(Cc4ccccc4)c3c2)cc1 (3D coordinates assigned)
CO[N-]C(=O)c1ccc(/C=C\C(=O)Nc2ccc3ncn(Cc4ccccc4)c3c2)cc1 (optimized conformer: 106.14086583778882 kcal/mol)

>  <smiles>  (48) 
CONC(=O)c1ccc(C=CC(=O)Nc2ccc3ncn(Cc4ccccc4)c3c2)cc1

>  <score_type>  (48) 
oracle

>  <origin>  (48) 
adg

>  <m_score__min__energy>  (48) 
-13.09

>  <m_primary>  (48) 
energy

$$$$
48:0
     RDKit          3D

 54 58  0  0  1  0  0  0  0  0999 V2000
   55.1630   29.7250   44.7270 N   0  0  0  0  0  0  0  0  0  0  0  0
   56.3110   29.2490   43.9720 C   0  0  0  0  0  0  0  0  0  0  0  0
   57.2940   28.5670   44.8500 C   0  0  0  0  0  0  0  0  0  0  0  0
   56.8620   27.8110   45.9390 C   0  0  0  0  0  0  0  0  0  0  0  0
   57.7780   27.1790   46.7540 C   0  0  0  0  0  0  0  0  0  0  0  0
   59.1470   27.2940   46.4870 C   0  0  0  0  0  0  0  0  0  0  0  0
   60.0240   26.6110   47.3740 N   0  0  0  0  0  0  0  0  0  0  0  0
   60.4720   27.2790   48.4100 C   0  0  0  0  0  0  0  0  0  0  0  0
   60.7210   26.5620   49.5040 N   0  0  0  0  0  0  0  0  0  0  0  0
   61.1990   27.1730   50.6540 C   0  0  0  0  0  0  0  0  0  0  0  0
   61.4870   26.5740   51.8090 C   0  0  0  0  0  0  0  0  0  0  0  0
   61.9520   27.3990   52.8230 C   0  0  0  0  0  0  0  0  0  0  0  0
   61.9670   29.0860   52.0720 S   0  0  0  0  0  0  0  0  0  0  0  0
   61.3740   28.5150   50.5500 C   0  0  0  0  0  0  0  0  0  0  0  0
   61.1080   29.2400   49.4030 C   0  0  0  0  0  0  0  0  0  0  0  0
   61.3160   30.6660   49.3550 C   0  0  0  0  0  0  0  0  0  0  0  0
   62.3390   31.5280   49.5630 C   0  0  0  0  0  0  0  0  0  0  0  0
   62.1230   32.8490   49.4120 C   0  0  0  0  0  0  0  0  0  0  0  0
   60.9190   33.3050   49.0600 C   0  0  0  0  0  0  0  0  0  0  0  0
   60.2720   34.5760   48.8010 C   0  0  0  0  0  0  0  0  0  0  0  0
   59.9400   34.8740   47.4520 N   0  0  0  0  0  0  0  0  0  0  0  0
   58.5570   34.7150   47.1530 C   0  0  0  0  0  0  0  0  0  0  0  0
   58.2730   33.8310   46.0120 C   0  0  0  0  0  0  0  0  0  0  0  0
   58.7550   33.9640   44.7420 C   0  0  0  0  0  0  0  0  0  0  0  0
   58.4390   33.0820   43.7250 C   0  0  0  0  0  0  0  0  0  0  0  0
   57.6020   32.0330   44.0300 C   0  0  0  0  0  0  0  0  0  0  0  0
   57.1120   31.8720   45.2610 N   0  0  0  0  0  0  0  0  0  0  0  0
   57.4270   32.7380   46.2410 C   0  0  0  0  0  0  0  0  0  0  0  0
   59.8930   31.7980   48.8970 S   0  0  0  0  0  0  0  0  0  0  0  0
   60.6420   28.6030   48.2960 N   0  0  0  0  0  0  0  0  0  0  0  0
   59.5970   28.0400   45.4090 C   0  0  0  0  0  0  0  0  0  0  0  0
   58.6540   28.6710   44.6000 C   0  0  0  0  0  0  0  0  0  0  0  0
   54.7620   28.9640   45.3050 H   0  0  0  0  0  0  0  0  0  0  0  0
   55.3400   30.6160   45.2230 H   0  0  0  0  0  0  0  0  0  0  0  0
   55.9655   28.5408   43.2045 H   0  0  0  0  0  0  0  0  0  0  0  0
   56.8044   30.1168   43.5100 H   0  0  0  0  0  0  0  0  0  0  0  0
   55.7862   27.7182   46.1491 H   0  0  0  0  0  0  0  0  0  0  0  0
   57.4327   26.5851   47.6131 H   0  0  0  0  0  0  0  0  0  0  0  0
   61.3634   25.4901   51.9501 H   0  0  0  0  0  0  0  0  0  0  0  0
   62.2455   27.1128   53.8438 H   0  0  0  0  0  0  0  0  0  0  0  0
   63.3328   31.1548   49.8513 H   0  0  0  0  0  0  0  0  0  0  0  0
   62.9465   33.5585   49.5804 H   0  0  0  0  0  0  0  0  0  0  0  0
   59.3391   34.5969   49.3835 H   0  0  0  0  0  0  0  0  0  0  0  0
   61.0162   35.3351   49.0835 H   0  0  0  0  0  0  0  0  0  0  0  0
   60.4230   35.6770   47.0380 H   0  0  0  0  0  0  0  0  0  0  0  0
   58.0600   34.2983   48.0414 H   0  0  0  0  0  0  0  0  0  0  0  0
   58.1824   35.7113   46.8752 H   0  0  0  0  0  0  0  0  0  0  0  0
   59.4232   34.8086   44.5180 H   0  0  0  0  0  0  0  0  0  0  0  0
   58.8417   33.2139   42.7099 H   0  0  0  0  0  0  0  0  0  0  0  0
   57.3315   31.3130   43.2436 H   0  0  0  0  0  0  0  0  0  0  0  0
   57.0100   32.5841   47.2472 H   0  0  0  0  0  0  0  0  0  0  0  0
   60.4230   29.0900   47.4060 H   0  0  0  0  0  0  0  0  0  0  0  0
   60.6725   28.1317   45.1972 H   0  0  0  0  0  0  0  0  0  0  0  0
   58.9972   29.2667   43.7413 H   0  0  0  0  0  0  0  0  0  0  0  0
  1  2  1  0
  2  3  1  0
  3  4  2  0
  4  5  1  0
  5  6  2  0
  6  7  1  0
  7  8  2  0
  8  9  1  0
  9 10  2  0
 10 11  1  0
 11 12  2  0
 12 13  1  0
 13 14  1  0
 14 15  2  0
 15 16  1  0
 16 17  2  0
 17 18  1  0
 18 19  2  0
 19 20  1  0
 20 21  1  0
 21 22  1  0
 22 23  1  0
 23 24  2  0
 24 25  1  0
 25 26  2  0
 26 27  1  0
 27 28  2  0
 19 29  1  0
 15 30  1  0
  6 31  1  0
 31 32  2  0
 32  3  1  0
 30  8  1  0
 14 10  1  0
 29 16  1  0
 28 23  1  0
  1 33  1  0
  1 34  1  0
  2 35  1  0
  2 36  1  0
  4 37  1  0
  5 38  1  0
 11 39  1  0
 12 40  1  0
 17 41  1  0
 18 42  1  0
 20 43  1  0
 20 44  1  0
 21 45  1  0
 22 46  1  0
 22 47  1  0
 24 48  1  0
 25 49  1  0
 26 50  1  0
 28 51  1  0
 30 52  1  0
 31 53  1  0
 32 54  1  0
M  END
>  <smiles>  (49) 
NCc1ccc(N=c2nc3ccsc3c(-c3ccc(CNCc4cccnc4)s3)[nH]2)cc1

>  <score_type>  (49) 
oracle

>  <origin>  (49) 
adg

>  <m_score__min__energy>  (49) 
-10.41

>  <m_primary>  (49) 
energy

$$$$
49:0
     RDKit          3D

 33 34  0  0  0  0  0  0  0  0999 V2000
   57.3820   32.3380   40.8620 C   0  0  0  0  0  0  0  0  0  0  0  0
   57.4650   31.8030   42.2620 C   0  0  0  0  0  0  0  0  0  0  0  0
   56.8350   30.5950   42.5950 C   0  0  0  0  0  0  0  0  0  0  0  0
   56.8730   30.1230   43.9080 C   0  0  0  0  0  0  0  0  0  0  0  0
   57.5360   30.8520   44.8990 C   0  0  0  0  0  0  0  0  0  0  0  0
   58.1760   32.0630   44.5800 C   0  0  0  0  0  0  0  0  0  0  0  0
   58.8370   32.8490   45.5860 N   0  0  0  0  0  0  0  0  0  0  0  0
   58.3950   34.1480   46.0120 C   0  0  0  0  0  0  0  0  0  0  0  0
   57.2640   34.5870   45.6690 O   0  0  0  0  0  0  0  0  0  0  0  0
   59.2360   34.9510   46.9550 C   0  0  0  0  0  0  0  0  0  0  0  0
   60.3810   34.1610   47.3970 N   0  0  0  0  0  0  0  0  0  0  0  0
   60.3970   33.2960   48.4320 C   0  0  0  0  0  0  0  0  0  0  0  0
   61.6220   32.6640   48.4950 C   0  0  0  0  0  0  0  0  0  0  0  0
   62.3740   33.1770   47.4540 C   0  0  0  0  0  0  0  0  0  0  0  0
   63.7400   32.7330   47.0480 C   0  0  0  0  0  0  0  0  0  0  0  0
   61.5780   34.0820   46.7820 C   0  0  0  0  0  0  0  0  0  0  0  0
   58.1140   32.5430   43.2640 C   0  0  0  0  0  0  0  0  0  0  0  0
   57.2134   33.4245   40.8941 H   0  0  0  0  0  0  0  0  0  0  0  0
   58.3234   32.1285   40.3330 H   0  0  0  0  0  0  0  0  0  0  0  0
   56.5483   31.8531   40.3330 H   0  0  0  0  0  0  0  0  0  0  0  0
   56.3097   30.0182   41.8196 H   0  0  0  0  0  0  0  0  0  0  0  0
   56.3793   29.1738   44.1637 H   0  0  0  0  0  0  0  0  0  0  0  0
   57.5574   30.4770   45.9329 H   0  0  0  0  0  0  0  0  0  0  0  0
   59.6330   32.4140   46.1040 H   0  0  0  0  0  0  0  0  0  0  0  0
   59.5937   35.8567   46.4434 H   0  0  0  0  0  0  0  0  0  0  0  0
   58.6310   35.2317   47.8297 H   0  0  0  0  0  0  0  0  0  0  0  0
   59.5589   33.1207   49.1225 H   0  0  0  0  0  0  0  0  0  0  0  0
   61.9370   31.9049   49.2261 H   0  0  0  0  0  0  0  0  0  0  0  0
   64.3438   32.5367   47.9463 H   0  0  0  0  0  0  0  0  0  0  0  0
   63.6638   31.8134   46.4493 H   0  0  0  0  0  0  0  0  0  0  0  0
   64.2191   33.5217   46.4493 H   0  0  0  0  0  0  0  0  0  0  0  0
   61.8733   34.6489   45.8868 H   0  0  0  0  0  0  0  0  0  0  0  0
   58.5781   33.5084   43.0139 H   0  0  0  0  0  0  0  0  0  0  0  0
  1  2  1  0
  2  3  2  0
  3  4  1  0
  4  5  2  0
  5  6  1  0
  6  7  1  0
  7  8  1  0
  8  9  2  0
  8 10  1  0
 10 11  1  0
 11 12  1  0
 12 13  2  0
 13 14  1  0
 14 15  1  0
 14 16  2  0
  6 17  2  0
 17  2  1  0
 16 11  1  0
  1 18  1  0
  1 19  1  0
  1 20  1  0
  3 21  1  0
  4 22  1  0
  5 23  1  0
  7 24  1  0
 10 25  1  0
 10 26  1  0
 12 27  1  0
 13 28  1  0
 15 29  1  0
 15 30  1  0
 15 31  1  0
 16 32  1  0
 17 33  1  0
M  END
>  <UniqueID>  (50) 
45

>  <SMILES>  (50) 
Cc1cccc(NC(=O)Cn2ccc(C)c2)c1

>  <Energy>  (50) 
57.37087192511801

>  <Genealogy>  (50) 
Cc1cccc(NC(=O)Cn2ccc(C)c2)c1 (3D coordinates assigned)
Cc1cccc(NC(=O)Cn2ccc(C)c2)c1 (optimized conformer: 57.37087192511801 kcal/mol)

>  <smiles>  (50) 
Cc1cccc(NC(=O)Cn2ccc(C)c2)c1

>  <score_type>  (50) 
oracle

>  <origin>  (50) 
adg

>  <m_score__min__energy>  (50) 
-6.5599999999999996

>  <m_primary>  (50) 
energy

$$$$
50:0
     RDKit          3D

 48 52  0  0  0  0  0  0  0  0999 V2000
   55.5910   26.8960   45.8910 O   0  0  0  0  0  0  0  0  0  0  0  0
   56.2880   27.8990   45.5840 C   0  0  0  0  0  0  0  0  0  0  0  0
   55.6640   28.9740   44.8680 N   0  0  0  0  0  0  0  0  0  0  0  0
   56.3390   30.0440   44.1900 C   0  0  0  0  0  0  0  0  0  0  0  0
   56.3440   30.1430   42.7890 C   0  0  0  0  0  0  0  0  0  0  0  0
   57.0080   31.1990   42.1620 C   0  0  0  0  0  0  0  0  0  0  0  0
   57.6900   32.1510   42.9240 C   0  0  0  0  0  0  0  0  0  0  0  0
   57.7290   32.0420   44.3240 C   0  0  0  0  0  0  0  0  0  0  0  0
   58.4550   33.0520   45.1240 C   0  0  0  0  0  0  0  0  0  0  0  0
   59.0550   34.2130   44.6350 C   0  0  0  0  0  0  0  0  0  0  0  0
   59.6220   34.9170   45.6400 N   0  0  0  0  0  0  0  0  0  0  0  0
   59.3940   34.2030   46.7550 C   0  0  0  0  0  0  0  0  0  0  0  0
   59.8140   34.5190   48.0050 N   0  0  0  0  0  0  0  0  0  0  0  0
   59.5360   33.6690   49.0380 C   0  0  0  0  0  0  0  0  0  0  0  0
   58.8300   32.4570   48.8140 C   0  0  0  0  0  0  0  0  0  0  0  0
   58.5470   31.5280   49.9370 C   0  0  0  0  0  0  0  0  0  0  0  0
   59.1610   30.2650   49.9950 C   0  0  0  0  0  0  0  0  0  0  0  0
   58.8790   29.4060   51.0600 C   0  0  0  0  0  0  0  0  0  0  0  0
   58.0150   29.7900   52.0360 N   0  0  0  0  0  0  0  0  0  0  0  0
   57.4040   31.0030   52.0090 C   0  0  0  0  0  0  0  0  0  0  0  0
   57.6580   31.8940   50.9630 C   0  0  0  0  0  0  0  0  0  0  0  0
   58.4070   32.1470   47.5010 C   0  0  0  0  0  0  0  0  0  0  0  0
   58.6940   33.0610   46.4890 C   0  0  0  0  0  0  0  0  0  0  0  0
   57.0440   30.9870   44.9490 C   0  0  0  0  0  0  0  0  0  0  0  0
   57.7320   27.9120   45.9200 C   0  0  0  0  0  0  0  0  0  0  0  0
   58.1450   27.7670   47.2560 C   0  0  0  0  0  0  0  0  0  0  0  0
   59.5050   27.7740   47.5800 C   0  0  0  0  0  0  0  0  0  0  0  0
   60.4650   27.9150   46.5740 C   0  0  0  0  0  0  0  0  0  0  0  0
   60.0650   28.0440   45.2410 C   0  0  0  0  0  0  0  0  0  0  0  0
   58.7060   28.0370   44.9130 C   0  0  0  0  0  0  0  0  0  0  0  0
   55.8232   29.3863   42.1839 H   0  0  0  0  0  0  0  0  0  0  0  0
   56.9942   31.2817   41.0652 H   0  0  0  0  0  0  0  0  0  0  0  0
   58.1986   32.9894   42.4256 H   0  0  0  0  0  0  0  0  0  0  0  0
   59.0652   34.5140   43.5770 H   0  0  0  0  0  0  0  0  0  0  0  0
   60.1390   35.8210   45.5620 H   0  0  0  0  0  0  0  0  0  0  0  0
   60.3520   35.3980   48.1770 H   0  0  0  0  0  0  0  0  0  0  0  0
   59.8631   33.9266   50.0562 H   0  0  0  0  0  0  0  0  0  0  0  0
   59.8606   29.9542   49.2051 H   0  0  0  0  0  0  0  0  0  0  0  0
   59.3574   28.4167   51.1086 H   0  0  0  0  0  0  0  0  0  0  0  0
   56.7076   31.2845   52.8126 H   0  0  0  0  0  0  0  0  0  0  0  0
   57.1648   32.8770   50.9423 H   0  0  0  0  0  0  0  0  0  0  0  0
   57.8678   31.2129   47.2849 H   0  0  0  0  0  0  0  0  0  0  0  0
   57.0613   30.9004   46.0455 H   0  0  0  0  0  0  0  0  0  0  0  0
   57.3940   27.6474   48.0508 H   0  0  0  0  0  0  0  0  0  0  0  0
   59.8201   27.6683   48.6286 H   0  0  0  0  0  0  0  0  0  0  0  0
   61.5345   27.9244   46.8311 H   0  0  0  0  0  0  0  0  0  0  0  0
   60.8206   28.1512   44.4488 H   0  0  0  0  0  0  0  0  0  0  0  0
   58.3967   28.1298   43.8615 H   0  0  0  0  0  0  0  0  0  0  0  0
  1  2  2  0
  2  3  1  0
  3  4  1  0
  4  5  2  0
  5  6  1  0
  6  7  2  0
  7  8  1  0
  8  9  1  0
  9 10  2  0
 10 11  1  0
 11 12  1  0
 12 13  2  0
 13 14  1  0
 14 15  2  0
 15 16  1  0
 16 17  2  0
 17 18  1  0
 18 19  2  0
 19 20  1  0
 20 21  2  0
 15 22  1  0
 22 23  2  0
  8 24  2  0
  2 25  1  0
 25 26  2  0
 26 27  1  0
 27 28  2  0
 28 29  1  0
 29 30  2  0
 24  4  1  0
 30 25  1  0
 23  9  1  0
 23 12  1  0
 21 16  1  0
  5 31  1  0
  6 32  1  0
  7 33  1  0
 10 34  1  0
 11 35  1  0
 13 36  1  0
 14 37  1  0
 17 38  1  0
 18 39  1  0
 20 40  1  0
 21 41  1  0
 22 42  1  0
 24 43  1  0
 26 44  1  0
 27 45  1  0
 28 46  1  0
 29 47  1  0
 30 48  1  0
M  CHG  2   3  -1  13   1
M  END
>  <UniqueID>  (51) 
46

>  <SMILES>  (51) 
O=C([N-]c1cccc(-c2c[nH]c3[nH+]cc(-c4ccncc4)cc23)c1)c1ccccc1

>  <Energy>  (51) 
106.26703206844067

>  <Genealogy>  (51) 
O=C([N-]c1cccc(-c2c[nH]c3[nH+]cc(-c4ccncc4)cc23)c1)c1ccccc1 (protonated)
O=C([N-]c1cccc(-c2c[nH]c3[nH+]cc(-c4ccncc4)cc23)c1)c1ccccc1 (3D coordinates assigned)
O=C([N-]c1cccc(-c2c[nH]c3[nH+]cc(-c4ccncc4)cc23)c1)c1ccccc1 (optimized conformer: 106.26703206844067 kcal/mol)

>  <smiles>  (51) 
O=C(Nc1cccc(-c2c[nH]c3ncc(-c4ccncc4)cc23)c1)c1ccccc1

>  <score_type>  (51) 
oracle

>  <origin>  (51) 
adg

>  <m_score__min__energy>  (51) 
-10.390000000000001

>  <m_primary>  (51) 
energy

$$$$
51:0
     RDKit          3D

 48 51  0  0  0  0  0  0  0  0999 V2000
   59.2630   23.4020   45.5650 C   0  0  0  0  0  0  0  0  0  0  0  0
   58.2010   23.0320   44.5660 C   0  0  0  0  0  0  0  0  0  0  0  0
   58.2190   21.7650   43.9600 C   0  0  0  0  0  0  0  0  0  0  0  0
   57.2410   21.4130   43.0280 C   0  0  0  0  0  0  0  0  0  0  0  0
   56.2410   22.3230   42.6870 C   0  0  0  0  0  0  0  0  0  0  0  0
   56.2070   23.5850   43.2860 C   0  0  0  0  0  0  0  0  0  0  0  0
   57.1730   23.9450   44.2460 C   0  0  0  0  0  0  0  0  0  0  0  0
   57.1710   25.2440   44.8590 N   0  0  0  0  0  0  0  0  0  0  0  0
   56.2290   25.7450   45.8170 C   0  0  0  0  0  0  0  0  0  0  0  0
   56.0050   25.1140   46.8820 O   0  0  0  0  0  0  0  0  0  0  0  0
   55.6160   27.0250   45.6280 N   0  0  0  0  0  0  0  0  0  0  0  0
   56.2990   28.2830   45.5370 C   0  0  0  0  0  0  0  0  0  0  0  0
   55.9030   29.1950   44.5520 C   0  0  0  0  0  0  0  0  0  0  0  0
   56.5530   30.4250   44.4190 C   0  0  0  0  0  0  0  0  0  0  0  0
   57.6280   30.7580   45.2620 C   0  0  0  0  0  0  0  0  0  0  0  0
   58.3290   32.0580   45.1370 C   0  0  0  0  0  0  0  0  0  0  0  0
   59.1760   32.6550   46.0530 C   0  0  0  0  0  0  0  0  0  0  0  0
   59.5630   33.8170   45.5000 N   0  0  0  0  0  0  0  0  0  0  0  0
   60.4010   34.8390   46.1170 C   0  0  0  0  0  0  0  0  0  0  0  0
   61.4810   34.1880   46.9340 C   0  0  0  0  0  0  0  0  0  0  0  0
   61.2520   33.8710   48.2840 C   0  0  0  0  0  0  0  0  0  0  0  0
   62.2440   33.2290   49.0340 C   0  0  0  0  0  0  0  0  0  0  0  0
   63.4620   32.8890   48.4390 C   0  0  0  0  0  0  0  0  0  0  0  0
   63.6900   33.1880   47.0930 C   0  0  0  0  0  0  0  0  0  0  0  0
   62.7020   33.8300   46.3390 C   0  0  0  0  0  0  0  0  0  0  0  0
   58.9770   33.9410   44.3220 N   0  0  0  0  0  0  0  0  0  0  0  0
   58.2240   32.8800   44.0700 N   0  0  0  0  0  0  0  0  0  0  0  0
   58.0420   29.8280   46.2330 C   0  0  0  0  0  0  0  0  0  0  0  0
   57.3900   28.5990   46.3640 C   0  0  0  0  0  0  0  0  0  0  0  0
   58.8715   23.2656   46.5839 H   0  0  0  0  0  0  0  0  0  0  0  0
   60.1426   22.7573   45.4208 H   0  0  0  0  0  0  0  0  0  0  0  0
   59.5516   24.4536   45.4208 H   0  0  0  0  0  0  0  0  0  0  0  0
   59.0088   21.0454   44.2215 H   0  0  0  0  0  0  0  0  0  0  0  0
   57.2593   20.4167   42.5621 H   0  0  0  0  0  0  0  0  0  0  0  0
   55.4774   22.0469   41.9450 H   0  0  0  0  0  0  0  0  0  0  0  0
   55.4210   24.3018   43.0061 H   0  0  0  0  0  0  0  0  0  0  0  0
   55.0727   28.9414   43.8765 H   0  0  0  0  0  0  0  0  0  0  0  0
   56.2213   31.1376   43.6495 H   0  0  0  0  0  0  0  0  0  0  0  0
   59.4728   32.2588   47.0353 H   0  0  0  0  0  0  0  0  0  0  0  0
   60.8601   35.4576   45.3317 H   0  0  0  0  0  0  0  0  0  0  0  0
   59.7814   35.4697   46.7714 H   0  0  0  0  0  0  0  0  0  0  0  0
   60.2905   34.1282   48.7524 H   0  0  0  0  0  0  0  0  0  0  0  0
   62.0648   32.9917   50.0931 H   0  0  0  0  0  0  0  0  0  0  0  0
   64.2414   32.3860   49.0302 H   0  0  0  0  0  0  0  0  0  0  0  0
   64.6484   32.9179   46.6255 H   0  0  0  0  0  0  0  0  0  0  0  0
   62.8817   34.0551   45.2774 H   0  0  0  0  0  0  0  0  0  0  0  0
   58.8864   30.0704   46.8950 H   0  0  0  0  0  0  0  0  0  0  0  0
   57.7326   27.8754   47.1183 H   0  0  0  0  0  0  0  0  0  0  0  0
  1  2  1  0
  2  3  2  0
  3  4  1  0
  4  5  2  0
  5  6  1  0
  6  7  2  0
  7  8  1  0
  8  9  1  0
  9 10  2  0
  9 11  1  0
 11 12  1  0
 12 13  2  0
 13 14  1  0
 14 15  2  0
 15 16  1  0
 16 17  2  0
 17 18  1  0
 18 19  1  0
 19 20  1  0
 20 21  2  0
 21 22  1  0
 22 23  2  0
 23 24  1  0
 24 25  2  0
 18 26  1  0
 26 27  2  0
 15 28  1  0
 28 29  2  0
  7  2  1  0
 29 12  1  0
 27 16  1  0
 25 20  1  0
  1 30  1  0
  1 31  1  0
  1 32  1  0
  3 33  1  0
  4 34  1  0
  5 35  1  0
  6 36  1  0
 13 37  1  0
 14 38  1  0
 17 39  1  0
 19 40  1  0
 19 41  1  0
 21 42  1  0
 22 43  1  0
 23 44  1  0
 24 45  1  0
 25 46  1  0
 28 47  1  0
 29 48  1  0
M  CHG  2   8  -1  11  -1
M  END
>  <UniqueID>  (52) 
47

>  <SMILES>  (52) 
Cc1ccccc1[N-]C(=O)[N-]c1ccc(-c2cn(Cc3ccccc3)nn2)cc1

>  <Energy>  (52) 
93.60695837217649

>  <Genealogy>  (52) 
Cc1ccccc1[N-]C(=O)[N-]c1ccc(-c2cn(Cc3ccccc3)nn2)cc1 (protonated)
Cc1ccccc1[N-]C(=O)[N-]c1ccc(-c2cn(Cc3ccccc3)nn2)cc1 (3D coordinates assigned)
Cc1ccccc1[N-]C(=O)[N-]c1ccc(-c2cn(Cc3ccccc3)nn2)cc1 (optimized conformer: 93.60695837217649 kcal/mol)

>  <smiles>  (52) 
Cc1ccccc1NC(=O)Nc1ccc(-c2cn(Cc3ccccc3)nn2)cc1

>  <score_type>  (52) 
oracle

>  <origin>  (52) 
adg

>  <m_score__min__energy>  (52) 
-12.199999999999999

>  <m_primary>  (52) 
energy

$$$$
52:0
     RDKit          3D

 37 39  0  0  0  0  0  0  0  0999 V2000
   58.0294   32.6822   42.6958 H   0  0  0  0  0  0  0  0  0  0  0  0
   57.5820   31.8330   43.2330 C   0  0  0  0  0  0  0  0  0  0  0  0
   57.6020   31.7930   44.6380 C   0  0  0  0  0  0  0  0  0  0  0  0
   58.2130   32.8810   45.4450 C   0  0  0  0  0  0  0  0  0  0  0  0
   58.2120   32.8460   46.8510 C   0  0  0  0  0  0  0  0  0  0  0  0
   57.7576   31.9962   47.3814 H   0  0  0  0  0  0  0  0  0  0  0  0
   58.7900   33.8940   47.5720 C   0  0  0  0  0  0  0  0  0  0  0  0
   58.7932   33.8662   48.6716 H   0  0  0  0  0  0  0  0  0  0  0  0
   59.3490   34.9490   46.9190 N   0  0  0  0  0  0  0  0  0  0  0  0
   59.7760   35.7240   47.4740 H   0  0  0  0  0  0  0  0  0  0  0  0
   59.3560   35.0170   45.5620 C   0  0  0  0  0  0  0  0  0  0  0  0
   59.8111   35.8833   45.0596 H   0  0  0  0  0  0  0  0  0  0  0  0
   58.7880   33.9920   44.8020 C   0  0  0  0  0  0  0  0  0  0  0  0
   58.7903   34.0534   43.7037 H   0  0  0  0  0  0  0  0  0  0  0  0
   57.0260   30.7360   45.2760 N   0  0  0  0  0  0  0  0  0  0  0  0
   56.4400   29.7020   44.6080 C   0  0  0  0  0  0  0  0  0  0  0  0
   55.8970   28.7050   45.2450 N   0  0  0  0  0  0  0  0  0  0  0  0
   56.5310   27.4700   45.6180 C   0  0  0  0  0  0  0  0  0  0  0  0
   55.8960   26.5620   46.2220 O   0  0  0  0  0  0  0  0  0  0  0  0
   57.9580   27.2390   45.2370 C   0  0  0  0  0  0  0  0  0  0  0  0
   58.2407   26.2068   45.4914 H   0  0  0  0  0  0  0  0  0  0  0  0
   58.0742   27.4012   44.1552 H   0  0  0  0  0  0  0  0  0  0  0  0
   58.8490   28.1970   45.9790 C   0  0  0  0  0  0  0  0  0  0  0  0
   58.5630   28.5430   47.3110 C   0  0  0  0  0  0  0  0  0  0  0  0
   57.7000   28.0909   47.8217 H   0  0  0  0  0  0  0  0  0  0  0  0
   59.3720   29.4600   47.9890 C   0  0  0  0  0  0  0  0  0  0  0  0
   59.1482   29.7230   49.0334 H   0  0  0  0  0  0  0  0  0  0  0  0
   60.4650   30.0430   47.3410 C   0  0  0  0  0  0  0  0  0  0  0  0
   61.1027   30.7613   47.8771 H   0  0  0  0  0  0  0  0  0  0  0  0
   60.7480   29.7140   46.0130 C   0  0  0  0  0  0  0  0  0  0  0  0
   61.6061   30.1764   45.5032 H   0  0  0  0  0  0  0  0  0  0  0  0
   59.9410   28.7970   45.3310 C   0  0  0  0  0  0  0  0  0  0  0  0
   60.1626   28.5450   44.2834 H   0  0  0  0  0  0  0  0  0  0  0  0
   56.4170   29.7140   43.2110 C   0  0  0  0  0  0  0  0  0  0  0  0
   55.9516   28.8855   42.6569 H   0  0  0  0  0  0  0  0  0  0  0  0
   56.9890   30.7850   42.5250 C   0  0  0  0  0  0  0  0  0  0  0  0
   56.9732   30.8045   41.4253 H   0  0  0  0  0  0  0  0  0  0  0  0
  1  2  1  0
  2  3  2  0
  3  4  1  0
  4  5  2  0
  5  6  1  0
  5  7  1  0
  7  8  1  0
  7  9  2  0
  9 10  1  0
  9 11  1  0
 11 12  1  0
 11 13  2  0
 13 14  1  0
  3 15  1  0
 15 16  1  0
 16 17  2  0
 17 18  1  0
 18 19  2  0
 18 20  1  0
 20 21  1  0
 20 22  1  0
 20 23  1  0
 23 24  2  0
 24 25  1  0
 24 26  1  0
 26 27  1  0
 26 28  2  0
 28 29  1  0
 28 30  1  0
 30 31  1  0
 30 32  2  0
 32 33  1  0
 16 34  1  0
 34 35  1  0
 34 36  2  0
 36 37  1  0
 36  2  1  0
 13  4  1  0
 32 23  1  0
M  CHG  2   9   1  15  -1
M  END
>  <UniqueID>  (53) 
48

>  <SMILES>  (53) 
O=C(Cc1ccccc1)/N=c1/cccc(-c2cc[nH+]cc2)[n-]1

>  <Energy>  (53) 
44.39688845486055

>  <Genealogy>  (53) 
O=C(Cc1ccccc1)N=c1cccc(-c2cc[nH+]cc2)[n-]1 (protonated)
O=C(Cc1ccccc1)/N=c1/cccc(-c2cc[nH+]cc2)[n-]1 (cis-trans isomerization)
O=C(Cc1ccccc1)/N=c1/cccc(-c2cc[nH+]cc2)[n-]1 (3D coordinates assigned)
O=C(Cc1ccccc1)/N=c1/cccc(-c2cc[nH+]cc2)[n-]1 (optimized conformer: 44.39688845486055 kcal/mol)

>  <smiles>  (53) 
O=C(Cc1ccccc1)N=c1cccc(-c2ccncc2)[nH]1

>  <score_type>  (53) 
oracle

>  <origin>  (53) 
adg

>  <m_score__min__energy>  (53) 
-8.6500000000000004

>  <m_primary>  (53) 
energy

$$$$
53:0
     RDKit          3D

 31 33  0  0  0  0  0  0  0  0999 V2000
   61.6321   29.4466   46.1464 H   0  0  0  0  0  0  0  0  0  0  0  0
   60.6550   28.9570   46.0220 C   0  0  0  0  0  0  0  0  0  0  0  0
   60.0190   28.3310   47.1980 C   0  0  0  0  0  0  0  0  0  0  0  0
   59.6360   29.0710   48.1410 O   0  0  0  0  0  0  0  0  0  0  0  0
   59.7860   26.9180   47.2920 N   0  0  0  0  0  0  0  0  0  0  0  0
   58.6780   26.2040   46.7250 C   0  0  0  0  0  0  0  0  0  0  0  0
   58.8490   24.9290   46.1160 C   0  0  0  0  0  0  0  0  0  0  0  0
   59.8514   24.4786   46.0668 H   0  0  0  0  0  0  0  0  0  0  0  0
   57.7470   24.2390   45.5760 C   0  0  0  0  0  0  0  0  0  0  0  0
   57.8683   23.2574   45.0947 H   0  0  0  0  0  0  0  0  0  0  0  0
   56.5000   24.8450   45.6740 C   0  0  0  0  0  0  0  0  0  0  0  0
   55.2480   24.4560   45.2680 C   0  0  0  0  0  0  0  0  0  0  0  0
   54.9997   23.5210   44.7444 H   0  0  0  0  0  0  0  0  0  0  0  0
   54.3720   25.4250   45.6250 N   0  0  0  0  0  0  0  0  0  0  0  0
   55.0270   26.4060   46.2410 N   0  0  0  0  0  0  0  0  0  0  0  0
   56.3240   26.0570   46.2730 C   0  0  0  0  0  0  0  0  0  0  0  0
   57.3890   26.7680   46.8190 C   0  0  0  0  0  0  0  0  0  0  0  0
   57.2299   27.7400   47.3088 H   0  0  0  0  0  0  0  0  0  0  0  0
   60.0860   28.9510   44.8080 C   0  0  0  0  0  0  0  0  0  0  0  0
   60.6409   28.4914   43.9768 H   0  0  0  0  0  0  0  0  0  0  0  0
   58.7510   29.5290   44.5230 C   0  0  0  0  0  0  0  0  0  0  0  0
   58.5160   30.8760   44.8490 C   0  0  0  0  0  0  0  0  0  0  0  0
   59.3218   31.4779   45.2944 H   0  0  0  0  0  0  0  0  0  0  0  0
   57.2670   31.4570   44.6120 C   0  0  0  0  0  0  0  0  0  0  0  0
   57.0971   32.5145   44.8626 H   0  0  0  0  0  0  0  0  0  0  0  0
   56.2350   30.6980   44.0580 C   0  0  0  0  0  0  0  0  0  0  0  0
   55.2541   31.1581   43.8679 H   0  0  0  0  0  0  0  0  0  0  0  0
   56.4490   29.3530   43.7450 C   0  0  0  0  0  0  0  0  0  0  0  0
   55.6338   28.7537   43.3135 H   0  0  0  0  0  0  0  0  0  0  0  0
   57.6970   28.7670   43.9790 C   0  0  0  0  0  0  0  0  0  0  0  0
   57.8571   27.7059   43.7373 H   0  0  0  0  0  0  0  0  0  0  0  0
  1  2  1  0
  2  3  1  0
  3  4  2  0
  3  5  1  0
  5  6  1  0
  6  7  2  0
  7  8  1  0
  7  9  1  0
  9 10  1  0
  9 11  2  0
 11 12  1  0
 12 13  1  0
 12 14  2  0
 14 15  1  0
 15 16  1  0
 16 17  2  0
 17 18  1  0
  2 19  2  0
 19 20  1  0
 19 21  1  0
 21 22  2  0
 22 23  1  0
 22 24  1  0
 24 25  1  0
 24 26  2  0
 26 27  1  0
 26 28  1  0
 28 29  1  0
 28 30  2  0
 30 31  1  0
 17  6  1  0
 30 21  1  0
 16 11  1  0
M  CHG  2   5  -1  15  -1
M  END
>  <UniqueID>  (54) 
49

>  <SMILES>  (54) 
O=C(/C=C/c1ccccc1)[N-]c1ccc2cn[n-]c2c1

>  <Energy>  (54) 
79.06392765420408

>  <Genealogy>  (54) 
O=C(C=Cc1ccccc1)[N-]c1ccc2cn[n-]c2c1 (protonated)
O=C(/C=C/c1ccccc1)[N-]c1ccc2cn[n-]c2c1 (cis-trans isomerization)
O=C(/C=C/c1ccccc1)[N-]c1ccc2cn[n-]c2c1 (3D coordinates assigned)
O=C(/C=C/c1ccccc1)[N-]c1ccc2cn[n-]c2c1 (optimized conformer: 79.06392765420408 kcal/mol)

>  <smiles>  (54) 
O=C(C=Cc1ccccc1)Nc1ccc2cn[nH]c2c1

>  <score_type>  (54) 
oracle

>  <origin>  (54) 
adg

>  <m_score__min__energy>  (54) 
-11.59

>  <m_primary>  (54) 
energy

$$$$
54:0
     RDKit          3D

 60 62  0  0  0  0  0  0  0  0999 V2000
   55.6000   24.0430   44.5440 C   0  0  0  0  0  0  0  0  0  0  0  0
   56.8370   24.8220   44.6640 N   0  0  0  0  0  0  0  0  0  0  0  0
   57.9520   23.9470   45.0410 C   0  0  0  0  0  0  0  0  0  0  0  0
   56.6370   26.0810   45.8590 S   0  0  0  0  0  0  0  0  0  0  0  0
   57.1170   25.5860   47.1950 O   0  0  0  0  0  0  0  0  0  0  0  0
   55.1790   26.4180   45.9900 O   0  0  0  0  0  0  0  0  0  0  0  0
   57.5370   27.5370   45.4250 C   0  0  0  0  0  0  0  0  0  0  0  0
   58.9240   27.4740   45.2240 C   0  0  0  0  0  0  0  0  0  0  0  0
   59.6280   28.6230   44.8650 C   0  0  0  0  0  0  0  0  0  0  0  0
   58.9570   29.8440   44.7220 C   0  0  0  0  0  0  0  0  0  0  0  0
   57.5760   29.9280   44.9700 C   0  0  0  0  0  0  0  0  0  0  0  0
   56.8470   31.1540   44.8210 N   0  0  0  0  0  0  0  0  0  0  0  0
   57.2710   32.4860   45.1500 C   0  0  0  0  0  0  0  0  0  0  0  0
   56.5680   33.1560   45.9510 O   0  0  0  0  0  0  0  0  0  0  0  0
   58.5140   33.1060   44.5590 C   0  0  0  0  0  0  0  0  0  0  0  0
   59.2210   33.9840   45.5070 N   0  0  0  0  0  0  0  0  0  0  0  0
   60.0610   33.2480   46.4280 C   0  0  0  0  0  0  0  0  0  0  0  0
   61.4320   33.5480   46.5430 C   0  0  0  0  0  0  0  0  0  0  0  0
   62.2370   32.8200   47.4200 C   0  0  0  0  0  0  0  0  0  0  0  0
   61.7010   31.7820   48.1780 C   0  0  0  0  0  0  0  0  0  0  0  0
   60.3410   31.4770   48.0810 C   0  0  0  0  0  0  0  0  0  0  0  0
   59.6950   30.0840   48.9520 S   0  0  0  0  0  0  0  0  0  0  0  0
   60.8030   29.3640   49.6690 O   0  0  0  0  0  0  0  0  0  0  0  0
   59.0640   29.1420   47.9670 O   0  0  0  0  0  0  0  0  0  0  0  0
   58.4930   30.6210   50.0990 N   0  0  0  0  0  0  0  0  0  0  0  0
   58.7300   32.0380   50.4500 C   0  0  0  0  0  0  0  0  0  0  0  0
   57.8390   32.5110   51.6220 C   0  0  0  0  0  0  0  0  0  0  0  0
   56.7480   31.4890   51.9540 C   0  0  0  0  0  0  0  0  0  0  0  0
   57.3470   30.1000   52.2300 C   0  0  0  0  0  0  0  0  0  0  0  0
   58.5350   29.7800   51.3030 C   0  0  0  0  0  0  0  0  0  0  0  0
   59.5110   32.2240   47.2290 C   0  0  0  0  0  0  0  0  0  0  0  0
   56.8700   28.7620   45.2860 C   0  0  0  0  0  0  0  0  0  0  0  0
   55.2190   23.8031   45.5476 H   0  0  0  0  0  0  0  0  0  0  0  0
   54.8481   24.6309   43.9972 H   0  0  0  0  0  0  0  0  0  0  0  0
   55.8053   23.1109   43.9972 H   0  0  0  0  0  0  0  0  0  0  0  0
   58.0210   23.8928   46.1375 H   0  0  0  0  0  0  0  0  0  0  0  0
   57.7811   22.9394   44.6341 H   0  0  0  0  0  0  0  0  0  0  0  0
   58.8901   24.3525   44.6341 H   0  0  0  0  0  0  0  0  0  0  0  0
   59.4557   26.5192   45.3494 H   0  0  0  0  0  0  0  0  0  0  0  0
   60.7133   28.5702   44.6937 H   0  0  0  0  0  0  0  0  0  0  0  0
   59.5134   30.7416   44.4141 H   0  0  0  0  0  0  0  0  0  0  0  0
   59.1962   32.3000   44.2510 H   0  0  0  0  0  0  0  0  0  0  0  0
   58.2011   33.7249   43.7052 H   0  0  0  0  0  0  0  0  0  0  0  0
   58.5160   34.5110   46.0640 H   0  0  0  0  0  0  0  0  0  0  0  0
   59.7780   34.6810   44.9730 H   0  0  0  0  0  0  0  0  0  0  0  0
   61.8692   34.3577   45.9404 H   0  0  0  0  0  0  0  0  0  0  0  0
   63.3045   33.0682   47.5134 H   0  0  0  0  0  0  0  0  0  0  0  0
   62.3481   31.2025   48.8528 H   0  0  0  0  0  0  0  0  0  0  0  0
   59.7850   32.1594   50.7368 H   0  0  0  0  0  0  0  0  0  0  0  0
   58.4792   32.6484   49.5699 H   0  0  0  0  0  0  0  0  0  0  0  0
   58.4694   32.6606   52.5109 H   0  0  0  0  0  0  0  0  0  0  0  0
   57.3494   33.4495   51.3227 H   0  0  0  0  0  0  0  0  0  0  0  0
   56.2007   31.8267   52.8464 H   0  0  0  0  0  0  0  0  0  0  0  0
   56.0727   31.4096   51.0893 H   0  0  0  0  0  0  0  0  0  0  0  0
   57.6934   30.0653   53.2735 H   0  0  0  0  0  0  0  0  0  0  0  0
   56.5626   29.3522   52.0415 H   0  0  0  0  0  0  0  0  0  0  0  0
   59.4751   29.9677   51.8424 H   0  0  0  0  0  0  0  0  0  0  0  0
   58.4741   28.7242   51.0003 H   0  0  0  0  0  0  0  0  0  0  0  0
   58.4327   32.0111   47.1859 H   0  0  0  0  0  0  0  0  0  0  0  0
   55.7800   28.8071   45.4268 H   0  0  0  0  0  0  0  0  0  0  0  0
  1  2  1  0
  2  3  1  0
  2  4  1  0
  4  5  2  0
  4  6  2  0
  4  7  1  0
  7  8  2  0
  8  9  1  0
  9 10  2  0
 10 11  1  0
 11 12  1  0
 12 13  1  0
 13 14  2  0
 13 15  1  0
 15 16  1  0
 16 17  1  0
 17 18  2  0
 18 19  1  0
 19 20  2  0
 20 21  1  0
 21 22  1  0
 22 23  2  0
 22 24  2  0
 22 25  1  0
 25 26  1  0
 26 27  1  0
 27 28  1  0
 28 29  1  0
 29 30  1  0
 21 31  2  0
 11 32  2  0
 32  7  1  0
 31 17  1  0
 30 25  1  0
  1 33  1  0
  1 34  1  0
  1 35  1  0
  3 36  1  0
  3 37  1  0
  3 38  1  0
  8 39  1  0
  9 40  1  0
 10 41  1  0
 15 42  1  0
 15 43  1  0
 16 44  1  0
 16 45  1  0
 18 46  1  0
 19 47  1  0
 20 48  1  0
 26 49  1  0
 26 50  1  0
 27 51  1  0
 27 52  1  0
 28 53  1  0
 28 54  1  0
 29 55  1  0
 29 56  1  0
 30 57  1  0
 30 58  1  0
 31 59  1  0
 32 60  1  0
M  CHG  2  12  -1  16   1
M  END
>  <UniqueID>  (55) 
50

>  <SMILES>  (55) 
CN(C)S(=O)(=O)c1cccc([N-]C(=O)C[NH2+]c2cccc(S(=O)(=O)N3CCCCC3)c2)c1

>  <Energy>  (55) 
68.9630811635934

>  <Genealogy>  (55) 
CN(C)S(=O)(=O)c1cccc([N-]C(=O)C[NH2+]c2cccc(S(=O)(=O)N3CCCCC3)c2)c1 (protonated)
CN(C)S(=O)(=O)c1cccc([N-]C(=O)C[NH2+]c2cccc(S(=O)(=O)N3CCCCC3)c2)c1 (3D coordinates assigned)
CN(C)S(=O)(=O)c1cccc([N-]C(=O)C[NH2+]c2cccc(S(=O)(=O)N3CCCCC3)c2)c1 (nonaromatic ring conformer: 68.9630811635934 kcal/mol)

>  <smiles>  (55) 
CN(C)S(=O)(=O)c1cccc(NC(=O)CNc2cccc(S(=O)(=O)N3CCCCC3)c2)c1

>  <score_type>  (55) 
oracle

>  <origin>  (55) 
adg

>  <m_score__min__energy>  (55) 
-11.09

>  <m_primary>  (55) 
energy

$$$$
55:0
     RDKit          3D

 52 55  0  0  0  0  0  0  0  0999 V2000
   56.6410   21.8160   42.6380 C   0  0  0  0  0  0  0  0  0  0  0  0
   55.7880   22.7620   43.2740 O   0  0  0  0  0  0  0  0  0  0  0  0
   56.2360   23.7980   44.1070 C   0  0  0  0  0  0  0  0  0  0  0  0
   55.5760   24.1460   45.2990 C   0  0  0  0  0  0  0  0  0  0  0  0
   56.0600   25.1900   46.0940 C   0  0  0  0  0  0  0  0  0  0  0  0
   57.1920   25.9240   45.6990 C   0  0  0  0  0  0  0  0  0  0  0  0
   57.7330   27.0370   46.5810 C   0  0  0  0  0  0  0  0  0  0  0  0
   57.6690   28.4030   45.9980 N   0  0  1  0  0  0  0  0  0  0  0  0
   58.9340   28.8910   45.4140 C   0  0  0  0  0  0  0  0  0  0  0  0
   58.6030   29.6410   44.1240 C   0  0  0  0  0  0  0  0  0  0  0  0
   57.0780   29.7560   44.0910 C   0  0  2  0  0  0  0  0  0  0  0  0
   56.5410   29.6020   42.6600 C   0  0  0  0  0  0  0  0  0  0  0  0
   56.6340   31.0330   44.5850 O   0  0  0  0  0  0  0  0  0  0  0  0
   57.4500   31.9940   45.1960 C   0  0  0  0  0  0  0  0  0  0  0  0
   57.7190   33.2120   44.5570 C   0  0  0  0  0  0  0  0  0  0  0  0
   58.5410   34.1630   45.1650 C   0  0  0  0  0  0  0  0  0  0  0  0
   59.0910   33.9140   46.4320 C   0  0  0  0  0  0  0  0  0  0  0  0
   59.9220   34.8610   47.0510 C   0  0  0  0  0  0  0  0  0  0  0  0
   60.4580   34.6010   48.3160 C   0  0  0  0  0  0  0  0  0  0  0  0
   60.1690   33.4010   48.9710 C   0  0  0  0  0  0  0  0  0  0  0  0
   59.3410   32.4500   48.3650 C   0  0  0  0  0  0  0  0  0  0  0  0
   58.7980   32.6980   47.0940 C   0  0  0  0  0  0  0  0  0  0  0  0
   57.9690   31.7520   46.4740 C   0  0  0  0  0  0  0  0  0  0  0  0
   56.6170   28.6000   44.9870 C   0  0  0  0  0  0  0  0  0  0  0  0
   57.8700   25.5450   44.5270 C   0  0  0  0  0  0  0  0  0  0  0  0
   57.3870   24.5020   43.7340 C   0  0  0  0  0  0  0  0  0  0  0  0
   57.1709   21.2283   43.4021 H   0  0  0  0  0  0  0  0  0  0  0  0
   56.0385   21.1429   42.0103 H   0  0  0  0  0  0  0  0  0  0  0  0
   57.3726   22.3458   42.0103 H   0  0  0  0  0  0  0  0  0  0  0  0
   54.6754   23.5949   45.6074 H   0  0  0  0  0  0  0  0  0  0  0  0
   55.5504   25.4389   47.0365 H   0  0  0  0  0  0  0  0  0  0  0  0
   57.1541   27.0401   47.5163 H   0  0  0  0  0  0  0  0  0  0  0  0
   58.8018   26.8184   46.7222 H   0  0  0  0  0  0  0  0  0  0  0  0
   57.4400   29.0360   46.8020 H   0  0  0  0  0  0  0  0  0  0  0  0
   59.4343   29.5687   46.1214 H   0  0  0  0  0  0  0  0  0  0  0  0
   59.6067   28.0469   45.2022 H   0  0  0  0  0  0  0  0  0  0  0  0
   59.0628   30.6403   44.1327 H   0  0  0  0  0  0  0  0  0  0  0  0
   58.9895   29.1153   43.2384 H   0  0  0  0  0  0  0  0  0  0  0  0
   55.4842   29.2989   42.6956 H   0  0  0  0  0  0  0  0  0  0  0  0
   56.6296   30.5617   42.1299 H   0  0  0  0  0  0  0  0  0  0  0  0
   57.1247   28.8351   42.1299 H   0  0  0  0  0  0  0  0  0  0  0  0
   57.2798   33.4201   43.5702 H   0  0  0  0  0  0  0  0  0  0  0  0
   58.7581   35.1101   44.6494 H   0  0  0  0  0  0  0  0  0  0  0  0
   60.1516   35.8080   46.5407 H   0  0  0  0  0  0  0  0  0  0  0  0
   61.1101   35.3445   48.7977 H   0  0  0  0  0  0  0  0  0  0  0  0
   60.5939   33.2035   49.9662 H   0  0  0  0  0  0  0  0  0  0  0  0
   59.1151   31.5071   48.8846 H   0  0  0  0  0  0  0  0  0  0  0  0
   57.7249   30.8142   46.9946 H   0  0  0  0  0  0  0  0  0  0  0  0
   55.6649   28.8552   45.4753 H   0  0  0  0  0  0  0  0  0  0  0  0
   56.4561   27.6840   44.3996 H   0  0  0  0  0  0  0  0  0  0  0  0
   58.7882   26.0743   44.2324 H   0  0  0  0  0  0  0  0  0  0  0  0
   57.9156   24.2312   42.8081 H   0  0  0  0  0  0  0  0  0  0  0  0
  1  2  1  0
  2  3  1  0
  3  4  2  0
  4  5  1  0
  5  6  2  0
  6  7  1  0
  7  8  1  0
  8  9  1  0
  9 10  1  0
 10 11  1  0
 11 12  1  0
 11 13  1  1
 13 14  1  0
 14 15  2  0
 15 16  1  0
 16 17  2  0
 17 18  1  0
 18 19  2  0
 19 20  1  0
 20 21  2  0
 21 22  1  0
 22 23  2  0
 11 24  1  0
  6 25  1  0
 25 26  2  0
 26  3  1  0
 24  8  1  0
 23 14  1  0
 22 17  1  0
  1 27  1  0
  1 28  1  0
  1 29  1  0
  4 30  1  0
  5 31  1  0
  7 32  1  0
  7 33  1  0
  8 34  1  1
  9 35  1  0
  9 36  1  0
 10 37  1  0
 10 38  1  0
 12 39  1  0
 12 40  1  0
 12 41  1  0
 15 42  1  0
 16 43  1  0
 18 44  1  0
 19 45  1  0
 20 46  1  0
 21 47  1  0
 23 48  1  0
 24 49  1  0
 24 50  1  0
 25 51  1  0
 26 52  1  0
M  CHG  1   8   1
M  END
>  <UniqueID>  (56) 
51

>  <SMILES>  (56) 
COc1ccc(C[N@H+]2CC[C@](C)(Oc3ccc4ccccc4c3)C2)cc1

>  <Energy>  (56) 
74.08930824168047

>  <Genealogy>  (56) 
COc1ccc(C[NH+]2CCC(C)(Oc3ccc4ccccc4c3)C2)cc1 (protonated)
COc1ccc(C[N@H+]2CC[C@](C)(Oc3ccc4ccccc4c3)C2)cc1 (chirality)
COc1ccc(C[N@H+]2CC[C@](C)(Oc3ccc4ccccc4c3)C2)cc1 (3D coordinates assigned)
COc1ccc(C[N@H+]2CC[C@](C)(Oc3ccc4ccccc4c3)C2)cc1 (nonaromatic ring conformer: 74.08930824168047 kcal/mol)

>  <smiles>  (56) 
COc1ccc(CN2CCC(C)(Oc3ccc4ccccc4c3)C2)cc1

>  <score_type>  (56) 
oracle

>  <origin>  (56) 
adg

>  <m_score__min__energy>  (56) 
-6.9299999999999997

>  <m_primary>  (56) 
energy

$$$$
56:0
     RDKit          3D

 31 32  0  0  0  0  0  0  0  0999 V2000
   57.3640   26.2150   46.8690 C   0  0  0  0  0  0  0  0  0  0  0  0
   56.4450   26.9260   45.9340 C   0  0  0  0  0  0  0  0  0  0  0  0
   55.2050   26.7150   46.0020 O   0  0  0  0  0  0  0  0  0  0  0  0
   56.9940   27.7550   44.9020 N   0  0  0  0  0  0  0  0  0  0  0  0
   57.2350   29.1680   44.9790 C   0  0  0  0  0  0  0  0  0  0  0  0
   57.9040   29.6750   46.1000 C   0  0  0  0  0  0  0  0  0  0  0  0
   58.1450   31.0470   46.2220 C   0  0  0  0  0  0  0  0  0  0  0  0
   57.7060   31.9290   45.2270 C   0  0  0  0  0  0  0  0  0  0  0  0
   58.0140   33.6580   45.3710 S   0  0  0  0  0  0  0  0  0  0  0  0
   56.7440   34.4410   45.1770 O   0  0  0  0  0  0  0  0  0  0  0  0
   59.0020   34.0620   44.3150 O   0  0  0  0  0  0  0  0  0  0  0  0
   58.6760   34.0230   46.9360 N   0  0  0  0  0  0  0  0  0  0  0  0
   59.9260   33.9400   47.2890 C   0  0  0  0  0  0  0  0  0  0  0  0
   60.9480   33.5690   46.3880 C   0  0  0  0  0  0  0  0  0  0  0  0
   62.2690   33.5090   46.8360 C   0  0  0  0  0  0  0  0  0  0  0  0
   62.5690   33.8130   48.1630 C   0  0  0  0  0  0  0  0  0  0  0  0
   61.5370   34.1740   49.0300 C   0  0  0  0  0  0  0  0  0  0  0  0
   60.2560   34.2290   48.5770 N   0  0  0  0  0  0  0  0  0  0  0  0
   57.0090   31.4320   44.1200 C   0  0  0  0  0  0  0  0  0  0  0  0
   56.7700   30.0600   43.9950 C   0  0  0  0  0  0  0  0  0  0  0  0
   57.0757   26.4381   47.9068 H   0  0  0  0  0  0  0  0  0  0  0  0
   57.2975   25.1309   46.6949 H   0  0  0  0  0  0  0  0  0  0  0  0
   58.3966   26.5516   46.6949 H   0  0  0  0  0  0  0  0  0  0  0  0
   58.2424   28.9889   46.8904 H   0  0  0  0  0  0  0  0  0  0  0  0
   58.6805   31.4342   47.1014 H   0  0  0  0  0  0  0  0  0  0  0  0
   60.7055   33.3293   45.3422 H   0  0  0  0  0  0  0  0  0  0  0  0
   63.0728   33.2219   46.1421 H   0  0  0  0  0  0  0  0  0  0  0  0
   63.6076   33.7688   48.5226 H   0  0  0  0  0  0  0  0  0  0  0  0
   61.7597   34.4141   50.0801 H   0  0  0  0  0  0  0  0  0  0  0  0
   56.6476   32.1237   43.3448 H   0  0  0  0  0  0  0  0  0  0  0  0
   56.2168   29.6768   43.1249 H   0  0  0  0  0  0  0  0  0  0  0  0
  1  2  1  0
  2  3  2  0
  2  4  1  0
  4  5  1  0
  5  6  2  0
  6  7  1  0
  7  8  2  0
  8  9  1  0
  9 10  2  0
  9 11  2  0
  9 12  1  0
 12 13  2  3
 13 14  1  0
 14 15  2  0
 15 16  1  0
 16 17  2  0
 17 18  1  0
  8 19  1  0
 19 20  2  0
 20  5  1  0
 18 13  1  0
  1 21  1  0
  1 22  1  0
  1 23  1  0
  6 24  1  0
  7 25  1  0
 14 26  1  0
 15 27  1  0
 16 28  1  0
 17 29  1  0
 19 30  1  0
 20 31  1  0
M  CHG  2   4  -1  18  -1
M  END
>  <UniqueID>  (57) 
52

>  <SMILES>  (57) 
CC(=O)[N-]c1ccc(S(=O)(=O)N=c2cccc[n-]2)cc1

>  <Energy>  (57) 
39.133790969821014

>  <Genealogy>  (57) 
CC(=O)[N-]c1ccc(S(=O)(=O)N=c2cccc[n-]2)cc1 (protonated)
CC(=O)[N-]c1ccc(S(=O)(=O)N=c2cccc[n-]2)cc1 (3D coordinates assigned)
CC(=O)[N-]c1ccc(S(=O)(=O)N=c2cccc[n-]2)cc1 (optimized conformer: 39.133790969821014 kcal/mol)

>  <smiles>  (57) 
CC(=O)Nc1ccc(S(=O)(=O)N=c2cccc[nH]2)cc1

>  <score_type>  (57) 
oracle

>  <origin>  (57) 
adg

>  <m_score__min__energy>  (57) 
-9.8599999999999994

>  <m_primary>  (57) 
energy

$$$$
57:0
     RDKit          3D

 40 42  0  0  0  0  0  0  0  0999 V2000
   56.9980   31.0080   42.6790 C   0  0  0  0  0  0  0  0  0  0  0  0
   56.2680   29.8900   42.7060 C   0  0  0  0  0  0  0  0  0  0  0  0
   55.1380   29.7140   43.6800 C   0  0  0  0  0  0  0  0  0  0  0  0
   55.5940   29.0150   44.8760 N   0  0  0  0  0  0  0  0  0  0  0  0
   56.8630   29.2490   45.4940 C   0  0  0  0  0  0  0  0  0  0  0  0
   57.2640   30.4310   45.6720 O   0  0  0  0  0  0  0  0  0  0  0  0
   57.7200   28.1160   45.9030 C   0  0  0  0  0  0  0  0  0  0  0  0
   57.2850   26.8090   46.0780 C   0  0  0  0  0  0  0  0  0  0  0  0
   56.0130   26.2340   45.9970 C   0  0  0  0  0  0  0  0  0  0  0  0
   55.8960   24.8530   46.2340 C   0  0  0  0  0  0  0  0  0  0  0  0
   57.0340   24.0800   46.5470 C   0  0  0  0  0  0  0  0  0  0  0  0
   58.3020   24.6830   46.6290 C   0  0  0  0  0  0  0  0  0  0  0  0
   58.3860   26.0540   46.3940 C   0  0  0  0  0  0  0  0  0  0  0  0
   59.4680   26.9000   46.3970 C   0  0  0  0  0  0  0  0  0  0  0  0
   60.7800   26.4890   46.6380 O   0  0  0  0  0  0  0  0  0  0  0  0
   59.0700   28.1700   46.1110 N   0  0  0  0  0  0  0  0  0  0  0  0
   59.9460   29.3350   45.9170 C   0  0  0  0  0  0  0  0  0  0  0  0
   59.7400   30.3440   47.0170 C   0  0  0  0  0  0  0  0  0  0  0  0
   59.3980   29.9180   48.3110 C   0  0  0  0  0  0  0  0  0  0  0  0
   59.2120   30.8500   49.3360 C   0  0  0  0  0  0  0  0  0  0  0  0
   59.3600   32.2150   49.0750 C   0  0  0  0  0  0  0  0  0  0  0  0
   59.6890   32.6490   47.7880 C   0  0  0  0  0  0  0  0  0  0  0  0
   59.8740   31.7190   46.7600 C   0  0  0  0  0  0  0  0  0  0  0  0
   57.8200   31.1108   41.9553 H   0  0  0  0  0  0  0  0  0  0  0  0
   56.7773   31.8261   43.3804 H   0  0  0  0  0  0  0  0  0  0  0  0
   56.4994   29.0797   41.9990 H   0  0  0  0  0  0  0  0  0  0  0  0
   54.7497   30.7028   43.9654 H   0  0  0  0  0  0  0  0  0  0  0  0
   54.3473   29.1178   43.2011 H   0  0  0  0  0  0  0  0  0  0  0  0
   55.1301   26.8439   45.7551 H   0  0  0  0  0  0  0  0  0  0  0  0
   54.9089   24.3712   46.1749 H   0  0  0  0  0  0  0  0  0  0  0  0
   56.9290   23.0001   46.7278 H   0  0  0  0  0  0  0  0  0  0  0  0
   59.1977   24.0920   46.8706 H   0  0  0  0  0  0  0  0  0  0  0  0
   61.4840   26.4400   45.9160 H   0  0  0  0  0  0  0  0  0  0  0  0
   60.9948   29.0033   45.9227 H   0  0  0  0  0  0  0  0  0  0  0  0
   59.7005   29.8061   44.9538 H   0  0  0  0  0  0  0  0  0  0  0  0
   59.2758   28.8448   48.5190 H   0  0  0  0  0  0  0  0  0  0  0  0
   58.9491   30.5090   50.3482 H   0  0  0  0  0  0  0  0  0  0  0  0
   59.2175   32.9479   49.8828 H   0  0  0  0  0  0  0  0  0  0  0  0
   59.8026   33.7238   47.5832 H   0  0  0  0  0  0  0  0  0  0  0  0
   60.1253   32.0651   45.7466 H   0  0  0  0  0  0  0  0  0  0  0  0
  1  2  2  0
  2  3  1  0
  3  4  1  0
  4  5  1  0
  5  6  2  0
  5  7  1  0
  7  8  2  0
  8  9  1  0
  9 10  2  0
 10 11  1  0
 11 12  2  0
 12 13  1  0
 13 14  2  0
 14 15  1  0
 14 16  1  0
 16 17  1  0
 17 18  1  0
 18 19  2  0
 19 20  1  0
 20 21  2  0
 21 22  1  0
 22 23  2  0
 16  7  1  0
 23 18  1  0
 13  8  1  0
  1 24  1  0
  1 25  1  0
  2 26  1  0
  3 27  1  0
  3 28  1  0
  9 29  1  0
 10 30  1  0
 11 31  1  0
 12 32  1  0
 15 33  1  0
 17 34  1  0
 17 35  1  0
 19 36  1  0
 20 37  1  0
 21 38  1  0
 22 39  1  0
 23 40  1  0
M  CHG  1   4  -1
M  END
>  <UniqueID>  (58) 
53

>  <SMILES>  (58) 
C=CC[N-]C(=O)c1c2ccccc2c(O)n1Cc1ccccc1

>  <Energy>  (58) 
75.64181256471063

>  <Genealogy>  (58) 
C=CC[N-]C(=O)c1c2ccccc2c(O)n1Cc1ccccc1 (protonated)
C=CC[N-]C(=O)c1c2ccccc2c(O)n1Cc1ccccc1 (3D coordinates assigned)
C=CC[N-]C(=O)c1c2ccccc2c(O)n1Cc1ccccc1 (optimized conformer: 75.64181256471063 kcal/mol)

>  <smiles>  (58) 
C=CCNC(=O)c1c2ccccc2c(O)n1Cc1ccccc1

>  <score_type>  (58) 
oracle

>  <origin>  (58) 
adg

>  <m_score__min__energy>  (58) 
-8.25

>  <m_primary>  (58) 
energy

$$$$
58:0
     RDKit          3D

 58 61  0  0  0  0  0  0  0  0999 V2000
   63.1360   33.5890   46.7180 C   0  0  0  0  0  0  0  0  0  0  0  0
   61.9720   34.1500   47.3130 O   0  0  0  0  0  0  0  0  0  0  0  0
   60.6580   33.8970   46.8880 C   0  0  0  0  0  0  0  0  0  0  0  0
   59.8560   34.8930   46.2970 C   0  0  0  0  0  0  0  0  0  0  0  0
   58.5570   34.5930   45.8770 C   0  0  0  0  0  0  0  0  0  0  0  0
   58.0480   33.3030   46.0400 C   0  0  0  0  0  0  0  0  0  0  0  0
   58.8350   32.3090   46.6250 C   0  0  0  0  0  0  0  0  0  0  0  0
   60.1370   32.6020   47.0510 C   0  0  0  0  0  0  0  0  0  0  0  0
   60.9380   31.5710   47.6410 N   0  0  0  0  0  0  0  0  0  0  0  0
   61.4670   30.4840   46.8140 C   0  0  0  0  0  0  0  0  0  0  0  0
   60.3740   29.5050   46.4730 C   0  0  0  0  0  0  0  0  0  0  0  0
   60.0220   29.2690   45.1340 C   0  0  0  0  0  0  0  0  0  0  0  0
   58.9490   28.4290   44.8230 C   0  0  0  0  0  0  0  0  0  0  0  0
   58.2200   27.8170   45.8470 C   0  0  0  0  0  0  0  0  0  0  0  0
   58.5650   28.0440   47.1820 C   0  0  0  0  0  0  0  0  0  0  0  0
   59.6360   28.8850   47.4970 C   0  0  0  0  0  0  0  0  0  0  0  0
   61.1950   31.5720   49.3570 S   0  0  0  0  0  0  0  0  0  0  0  0
   61.7560   32.9010   49.7790 O   0  0  0  0  0  0  0  0  0  0  0  0
   62.1800   30.4990   49.7310 O   0  0  0  0  0  0  0  0  0  0  0  0
   59.6690   31.2600   50.1730 C   0  0  0  0  0  0  0  0  0  0  0  0
   59.4270   30.0210   50.7790 C   0  0  0  0  0  0  0  0  0  0  0  0
   58.2520   29.8100   51.5050 C   0  0  0  0  0  0  0  0  0  0  0  0
   57.2980   30.8360   51.6370 C   0  0  0  0  0  0  0  0  0  0  0  0
   56.0800   30.6240   52.4520 C   0  0  0  0  0  0  0  0  0  0  0  0
   56.0240   31.0920   53.6240 O   0  0  0  0  0  0  0  0  0  0  0  0
   54.9640   29.8840   51.9340 N   0  0  0  0  0  0  0  0  0  0  0  0
   53.6550   29.9550   52.5200 C   0  0  0  0  0  0  0  0  0  0  0  0
   52.8940   31.1210   52.3480 C   0  0  0  0  0  0  0  0  0  0  0  0
   51.6160   31.2210   52.9050 C   0  0  0  0  0  0  0  0  0  0  0  0
   50.6670   32.6780   52.6660 Cl  0  0  0  0  0  0  0  0  0  0  0  0
   51.0950   30.1620   53.6520 C   0  0  0  0  0  0  0  0  0  0  0  0
   51.8550   29.0070   53.8530 C   0  0  0  0  0  0  0  0  0  0  0  0
   53.1350   28.8980   53.2980 C   0  0  0  0  0  0  0  0  0  0  0  0
   54.0880   27.4650   53.6680 Cl  0  0  0  0  0  0  0  0  0  0  0  0
   57.5460   32.0760   51.0180 C   0  0  0  0  0  0  0  0  0  0  0  0
   58.7190   32.2820   50.2890 C   0  0  0  0  0  0  0  0  0  0  0  0
   63.8268   33.2561   47.5067 H   0  0  0  0  0  0  0  0  0  0  0  0
   62.8507   32.7295   46.0936 H   0  0  0  0  0  0  0  0  0  0  0  0
   63.6306   34.3476   46.0936 H   0  0  0  0  0  0  0  0  0  0  0  0
   60.2534   35.9103   46.1656 H   0  0  0  0  0  0  0  0  0  0  0  0
   57.9345   35.3747   45.4172 H   0  0  0  0  0  0  0  0  0  0  0  0
   57.0259   33.0696   45.7072 H   0  0  0  0  0  0  0  0  0  0  0  0
   58.4317   31.2935   46.7517 H   0  0  0  0  0  0  0  0  0  0  0  0
   61.8808   30.9035   45.8851 H   0  0  0  0  0  0  0  0  0  0  0  0
   62.2544   29.9592   47.3749 H   0  0  0  0  0  0  0  0  0  0  0  0
   60.5939   29.7479   44.3256 H   0  0  0  0  0  0  0  0  0  0  0  0
   58.6780   28.2494   43.7721 H   0  0  0  0  0  0  0  0  0  0  0  0
   57.3749   27.1569   45.6019 H   0  0  0  0  0  0  0  0  0  0  0  0
   57.9924   27.5597   47.9867 H   0  0  0  0  0  0  0  0  0  0  0  0
   59.9025   29.0625   48.5494 H   0  0  0  0  0  0  0  0  0  0  0  0
   60.1648   29.2108   50.6831 H   0  0  0  0  0  0  0  0  0  0  0  0
   58.0711   28.8333   51.9775 H   0  0  0  0  0  0  0  0  0  0  0  0
   55.1510   29.1170   51.2500 H   0  0  0  0  0  0  0  0  0  0  0  0
   53.3059   31.9621   51.7710 H   0  0  0  0  0  0  0  0  0  0  0  0
   50.0855   30.2374   54.0824 H   0  0  0  0  0  0  0  0  0  0  0  0
   51.4452   28.1793   54.4504 H   0  0  0  0  0  0  0  0  0  0  0  0
   56.8102   32.8886   51.1093 H   0  0  0  0  0  0  0  0  0  0  0  0
   58.8977   33.2526   49.8032 H   0  0  0  0  0  0  0  0  0  0  0  0
  1  2  1  0
  2  3  1  0
  3  4  2  0
  4  5  1  0
  5  6  2  0
  6  7  1  0
  7  8  2  0
  8  9  1  0
  9 10  1  0
 10 11  1  0
 11 12  2  0
 12 13  1  0
 13 14  2  0
 14 15  1  0
 15 16  2  0
  9 17  1  0
 17 18  2  0
 17 19  2  0
 17 20  1  0
 20 21  2  0
 21 22  1  0
 22 23  2  0
 23 24  1  0
 24 25  2  0
 24 26  1  0
 26 27  1  0
 27 28  2  0
 28 29  1  0
 29 30  1  0
 29 31  2  0
 31 32  1  0
 32 33  2  0
 33 34  1  0
 23 35  1  0
 35 36  2  0
  8  3  1  0
 16 11  1  0
 36 20  1  0
 33 27  1  0
  1 37  1  0
  1 38  1  0
  1 39  1  0
  4 40  1  0
  5 41  1  0
  6 42  1  0
  7 43  1  0
 10 44  1  0
 10 45  1  0
 12 46  1  0
 13 47  1  0
 14 48  1  0
 15 49  1  0
 16 50  1  0
 21 51  1  0
 22 52  1  0
 26 53  1  0
 28 54  1  0
 31 55  1  0
 32 56  1  0
 35 57  1  0
 36 58  1  0
M  END
>  <UniqueID>  (59) 
54

>  <SMILES>  (59) 
COc1ccccc1N(Cc1ccccc1)S(=O)(=O)c1ccc(C(=O)Nc2cc(Cl)ccc2Cl)cc1

>  <Energy>  (59) 
71.04525891549444

>  <Genealogy>  (59) 
COc1ccccc1N(Cc1ccccc1)S(=O)(=O)c1ccc(C(=O)Nc2cc(Cl)ccc2Cl)cc1 (3D coordinates assigned)
COc1ccccc1N(Cc1ccccc1)S(=O)(=O)c1ccc(C(=O)Nc2cc(Cl)ccc2Cl)cc1 (optimized conformer: 71.04525891549444 kcal/mol)

>  <smiles>  (59) 
COc1ccccc1N(Cc1ccccc1)S(=O)(=O)c1ccc(C(=O)Nc2cc(Cl)ccc2Cl)cc1

>  <score_type>  (59) 
oracle

>  <origin>  (59) 
adg

>  <m_score__min__energy>  (59) 
-8.9900000000000002

>  <m_primary>  (59) 
energy

$$$$
59:0
     RDKit          3D

 37 40  0  0  0  0  0  0  0  0999 V2000
   54.1480   24.8430   45.6120 C   0  0  0  0  0  0  0  0  0  0  0  0
   54.7580   26.0780   45.9720 O   0  0  0  0  0  0  0  0  0  0  0  0
   56.1450   26.2970   46.0250 C   0  0  0  0  0  0  0  0  0  0  0  0
   57.0400   25.2820   46.4180 C   0  0  0  0  0  0  0  0  0  0  0  0
   58.4190   25.5070   46.3960 C   0  0  0  0  0  0  0  0  0  0  0  0
   58.9210   26.7390   45.9780 C   0  0  0  0  0  0  0  0  0  0  0  0
   58.0450   27.7570   45.5960 C   0  0  0  0  0  0  0  0  0  0  0  0
   56.6590   27.5570   45.6450 C   0  0  0  0  0  0  0  0  0  0  0  0
   55.8020   28.6340   45.2400 N   0  0  0  0  0  0  0  0  0  0  0  0
   56.1760   29.7050   44.3660 C   0  0  0  0  0  0  0  0  0  0  0  0
   55.7220   29.7640   43.1920 O   0  0  0  0  0  0  0  0  0  0  0  0
   57.0530   30.7720   44.8570 C   0  0  0  0  0  0  0  0  0  0  0  0
   56.8710   32.0810   44.5610 N   0  0  0  0  0  0  0  0  0  0  0  0
   57.8810   32.6740   45.2240 C   0  0  0  0  0  0  0  0  0  0  0  0
   58.6330   31.7260   45.8580 C   0  0  0  0  0  0  0  0  0  0  0  0
   58.1040   30.5530   45.6220 O   0  0  0  0  0  0  0  0  0  0  0  0
   59.8540   32.0160   46.6200 C   0  0  0  0  0  0  0  0  0  0  0  0
   60.7880   31.0060   46.8940 C   0  0  0  0  0  0  0  0  0  0  0  0
   62.0170   31.3310   47.4760 C   0  0  0  0  0  0  0  0  0  0  0  0
   62.3200   32.6630   47.7750 C   0  0  0  0  0  0  0  0  0  0  0  0
   61.3880   33.6720   47.5160 C   0  0  0  0  0  0  0  0  0  0  0  0
   60.1450   33.3540   46.9560 C   0  0  0  0  0  0  0  0  0  0  0  0
   58.8930   34.6560   46.7850 S   0  0  0  0  0  0  0  0  0  0  0  0
   58.2440   34.1220   45.1580 C   0  0  0  0  0  0  0  0  0  0  0  0
   53.8748   24.2898   46.5227 H   0  0  0  0  0  0  0  0  0  0  0  0
   53.2437   25.0402   45.0176 H   0  0  0  0  0  0  0  0  0  0  0  0
   54.8542   24.2447   45.0176 H   0  0  0  0  0  0  0  0  0  0  0  0
   56.6506   24.3063   46.7442 H   0  0  0  0  0  0  0  0  0  0  0  0
   59.1101   24.7105   46.7091 H   0  0  0  0  0  0  0  0  0  0  0  0
   60.0074   26.9089   45.9492 H   0  0  0  0  0  0  0  0  0  0  0  0
   58.4457   28.7227   45.2542 H   0  0  0  0  0  0  0  0  0  0  0  0
   60.5537   29.9590   46.6512 H   0  0  0  0  0  0  0  0  0  0  0  0
   62.7462   30.5382   47.6989 H   0  0  0  0  0  0  0  0  0  0  0  0
   63.2952   32.9176   48.2156 H   0  0  0  0  0  0  0  0  0  0  0  0
   61.6318   34.7182   47.7527 H   0  0  0  0  0  0  0  0  0  0  0  0
   57.3516   34.7137   44.9059 H   0  0  0  0  0  0  0  0  0  0  0  0
   59.0122   34.2752   44.3858 H   0  0  0  0  0  0  0  0  0  0  0  0
  1  2  1  0
  2  3  1  0
  3  4  2  0
  4  5  1  0
  5  6  2  0
  6  7  1  0
  7  8  2  0
  8  9  1  0
  9 10  1  0
 10 11  2  0
 10 12  1  0
 12 13  2  0
 13 14  1  0
 14 15  2  0
 15 16  1  0
 15 17  1  0
 17 18  2  0
 18 19  1  0
 19 20  2  0
 20 21  1  0
 21 22  2  0
 22 23  1  0
 23 24  1  0
  8  3  1  0
 16 12  1  0
 22 17  1  0
 24 14  1  0
  1 25  1  0
  1 26  1  0
  1 27  1  0
  4 28  1  0
  5 29  1  0
  6 30  1  0
  7 31  1  0
 18 32  1  0
 19 33  1  0
 20 34  1  0
 21 35  1  0
 24 36  1  0
 24 37  1  0
M  CHG  1   9  -1
M  END
>  <UniqueID>  (60) 
55

>  <SMILES>  (60) 
COc1ccccc1[N-]C(=O)c1nc2c(o1)-c1ccccc1SC2

>  <Energy>  (60) 
82.44977718193688

>  <Genealogy>  (60) 
COc1ccccc1[N-]C(=O)c1nc2c(o1)-c1ccccc1SC2 (protonated)
COc1ccccc1[N-]C(=O)c1nc2c(o1)-c1ccccc1SC2 (3D coordinates assigned)
COc1ccccc1[N-]C(=O)c1nc2c(o1)-c1ccccc1SC2 (nonaromatic ring conformer: 82.44977718193688 kcal/mol)

>  <smiles>  (60) 
COc1ccccc1NC(=O)c1nc2c(o1)-c1ccccc1SC2

>  <score_type>  (60) 
oracle

>  <origin>  (60) 
adg

>  <m_score__min__energy>  (60) 
-11.17

>  <m_primary>  (60) 
energy

$$$$
60:0
     RDKit          3D

 44 46  0  0  0  0  0  0  0  0999 V2000
   60.9710   32.1800   49.7180 C   0  0  0  0  0  0  0  0  0  0  0  0
   59.6690   31.6110   49.3230 N   0  0  0  0  0  0  0  0  0  0  0  0
   58.5420   32.3220   49.9690 C   0  0  0  0  0  0  0  0  0  0  0  0
   57.7720   31.4610   50.9370 C   0  0  0  0  0  0  0  0  0  0  0  0
   57.0270   31.9060   52.0080 C   0  0  0  0  0  0  0  0  0  0  0  0
   56.5580   30.7470   52.5850 C   0  0  0  0  0  0  0  0  0  0  0  0
   57.0080   29.7250   51.8920 O   0  0  0  0  0  0  0  0  0  0  0  0
   57.7440   30.1160   50.8930 N   0  0  0  0  0  0  0  0  0  0  0  0
   59.5150   31.5390   47.8520 C   0  0  0  0  0  0  0  0  0  0  0  0
   58.8290   32.8040   47.2910 C   0  0  1  0  0  0  0  0  0  0  0  0
   59.8810   33.8030   46.7460 C   0  0  0  0  0  0  0  0  0  0  0  0
   59.2660   34.7320   45.6980 C   0  0  0  0  0  0  0  0  0  0  0  0
   58.6850   33.9320   44.5130 C   0  0  0  0  0  0  0  0  0  0  0  0
   58.3900   32.5190   44.8620 N   0  0  0  0  0  0  0  0  0  0  0  0
   57.5100   31.8920   43.8550 C   0  0  0  0  0  0  0  0  0  0  0  0
   56.9630   30.5930   44.3650 C   0  0  0  0  0  0  0  0  0  0  0  0
   57.6930   29.5340   44.8610 C   0  0  0  0  0  0  0  0  0  0  0  0
   56.7660   28.5540   45.1520 C   0  0  0  0  0  0  0  0  0  0  0  0
   55.5590   28.9790   44.8520 O   0  0  0  0  0  0  0  0  0  0  0  0
   55.6420   30.1990   44.3720 C   0  0  0  0  0  0  0  0  0  0  0  0
   57.7850   32.4310   46.2070 C   0  0  0  0  0  0  0  0  0  0  0  0
   61.0402   32.2102   50.8154 H   0  0  0  0  0  0  0  0  0  0  0  0
   61.7816   31.5541   49.3166 H   0  0  0  0  0  0  0  0  0  0  0  0
   61.0623   33.2001   49.3166 H   0  0  0  0  0  0  0  0  0  0  0  0
   58.9427   33.1889   50.5149 H   0  0  0  0  0  0  0  0  0  0  0  0
   57.8450   32.6208   49.1722 H   0  0  0  0  0  0  0  0  0  0  0  0
   56.8489   32.9436   52.3269 H   0  0  0  0  0  0  0  0  0  0  0  0
   55.9152   30.6867   53.4756 H   0  0  0  0  0  0  0  0  0  0  0  0
   60.5097   31.4388   47.3932 H   0  0  0  0  0  0  0  0  0  0  0  0
   58.8838   30.6702   47.6136 H   0  0  0  0  0  0  0  0  0  0  0  0
   58.2916   33.2999   48.1127 H   0  0  0  0  0  0  0  0  0  0  0  0
   60.2680   34.4077   47.5794 H   0  0  0  0  0  0  0  0  0  0  0  0
   60.6936   33.2319   46.2732 H   0  0  0  0  0  0  0  0  0  0  0  0
   58.4599   35.3163   46.1657 H   0  0  0  0  0  0  0  0  0  0  0  0
   60.0555   35.3957   45.3156 H   0  0  0  0  0  0  0  0  0  0  0  0
   57.7525   34.4153   44.1862 H   0  0  0  0  0  0  0  0  0  0  0  0
   59.4423   33.9249   43.7152 H   0  0  0  0  0  0  0  0  0  0  0  0
   56.6751   32.5724   43.6312 H   0  0  0  0  0  0  0  0  0  0  0  0
   58.0968   31.6960   42.9454 H   0  0  0  0  0  0  0  0  0  0  0  0
   58.7834   29.4813   44.9962 H   0  0  0  0  0  0  0  0  0  0  0  0
   57.0019   27.5652   45.5721 H   0  0  0  0  0  0  0  0  0  0  0  0
   54.7928   30.8089   44.0302 H   0  0  0  0  0  0  0  0  0  0  0  0
   56.9340   33.1253   46.2684 H   0  0  0  0  0  0  0  0  0  0  0  0
   57.4427   31.3999   46.3791 H   0  0  0  0  0  0  0  0  0  0  0  0
  1  2  1  0
  2  3  1  0
  3  4  1  0
  4  5  1  0
  5  6  2  0
  6  7  1  0
  7  8  1  0
  2  9  1  0
  9 10  1  0
 10 11  1  0
 11 12  1  0
 12 13  1  0
 13 14  1  0
 14 15  1  0
 15 16  1  0
 16 17  1  0
 17 18  2  0
 18 19  1  0
 19 20  1  0
 14 21  1  0
  8  4  2  0
 21 10  1  0
 20 16  2  0
  1 22  1  0
  1 23  1  0
  1 24  1  0
  3 25  1  0
  3 26  1  0
  5 27  1  0
  6 28  1  0
  9 29  1  0
  9 30  1  0
 10 31  1  1
 11 32  1  0
 11 33  1  0
 12 34  1  0
 12 35  1  0
 13 36  1  0
 13 37  1  0
 15 38  1  0
 15 39  1  0
 17 40  1  0
 18 41  1  0
 20 42  1  0
 21 43  1  0
 21 44  1  0
M  END
>  <UniqueID>  (61) 
56

>  <SMILES>  (61) 
CN(Cc1ccon1)C[C@H]1CCCN(Cc2ccoc2)C1

>  <Energy>  (61) 
107.32895251482874

>  <Genealogy>  (61) 
CN(Cc1ccon1)C[C@H]1CCCN(Cc2ccoc2)C1 (chirality)
CN(Cc1ccon1)C[C@H]1CCCN(Cc2ccoc2)C1 (3D coordinates assigned)
CN(Cc1ccon1)C[C@H]1CCCN(Cc2ccoc2)C1 (nonaromatic ring conformer: 107.32895251482874 kcal/mol)

>  <smiles>  (61) 
CN(Cc1ccon1)CC1CCCN(Cc2ccoc2)C1

>  <score_type>  (61) 
oracle

>  <origin>  (61) 
adg

>  <m_score__min__energy>  (61) 
-7.5899999999999999

>  <m_primary>  (61) 
energy

$$$$
61:0
     RDKit          3D

 52 54  0  0  0  0  0  0  0  0999 V2000
   54.9550   29.5650   43.6450 O   0  0  0  0  0  0  0  0  0  0  0  0
   55.9010   29.3330   44.4460 C   0  0  0  0  0  0  0  0  0  0  0  0
   55.8920   28.1480   45.2470 N   0  0  0  0  0  0  0  0  0  0  0  0
   56.9810   27.1780   45.2740 C   0  0  0  0  0  0  0  0  0  0  0  0
   56.9120   26.3460   46.5690 C   0  0  0  0  0  0  0  0  0  0  0  0
   55.8880   25.2780   46.5650 N   0  0  0  0  0  0  0  0  0  0  0  0
   55.5060   24.8110   45.2220 C   0  0  0  0  0  0  0  0  0  0  0  0
   54.3380   23.8090   45.3280 C   0  0  0  0  0  0  0  0  0  0  0  0
   53.9570   23.5770   46.6730 O   0  0  0  0  0  0  0  0  0  0  0  0
   55.0670   23.1040   47.4140 C   0  0  0  0  0  0  0  0  0  0  0  0
   56.2100   24.1430   47.4470 C   0  0  0  0  0  0  0  0  0  0  0  0
   56.9980   30.3110   44.6040 C   0  0  0  0  0  0  0  0  0  0  0  0
   58.4160   29.8220   44.5180 C   0  0  0  0  0  0  0  0  0  0  0  0
   59.0800   29.8710   45.8680 C   0  0  0  0  0  0  0  0  0  0  0  0
   58.3840   29.4520   47.0150 C   0  0  0  0  0  0  0  0  0  0  0  0
   58.9960   29.5100   48.2700 C   0  0  0  0  0  0  0  0  0  0  0  0
   60.3020   29.9950   48.3900 C   0  0  0  0  0  0  0  0  0  0  0  0
   60.9960   30.4290   47.2550 C   0  0  0  0  0  0  0  0  0  0  0  0
   60.3870   30.3700   45.9980 C   0  0  0  0  0  0  0  0  0  0  0  0
   56.7960   31.5750   44.8600 N   0  0  0  0  0  0  0  0  0  0  0  0
   57.6480   32.7000   44.5790 C   0  0  0  0  0  0  0  0  0  0  0  0
   57.8240   33.0920   43.3950 O   0  0  0  0  0  0  0  0  0  0  0  0
   58.3850   33.3580   45.6840 C   0  0  0  0  0  0  0  0  0  0  0  0
   58.2110   32.9320   47.0150 C   0  0  0  0  0  0  0  0  0  0  0  0
   58.9210   33.5460   48.0520 C   0  0  0  0  0  0  0  0  0  0  0  0
   59.8070   34.5880   47.7760 C   0  0  0  0  0  0  0  0  0  0  0  0
   59.9830   35.0230   46.4600 C   0  0  0  0  0  0  0  0  0  0  0  0
   59.2780   34.4130   45.4190 C   0  0  0  0  0  0  0  0  0  0  0  0
   56.8944   26.5085   44.4055 H   0  0  0  0  0  0  0  0  0  0  0  0
   57.9420   27.7121   45.2381 H   0  0  0  0  0  0  0  0  0  0  0  0
   57.8946   25.8777   46.7280 H   0  0  0  0  0  0  0  0  0  0  0  0
   56.6296   27.0436   47.3713 H   0  0  0  0  0  0  0  0  0  0  0  0
   55.1944   25.6713   44.6115 H   0  0  0  0  0  0  0  0  0  0  0  0
   56.3679   24.3147   44.7520 H   0  0  0  0  0  0  0  0  0  0  0  0
   53.4741   24.2114   44.7787 H   0  0  0  0  0  0  0  0  0  0  0  0
   54.6717   22.8522   44.8999 H   0  0  0  0  0  0  0  0  0  0  0  0
   54.7453   22.8937   48.4447 H   0  0  0  0  0  0  0  0  0  0  0  0
   55.4435   22.1921   46.9275 H   0  0  0  0  0  0  0  0  0  0  0  0
   56.3404   24.5078   48.4765 H   0  0  0  0  0  0  0  0  0  0  0  0
   57.1386   23.6679   47.0978 H   0  0  0  0  0  0  0  0  0  0  0  0
   58.4184   28.7846   44.1522 H   0  0  0  0  0  0  0  0  0  0  0  0
   58.9724   30.4724   43.8271 H   0  0  0  0  0  0  0  0  0  0  0  0
   57.3538   29.0771   46.9245 H   0  0  0  0  0  0  0  0  0  0  0  0
   58.4501   29.1740   49.1639 H   0  0  0  0  0  0  0  0  0  0  0  0
   60.7844   30.0354   49.3777 H   0  0  0  0  0  0  0  0  0  0  0  0
   62.0209   30.8166   47.3519 H   0  0  0  0  0  0  0  0  0  0  0  0
   60.9329   30.7154   45.1077 H   0  0  0  0  0  0  0  0  0  0  0  0
   57.5131   32.1121   47.2403 H   0  0  0  0  0  0  0  0  0  0  0  0
   58.7804   33.2062   49.0887 H   0  0  0  0  0  0  0  0  0  0  0  0
   60.3662   35.0664   48.5935 H   0  0  0  0  0  0  0  0  0  0  0  0
   60.6781   35.8475   46.2429 H   0  0  0  0  0  0  0  0  0  0  0  0
   59.4220   34.7599   44.3851 H   0  0  0  0  0  0  0  0  0  0  0  0
  1  2  2  0
  2  3  1  0
  3  4  1  0
  4  5  1  0
  5  6  1  0
  6  7  1  0
  7  8  1  0
  8  9  1  0
  9 10  1  0
 10 11  1  0
  2 12  1  0
 12 13  1  0
 13 14  1  0
 14 15  2  0
 15 16  1  0
 16 17  2  0
 17 18  1  0
 18 19  2  0
 12 20  2  3
 20 21  1  0
 21 22  2  0
 21 23  1  0
 23 24  2  0
 24 25  1  0
 25 26  2  0
 26 27  1  0
 27 28  2  0
 11  6  1  0
 19 14  1  0
 28 23  1  0
  4 29  1  0
  4 30  1  0
  5 31  1  0
  5 32  1  0
  7 33  1  0
  7 34  1  0
  8 35  1  0
  8 36  1  0
 10 37  1  0
 10 38  1  0
 11 39  1  0
 11 40  1  0
 13 41  1  0
 13 42  1  0
 15 43  1  0
 16 44  1  0
 17 45  1  0
 18 46  1  0
 19 47  1  0
 24 48  1  0
 25 49  1  0
 26 50  1  0
 27 51  1  0
 28 52  1  0
M  CHG  1   3  -1
M  END
>  <UniqueID>  (62) 
57

>  <SMILES>  (62) 
O=C([N-]CCN1CCOCC1)C(Cc1ccccc1)=NC(=O)c1ccccc1

>  <Energy>  (62) 
70.20669393557101

>  <Genealogy>  (62) 
O=C([N-]CCN1CCOCC1)C(Cc1ccccc1)=NC(=O)c1ccccc1 (protonated)
O=C([N-]CCN1CCOCC1)C(Cc1ccccc1)=NC(=O)c1ccccc1 (3D coordinates assigned)
O=C([N-]CCN1CCOCC1)C(Cc1ccccc1)=NC(=O)c1ccccc1 (nonaromatic ring conformer: 70.20669393557101 kcal/mol)

>  <smiles>  (62) 
O=C(NCCN1CCOCC1)C(Cc1ccccc1)=NC(=O)c1ccccc1

>  <score_type>  (62) 
oracle

>  <origin>  (62) 
adg

>  <m_score__min__energy>  (62) 
-11.16

>  <m_primary>  (62) 
energy

$$$$
62:0
     RDKit          3D

 58 60  0  0  0  0  0  0  0  0999 V2000
   67.6790   33.5750   50.7180 C   0  0  0  0  0  0  0  0  0  0  0  0
   66.5330   32.7260   50.2690 C   0  0  0  0  0  0  0  0  0  0  0  0
   66.6840   31.4770   50.1940 O   0  0  0  0  0  0  0  0  0  0  0  0
   65.2520   33.3250   50.0210 N   0  0  0  0  0  0  0  0  0  0  0  0
   64.1400   32.6320   49.4300 C   0  0  0  0  0  0  0  0  0  0  0  0
   63.8230   32.8610   48.0830 C   0  0  0  0  0  0  0  0  0  0  0  0
   62.7530   32.1920   47.4810 C   0  0  0  0  0  0  0  0  0  0  0  0
   61.9880   31.2690   48.2140 C   0  0  0  0  0  0  0  0  0  0  0  0
   60.8400   30.5690   47.5830 C   0  0  0  0  0  0  0  0  0  0  0  0
   60.9720   29.9700   46.3170 C   0  0  0  0  0  0  0  0  0  0  0  0
   59.8850   29.3230   45.7210 C   0  0  0  0  0  0  0  0  0  0  0  0
   58.6520   29.2520   46.3860 C   0  0  0  0  0  0  0  0  0  0  0  0
   57.4600   28.6280   45.7160 C   0  0  0  0  0  0  0  0  0  0  0  0
   56.5720   29.6890   45.2340 N   0  0  0  0  0  0  0  0  0  0  0  0
   56.9130   30.0790   43.8620 C   0  0  0  0  0  0  0  0  0  0  0  0
   58.2070   30.9230   43.8430 C   0  0  0  0  0  0  0  0  0  0  0  0
   58.0640   32.2850   43.2690 N   0  0  0  0  0  0  0  0  0  0  0  0
   57.4460   32.2760   41.9330 C   0  0  0  0  0  0  0  0  0  0  0  0
   57.4040   33.2670   44.1540 C   0  0  0  0  0  0  0  0  0  0  0  0
   58.2380   33.5560   45.3770 C   0  0  0  0  0  0  0  0  0  0  0  0
   59.4710   34.2190   45.2500 C   0  0  0  0  0  0  0  0  0  0  0  0
   60.2460   34.4930   46.3810 C   0  0  0  0  0  0  0  0  0  0  0  0
   59.7910   34.1170   47.6480 C   0  0  0  0  0  0  0  0  0  0  0  0
   58.5590   33.4720   47.7850 C   0  0  0  0  0  0  0  0  0  0  0  0
   57.7810   33.1970   46.6560 C   0  0  0  0  0  0  0  0  0  0  0  0
   58.5140   29.8530   47.6440 C   0  0  0  0  0  0  0  0  0  0  0  0
   59.5980   30.5030   48.2390 C   0  0  0  0  0  0  0  0  0  0  0  0
   62.3240   31.0180   49.5560 C   0  0  0  0  0  0  0  0  0  0  0  0
   63.3940   31.6880   50.1570 C   0  0  0  0  0  0  0  0  0  0  0  0
   67.7098   33.5978   51.8173 H   0  0  0  0  0  0  0  0  0  0  0  0
   68.6198   33.1542   50.3335 H   0  0  0  0  0  0  0  0  0  0  0  0
   67.5505   34.5976   50.3335 H   0  0  0  0  0  0  0  0  0  0  0  0
   65.0960   34.2970   50.3720 H   0  0  0  0  0  0  0  0  0  0  0  0
   64.4212   33.5729   47.4953 H   0  0  0  0  0  0  0  0  0  0  0  0
   62.5085   32.3895   46.4269 H   0  0  0  0  0  0  0  0  0  0  0  0
   61.9377   30.0109   45.7919 H   0  0  0  0  0  0  0  0  0  0  0  0
   59.9974   28.8676   44.7260 H   0  0  0  0  0  0  0  0  0  0  0  0
   57.7942   28.0133   44.8672 H   0  0  0  0  0  0  0  0  0  0  0  0
   56.9219   27.9916   46.4339 H   0  0  0  0  0  0  0  0  0  0  0  0
   56.7020   30.5250   45.8520 H   0  0  0  0  0  0  0  0  0  0  0  0
   57.0628   29.1737   43.2553 H   0  0  0  0  0  0  0  0  0  0  0  0
   56.0903   30.6814   43.4494 H   0  0  0  0  0  0  0  0  0  0  0  0
   58.5618   31.0257   44.8791 H   0  0  0  0  0  0  0  0  0  0  0  0
   58.9113   30.3880   43.1890 H   0  0  0  0  0  0  0  0  0  0  0  0
   56.3509   32.2601   42.0357 H   0  0  0  0  0  0  0  0  0  0  0  0
   57.7496   33.1787   41.3825 H   0  0  0  0  0  0  0  0  0  0  0  0
   57.7757   31.3826   41.3825 H   0  0  0  0  0  0  0  0  0  0  0  0
   57.2495   34.2030   43.5972 H   0  0  0  0  0  0  0  0  0  0  0  0
   56.4432   32.8444   44.4831 H   0  0  0  0  0  0  0  0  0  0  0  0
   59.8281   34.5239   44.2553 H   0  0  0  0  0  0  0  0  0  0  0  0
   61.2139   35.0045   46.2737 H   0  0  0  0  0  0  0  0  0  0  0  0
   60.4028   34.3288   48.5373 H   0  0  0  0  0  0  0  0  0  0  0  0
   58.2004   33.1800   48.7831 H   0  0  0  0  0  0  0  0  0  0  0  0
   56.8075   32.6977   46.7698 H   0  0  0  0  0  0  0  0  0  0  0  0
   57.5467   29.8128   48.1662 H   0  0  0  0  0  0  0  0  0  0  0  0
   59.4789   30.9672   49.2291 H   0  0  0  0  0  0  0  0  0  0  0  0
   61.7406   30.2890   50.1375 H   0  0  0  0  0  0  0  0  0  0  0  0
   63.6535   31.4752   51.2046 H   0  0  0  0  0  0  0  0  0  0  0  0
  1  2  1  0
  2  3  2  0
  2  4  1  0
  4  5  1  0
  5  6  2  0
  6  7  1  0
  7  8  2  0
  8  9  1  0
  9 10  2  0
 10 11  1  0
 11 12  2  0
 12 13  1  0
 13 14  1  0
 14 15  1  0
 15 16  1  0
 16 17  1  0
 17 18  1  0
 17 19  1  0
 19 20  1  0
 20 21  2  0
 21 22  1  0
 22 23  2  0
 23 24  1  0
 24 25  2  0
 12 26  1  0
 26 27  2  0
  8 28  1  0
 28 29  2  0
 29  5  1  0
 27  9  1  0
 25 20  1  0
  1 30  1  0
  1 31  1  0
  1 32  1  0
  4 33  1  0
  6 34  1  0
  7 35  1  0
 10 36  1  0
 11 37  1  0
 13 38  1  0
 13 39  1  0
 14 40  1  0
 15 41  1  0
 15 42  1  0
 16 43  1  0
 16 44  1  0
 18 45  1  0
 18 46  1  0
 18 47  1  0
 19 48  1  0
 19 49  1  0
 21 50  1  0
 22 51  1  0
 23 52  1  0
 24 53  1  0
 25 54  1  0
 26 55  1  0
 27 56  1  0
 28 57  1  0
 29 58  1  0
M  END
>  <UniqueID>  (63) 
58

>  <SMILES>  (63) 
CC(=O)Nc1ccc(-c2ccc(CNCCN(C)Cc3ccccc3)cc2)cc1

>  <Energy>  (63) 
66.73901730705258

>  <Genealogy>  (63) 
CC(=O)Nc1ccc(-c2ccc(CNCCN(C)Cc3ccccc3)cc2)cc1 (3D coordinates assigned)
CC(=O)Nc1ccc(-c2ccc(CNCCN(C)Cc3ccccc3)cc2)cc1 (optimized conformer: 66.73901730705258 kcal/mol)

>  <smiles>  (63) 
CC(=O)Nc1ccc(-c2ccc(CNCCN(C)Cc3ccccc3)cc2)cc1

>  <score_type>  (63) 
oracle

>  <origin>  (63) 
adg

>  <m_score__min__energy>  (63) 
-8.5999999999999996

>  <m_primary>  (63) 
energy

$$$$
63:0
     RDKit          3D

 29 30  0  0  0  0  0  0  0  0999 V2000
   57.0270   23.7330   44.2700 C   0  0  0  0  0  0  0  0  0  0  0  0
   57.8200   23.5190   45.4310 O   0  0  0  0  0  0  0  0  0  0  0  0
   57.2980   23.5970   46.7240 C   0  0  0  0  0  0  0  0  0  0  0  0
   57.1980   22.5640   47.4410 O   0  0  0  0  0  0  0  0  0  0  0  0
   56.8100   24.9170   47.2400 C   0  0  1  0  0  0  0  0  0  0  0  0
   57.6830   26.0900   46.7600 C   0  0  0  0  0  0  0  0  0  0  0  0
   56.6950   26.9190   45.9990 C   0  0  0  0  0  0  0  0  0  0  0  0
   57.0010   28.1990   45.3160 C   0  0  0  0  0  0  0  0  0  0  0  0
   58.3320   28.6130   45.1290 C   0  0  0  0  0  0  0  0  0  0  0  0
   58.6170   29.8190   44.4840 C   0  0  0  0  0  0  0  0  0  0  0  0
   57.5780   30.6410   44.0260 C   0  0  0  0  0  0  0  0  0  0  0  0
   57.8860   31.9160   43.2980 C   0  0  0  0  0  0  0  0  0  0  0  0
   56.2490   30.2260   44.1930 C   0  0  0  0  0  0  0  0  0  0  0  0
   55.9620   29.0190   44.8370 C   0  0  0  0  0  0  0  0  0  0  0  0
   55.5180   26.3930   45.9980 N   0  0  0  0  0  0  0  0  0  0  0  0
   55.5320   25.2200   46.7040 O   0  0  0  0  0  0  0  0  0  0  0  0
   56.0052   24.0088   44.5696 H   0  0  0  0  0  0  0  0  0  0  0  0
   57.4652   24.5450   43.6712 H   0  0  0  0  0  0  0  0  0  0  0  0
   56.9972   22.8108   43.6712 H   0  0  0  0  0  0  0  0  0  0  0  0
   56.8186   24.8162   48.3353 H   0  0  0  0  0  0  0  0  0  0  0  0
   58.1044   26.6486   47.6087 H   0  0  0  0  0  0  0  0  0  0  0  0
   58.5552   25.7807   46.1654 H   0  0  0  0  0  0  0  0  0  0  0  0
   59.1557   27.9818   45.4937 H   0  0  0  0  0  0  0  0  0  0  0  0
   59.6629   30.1253   44.3347 H   0  0  0  0  0  0  0  0  0  0  0  0
   58.0795   32.7168   44.0269 H   0  0  0  0  0  0  0  0  0  0  0  0
   58.7752   31.7721   42.6667 H   0  0  0  0  0  0  0  0  0  0  0  0
   57.0292   32.1939   42.6667 H   0  0  0  0  0  0  0  0  0  0  0  0
   55.4282   30.8534   43.8153 H   0  0  0  0  0  0  0  0  0  0  0  0
   54.9155   28.7074   44.9706 H   0  0  0  0  0  0  0  0  0  0  0  0
  1  2  1  0
  2  3  1  0
  3  4  2  0
  3  5  1  0
  5  6  1  0
  6  7  1  0
  7  8  1  0
  8  9  2  0
  9 10  1  0
 10 11  2  0
 11 12  1  0
 11 13  1  0
 13 14  2  0
  7 15  2  0
 15 16  1  0
 16  5  1  0
 14  8  1  0
  1 17  1  0
  1 18  1  0
  1 19  1  0
  5 20  1  1
  6 21  1  0
  6 22  1  0
  9 23  1  0
 10 24  1  0
 12 25  1  0
 12 26  1  0
 12 27  1  0
 13 28  1  0
 14 29  1  0
M  END
>  <UniqueID>  (64) 
59

>  <SMILES>  (64) 
COC(=O)[C@H]1CC(c2ccc(C)cc2)=NO1

>  <Energy>  (64) 
38.887935538454265

>  <Genealogy>  (64) 
COC(=O)[C@H]1CC(c2ccc(C)cc2)=NO1 (chirality)
COC(=O)[C@H]1CC(c2ccc(C)cc2)=NO1 (3D coordinates assigned)
COC(=O)[C@H]1CC(c2ccc(C)cc2)=NO1 (nonaromatic ring conformer: 38.887935538454265 kcal/mol)

>  <smiles>  (64) 
COC(=O)C1CC(c2ccc(C)cc2)=NO1

>  <score_type>  (64) 
oracle

>  <origin>  (64) 
adg

>  <m_score__min__energy>  (64) 
-6.0700000000000003

>  <m_primary>  (64) 
energy

$$$$
64:0
     RDKit          3D

 37 40  0  0  0  0  0  0  0  0999 V2000
   57.0540   34.5930   44.8680 C   0  0  0  0  0  0  0  0  0  0  0  0
   57.8070   33.6430   45.6830 N   0  0  0  0  0  0  0  0  0  0  0  0
   58.6000   33.9130   46.7440 C   0  0  0  0  0  0  0  0  0  0  0  0
   58.8460   35.0850   47.1400 O   0  0  0  0  0  0  0  0  0  0  0  0
   59.0780   32.7980   47.3570 N   0  0  0  0  0  0  0  0  0  0  0  0
   59.8820   32.8050   48.5880 C   0  0  0  0  0  0  0  0  0  0  0  0
   61.3610   32.9390   48.2990 C   0  0  0  0  0  0  0  0  0  0  0  0
   61.8110   33.5270   47.1000 C   0  0  0  0  0  0  0  0  0  0  0  0
   63.1780   33.6190   46.8260 C   0  0  0  0  0  0  0  0  0  0  0  0
   63.6000   34.2000   45.6770 F   0  0  0  0  0  0  0  0  0  0  0  0
   64.1090   33.1070   47.7310 C   0  0  0  0  0  0  0  0  0  0  0  0
   63.6760   32.4910   48.9070 C   0  0  0  0  0  0  0  0  0  0  0  0
   62.3090   32.3960   49.1880 C   0  0  0  0  0  0  0  0  0  0  0  0
   61.9130   31.7740   50.3280 F   0  0  0  0  0  0  0  0  0  0  0  0
   58.5390   31.7660   46.6450 C   0  0  0  0  0  0  0  0  0  0  0  0
   58.6240   30.3580   46.8070 C   0  0  0  0  0  0  0  0  0  0  0  0
   59.4350   29.6980   47.7510 C   0  0  0  0  0  0  0  0  0  0  0  0
   59.4330   28.3030   47.8380 C   0  0  0  0  0  0  0  0  0  0  0  0
   58.6400   27.5420   46.9810 C   0  0  0  0  0  0  0  0  0  0  0  0
   57.8490   28.1690   46.0190 C   0  0  0  0  0  0  0  0  0  0  0  0
   57.8360   29.5640   45.9170 C   0  0  0  0  0  0  0  0  0  0  0  0
   57.0640   30.1520   44.9530 N   0  0  0  0  0  0  0  0  0  0  0  0
   57.0070   31.5000   44.7910 C   0  0  0  0  0  0  0  0  0  0  0  0
   57.7580   32.3010   45.6450 C   0  0  0  0  0  0  0  0  0  0  0  0
   56.5056   35.2849   45.5241 H   0  0  0  0  0  0  0  0  0  0  0  0
   57.7486   35.1626   44.2331 H   0  0  0  0  0  0  0  0  0  0  0  0
   56.3408   34.0468   44.2331 H   0  0  0  0  0  0  0  0  0  0  0  0
   59.5646   33.6516   49.2145 H   0  0  0  0  0  0  0  0  0  0  0  0
   59.7223   31.8463   49.1032 H   0  0  0  0  0  0  0  0  0  0  0  0
   61.0811   33.9162   46.3749 H   0  0  0  0  0  0  0  0  0  0  0  0
   65.1850   33.1888   47.5177 H   0  0  0  0  0  0  0  0  0  0  0  0
   64.4115   32.0796   49.6140 H   0  0  0  0  0  0  0  0  0  0  0  0
   60.0753   30.2855   48.4254 H   0  0  0  0  0  0  0  0  0  0  0  0
   60.0620   27.8020   48.5885 H   0  0  0  0  0  0  0  0  0  0  0  0
   58.6381   26.4451   47.0636 H   0  0  0  0  0  0  0  0  0  0  0  0
   57.2327   27.5642   45.3375 H   0  0  0  0  0  0  0  0  0  0  0  0
   56.3822   31.9469   44.0037 H   0  0  0  0  0  0  0  0  0  0  0  0
  1  2  1  0
  2  3  1  0
  3  4  2  0
  3  5  1  0
  5  6  1  0
  6  7  1  0
  7  8  2  0
  8  9  1  0
  9 10  1  0
  9 11  2  0
 11 12  1  0
 12 13  2  0
 13 14  1  0
  5 15  1  0
 15 16  2  0
 16 17  1  0
 17 18  2  0
 18 19  1  0
 19 20  2  0
 20 21  1  0
 21 22  2  0
 22 23  1  0
 23 24  2  0
 24  2  1  0
 13  7  1  0
 24 15  1  0
 21 16  1  0
  1 25  1  0
  1 26  1  0
  1 27  1  0
  6 28  1  0
  6 29  1  0
  8 30  1  0
 11 31  1  0
 12 32  1  0
 17 33  1  0
 18 34  1  0
 19 35  1  0
 20 36  1  0
 23 37  1  0
M  END
>  <UniqueID>  (65) 
60

>  <SMILES>  (65) 
Cn1c(=O)n(Cc2cc(F)ccc2F)c2c3ccccc3ncc21

>  <Energy>  (65) 
92.63519081430016

>  <Genealogy>  (65) 
Cn1c(=O)n(Cc2cc(F)ccc2F)c2c3ccccc3ncc21 (3D coordinates assigned)
Cn1c(=O)n(Cc2cc(F)ccc2F)c2c3ccccc3ncc21 (optimized conformer: 92.63519081430016 kcal/mol)

>  <smiles>  (65) 
Cn1c(=O)n(Cc2cc(F)ccc2F)c2c3ccccc3ncc21

>  <score_type>  (65) 
oracle

>  <origin>  (65) 
adg

>  <m_score__min__energy>  (65) 
-7.3200000000000003

>  <m_primary>  (65) 
energy

$$$$
65:0
     RDKit          3D

 27 28  0  0  0  0  0  0  0  0999 V2000
   61.7580   32.1580   47.3320 C   0  0  0  0  0  0  0  0  0  0  0  0
   60.3200   32.0480   46.8320 C   0  0  0  0  0  0  0  0  0  0  0  0
   59.8410   33.3460   46.3530 N   0  0  0  0  0  0  0  0  0  0  0  0
   60.2610   34.5420   46.8020 C   0  0  0  0  0  0  0  0  0  0  0  0
   59.6820   35.5230   46.0300 C   0  0  0  0  0  0  0  0  0  0  0  0
   58.9020   34.9540   45.0900 N   0  0  0  0  0  0  0  0  0  0  0  0
   59.0120   33.6260   45.3170 C   0  0  0  0  0  0  0  0  0  0  0  0
   58.3190   32.6280   44.4750 C   0  0  0  0  0  0  0  0  0  0  0  0
   58.2330   32.8310   43.0890 C   0  0  0  0  0  0  0  0  0  0  0  0
   57.5630   31.9100   42.2820 C   0  0  0  0  0  0  0  0  0  0  0  0
   56.9610   30.7860   42.8510 C   0  0  0  0  0  0  0  0  0  0  0  0
   57.0140   30.5760   44.2410 C   0  0  0  0  0  0  0  0  0  0  0  0
   56.3810   29.4260   44.8340 N   0  0  0  0  0  0  0  0  0  0  0  0
   55.1370   29.3310   44.8680 O   0  0  0  0  0  0  0  0  0  0  0  0
   57.1380   28.4080   45.3680 O   0  0  0  0  0  0  0  0  0  0  0  0
   57.6900   31.5100   45.0460 C   0  0  0  0  0  0  0  0  0  0  0  0
   61.7647   32.1585   48.4320 H   0  0  0  0  0  0  0  0  0  0  0  0
   62.3413   31.3019   46.9622 H   0  0  0  0  0  0  0  0  0  0  0  0
   62.2043   33.0929   46.9622 H   0  0  0  0  0  0  0  0  0  0  0  0
   60.2783   31.3206   46.0079 H   0  0  0  0  0  0  0  0  0  0  0  0
   59.6795   31.7180   47.6632 H   0  0  0  0  0  0  0  0  0  0  0  0
   60.9501   34.7079   47.6432 H   0  0  0  0  0  0  0  0  0  0  0  0
   59.8327   36.6048   46.1602 H   0  0  0  0  0  0  0  0  0  0  0  0
   58.6959   33.7203   42.6364 H   0  0  0  0  0  0  0  0  0  0  0  0
   57.5091   32.0701   41.1951 H   0  0  0  0  0  0  0  0  0  0  0  0
   56.4419   30.0599   42.2081 H   0  0  0  0  0  0  0  0  0  0  0  0
   57.7265   31.3631   46.1355 H   0  0  0  0  0  0  0  0  0  0  0  0
  1  2  1  0
  2  3  1  0
  3  4  1  0
  4  5  2  0
  5  6  1  0
  6  7  2  0
  7  8  1  0
  8  9  2  0
  9 10  1  0
 10 11  2  0
 11 12  1  0
 12 13  1  0
 13 14  2  0
 13 15  1  0
 12 16  2  0
  7  3  1  0
 16  8  1  0
  1 17  1  0
  1 18  1  0
  1 19  1  0
  2 20  1  0
  2 21  1  0
  4 22  1  0
  5 23  1  0
  9 24  1  0
 10 25  1  0
 11 26  1  0
 16 27  1  0
M  CHG  2  13   1  15  -1
M  END
>  <UniqueID>  (66) 
61

>  <SMILES>  (66) 
CCn1ccnc1-c1cccc([N+](=O)[O-])c1

>  <Energy>  (66) 
60.001121110818524

>  <Genealogy>  (66) 
CCn1ccnc1-c1cccc([N+](=O)[O-])c1 (3D coordinates assigned)
CCn1ccnc1-c1cccc([N+](=O)[O-])c1 (optimized conformer: 60.001121110818524 kcal/mol)

>  <smiles>  (66) 
CCn1ccnc1-c1cccc([N+](=O)[O-])c1

>  <score_type>  (66) 
oracle

>  <origin>  (66) 
adg

>  <m_score__min__energy>  (66) 
-6.5499999999999998

>  <m_primary>  (66) 
energy

$$$$
66:0
     RDKit          3D

 37 40  0  0  0  0  0  0  0  0999 V2000
   58.7860   28.6270   47.8980 C   0  0  0  0  0  0  0  0  0  0  0  0
   58.2630   29.0070   46.5790 N   0  0  0  0  0  0  0  0  0  0  0  0
   57.4580   28.1530   45.8540 C   0  0  0  0  0  0  0  0  0  0  0  0
   57.2110   26.9920   46.2840 O   0  0  0  0  0  0  0  0  0  0  0  0
   56.9020   28.5580   44.6630 N   0  0  0  0  0  0  0  0  0  0  0  0
   57.1190   29.8120   44.1670 C   0  0  0  0  0  0  0  0  0  0  0  0
   56.5780   30.1860   43.0920 O   0  0  0  0  0  0  0  0  0  0  0  0
   57.9520   30.6520   44.8850 C   0  0  0  0  0  0  0  0  0  0  0  0
   58.4840   30.2530   46.0740 C   0  0  0  0  0  0  0  0  0  0  0  0
   59.0490   31.3010   46.7240 N   0  0  0  0  0  0  0  0  0  0  0  0
   58.8850   32.2960   45.8140 C   0  0  0  0  0  0  0  0  0  0  0  0
   58.2450   31.9440   44.7090 N   0  0  0  0  0  0  0  0  0  0  0  0
   57.5330   33.0700   44.1310 C   0  0  0  0  0  0  0  0  0  0  0  0
   57.9440   34.2610   45.0470 C   0  0  0  0  0  0  0  0  0  0  0  0
   58.7860   33.6750   46.0970 N   0  0  0  0  0  0  0  0  0  0  0  0
   59.1980   34.3350   47.3310 C   0  0  0  0  0  0  0  0  0  0  0  0
   60.6490   34.0490   47.6030 C   0  0  0  0  0  0  0  0  0  0  0  0
   61.5380   33.8450   46.5360 C   0  0  0  0  0  0  0  0  0  0  0  0
   62.8790   33.5400   46.7850 C   0  0  0  0  0  0  0  0  0  0  0  0
   63.3400   33.4290   48.1000 C   0  0  0  0  0  0  0  0  0  0  0  0
   64.6410   33.1310   48.3400 F   0  0  0  0  0  0  0  0  0  0  0  0
   62.4580   33.6180   49.1680 C   0  0  0  0  0  0  0  0  0  0  0  0
   61.1150   33.9230   48.9220 C   0  0  0  0  0  0  0  0  0  0  0  0
   58.1632   29.0795   48.6837 H   0  0  0  0  0  0  0  0  0  0  0  0
   58.7653   27.5318   47.9990 H   0  0  0  0  0  0  0  0  0  0  0  0
   59.8212   28.9851   47.9990 H   0  0  0  0  0  0  0  0  0  0  0  0
   56.2870   27.8990   44.1340 H   0  0  0  0  0  0  0  0  0  0  0  0
   57.8487   33.2447   43.0919 H   0  0  0  0  0  0  0  0  0  0  0  0
   56.4448   32.9153   44.0877 H   0  0  0  0  0  0  0  0  0  0  0  0
   58.5100   35.0098   44.4734 H   0  0  0  0  0  0  0  0  0  0  0  0
   57.0667   34.7751   45.4666 H   0  0  0  0  0  0  0  0  0  0  0  0
   59.0526   35.4207   47.2303 H   0  0  0  0  0  0  0  0  0  0  0  0
   58.5907   33.9550   48.1658 H   0  0  0  0  0  0  0  0  0  0  0  0
   61.1778   33.9255   45.4998 H   0  0  0  0  0  0  0  0  0  0  0  0
   63.5726   33.3871   45.9451 H   0  0  0  0  0  0  0  0  0  0  0  0
   62.8202   33.5268   50.2026 H   0  0  0  0  0  0  0  0  0  0  0  0
   60.4218   34.0646   49.7643 H   0  0  0  0  0  0  0  0  0  0  0  0
  1  2  1  0
  2  3  1  0
  3  4  2  0
  3  5  1  0
  5  6  1  0
  6  7  2  0
  6  8  1  0
  8  9  2  0
  9 10  1  0
 10 11  2  0
 11 12  1  0
 12 13  1  0
 13 14  1  0
 14 15  1  0
 15 16  1  0
 16 17  1  0
 17 18  2  0
 18 19  1  0
 19 20  2  0
 20 21  1  0
 20 22  1  0
 22 23  2  0
  9  2  1  0
 15 11  1  0
 23 17  1  0
 12  8  1  0
  1 24  1  0
  1 25  1  0
  1 26  1  0
  5 27  1  0
 13 28  1  0
 13 29  1  0
 14 30  1  0
 14 31  1  0
 16 32  1  0
 16 33  1  0
 18 34  1  0
 19 35  1  0
 22 36  1  0
 23 37  1  0
M  END
>  <UniqueID>  (67) 
62

>  <SMILES>  (67) 
Cn1c(=O)[nH]c(=O)c2c1nc1n2CCN1Cc1ccc(F)cc1

>  <Energy>  (67) 
110.6672858924487

>  <Genealogy>  (67) 
Cn1c(=O)[nH]c(=O)c2c1nc1n2CCN1Cc1ccc(F)cc1 (3D coordinates assigned)
Cn1c(=O)[nH]c(=O)c2c1nc1n2CCN1Cc1ccc(F)cc1 (nonaromatic ring conformer: 110.6672858924487 kcal/mol)

>  <smiles>  (67) 
Cn1c(=O)[nH]c(=O)c2c1nc1n2CCN1Cc1ccc(F)cc1

>  <score_type>  (67) 
oracle

>  <origin>  (67) 
adg

>  <m_score__min__energy>  (67) 
-7.2300000000000004

>  <m_primary>  (67) 
energy

$$$$
67:0
     RDKit          3D

 59 61  0  0  0  0  0  0  0  0999 V2000
   57.0090   21.0620   42.9840 C   0  0  0  0  0  0  0  0  0  0  0  0
   56.2960   21.1850   44.3280 C   0  0  0  0  0  0  0  0  0  0  0  0
   56.1900   22.6270   44.7450 C   0  0  0  0  0  0  0  0  0  0  0  0
   54.9330   23.2060   44.9820 C   0  0  0  0  0  0  0  0  0  0  0  0
   54.8340   24.5430   45.3760 C   0  0  0  0  0  0  0  0  0  0  0  0
   55.9920   25.3120   45.5660 C   0  0  0  0  0  0  0  0  0  0  0  0
   55.9110   26.6970   45.9300 N   0  0  0  0  0  0  0  0  0  0  0  0
   57.0230   27.5940   46.0240 C   0  0  0  0  0  0  0  0  0  0  0  0
   57.5050   27.8480   47.1580 O   0  0  0  0  0  0  0  0  0  0  0  0
   57.5380   28.3370   44.8280 C   0  0  0  0  0  0  0  0  0  0  0  0
   56.9120   30.0510   44.8770 S   0  0  0  0  0  0  0  0  0  0  0  0
   58.2860   30.6740   45.8640 C   0  0  0  0  0  0  0  0  0  0  0  0
   58.9930   29.7910   46.6090 N   0  0  0  0  0  0  0  0  0  0  0  0
   60.0400   30.1840   47.3750 C   0  0  0  0  0  0  0  0  0  0  0  0
   60.6980   29.3070   47.9970 O   0  0  0  0  0  0  0  0  0  0  0  0
   60.3840   31.5120   47.4660 N   0  0  0  0  0  0  0  0  0  0  0  0
   61.6020   31.8730   48.2300 C   0  0  0  0  0  0  0  0  0  0  0  0
   62.8550   31.6430   47.3570 C   0  0  0  0  0  0  0  0  0  0  0  0
   63.7940   32.7850   47.3220 N   0  0  0  0  0  0  0  0  0  0  0  0
   63.3740   33.8490   46.3930 C   0  0  0  0  0  0  0  0  0  0  0  0
   64.0920   33.3250   48.6560 C   0  0  0  0  0  0  0  0  0  0  0  0
   59.6600   32.4590   46.7610 C   0  0  0  0  0  0  0  0  0  0  0  0
   58.6250   32.0360   45.8840 C   0  0  0  0  0  0  0  0  0  0  0  0
   57.8490   33.0190   45.0290 C   0  0  0  0  0  0  0  0  0  0  0  0
   58.5890   34.3390   44.8360 C   0  0  0  0  0  0  0  0  0  0  0  0
   59.0080   34.8860   46.1900 C   0  0  0  0  0  0  0  0  0  0  0  0
   60.0090   33.9440   46.8680 C   0  0  0  0  0  0  0  0  0  0  0  0
   57.2470   24.7400   45.3200 C   0  0  0  0  0  0  0  0  0  0  0  0
   57.3470   23.4010   44.9280 C   0  0  0  0  0  0  0  0  0  0  0  0
   58.0802   20.8772   43.1527 H   0  0  0  0  0  0  0  0  0  0  0  0
   56.5777   20.2250   42.4153 H   0  0  0  0  0  0  0  0  0  0  0  0
   56.8830   21.9951   42.4153 H   0  0  0  0  0  0  0  0  0  0  0  0
   55.2855   20.7593   44.2407 H   0  0  0  0  0  0  0  0  0  0  0  0
   56.8762   20.6396   45.0869 H   0  0  0  0  0  0  0  0  0  0  0  0
   54.0211   22.6037   44.8568 H   0  0  0  0  0  0  0  0  0  0  0  0
   53.8440   24.9944   45.5379 H   0  0  0  0  0  0  0  0  0  0  0  0
   58.6378   28.3456   44.8448 H   0  0  0  0  0  0  0  0  0  0  0  0
   57.1945   27.8425   43.9074 H   0  0  0  0  0  0  0  0  0  0  0  0
   58.7350   28.7780   46.5800 H   0  0  0  0  0  0  0  0  0  0  0  0
   61.5495   32.9324   48.5215 H   0  0  0  0  0  0  0  0  0  0  0  0
   61.6660   31.2435   49.1298 H   0  0  0  0  0  0  0  0  0  0  0  0
   63.3925   30.7677   47.7507 H   0  0  0  0  0  0  0  0  0  0  0  0
   62.4974   31.4993   46.3267 H   0  0  0  0  0  0  0  0  0  0  0  0
   63.0294   34.7219   46.9669 H   0  0  0  0  0  0  0  0  0  0  0  0
   64.2249   34.1394   45.7593 H   0  0  0  0  0  0  0  0  0  0  0  0
   62.5541   33.4799   45.7593 H   0  0  0  0  0  0  0  0  0  0  0  0
   63.7115   32.6355   49.4240 H   0  0  0  0  0  0  0  0  0  0  0  0
   65.1801   33.4379   48.7712 H   0  0  0  0  0  0  0  0  0  0  0  0
   63.6074   34.3058   48.7712 H   0  0  0  0  0  0  0  0  0  0  0  0
   57.6734   32.5658   44.0422 H   0  0  0  0  0  0  0  0  0  0  0  0
   56.9043   33.2390   45.5478 H   0  0  0  0  0  0  0  0  0  0  0  0
   59.4818   34.1718   44.2156 H   0  0  0  0  0  0  0  0  0  0  0  0
   57.9266   35.0617   44.3370 H   0  0  0  0  0  0  0  0  0  0  0  0
   59.4761   35.8719   46.0522 H   0  0  0  0  0  0  0  0  0  0  0  0
   58.1161   34.9731   46.8279 H   0  0  0  0  0  0  0  0  0  0  0  0
   60.9942   34.0990   46.4040 H   0  0  0  0  0  0  0  0  0  0  0  0
   59.9926   34.1913   47.9397 H   0  0  0  0  0  0  0  0  0  0  0  0
   58.1575   25.3464   45.4356 H   0  0  0  0  0  0  0  0  0  0  0  0
   58.3374   22.9520   44.7622 H   0  0  0  0  0  0  0  0  0  0  0  0
  1  2  1  0
  2  3  1  0
  3  4  2  0
  4  5  1  0
  5  6  2  0
  6  7  1  0
  7  8  1  0
  8  9  2  0
  8 10  1  0
 10 11  1  0
 11 12  1  0
 12 13  2  0
 13 14  1  0
 14 15  2  0
 14 16  1  0
 16 17  1  0
 17 18  1  0
 18 19  1  0
 19 20  1  0
 19 21  1  0
 16 22  1  0
 22 23  2  0
 23 24  1  0
 24 25  1  0
 25 26  1  0
 26 27  1  0
  6 28  1  0
 28 29  2  0
 29  3  1  0
 23 12  1  0
 27 22  1  0
  1 30  1  0
  1 31  1  0
  1 32  1  0
  2 33  1  0
  2 34  1  0
  4 35  1  0
  5 36  1  0
 10 37  1  0
 10 38  1  0
 13 39  1  0
 17 40  1  0
 17 41  1  0
 18 42  1  0
 18 43  1  0
 20 44  1  0
 20 45  1  0
 20 46  1  0
 21 47  1  0
 21 48  1  0
 21 49  1  0
 24 50  1  0
 24 51  1  0
 25 52  1  0
 25 53  1  0
 26 54  1  0
 26 55  1  0
 27 56  1  0
 27 57  1  0
 28 58  1  0
 29 59  1  0
M  CHG  2   7  -1  13   1
M  END
>  <UniqueID>  (68) 
63

>  <SMILES>  (68) 
CCc1ccc([N-]C(=O)CSc2[nH+]c(=O)n(CCN(C)C)c3c2CCCC3)cc1

>  <Energy>  (68) 
63.933698935522045

>  <Genealogy>  (68) 
CCc1ccc([N-]C(=O)CSc2[nH+]c(=O)n(CCN(C)C)c3c2CCCC3)cc1 (protonated)
CCc1ccc([N-]C(=O)CSc2[nH+]c(=O)n(CCN(C)C)c3c2CCCC3)cc1 (3D coordinates assigned)
CCc1ccc([N-]C(=O)CSc2[nH+]c(=O)n(CCN(C)C)c3c2CCCC3)cc1 (nonaromatic ring conformer: 63.933698935522045 kcal/mol)

>  <smiles>  (68) 
CCc1ccc(NC(=O)CSc2nc(=O)n(CCN(C)C)c3c2CCCC3)cc1

>  <score_type>  (68) 
oracle

>  <origin>  (68) 
adg

>  <m_score__min__energy>  (68) 
-9.2200000000000006

>  <m_primary>  (68) 
energy

$$$$
68:0
     RDKit          3D

 50 52  0  0  0  0  0  0  0  0999 V2000
   62.1140   34.5600   49.3350 C   0  0  0  0  0  0  0  0  0  0  0  0
   62.1180   33.5690   48.2520 N   0  0  0  0  0  0  0  0  0  0  0  0
   61.7940   34.0000   46.8840 C   0  0  0  0  0  0  0  0  0  0  0  0
   60.3880   33.5920   46.5290 C   0  0  0  0  0  0  0  0  0  0  0  0
   59.3830   34.5610   46.3810 C   0  0  0  0  0  0  0  0  0  0  0  0
   58.0720   34.1760   46.0890 C   0  0  0  0  0  0  0  0  0  0  0  0
   57.7530   32.8250   45.9410 C   0  0  0  0  0  0  0  0  0  0  0  0
   58.7490   31.8450   46.0800 C   0  0  0  0  0  0  0  0  0  0  0  0
   58.4110   30.4110   45.9370 C   0  0  0  0  0  0  0  0  0  0  0  0
   57.5690   30.0330   44.8840 C   0  0  0  0  0  0  0  0  0  0  0  0
   57.2440   28.6950   44.6760 C   0  0  0  0  0  0  0  0  0  0  0  0
   57.7540   27.6930   45.5140 C   0  0  0  0  0  0  0  0  0  0  0  0
   57.3540   26.3280   45.3040 N   0  0  0  0  0  0  0  0  0  0  0  0
   56.0790   25.8130   45.7180 C   0  0  0  0  0  0  0  0  0  0  0  0
   55.1820   26.5910   46.1450 O   0  0  0  0  0  0  0  0  0  0  0  0
   55.7750   24.3530   45.5690 C   0  0  0  0  0  0  0  0  0  0  0  0
   54.6930   23.9980   46.3840 O   0  0  0  0  0  0  0  0  0  0  0  0
   58.5970   28.0500   46.5940 C   0  0  0  0  0  0  0  0  0  0  0  0
   59.1430   27.0750   47.4510 C   0  0  0  0  0  0  0  0  0  0  0  0
   59.9510   27.4620   48.5180 C   0  0  0  0  0  0  0  0  0  0  0  0
   60.2150   28.7740   48.7330 N   0  0  0  0  0  0  0  0  0  0  0  0
   59.7260   29.7470   47.9230 C   0  0  0  0  0  0  0  0  0  0  0  0
   58.9190   29.4190   46.8140 C   0  0  0  0  0  0  0  0  0  0  0  0
   60.0620   32.2330   46.3900 C   0  0  0  0  0  0  0  0  0  0  0  0
   62.5050   32.1980   48.5080 C   0  0  0  0  0  0  0  0  0  0  0  0
   62.8200   31.4430   47.5480 O   0  0  0  0  0  0  0  0  0  0  0  0
   62.4950   31.6160   49.8940 C   0  0  0  0  0  0  0  0  0  0  0  0
   62.0740   30.2200   49.8480 N   0  0  0  0  0  0  0  0  0  0  0  0
   62.1161   34.0424   50.3056 H   0  0  0  0  0  0  0  0  0  0  0  0
   63.0096   35.1937   49.2554 H   0  0  0  0  0  0  0  0  0  0  0  0
   61.2133   35.1865   49.2554 H   0  0  0  0  0  0  0  0  0  0  0  0
   61.8825   35.0944   46.8173 H   0  0  0  0  0  0  0  0  0  0  0  0
   62.4940   33.5230   46.1822 H   0  0  0  0  0  0  0  0  0  0  0  0
   59.6285   35.6271   46.4953 H   0  0  0  0  0  0  0  0  0  0  0  0
   57.2887   34.9399   45.9754 H   0  0  0  0  0  0  0  0  0  0  0  0
   56.7185   32.5273   45.7149 H   0  0  0  0  0  0  0  0  0  0  0  0
   57.1593   30.8023   44.2129 H   0  0  0  0  0  0  0  0  0  0  0  0
   56.5789   28.4207   43.8439 H   0  0  0  0  0  0  0  0  0  0  0  0
   58.0050   25.6840   44.8000 H   0  0  0  0  0  0  0  0  0  0  0  0
   55.5246   24.1394   44.5194 H   0  0  0  0  0  0  0  0  0  0  0  0
   56.6577   23.7703   45.8709 H   0  0  0  0  0  0  0  0  0  0  0  0
   54.3130   24.8440   46.7430 H   0  0  0  0  0  0  0  0  0  0  0  0
   58.9318   26.0094   47.2782 H   0  0  0  0  0  0  0  0  0  0  0  0
   60.3761   26.7003   49.1882 H   0  0  0  0  0  0  0  0  0  0  0  0
   59.9612   30.8008   48.1334 H   0  0  0  0  0  0  0  0  0  0  0  0
   60.8405   31.4677   46.5249 H   0  0  0  0  0  0  0  0  0  0  0  0
   63.5066   31.6771   50.3217 H   0  0  0  0  0  0  0  0  0  0  0  0
   61.7900   32.1845   50.5183 H   0  0  0  0  0  0  0  0  0  0  0  0
   61.0870   30.1640   50.1900 H   0  0  0  0  0  0  0  0  0  0  0  0
   62.0580   29.9240   48.8460 H   0  0  0  0  0  0  0  0  0  0  0  0
  1  2  1  0
  2  3  1  0
  3  4  1  0
  4  5  2  0
  5  6  1  0
  6  7  2  0
  7  8  1  0
  8  9  1  0
  9 10  2  0
 10 11  1  0
 11 12  2  0
 12 13  1  0
 13 14  1  0
 14 15  2  0
 14 16  1  0
 16 17  1  0
 12 18  1  0
 18 19  2  0
 19 20  1  0
 20 21  2  0
 21 22  1  0
 22 23  2  0
  8 24  2  0
  2 25  1  0
 25 26  2  0
 25 27  1  0
 27 28  1  0
 24  4  1  0
 23  9  1  0
 23 18  1  0
  1 29  1  0
  1 30  1  0
  1 31  1  0
  3 32  1  0
  3 33  1  0
  5 34  1  0
  6 35  1  0
  7 36  1  0
 10 37  1  0
 11 38  1  0
 13 39  1  0
 16 40  1  0
 16 41  1  0
 17 42  1  0
 19 43  1  0
 20 44  1  0
 22 45  1  0
 24 46  1  0
 27 47  1  0
 27 48  1  0
 28 49  1  0
 28 50  1  0
M  END
>  <UniqueID>  (69) 
64

>  <SMILES>  (69) 
CN(Cc1cccc(-c2ccc(NC(=O)CO)c3ccncc23)c1)C(=O)CN

>  <Energy>  (69) 
64.37917766535266

>  <Genealogy>  (69) 
CN(Cc1cccc(-c2ccc(NC(=O)CO)c3ccncc23)c1)C(=O)CN (3D coordinates assigned)
CN(Cc1cccc(-c2ccc(NC(=O)CO)c3ccncc23)c1)C(=O)CN (optimized conformer: 64.37917766535266 kcal/mol)

>  <smiles>  (69) 
CN(Cc1cccc(-c2ccc(NC(=O)CO)c3ccncc23)c1)C(=O)CN

>  <score_type>  (69) 
oracle

>  <origin>  (69) 
adg

>  <m_score__min__energy>  (69) 
-8.7699999999999996

>  <m_primary>  (69) 
energy

$$$$
69:0
     RDKit          3D

 38 40  0  0  0  0  0  0  0  0999 V2000
   60.2191   32.9092   44.6461 H   0  0  0  0  0  0  0  0  0  0  0  0
   58.4950   32.4710   45.9780 C   0  0  0  0  0  0  0  0  0  0  0  0
   59.7340   33.1710   45.5980 C   0  0  0  0  0  0  0  0  0  0  0  0
   59.6470   35.7620   46.3670 Cl  0  0  0  0  0  0  0  0  0  0  0  0
   60.2940   34.1170   46.3700 C   0  0  0  0  0  0  0  0  0  0  0  0
   58.9570   30.7630   47.7080 C   0  0  0  0  0  0  0  0  0  0  0  0
   58.4980   31.3270   48.7390 O   0  0  0  0  0  0  0  0  0  0  0  0
   59.9670   29.7400   47.8370 N   0  0  2  0  0  0  0  0  0  0  0  0
   59.9400   29.3610   48.8140 H   0  0  0  0  0  0  0  0  0  0  0  0
   61.2940   30.3280   47.6040 C   0  0  0  0  0  0  0  0  0  0  0  0
   61.7753   30.5413   48.5699 H   0  0  0  0  0  0  0  0  0  0  0  0
   61.9137   29.6202   47.0339 H   0  0  0  0  0  0  0  0  0  0  0  0
   61.1860   31.2625   47.0339 H   0  0  0  0  0  0  0  0  0  0  0  0
   59.7490   28.6430   46.9160 C   0  0  0  0  0  0  0  0  0  0  0  0
   60.2960   27.5310   47.1540 O   0  0  0  0  0  0  0  0  0  0  0  0
   58.9080   28.7980   45.6950 C   0  0  0  0  0  0  0  0  0  0  0  0
   58.6970   27.7050   44.8340 C   0  0  0  0  0  0  0  0  0  0  0  0
   59.2308   26.7594   45.0097 H   0  0  0  0  0  0  0  0  0  0  0  0
   57.8140   27.8140   43.7580 C   0  0  0  0  0  0  0  0  0  0  0  0
   57.6723   26.9629   43.0757 H   0  0  0  0  0  0  0  0  0  0  0  0
   57.1120   28.9990   43.5470 C   0  0  0  0  0  0  0  0  0  0  0  0
   56.3953   29.0723   42.7157 H   0  0  0  0  0  0  0  0  0  0  0  0
   61.3300   33.8040   48.6320 C   0  0  0  0  0  0  0  0  0  0  0  0
   60.3548   34.0335   49.0862 H   0  0  0  0  0  0  0  0  0  0  0  0
   61.4660   33.8110   47.2310 C   0  0  0  0  0  0  0  0  0  0  0  0
   58.4970   31.1660   46.3590 C   0  0  0  0  0  0  0  0  0  0  0  0
   57.0140   33.3560   45.6210 Cl  0  0  0  0  0  0  0  0  0  0  0  0
   58.2630   30.0280   45.4320 C   0  0  0  0  0  0  0  0  0  0  0  0
   62.7190   33.4910   46.6700 C   0  0  0  0  0  0  0  0  0  0  0  0
   62.8398   33.4749   45.5768 H   0  0  0  0  0  0  0  0  0  0  0  0
   62.4230   33.5080   49.4510 C   0  0  0  0  0  0  0  0  0  0  0  0
   62.3070   33.5143   50.5448 H   0  0  0  0  0  0  0  0  0  0  0  0
   63.6630   33.2040   48.8830 C   0  0  0  0  0  0  0  0  0  0  0  0
   65.0330   32.8310   49.9140 Cl  0  0  0  0  0  0  0  0  0  0  0  0
   63.8090   33.1940   47.4930 C   0  0  0  0  0  0  0  0  0  0  0  0
   64.7843   32.9518   47.0456 H   0  0  0  0  0  0  0  0  0  0  0  0
   57.3170   30.0930   44.3890 C   0  0  0  0  0  0  0  0  0  0  0  0
   56.7352   31.0141   44.2374 H   0  0  0  0  0  0  0  0  0  0  0  0
  1  2  1  0
  2  3  1  0
  3  4  1  0
  3  5  2  3
  5  6  1  0
  6  7  2  0
  6  8  1  0
  8  9  1  1
  8 10  1  0
 10 11  1  0
 10 12  1  0
 10 13  1  0
  8 14  1  0
 14 15  2  0
 14 16  1  0
 16 17  2  0
 17 18  1  0
 17 19  1  0
 19 20  1  0
 19 21  2  0
 21 22  1  0
 21 23  1  0
 23 24  1  0
 23 25  2  0
  2 26  2  0
 26 27  1  0
 26 28  1  0
 28 29  2  0
 29 30  1  0
 29 31  1  0
 31 32  1  0
 31 33  2  0
 33 34  1  0
 33 35  1  0
 35 36  1  0
 35 37  2  0
 37 38  1  0
 25  5  1  0
 37 28  1  0
 25 16  1  0
M  CHG  1   8   1
M  END
>  <UniqueID>  (70) 
65

>  <SMILES>  (70) 
C[N@H+]1C(=O)C(=C(Cl)/C=C(\Cl)c2ccc(Cl)cc2)c2ccccc2C1=O

>  <Energy>  (70) 
72.45049065946517

>  <Genealogy>  (70) 
C[NH+]1C(=O)C(=C(Cl)C=C(Cl)c2ccc(Cl)cc2)c2ccccc2C1=O (protonated)
C[N@H+]1C(=O)C(=C(Cl)C=C(Cl)c2ccc(Cl)cc2)c2ccccc2C1=O (chirality)
C[N@H+]1C(=O)C(=C(Cl)/C=C(\Cl)c2ccc(Cl)cc2)c2ccccc2C1=O (cis-trans isomerization)
C[N@H+]1C(=O)C(=C(Cl)/C=C(\Cl)c2ccc(Cl)cc2)c2ccccc2C1=O (3D coordinates assigned)
C[N@H+]1C(=O)C(=C(Cl)/C=C(\Cl)c2ccc(Cl)cc2)c2ccccc2C1=O (nonaromatic ring conformer: 72.45049065946517 kcal/mol)

>  <smiles>  (70) 
CN1C(=O)C(=C(Cl)C=C(Cl)c2ccc(Cl)cc2)c2ccccc2C1=O

>  <score_type>  (70) 
oracle

>  <origin>  (70) 
adg

>  <m_score__min__energy>  (70) 
-7.9800000000000004

>  <m_primary>  (70) 
energy

$$$$
70:0
     RDKit          3D

 40 42  0  0  0  0  0  0  0  0999 V2000
   55.6760   30.4890   44.4980 O   0  0  0  0  0  0  0  0  0  0  0  0
   56.9630   30.8580   43.8110 S   0  0  0  0  0  0  0  0  0  0  0  0
   56.6700   31.1340   42.3620 O   0  0  0  0  0  0  0  0  0  0  0  0
   57.6270   32.2990   44.5760 C   0  0  0  0  0  0  0  0  0  0  0  0
   57.1970   32.6910   45.8540 C   0  0  0  0  0  0  0  0  0  0  0  0
   57.7150   33.8480   46.4440 C   0  0  0  0  0  0  0  0  0  0  0  0
   58.6600   34.6190   45.7610 C   0  0  0  0  0  0  0  0  0  0  0  0
   59.0850   34.2360   44.4850 C   0  0  0  0  0  0  0  0  0  0  0  0
   58.5690   33.0800   43.8920 C   0  0  0  0  0  0  0  0  0  0  0  0
   58.1020   29.5410   43.9550 N   0  0  2  0  0  0  0  0  0  0  0  0
   57.4920   28.3730   44.5900 C   0  0  0  0  0  0  0  0  0  0  0  0
   58.5490   27.8130   45.5090 C   0  0  0  0  0  0  0  0  0  0  0  0
   59.4040   28.9410   45.8890 N   0  0  0  0  0  0  0  0  0  0  0  0
   58.9820   29.5370   47.1740 C   0  0  0  0  0  0  0  0  0  0  0  0
   59.8470   30.7220   47.5200 C   0  0  0  0  0  0  0  0  0  0  0  0
   59.3260   31.7660   48.3040 C   0  0  0  0  0  0  0  0  0  0  0  0
   60.1220   32.8710   48.6220 C   0  0  0  0  0  0  0  0  0  0  0  0
   61.4390   32.9420   48.1600 C   0  0  0  0  0  0  0  0  0  0  0  0
   61.9640   31.9080   47.3800 C   0  0  0  0  0  0  0  0  0  0  0  0
   61.1720   30.8000   47.0600 C   0  0  0  0  0  0  0  0  0  0  0  0
   59.2670   29.9060   44.7820 C   0  0  0  0  0  0  0  0  0  0  0  0
   56.4515   32.0869   46.3918 H   0  0  0  0  0  0  0  0  0  0  0  0
   57.3786   34.1517   47.4463 H   0  0  0  0  0  0  0  0  0  0  0  0
   59.0694   35.5272   46.2274 H   0  0  0  0  0  0  0  0  0  0  0  0
   59.8264   34.8452   43.9472 H   0  0  0  0  0  0  0  0  0  0  0  0
   58.9027   32.7827   42.8869 H   0  0  0  0  0  0  0  0  0  0  0  0
   58.4210   29.2820   42.9920 H   0  0  0  0  0  0  0  0  0  0  0  0
   56.6017   28.6692   45.1641 H   0  0  0  0  0  0  0  0  0  0  0  0
   57.1635   27.6310   43.8474 H   0  0  0  0  0  0  0  0  0  0  0  0
   58.0822   27.3713   46.4018 H   0  0  0  0  0  0  0  0  0  0  0  0
   59.1296   27.0205   45.0142 H   0  0  0  0  0  0  0  0  0  0  0  0
   57.9351   29.8651   47.0936 H   0  0  0  0  0  0  0  0  0  0  0  0
   59.0845   28.7804   47.9659 H   0  0  0  0  0  0  0  0  0  0  0  0
   58.2894   31.7137   48.6683 H   0  0  0  0  0  0  0  0  0  0  0  0
   59.7109   33.6854   49.2366 H   0  0  0  0  0  0  0  0  0  0  0  0
   62.0630   33.8126   48.4105 H   0  0  0  0  0  0  0  0  0  0  0  0
   63.0009   31.9654   47.0173 H   0  0  0  0  0  0  0  0  0  0  0  0
   61.5881   29.9874   46.4463 H   0  0  0  0  0  0  0  0  0  0  0  0
   59.1238   30.9167   45.1919 H   0  0  0  0  0  0  0  0  0  0  0  0
   60.1766   29.8873   44.1638 H   0  0  0  0  0  0  0  0  0  0  0  0
  1  2  2  0
  2  3  2  0
  2  4  1  0
  4  5  2  0
  5  6  1  0
  6  7  2  0
  7  8  1  0
  8  9  2  0
  2 10  1  0
 10 11  1  0
 11 12  1  0
 12 13  1  0
 13 14  1  0
 14 15  1  0
 15 16  2  0
 16 17  1  0
 17 18  2  0
 18 19  1  0
 19 20  2  0
 13 21  1  0
  9  4  1  0
 21 10  1  0
 20 15  1  0
  5 22  1  0
  6 23  1  0
  7 24  1  0
  8 25  1  0
  9 26  1  0
 10 27  1  6
 11 28  1  0
 11 29  1  0
 12 30  1  0
 12 31  1  0
 14 32  1  0
 14 33  1  0
 16 34  1  0
 17 35  1  0
 18 36  1  0
 19 37  1  0
 20 38  1  0
 21 39  1  0
 21 40  1  0
M  CHG  1  10   1
M  END
>  <UniqueID>  (71) 
66

>  <SMILES>  (71) 
O=S(=O)(c1ccccc1)[N@@H+]1CCN(Cc2ccccc2)C1

>  <Energy>  (71) 
45.431028783161764

>  <Genealogy>  (71) 
O=S(=O)(c1ccccc1)[NH+]1CCN(Cc2ccccc2)C1 (protonated)
O=S(=O)(c1ccccc1)[N@@H+]1CCN(Cc2ccccc2)C1 (chirality)
O=S(=O)(c1ccccc1)[N@@H+]1CCN(Cc2ccccc2)C1 (3D coordinates assigned)
O=S(=O)(c1ccccc1)[N@@H+]1CCN(Cc2ccccc2)C1 (nonaromatic ring conformer: 45.431028783161764 kcal/mol)

>  <smiles>  (71) 
O=S(=O)(c1ccccc1)N1CCN(Cc2ccccc2)C1

>  <score_type>  (71) 
oracle

>  <origin>  (71) 
adg

>  <m_score__min__energy>  (71) 
-6.4100000000000001

>  <m_primary>  (71) 
energy

$$$$
71:0
     RDKit          3D

 42 44  0  0  0  0  0  0  0  0999 V2000
   57.6845   31.8781   43.5849 H   0  0  0  0  0  0  0  0  0  0  0  0
   57.4260   31.9820   44.6490 C   0  0  0  0  0  0  0  0  0  0  0  0
   57.3550   30.9320   45.4080 N   0  0  0  0  0  0  0  0  0  0  0  0
   57.5670   29.6210   44.9410 N   0  0  0  0  0  0  0  0  0  0  0  0
   58.1230   28.6120   45.6420 C   0  0  0  0  0  0  0  0  0  0  0  0
   58.6760   28.7300   47.0320 C   0  0  0  0  0  0  0  0  0  0  0  0
   59.6255   28.1779   47.0921 H   0  0  0  0  0  0  0  0  0  0  0  0
   57.9480   28.3101   47.7417 H   0  0  0  0  0  0  0  0  0  0  0  0
   58.9070   30.1000   47.3630 O   0  0  0  0  0  0  0  0  0  0  0  0
   60.1360   30.6410   47.7750 C   0  0  0  0  0  0  0  0  0  0  0  0
   60.5990   30.5600   49.1020 C   0  0  0  0  0  0  0  0  0  0  0  0
   59.9885   30.0534   49.8640 H   0  0  0  0  0  0  0  0  0  0  0  0
   61.8290   31.1190   49.4570 C   0  0  0  0  0  0  0  0  0  0  0  0
   62.1733   31.0663   50.5004 H   0  0  0  0  0  0  0  0  0  0  0  0
   62.6270   31.7470   48.4900 C   0  0  0  0  0  0  0  0  0  0  0  0
   63.9320   32.3760   48.8810 C   0  0  0  0  0  0  0  0  0  0  0  0
   64.0074   32.4124   49.9778 H   0  0  0  0  0  0  0  0  0  0  0  0
   64.7626   31.7793   48.4759 H   0  0  0  0  0  0  0  0  0  0  0  0
   63.9826   33.3974   48.4759 H   0  0  0  0  0  0  0  0  0  0  0  0
   62.1630   31.8390   47.1710 C   0  0  0  0  0  0  0  0  0  0  0  0
   62.7718   32.3503   46.4108 H   0  0  0  0  0  0  0  0  0  0  0  0
   60.9300   31.2840   46.8170 C   0  0  0  0  0  0  0  0  0  0  0  0
   60.5800   31.3529   45.7764 H   0  0  0  0  0  0  0  0  0  0  0  0
   58.1060   27.4600   44.9390 N   0  0  0  0  0  0  0  0  0  0  0  0
   57.5230   27.7390   43.7820 N   0  0  0  0  0  0  0  0  0  0  0  0
   57.3300   27.0400   43.0300 H   0  0  0  0  0  0  0  0  0  0  0  0
   57.1910   29.0420   43.7820 C   0  0  0  0  0  0  0  0  0  0  0  0
   56.2840   29.7440   42.6120 S   0  0  0  0  0  0  0  0  0  0  0  0
   57.1550   33.3330   45.2270 C   0  0  0  0  0  0  0  0  0  0  0  0
   57.0893   34.0713   44.4142 H   0  0  0  0  0  0  0  0  0  0  0  0
   56.2055   33.3065   45.7818 H   0  0  0  0  0  0  0  0  0  0  0  0
   58.2680   33.7200   46.1650 C   0  0  0  0  0  0  0  0  0  0  0  0
   58.2220   33.3380   47.5160 C   0  0  0  0  0  0  0  0  0  0  0  0
   57.3955   32.7102   47.8803 H   0  0  0  0  0  0  0  0  0  0  0  0
   59.2230   33.7530   48.3990 C   0  0  0  0  0  0  0  0  0  0  0  0
   59.1898   33.4399   49.4530 H   0  0  0  0  0  0  0  0  0  0  0  0
   60.2660   34.5650   47.9450 C   0  0  0  0  0  0  0  0  0  0  0  0
   61.0502   34.8941   48.6427 H   0  0  0  0  0  0  0  0  0  0  0  0
   60.3130   34.9590   46.6050 C   0  0  0  0  0  0  0  0  0  0  0  0
   61.1337   35.5990   46.2488 H   0  0  0  0  0  0  0  0  0  0  0  0
   59.3170   34.5400   45.7160 C   0  0  0  0  0  0  0  0  0  0  0  0
   59.3553   34.8535   44.6623 H   0  0  0  0  0  0  0  0  0  0  0  0
  1  2  1  0
  2  3  2  0
  3  4  1  0
  4  5  1  0
  5  6  1  0
  6  7  1  0
  6  8  1  0
  6  9  1  0
  9 10  1  0
 10 11  2  0
 11 12  1  0
 11 13  1  0
 13 14  1  0
 13 15  2  0
 15 16  1  0
 16 17  1  0
 16 18  1  0
 16 19  1  0
 15 20  1  0
 20 21  1  0
 20 22  2  0
 22 23  1  0
  5 24  2  0
 24 25  1  0
 25 26  1  0
 25 27  1  0
 27 28  2  0
  2 29  1  0
 29 30  1  0
 29 31  1  0
 29 32  1  0
 32 33  2  0
 33 34  1  0
 33 35  1  0
 35 36  1  0
 35 37  2  0
 37 38  1  0
 37 39  1  0
 39 40  1  0
 39 41  2  0
 41 42  1  0
 27  4  1  0
 41 32  1  0
 22 10  1  0
M  END
>  <UniqueID>  (72) 
67

>  <SMILES>  (72) 
Cc1ccc(OCc2n[nH]c(=S)n2/N=C/Cc2ccccc2)cc1

>  <Energy>  (72) 
79.66614020227918

>  <Genealogy>  (72) 
Cc1ccc(OCc2n[nH]c(=S)n2/N=C/Cc2ccccc2)cc1 (cis-trans isomerization)
Cc1ccc(OCc2n[nH]c(=S)n2/N=C/Cc2ccccc2)cc1 (3D coordinates assigned)
Cc1ccc(OCc2n[nH]c(=S)n2/N=C/Cc2ccccc2)cc1 (optimized conformer: 79.66614020227918 kcal/mol)

>  <smiles>  (72) 
Cc1ccc(OCc2n[nH]c(=S)n2N=CCc2ccccc2)cc1

>  <score_type>  (72) 
oracle

>  <origin>  (72) 
adg

>  <m_score__min__energy>  (72) 
-7.9400000000000004

>  <m_primary>  (72) 
energy

$$$$
72:0
     RDKit          3D

 34 35  0  0  0  0  0  0  0  0999 V2000
   53.9020   26.7110   46.1170 H   0  0  0  0  0  0  0  0  0  0  0  0
   54.7200   26.0740   45.9900 N   0  0  0  0  0  0  0  0  0  0  0  0
   55.9290   26.5300   45.9970 C   0  0  0  0  0  0  0  0  0  0  0  0
   56.2570   27.7740   45.5860 N   0  0  0  0  0  0  0  0  0  0  0  0
   57.5620   28.0190   45.6830 N   0  0  0  0  0  0  0  0  0  0  0  0
   58.2640   26.9690   46.1640 C   0  0  0  0  0  0  0  0  0  0  0  0
   60.0370   26.9950   46.4180 S   0  0  0  0  0  0  0  0  0  0  0  0
   59.9720   28.1340   47.8440 C   0  0  0  0  0  0  0  0  0  0  0  0
   59.0546   27.9396   48.4189 H   0  0  0  0  0  0  0  0  0  0  0  0
   60.8604   27.9648   48.4702 H   0  0  0  0  0  0  0  0  0  0  0  0
   59.9720   29.5600   47.3880 C   0  0  0  0  0  0  0  0  0  0  0  0
   60.9900   30.2750   47.5940 O   0  0  0  0  0  0  0  0  0  0  0  0
   58.8340   30.0910   46.6900 N   0  0  0  0  0  0  0  0  0  0  0  0
   58.1420   29.4100   46.3020 H   0  0  0  0  0  0  0  0  0  0  0  0
   58.6300   31.4940   46.4410 C   0  0  0  0  0  0  0  0  0  0  0  0
   59.3950   32.4620   47.1170 C   0  0  0  0  0  0  0  0  0  0  0  0
   60.1751   32.1422   47.8235 H   0  0  0  0  0  0  0  0  0  0  0  0
   59.1740   33.8330   46.9000 C   0  0  0  0  0  0  0  0  0  0  0  0
   59.9180   34.8270   47.5540 O   0  0  0  0  0  0  0  0  0  0  0  0
   60.7900   34.5870   48.6550 C   0  0  0  0  0  0  0  0  0  0  0  0
   60.2418   34.7379   49.5966 H   0  0  0  0  0  0  0  0  0  0  0  0
   61.1624   33.5530   48.6092 H   0  0  0  0  0  0  0  0  0  0  0  0
   61.6391   35.2849   48.6092 H   0  0  0  0  0  0  0  0  0  0  0  0
   58.1760   34.2300   46.0080 C   0  0  0  0  0  0  0  0  0  0  0  0
   58.0012   35.3008   45.8268 H   0  0  0  0  0  0  0  0  0  0  0  0
   57.3980   33.2800   45.3440 C   0  0  0  0  0  0  0  0  0  0  0  0
   56.6116   33.6077   44.6481 H   0  0  0  0  0  0  0  0  0  0  0  0
   57.6130   31.9050   45.5590 C   0  0  0  0  0  0  0  0  0  0  0  0
   56.8460   30.9250   44.9060 O   0  0  0  0  0  0  0  0  0  0  0  0
   57.0610   30.4880   43.5680 C   0  0  0  0  0  0  0  0  0  0  0  0
   57.5466   29.5010   43.5782 H   0  0  0  0  0  0  0  0  0  0  0  0
   56.0954   30.4162   43.0461 H   0  0  0  0  0  0  0  0  0  0  0  0
   57.7071   31.2092   43.0461 H   0  0  0  0  0  0  0  0  0  0  0  0
   57.2680   25.6540   46.5130 S   0  0  0  0  0  0  0  0  0  0  0  0
  1  2  1  0
  2  3  2  0
  3  4  1  0
  4  5  1  0
  5  6  2  0
  6  7  1  0
  7  8  1  0
  8  9  1  0
  8 10  1  0
  8 11  1  0
 11 12  2  0
 11 13  1  0
 13 14  1  0
 13 15  1  0
 15 16  2  0
 16 17  1  0
 16 18  1  0
 18 19  1  0
 19 20  1  0
 20 21  1  0
 20 22  1  0
 20 23  1  0
 18 24  2  0
 24 25  1  0
 24 26  1  0
 26 27  1  0
 26 28  2  0
 28 29  1  0
 29 30  1  0
 30 31  1  0
 30 32  1  0
 30 33  1  0
  6 34  1  0
 34  3  1  0
 28 15  1  0
M  CHG  1   4  -1
M  END
>  <UniqueID>  (73) 
68

>  <SMILES>  (73) 
[H]/N=c1\[n-]nc(SCC(=O)Nc2cc(OC)ccc2OC)s1

>  <Energy>  (73) 
65.13748316236708

>  <Genealogy>  (73) 
COc1ccc(OC)c(NC(=O)CSc2n[n-]c(=N)s2)c1 (protonated)
[H]/N=c1\[n-]nc(SCC(=O)Nc2cc(OC)ccc2OC)s1 (cis-trans isomerization)
[H]/N=c1\[n-]nc(SCC(=O)Nc2cc(OC)ccc2OC)s1 (3D coordinates assigned)
[H]/N=c1\[n-]nc(SCC(=O)Nc2cc(OC)ccc2OC)s1 (optimized conformer: 65.13748316236708 kcal/mol)

>  <smiles>  (73) 
COc1ccc(OC)c(NC(=O)CSc2n[nH]c(=N)s2)c1

>  <score_type>  (73) 
oracle

>  <origin>  (73) 
adg

>  <m_score__min__energy>  (73) 
-8.5

>  <m_primary>  (73) 
energy

$$$$
73:0
     RDKit          3D

 28 30  0  0  0  0  0  0  0  0999 V2000
   60.8030   30.3900   47.2130 O   0  0  0  0  0  0  0  0  0  0  0  0
   59.9820   31.1070   46.5790 C   0  0  0  0  0  0  0  0  0  0  0  0
   58.7060   30.5330   46.0990 C   0  0  0  0  0  0  0  0  0  0  0  0
   58.3870   29.1770   46.2900 C   0  0  0  0  0  0  0  0  0  0  0  0
   57.2000   28.6540   45.7670 C   0  0  0  0  0  0  0  0  0  0  0  0
   56.8200   26.9570   46.0120 Cl  0  0  0  0  0  0  0  0  0  0  0  0
   56.3280   29.4820   45.0440 C   0  0  0  0  0  0  0  0  0  0  0  0
   55.1500   28.9680   44.5120 O   0  0  0  0  0  0  0  0  0  0  0  0
   56.6410   30.8310   44.8550 C   0  0  0  0  0  0  0  0  0  0  0  0
   57.8180   31.3620   45.3930 C   0  0  0  0  0  0  0  0  0  0  0  0
   58.1130   32.7180   45.2200 O   0  0  0  0  0  0  0  0  0  0  0  0
   59.0750   33.3840   46.0370 C   0  0  0  0  0  0  0  0  0  0  0  0
   60.3450   32.5280   46.2010 C   0  0  1  0  0  0  0  0  0  0  0  0
   61.2880   33.1670   47.2030 C   0  0  0  0  0  0  0  0  0  0  0  0
   60.7920   33.6640   48.4200 C   0  0  0  0  0  0  0  0  0  0  0  0
   61.6720   34.2350   49.3430 C   0  0  0  0  0  0  0  0  0  0  0  0
   63.0010   34.3030   49.0670 N   0  0  0  0  0  0  0  0  0  0  0  0
   63.5130   33.8260   47.9020 C   0  0  0  0  0  0  0  0  0  0  0  0
   62.6680   33.2470   46.9510 C   0  0  0  0  0  0  0  0  0  0  0  0
   59.0727   28.5259   46.8521 H   0  0  0  0  0  0  0  0  0  0  0  0
   55.9599   31.4769   44.2816 H   0  0  0  0  0  0  0  0  0  0  0  0
   59.3445   34.3417   45.5678 H   0  0  0  0  0  0  0  0  0  0  0  0
   58.6348   33.5530   47.0308 H   0  0  0  0  0  0  0  0  0  0  0  0
   60.8752   32.4816   45.2383 H   0  0  0  0  0  0  0  0  0  0  0  0
   59.7169   33.6039   48.6449 H   0  0  0  0  0  0  0  0  0  0  0  0
   61.2883   34.6303   50.2951 H   0  0  0  0  0  0  0  0  0  0  0  0
   64.5934   33.8956   47.7073 H   0  0  0  0  0  0  0  0  0  0  0  0
   63.0814   32.8558   46.0097 H   0  0  0  0  0  0  0  0  0  0  0  0
  1  2  2  0
  2  3  1  0
  3  4  2  0
  4  5  1  0
  5  6  1  0
  5  7  2  0
  7  8  1  0
  7  9  1  0
  9 10  2  0
 10 11  1  0
 11 12  1  0
 12 13  1  0
 13 14  1  0
 14 15  2  0
 15 16  1  0
 16 17  2  0
 17 18  1  0
 18 19  2  0
 13  2  1  0
 19 14  1  0
 10  3  1  0
  4 20  1  0
  9 21  1  0
 12 22  1  0
 12 23  1  0
 13 24  1  6
 15 25  1  0
 16 26  1  0
 18 27  1  0
 19 28  1  0
M  CHG  1   8  -1
M  END
>  <UniqueID>  (74) 
69

>  <SMILES>  (74) 
O=C1c2cc(Cl)c([O-])cc2OC[C@H]1c1ccncc1

>  <Energy>  (74) 
34.89121164756824

>  <Genealogy>  (74) 
O=C1c2cc(Cl)c([O-])cc2OCC1c1ccncc1 (protonated)
O=C1c2cc(Cl)c([O-])cc2OC[C@H]1c1ccncc1 (chirality)
O=C1c2cc(Cl)c([O-])cc2OC[C@H]1c1ccncc1 (3D coordinates assigned)
O=C1c2cc(Cl)c([O-])cc2OC[C@H]1c1ccncc1 (nonaromatic ring conformer: 34.89121164756824 kcal/mol)

>  <smiles>  (74) 
O=C1c2cc(Cl)c(O)cc2OCC1c1ccncc1

>  <score_type>  (74) 
oracle

>  <origin>  (74) 
adg

>  <m_score__min__energy>  (74) 
-9

>  <m_primary>  (74) 
energy

$$$$
74:0
     RDKit          3D

 48 51  0  0  0  0  0  0  0  0999 V2000
   62.0890   34.1870   48.7100 C   0  0  0  0  0  0  0  0  0  0  0  0
   60.8600   33.9090   47.8990 C   0  0  0  0  0  0  0  0  0  0  0  0
   60.0340   34.9710   47.4650 C   0  0  0  0  0  0  0  0  0  0  0  0
   58.8980   34.6960   46.6910 C   0  0  0  0  0  0  0  0  0  0  0  0
   58.6380   33.4050   46.3630 N   0  0  0  0  0  0  0  0  0  0  0  0
   57.5970   32.9750   45.6700 N   0  0  0  0  0  0  0  0  0  0  0  0
   57.7190   31.6300   45.5950 C   0  0  0  0  0  0  0  0  0  0  0  0
   56.8170   30.7930   44.9300 O   0  0  0  0  0  0  0  0  0  0  0  0
   57.1780   30.0130   43.7940 C   0  0  0  0  0  0  0  0  0  0  0  0
   57.3380   28.5700   44.1900 C   0  0  0  0  0  0  0  0  0  0  0  0
   58.0430   27.6770   43.3700 C   0  0  0  0  0  0  0  0  0  0  0  0
   58.1450   26.3290   43.7220 C   0  0  0  0  0  0  0  0  0  0  0  0
   57.5440   25.8570   44.8960 C   0  0  0  0  0  0  0  0  0  0  0  0
   57.6720   24.1540   45.3210 S   0  0  0  0  0  0  0  0  0  0  0  0
   57.1170   23.1590   43.9540 C   0  0  0  0  0  0  0  0  0  0  0  0
   56.8240   23.8560   46.5260 O   0  0  0  0  0  0  0  0  0  0  0  0
   59.1030   23.8210   45.6410 O   0  0  0  0  0  0  0  0  0  0  0  0
   56.8310   26.7460   45.7120 C   0  0  0  0  0  0  0  0  0  0  0  0
   56.7270   28.0950   45.3600 C   0  0  0  0  0  0  0  0  0  0  0  0
   58.8680   31.2020   46.2530 C   0  0  0  0  0  0  0  0  0  0  0  0
   59.3490   29.8140   46.4100 C   0  0  0  0  0  0  0  0  0  0  0  0
   60.2290   29.2590   45.4640 C   0  0  0  0  0  0  0  0  0  0  0  0
   60.6840   27.9450   45.6110 C   0  0  0  0  0  0  0  0  0  0  0  0
   60.2710   27.1780   46.7020 C   0  0  0  0  0  0  0  0  0  0  0  0
   59.4070   27.7250   47.6550 C   0  0  0  0  0  0  0  0  0  0  0  0
   58.9490   29.0390   47.5130 C   0  0  0  0  0  0  0  0  0  0  0  0
   59.4200   32.3770   46.7340 C   0  0  0  0  0  0  0  0  0  0  0  0
   60.5510   32.5860   47.5260 C   0  0  0  0  0  0  0  0  0  0  0  0
   61.8423   34.1312   49.7805 H   0  0  0  0  0  0  0  0  0  0  0  0
   62.8616   33.4409   48.4724 H   0  0  0  0  0  0  0  0  0  0  0  0
   62.4653   35.1930   48.4724 H   0  0  0  0  0  0  0  0  0  0  0  0
   60.2816   36.0086   47.7335 H   0  0  0  0  0  0  0  0  0  0  0  0
   58.2336   35.5068   46.3577 H   0  0  0  0  0  0  0  0  0  0  0  0
   56.3908   30.0960   43.0301 H   0  0  0  0  0  0  0  0  0  0  0  0
   58.1312   30.3841   43.3894 H   0  0  0  0  0  0  0  0  0  0  0  0
   58.5175   28.0394   42.4461 H   0  0  0  0  0  0  0  0  0  0  0  0
   58.7000   25.6347   43.0740 H   0  0  0  0  0  0  0  0  0  0  0  0
   56.6146   22.2582   44.3363 H   0  0  0  0  0  0  0  0  0  0  0  0
   56.4123   23.7394   43.3403 H   0  0  0  0  0  0  0  0  0  0  0  0
   57.9811   22.8643   43.3403 H   0  0  0  0  0  0  0  0  0  0  0  0
   56.3517   26.3811   46.6324 H   0  0  0  0  0  0  0  0  0  0  0  0
   56.1636   28.7869   46.0033 H   0  0  0  0  0  0  0  0  0  0  0  0
   60.5607   29.8608   44.6051 H   0  0  0  0  0  0  0  0  0  0  0  0
   61.3688   27.5147   44.8654 H   0  0  0  0  0  0  0  0  0  0  0  0
   60.6257   26.1426   46.8117 H   0  0  0  0  0  0  0  0  0  0  0  0
   59.0870   27.1216   48.5173 H   0  0  0  0  0  0  0  0  0  0  0  0
   58.2730   29.4679   48.2674 H   0  0  0  0  0  0  0  0  0  0  0  0
   61.1810   31.7439   47.8486 H   0  0  0  0  0  0  0  0  0  0  0  0
  1  2  1  0
  2  3  1  0
  3  4  2  0
  4  5  1  0
  5  6  1  0
  6  7  2  0
  7  8  1  0
  8  9  1  0
  9 10  1  0
 10 11  2  0
 11 12  1  0
 12 13  2  0
 13 14  1  0
 14 15  1  0
 14 16  2  0
 14 17  2  0
 13 18  1  0
 18 19  2  0
  7 20  1  0
 20 21  1  0
 21 22  2  0
 22 23  1  0
 23 24  2  0
 24 25  1  0
 25 26  2  0
 20 27  2  0
 27 28  1  0
 28  2  2  0
 27  5  1  0
 19 10  1  0
 26 21  1  0
  1 29  1  0
  1 30  1  0
  1 31  1  0
  3 32  1  0
  4 33  1  0
  9 34  1  0
  9 35  1  0
 11 36  1  0
 12 37  1  0
 15 38  1  0
 15 39  1  0
 15 40  1  0
 18 41  1  0
 19 42  1  0
 22 43  1  0
 23 44  1  0
 24 45  1  0
 25 46  1  0
 26 47  1  0
 28 48  1  0
M  END
>  <UniqueID>  (75) 
70

>  <SMILES>  (75) 
Cc1ccn2nc(OCc3ccc(S(C)(=O)=O)cc3)c(-c3ccccc3)c2c1

>  <Energy>  (75) 
87.03133190180195

>  <Genealogy>  (75) 
Cc1ccn2nc(OCc3ccc(S(C)(=O)=O)cc3)c(-c3ccccc3)c2c1 (3D coordinates assigned)
Cc1ccn2nc(OCc3ccc(S(C)(=O)=O)cc3)c(-c3ccccc3)c2c1 (optimized conformer: 87.03133190180195 kcal/mol)

>  <smiles>  (75) 
Cc1ccn2nc(OCc3ccc(S(C)(=O)=O)cc3)c(-c3ccccc3)c2c1

>  <score_type>  (75) 
oracle

>  <origin>  (75) 
adg

>  <m_score__min__energy>  (75) 
-9.3399999999999999

>  <m_primary>  (75) 
energy

$$$$
75:0
     RDKit          3D

 71 75  0  0  0  0  0  0  0  0999 V2000
   58.1900   27.4580   43.2680 C   0  0  0  0  0  0  0  0  0  0  0  0
   57.4070   27.9790   44.3980 N   0  0  0  0  0  0  0  0  0  0  0  0
   58.1470   28.1190   45.6800 C   0  0  0  0  0  0  0  0  0  0  0  0
   57.8390   26.9010   46.5980 C   0  0  0  0  0  0  0  0  0  0  0  0
   59.0810   26.0710   46.9450 C   0  0  0  0  0  0  0  0  0  0  0  0
   60.1880   26.9370   47.5720 C   0  0  0  0  0  0  0  0  0  0  0  0
   60.3610   28.3130   46.8920 C   0  0  0  0  0  0  0  0  0  0  0  0
   59.6730   28.3770   45.5240 C   0  0  0  0  0  0  0  0  0  0  0  0
   56.5250   29.4210   43.9480 S   0  0  0  0  0  0  0  0  0  0  0  0
   56.3930   29.4820   42.4520 O   0  0  0  0  0  0  0  0  0  0  0  0
   55.1390   29.3490   44.5270 O   0  0  0  0  0  0  0  0  0  0  0  0
   57.3130   30.8980   44.5070 C   0  0  0  0  0  0  0  0  0  0  0  0
   57.4560   31.9850   43.6440 C   0  0  0  0  0  0  0  0  0  0  0  0
   58.0640   33.1620   44.0820 C   0  0  0  0  0  0  0  0  0  0  0  0
   58.5450   33.2810   45.4060 C   0  0  0  0  0  0  0  0  0  0  0  0
   58.4010   32.1720   46.2810 C   0  0  0  0  0  0  0  0  0  0  0  0
   57.7820   30.9930   45.8220 C   0  0  0  0  0  0  0  0  0  0  0  0
   58.8760   32.2700   47.6010 C   0  0  0  0  0  0  0  0  0  0  0  0
   58.7510   31.2960   48.3950 O   0  0  0  0  0  0  0  0  0  0  0  0
   59.4790   33.4580   48.0400 C   0  0  0  0  0  0  0  0  0  0  0  0
   60.0080   33.5930   49.4200 C   0  0  0  0  0  0  0  0  0  0  0  0
   59.6420   34.5730   50.1260 O   0  0  0  0  0  0  0  0  0  0  0  0
   60.8960   32.6090   49.9830 N   0  0  0  0  0  0  0  0  0  0  0  0
   60.7990   32.3000   51.4180 C   0  0  0  0  0  0  0  0  0  0  0  0
   61.9050   31.3400   51.8650 C   0  0  0  0  0  0  0  0  0  0  0  0
   62.0430   30.2500   50.8910 N   0  0  0  0  0  0  0  0  0  0  0  0
   62.0340   28.8770   51.3240 C   0  0  0  0  0  0  0  0  0  0  0  0
   61.1040   27.9660   50.7940 C   0  0  0  0  0  0  0  0  0  0  0  0
   61.0990   26.6340   51.2180 C   0  0  0  0  0  0  0  0  0  0  0  0
   62.0200   26.2010   52.1760 C   0  0  0  0  0  0  0  0  0  0  0  0
   62.9440   27.1000   52.7140 C   0  0  0  0  0  0  0  0  0  0  0  0
   62.9520   28.4320   52.2920 C   0  0  0  0  0  0  0  0  0  0  0  0
   62.1620   30.5600   49.4570 C   0  0  0  0  0  0  0  0  0  0  0  0
   62.0090   32.0630   49.1900 C   0  0  0  0  0  0  0  0  0  0  0  0
   59.6030   34.5260   47.1430 C   0  0  0  0  0  0  0  0  0  0  0  0
   59.1430   34.4390   45.8580 N   0  0  0  0  0  0  0  0  0  0  0  0
   59.3100   35.6120   44.9840 C   0  0  0  0  0  0  0  0  0  0  0  0
   59.0489   26.8865   43.6496 H   0  0  0  0  0  0  0  0  0  0  0  0
   57.5559   26.8011   42.6545 H   0  0  0  0  0  0  0  0  0  0  0  0
   58.5510   28.2966   42.6545 H   0  0  0  0  0  0  0  0  0  0  0  0
   57.7785   29.0371   46.1610 H   0  0  0  0  0  0  0  0  0  0  0  0
   57.3954   27.2727   47.5334 H   0  0  0  0  0  0  0  0  0  0  0  0
   57.1524   26.2429   46.0452 H   0  0  0  0  0  0  0  0  0  0  0  0
   58.7960   25.2847   47.6595 H   0  0  0  0  0  0  0  0  0  0  0  0
   59.4728   25.6350   46.0142 H   0  0  0  0  0  0  0  0  0  0  0  0
   59.9417   27.1018   48.6313 H   0  0  0  0  0  0  0  0  0  0  0  0
   61.1348   26.3926   47.4406 H   0  0  0  0  0  0  0  0  0  0  0  0
   59.9267   29.0862   47.5428 H   0  0  0  0  0  0  0  0  0  0  0  0
   61.4372   28.4776   46.7352 H   0  0  0  0  0  0  0  0  0  0  0  0
   59.8304   29.3728   45.0839 H   0  0  0  0  0  0  0  0  0  0  0  0
   60.1032   27.6055   44.8684 H   0  0  0  0  0  0  0  0  0  0  0  0
   57.0866   31.9135   42.6104 H   0  0  0  0  0  0  0  0  0  0  0  0
   58.1705   34.0086   43.3878 H   0  0  0  0  0  0  0  0  0  0  0  0
   57.6660   30.1380   46.5043 H   0  0  0  0  0  0  0  0  0  0  0  0
   60.8851   33.2351   51.9909 H   0  0  0  0  0  0  0  0  0  0  0  0
   59.8287   31.8150   51.6002 H   0  0  0  0  0  0  0  0  0  0  0  0
   62.8563   31.8875   51.9372 H   0  0  0  0  0  0  0  0  0  0  0  0
   61.6440   30.9181   52.8468 H   0  0  0  0  0  0  0  0  0  0  0  0
   60.3761   28.3031   50.0414 H   0  0  0  0  0  0  0  0  0  0  0  0
   60.3697   25.9261   50.7974 H   0  0  0  0  0  0  0  0  0  0  0  0
   62.0173   25.1518   52.5065 H   0  0  0  0  0  0  0  0  0  0  0  0
   63.6660   26.7590   53.4706 H   0  0  0  0  0  0  0  0  0  0  0  0
   63.6806   29.1366   52.7194 H   0  0  0  0  0  0  0  0  0  0  0  0
   63.1504   30.2331   49.1018 H   0  0  0  0  0  0  0  0  0  0  0  0
   61.3584   30.0319   48.9228 H   0  0  0  0  0  0  0  0  0  0  0  0
   62.9403   32.5781   49.4680 H   0  0  0  0  0  0  0  0  0  0  0  0
   61.7987   32.2183   48.1215 H   0  0  0  0  0  0  0  0  0  0  0  0
   60.0818   35.4572   47.4799 H   0  0  0  0  0  0  0  0  0  0  0  0
   59.4384   36.5136   45.6009 H   0  0  0  0  0  0  0  0  0  0  0  0
   60.1974   35.4728   44.3490 H   0  0  0  0  0  0  0  0  0  0  0  0
   58.4190   35.7260   44.3490 H   0  0  0  0  0  0  0  0  0  0  0  0
  1  2  1  0
  2  3  1  0
  3  4  1  0
  4  5  1  0
  5  6  1  0
  6  7  1  0
  7  8  1  0
  2  9  1  0
  9 10  2  0
  9 11  2  0
  9 12  1  0
 12 13  2  0
 13 14  1  0
 14 15  2  0
 15 16  1  0
 16 17  2  0
 16 18  1  0
 18 19  2  0
 18 20  1  0
 20 21  1  0
 21 22  2  0
 21 23  1  0
 23 24  1  0
 24 25  1  0
 25 26  1  0
 26 27  1  0
 27 28  2  0
 28 29  1  0
 29 30  2  0
 30 31  1  0
 31 32  2  0
 26 33  1  0
 33 34  1  0
 20 35  2  0
 35 36  1  0
 36 37  1  0
  8  3  1  0
 17 12  1  0
 34 23  1  0
 36 15  1  0
 32 27  1  0
  1 38  1  0
  1 39  1  0
  1 40  1  0
  3 41  1  0
  4 42  1  0
  4 43  1  0
  5 44  1  0
  5 45  1  0
  6 46  1  0
  6 47  1  0
  7 48  1  0
  7 49  1  0
  8 50  1  0
  8 51  1  0
 13 52  1  0
 14 53  1  0
 17 54  1  0
 24 55  1  0
 24 56  1  0
 25 57  1  0
 25 58  1  0
 28 59  1  0
 29 60  1  0
 30 61  1  0
 31 62  1  0
 32 63  1  0
 33 64  1  0
 33 65  1  0
 34 66  1  0
 34 67  1  0
 35 68  1  0
 37 69  1  0
 37 70  1  0
 37 71  1  0
M  END
>  <UniqueID>  (76) 
71

>  <SMILES>  (76) 
CN(C1CCCCC1)S(=O)(=O)c1ccc2c(c1)c(=O)c(C(=O)N1CCN(c3ccccc3)CC1)cn2C

>  <Energy>  (76) 
101.60680014588235

>  <Genealogy>  (76) 
CN(C1CCCCC1)S(=O)(=O)c1ccc2c(c1)c(=O)c(C(=O)N1CCN(c3ccccc3)CC1)cn2C (3D coordinates assigned)
CN(C1CCCCC1)S(=O)(=O)c1ccc2c(c1)c(=O)c(C(=O)N1CCN(c3ccccc3)CC1)cn2C (nonaromatic ring conformer: 101.60680014588235 kcal/mol)

>  <smiles>  (76) 
CN(C1CCCCC1)S(=O)(=O)c1ccc2c(c1)c(=O)c(C(=O)N1CCN(c3ccccc3)CC1)cn2C

>  <score_type>  (76) 
oracle

>  <origin>  (76) 
adg

>  <m_score__min__energy>  (76) 
-11.210000000000001

>  <m_primary>  (76) 
energy

$$$$
76:0
     RDKit          3D

 31 33  0  0  0  0  0  0  0  0999 V2000
   58.1271   31.9927   43.3066 H   0  0  0  0  0  0  0  0  0  0  0  0
   57.8520   31.0520   43.8060 C   0  0  0  0  0  0  0  0  0  0  0  0
   56.5130   30.7830   44.1000 C   0  0  0  0  0  0  0  0  0  0  0  0
   55.7352   31.5142   43.8350 H   0  0  0  0  0  0  0  0  0  0  0  0
   56.1600   29.5870   44.7300 C   0  0  0  0  0  0  0  0  0  0  0  0
   55.1042   29.3824   44.9612 H   0  0  0  0  0  0  0  0  0  0  0  0
   57.1460   28.6420   45.0710 C   0  0  0  0  0  0  0  0  0  0  0  0
   56.7860   27.3710   45.7400 C   0  0  0  0  0  0  0  0  0  0  0  0
   57.5760   26.6050   46.5800 C   0  0  0  0  0  0  0  0  0  0  0  0
   58.8970   26.9080   47.0330 N   0  0  0  0  0  0  0  0  0  0  0  0
   59.1070   27.7410   47.9700 N   0  0  0  0  0  0  0  0  0  0  0  0
   59.4640   29.1050   47.7090 C   0  0  0  0  0  0  0  0  0  0  0  0
   58.5490   30.1180   48.0250 C   0  0  0  0  0  0  0  0  0  0  0  0
   57.5751   29.8581   48.4655 H   0  0  0  0  0  0  0  0  0  0  0  0
   58.8680   31.4580   47.7830 C   0  0  0  0  0  0  0  0  0  0  0  0
   58.1454   32.2486   48.0336 H   0  0  0  0  0  0  0  0  0  0  0  0
   60.1040   31.7940   47.2230 C   0  0  0  0  0  0  0  0  0  0  0  0
   60.5030   33.4750   46.9190 Cl  0  0  0  0  0  0  0  0  0  0  0  0
   61.0230   30.7890   46.9040 C   0  0  0  0  0  0  0  0  0  0  0  0
   61.9954   31.0536   46.4631 H   0  0  0  0  0  0  0  0  0  0  0  0
   60.7070   29.4480   47.1450 C   0  0  0  0  0  0  0  0  0  0  0  0
   61.4316   28.6596   46.8932 H   0  0  0  0  0  0  0  0  0  0  0  0
   56.7720   25.5470   46.9490 C   0  0  0  0  0  0  0  0  0  0  0  0
   57.0910   24.6080   47.7240 O   0  0  0  0  0  0  0  0  0  0  0  0
   55.5660   25.6550   46.3640 N   0  0  0  0  0  0  0  0  0  0  0  0
   55.5810   26.7640   45.6370 N   0  0  0  0  0  0  0  0  0  0  0  0
   54.7710   27.0900   45.0650 H   0  0  0  0  0  0  0  0  0  0  0  0
   58.4920   28.9280   44.7780 C   0  0  0  0  0  0  0  0  0  0  0  0
   59.2754   28.2043   45.0475 H   0  0  0  0  0  0  0  0  0  0  0  0
   58.8410   30.1270   44.1460 C   0  0  0  0  0  0  0  0  0  0  0  0
   59.8954   30.3408   43.9169 H   0  0  0  0  0  0  0  0  0  0  0  0
  1  2  1  0
  2  3  2  0
  3  4  1  0
  3  5  1  0
  5  6  1  0
  5  7  2  0
  7  8  1  0
  8  9  2  0
  9 10  1  0
 10 11  2  0
 11 12  1  0
 12 13  2  0
 13 14  1  0
 13 15  1  0
 15 16  1  0
 15 17  2  0
 17 18  1  0
 17 19  1  0
 19 20  1  0
 19 21  2  0
 21 22  1  0
  9 23  1  0
 23 24  2  0
 23 25  1  0
 25 26  1  0
 26 27  1  0
  7 28  1  0
 28 29  1  0
 28 30  2  0
 30 31  1  0
 30  2  1  0
 26  8  1  0
 21 12  1  0
M  CHG  1  25  -1
M  END
>  <UniqueID>  (77) 
72

>  <SMILES>  (77) 
O=c1[n-][nH]c(-c2ccccc2)c1/N=N/c1ccc(Cl)cc1

>  <Energy>  (77) 
70.14164012286244

>  <Genealogy>  (77) 
O=c1[n-][nH]c(-c2ccccc2)c1N=Nc1ccc(Cl)cc1 (protonated)
O=c1[n-][nH]c(-c2ccccc2)c1/N=N/c1ccc(Cl)cc1 (cis-trans isomerization)
O=c1[n-][nH]c(-c2ccccc2)c1/N=N/c1ccc(Cl)cc1 (3D coordinates assigned)
O=c1[n-][nH]c(-c2ccccc2)c1/N=N/c1ccc(Cl)cc1 (optimized conformer: 70.14164012286244 kcal/mol)

>  <smiles>  (77) 
O=c1[nH][nH]c(-c2ccccc2)c1N=Nc1ccc(Cl)cc1

>  <score_type>  (77) 
oracle

>  <origin>  (77) 
adg

>  <m_score__min__energy>  (77) 
-9.0399999999999991

>  <m_primary>  (77) 
energy

$$$$
77:0
     RDKit          3D

 41 43  0  0  0  0  0  0  0  0999 V2000
   57.5702   20.3360   42.7078 H   0  0  0  0  0  0  0  0  0  0  0  0
   56.9890   21.0920   43.2560 C   0  0  0  0  0  0  0  0  0  0  0  0
   56.6130   20.8590   44.5810 C   0  0  0  0  0  0  0  0  0  0  0  0
   56.9021   19.9204   45.0765 H   0  0  0  0  0  0  0  0  0  0  0  0
   55.8700   21.8160   45.2790 C   0  0  0  0  0  0  0  0  0  0  0  0
   55.5833   21.6322   46.3250 H   0  0  0  0  0  0  0  0  0  0  0  0
   55.4890   23.0110   44.6480 C   0  0  0  0  0  0  0  0  0  0  0  0
   54.7270   24.0620   45.4100 C   0  0  0  0  0  0  0  0  0  0  0  0
   54.6307   23.7489   46.4601 H   0  0  0  0  0  0  0  0  0  0  0  0
   53.7321   24.1788   44.9556 H   0  0  0  0  0  0  0  0  0  0  0  0
   55.4260   25.3460   45.3530 N   0  0  0  0  0  0  0  0  0  0  0  0
   55.3060   25.9580   44.5150 H   0  0  0  0  0  0  0  0  0  0  0  0
   56.2740   25.7820   46.4270 C   0  0  0  0  0  0  0  0  0  0  0  0
   56.4210   25.0480   47.4440 O   0  0  0  0  0  0  0  0  0  0  0  0
   56.9720   27.0860   46.3520 C   0  0  0  0  0  0  0  0  0  0  0  0
   56.5620   28.0100   45.4540 N   0  0  0  0  0  0  0  0  0  0  0  0
   57.1460   29.2290   45.3260 C   0  0  0  0  0  0  0  0  0  0  0  0
   56.6390   30.1250   44.3620 C   0  0  0  0  0  0  0  0  0  0  0  0
   55.4810   29.7330   43.4830 C   0  0  0  0  0  0  0  0  0  0  0  0
   54.6256   29.4434   44.1110 H   0  0  0  0  0  0  0  0  0  0  0  0
   55.1978   30.5853   42.8479 H   0  0  0  0  0  0  0  0  0  0  0  0
   55.7737   28.8839   42.8479 H   0  0  0  0  0  0  0  0  0  0  0  0
   57.2080   31.3950   44.2330 C   0  0  0  0  0  0  0  0  0  0  0  0
   56.8182   32.0961   43.4803 H   0  0  0  0  0  0  0  0  0  0  0  0
   58.2630   31.7750   45.0510 C   0  0  0  0  0  0  0  0  0  0  0  0
   58.6985   32.7797   44.9465 H   0  0  0  0  0  0  0  0  0  0  0  0
   58.7770   30.8950   46.0050 C   0  0  0  0  0  0  0  0  0  0  0  0
   59.6084   31.2211   46.6472 H   0  0  0  0  0  0  0  0  0  0  0  0
   58.2480   29.5890   46.1620 C   0  0  0  0  0  0  0  0  0  0  0  0
   58.7210   28.6090   47.1050 C   0  0  0  0  0  0  0  0  0  0  0  0
   59.7490   28.7280   47.9070 N   0  0  0  0  0  0  0  0  0  0  0  0
   60.4460   27.7930   48.7770 C   0  0  0  0  0  0  0  0  0  0  0  0
   60.2510   28.0546   49.8275 H   0  0  0  0  0  0  0  0  0  0  0  0
   60.0869   26.7720   48.5806 H   0  0  0  0  0  0  0  0  0  0  0  0
   61.5271   27.8456   48.5806 H   0  0  0  0  0  0  0  0  0  0  0  0
   58.0530   27.3780   47.1840 C   0  0  0  0  0  0  0  0  0  0  0  0
   58.3880   26.6285   47.9161 H   0  0  0  0  0  0  0  0  0  0  0  0
   55.8840   23.2470   43.3210 C   0  0  0  0  0  0  0  0  0  0  0  0
   55.6086   24.1901   42.8264 H   0  0  0  0  0  0  0  0  0  0  0  0
   56.6260   22.2870   42.6270 C   0  0  0  0  0  0  0  0  0  0  0  0
   56.9248   22.4718   41.5846 H   0  0  0  0  0  0  0  0  0  0  0  0
  1  2  1  0
  2  3  2  0
  3  4  1  0
  3  5  1  0
  5  6  1  0
  5  7  2  0
  7  8  1  0
  8  9  1  0
  8 10  1  0
  8 11  1  0
 11 12  1  0
 11 13  1  0
 13 14  2  0
 13 15  1  0
 15 16  1  0
 16 17  1  0
 17 18  2  0
 18 19  1  0
 19 20  1  0
 19 21  1  0
 19 22  1  0
 18 23  1  0
 23 24  1  0
 23 25  2  0
 25 26  1  0
 25 27  1  0
 27 28  1  0
 27 29  2  0
 29 30  1  0
 30 31  2  0
 31 32  1  0
 32 33  1  0
 32 34  1  0
 32 35  1  0
 30 36  1  0
 36 37  1  0
  7 38  1  0
 38 39  1  0
 38 40  2  0
 40 41  1  0
 40  2  1  0
 36 15  2  0
 29 17  1  0
M  CHG  1  16  -1
M  END
>  <UniqueID>  (78) 
73

>  <SMILES>  (78) 
C/N=c1/cc(C(=O)NCc2ccccc2)[n-]c2c(C)cccc12

>  <Energy>  (78) 
59.14488756063671

>  <Genealogy>  (78) 
CN=c1cc(C(=O)NCc2ccccc2)[n-]c2c(C)cccc12 (protonated)
C/N=c1/cc(C(=O)NCc2ccccc2)[n-]c2c(C)cccc12 (cis-trans isomerization)
C/N=c1/cc(C(=O)NCc2ccccc2)[n-]c2c(C)cccc12 (3D coordinates assigned)
C/N=c1/cc(C(=O)NCc2ccccc2)[n-]c2c(C)cccc12 (optimized conformer: 59.14488756063671 kcal/mol)

>  <smiles>  (78) 
CN=c1cc(C(=O)NCc2ccccc2)[nH]c2c(C)cccc12

>  <score_type>  (78) 
oracle

>  <origin>  (78) 
adg

>  <m_score__min__energy>  (78) 
-9.2899999999999991

>  <m_primary>  (78) 
energy

$$$$
78:0
     RDKit          3D

 42 44  0  0  0  0  0  0  0  0999 V2000
   65.6140   32.8250   50.1940 C   0  0  0  0  0  0  0  0  0  0  0  0
   64.3510   33.4820   50.1860 O   0  0  0  0  0  0  0  0  0  0  0  0
   63.5010   33.5500   49.0720 C   0  0  0  0  0  0  0  0  0  0  0  0
   63.9810   33.4070   47.7440 C   0  0  0  0  0  0  0  0  0  0  0  0
   63.0970   33.4720   46.6530 C   0  0  0  0  0  0  0  0  0  0  0  0
   61.7410   33.6750   46.8980 C   0  0  0  0  0  0  0  0  0  0  0  0
   60.7880   33.7430   45.9350 N   0  0  0  0  0  0  0  0  0  0  0  0
   59.5620   33.9190   46.4830 C   0  0  0  0  0  0  0  0  0  0  0  0
   58.0580   34.0160   45.5150 S   0  0  0  0  0  0  0  0  0  0  0  0
   57.5100   32.3290   45.9490 C   0  0  0  0  0  0  0  0  0  0  0  0
   57.4980   31.4320   44.7400 C   0  0  0  0  0  0  0  0  0  0  0  0
   57.0230   31.8800   43.6620 O   0  0  0  0  0  0  0  0  0  0  0  0
   57.9870   30.0760   44.7870 N   0  0  0  0  0  0  0  0  0  0  0  0
   59.0930   29.6680   45.6640 C   0  0  0  0  0  0  0  0  0  0  0  0
   58.6250   28.4930   46.5220 C   0  0  0  0  0  0  0  0  0  0  0  0
   58.1250   27.3000   45.6590 C   0  0  0  0  0  0  0  0  0  0  0  0
   56.8840   26.6920   46.2670 C   0  0  0  0  0  0  0  0  0  0  0  0
   55.6010   27.0720   45.7730 N   0  0  0  0  0  0  0  0  0  0  0  0
   56.9640   25.8340   47.1850 O   0  0  0  0  0  0  0  0  0  0  0  0
   57.9390   27.6610   44.1600 C   0  0  0  0  0  0  0  0  0  0  0  0
   57.3250   29.0560   43.9570 C   0  0  0  0  0  0  0  0  0  0  0  0
   59.6110   34.0070   48.1710 S   0  0  0  0  0  0  0  0  0  0  0  0
   61.2770   33.8090   48.1960 C   0  0  0  0  0  0  0  0  0  0  0  0
   62.1300   33.7620   49.2940 C   0  0  0  0  0  0  0  0  0  0  0  0
   65.9341   32.6585   51.2331 H   0  0  0  0  0  0  0  0  0  0  0  0
   65.5274   31.8577   49.6775 H   0  0  0  0  0  0  0  0  0  0  0  0
   66.3563   33.4512   49.6775 H   0  0  0  0  0  0  0  0  0  0  0  0
   65.0543   33.2439   47.5669 H   0  0  0  0  0  0  0  0  0  0  0  0
   63.4697   33.3644   45.6237 H   0  0  0  0  0  0  0  0  0  0  0  0
   58.1970   31.9106   46.6993 H   0  0  0  0  0  0  0  0  0  0  0  0
   56.4871   32.3875   46.3492 H   0  0  0  0  0  0  0  0  0  0  0  0
   59.9559   29.3616   45.0545 H   0  0  0  0  0  0  0  0  0  0  0  0
   59.3926   30.5082   46.3076 H   0  0  0  0  0  0  0  0  0  0  0  0
   59.4650   28.1523   47.1451 H   0  0  0  0  0  0  0  0  0  0  0  0
   57.7837   28.8394   47.1402 H   0  0  0  0  0  0  0  0  0  0  0  0
   58.9175   26.5372   45.6686 H   0  0  0  0  0  0  0  0  0  0  0  0
   54.7650   27.0720   46.3990 H   0  0  0  0  0  0  0  0  0  0  0  0
   58.9220   27.6341   43.6670 H   0  0  0  0  0  0  0  0  0  0  0  0
   57.2454   26.9264   43.7251 H   0  0  0  0  0  0  0  0  0  0  0  0
   57.4270   29.3383   42.8988 H   0  0  0  0  0  0  0  0  0  0  0  0
   56.2675   29.0086   44.2560 H   0  0  0  0  0  0  0  0  0  0  0  0
   61.7393   33.8882   50.3145 H   0  0  0  0  0  0  0  0  0  0  0  0
  1  2  1  0
  2  3  1  0
  3  4  2  0
  4  5  1  0
  5  6  2  0
  6  7  1  0
  7  8  2  0
  8  9  1  0
  9 10  1  0
 10 11  1  0
 11 12  2  0
 11 13  1  0
 13 14  1  0
 14 15  1  0
 15 16  1  0
 16 17  1  0
 17 18  1  0
 17 19  2  0
 16 20  1  0
 20 21  1  0
  8 22  1  0
 22 23  1  0
 23 24  2  0
 24  3  1  0
 23  6  1  0
 21 13  1  0
  1 25  1  0
  1 26  1  0
  1 27  1  0
  4 28  1  0
  5 29  1  0
 10 30  1  0
 10 31  1  0
 14 32  1  0
 14 33  1  0
 15 34  1  0
 15 35  1  0
 16 36  1  0
 18 37  1  0
 20 38  1  0
 20 39  1  0
 21 40  1  0
 21 41  1  0
 24 42  1  0
M  CHG  1  18  -1
M  END
>  <UniqueID>  (79) 
74

>  <SMILES>  (79) 
COc1ccc2nc(SCC(=O)N3CCC(C([NH-])=O)CC3)sc2c1

>  <Energy>  (79) 
74.19777656177742

>  <Genealogy>  (79) 
COc1ccc2nc(SCC(=O)N3CCC(C([NH-])=O)CC3)sc2c1 (protonated)
COc1ccc2nc(SCC(=O)N3CCC(C([NH-])=O)CC3)sc2c1 (3D coordinates assigned)
COc1ccc2nc(SCC(=O)N3CCC(C([NH-])=O)CC3)sc2c1 (nonaromatic ring conformer: 74.19777656177742 kcal/mol)

>  <smiles>  (79) 
COc1ccc2nc(SCC(=O)N3CCC(C(N)=O)CC3)sc2c1

>  <score_type>  (79) 
oracle

>  <origin>  (79) 
adg

>  <m_score__min__energy>  (79) 
-11.08

>  <m_primary>  (79) 
energy

$$$$
79:0
     RDKit          3D

 48 50  0  0  0  0  0  0  0  0999 V2000
   58.8610   23.3220   45.2440 C   0  0  0  0  0  0  0  0  0  0  0  0
   59.0620   24.4900   46.0340 O   0  0  0  0  0  0  0  0  0  0  0  0
   58.4130   25.7160   45.8160 C   0  0  0  0  0  0  0  0  0  0  0  0
   59.0620   26.8100   45.2110 C   0  0  0  0  0  0  0  0  0  0  0  0
   58.3830   28.0140   45.0100 C   0  0  0  0  0  0  0  0  0  0  0  0
   57.0380   28.1430   45.3990 C   0  0  0  0  0  0  0  0  0  0  0  0
   56.3210   29.3760   45.2480 N   0  0  0  0  0  0  0  0  0  0  0  0
   56.6290   30.4310   44.3240 C   0  0  0  0  0  0  0  0  0  0  0  0
   56.2390   30.3530   43.1270 O   0  0  0  0  0  0  0  0  0  0  0  0
   57.3900   31.6180   44.7770 C   0  0  0  0  0  0  0  0  0  0  0  0
   57.7560   32.6200   43.8650 C   0  0  0  0  0  0  0  0  0  0  0  0
   58.5120   33.7160   44.2840 C   0  0  0  0  0  0  0  0  0  0  0  0
   58.9150   33.8340   45.6160 C   0  0  0  0  0  0  0  0  0  0  0  0
   59.9040   35.2200   46.0590 Cl  0  0  0  0  0  0  0  0  0  0  0  0
   58.5380   32.8490   46.5520 C   0  0  0  0  0  0  0  0  0  0  0  0
   59.0440   32.9380   48.2470 S   0  0  0  0  0  0  0  0  0  0  0  0
   59.2610   34.3780   48.6220 O   0  0  0  0  0  0  0  0  0  0  0  0
   57.9540   32.3860   49.1240 O   0  0  0  0  0  0  0  0  0  0  0  0
   60.5220   32.0170   48.4570 N   0  0  0  0  0  0  0  0  0  0  0  0
   60.3450   30.9300   49.4420 C   0  0  0  0  0  0  0  0  0  0  0  0
   59.4790   29.7730   48.9090 C   0  0  0  0  0  0  0  0  0  0  0  0
   59.7720   29.4250   47.4380 C   0  0  0  0  0  0  0  0  0  0  0  0
   61.0830   30.0410   46.9540 C   0  0  0  0  0  0  0  0  0  0  0  0
   61.0780   31.5680   47.1470 C   0  0  0  0  0  0  0  0  0  0  0  0
   57.7810   31.7470   46.1220 C   0  0  0  0  0  0  0  0  0  0  0  0
   56.4000   27.0630   46.0190 C   0  0  0  0  0  0  0  0  0  0  0  0
   57.0760   25.8540   46.2180 C   0  0  0  0  0  0  0  0  0  0  0  0
   56.2320   24.5170   46.9870 Cl  0  0  0  0  0  0  0  0  0  0  0  0
   58.7117   22.4544   45.9036 H   0  0  0  0  0  0  0  0  0  0  0  0
   57.9729   23.4571   44.6092 H   0  0  0  0  0  0  0  0  0  0  0  0
   59.7432   23.1524   44.6092 H   0  0  0  0  0  0  0  0  0  0  0  0
   60.1112   26.7155   44.8945 H   0  0  0  0  0  0  0  0  0  0  0  0
   58.9027   28.8649   44.5454 H   0  0  0  0  0  0  0  0  0  0  0  0
   57.4450   32.5411   42.8128 H   0  0  0  0  0  0  0  0  0  0  0  0
   58.7929   34.4938   43.5586 H   0  0  0  0  0  0  0  0  0  0  0  0
   61.2090   32.6850   48.8750 H   0  0  0  0  0  0  0  0  0  0  0  0
   61.3357   30.5330   49.7084 H   0  0  0  0  0  0  0  0  0  0  0  0
   59.8266   31.3558   50.3138 H   0  0  0  0  0  0  0  0  0  0  0  0
   59.6697   28.8812   49.5241 H   0  0  0  0  0  0  0  0  0  0  0  0
   58.4293   30.0968   48.9659 H   0  0  0  0  0  0  0  0  0  0  0  0
   59.8352   28.3314   47.3377 H   0  0  0  0  0  0  0  0  0  0  0  0
   58.9570   29.8348   46.8233 H   0  0  0  0  0  0  0  0  0  0  0  0
   61.9168   29.6086   47.5265 H   0  0  0  0  0  0  0  0  0  0  0  0
   61.1984   29.8231   45.8820 H   0  0  0  0  0  0  0  0  0  0  0  0
   62.1143   31.9289   47.0701 H   0  0  0  0  0  0  0  0  0  0  0  0
   60.4233   31.9832   46.3667 H   0  0  0  0  0  0  0  0  0  0  0  0
   57.4896   30.9734   46.8477 H   0  0  0  0  0  0  0  0  0  0  0  0
   55.3570   27.1653   46.3532 H   0  0  0  0  0  0  0  0  0  0  0  0
  1  2  1  0
  2  3  1  0
  3  4  2  0
  4  5  1  0
  5  6  2  0
  6  7  1  0
  7  8  1  0
  8  9  2  0
  8 10  1  0
 10 11  2  0
 11 12  1  0
 12 13  2  0
 13 14  1  0
 13 15  1  0
 15 16  1  0
 16 17  2  0
 16 18  2  0
 16 19  1  0
 19 20  1  0
 20 21  1  0
 21 22  1  0
 22 23  1  0
 23 24  1  0
 15 25  2  0
  6 26  1  0
 26 27  2  0
 27 28  1  0
 27  3  1  0
 25 10  1  0
 24 19  1  0
  1 29  1  0
  1 30  1  0
  1 31  1  0
  4 32  1  0
  5 33  1  0
 11 34  1  0
 12 35  1  0
 19 36  1  0
 20 37  1  0
 20 38  1  0
 21 39  1  0
 21 40  1  0
 22 41  1  0
 22 42  1  0
 23 43  1  0
 23 44  1  0
 24 45  1  0
 24 46  1  0
 25 47  1  0
 26 48  1  0
M  CHG  2   7  -1  19   1
M  END
>  <UniqueID>  (80) 
75

>  <SMILES>  (80) 
COc1ccc([N-]C(=O)c2ccc(Cl)c(S(=O)(=O)[NH+]3CCCCC3)c2)cc1Cl

>  <Energy>  (80) 
62.01679682883164

>  <Genealogy>  (80) 
COc1ccc([N-]C(=O)c2ccc(Cl)c(S(=O)(=O)[NH+]3CCCCC3)c2)cc1Cl (protonated)
COc1ccc([N-]C(=O)c2ccc(Cl)c(S(=O)(=O)[NH+]3CCCCC3)c2)cc1Cl (3D coordinates assigned)
COc1ccc([N-]C(=O)c2ccc(Cl)c(S(=O)(=O)[NH+]3CCCCC3)c2)cc1Cl (nonaromatic ring conformer: 62.01679682883164 kcal/mol)

>  <smiles>  (80) 
COc1ccc(NC(=O)c2ccc(Cl)c(S(=O)(=O)N3CCCCC3)c2)cc1Cl

>  <score_type>  (80) 
oracle

>  <origin>  (80) 
adg

>  <m_score__min__energy>  (80) 
-9.2400000000000002

>  <m_primary>  (80) 
energy

$$$$
80:0
     RDKit          3D

 40 41  0  0  0  0  0  0  0  0999 V2000
   59.6710   34.2450   48.9490 C   0  0  0  0  0  0  0  0  0  0  0  0
   61.1290   34.2270   48.4930 C   0  0  0  0  0  0  0  0  0  0  0  0
   61.2410   33.6960   47.1250 N   0  0  0  0  0  0  0  0  0  0  0  0
   62.5130   33.8430   46.4010 C   0  0  0  0  0  0  0  0  0  0  0  0
   63.6390   33.0940   47.1110 C   0  0  0  0  0  0  0  0  0  0  0  0
   60.1240   33.0170   46.5070 C   0  0  0  0  0  0  0  0  0  0  0  0
   59.2440   33.7120   45.6570 C   0  0  0  0  0  0  0  0  0  0  0  0
   58.1280   33.0700   45.1150 C   0  0  0  0  0  0  0  0  0  0  0  0
   57.8600   31.7330   45.4240 C   0  0  0  0  0  0  0  0  0  0  0  0
   56.6610   31.1270   44.9250 N   0  0  0  0  0  0  0  0  0  0  0  0
   56.4020   29.7180   44.8650 C   0  0  0  0  0  0  0  0  0  0  0  0
   55.2110   29.3180   44.8080 O   0  0  0  0  0  0  0  0  0  0  0  0
   57.4600   28.7480   44.8650 N   0  0  0  0  0  0  0  0  0  0  0  0
   57.2960   27.3240   44.9380 C   0  0  0  0  0  0  0  0  0  0  0  0
   56.6480   26.7710   46.0490 C   0  0  0  0  0  0  0  0  0  0  0  0
   56.4370   25.3910   46.1290 C   0  0  0  0  0  0  0  0  0  0  0  0
   56.8920   24.5520   45.1070 C   0  0  0  0  0  0  0  0  0  0  0  0
   56.5950   22.6690   45.2120 Br  0  0  0  0  0  0  0  0  0  0  0  0
   57.5690   25.0940   44.0100 C   0  0  0  0  0  0  0  0  0  0  0  0
   57.7820   26.4730   43.9290 C   0  0  0  0  0  0  0  0  0  0  0  0
   58.7650   31.0180   46.2240 C   0  0  0  0  0  0  0  0  0  0  0  0
   59.8830   31.6560   46.7660 C   0  0  0  0  0  0  0  0  0  0  0  0
   59.6306   34.2455   50.0483 H   0  0  0  0  0  0  0  0  0  0  0  0
   59.1774   35.1493   48.5635 H   0  0  0  0  0  0  0  0  0  0  0  0
   59.1552   33.3532   48.5635 H   0  0  0  0  0  0  0  0  0  0  0  0
   61.5269   35.2523   48.5158 H   0  0  0  0  0  0  0  0  0  0  0  0
   61.7032   33.5789   49.1714 H   0  0  0  0  0  0  0  0  0  0  0  0
   62.3970   33.4381   45.3848 H   0  0  0  0  0  0  0  0  0  0  0  0
   62.7727   34.9113   46.3640 H   0  0  0  0  0  0  0  0  0  0  0  0
   63.5079   33.1812   48.1997 H   0  0  0  0  0  0  0  0  0  0  0  0
   63.6126   32.0329   46.8223 H   0  0  0  0  0  0  0  0  0  0  0  0
   64.6074   33.5285   46.8223 H   0  0  0  0  0  0  0  0  0  0  0  0
   59.4362   34.7683   45.4176 H   0  0  0  0  0  0  0  0  0  0  0  0
   57.4554   33.6201   44.4405 H   0  0  0  0  0  0  0  0  0  0  0  0
   56.3031   27.4254   46.8631 H   0  0  0  0  0  0  0  0  0  0  0  0
   55.9125   24.9649   46.9969 H   0  0  0  0  0  0  0  0  0  0  0  0
   57.9345   24.4340   43.2095 H   0  0  0  0  0  0  0  0  0  0  0  0
   58.3312   26.8939   43.0739 H   0  0  0  0  0  0  0  0  0  0  0  0
   58.5929   29.9503   46.4250 H   0  0  0  0  0  0  0  0  0  0  0  0
   60.5805   31.0894   47.4004 H   0  0  0  0  0  0  0  0  0  0  0  0
  1  2  1  0
  2  3  1  0
  3  4  1  0
  4  5  1  0
  3  6  1  0
  6  7  2  0
  7  8  1  0
  8  9  2  0
  9 10  1  0
 10 11  1  0
 11 12  2  0
 11 13  1  0
 13 14  1  0
 14 15  2  0
 15 16  1  0
 16 17  2  0
 17 18  1  0
 17 19  1  0
 19 20  2  0
  9 21  1  0
 21 22  2  0
 22  6  1  0
 20 14  1  0
  1 23  1  0
  1 24  1  0
  1 25  1  0
  2 26  1  0
  2 27  1  0
  4 28  1  0
  4 29  1  0
  5 30  1  0
  5 31  1  0
  5 32  1  0
  7 33  1  0
  8 34  1  0
 15 35  1  0
 16 36  1  0
 19 37  1  0
 20 38  1  0
 21 39  1  0
 22 40  1  0
M  CHG  2  10  -1  13  -1
M  END
>  <UniqueID>  (81) 
76

>  <SMILES>  (81) 
CCN(CC)c1ccc([N-]C(=O)[N-]c2ccc(Br)cc2)cc1

>  <Energy>  (81) 
43.117528637286014

>  <Genealogy>  (81) 
CCN(CC)c1ccc([N-]C(=O)[N-]c2ccc(Br)cc2)cc1 (protonated)
CCN(CC)c1ccc([N-]C(=O)[N-]c2ccc(Br)cc2)cc1 (3D coordinates assigned)
CCN(CC)c1ccc([N-]C(=O)[N-]c2ccc(Br)cc2)cc1 (optimized conformer: 43.117528637286014 kcal/mol)

>  <smiles>  (81) 
CCN(CC)c1ccc(NC(=O)Nc2ccc(Br)cc2)cc1

>  <score_type>  (81) 
oracle

>  <origin>  (81) 
adg

>  <m_score__min__energy>  (81) 
-10.08

>  <m_primary>  (81) 
energy

$$$$
81:0
     RDKit          3D

 55 57  0  0  0  0  0  0  0  0999 V2000
   56.4810   29.9720   43.2780 C   0  0  0  0  0  0  0  0  0  0  0  0
   56.3920   30.6180   44.5420 O   0  0  0  0  0  0  0  0  0  0  0  0
   57.3440   31.5200   45.0400 C   0  0  0  0  0  0  0  0  0  0  0  0
   58.6050   31.1060   45.5060 C   0  0  0  0  0  0  0  0  0  0  0  0
   59.5200   32.0440   45.9920 C   0  0  0  0  0  0  0  0  0  0  0  0
   59.1930   33.4120   46.0340 C   0  0  0  0  0  0  0  0  0  0  0  0
   60.1600   34.4200   46.5380 C   0  0  0  0  0  0  0  0  0  0  0  0
   59.9510   35.6430   46.3170 O   0  0  0  0  0  0  0  0  0  0  0  0
   61.3590   34.0300   47.3180 C   0  0  0  0  0  0  0  0  0  0  0  0
   62.5730   33.8400   46.6350 C   0  0  0  0  0  0  0  0  0  0  0  0
   63.7260   33.4640   47.3270 C   0  0  0  0  0  0  0  0  0  0  0  0
   63.6820   33.2740   48.7080 C   0  0  0  0  0  0  0  0  0  0  0  0
   62.4860   33.4580   49.4020 C   0  0  0  0  0  0  0  0  0  0  0  0
   61.3130   33.8380   48.7230 C   0  0  0  0  0  0  0  0  0  0  0  0
   60.0420   34.0390   49.5200 C   0  0  0  0  0  0  0  0  0  0  0  0
   60.0590   33.2270   50.7580 N   0  0  0  0  0  0  0  0  0  0  0  0
   59.2710   33.8720   51.8300 C   0  0  0  0  0  0  0  0  0  0  0  0
   59.6980   31.8040   50.4980 C   0  0  1  0  0  0  0  0  0  0  0  0
   58.8800   31.6660   49.1950 C   0  0  0  0  0  0  0  0  0  0  0  0
   58.8530   30.2010   48.7470 C   0  0  0  0  0  0  0  0  0  0  0  0
   60.2080   29.6980   48.3940 N   0  0  2  0  0  0  0  0  0  0  0  0
   60.2560   28.2320   48.5390 C   0  0  0  0  0  0  0  0  0  0  0  0
   61.3190   30.3450   49.1490 C   0  0  0  0  0  0  0  0  0  0  0  0
   60.8980   30.8150   50.5510 C   0  0  0  0  0  0  0  0  0  0  0  0
   57.9330   33.8190   45.5590 C   0  0  0  0  0  0  0  0  0  0  0  0
   57.0210   32.8800   45.0710 C   0  0  0  0  0  0  0  0  0  0  0  0
   56.6297   28.8924   43.4276 H   0  0  0  0  0  0  0  0  0  0  0  0
   55.5513   30.1394   42.7144 H   0  0  0  0  0  0  0  0  0  0  0  0
   57.3308   30.3846   42.7144 H   0  0  0  0  0  0  0  0  0  0  0  0
   58.8722   30.0391   45.4878 H   0  0  0  0  0  0  0  0  0  0  0  0
   60.5064   31.7093   46.3455 H   0  0  0  0  0  0  0  0  0  0  0  0
   62.6149   33.9888   45.5459 H   0  0  0  0  0  0  0  0  0  0  0  0
   64.6703   33.3174   46.7822 H   0  0  0  0  0  0  0  0  0  0  0  0
   64.5920   32.9785   49.2509 H   0  0  0  0  0  0  0  0  0  0  0  0
   62.4593   33.3046   50.4909 H   0  0  0  0  0  0  0  0  0  0  0  0
   59.9495   35.1018   49.7880 H   0  0  0  0  0  0  0  0  0  0  0  0
   59.1877   33.7216   48.9040 H   0  0  0  0  0  0  0  0  0  0  0  0
   59.6574   33.5557   52.8101 H   0  0  0  0  0  0  0  0  0  0  0  0
   59.3535   34.9651   51.7387 H   0  0  0  0  0  0  0  0  0  0  0  0
   58.2158   33.5751   51.7387 H   0  0  0  0  0  0  0  0  0  0  0  0
   59.0574   31.5001   51.3390 H   0  0  0  0  0  0  0  0  0  0  0  0
   59.3425   32.2794   48.4077 H   0  0  0  0  0  0  0  0  0  0  0  0
   57.8503   32.0075   49.3768 H   0  0  0  0  0  0  0  0  0  0  0  0
   58.2009   30.1117   47.8656 H   0  0  0  0  0  0  0  0  0  0  0  0
   58.4758   29.5975   49.5857 H   0  0  0  0  0  0  0  0  0  0  0  0
   60.3650   29.9050   47.3770 H   0  0  0  0  0  0  0  0  0  0  0  0
   60.2646   27.9693   49.6071 H   0  0  0  0  0  0  0  0  0  0  0  0
   59.3719   27.7869   48.0590 H   0  0  0  0  0  0  0  0  0  0  0  0
   61.1673   27.8457   48.0590 H   0  0  0  0  0  0  0  0  0  0  0  0
   61.6701   31.2169   48.5776 H   0  0  0  0  0  0  0  0  0  0  0  0
   62.1112   29.5929   49.2780 H   0  0  0  0  0  0  0  0  0  0  0  0
   61.7519   31.3179   51.0283 H   0  0  0  0  0  0  0  0  0  0  0  0
   60.5848   29.9311   51.1260 H   0  0  0  0  0  0  0  0  0  0  0  0
   57.6636   34.8854   45.5719 H   0  0  0  0  0  0  0  0  0  0  0  0
   56.0382   33.2142   44.7072 H   0  0  0  0  0  0  0  0  0  0  0  0
  1  2  1  0
  2  3  1  0
  3  4  2  0
  4  5  1  0
  5  6  2  0
  6  7  1  0
  7  8  2  0
  7  9  1  0
  9 10  2  0
 10 11  1  0
 11 12  2  0
 12 13  1  0
 13 14  2  0
 14 15  1  0
 15 16  1  0
 16 17  1  0
 16 18  1  0
 18 19  1  0
 19 20  1  0
 20 21  1  0
 21 22  1  0
 21 23  1  0
 23 24  1  0
  6 25  1  0
 25 26  2  0
 26  3  1  0
 14  9  1  0
 24 18  1  0
  1 27  1  0
  1 28  1  0
  1 29  1  0
  4 30  1  0
  5 31  1  0
 10 32  1  0
 11 33  1  0
 12 34  1  0
 13 35  1  0
 15 36  1  0
 15 37  1  0
 17 38  1  0
 17 39  1  0
 17 40  1  0
 18 41  1  1
 19 42  1  0
 19 43  1  0
 20 44  1  0
 20 45  1  0
 21 46  1  6
 22 47  1  0
 22 48  1  0
 22 49  1  0
 23 50  1  0
 23 51  1  0
 24 52  1  0
 24 53  1  0
 25 54  1  0
 26 55  1  0
M  CHG  1  21   1
M  END
>  <UniqueID>  (82) 
77

>  <SMILES>  (82) 
COc1ccc(C(=O)c2ccccc2CN(C)C2CC[NH+](C)CC2)cc1

>  <Energy>  (82) 
78.3723845113299

>  <Genealogy>  (82) 
COc1ccc(C(=O)c2ccccc2CN(C)C2CC[NH+](C)CC2)cc1 (protonated)
COc1ccc(C(=O)c2ccccc2CN(C)C2CC[NH+](C)CC2)cc1 (3D coordinates assigned)
COc1ccc(C(=O)c2ccccc2CN(C)C2CC[NH+](C)CC2)cc1 (nonaromatic ring conformer: 78.3723845113299 kcal/mol)

>  <smiles>  (82) 
COc1ccc(C(=O)c2ccccc2CN(C)C2CCN(C)CC2)cc1

>  <score_type>  (82) 
oracle

>  <origin>  (82) 
adg

>  <m_score__min__energy>  (82) 
-6.8499999999999996

>  <m_primary>  (82) 
energy

$$$$
82:0
     RDKit          3D

 32 34  0  0  0  0  0  0  0  0999 V2000
   57.0100   27.0960   45.8270 Cl  0  0  0  0  0  0  0  0  0  0  0  0
   57.3240   28.7200   45.2440 C   0  0  0  0  0  0  0  0  0  0  0  0
   56.4090   29.3480   44.3930 C   0  0  0  0  0  0  0  0  0  0  0  0
   56.6590   30.6410   43.9250 C   0  0  0  0  0  0  0  0  0  0  0  0
   57.8300   31.3180   44.3050 C   0  0  0  0  0  0  0  0  0  0  0  0
   58.1270   32.6910   43.7690 C   0  0  0  0  0  0  0  0  0  0  0  0
   57.4550   33.9880   44.8670 S   0  0  0  0  0  0  0  0  0  0  0  0
   58.7340   33.8190   46.1150 C   0  0  0  0  0  0  0  0  0  0  0  0
   58.3800   33.6000   47.4520 C   0  0  0  0  0  0  0  0  0  0  0  0
   59.3680   33.4470   48.4280 C   0  0  0  0  0  0  0  0  0  0  0  0
   60.7240   33.5210   48.0740 C   0  0  0  0  0  0  0  0  0  0  0  0
   61.7260   33.3660   49.0450 C   0  0  0  0  0  0  0  0  0  0  0  0
   63.0740   33.4440   48.6790 C   0  0  0  0  0  0  0  0  0  0  0  0
   63.4290   33.6760   47.3480 C   0  0  0  0  0  0  0  0  0  0  0  0
   62.4410   33.8320   46.3720 C   0  0  0  0  0  0  0  0  0  0  0  0
   61.0850   33.7570   46.7250 C   0  0  0  0  0  0  0  0  0  0  0  0
   60.0840   33.9080   45.7540 C   0  0  0  0  0  0  0  0  0  0  0  0
   58.7470   30.6810   45.1590 C   0  0  0  0  0  0  0  0  0  0  0  0
   58.4920   29.3870   45.6260 C   0  0  0  0  0  0  0  0  0  0  0  0
   55.4906   28.8232   44.0913 H   0  0  0  0  0  0  0  0  0  0  0  0
   55.9358   31.1307   43.2563 H   0  0  0  0  0  0  0  0  0  0  0  0
   59.2168   32.8173   43.6896 H   0  0  0  0  0  0  0  0  0  0  0  0
   57.6523   32.7899   42.7816 H   0  0  0  0  0  0  0  0  0  0  0  0
   57.3184   33.5481   47.7354 H   0  0  0  0  0  0  0  0  0  0  0  0
   59.0826   33.2683   49.4752 H   0  0  0  0  0  0  0  0  0  0  0  0
   61.4510   33.1831   50.0943 H   0  0  0  0  0  0  0  0  0  0  0  0
   63.8570   33.3222   49.4419 H   0  0  0  0  0  0  0  0  0  0  0  0
   64.4908   33.7362   47.0669 H   0  0  0  0  0  0  0  0  0  0  0  0
   62.7268   34.0139   45.3255 H   0  0  0  0  0  0  0  0  0  0  0  0
   60.3603   34.0968   44.7061 H   0  0  0  0  0  0  0  0  0  0  0  0
   59.6678   31.2014   45.4610 H   0  0  0  0  0  0  0  0  0  0  0  0
   59.2120   28.8933   46.2952 H   0  0  0  0  0  0  0  0  0  0  0  0
  1  2  1  0
  2  3  2  0
  3  4  1  0
  4  5  2  0
  5  6  1  0
  6  7  1  0
  7  8  1  0
  8  9  2  0
  9 10  1  0
 10 11  2  0
 11 12  1  0
 12 13  2  0
 13 14  1  0
 14 15  2  0
 15 16  1  0
 16 17  2  0
  5 18  1  0
 18 19  2  0
 19  2  1  0
 17  8  1  0
 16 11  1  0
  3 20  1  0
  4 21  1  0
  6 22  1  0
  6 23  1  0
  9 24  1  0
 10 25  1  0
 12 26  1  0
 13 27  1  0
 14 28  1  0
 15 29  1  0
 17 30  1  0
 18 31  1  0
 19 32  1  0
M  END
>  <UniqueID>  (83) 
78

>  <SMILES>  (83) 
Clc1ccc(CSc2ccc3ccccc3c2)cc1

>  <Energy>  (83) 
32.05710239750367

>  <Genealogy>  (83) 
Clc1ccc(CSc2ccc3ccccc3c2)cc1 (3D coordinates assigned)
Clc1ccc(CSc2ccc3ccccc3c2)cc1 (optimized conformer: 32.05710239750367 kcal/mol)

>  <smiles>  (83) 
Clc1ccc(CSc2ccc3ccccc3c2)cc1

>  <score_type>  (83) 
oracle

>  <origin>  (83) 
adg

>  <m_score__min__energy>  (83) 
-7.9900000000000002

>  <m_primary>  (83) 
energy

$$$$
83:0
     RDKit          3D

 41 44  0  0  0  0  0  0  0  0999 V2000
   59.4120   35.5170   45.1910 O   0  0  0  0  0  0  0  0  0  0  0  0
   59.3500   34.5030   45.9360 C   0  0  0  0  0  0  0  0  0  0  0  0
   58.1040   34.2200   46.7230 C   0  0  0  0  0  0  0  0  0  0  0  0
   57.8970   32.7090   46.8930 C   0  0  0  0  0  0  0  0  0  0  0  0
   59.1600   32.0110   47.3420 C   0  0  0  0  0  0  0  0  0  0  0  0
   59.0850   30.8410   48.1130 C   0  0  0  0  0  0  0  0  0  0  0  0
   60.2520   30.1360   48.4630 C   0  0  0  0  0  0  0  0  0  0  0  0
   60.1680   28.9060   49.2840 C   0  0  0  0  0  0  0  0  0  0  0  0
   60.3740   28.9600   50.5280 O   0  0  0  0  0  0  0  0  0  0  0  0
   59.8560   27.6500   48.6710 N   0  0  0  0  0  0  0  0  0  0  0  0
   60.1480   27.3310   47.2780 C   0  0  0  0  0  0  0  0  0  0  0  0
   59.0590   27.8660   46.3790 C   0  0  0  0  0  0  0  0  0  0  0  0
   59.2980   29.0480   45.6590 C   0  0  0  0  0  0  0  0  0  0  0  0
   58.3080   29.5830   44.8300 C   0  0  0  0  0  0  0  0  0  0  0  0
   58.5240   30.7650   44.1040 C   0  0  0  0  0  0  0  0  0  0  0  0
   57.5140   31.2750   43.2820 C   0  0  0  0  0  0  0  0  0  0  0  0
   56.2860   30.6110   43.1830 C   0  0  0  0  0  0  0  0  0  0  0  0
   56.0630   29.4340   43.9030 C   0  0  0  0  0  0  0  0  0  0  0  0
   57.0690   28.9160   44.7270 C   0  0  0  0  0  0  0  0  0  0  0  0
   56.8550   27.7740   45.4290 N   0  0  0  0  0  0  0  0  0  0  0  0
   57.8020   27.2330   46.2440 C   0  0  0  0  0  0  0  0  0  0  0  0
   57.3980   25.7490   47.0940 Cl  0  0  0  0  0  0  0  0  0  0  0  0
   61.4960   30.6110   48.0110 C   0  0  0  0  0  0  0  0  0  0  0  0
   61.5730   31.7650   47.2260 C   0  0  0  0  0  0  0  0  0  0  0  0
   60.4120   32.4680   46.8880 C   0  0  0  0  0  0  0  0  0  0  0  0
   60.4940   33.6580   46.0920 N   0  0  0  0  0  0  0  0  0  0  0  0
   58.1911   34.6858   47.7157 H   0  0  0  0  0  0  0  0  0  0  0  0
   57.2423   34.6345   46.1792 H   0  0  0  0  0  0  0  0  0  0  0  0
   57.1118   32.5406   47.6448 H   0  0  0  0  0  0  0  0  0  0  0  0
   57.6085   32.2938   45.9161 H   0  0  0  0  0  0  0  0  0  0  0  0
   58.1045   30.4710   48.4472 H   0  0  0  0  0  0  0  0  0  0  0  0
   61.1086   27.7862   46.9950 H   0  0  0  0  0  0  0  0  0  0  0  0
   60.2013   26.2382   47.1645 H   0  0  0  0  0  0  0  0  0  0  0  0
   60.2698   29.5556   45.7480 H   0  0  0  0  0  0  0  0  0  0  0  0
   59.4875   31.2900   44.1817 H   0  0  0  0  0  0  0  0  0  0  0  0
   57.6852   32.2001   42.7120 H   0  0  0  0  0  0  0  0  0  0  0  0
   55.4939   31.0167   42.5365 H   0  0  0  0  0  0  0  0  0  0  0  0
   55.0967   28.9146   43.8221 H   0  0  0  0  0  0  0  0  0  0  0  0
   62.4160   30.0700   48.2774 H   0  0  0  0  0  0  0  0  0  0  0  0
   62.5515   32.1220   46.8723 H   0  0  0  0  0  0  0  0  0  0  0  0
   61.3980   33.9290   45.6430 H   0  0  0  0  0  0  0  0  0  0  0  0
  1  2  2  0
  2  3  1  0
  3  4  1  0
  4  5  1  0
  5  6  2  0
  6  7  1  0
  7  8  1  0
  8  9  2  0
  8 10  1  0
 10 11  1  0
 11 12  1  0
 12 13  2  0
 13 14  1  0
 14 15  2  0
 15 16  1  0
 16 17  2  0
 17 18  1  0
 18 19  2  0
 19 20  1  0
 20 21  2  0
 21 22  1  0
  7 23  2  0
 23 24  1  0
 24 25  2  0
 25 26  1  0
 26  2  1  0
 25  5  1  0
 21 12  1  0
 19 14  1  0
  3 27  1  0
  3 28  1  0
  4 29  1  0
  4 30  1  0
  6 31  1  0
 11 32  1  0
 11 33  1  0
 13 34  1  0
 15 35  1  0
 16 36  1  0
 17 37  1  0
 18 38  1  0
 23 39  1  0
 24 40  1  0
 26 41  1  0
M  CHG  1  10  -1
M  END
>  <UniqueID>  (84) 
79

>  <SMILES>  (84) 
O=C1CCc2cc(C(=O)[N-]Cc3cc4ccccc4nc3Cl)ccc2N1

>  <Energy>  (84) 
48.350467411754416

>  <Genealogy>  (84) 
O=C1CCc2cc(C(=O)[N-]Cc3cc4ccccc4nc3Cl)ccc2N1 (protonated)
O=C1CCc2cc(C(=O)[N-]Cc3cc4ccccc4nc3Cl)ccc2N1 (3D coordinates assigned)
O=C1CCc2cc(C(=O)[N-]Cc3cc4ccccc4nc3Cl)ccc2N1 (nonaromatic ring conformer: 48.350467411754416 kcal/mol)

>  <smiles>  (84) 
O=C1CCc2cc(C(=O)NCc3cc4ccccc4nc3Cl)ccc2N1

>  <score_type>  (84) 
oracle

>  <origin>  (84) 
adg

>  <m_score__min__energy>  (84) 
-10.06

>  <m_primary>  (84) 
energy

$$$$
84:0
     RDKit          3D

 51 53  0  0  0  0  0  0  0  0999 V2000
   58.5500   31.9050   49.0100 C   0  0  0  0  0  0  0  0  0  0  0  0
   57.7710   32.7550   48.1770 O   0  0  0  0  0  0  0  0  0  0  0  0
   58.0460   33.0190   46.8240 C   0  0  0  0  0  0  0  0  0  0  0  0
   57.5460   32.1980   45.7930 C   0  0  0  0  0  0  0  0  0  0  0  0
   57.8980   32.4360   44.4570 C   0  0  0  0  0  0  0  0  0  0  0  0
   57.3190   31.5890   43.3950 C   0  0  0  0  0  0  0  0  0  0  0  0
   57.2520   30.2490   43.4190 C   0  0  0  0  0  0  0  0  0  0  0  0
   56.6150   29.4360   44.4810 C   0  0  0  0  0  0  0  0  0  0  0  0
   55.4470   29.6920   44.8820 O   0  0  0  0  0  0  0  0  0  0  0  0
   57.3140   28.2180   45.0120 C   0  0  0  0  0  0  0  0  0  0  0  0
   58.8330   28.3100   44.8250 C   0  0  0  0  0  0  0  0  0  0  0  0
   59.5160   28.8740   46.0450 C   0  0  0  0  0  0  0  0  0  0  0  0
   59.4050   28.2280   47.2880 C   0  0  0  0  0  0  0  0  0  0  0  0
   60.0850   28.7270   48.4050 C   0  0  0  0  0  0  0  0  0  0  0  0
   60.8800   29.8700   48.2880 C   0  0  0  0  0  0  0  0  0  0  0  0
   61.0010   30.5150   47.0540 C   0  0  0  0  0  0  0  0  0  0  0  0
   60.3250   30.0170   45.9350 C   0  0  0  0  0  0  0  0  0  0  0  0
   58.7180   33.5290   44.1450 C   0  0  0  0  0  0  0  0  0  0  0  0
   59.2080   34.3520   45.1570 C   0  0  0  0  0  0  0  0  0  0  0  0
   58.8630   34.1210   46.4930 C   0  0  0  0  0  0  0  0  0  0  0  0
   59.3790   34.9840   47.4690 O   0  0  0  0  0  0  0  0  0  0  0  0
   60.1360   34.5710   48.5740 C   0  0  0  0  0  0  0  0  0  0  0  0
   59.6720   34.6920   49.7410 O   0  0  0  0  0  0  0  0  0  0  0  0
   61.5060   34.0490   48.3710 C   0  0  0  0  0  0  0  0  0  0  0  0
   62.3400   33.7720   49.4720 C   0  0  0  0  0  0  0  0  0  0  0  0
   63.6360   33.2910   49.2700 C   0  0  0  0  0  0  0  0  0  0  0  0
   64.1140   33.0770   47.9750 C   0  0  0  0  0  0  0  0  0  0  0  0
   63.2930   33.3430   46.8770 C   0  0  0  0  0  0  0  0  0  0  0  0
   61.9960   33.8290   47.0710 C   0  0  0  0  0  0  0  0  0  0  0  0
   58.3405   32.1336   50.0654 H   0  0  0  0  0  0  0  0  0  0  0  0
   58.2939   30.8552   48.8044 H   0  0  0  0  0  0  0  0  0  0  0  0
   59.6181   32.0688   48.8044 H   0  0  0  0  0  0  0  0  0  0  0  0
   56.8735   31.3630   46.0390 H   0  0  0  0  0  0  0  0  0  0  0  0
   56.9086   32.0988   42.5109 H   0  0  0  0  0  0  0  0  0  0  0  0
   57.7094   29.7077   42.5777 H   0  0  0  0  0  0  0  0  0  0  0  0
   57.0921   28.1188   46.0848 H   0  0  0  0  0  0  0  0  0  0  0  0
   56.9517   27.3431   44.4523 H   0  0  0  0  0  0  0  0  0  0  0  0
   59.2290   27.3025   44.6295 H   0  0  0  0  0  0  0  0  0  0  0  0
   59.0324   28.9851   43.9797 H   0  0  0  0  0  0  0  0  0  0  0  0
   58.7814   27.3269   47.3835 H   0  0  0  0  0  0  0  0  0  0  0  0
   59.9934   28.2187   49.3762 H   0  0  0  0  0  0  0  0  0  0  0  0
   61.4111   30.2625   49.1677 H   0  0  0  0  0  0  0  0  0  0  0  0
   61.6278   31.4143   46.9626 H   0  0  0  0  0  0  0  0  0  0  0  0
   60.4276   30.5232   44.9638 H   0  0  0  0  0  0  0  0  0  0  0  0
   58.9759   33.7381   43.0963 H   0  0  0  0  0  0  0  0  0  0  0  0
   59.8723   35.1912   44.9031 H   0  0  0  0  0  0  0  0  0  0  0  0
   61.9694   33.9351   50.4948 H   0  0  0  0  0  0  0  0  0  0  0  0
   64.2828   33.0799   50.1344 H   0  0  0  0  0  0  0  0  0  0  0  0
   65.1356   32.6995   47.8203 H   0  0  0  0  0  0  0  0  0  0  0  0
   63.6673   33.1699   45.8572 H   0  0  0  0  0  0  0  0  0  0  0  0
   61.3555   34.0404   46.2021 H   0  0  0  0  0  0  0  0  0  0  0  0
  1  2  1  0
  2  3  1  0
  3  4  2  0
  4  5  1  0
  5  6  1  0
  6  7  2  3
  7  8  1  0
  8  9  2  0
  8 10  1  0
 10 11  1  0
 11 12  1  0
 12 13  2  0
 13 14  1  0
 14 15  2  0
 15 16  1  0
 16 17  2  0
  5 18  2  0
 18 19  1  0
 19 20  2  0
 20 21  1  0
 21 22  1  0
 22 23  2  0
 22 24  1  0
 24 25  2  0
 25 26  1  0
 26 27  2  0
 27 28  1  0
 28 29  2  0
 20  3  1  0
 29 24  1  0
 17 12  1  0
  1 30  1  0
  1 31  1  0
  1 32  1  0
  4 33  1  0
  6 34  1  0
  7 35  1  0
 10 36  1  0
 10 37  1  0
 11 38  1  0
 11 39  1  0
 13 40  1  0
 14 41  1  0
 15 42  1  0
 16 43  1  0
 17 44  1  0
 18 45  1  0
 19 46  1  0
 25 47  1  0
 26 48  1  0
 27 49  1  0
 28 50  1  0
 29 51  1  0
M  END
>  <UniqueID>  (85) 
80

>  <SMILES>  (85) 
COc1cc(C=CC(=O)CCc2ccccc2)ccc1OC(=O)c1ccccc1

>  <Energy>  (85) 
63.05297262328618

>  <Genealogy>  (85) 
COc1cc(C=CC(=O)CCc2ccccc2)ccc1OC(=O)c1ccccc1 (3D coordinates assigned)
COc1cc(C=CC(=O)CCc2ccccc2)ccc1OC(=O)c1ccccc1 (optimized conformer: 63.05297262328618 kcal/mol)

>  <smiles>  (85) 
COc1cc(C=CC(=O)CCc2ccccc2)ccc1OC(=O)c1ccccc1

>  <score_type>  (85) 
oracle

>  <origin>  (85) 
adg

>  <m_score__min__energy>  (85) 
-9.9000000000000004

>  <m_primary>  (85) 
energy

$$$$
85:0
     RDKit          3D

 19 20  0  0  0  0  0  0  0  0999 V2000
   57.1760   25.8960   45.3310 O   0  0  0  0  0  0  0  0  0  0  0  0
   56.4940   26.9000   45.6690 C   0  0  0  0  0  0  0  0  0  0  0  0
   55.1540   26.7180   45.9930 O   0  0  0  0  0  0  0  0  0  0  0  0
   57.0990   28.2570   45.7210 C   0  0  0  0  0  0  0  0  0  0  0  0
   56.4400   29.3270   45.0940 C   0  0  0  0  0  0  0  0  0  0  0  0
   56.9660   30.5770   45.1240 N   0  0  0  0  0  0  0  0  0  0  0  0
   58.1380   30.8560   45.7510 C   0  0  0  0  0  0  0  0  0  0  0  0
   58.6420   32.1660   45.7550 C   0  0  0  0  0  0  0  0  0  0  0  0
   57.7020   33.5900   44.8830 Br  0  0  0  0  0  0  0  0  0  0  0  0
   59.8490   32.4480   46.4020 C   0  0  0  0  0  0  0  0  0  0  0  0
   60.5570   31.4300   47.0460 C   0  0  0  0  0  0  0  0  0  0  0  0
   62.0710   31.7950   47.8550 Cl  0  0  0  0  0  0  0  0  0  0  0  0
   60.0620   30.1220   47.0480 C   0  0  0  0  0  0  0  0  0  0  0  0
   58.8490   29.8210   46.4010 C   0  0  0  0  0  0  0  0  0  0  0  0
   58.3210   28.5140   46.3830 C   0  0  0  0  0  0  0  0  0  0  0  0
   58.9440   27.5790   46.9580 O   0  0  0  0  0  0  0  0  0  0  0  0
   55.4875   29.1496   44.5732 H   0  0  0  0  0  0  0  0  0  0  0  0
   60.2427   33.4751   46.4040 H   0  0  0  0  0  0  0  0  0  0  0  0
   60.6233   29.3249   47.5576 H   0  0  0  0  0  0  0  0  0  0  0  0
  1  2  2  0
  2  3  1  0
  2  4  1  0
  4  5  2  0
  5  6  1  0
  6  7  1  0
  7  8  2  0
  8  9  1  0
  8 10  1  0
 10 11  2  0
 11 12  1  0
 11 13  1  0
 13 14  2  0
 14 15  1  0
 15 16  2  0
 15  4  1  0
 14  7  1  0
  5 17  1  0
 10 18  1  0
 13 19  1  0
M  CHG  2   3  -1   6  -1
M  END
>  <UniqueID>  (86) 
81

>  <SMILES>  (86) 
O=C([O-])c1c[n-]c2c(Br)cc(Cl)cc2c1=O

>  <Energy>  (86) 
27.629960331993967

>  <Genealogy>  (86) 
O=C([O-])c1c[n-]c2c(Br)cc(Cl)cc2c1=O (protonated)
O=C([O-])c1c[n-]c2c(Br)cc(Cl)cc2c1=O (3D coordinates assigned)
O=C([O-])c1c[n-]c2c(Br)cc(Cl)cc2c1=O (optimized conformer: 27.629960331993967 kcal/mol)

>  <smiles>  (86) 
O=C(O)c1c[nH]c2c(Br)cc(Cl)cc2c1=O

>  <score_type>  (86) 
oracle

>  <origin>  (86) 
adg

>  <m_score__min__energy>  (86) 
-10.140000000000001

>  <m_primary>  (86) 
energy

$$$$
86:0
     RDKit          3D

 41 44  0  0  0  0  0  0  0  0999 V2000
   57.4800   28.4910   42.9860 O   0  0  0  0  0  0  0  0  0  0  0  0
   56.5770   29.3990   43.7710 S   0  0  0  0  0  0  0  0  0  0  0  0
   55.3640   29.7200   42.9430 O   0  0  0  0  0  0  0  0  0  0  0  0
   56.0870   28.5980   45.2300 N   0  0  0  0  0  0  0  0  0  0  0  0
   56.6920   27.3710   45.6500 C   0  0  0  0  0  0  0  0  0  0  0  0
   55.8620   26.3180   46.0510 C   0  0  0  0  0  0  0  0  0  0  0  0
   56.4080   25.1500   46.5880 C   0  0  0  0  0  0  0  0  0  0  0  0
   57.7890   25.0230   46.7340 C   0  0  0  0  0  0  0  0  0  0  0  0
   58.6390   26.0560   46.3170 C   0  0  0  0  0  0  0  0  0  0  0  0
   60.0270   25.9450   46.4600 C   0  0  0  0  0  0  0  0  0  0  0  0
   60.8550   26.9780   46.0250 C   0  0  0  0  0  0  0  0  0  0  0  0
   60.2910   28.1070   45.4330 C   0  0  0  0  0  0  0  0  0  0  0  0
   58.9410   28.2110   45.2930 N   0  0  0  0  0  0  0  0  0  0  0  0
   58.0960   27.2330   45.7440 C   0  0  0  0  0  0  0  0  0  0  0  0
   57.4220   30.8960   44.1640 C   0  0  0  0  0  0  0  0  0  0  0  0
   57.6660   31.8370   43.1570 C   0  0  0  0  0  0  0  0  0  0  0  0
   58.2240   33.0770   43.4730 C   0  0  0  0  0  0  0  0  0  0  0  0
   58.5440   33.3940   44.8010 C   0  0  0  0  0  0  0  0  0  0  0  0
   58.2840   32.4560   45.8210 C   0  0  0  0  0  0  0  0  0  0  0  0
   57.7540   31.2000   45.4910 C   0  0  0  0  0  0  0  0  0  0  0  0
   58.6350   32.7600   47.2590 C   0  0  0  0  0  0  0  0  0  0  0  0
   58.7290   34.2040   47.5140 N   0  0  0  0  0  0  0  0  0  0  0  0
   59.6310   34.8440   46.5490 C   0  0  0  0  0  0  0  0  0  0  0  0
   59.0560   34.7720   45.1290 C   0  0  0  0  0  0  0  0  0  0  0  0
   54.7713   26.4109   45.9424 H   0  0  0  0  0  0  0  0  0  0  0  0
   55.7463   24.3273   46.8969 H   0  0  0  0  0  0  0  0  0  0  0  0
   58.2121   24.1097   47.1776 H   0  0  0  0  0  0  0  0  0  0  0  0
   60.4635   25.0437   46.9151 H   0  0  0  0  0  0  0  0  0  0  0  0
   61.9455   26.9031   46.1479 H   0  0  0  0  0  0  0  0  0  0  0  0
   60.9413   28.9194   45.0765 H   0  0  0  0  0  0  0  0  0  0  0  0
   58.5670   29.0670   44.8280 H   0  0  0  0  0  0  0  0  0  0  0  0
   57.4171   31.5985   42.1124 H   0  0  0  0  0  0  0  0  0  0  0  0
   58.4139   33.8101   42.6752 H   0  0  0  0  0  0  0  0  0  0  0  0
   57.5979   30.4487   46.2791 H   0  0  0  0  0  0  0  0  0  0  0  0
   57.8575   32.3350   47.9109 H   0  0  0  0  0  0  0  0  0  0  0  0
   59.6193   32.3154   47.4676 H   0  0  0  0  0  0  0  0  0  0  0  0
   57.7750   34.6270   47.4260 H   0  0  0  0  0  0  0  0  0  0  0  0
   59.7675   35.8990   46.8289 H   0  0  0  0  0  0  0  0  0  0  0  0
   60.5947   34.3138   46.5645 H   0  0  0  0  0  0  0  0  0  0  0  0
   58.2264   35.4894   45.0442 H   0  0  0  0  0  0  0  0  0  0  0  0
   59.8626   35.0140   44.4213 H   0  0  0  0  0  0  0  0  0  0  0  0
  1  2  2  0
  2  3  2  0
  2  4  1  0
  4  5  1  0
  5  6  2  0
  6  7  1  0
  7  8  2  0
  8  9  1  0
  9 10  2  0
 10 11  1  0
 11 12  2  0
 12 13  1  0
 13 14  2  0
  2 15  1  0
 15 16  2  0
 16 17  1  0
 17 18  2  0
 18 19  1  0
 19 20  2  0
 19 21  1  0
 21 22  1  0
 22 23  1  0
 23 24  1  0
 14  5  1  0
 20 15  1  0
 14  9  1  0
 24 18  1  0
  6 25  1  0
  7 26  1  0
  8 27  1  0
 10 28  1  0
 11 29  1  0
 12 30  1  0
 13 31  1  0
 16 32  1  0
 17 33  1  0
 20 34  1  0
 21 35  1  0
 21 36  1  0
 22 37  1  0
 23 38  1  0
 23 39  1  0
 24 40  1  0
 24 41  1  0
M  CHG  2   4  -1  13   1
M  END
>  <UniqueID>  (87) 
82

>  <SMILES>  (87) 
O=S(=O)([N-]c1cccc2ccc[nH+]c12)c1ccc2c(c1)CNCC2

>  <Energy>  (87) 
57.272623398178546

>  <Genealogy>  (87) 
O=S(=O)([N-]c1cccc2ccc[nH+]c12)c1ccc2c(c1)CNCC2 (protonated)
O=S(=O)([N-]c1cccc2ccc[nH+]c12)c1ccc2c(c1)CNCC2 (3D coordinates assigned)
O=S(=O)([N-]c1cccc2ccc[nH+]c12)c1ccc2c(c1)CNCC2 (nonaromatic ring conformer: 57.272623398178546 kcal/mol)

>  <smiles>  (87) 
O=S(=O)(Nc1cccc2cccnc12)c1ccc2c(c1)CNCC2

>  <score_type>  (87) 
oracle

>  <origin>  (87) 
adg

>  <m_score__min__energy>  (87) 
-8.9000000000000004

>  <m_primary>  (87) 
energy

$$$$
87:0
     RDKit          3D

 39 40  0  0  0  0  0  0  0  0999 V2000
   58.0530   32.2820   41.9110 C   0  0  0  0  0  0  0  0  0  0  0  0
   57.4370   31.8330   43.2420 C   0  0  1  0  0  0  0  0  0  0  0  0
   57.8330   30.4530   43.5450 N   0  0  0  0  0  0  0  0  0  0  0  0
   57.0370   29.5930   44.3730 C   0  0  0  0  0  0  0  0  0  0  0  0
   56.0340   30.0470   44.9870 O   0  0  0  0  0  0  0  0  0  0  0  0
   57.3900   28.1440   44.5080 C   0  0  0  0  0  0  0  0  0  0  0  0
   59.1610   27.8670   44.1460 S   0  0  0  0  0  0  0  0  0  0  0  0
   59.7270   27.6650   45.8760 C   0  0  0  0  0  0  0  0  0  0  0  0
   59.6910   28.9740   46.6150 C   0  0  0  0  0  0  0  0  0  0  0  0
   60.4220   30.0780   46.1460 C   0  0  0  0  0  0  0  0  0  0  0  0
   60.3930   31.2890   46.8440 C   0  0  0  0  0  0  0  0  0  0  0  0
   59.6350   31.4070   48.0130 C   0  0  0  0  0  0  0  0  0  0  0  0
   59.6080   32.5820   48.6890 F   0  0  0  0  0  0  0  0  0  0  0  0
   58.9030   30.3120   48.4850 C   0  0  0  0  0  0  0  0  0  0  0  0
   58.9310   29.0990   47.7900 C   0  0  0  0  0  0  0  0  0  0  0  0
   57.8440   32.7670   44.3660 C   0  0  0  0  0  0  0  0  0  0  0  0
   57.1640   32.7270   45.5970 C   0  0  0  0  0  0  0  0  0  0  0  0
   57.5320   33.5890   46.6360 C   0  0  0  0  0  0  0  0  0  0  0  0
   58.5800   34.4960   46.4580 C   0  0  0  0  0  0  0  0  0  0  0  0
   59.2610   34.5450   45.2390 C   0  0  0  0  0  0  0  0  0  0  0  0
   58.8970   33.6870   44.1980 C   0  0  0  0  0  0  0  0  0  0  0  0
   58.9275   32.9194   42.1082 H   0  0  0  0  0  0  0  0  0  0  0  0
   58.3657   31.3985   41.3351 H   0  0  0  0  0  0  0  0  0  0  0  0
   57.3076   32.8501   41.3351 H   0  0  0  0  0  0  0  0  0  0  0  0
   56.3416   31.8704   43.1492 H   0  0  0  0  0  0  0  0  0  0  0  0
   58.7070   30.0590   43.1300 H   0  0  0  0  0  0  0  0  0  0  0  0
   57.1770   27.8157   45.5360 H   0  0  0  0  0  0  0  0  0  0  0  0
   56.7900   27.5677   43.7884 H   0  0  0  0  0  0  0  0  0  0  0  0
   59.0699   26.9460   46.3871 H   0  0  0  0  0  0  0  0  0  0  0  0
   60.7646   27.3001   45.8632 H   0  0  0  0  0  0  0  0  0  0  0  0
   61.0192   29.9894   45.2265 H   0  0  0  0  0  0  0  0  0  0  0  0
   60.9675   32.1505   46.4729 H   0  0  0  0  0  0  0  0  0  0  0  0
   58.3050   30.4054   49.4035 H   0  0  0  0  0  0  0  0  0  0  0  0
   58.3558   28.2394   48.1646 H   0  0  0  0  0  0  0  0  0  0  0  0
   56.3389   32.0145   45.7434 H   0  0  0  0  0  0  0  0  0  0  0  0
   56.9950   33.5526   47.5953 H   0  0  0  0  0  0  0  0  0  0  0  0
   58.8687   35.1710   47.2771 H   0  0  0  0  0  0  0  0  0  0  0  0
   60.0850   35.2601   45.0986 H   0  0  0  0  0  0  0  0  0  0  0  0
   59.4367   33.7304   43.2405 H   0  0  0  0  0  0  0  0  0  0  0  0
  1  2  1  0
  2  3  1  0
  3  4  1  0
  4  5  2  0
  4  6  1  0
  6  7  1  0
  7  8  1  0
  8  9  1  0
  9 10  2  0
 10 11  1  0
 11 12  2  0
 12 13  1  0
 12 14  1  0
 14 15  2  0
  2 16  1  0
 16 17  2  0
 17 18  1  0
 18 19  2  0
 19 20  1  0
 20 21  2  0
 15  9  1  0
 21 16  1  0
  1 22  1  0
  1 23  1  0
  1 24  1  0
  2 25  1  6
  3 26  1  0
  6 27  1  0
  6 28  1  0
  8 29  1  0
  8 30  1  0
 10 31  1  0
 11 32  1  0
 14 33  1  0
 15 34  1  0
 17 35  1  0
 18 36  1  0
 19 37  1  0
 20 38  1  0
 21 39  1  0
M  END
>  <UniqueID>  (88) 
83

>  <SMILES>  (88) 
C[C@@H](NC(=O)CSCc1ccc(F)cc1)c1ccccc1

>  <Energy>  (88) 
31.493580901360865

>  <Genealogy>  (88) 
C[C@@H](NC(=O)CSCc1ccc(F)cc1)c1ccccc1 (chirality)
C[C@@H](NC(=O)CSCc1ccc(F)cc1)c1ccccc1 (3D coordinates assigned)
C[C@@H](NC(=O)CSCc1ccc(F)cc1)c1ccccc1 (optimized conformer: 31.493580901360865 kcal/mol)

>  <smiles>  (88) 
CC(NC(=O)CSCc1ccc(F)cc1)c1ccccc1

>  <score_type>  (88) 
oracle

>  <origin>  (88) 
adg

>  <m_score__min__energy>  (88) 
-7.2800000000000002

>  <m_primary>  (88) 
energy

$$$$
88:0
     RDKit          3D

 41 44  0  0  0  0  0  0  0  0999 V2000
   59.0310   28.1860   45.5320 C   0  0  0  0  0  0  0  0  0  0  0  0
   57.6590   28.8050   45.7720 C   0  0  0  0  0  0  0  0  0  0  0  0
   57.2470   29.6020   44.6140 N   0  0  0  0  0  0  0  0  0  0  0  0
   56.6520   29.0690   43.5590 N   0  0  0  0  0  0  0  0  0  0  0  0
   56.4880   30.0390   42.6400 C   0  0  0  0  0  0  0  0  0  0  0  0
   57.0040   31.2250   43.1200 C   0  0  0  0  0  0  0  0  0  0  0  0
   57.4710   30.9180   44.3830 C   0  0  0  0  0  0  0  0  0  0  0  0
   58.1340   31.8730   45.2960 C   0  0  0  0  0  0  0  0  0  0  0  0
   57.5580   33.1320   45.5240 C   0  0  0  0  0  0  0  0  0  0  0  0
   58.1620   34.0390   46.3980 C   0  0  0  0  0  0  0  0  0  0  0  0
   59.3460   33.6920   47.0640 C   0  0  0  0  0  0  0  0  0  0  0  0
   59.9660   34.5870   47.9350 C   0  0  0  0  0  0  0  0  0  0  0  0
   61.1080   34.2270   48.5750 N   0  0  0  0  0  0  0  0  0  0  0  0
   61.6680   33.0210   48.4050 N   0  0  0  0  0  0  0  0  0  0  0  0
   62.8780   32.7120   49.1260 C   0  0  0  0  0  0  0  0  0  0  0  0
   64.0870   33.3530   48.8040 C   0  0  0  0  0  0  0  0  0  0  0  0
   65.2590   33.0370   49.5000 C   0  0  0  0  0  0  0  0  0  0  0  0
   65.2340   32.0760   50.5140 C   0  0  0  0  0  0  0  0  0  0  0  0
   64.0380   31.4280   50.8330 C   0  0  0  0  0  0  0  0  0  0  0  0
   62.8640   31.7410   50.1410 C   0  0  0  0  0  0  0  0  0  0  0  0
   61.1080   32.1050   47.5480 C   0  0  0  0  0  0  0  0  0  0  0  0
   61.6630   30.9850   47.3630 O   0  0  0  0  0  0  0  0  0  0  0  0
   59.9250   32.4260   46.8610 C   0  0  0  0  0  0  0  0  0  0  0  0
   59.3080   31.5170   45.9790 C   0  0  0  0  0  0  0  0  0  0  0  0
   59.5099   27.9699   46.4984 H   0  0  0  0  0  0  0  0  0  0  0  0
   58.9173   27.2520   44.9622 H   0  0  0  0  0  0  0  0  0  0  0  0
   59.6560   28.8893   44.9622 H   0  0  0  0  0  0  0  0  0  0  0  0
   56.9245   28.0036   45.9399 H   0  0  0  0  0  0  0  0  0  0  0  0
   57.7132   29.4600   46.6541 H   0  0  0  0  0  0  0  0  0  0  0  0
   56.0146   29.9061   41.6560 H   0  0  0  0  0  0  0  0  0  0  0  0
   57.0363   32.1991   42.6100 H   0  0  0  0  0  0  0  0  0  0  0  0
   56.6245   33.4066   45.0110 H   0  0  0  0  0  0  0  0  0  0  0  0
   57.7080   35.0271   46.5640 H   0  0  0  0  0  0  0  0  0  0  0  0
   59.5306   35.5831   48.1033 H   0  0  0  0  0  0  0  0  0  0  0  0
   61.5380   34.9180   49.2320 H   0  0  0  0  0  0  0  0  0  0  0  0
   64.1117   34.1056   48.0021 H   0  0  0  0  0  0  0  0  0  0  0  0
   66.2013   33.5458   49.2485 H   0  0  0  0  0  0  0  0  0  0  0  0
   66.1559   31.8296   51.0611 H   0  0  0  0  0  0  0  0  0  0  0  0
   64.0199   30.6701   51.6301 H   0  0  0  0  0  0  0  0  0  0  0  0
   61.9257   31.2248   50.3924 H   0  0  0  0  0  0  0  0  0  0  0  0
   59.7491   30.5213   45.8243 H   0  0  0  0  0  0  0  0  0  0  0  0
  1  2  1  0
  2  3  1  0
  3  4  1  0
  4  5  2  0
  5  6  1  0
  6  7  2  0
  7  8  1  0
  8  9  2  0
  9 10  1  0
 10 11  2  0
 11 12  1  0
 12 13  2  0
 13 14  1  0
 14 15  1  0
 15 16  2  0
 16 17  1  0
 17 18  2  0
 18 19  1  0
 19 20  2  0
 14 21  1  0
 21 22  2  0
 21 23  1  0
 23 24  2  0
  7  3  1  0
 24  8  1  0
 23 11  1  0
 20 15  1  0
  1 25  1  0
  1 26  1  0
  1 27  1  0
  2 28  1  0
  2 29  1  0
  5 30  1  0
  6 31  1  0
  9 32  1  0
 10 33  1  0
 12 34  1  0
 13 35  1  0
 16 36  1  0
 17 37  1  0
 18 38  1  0
 19 39  1  0
 20 40  1  0
 24 41  1  0
M  CHG  1  13   1
M  END
>  <UniqueID>  (89) 
84

>  <SMILES>  (89) 
CCn1nccc1-c1ccc2c[nH+]n(-c3ccccc3)c(=O)c2c1

>  <Energy>  (89) 
90.13599393491079

>  <Genealogy>  (89) 
CCn1nccc1-c1ccc2c[nH+]n(-c3ccccc3)c(=O)c2c1 (protonated)
CCn1nccc1-c1ccc2c[nH+]n(-c3ccccc3)c(=O)c2c1 (3D coordinates assigned)
CCn1nccc1-c1ccc2c[nH+]n(-c3ccccc3)c(=O)c2c1 (optimized conformer: 90.13599393491079 kcal/mol)

>  <smiles>  (89) 
CCn1nccc1-c1ccc2cnn(-c3ccccc3)c(=O)c2c1

>  <score_type>  (89) 
oracle

>  <origin>  (89) 
adg

>  <m_score__min__energy>  (89) 
-6.8499999999999996

>  <m_primary>  (89) 
energy

$$$$
89:0
     RDKit          3D

 54 57  0  0  0  0  0  0  0  0999 V2000
   60.9369   26.7182   48.7346 H   0  0  0  0  0  0  0  0  0  0  0  0
   60.3840   27.6680   48.6870 C   0  0  0  0  0  0  0  0  0  0  0  0
   60.5580   28.5990   49.6490 N   0  0  0  0  0  0  0  0  0  0  0  0
   59.9260   29.7990   49.6110 C   0  0  0  0  0  0  0  0  0  0  0  0
   60.1850   30.7200   50.6320 C   0  0  0  0  0  0  0  0  0  0  0  0
   60.8493   30.4414   51.4633 H   0  0  0  0  0  0  0  0  0  0  0  0
   59.6080   31.9860   50.6030 C   0  0  0  0  0  0  0  0  0  0  0  0
   59.9330   33.1310   51.8910 Cl  0  0  0  0  0  0  0  0  0  0  0  0
   58.7960   32.3510   49.5320 C   0  0  0  0  0  0  0  0  0  0  0  0
   58.3608   33.3607   49.4976 H   0  0  0  0  0  0  0  0  0  0  0  0
   58.5290   31.4470   48.5010 C   0  0  0  0  0  0  0  0  0  0  0  0
   57.9119   31.7660   47.6481 H   0  0  0  0  0  0  0  0  0  0  0  0
   59.0400   30.1260   48.5360 C   0  0  0  0  0  0  0  0  0  0  0  0
   58.7860   29.1100   47.5520 C   0  0  0  0  0  0  0  0  0  0  0  0
   57.9030   29.1530   46.5850 N   0  0  0  0  0  0  0  0  0  0  0  0
   57.4220   28.2170   45.5690 C   0  0  0  0  0  0  0  0  0  0  0  0
   56.3282   28.1356   45.6524 H   0  0  0  0  0  0  0  0  0  0  0  0
   57.9114   27.2478   45.7454 H   0  0  0  0  0  0  0  0  0  0  0  0
   57.7770   28.6710   44.1430 C   0  0  0  0  0  0  0  0  0  0  0  0
   56.8468   28.9042   43.6041 H   0  0  0  0  0  0  0  0  0  0  0  0
   58.3285   27.8529   43.6567 H   0  0  0  0  0  0  0  0  0  0  0  0
   58.6770   29.9140   44.1350 C   0  0  0  0  0  0  0  0  0  0  0  0
   59.4456   29.8008   43.3563 H   0  0  0  0  0  0  0  0  0  0  0  0
   59.1531   30.0181   45.1212 H   0  0  0  0  0  0  0  0  0  0  0  0
   57.8810   31.1160   43.8590 N   0  0  0  0  0  0  0  0  0  0  0  0
   57.8360   32.1810   44.8280 C   0  0  0  0  0  0  0  0  0  0  0  0
   58.8730   33.0080   45.0910 N   0  0  0  0  0  0  0  0  0  0  0  0
   58.3300   33.8280   46.0140 C   0  0  0  0  0  0  0  0  0  0  0  0
   59.0800   34.9310   46.6880 C   0  0  0  0  0  0  0  0  0  0  0  0
   59.2785   35.7335   45.9623 H   0  0  0  0  0  0  0  0  0  0  0  0
   58.4769   35.3227   47.5203 H   0  0  0  0  0  0  0  0  0  0  0  0
   60.3830   34.4110   47.2240 C   0  0  0  0  0  0  0  0  0  0  0  0
   60.7030   34.5590   48.5840 C   0  0  0  0  0  0  0  0  0  0  0  0
   59.9836   35.0341   49.2672 H   0  0  0  0  0  0  0  0  0  0  0  0
   61.9320   34.1050   49.0730 C   0  0  0  0  0  0  0  0  0  0  0  0
   62.1738   34.2146   50.1405 H   0  0  0  0  0  0  0  0  0  0  0  0
   62.8530   33.5120   48.2050 C   0  0  0  0  0  0  0  0  0  0  0  0
   63.8180   33.1513   48.5905 H   0  0  0  0  0  0  0  0  0  0  0  0
   62.5490   33.3770   46.8480 C   0  0  0  0  0  0  0  0  0  0  0  0
   63.2776   32.9144   46.1660 H   0  0  0  0  0  0  0  0  0  0  0  0
   61.3220   33.8280   46.3550 C   0  0  0  0  0  0  0  0  0  0  0  0
   61.0901   33.7267   45.2845 H   0  0  0  0  0  0  0  0  0  0  0  0
   57.0580   33.4940   46.2980 N   0  0  0  0  0  0  0  0  0  0  0  0
   56.4120   33.9450   46.9830 H   0  0  0  0  0  0  0  0  0  0  0  0
   56.7790   32.4750   45.5490 O   0  0  0  0  0  0  0  0  0  0  0  0
   57.1310   31.2440   42.6050 C   0  0  0  0  0  0  0  0  0  0  0  0
   56.0872   31.5063   42.8324 H   0  0  0  0  0  0  0  0  0  0  0  0
   57.1720   30.2859   42.0661 H   0  0  0  0  0  0  0  0  0  0  0  0
   57.7420   32.3310   41.7270 C   0  0  0  0  0  0  0  0  0  0  0  0
   58.1815   33.1128   42.3639 H   0  0  0  0  0  0  0  0  0  0  0  0
   58.5256   31.8920   41.0919 H   0  0  0  0  0  0  0  0  0  0  0  0
   56.9597   32.7722   41.0919 H   0  0  0  0  0  0  0  0  0  0  0  0
   59.5070   27.9090   47.6370 C   0  0  0  0  0  0  0  0  0  0  0  0
   59.3752   27.1441   46.8575 H   0  0  0  0  0  0  0  0  0  0  0  0
  1  2  1  0
  2  3  1  0
  3  4  1  0
  4  5  2  0
  5  6  1  0
  5  7  1  0
  7  8  1  0
  7  9  2  0
  9 10  1  0
  9 11  1  0
 11 12  1  0
 11 13  2  0
 13 14  1  0
 14 15  2  0
 15 16  1  0
 16 17  1  0
 16 18  1  0
 16 19  1  0
 19 20  1  0
 19 21  1  0
 19 22  1  0
 22 23  1  0
 22 24  1  0
 22 25  1  0
 25 26  1  0
 26 27  2  0
 27 28  1  0
 28 29  1  0
 29 30  1  0
 29 31  1  0
 29 32  1  0
 32 33  2  0
 33 34  1  0
 33 35  1  0
 35 36  1  0
 35 37  2  0
 37 38  1  0
 37 39  1  0
 39 40  1  0
 39 41  2  0
 41 42  1  0
 28 43  2  0
 43 44  1  0
 43 45  1  0
 25 46  1  0
 46 47  1  0
 46 48  1  0
 46 49  1  0
 49 50  1  0
 49 51  1  0
 49 52  1  0
 14 53  1  0
 53 54  1  0
 53  2  2  0
 13  4  1  0
 45 26  1  0
 41 32  1  0
M  CHG  2   3  -1  43   1
M  END
>  <UniqueID>  (90) 
85

>  <SMILES>  (90) 
CCN(CCC/N=c1/cc[n-]c2cc(Cl)ccc12)c1nc(Cc2ccccc2)[nH+]o1

>  <Energy>  (90) 
98.46314380482922

>  <Genealogy>  (90) 
CCN(CCCN=c1cc[n-]c2cc(Cl)ccc12)c1nc(Cc2ccccc2)[nH+]o1 (protonated)
CCN(CCC/N=c1/cc[n-]c2cc(Cl)ccc12)c1nc(Cc2ccccc2)[nH+]o1 (cis-trans isomerization)
CCN(CCC/N=c1/cc[n-]c2cc(Cl)ccc12)c1nc(Cc2ccccc2)[nH+]o1 (3D coordinates assigned)
CCN(CCC/N=c1/cc[n-]c2cc(Cl)ccc12)c1nc(Cc2ccccc2)[nH+]o1 (optimized conformer: 98.46314380482922 kcal/mol)

>  <smiles>  (90) 
CCN(CCCN=c1cc[nH]c2cc(Cl)ccc12)c1nc(Cc2ccccc2)no1

>  <score_type>  (90) 
oracle

>  <origin>  (90) 
adg

>  <m_score__min__energy>  (90) 
-9.3599999999999994

>  <m_primary>  (90) 
energy

$$$$
90:0
     RDKit          3D

 29 30  0  0  0  0  0  0  0  0999 V2000
   58.2770   32.1990   41.8790 O   0  0  0  0  0  0  0  0  0  0  0  0
   57.6200   31.9270   42.9220 C   0  0  0  0  0  0  0  0  0  0  0  0
   56.6440   30.7800   42.8670 C   0  0  0  0  0  0  0  0  0  0  0  0
   56.6320   30.0090   44.1630 C   0  0  0  0  0  0  0  0  0  0  0  0
   55.5740   30.0160   44.8480 O   0  0  0  0  0  0  0  0  0  0  0  0
   57.8100   29.2390   44.6490 C   0  0  0  0  0  0  0  0  0  0  0  0
   58.9490   29.8820   45.1740 C   0  0  0  0  0  0  0  0  0  0  0  0
   60.0450   29.1360   45.6190 C   0  0  0  0  0  0  0  0  0  0  0  0
   60.0180   27.7420   45.5520 C   0  0  0  0  0  0  0  0  0  0  0  0
   61.0820   27.0210   45.9860 F   0  0  0  0  0  0  0  0  0  0  0  0
   58.8940   27.0910   45.0410 C   0  0  0  0  0  0  0  0  0  0  0  0
   57.7960   27.8320   44.5930 C   0  0  0  0  0  0  0  0  0  0  0  0
   57.8250   32.7480   44.1460 C   0  0  0  0  0  0  0  0  0  0  0  0
   58.9170   33.6370   44.2180 C   0  0  0  0  0  0  0  0  0  0  0  0
   59.1240   34.4190   45.3580 C   0  0  0  0  0  0  0  0  0  0  0  0
   58.2480   34.3270   46.4410 C   0  0  0  0  0  0  0  0  0  0  0  0
   57.1650   33.4480   46.3870 C   0  0  0  0  0  0  0  0  0  0  0  0
   56.9530   32.6620   45.2500 C   0  0  0  0  0  0  0  0  0  0  0  0
   55.6357   31.1762   42.6763 H   0  0  0  0  0  0  0  0  0  0  0  0
   56.9532   30.0990   42.0604 H   0  0  0  0  0  0  0  0  0  0  0  0
   58.9761   30.9800   45.2342 H   0  0  0  0  0  0  0  0  0  0  0  0
   60.9304   29.6489   46.0227 H   0  0  0  0  0  0  0  0  0  0  0  0
   58.8719   25.9924   44.9906 H   0  0  0  0  0  0  0  0  0  0  0  0
   56.9134   27.3112   44.1933 H   0  0  0  0  0  0  0  0  0  0  0  0
   59.6124   33.7159   43.3693 H   0  0  0  0  0  0  0  0  0  0  0  0
   59.9797   35.1089   45.4018 H   0  0  0  0  0  0  0  0  0  0  0  0
   58.4109   34.9462   47.3355 H   0  0  0  0  0  0  0  0  0  0  0  0
   56.4762   33.3734   47.2414 H   0  0  0  0  0  0  0  0  0  0  0  0
   56.0982   31.9705   45.2169 H   0  0  0  0  0  0  0  0  0  0  0  0
  1  2  2  0
  2  3  1  0
  3  4  1  0
  4  5  2  0
  4  6  1  0
  6  7  2  0
  7  8  1  0
  8  9  2  0
  9 10  1  0
  9 11  1  0
 11 12  2  0
  2 13  1  0
 13 14  2  0
 14 15  1  0
 15 16  2  0
 16 17  1  0
 17 18  2  0
 12  6  1  0
 18 13  1  0
  3 19  1  0
  3 20  1  0
  7 21  1  0
  8 22  1  0
 11 23  1  0
 12 24  1  0
 14 25  1  0
 15 26  1  0
 16 27  1  0
 17 28  1  0
 18 29  1  0
M  END
>  <UniqueID>  (91) 
86

>  <SMILES>  (91) 
O=C(CC(=O)c1ccc(F)cc1)c1ccccc1

>  <Energy>  (91) 
32.36235342741955

>  <Genealogy>  (91) 
O=C(CC(=O)c1ccc(F)cc1)c1ccccc1 (3D coordinates assigned)
O=C(CC(=O)c1ccc(F)cc1)c1ccccc1 (optimized conformer: 32.36235342741955 kcal/mol)

>  <smiles>  (91) 
O=C(CC(=O)c1ccc(F)cc1)c1ccccc1

>  <score_type>  (91) 
oracle

>  <origin>  (91) 
adg

>  <m_score__min__energy>  (91) 
-6.96

>  <m_primary>  (91) 
energy

$$$$
91:0
     RDKit          3D

 43 46  0  0  0  0  0  0  0  0999 V2000
   57.4260   31.9420   43.7410 C   0  0  0  0  0  0  0  0  0  0  0  0
   56.9360   30.6890   44.3930 C   0  0  0  0  0  0  0  0  0  0  0  0
   55.6320   30.3640   44.4960 N   0  0  0  0  0  0  0  0  0  0  0  0
   55.5760   29.1750   45.0250 O   0  0  0  0  0  0  0  0  0  0  0  0
   56.7780   28.7020   45.2600 C   0  0  0  0  0  0  0  0  0  0  0  0
   57.0540   27.3520   45.8370 C   0  0  0  0  0  0  0  0  0  0  0  0
   57.7070   29.6480   44.8760 C   0  0  0  0  0  0  0  0  0  0  0  0
   59.2030   29.5140   44.8550 C   0  0  0  0  0  0  0  0  0  0  0  0
   59.7930   30.4050   45.8470 N   0  0  0  0  0  0  0  0  0  0  0  0
   60.7170   30.0620   46.7650 C   0  0  0  0  0  0  0  0  0  0  0  0
   60.9580   31.1730   47.5440 C   0  0  0  0  0  0  0  0  0  0  0  0
   61.8880   31.2890   48.6370 N   0  0  0  0  0  0  0  0  0  0  0  0
   61.8940   30.5530   49.7660 C   0  0  0  0  0  0  0  0  0  0  0  0
   60.9570   29.5700   50.0740 O   0  0  0  0  0  0  0  0  0  0  0  0
   62.9480   30.9320   50.5640 C   0  0  0  0  0  0  0  0  0  0  0  0
   63.6140   31.9210   49.9320 N   0  0  0  0  0  0  0  0  0  0  0  0
   64.7960   32.5800   50.4230 C   0  0  0  0  0  0  0  0  0  0  0  0
   64.6850   33.7630   51.1720 C   0  0  0  0  0  0  0  0  0  0  0  0
   65.8310   34.4160   51.6380 C   0  0  0  0  0  0  0  0  0  0  0  0
   67.0970   33.8970   51.3510 C   0  0  0  0  0  0  0  0  0  0  0  0
   68.2070   34.5310   51.8020 F   0  0  0  0  0  0  0  0  0  0  0  0
   67.2170   32.7290   50.5940 C   0  0  0  0  0  0  0  0  0  0  0  0
   66.0730   32.0740   50.1280 C   0  0  0  0  0  0  0  0  0  0  0  0
   62.9550   32.1190   48.7610 C   0  0  0  0  0  0  0  0  0  0  0  0
   63.5200   33.0770   47.5480 S   0  0  0  0  0  0  0  0  0  0  0  0
   60.1460   32.1700   47.0370 C   0  0  0  0  0  0  0  0  0  0  0  0
   59.4360   31.6700   46.0070 N   0  0  0  0  0  0  0  0  0  0  0  0
   57.7109   32.6705   44.5144 H   0  0  0  0  0  0  0  0  0  0  0  0
   58.3003   31.7116   43.1145 H   0  0  0  0  0  0  0  0  0  0  0  0
   56.6274   32.3658   43.1145 H   0  0  0  0  0  0  0  0  0  0  0  0
   57.0415   27.4131   46.9352 H   0  0  0  0  0  0  0  0  0  0  0  0
   56.2819   26.6445   45.5003 H   0  0  0  0  0  0  0  0  0  0  0  0
   58.0418   27.0043   45.5003 H   0  0  0  0  0  0  0  0  0  0  0  0
   59.4798   28.4750   45.0869 H   0  0  0  0  0  0  0  0  0  0  0  0
   59.5777   29.7835   43.8565 H   0  0  0  0  0  0  0  0  0  0  0  0
   61.1922   29.0758   46.8731 H   0  0  0  0  0  0  0  0  0  0  0  0
   60.6970   29.3830   51.0340 H   0  0  0  0  0  0  0  0  0  0  0  0
   63.2032   30.5043   51.5448 H   0  0  0  0  0  0  0  0  0  0  0  0
   63.6909   34.1785   51.3935 H   0  0  0  0  0  0  0  0  0  0  0  0
   65.7360   35.3380   52.2304 H   0  0  0  0  0  0  0  0  0  0  0  0
   68.2135   32.3238   50.3641 H   0  0  0  0  0  0  0  0  0  0  0  0
   66.1733   31.1579   49.5274 H   0  0  0  0  0  0  0  0  0  0  0  0
   60.0889   33.2022   47.4128 H   0  0  0  0  0  0  0  0  0  0  0  0
  1  2  1  0
  2  3  2  0
  3  4  1  0
  4  5  1  0
  5  6  1  0
  5  7  2  0
  7  8  1  0
  8  9  1  0
  9 10  1  0
 10 11  2  0
 11 12  1  0
 12 13  1  0
 13 14  1  0
 13 15  2  0
 15 16  1  0
 16 17  1  0
 17 18  2  0
 18 19  1  0
 19 20  2  0
 20 21  1  0
 20 22  1  0
 22 23  2  0
 16 24  1  0
 24 25  2  0
 11 26  1  0
 26 27  2  0
  7  2  1  0
 27  9  1  0
 24 12  1  0
 23 17  1  0
  1 28  1  0
  1 29  1  0
  1 30  1  0
  6 31  1  0
  6 32  1  0
  6 33  1  0
  8 34  1  0
  8 35  1  0
 10 36  1  0
 14 37  1  0
 15 38  1  0
 18 39  1  0
 19 40  1  0
 22 41  1  0
 23 42  1  0
 26 43  1  0
M  END
>  <UniqueID>  (92) 
87

>  <SMILES>  (92) 
Cc1noc(C)c1Cn1cc(-n2c(O)cn(-c3ccc(F)cc3)c2=S)cn1

>  <Energy>  (92) 
147.55446022710947

>  <Genealogy>  (92) 
Cc1noc(C)c1Cn1cc(-n2c(O)cn(-c3ccc(F)cc3)c2=S)cn1 (3D coordinates assigned)
Cc1noc(C)c1Cn1cc(-n2c(O)cn(-c3ccc(F)cc3)c2=S)cn1 (optimized conformer: 147.55446022710947 kcal/mol)

>  <smiles>  (92) 
Cc1noc(C)c1Cn1cc(-n2c(O)cn(-c3ccc(F)cc3)c2=S)cn1

>  <score_type>  (92) 
oracle

>  <origin>  (92) 
adg

>  <m_score__min__energy>  (92) 
-8.5800000000000001

>  <m_primary>  (92) 
energy

$$$$
92:0
     RDKit          3D

 39 40  0  0  0  0  0  0  0  0999 V2000
   56.5434   31.1199   42.3085 H   0  0  0  0  0  0  0  0  0  0  0  0
   56.7620   30.8610   43.3550 C   0  0  0  0  0  0  0  0  0  0  0  0
   57.7640   31.4190   43.9640 N   0  0  0  0  0  0  0  0  0  0  0  0
   57.6970   32.6120   44.7600 C   0  0  0  0  0  0  0  0  0  0  0  0
   56.9460   32.6110   45.7710 O   0  0  0  0  0  0  0  0  0  0  0  0
   58.5480   33.8250   44.4530 C   0  0  0  0  0  0  0  0  0  0  0  0
   59.4872   33.4820   43.9944 H   0  0  0  0  0  0  0  0  0  0  0  0
   57.9591   34.4662   43.7807 H   0  0  0  0  0  0  0  0  0  0  0  0
   58.8940   34.6730   45.6890 C   0  0  0  0  0  0  0  0  0  0  0  0
   59.3680   35.6084   45.3568 H   0  0  0  0  0  0  0  0  0  0  0  0
   57.9611   34.8729   46.2365 H   0  0  0  0  0  0  0  0  0  0  0  0
   59.8370   33.9530   46.6210 C   0  0  0  0  0  0  0  0  0  0  0  0
   61.2030   33.8570   46.3050 C   0  0  0  0  0  0  0  0  0  0  0  0
   61.5820   34.3031   45.3737 H   0  0  0  0  0  0  0  0  0  0  0  0
   62.0830   33.1970   47.1690 C   0  0  0  0  0  0  0  0  0  0  0  0
   63.1505   33.1224   46.9143 H   0  0  0  0  0  0  0  0  0  0  0  0
   61.6070   32.6320   48.3560 C   0  0  0  0  0  0  0  0  0  0  0  0
   62.7130   31.8050   49.4390 Cl  0  0  0  0  0  0  0  0  0  0  0  0
   60.2500   32.7240   48.6780 C   0  0  0  0  0  0  0  0  0  0  0  0
   59.8757   32.2774   49.6110 H   0  0  0  0  0  0  0  0  0  0  0  0
   59.3670   33.3830   47.8160 C   0  0  0  0  0  0  0  0  0  0  0  0
   58.3003   33.4552   48.0749 H   0  0  0  0  0  0  0  0  0  0  0  0
   55.9220   29.8880   44.0570 C   0  0  0  0  0  0  0  0  0  0  0  0
   54.7630   29.6490   43.6240 O   0  0  0  0  0  0  0  0  0  0  0  0
   56.4030   29.2550   45.2500 N   0  0  0  0  0  0  0  0  0  0  0  0
   57.7740   29.1390   45.6680 C   0  0  0  0  0  0  0  0  0  0  0  0
   58.2550   29.8190   46.8020 C   0  0  0  0  0  0  0  0  0  0  0  0
   57.5786   30.4687   47.3768 H   0  0  0  0  0  0  0  0  0  0  0  0
   59.5850   29.6750   47.2030 C   0  0  0  0  0  0  0  0  0  0  0  0
   59.9526   30.2132   48.0891 H   0  0  0  0  0  0  0  0  0  0  0  0
   60.4480   28.8500   46.4820 C   0  0  0  0  0  0  0  0  0  0  0  0
   61.4977   28.7465   46.7942 H   0  0  0  0  0  0  0  0  0  0  0  0
   59.9810   28.1550   45.3640 C   0  0  0  0  0  0  0  0  0  0  0  0
   60.6667   27.5092   44.7959 H   0  0  0  0  0  0  0  0  0  0  0  0
   58.6410   28.2760   44.9610 C   0  0  0  0  0  0  0  0  0  0  0  0
   58.1460   27.5110   43.7640 C   0  0  0  0  0  0  0  0  0  0  0  0
   57.5771   26.6317   44.1004 H   0  0  0  0  0  0  0  0  0  0  0  0
   57.4954   28.1589   43.1582 H   0  0  0  0  0  0  0  0  0  0  0  0
   59.0036   27.1830   43.1582 H   0  0  0  0  0  0  0  0  0  0  0  0
  1  2  1  0
  2  3  2  0
  3  4  1  0
  4  5  2  0
  4  6  1  0
  6  7  1  0
  6  8  1  0
  6  9  1  0
  9 10  1  0
  9 11  1  0
  9 12  1  0
 12 13  2  0
 13 14  1  0
 13 15  1  0
 15 16  1  0
 15 17  2  0
 17 18  1  0
 17 19  1  0
 19 20  1  0
 19 21  2  0
 21 22  1  0
  2 23  1  0
 23 24  2  0
 23 25  1  0
 25 26  1  0
 26 27  2  0
 27 28  1  0
 27 29  1  0
 29 30  1  0
 29 31  2  0
 31 32  1  0
 31 33  1  0
 33 34  1  0
 33 35  2  0
 35 36  1  0
 36 37  1  0
 36 38  1  0
 36 39  1  0
 21 12  1  0
 35 26  1  0
M  CHG  1  25  -1
M  END
>  <UniqueID>  (93) 
88

>  <SMILES>  (93) 
Cc1ccccc1[N-]C(=O)/C=N/C(=O)CCc1ccc(Cl)cc1

>  <Energy>  (93) 
40.42258725066145

>  <Genealogy>  (93) 
Cc1ccccc1[N-]C(=O)C=NC(=O)CCc1ccc(Cl)cc1 (protonated)
Cc1ccccc1[N-]C(=O)/C=N/C(=O)CCc1ccc(Cl)cc1 (cis-trans isomerization)
Cc1ccccc1[N-]C(=O)/C=N/C(=O)CCc1ccc(Cl)cc1 (3D coordinates assigned)
Cc1ccccc1[N-]C(=O)/C=N/C(=O)CCc1ccc(Cl)cc1 (optimized conformer: 40.42258725066145 kcal/mol)

>  <smiles>  (93) 
Cc1ccccc1NC(=O)C=NC(=O)CCc1ccc(Cl)cc1

>  <score_type>  (93) 
oracle

>  <origin>  (93) 
adg

>  <m_score__min__energy>  (93) 
-9.9199999999999999

>  <m_primary>  (93) 
energy

$$$$
93:0
     RDKit          3D

 38 39  0  0  0  0  0  0  0  0999 V2000
   57.8550   32.2340   42.3740 C   0  0  0  0  0  0  0  0  0  0  0  0
   57.4000   32.3910   43.7130 O   0  0  0  0  0  0  0  0  0  0  0  0
   58.1130   33.0550   44.7250 C   0  0  0  0  0  0  0  0  0  0  0  0
   58.5480   34.3870   44.5760 C   0  0  0  0  0  0  0  0  0  0  0  0
   59.3020   35.0010   45.5790 C   0  0  0  0  0  0  0  0  0  0  0  0
   59.6350   34.2960   46.7350 C   0  0  0  0  0  0  0  0  0  0  0  0
   59.2060   32.9780   46.8980 C   0  0  0  0  0  0  0  0  0  0  0  0
   58.4230   32.3590   45.9120 C   0  0  0  0  0  0  0  0  0  0  0  0
   58.0020   31.0030   46.1110 N   0  0  0  0  0  0  0  0  0  0  0  0
   58.8220   29.8720   45.7710 C   0  0  0  0  0  0  0  0  0  0  0  0
   59.9870   30.0460   45.3200 O   0  0  0  0  0  0  0  0  0  0  0  0
   58.3220   28.4920   45.9560 C   0  0  0  0  0  0  0  0  0  0  0  0
   59.2350   27.4880   46.3030 C   0  0  0  0  0  0  0  0  0  0  0  0
   58.8050   26.1810   46.5040 C   0  0  0  0  0  0  0  0  0  0  0  0
   57.4590   25.8570   46.3550 C   0  0  0  0  0  0  0  0  0  0  0  0
   56.5180   26.8370   45.9830 C   0  0  0  0  0  0  0  0  0  0  0  0
   55.1630   26.5080   45.8240 O   0  0  0  0  0  0  0  0  0  0  0  0
   54.6610   25.1910   45.6180 C   0  0  0  0  0  0  0  0  0  0  0  0
   56.9570   28.1730   45.7660 C   0  0  0  0  0  0  0  0  0  0  0  0
   56.1010   29.2070   45.3370 O   0  0  0  0  0  0  0  0  0  0  0  0
   55.9950   29.7360   44.0200 C   0  0  0  0  0  0  0  0  0  0  0  0
   58.8948   31.8752   42.3798 H   0  0  0  0  0  0  0  0  0  0  0  0
   57.2180   31.5037   41.8535 H   0  0  0  0  0  0  0  0  0  0  0  0
   57.8039   33.2017   41.8535 H   0  0  0  0  0  0  0  0  0  0  0  0
   58.2923   34.9468   43.6643 H   0  0  0  0  0  0  0  0  0  0  0  0
   59.6336   36.0426   45.4566 H   0  0  0  0  0  0  0  0  0  0  0  0
   60.2364   34.7791   47.5192 H   0  0  0  0  0  0  0  0  0  0  0  0
   59.4835   32.4211   47.8051 H   0  0  0  0  0  0  0  0  0  0  0  0
   57.0170   30.8430   46.4210 H   0  0  0  0  0  0  0  0  0  0  0  0
   60.3007   27.7355   46.4174 H   0  0  0  0  0  0  0  0  0  0  0  0
   59.5297   25.4013   46.7813 H   0  0  0  0  0  0  0  0  0  0  0  0
   57.1265   24.8232   46.5299 H   0  0  0  0  0  0  0  0  0  0  0  0
   54.4784   24.7118   46.5912 H   0  0  0  0  0  0  0  0  0  0  0  0
   53.7192   25.2419   45.0519 H   0  0  0  0  0  0  0  0  0  0  0  0
   55.3977   24.6022   45.0519 H   0  0  0  0  0  0  0  0  0  0  0  0
   55.7791   30.8133   44.0738 H   0  0  0  0  0  0  0  0  0  0  0  0
   56.9426   29.5783   43.4841 H   0  0  0  0  0  0  0  0  0  0  0  0
   55.1813   29.2253   43.4841 H   0  0  0  0  0  0  0  0  0  0  0  0
  1  2  1  0
  2  3  1  0
  3  4  2  0
  4  5  1  0
  5  6  2  0
  6  7  1  0
  7  8  2  0
  8  9  1  0
  9 10  1  0
 10 11  2  0
 10 12  1  0
 12 13  2  0
 13 14  1  0
 14 15  2  0
 15 16  1  0
 16 17  1  0
 17 18  1  0
 16 19  2  0
 19 20  1  0
 20 21  1  0
  8  3  1  0
 19 12  1  0
  1 22  1  0
  1 23  1  0
  1 24  1  0
  4 25  1  0
  5 26  1  0
  6 27  1  0
  7 28  1  0
  9 29  1  0
 13 30  1  0
 14 31  1  0
 15 32  1  0
 18 33  1  0
 18 34  1  0
 18 35  1  0
 21 36  1  0
 21 37  1  0
 21 38  1  0
M  END
>  <UniqueID>  (94) 
89

>  <SMILES>  (94) 
COc1ccccc1NC(=O)c1cccc(OC)c1OC

>  <Energy>  (94) 
49.93015262384064

>  <Genealogy>  (94) 
COc1ccccc1NC(=O)c1cccc(OC)c1OC (3D coordinates assigned)
COc1ccccc1NC(=O)c1cccc(OC)c1OC (optimized conformer: 49.93015262384064 kcal/mol)

>  <smiles>  (94) 
COc1ccccc1NC(=O)c1cccc(OC)c1OC

>  <score_type>  (94) 
oracle

>  <origin>  (94) 
adg

>  <m_score__min__energy>  (94) 
-6.9500000000000002

>  <m_primary>  (94) 
energy

$$$$
