0:0
     RDKit          3D

 34 36  0  0  0  0  0  0  0  0999 V2000
   56.3050   22.2850   41.5130 H   0  0  0  0  0  0  0  0  0  0  0  0
   55.9300   21.8270   42.3350 O   0  0  0  0  0  0  0  0  0  0  0  0
   56.3960   22.1270   43.6140 C   0  0  0  0  0  0  0  0  0  0  0  0
   56.3080   21.1650   44.6210 C   0  0  0  0  0  0  0  0  0  0  0  0
   55.8846   20.1745   44.3983 H   0  0  0  0  0  0  0  0  0  0  0  0
   56.7560   21.4570   45.9100 C   0  0  0  0  0  0  0  0  0  0  0  0
   56.6759   20.6982   46.7024 H   0  0  0  0  0  0  0  0  0  0  0  0
   57.3060   22.7090   46.1990 C   0  0  0  0  0  0  0  0  0  0  0  0
   57.7480   22.9710   47.4930 O   0  0  0  0  0  0  0  0  0  0  0  0
   57.4180   23.6880   45.1900 C   0  0  0  0  0  0  0  0  0  0  0  0
   57.9880   25.0180   45.5200 C   0  0  0  0  0  0  0  0  0  0  0  0
   58.7502   25.0778   46.3109 H   0  0  0  0  0  0  0  0  0  0  0  0
   57.6210   26.1500   44.9030 C   0  0  0  0  0  0  0  0  0  0  0  0
   58.0006   26.3501   43.8902 H   0  0  0  0  0  0  0  0  0  0  0  0
   56.7240   27.1380   45.5370 C   0  0  0  0  0  0  0  0  0  0  0  0
   55.6890   26.7610   46.1520 O   0  0  0  0  0  0  0  0  0  0  0  0
   57.0300   28.5850   45.4470 C   0  0  0  0  0  0  0  0  0  0  0  0
   56.0580   29.4600   44.9270 C   0  0  0  0  0  0  0  0  0  0  0  0
   54.8300   28.9780   44.4880 O   0  0  0  0  0  0  0  0  0  0  0  0
   56.3000   30.7940   44.8650 N   0  0  0  0  0  0  0  0  0  0  0  0
   57.4620   31.3450   45.2920 C   0  0  0  0  0  0  0  0  0  0  0  0
   57.6170   32.5930   45.2070 O   0  0  0  0  0  0  0  0  0  0  0  0
   58.4760   30.5260   45.8220 C   0  0  0  0  0  0  0  0  0  0  0  0
   59.6950   31.0710   46.2670 C   0  0  0  0  0  0  0  0  0  0  0  0
   59.8577   32.1578   46.2185 H   0  0  0  0  0  0  0  0  0  0  0  0
   60.6980   30.2420   46.7690 C   0  0  0  0  0  0  0  0  0  0  0  0
   61.6454   30.6771   47.1198 H   0  0  0  0  0  0  0  0  0  0  0  0
   60.5020   28.8630   46.8270 C   0  0  0  0  0  0  0  0  0  0  0  0
   61.2992   28.2129   47.2167 H   0  0  0  0  0  0  0  0  0  0  0  0
   59.2990   28.3030   46.3930 C   0  0  0  0  0  0  0  0  0  0  0  0
   59.1577   27.2130   46.4379 H   0  0  0  0  0  0  0  0  0  0  0  0
   58.2620   29.1230   45.8970 C   0  0  0  0  0  0  0  0  0  0  0  0
   56.9450   23.3860   43.8960 C   0  0  0  0  0  0  0  0  0  0  0  0
   57.0073   24.1443   43.1016 H   0  0  0  0  0  0  0  0  0  0  0  0
  1  2  1  0
  2  3  1  0
  3  4  2  0
  4  5  1  0
  4  6  1  0
  6  7  1  0
  6  8  2  0
  8  9  1  0
  8 10  1  0
 10 11  1  0
 11 12  1  0
 11 13  2  0
 13 14  1  0
 13 15  1  0
 15 16  2  0
 15 17  1  0
 17 18  2  0
 18 19  1  0
 18 20  1  0
 20 21  1  0
 21 22  2  0
 21 23  1  0
 23 24  2  0
 24 25  1  0
 24 26  1  0
 26 27  1  0
 26 28  2  0
 28 29  1  0
 28 30  1  0
 30 31  1  0
 30 32  2  0
 10 33  2  0
 33 34  1  0
 33  3  1  0
 32 17  1  0
 32 23  1  0
M  CHG  3   9  -1  19  -1  20  -1
M  END
>  <UniqueID>  (1) 
1

>  <SMILES>  (1) 
O=C(/C=C/c1cc(O)ccc1[O-])c1c([O-])[n-]c(=O)c2ccccc12

>  <Energy>  (1) 
53.422867751624885

>  <Genealogy>  (1) 
O=C(C=Cc1cc(O)ccc1[O-])c1c([O-])[n-]c(=O)c2ccccc12 (protonated)
O=C(/C=C/c1cc(O)ccc1[O-])c1c([O-])[n-]c(=O)c2ccccc12 (cis-trans isomerization)
O=C(/C=C/c1cc(O)ccc1[O-])c1c([O-])[n-]c(=O)c2ccccc12 (3D coordinates assigned)
O=C(/C=C/c1cc(O)ccc1[O-])c1c([O-])[n-]c(=O)c2ccccc12 (optimized conformer: 53.422867751624885 kcal/mol)

>  <smiles>  (1) 
O=C(C=Cc1cc(O)ccc1O)c1c(O)[nH]c(=O)c2ccccc12

>  <score_type>  (1) 
oracle

>  <origin>  (1) 
adg

>  <m_score__min__energy>  (1) 
-15.93

>  <m_primary>  (1) 
energy

$$$$
1:0
     RDKit          3D

 46 49  0  0  0  0  0  0  0  0999 V2000
   54.5040   21.2130   44.8830 H   0  0  0  0  0  0  0  0  0  0  0  0
   55.5300   21.3960   44.8260 N   0  0  0  0  0  0  0  0  0  0  0  0
   56.0500   22.4110   43.9700 C   0  0  0  0  0  0  0  0  0  0  0  0
   56.1620   22.1740   42.7360 O   0  0  0  0  0  0  0  0  0  0  0  0
   56.4520   23.7260   44.5190 C   0  0  0  0  0  0  0  0  0  0  0  0
   57.3600   24.5440   43.8210 C   0  0  0  0  0  0  0  0  0  0  0  0
   57.7730   24.2033   42.8601 H   0  0  0  0  0  0  0  0  0  0  0  0
   57.7420   25.7860   44.3380 C   0  0  0  0  0  0  0  0  0  0  0  0
   58.4394   26.4230   43.7742 H   0  0  0  0  0  0  0  0  0  0  0  0
   57.2380   26.2240   45.5760 C   0  0  0  0  0  0  0  0  0  0  0  0
   57.5800   27.5070   46.1280 N   0  0  0  0  0  0  0  0  0  0  0  0
   57.2480   28.6740   45.6540 C   0  0  0  0  0  0  0  0  0  0  0  0
   57.9440   29.7940   45.9820 N   0  0  0  0  0  0  0  0  0  0  0  0
   57.5750   31.0090   45.4980 C   0  0  0  0  0  0  0  0  0  0  0  0
   58.3520   32.2230   45.8520 C   0  0  0  0  0  0  0  0  0  0  0  0
   58.0850   33.4520   45.2210 C   0  0  0  0  0  0  0  0  0  0  0  0
   57.2882   33.5160   44.4653 H   0  0  0  0  0  0  0  0  0  0  0  0
   58.8240   34.5910   45.5470 C   0  0  0  0  0  0  0  0  0  0  0  0
   58.6131   35.5443   45.0403 H   0  0  0  0  0  0  0  0  0  0  0  0
   59.8290   34.5250   46.5130 C   0  0  0  0  0  0  0  0  0  0  0  0
   60.4147   35.4234   46.7573 H   0  0  0  0  0  0  0  0  0  0  0  0
   60.0950   33.3130   47.1750 C   0  0  0  0  0  0  0  0  0  0  0  0
   61.1330   33.1960   48.1590 N   0  0  0  0  0  0  0  0  0  0  0  0
   61.0310   33.5130   49.5540 C   0  0  0  0  0  0  0  0  0  0  0  0
   61.9190   34.2150   50.1100 O   0  0  0  0  0  0  0  0  0  0  0  0
   59.8530   33.0610   50.3320 C   0  0  0  0  0  0  0  0  0  0  0  0
   59.2290   31.8330   50.0430 C   0  0  0  0  0  0  0  0  0  0  0  0
   59.6173   31.2012   49.2305 H   0  0  0  0  0  0  0  0  0  0  0  0
   58.1190   31.4100   50.7810 C   0  0  0  0  0  0  0  0  0  0  0  0
   57.6382   30.4486   50.5473 H   0  0  0  0  0  0  0  0  0  0  0  0
   57.6200   32.2060   51.8140 C   0  0  0  0  0  0  0  0  0  0  0  0
   56.7464   31.8719   52.3929 H   0  0  0  0  0  0  0  0  0  0  0  0
   58.2300   33.4260   52.1120 C   0  0  0  0  0  0  0  0  0  0  0  0
   57.8366   34.0518   52.9266 H   0  0  0  0  0  0  0  0  0  0  0  0
   59.3400   33.8540   51.3770 C   0  0  0  0  0  0  0  0  0  0  0  0
   59.8157   34.8164   51.6165 H   0  0  0  0  0  0  0  0  0  0  0  0
   59.3690   32.1670   46.8250 C   0  0  0  0  0  0  0  0  0  0  0  0
   59.5964   31.2098   47.3171 H   0  0  0  0  0  0  0  0  0  0  0  0
   56.4890   31.0970   44.6860 N   0  0  0  0  0  0  0  0  0  0  0  0
   55.7810   29.9850   44.3650 C   0  0  0  0  0  0  0  0  0  0  0  0
   54.7740   30.0750   43.6170 O   0  0  0  0  0  0  0  0  0  0  0  0
   56.1590   28.7770   44.8520 N   0  0  0  0  0  0  0  0  0  0  0  0
   56.3100   25.4280   46.2550 C   0  0  0  0  0  0  0  0  0  0  0  0
   55.8777   25.7822   47.2025 H   0  0  0  0  0  0  0  0  0  0  0  0
   55.9270   24.1860   45.7400 C   0  0  0  0  0  0  0  0  0  0  0  0
   55.2092   23.5635   46.2943 H   0  0  0  0  0  0  0  0  0  0  0  0
  1  2  1  0
  2  3  1  0
  3  4  2  0
  3  5  1  0
  5  6  2  0
  6  7  1  0
  6  8  1  0
  8  9  1  0
  8 10  2  0
 10 11  1  0
 11 12  2  0
 12 13  1  0
 13 14  1  0
 14 15  1  0
 15 16  2  0
 16 17  1  0
 16 18  1  0
 18 19  1  0
 18 20  2  0
 20 21  1  0
 20 22  1  0
 22 23  1  0
 23 24  1  0
 24 25  2  0
 24 26  1  0
 26 27  2  0
 27 28  1  0
 27 29  1  0
 29 30  1  0
 29 31  2  0
 31 32  1  0
 31 33  1  0
 33 34  1  0
 33 35  2  0
 35 36  1  0
 22 37  2  0
 37 38  1  0
 14 39  2  0
 39 40  1  0
 40 41  2  0
 40 42  1  0
 10 43  1  0
 43 44  1  0
 43 45  2  0
 45 46  1  0
 45  5  1  0
 42 12  1  0
 37 15  1  0
 35 26  1  0
M  CHG  4   2  -1  13  -1  23  -1  42  -1
M  END
>  <UniqueID>  (2) 
2

>  <SMILES>  (2) 
[NH-]C(=O)c1ccc(/N=c2\[n-]c(-c3cccc([N-]C(=O)c4ccccc4)c3)nc(=O)[n-]2)cc1

>  <Energy>  (2) 
63.926432620854605

>  <Genealogy>  (2) 
[NH-]C(=O)c1ccc(N=c2[n-]c(-c3cccc([N-]C(=O)c4ccccc4)c3)nc(=O)[n-]2)cc1 (protonated)
[NH-]C(=O)c1ccc(/N=c2\[n-]c(-c3cccc([N-]C(=O)c4ccccc4)c3)nc(=O)[n-]2)cc1 (cis-trans isomerization)
[NH-]C(=O)c1ccc(/N=c2\[n-]c(-c3cccc([N-]C(=O)c4ccccc4)c3)nc(=O)[n-]2)cc1 (3D coordinates assigned)
[NH-]C(=O)c1ccc(/N=c2\[n-]c(-c3cccc([N-]C(=O)c4ccccc4)c3)nc(=O)[n-]2)cc1 (optimized conformer: 63.926432620854605 kcal/mol)

>  <smiles>  (2) 
NC(=O)c1ccc(N=c2[nH]c(-c3cccc(NC(=O)c4ccccc4)c3)nc(=O)[nH]2)cc1

>  <score_type>  (2) 
oracle

>  <origin>  (2) 
adg

>  <m_score__min__energy>  (2) 
-15.43

>  <m_primary>  (2) 
energy

$$$$
2:0
     RDKit          3D

 19 20  0  0  0  0  0  0  0  0999 V2000
   54.0380   26.3170   46.3720 H   0  0  0  0  0  0  0  0  0  0  0  0
   54.9440   25.9680   45.9890 N   0  0  0  0  0  0  0  0  0  0  0  0
   56.0110   26.7030   45.9980 C   0  0  0  0  0  0  0  0  0  0  0  0
   57.1140   26.2920   46.6770 N   0  0  0  0  0  0  0  0  0  0  0  0
   58.2450   27.0400   46.6990 C   0  0  0  0  0  0  0  0  0  0  0  0
   59.2510   26.6250   47.3320 O   0  0  0  0  0  0  0  0  0  0  0  0
   58.2890   28.2560   46.0080 C   0  0  0  0  0  0  0  0  0  0  0  0
   57.1310   28.6880   45.3390 C   0  0  0  0  0  0  0  0  0  0  0  0
   56.0230   27.8930   45.3370 N   0  0  0  0  0  0  0  0  0  0  0  0
   55.1610   28.2130   44.8390 H   0  0  0  0  0  0  0  0  0  0  0  0
   57.0650   29.9930   44.7330 N   0  0  0  0  0  0  0  0  0  0  0  0
   56.2490   30.2160   44.1200 H   0  0  0  0  0  0  0  0  0  0  0  0
   58.0770   31.0390   44.9080 C   0  0  0  0  0  0  0  0  0  0  0  0
   58.7253   31.0576   44.0195 H   0  0  0  0  0  0  0  0  0  0  0  0
   57.5541   31.9977   45.0405 H   0  0  0  0  0  0  0  0  0  0  0  0
   58.9420   30.8000   46.1440 C   0  0  0  0  0  0  0  0  0  0  0  0
   59.6750   31.6139   46.2457 H   0  0  0  0  0  0  0  0  0  0  0  0
   58.3100   30.7732   47.0439 H   0  0  0  0  0  0  0  0  0  0  0  0
   59.8100   29.2170   45.9510 S   0  0  0  0  0  0  0  0  0  0  0  0
  1  2  1  0
  2  3  2  0
  3  4  1  0
  4  5  1  0
  5  6  2  0
  5  7  1  0
  7  8  2  0
  8  9  1  0
  9 10  1  0
  8 11  1  0
 11 12  1  0
 11 13  1  0
 13 14  1  0
 13 15  1  0
 13 16  1  0
 16 17  1  0
 16 18  1  0
 16 19  1  0
  9  3  1  0
 19  7  1  0
M  CHG  1   4  -1
M  END
>  <UniqueID>  (3) 
3

>  <SMILES>  (3) 
[H]/N=c1\[n-]c(=O)c2c([nH]1)NCCS2

>  <Energy>  (3) 
23.75083503751938

>  <Genealogy>  (3) 
N=c1[n-]c(=O)c2c([nH]1)NCCS2 (protonated)
[H]/N=c1\[n-]c(=O)c2c([nH]1)NCCS2 (cis-trans isomerization)
[H]/N=c1\[n-]c(=O)c2c([nH]1)NCCS2 (3D coordinates assigned)
[H]/N=c1\[n-]c(=O)c2c([nH]1)NCCS2 (nonaromatic ring conformer: 23.75083503751938 kcal/mol)

>  <smiles>  (3) 
N=c1[nH]c2c(c(=O)[nH]1)SCCN2

>  <score_type>  (3) 
oracle

>  <origin>  (3) 
adg

>  <m_score__min__energy>  (3) 
-7.7800000000000002

>  <m_primary>  (3) 
energy

$$$$
3:0
     RDKit          3D

 42 44  0  0  0  0  0  0  0  0999 V2000
   60.1810   33.8370   49.7650 C   0  0  0  0  0  0  0  0  0  0  0  0
   61.4220   33.4940   48.9740 C   0  0  0  0  0  0  0  0  0  0  0  0
   62.4470   32.7950   49.6250 C   0  0  0  0  0  0  0  0  0  0  0  0
   63.6000   32.4730   48.9210 C   0  0  0  0  0  0  0  0  0  0  0  0
   64.5300   31.8440   49.4910 O   0  0  0  0  0  0  0  0  0  0  0  0
   63.7210   32.8390   47.6220 N   0  0  0  0  0  0  0  0  0  0  0  0
   62.7310   33.5210   46.9850 C   0  0  0  0  0  0  0  0  0  0  0  0
   62.8970   33.8440   45.7770 O   0  0  0  0  0  0  0  0  0  0  0  0
   61.5710   33.8560   47.6490 N   0  0  0  0  0  0  0  0  0  0  0  0
   60.5120   34.6130   46.9430 C   0  0  0  0  0  0  0  0  0  0  0  0
   59.4930   33.6870   46.3270 C   0  0  0  0  0  0  0  0  0  0  0  0
   58.9370   33.9800   45.0710 C   0  0  0  0  0  0  0  0  0  0  0  0
   57.9870   33.1280   44.5000 C   0  0  0  0  0  0  0  0  0  0  0  0
   57.5710   31.9700   45.1820 C   0  0  0  0  0  0  0  0  0  0  0  0
   56.6320   31.0710   44.6490 O   0  0  0  0  0  0  0  0  0  0  0  0
   56.9450   29.9380   43.8370 C   0  0  0  0  0  0  0  0  0  0  0  0
   57.8710   28.9980   44.5630 C   0  0  0  0  0  0  0  0  0  0  0  0
   59.2610   29.1990   44.5330 C   0  0  0  0  0  0  0  0  0  0  0  0
   60.1150   28.3190   45.2050 C   0  0  0  0  0  0  0  0  0  0  0  0
   59.5880   27.2300   45.9040 C   0  0  0  0  0  0  0  0  0  0  0  0
   58.2070   27.0140   45.9290 C   0  0  0  0  0  0  0  0  0  0  0  0
   57.5480   25.6440   46.8030 Cl  0  0  0  0  0  0  0  0  0  0  0  0
   57.3500   27.8920   45.2570 C   0  0  0  0  0  0  0  0  0  0  0  0
   58.1070   31.6940   46.4450 C   0  0  0  0  0  0  0  0  0  0  0  0
   59.0560   32.5440   47.0160 C   0  0  0  0  0  0  0  0  0  0  0  0
   60.4031   33.7756   50.8406 H   0  0  0  0  0  0  0  0  0  0  0  0
   59.8575   34.8582   49.5151 H   0  0  0  0  0  0  0  0  0  0  0  0
   59.3790   33.1269   49.5151 H   0  0  0  0  0  0  0  0  0  0  0  0
   62.3398   32.5049   50.6806 H   0  0  0  0  0  0  0  0  0  0  0  0
   64.5940   32.5930   47.1000 H   0  0  0  0  0  0  0  0  0  0  0  0
   60.0062   35.2755   47.6608 H   0  0  0  0  0  0  0  0  0  0  0  0
   60.9814   35.1970   46.1377 H   0  0  0  0  0  0  0  0  0  0  0  0
   59.2513   34.8864   44.5327 H   0  0  0  0  0  0  0  0  0  0  0  0
   57.5628   33.3641   43.5129 H   0  0  0  0  0  0  0  0  0  0  0  0
   56.0153   29.4062   43.5865 H   0  0  0  0  0  0  0  0  0  0  0  0
   57.4450   30.2879   42.9218 H   0  0  0  0  0  0  0  0  0  0  0  0
   59.6793   30.0521   43.9787 H   0  0  0  0  0  0  0  0  0  0  0  0
   61.2023   28.4842   45.1833 H   0  0  0  0  0  0  0  0  0  0  0  0
   60.2610   26.5413   46.4357 H   0  0  0  0  0  0  0  0  0  0  0  0
   56.2642   27.7163   45.2717 H   0  0  0  0  0  0  0  0  0  0  0  0
   57.7775   30.7989   46.9930 H   0  0  0  0  0  0  0  0  0  0  0  0
   59.4640   32.3170   48.0120 H   0  0  0  0  0  0  0  0  0  0  0  0
  1  2  1  0
  2  3  2  0
  3  4  1  0
  4  5  2  0
  4  6  1  0
  6  7  1  0
  7  8  2  0
  7  9  1  0
  9 10  1  0
 10 11  1  0
 11 12  2  0
 12 13  1  0
 13 14  2  0
 14 15  1  0
 15 16  1  0
 16 17  1  0
 17 18  2  0
 18 19  1  0
 19 20  2  0
 20 21  1  0
 21 22  1  0
 21 23  2  0
 14 24  1  0
 24 25  2  0
  9  2  1  0
 25 11  1  0
 23 17  1  0
  1 26  1  0
  1 27  1  0
  1 28  1  0
  3 29  1  0
  6 30  1  0
 10 31  1  0
 10 32  1  0
 12 33  1  0
 13 34  1  0
 16 35  1  0
 16 36  1  0
 18 37  1  0
 19 38  1  0
 20 39  1  0
 23 40  1  0
 24 41  1  0
 25 42  1  0
M  END
>  <UniqueID>  (4) 
4

>  <SMILES>  (4) 
Cc1cc(=O)[nH]c(=O)n1Cc1ccc(OCc2cccc(Cl)c2)cc1

>  <Energy>  (4) 
48.96386092626759

>  <Genealogy>  (4) 
Cc1cc(=O)[nH]c(=O)n1Cc1ccc(OCc2cccc(Cl)c2)cc1 (3D coordinates assigned)
Cc1cc(=O)[nH]c(=O)n1Cc1ccc(OCc2cccc(Cl)c2)cc1 (optimized conformer: 48.96386092626759 kcal/mol)

>  <smiles>  (4) 
Cc1cc(=O)[nH]c(=O)n1Cc1ccc(OCc2cccc(Cl)c2)cc1

>  <score_type>  (4) 
oracle

>  <origin>  (4) 
adg

>  <m_score__min__energy>  (4) 
-8.6999999999999993

>  <m_primary>  (4) 
energy

$$$$
4:0
     RDKit          3D

 39 41  0  0  0  0  0  0  0  0999 V2000
   58.1520   32.1620   50.1600 N   0  0  0  0  0  0  0  0  0  0  0  0
   58.8910   32.5300   49.3490 C   0  0  0  0  0  0  0  0  0  0  0  0
   59.8130   32.9890   48.3370 C   0  0  0  0  0  0  0  0  0  0  0  0
   61.1890   32.9190   48.5970 C   0  0  0  0  0  0  0  0  0  0  0  0
   62.1100   33.3460   47.6370 C   0  0  0  0  0  0  0  0  0  0  0  0
   61.6650   33.8490   46.4150 C   0  0  0  0  0  0  0  0  0  0  0  0
   60.2970   33.9260   46.1470 C   0  0  0  0  0  0  0  0  0  0  0  0
   59.3550   33.4960   47.1000 C   0  0  0  0  0  0  0  0  0  0  0  0
   57.8830   33.5440   46.7520 C   0  0  0  0  0  0  0  0  0  0  0  0
   57.5890   33.6190   44.9420 S   0  0  0  0  0  0  0  0  0  0  0  0
   57.5390   31.8430   44.6980 C   0  0  0  0  0  0  0  0  0  0  0  0
   56.3370   31.2150   44.6310 N   0  0  0  0  0  0  0  0  0  0  0  0
   56.2580   29.8630   44.5410 C   0  0  0  0  0  0  0  0  0  0  0  0
   55.1320   29.3030   44.4780 O   0  0  0  0  0  0  0  0  0  0  0  0
   57.4240   29.0990   44.5400 C   0  0  0  0  0  0  0  0  0  0  0  0
   58.6580   29.7580   44.6110 C   0  0  0  0  0  0  0  0  0  0  0  0
   59.9280   28.9710   44.7690 C   0  0  0  0  0  0  0  0  0  0  0  0
   60.2060   28.7680   46.2340 C   0  0  0  0  0  0  0  0  0  0  0  0
   60.5830   29.8540   47.0430 C   0  0  0  0  0  0  0  0  0  0  0  0
   60.7540   29.6820   48.4190 C   0  0  0  0  0  0  0  0  0  0  0  0
   60.5390   28.4280   49.0020 C   0  0  0  0  0  0  0  0  0  0  0  0
   60.7380   28.2180   50.7320 Cl  0  0  0  0  0  0  0  0  0  0  0  0
   60.1570   27.3450   48.2040 C   0  0  0  0  0  0  0  0  0  0  0  0
   59.9880   27.5130   46.8270 C   0  0  0  0  0  0  0  0  0  0  0  0
   58.6900   31.1200   44.6730 N   0  0  0  0  0  0  0  0  0  0  0  0
   61.5449   32.5262   49.5609 H   0  0  0  0  0  0  0  0  0  0  0  0
   63.1883   33.2852   47.8456 H   0  0  0  0  0  0  0  0  0  0  0  0
   62.3924   34.1854   45.6615 H   0  0  0  0  0  0  0  0  0  0  0  0
   59.9523   34.3264   45.1822 H   0  0  0  0  0  0  0  0  0  0  0  0
   57.3969   32.6415   47.1510 H   0  0  0  0  0  0  0  0  0  0  0  0
   57.4649   34.4594   47.1961 H   0  0  0  0  0  0  0  0  0  0  0  0
   57.3760   28.0014   44.4846 H   0  0  0  0  0  0  0  0  0  0  0  0
   59.8187   27.9935   44.2765 H   0  0  0  0  0  0  0  0  0  0  0  0
   60.7623   29.5195   44.3073 H   0  0  0  0  0  0  0  0  0  0  0  0
   60.7441   30.8437   46.5907 H   0  0  0  0  0  0  0  0  0  0  0  0
   61.0581   30.5337   49.0452 H   0  0  0  0  0  0  0  0  0  0  0  0
   59.9892   26.3587   48.6612 H   0  0  0  0  0  0  0  0  0  0  0  0
   59.6829   26.6589   46.2046 H   0  0  0  0  0  0  0  0  0  0  0  0
   59.6060   31.6150   44.7560 H   0  0  0  0  0  0  0  0  0  0  0  0
  1  2  3  0
  2  3  1  0
  3  4  2  0
  4  5  1  0
  5  6  2  0
  6  7  1  0
  7  8  2  0
  8  9  1  0
  9 10  1  0
 10 11  1  0
 11 12  2  0
 12 13  1  0
 13 14  2  0
 13 15  1  0
 15 16  2  0
 16 17  1  0
 17 18  1  0
 18 19  2  0
 19 20  1  0
 20 21  2  0
 21 22  1  0
 21 23  1  0
 23 24  2  0
 16 25  1  0
  8  3  1  0
 25 11  1  0
 24 18  1  0
  4 26  1  0
  5 27  1  0
  6 28  1  0
  7 29  1  0
  9 30  1  0
  9 31  1  0
 15 32  1  0
 17 33  1  0
 17 34  1  0
 19 35  1  0
 20 36  1  0
 23 37  1  0
 24 38  1  0
 25 39  1  0
M  END
>  <UniqueID>  (5) 
5

>  <SMILES>  (5) 
N#Cc1ccccc1CSc1nc(=O)cc(Cc2ccc(Cl)cc2)[nH]1

>  <Energy>  (5) 
34.685600561197575

>  <Genealogy>  (5) 
N#Cc1ccccc1CSc1nc(=O)cc(Cc2ccc(Cl)cc2)[nH]1 (3D coordinates assigned)
N#Cc1ccccc1CSc1nc(=O)cc(Cc2ccc(Cl)cc2)[nH]1 (optimized conformer: 34.685600561197575 kcal/mol)

>  <smiles>  (5) 
N#Cc1ccccc1CSc1nc(=O)cc(Cc2ccc(Cl)cc2)[nH]1

>  <score_type>  (5) 
oracle

>  <origin>  (5) 
adg

>  <m_score__min__energy>  (5) 
-8.7400000000000002

>  <m_primary>  (5) 
energy

$$$$
5:0
     RDKit          3D

 44 48  0  0  0  0  0  0  0  0999 V2000
   61.6070   31.4310   47.0170 H   0  0  0  0  0  0  0  0  0  0  0  0
   60.8980   32.1510   47.0860 O   0  0  0  0  0  0  0  0  0  0  0  0
   60.2280   32.4110   48.2810 C   0  0  0  0  0  0  0  0  0  0  0  0
   59.2260   31.5350   48.7090 C   0  0  0  0  0  0  0  0  0  0  0  0
   58.9745   30.6524   48.1025 H   0  0  0  0  0  0  0  0  0  0  0  0
   58.5420   31.7760   49.9050 C   0  0  0  0  0  0  0  0  0  0  0  0
   57.7545   31.0820   50.2341 H   0  0  0  0  0  0  0  0  0  0  0  0
   58.8550   32.8990   50.6880 C   0  0  0  0  0  0  0  0  0  0  0  0
   58.1230   33.1590   51.9780 C   0  0  0  0  0  0  0  0  0  0  0  0
   57.0581   33.3324   51.7637 H   0  0  0  0  0  0  0  0  0  0  0  0
   58.5552   34.0453   52.4655 H   0  0  0  0  0  0  0  0  0  0  0  0
   58.2560   32.0080   52.8710 N   0  0  0  0  0  0  0  0  0  0  0  0
   57.4240   31.0110   52.9490 C   0  0  0  0  0  0  0  0  0  0  0  0
   56.1010   31.2310   52.6960 N   0  0  0  0  0  0  0  0  0  0  0  0
   55.2510   30.1810   52.7850 C   0  0  0  0  0  0  0  0  0  0  0  0
   53.8880   30.1530   52.5780 C   0  0  0  0  0  0  0  0  0  0  0  0
   53.1120   31.1970   52.2440 C   0  0  0  0  0  0  0  0  0  0  0  0
   53.1442   32.0811   52.8977 H   0  0  0  0  0  0  0  0  0  0  0  0
   52.2180   31.2530   51.0680 C   0  0  0  0  0  0  0  0  0  0  0  0
   52.1800   30.3610   50.0620 N   0  0  0  0  0  0  0  0  0  0  0  0
   51.2170   30.8450   49.2470 C   0  0  0  0  0  0  0  0  0  0  0  0
   50.8850   30.2730   48.1760 O   0  0  0  0  0  0  0  0  0  0  0  0
   50.6390   31.9890   49.6700 N   0  0  0  0  0  0  0  0  0  0  0  0
   51.2840   32.2330   50.8220 C   0  0  0  0  0  0  0  0  0  0  0  0
   51.0230   33.3300   51.6340 O   0  0  0  0  0  0  0  0  0  0  0  0
   53.5550   28.8120   52.8000 C   0  0  0  0  0  0  0  0  0  0  0  0
   52.5406   28.3926   52.7283 H   0  0  0  0  0  0  0  0  0  0  0  0
   54.6700   28.1060   53.1170 N   0  0  0  0  0  0  0  0  0  0  0  0
   55.6800   28.9600   53.1010 N   0  0  0  0  0  0  0  0  0  0  0  0
   56.9880   28.7050   53.3460 C   0  0  0  0  0  0  0  0  0  0  0  0
   57.3730   27.4900   53.6300 N   0  0  0  0  0  0  0  0  0  0  0  0
   57.1910   26.6320   54.8160 C   0  0  0  0  0  0  0  0  0  0  0  0
   58.2644   26.4068   54.9004 H   0  0  0  0  0  0  0  0  0  0  0  0
   55.9180   25.8050   54.8940 C   0  0  0  0  0  0  0  0  0  0  0  0
   55.1958   25.8267   54.0646 H   0  0  0  0  0  0  0  0  0  0  0  0
   55.6885   24.7429   55.0651 H   0  0  0  0  0  0  0  0  0  0  0  0
   56.0930   27.0330   55.7890 C   0  0  0  0  0  0  0  0  0  0  0  0
   55.4970   27.9388   55.6038 H   0  0  0  0  0  0  0  0  0  0  0  0
   56.0420   27.2218   56.8715 H   0  0  0  0  0  0  0  0  0  0  0  0
   57.8580   29.7510   53.2710 N   0  0  0  0  0  0  0  0  0  0  0  0
   59.8620   33.7770   50.2530 C   0  0  0  0  0  0  0  0  0  0  0  0
   60.1149   34.6604   50.8577 H   0  0  0  0  0  0  0  0  0  0  0  0
   60.5450   33.5360   49.0570 C   0  0  0  0  0  0  0  0  0  0  0  0
   61.5130   34.3980   48.6560 F   0  0  0  0  0  0  0  0  0  0  0  0
  1  2  1  0
  2  3  1  0
  3  4  2  0
  4  5  1  0
  4  6  1  0
  6  7  1  0
  6  8  2  0
  8  9  1  0
  9 10  1  0
  9 11  1  0
  9 12  1  0
 12 13  2  0
 13 14  1  0
 14 15  2  0
 15 16  1  0
 16 17  2  0
 17 18  1  0
 17 19  1  0
 19 20  1  0
 20 21  1  0
 21 22  2  0
 21 23  1  0
 23 24  1  0
 24 25  1  0
 16 26  1  0
 26 27  1  0
 26 28  2  0
 28 29  1  0
 29 30  1  0
 30 31  2  3
 31 32  1  0
 32 33  1  0
 32 34  1  0
 34 35  1  0
 34 36  1  0
 34 37  1  0
 37 38  1  0
 37 39  1  0
 30 40  1  0
  8 41  1  0
 41 42  1  0
 41 43  2  0
 43 44  1  0
 43  3  1  0
 40 13  1  0
 29 15  1  0
 37 32  1  0
 24 19  2  0
M  CHG  4  20  -1  23  -1  25  -1  40  -1
M  END
>  <UniqueID>  (6) 
6

>  <SMILES>  (6) 
O=c1[n-]c([O-])c(/C=c2\cnn3c(=NC4CC4)[n-]/c(=N\Cc4ccc(O)c(F)c4)nc23)[n-]1

>  <Energy>  (6) 
395.0535489334602

>  <Genealogy>  (6) 
O=c1[n-]c([O-])c(C=c2cnn3c(=NC4CC4)[n-]c(=NCc4ccc(O)c(F)c4)nc23)[n-]1 (protonated)
O=c1[n-]c([O-])c(/C=c2\cnn3c(=NC4CC4)[n-]/c(=N\Cc4ccc(O)c(F)c4)nc23)[n-]1 (cis-trans isomerization)
O=c1[n-]c([O-])c(/C=c2\cnn3c(=NC4CC4)[n-]/c(=N\Cc4ccc(O)c(F)c4)nc23)[n-]1 (3D coordinates assigned)
O=c1[n-]c([O-])c(/C=c2\cnn3c(=NC4CC4)[n-]/c(=N\Cc4ccc(O)c(F)c4)nc23)[n-]1 (nonaromatic ring conformer: 395.0535489334602 kcal/mol)

>  <smiles>  (6) 
O=c1[nH]c(O)c(C=c2cnn3c(=NC4CC4)[nH]c(=NCc4ccc(O)c(F)c4)nc23)[nH]1

>  <score_type>  (6) 
oracle

>  <origin>  (6) 
adg

>  <m_score__min__energy>  (6) 
-17.190000000000001

>  <m_primary>  (6) 
energy

$$$$
6:0
     RDKit          3D

 39 41  0  0  0  0  0  0  0  0999 V2000
   55.1460   29.4210   44.8110 O   0  0  0  0  0  0  0  0  0  0  0  0
   56.3640   29.1630   44.9950 C   0  0  0  0  0  0  0  0  0  0  0  0
   56.7150   28.0640   45.8500 N   0  0  0  0  0  0  0  0  0  0  0  0
   56.5630   26.7850   45.6400 C   0  0  0  0  0  0  0  0  0  0  0  0
   57.5780   25.9670   45.0990 C   0  0  0  0  0  0  0  0  0  0  0  0
   57.3360   24.6040   44.9140 C   0  0  0  0  0  0  0  0  0  0  0  0
   56.1050   24.0580   45.2750 C   0  0  0  0  0  0  0  0  0  0  0  0
   55.1300   24.8870   45.8290 C   0  0  0  0  0  0  0  0  0  0  0  0
   55.3810   26.2130   45.9990 N   0  0  0  0  0  0  0  0  0  0  0  0
   57.3790   29.9200   44.3200 N   0  0  0  0  0  0  0  0  0  0  0  0
   57.9710   31.1500   44.7630 C   0  0  0  0  0  0  0  0  0  0  0  0
   57.6480   32.3290   44.0860 C   0  0  0  0  0  0  0  0  0  0  0  0
   58.1800   33.5510   44.5000 C   0  0  0  0  0  0  0  0  0  0  0  0
   59.0380   33.6150   45.6030 C   0  0  0  0  0  0  0  0  0  0  0  0
   59.5910   35.2050   46.1220 Cl  0  0  0  0  0  0  0  0  0  0  0  0
   59.3670   32.4340   46.3060 C   0  0  0  0  0  0  0  0  0  0  0  0
   60.2650   32.4480   47.4820 C   0  0  0  0  0  0  0  0  0  0  0  0
   59.8850   33.0160   48.5430 O   0  0  0  0  0  0  0  0  0  0  0  0
   61.5190   31.7470   47.4520 N   0  0  0  0  0  0  0  0  0  0  0  0
   62.5920   31.9790   48.3810 C   0  0  0  0  0  0  0  0  0  0  0  0
   63.6200   32.9010   48.1010 C   0  0  0  0  0  0  0  0  0  0  0  0
   64.6650   33.0890   49.0110 C   0  0  0  0  0  0  0  0  0  0  0  0
   64.7020   32.3550   50.1990 C   0  0  0  0  0  0  0  0  0  0  0  0
   65.7160   32.5370   51.0790 F   0  0  0  0  0  0  0  0  0  0  0  0
   63.6970   31.4230   50.4750 C   0  0  0  0  0  0  0  0  0  0  0  0
   62.6500   31.2310   49.5670 C   0  0  0  0  0  0  0  0  0  0  0  0
   58.8110   31.2110   45.8900 C   0  0  0  0  0  0  0  0  0  0  0  0
   58.5517   26.3994   44.8253 H   0  0  0  0  0  0  0  0  0  0  0  0
   58.1173   23.9607   44.4831 H   0  0  0  0  0  0  0  0  0  0  0  0
   55.9053   22.9868   45.1247 H   0  0  0  0  0  0  0  0  0  0  0  0
   54.1578   24.4685   46.1285 H   0  0  0  0  0  0  0  0  0  0  0  0
   56.9697   32.2937   43.2207 H   0  0  0  0  0  0  0  0  0  0  0  0
   57.9226   34.4710   43.9547 H   0  0  0  0  0  0  0  0  0  0  0  0
   61.6190   30.9620   46.7700 H   0  0  0  0  0  0  0  0  0  0  0  0
   63.6005   33.4752   47.1629 H   0  0  0  0  0  0  0  0  0  0  0  0
   65.4599   33.8167   48.7908 H   0  0  0  0  0  0  0  0  0  0  0  0
   63.7295   30.8400   51.4072 H   0  0  0  0  0  0  0  0  0  0  0  0
   61.8674   30.4891   49.7841 H   0  0  0  0  0  0  0  0  0  0  0  0
   59.0353   30.2923   46.4518 H   0  0  0  0  0  0  0  0  0  0  0  0
  1  2  2  0
  2  3  1  0
  3  4  2  3
  4  5  1  0
  5  6  2  0
  6  7  1  0
  7  8  2  0
  8  9  1  0
  2 10  1  0
 10 11  1  0
 11 12  2  0
 12 13  1  0
 13 14  2  0
 14 15  1  0
 14 16  1  0
 16 17  1  0
 17 18  2  0
 17 19  1  0
 19 20  1  0
 20 21  2  0
 21 22  1  0
 22 23  2  0
 23 24  1  0
 23 25  1  0
 25 26  2  0
 16 27  2  0
  9  4  1  0
 27 11  1  0
 26 20  1  0
  5 28  1  0
  6 29  1  0
  7 30  1  0
  8 31  1  0
 12 32  1  0
 13 33  1  0
 19 34  1  0
 21 35  1  0
 22 36  1  0
 25 37  1  0
 26 38  1  0
 27 39  1  0
M  CHG  2   9  -1  10  -1
M  END
>  <UniqueID>  (7) 
7

>  <SMILES>  (7) 
O=C(N=c1cccc[n-]1)[N-]c1ccc(Cl)c(C(=O)Nc2ccc(F)cc2)c1

>  <Energy>  (7) 
62.982355028548504

>  <Genealogy>  (7) 
O=C(N=c1cccc[n-]1)[N-]c1ccc(Cl)c(C(=O)Nc2ccc(F)cc2)c1 (protonated)
O=C(N=c1cccc[n-]1)[N-]c1ccc(Cl)c(C(=O)Nc2ccc(F)cc2)c1 (3D coordinates assigned)
O=C(N=c1cccc[n-]1)[N-]c1ccc(Cl)c(C(=O)Nc2ccc(F)cc2)c1 (optimized conformer: 62.982355028548504 kcal/mol)

>  <smiles>  (7) 
O=C(N=c1cccc[nH]1)Nc1ccc(Cl)c(C(=O)Nc2ccc(F)cc2)c1

>  <score_type>  (7) 
oracle

>  <origin>  (7) 
adg

>  <m_score__min__energy>  (7) 
-11.359999999999999

>  <m_primary>  (7) 
energy

$$$$
7:0
     RDKit          3D

 70 73  0  0  0  0  0  0  0  0999 V2000
   58.5190   30.0080   50.7530 C   0  0  0  0  0  0  0  0  0  0  0  0
   59.2420   31.0380   51.6120 C   0  0  0  0  0  0  0  0  0  0  0  0
   58.8540   32.3610   51.2410 O   0  0  0  0  0  0  0  0  0  0  0  0
   59.3880   33.5140   51.8280 C   0  0  0  0  0  0  0  0  0  0  0  0
   58.6760   34.5400   52.0000 O   0  0  0  0  0  0  0  0  0  0  0  0
   60.8250   33.5300   52.2410 C   0  0  0  0  0  0  0  0  0  0  0  0
   61.6870   33.1910   51.1100 N   0  0  0  0  0  0  0  0  0  0  0  0
   61.3020   33.1330   49.8130 C   0  0  0  0  0  0  0  0  0  0  0  0
   62.3880   32.8230   49.0040 C   0  0  0  0  0  0  0  0  0  0  0  0
   62.3530   32.7000   47.2480 S   0  0  0  0  0  0  0  0  0  0  0  0
   62.0720   34.0410   46.6310 O   0  0  0  0  0  0  0  0  0  0  0  0
   63.7050   32.2420   46.7810 O   0  0  0  0  0  0  0  0  0  0  0  0
   61.1610   31.5430   46.7280 N   0  0  0  0  0  0  0  0  0  0  0  0
   60.4130   30.9830   47.8590 C   0  0  1  0  0  0  0  0  0  0  0  0
   58.9660   31.5050   47.8440 C   0  0  0  0  0  0  0  0  0  0  0  0
   58.7920   32.6020   46.8260 C   0  0  0  0  0  0  0  0  0  0  0  0
   58.3030   32.3080   45.5420 C   0  0  0  0  0  0  0  0  0  0  0  0
   58.1800   33.3220   44.5860 C   0  0  0  0  0  0  0  0  0  0  0  0
   58.5490   34.6320   44.9050 C   0  0  0  0  0  0  0  0  0  0  0  0
   59.0440   34.9310   46.1770 C   0  0  0  0  0  0  0  0  0  0  0  0
   59.1690   33.9190   47.1340 C   0  0  0  0  0  0  0  0  0  0  0  0
   60.4110   29.4690   47.8400 C   0  0  0  0  0  0  0  0  0  0  0  0
   60.8990   28.8760   48.8390 O   0  0  0  0  0  0  0  0  0  0  0  0
   59.8180   28.6860   46.7720 N   0  0  0  0  0  0  0  0  0  0  0  0
   59.7170   29.2210   45.4030 C   0  0  0  0  0  0  0  0  0  0  0  0
   59.1150   28.2040   44.4260 C   0  0  0  0  0  0  0  0  0  0  0  0
   57.8790   27.5300   45.0360 C   0  0  0  0  0  0  0  0  0  0  0  0
   56.8180   28.5260   45.2350 N   0  0  0  0  0  0  0  0  0  0  0  0
   56.4420   29.4650   44.2200 C   0  0  0  0  0  0  0  0  0  0  0  0
   55.4870   30.4790   44.5180 N   0  0  0  0  0  0  0  0  0  0  0  0
   56.9480   29.4020   43.0680 O   0  0  0  0  0  0  0  0  0  0  0  0
   58.2120   26.8190   46.3720 C   0  0  0  0  0  0  0  0  0  0  0  0
   59.5450   27.2570   47.0050 C   0  0  0  0  0  0  0  0  0  0  0  0
   63.4740   32.6950   49.8510 C   0  0  0  0  0  0  0  0  0  0  0  0
   64.8200   32.4230   49.5970 C   0  0  0  0  0  0  0  0  0  0  0  0
   65.7030   32.3920   50.6910 C   0  0  0  0  0  0  0  0  0  0  0  0
   65.2320   32.6350   51.9980 C   0  0  0  0  0  0  0  0  0  0  0  0
   63.8740   32.9110   52.2260 C   0  0  0  0  0  0  0  0  0  0  0  0
   63.0130   32.9330   51.1250 C   0  0  0  0  0  0  0  0  0  0  0  0
   58.0091   29.2816   51.4028 H   0  0  0  0  0  0  0  0  0  0  0  0
   57.7779   30.5154   50.1180 H   0  0  0  0  0  0  0  0  0  0  0  0
   59.2481   29.4834   50.1180 H   0  0  0  0  0  0  0  0  0  0  0  0
   58.9884   30.8696   52.6690 H   0  0  0  0  0  0  0  0  0  0  0  0
   60.3260   30.9298   51.4596 H   0  0  0  0  0  0  0  0  0  0  0  0
   61.0854   34.5344   52.6062 H   0  0  0  0  0  0  0  0  0  0  0  0
   60.9744   32.7861   53.0374 H   0  0  0  0  0  0  0  0  0  0  0  0
   60.2774   33.3063   49.4522 H   0  0  0  0  0  0  0  0  0  0  0  0
   60.9158   31.3075   48.7820 H   0  0  0  0  0  0  0  0  0  0  0  0
   58.2879   30.6750   47.5963 H   0  0  0  0  0  0  0  0  0  0  0  0
   58.7331   31.9132   48.8386 H   0  0  0  0  0  0  0  0  0  0  0  0
   58.0159   31.2771   45.2876 H   0  0  0  0  0  0  0  0  0  0  0  0
   57.7929   33.0884   43.5832 H   0  0  0  0  0  0  0  0  0  0  0  0
   58.4495   35.4289   44.1533 H   0  0  0  0  0  0  0  0  0  0  0  0
   59.3353   35.9622   46.4255 H   0  0  0  0  0  0  0  0  0  0  0  0
   59.5645   34.1558   48.1327 H   0  0  0  0  0  0  0  0  0  0  0  0
   59.0791   30.1170   45.4191 H   0  0  0  0  0  0  0  0  0  0  0  0
   60.7339   29.4593   45.0580 H   0  0  0  0  0  0  0  0  0  0  0  0
   58.8237   28.7217   43.5002 H   0  0  0  0  0  0  0  0  0  0  0  0
   59.8685   27.4318   44.2113 H   0  0  0  0  0  0  0  0  0  0  0  0
   57.5300   26.7589   44.3334 H   0  0  0  0  0  0  0  0  0  0  0  0
   56.4120   28.6520   46.1900 H   0  0  0  0  0  0  0  0  0  0  0  0
   54.5620   30.2380   44.9380 H   0  0  0  0  0  0  0  0  0  0  0  0
   57.4039   27.0326   47.0871 H   0  0  0  0  0  0  0  0  0  0  0  0
   58.3075   25.7471   46.1442 H   0  0  0  0  0  0  0  0  0  0  0  0
   59.5012   27.0750   48.0890 H   0  0  0  0  0  0  0  0  0  0  0  0
   60.3528   26.6741   46.5385 H   0  0  0  0  0  0  0  0  0  0  0  0
   65.1782   32.2388   48.5734 H   0  0  0  0  0  0  0  0  0  0  0  0
   66.7690   32.1766   50.5262 H   0  0  0  0  0  0  0  0  0  0  0  0
   65.9334   32.6081   52.8449 H   0  0  0  0  0  0  0  0  0  0  0  0
   63.4987   33.1043   53.2418 H   0  0  0  0  0  0  0  0  0  0  0  0
  1  2  1  0
  2  3  1  0
  3  4  1  0
  4  5  2  0
  4  6  1  0
  6  7  1  0
  7  8  1  0
  8  9  2  0
  9 10  1  0
 10 11  2  0
 10 12  2  0
 10 13  1  0
 13 14  1  0
 14 15  1  0
 15 16  1  0
 16 17  2  0
 17 18  1  0
 18 19  2  0
 19 20  1  0
 20 21  2  0
 14 22  1  0
 22 23  2  0
 22 24  1  0
 24 25  1  0
 25 26  1  0
 26 27  1  0
 27 28  1  0
 28 29  1  0
 29 30  1  0
 29 31  2  0
 27 32  1  0
 32 33  1  0
  9 34  1  0
 34 35  2  0
 35 36  1  0
 36 37  2  0
 37 38  1  0
 38 39  2  0
 39  7  1  0
 21 16  1  0
 33 24  1  0
 39 34  1  0
  1 40  1  0
  1 41  1  0
  1 42  1  0
  2 43  1  0
  2 44  1  0
  6 45  1  0
  6 46  1  0
  8 47  1  0
 14 48  1  1
 15 49  1  0
 15 50  1  0
 17 51  1  0
 18 52  1  0
 19 53  1  0
 20 54  1  0
 21 55  1  0
 25 56  1  0
 25 57  1  0
 26 58  1  0
 26 59  1  0
 27 60  1  0
 28 61  1  0
 30 62  1  0
 32 63  1  0
 32 64  1  0
 33 65  1  0
 33 66  1  0
 35 67  1  0
 36 68  1  0
 37 69  1  0
 38 70  1  0
M  CHG  2  13  -1  30  -1
M  END
>  <UniqueID>  (8) 
8

>  <SMILES>  (8) 
CCOC(=O)Cn1cc(S(=O)(=O)[N-][C@@H](Cc2ccccc2)C(=O)N2CCC(NC([NH-])=O)CC2)c2ccccc21

>  <Energy>  (8) 
94.51337329975075

>  <Genealogy>  (8) 
CCOC(=O)Cn1cc(S(=O)(=O)[N-]C(Cc2ccccc2)C(=O)N2CCC(NC([NH-])=O)CC2)c2ccccc21 (protonated)
CCOC(=O)Cn1cc(S(=O)(=O)[N-][C@@H](Cc2ccccc2)C(=O)N2CCC(NC([NH-])=O)CC2)c2ccccc21 (chirality)
CCOC(=O)Cn1cc(S(=O)(=O)[N-][C@@H](Cc2ccccc2)C(=O)N2CCC(NC([NH-])=O)CC2)c2ccccc21 (3D coordinates assigned)
CCOC(=O)Cn1cc(S(=O)(=O)[N-][C@@H](Cc2ccccc2)C(=O)N2CCC(NC([NH-])=O)CC2)c2ccccc21 (nonaromatic ring conformer: 94.51337329975075 kcal/mol)

>  <smiles>  (8) 
CCOC(=O)Cn1cc(S(=O)(=O)NC(Cc2ccccc2)C(=O)N2CCC(NC(N)=O)CC2)c2ccccc21

>  <score_type>  (8) 
oracle

>  <origin>  (8) 
adg

>  <m_score__min__energy>  (8) 
-12.15

>  <m_primary>  (8) 
energy

$$$$
8:0
     RDKit          3D

 47 49  0  0  1  0  0  0  0  0999 V2000
   57.2550   21.0980   42.6550 C   0  0  0  0  0  0  0  0  0  0  0  0
   56.0940   21.4360   43.3650 O   0  0  0  0  0  0  0  0  0  0  0  0
   56.2030   21.9220   44.6550 C   0  0  0  0  0  0  0  0  0  0  0  0
   55.7380   23.1970   44.9540 C   0  0  0  0  0  0  0  0  0  0  0  0
   55.8500   23.6780   46.2470 C   0  0  0  0  0  0  0  0  0  0  0  0
   55.4540   24.8290   46.6150 N   0  0  0  0  0  0  0  0  0  0  0  0
   56.1990   25.9930   46.2080 C   0  0  0  0  0  0  0  0  0  0  0  0
   55.5270   27.0210   45.9870 O   0  0  0  0  0  0  0  0  0  0  0  0
   57.6060   25.9190   46.0830 N   0  0  0  0  0  0  0  0  0  0  0  0
   58.4550   26.9760   45.6960 C   0  0  0  0  0  0  0  0  0  0  0  0
   58.0660   28.1200   45.0520 C   0  0  0  0  0  0  0  0  0  0  0  0
   58.9680   29.1310   44.6970 C   0  0  0  0  0  0  0  0  0  0  0  0
   58.5160   30.2760   44.0420 O   0  0  0  0  0  0  0  0  0  0  0  0
   57.6450   31.1850   44.6280 C   0  0  0  0  0  0  0  0  0  0  0  0
   56.4120   30.9470   44.6320 O   0  0  0  0  0  0  0  0  0  0  0  0
   58.1090   32.4220   45.2510 C   0  0  0  0  0  0  0  0  0  0  0  0
   58.1910   32.4460   46.6290 C   0  0  0  0  0  0  0  0  0  0  0  0
   58.6200   33.5720   47.3210 C   0  0  0  0  0  0  0  0  0  0  0  0
   58.9670   34.6880   46.5680 C   0  0  0  0  0  0  0  0  0  0  0  0
   58.8770   34.6430   45.1900 C   0  0  0  0  0  0  0  0  0  0  0  0
   58.4520   33.5280   44.5000 C   0  0  0  0  0  0  0  0  0  0  0  0
   60.3120   28.9880   45.0010 C   0  0  0  0  0  0  0  0  0  0  0  0
   60.6880   27.8450   45.6420 C   0  0  0  0  0  0  0  0  0  0  0  0
   59.7990   26.8540   45.9890 C   0  0  0  0  0  0  0  0  0  0  0  0
   60.2900   25.7440   46.6340 F   0  0  0  0  0  0  0  0  0  0  0  0
   56.4170   22.8800   47.1900 N   0  0  0  0  0  0  0  0  0  0  0  0
   56.8630   21.6490   46.8910 C   0  0  0  0  0  0  0  0  0  0  0  0
   57.4250   20.8970   47.8930 O   0  0  0  0  0  0  0  0  0  0  0  0
   57.6680   19.5140   47.7590 C   0  0  0  0  0  0  0  0  0  0  0  0
   56.7550   21.1830   45.6400 N   0  0  0  0  0  0  0  0  0  0  0  0
   58.0628   20.8628   43.3637 H   0  0  0  0  0  0  0  0  0  0  0  0
   57.0554   20.2207   42.0222 H   0  0  0  0  0  0  0  0  0  0  0  0
   57.5576   21.9454   42.0222 H   0  0  0  0  0  0  0  0  0  0  0  0
   55.2842   23.8195   44.1687 H   0  0  0  0  0  0  0  0  0  0  0  0
   58.0330   24.9860   46.3030 H   0  0  0  0  0  0  0  0  0  0  0  0
   57.0024   28.2503   44.8035 H   0  0  0  0  0  0  0  0  0  0  0  0
   57.9083   31.5468   47.1961 H   0  0  0  0  0  0  0  0  0  0  0  0
   58.6825   33.5801   48.4192 H   0  0  0  0  0  0  0  0  0  0  0  0
   59.3124   35.6048   47.0682 H   0  0  0  0  0  0  0  0  0  0  0  0
   59.1576   35.5389   44.6167 H   0  0  0  0  0  0  0  0  0  0  0  0
   58.3891   33.5200   43.4018 H   0  0  0  0  0  0  0  0  0  0  0  0
   61.0451   29.7642   44.7363 H   0  0  0  0  0  0  0  0  0  0  0  0
   61.7503   27.7090   45.8931 H   0  0  0  0  0  0  0  0  0  0  0  0
   56.5090   23.2280   48.1710 H   0  0  0  0  0  0  0  0  0  0  0  0
   57.7482   19.0575   48.7566 H   0  0  0  0  0  0  0  0  0  0  0  0
   56.8380   19.0476   47.2080 H   0  0  0  0  0  0  0  0  0  0  0  0
   58.6072   19.3584   47.2080 H   0  0  0  0  0  0  0  0  0  0  0  0
  1  2  1  0
  2  3  1  0
  3  4  2  0
  4  5  1  0
  5  6  2  0
  6  7  1  0
  7  8  2  0
  7  9  1  0
  9 10  1  0
 10 11  2  0
 11 12  1  0
 12 13  1  0
 13 14  1  0
 14 15  2  0
 14 16  1  0
 16 17  2  0
 17 18  1  0
 18 19  2  0
 19 20  1  0
 20 21  2  0
 12 22  2  0
 22 23  1  0
 23 24  2  0
 24 25  1  0
  5 26  1  0
 26 27  1  0
 27 28  1  0
 28 29  1  0
 27 30  2  0
 30  3  1  0
 24 10  1  0
 21 16  1  0
  1 31  1  0
  1 32  1  0
  1 33  1  0
  4 34  1  0
  9 35  1  0
 11 36  1  0
 17 37  1  0
 18 38  1  0
 19 39  1  0
 20 40  1  0
 21 41  1  0
 22 42  1  0
 23 43  1  0
 26 44  1  0
 29 45  1  0
 29 46  1  0
 29 47  1  0
M  END
>  <smiles>  (9) 
COc1cc(=NC(=O)Nc2cc(OC(=O)c3ccccc3)ccc2F)[nH]c(OC)n1

>  <score_type>  (9) 
oracle

>  <origin>  (9) 
adg

>  <m_score__min__energy>  (9) 
-8.6400000000000006

>  <m_primary>  (9) 
energy

$$$$
9:0
     RDKit          3D

 52 54  0  0  0  0  0  0  0  0999 V2000
   56.9670   27.3320   45.5790 C   0  0  0  0  0  0  0  0  0  0  0  0
   55.8940   28.2010   45.2480 O   0  0  0  0  0  0  0  0  0  0  0  0
   56.0820   29.4110   44.5710 C   0  0  0  0  0  0  0  0  0  0  0  0
   55.1120   30.1840   44.3520 O   0  0  0  0  0  0  0  0  0  0  0  0
   57.4450   29.7720   44.0750 C   0  0  0  0  0  0  0  0  0  0  0  0
   58.0320   30.8640   44.9240 C   0  0  0  0  0  0  0  0  0  0  0  0
   59.0430   30.5730   45.8550 C   0  0  0  0  0  0  0  0  0  0  0  0
   59.6080   31.5940   46.6260 C   0  0  0  0  0  0  0  0  0  0  0  0
   59.1600   32.9130   46.4870 C   0  0  0  0  0  0  0  0  0  0  0  0
   59.7910   33.9470   47.2540 N   0  0  0  0  0  0  0  0  0  0  0  0
   60.9120   33.8800   47.9220 C   0  0  0  0  0  0  0  0  0  0  0  0
   62.0990   33.6800   47.2830 N   0  0  0  0  0  0  0  0  0  0  0  0
   63.2620   33.6230   47.9760 C   0  0  0  0  0  0  0  0  0  0  0  0
   64.3390   33.4210   47.3510 O   0  0  0  0  0  0  0  0  0  0  0  0
   63.2660   33.7870   49.3320 N   0  0  0  0  0  0  0  0  0  0  0  0
   64.5360   33.7020   50.0840 C   0  0  0  0  0  0  0  0  0  0  0  0
   64.8160   32.2620   50.5250 C   0  0  0  0  0  0  0  0  0  0  0  0
   64.4970   31.3560   49.5040 O   0  0  0  0  0  0  0  0  0  0  0  0
   62.0800   34.0050   49.9830 C   0  0  0  0  0  0  0  0  0  0  0  0
   62.0740   34.1570   51.2380 O   0  0  0  0  0  0  0  0  0  0  0  0
   60.8990   34.0590   49.2840 N   0  0  0  0  0  0  0  0  0  0  0  0
   59.6250   34.3390   49.9840 C   0  0  0  0  0  0  0  0  0  0  0  0
   59.1000   33.0890   50.6440 C   0  0  0  0  0  0  0  0  0  0  0  0
   58.9700   31.8960   49.9120 C   0  0  0  0  0  0  0  0  0  0  0  0
   58.4510   30.7490   50.5210 C   0  0  0  0  0  0  0  0  0  0  0  0
   58.0590   30.7830   51.8630 C   0  0  0  0  0  0  0  0  0  0  0  0
   57.4070   29.3440   52.6230 Cl  0  0  0  0  0  0  0  0  0  0  0  0
   58.1880   31.9670   52.5970 C   0  0  0  0  0  0  0  0  0  0  0  0
   58.7040   33.1150   51.9910 C   0  0  0  0  0  0  0  0  0  0  0  0
   58.1870   33.2150   45.5200 C   0  0  0  0  0  0  0  0  0  0  0  0
   57.6230   32.1960   44.7480 C   0  0  0  0  0  0  0  0  0  0  0  0
   57.0562   27.2598   46.6730 H   0  0  0  0  0  0  0  0  0  0  0  0
   56.7728   26.3336   45.1602 H   0  0  0  0  0  0  0  0  0  0  0  0
   57.9033   27.7295   45.1602 H   0  0  0  0  0  0  0  0  0  0  0  0
   58.0953   28.8860   44.1213 H   0  0  0  0  0  0  0  0  0  0  0  0
   57.3676   30.1262   43.0365 H   0  0  0  0  0  0  0  0  0  0  0  0
   59.3919   29.5371   45.9782 H   0  0  0  0  0  0  0  0  0  0  0  0
   60.4074   31.3597   47.3443 H   0  0  0  0  0  0  0  0  0  0  0  0
   62.1510   33.6010   46.2440 H   0  0  0  0  0  0  0  0  0  0  0  0
   65.3588   34.0480   49.4412 H   0  0  0  0  0  0  0  0  0  0  0  0
   64.4561   34.3344   50.9805 H   0  0  0  0  0  0  0  0  0  0  0  0
   65.8827   32.1626   50.7746 H   0  0  0  0  0  0  0  0  0  0  0  0
   64.1936   32.0357   51.4033 H   0  0  0  0  0  0  0  0  0  0  0  0
   64.8020   31.7690   48.6540 H   0  0  0  0  0  0  0  0  0  0  0  0
   59.7948   35.1093   50.7507 H   0  0  0  0  0  0  0  0  0  0  0  0
   58.8855   34.6915   49.2500 H   0  0  0  0  0  0  0  0  0  0  0  0
   59.2776   31.8645   48.8564 H   0  0  0  0  0  0  0  0  0  0  0  0
   58.3509   29.8183   49.9433 H   0  0  0  0  0  0  0  0  0  0  0  0
   57.8825   31.9940   53.6534 H   0  0  0  0  0  0  0  0  0  0  0  0
   58.8006   34.0441   52.5719 H   0  0  0  0  0  0  0  0  0  0  0  0
   57.8680   34.2570   45.3700 H   0  0  0  0  0  0  0  0  0  0  0  0
   56.8549   32.4382   43.9988 H   0  0  0  0  0  0  0  0  0  0  0  0
  1  2  1  0
  2  3  1  0
  3  4  2  0
  3  5  1  0
  5  6  1  0
  6  7  2  0
  7  8  1  0
  8  9  2  0
  9 10  1  0
 10 11  2  3
 11 12  1  0
 12 13  1  0
 13 14  2  0
 13 15  1  0
 15 16  1  0
 16 17  1  0
 17 18  1  0
 15 19  1  0
 19 20  2  0
 19 21  1  0
 21 22  1  0
 22 23  1  0
 23 24  2  0
 24 25  1  0
 25 26  2  0
 26 27  1  0
 26 28  1  0
 28 29  2  0
  9 30  1  0
 30 31  2  0
 31  6  1  0
 21 11  1  0
 29 23  1  0
  1 32  1  0
  1 33  1  0
  1 34  1  0
  5 35  1  0
  5 36  1  0
  7 37  1  0
  8 38  1  0
 12 39  1  0
 16 40  1  0
 16 41  1  0
 17 42  1  0
 17 43  1  0
 18 44  1  0
 22 45  1  0
 22 46  1  0
 24 47  1  0
 25 48  1  0
 28 49  1  0
 29 50  1  0
 30 51  1  0
 31 52  1  0
M  END
>  <UniqueID>  (10) 
9

>  <SMILES>  (10) 
COC(=O)Cc1ccc(N=c2[nH]c(=O)n(CCO)c(=O)n2Cc2ccc(Cl)cc2)cc1

>  <Energy>  (10) 
63.309191376583556

>  <Genealogy>  (10) 
COC(=O)Cc1ccc(N=c2[nH]c(=O)n(CCO)c(=O)n2Cc2ccc(Cl)cc2)cc1 (3D coordinates assigned)
COC(=O)Cc1ccc(N=c2[nH]c(=O)n(CCO)c(=O)n2Cc2ccc(Cl)cc2)cc1 (optimized conformer: 63.309191376583556 kcal/mol)

>  <smiles>  (10) 
COC(=O)Cc1ccc(N=c2[nH]c(=O)n(CCO)c(=O)n2Cc2ccc(Cl)cc2)cc1

>  <score_type>  (10) 
oracle

>  <origin>  (10) 
adg

>  <m_score__min__energy>  (10) 
-7.5199999999999996

>  <m_primary>  (10) 
energy

$$$$
10:0
     RDKit          3D

 47 49  0  0  0  0  0  0  0  0999 V2000
   62.2720   32.0580   47.2310 C   0  0  0  0  0  0  0  0  0  0  0  0
   61.2030   31.2520   47.9170 C   0  0  0  0  0  0  0  0  0  0  0  0
   61.5420   30.4290   49.0040 C   0  0  0  0  0  0  0  0  0  0  0  0
   60.5620   29.6680   49.6480 C   0  0  0  0  0  0  0  0  0  0  0  0
   59.2360   29.7270   49.2190 C   0  0  0  0  0  0  0  0  0  0  0  0
   58.8840   30.5490   48.1460 C   0  0  0  0  0  0  0  0  0  0  0  0
   59.8590   31.3150   47.4850 C   0  0  0  0  0  0  0  0  0  0  0  0
   59.4750   32.2120   46.4320 N   0  0  0  0  0  0  0  0  0  0  0  0
   59.4330   33.6370   46.5900 C   0  0  0  0  0  0  0  0  0  0  0  0
   59.6860   34.1640   47.7050 O   0  0  0  0  0  0  0  0  0  0  0  0
   59.0120   34.5020   45.4450 C   0  0  0  0  0  0  0  0  0  0  0  0
   57.2190   34.3010   45.1500 S   0  0  0  0  0  0  0  0  0  0  0  0
   57.3430   32.6250   44.5310 C   0  0  0  0  0  0  0  0  0  0  0  0
   58.4350   32.1310   43.9210 N   0  0  0  0  0  0  0  0  0  0  0  0
   58.1490   30.8750   43.6170 N   0  0  0  0  0  0  0  0  0  0  0  0
   56.8970   30.6540   44.0610 C   0  0  0  0  0  0  0  0  0  0  0  0
   56.1730   29.3540   43.9180 C   0  0  0  0  0  0  0  0  0  0  0  0
   55.9570   28.7520   45.2300 N   0  0  0  0  0  0  0  0  0  0  0  0
   56.4900   27.4870   45.6410 C   0  0  0  0  0  0  0  0  0  0  0  0
   55.7330   26.4810   45.6470 O   0  0  0  0  0  0  0  0  0  0  0  0
   57.8900   27.3400   46.0880 C   0  0  0  0  0  0  0  0  0  0  0  0
   58.1400   27.0400   47.4370 C   0  0  0  0  0  0  0  0  0  0  0  0
   59.4420   26.7990   47.8790 C   0  0  0  0  0  0  0  0  0  0  0  0
   60.5070   26.8490   46.9790 C   0  0  0  0  0  0  0  0  0  0  0  0
   60.2760   27.1580   45.6380 C   0  0  0  0  0  0  0  0  0  0  0  0
   58.9720   27.4200   45.1790 C   0  0  0  0  0  0  0  0  0  0  0  0
   58.7570   27.7690   43.7310 C   0  0  0  0  0  0  0  0  0  0  0  0
   56.3900   31.7290   44.6140 O   0  0  0  0  0  0  0  0  0  0  0  0
   62.9102   32.5392   47.9868 H   0  0  0  0  0  0  0  0  0  0  0  0
   62.8845   31.3949   46.6023 H   0  0  0  0  0  0  0  0  0  0  0  0
   61.8030   32.8292   46.6023 H   0  0  0  0  0  0  0  0  0  0  0  0
   62.5850   30.3832   49.3505 H   0  0  0  0  0  0  0  0  0  0  0  0
   60.8370   29.0216   50.4945 H   0  0  0  0  0  0  0  0  0  0  0  0
   58.4670   29.1257   49.7261 H   0  0  0  0  0  0  0  0  0  0  0  0
   57.8358   30.5970   47.8160 H   0  0  0  0  0  0  0  0  0  0  0  0
   59.1430   31.8030   45.5320 H   0  0  0  0  0  0  0  0  0  0  0  0
   59.2281   35.5541   45.6824 H   0  0  0  0  0  0  0  0  0  0  0  0
   59.5658   34.2067   44.5416 H   0  0  0  0  0  0  0  0  0  0  0  0
   55.2009   29.5305   43.4344 H   0  0  0  0  0  0  0  0  0  0  0  0
   56.7785   28.6709   43.3042 H   0  0  0  0  0  0  0  0  0  0  0  0
   57.3039   26.9946   48.1504 H   0  0  0  0  0  0  0  0  0  0  0  0
   59.6286   26.5693   48.9384 H   0  0  0  0  0  0  0  0  0  0  0  0
   61.5302   26.6445   47.3271 H   0  0  0  0  0  0  0  0  0  0  0  0
   61.1203   27.1971   44.9340 H   0  0  0  0  0  0  0  0  0  0  0  0
   58.1812   28.7036   43.6607 H   0  0  0  0  0  0  0  0  0  0  0  0
   59.7310   27.9003   43.2370 H   0  0  0  0  0  0  0  0  0  0  0  0
   58.2016   26.9581   43.2370 H   0  0  0  0  0  0  0  0  0  0  0  0
  1  2  1  0
  2  3  2  0
  3  4  1  0
  4  5  2  0
  5  6  1  0
  6  7  2  0
  7  8  1  0
  8  9  1  0
  9 10  2  0
  9 11  1  0
 11 12  1  0
 12 13  1  0
 13 14  2  0
 14 15  1  0
 15 16  2  0
 16 17  1  0
 17 18  1  0
 18 19  1  0
 19 20  2  0
 19 21  1  0
 21 22  2  0
 22 23  1  0
 23 24  2  0
 24 25  1  0
 25 26  2  0
 26 27  1  0
 16 28  1  0
  7  2  1  0
 28 13  1  0
 26 21  1  0
  1 29  1  0
  1 30  1  0
  1 31  1  0
  3 32  1  0
  4 33  1  0
  5 34  1  0
  6 35  1  0
  8 36  1  0
 11 37  1  0
 11 38  1  0
 17 39  1  0
 17 40  1  0
 22 41  1  0
 23 42  1  0
 24 43  1  0
 25 44  1  0
 27 45  1  0
 27 46  1  0
 27 47  1  0
M  CHG  1  18  -1
M  END
>  <UniqueID>  (11) 
10

>  <SMILES>  (11) 
Cc1ccccc1NC(=O)CSc1nnc(C[N-]C(=O)c2ccccc2C)o1

>  <Energy>  (11) 
80.31406065471764

>  <Genealogy>  (11) 
Cc1ccccc1NC(=O)CSc1nnc(C[N-]C(=O)c2ccccc2C)o1 (protonated)
Cc1ccccc1NC(=O)CSc1nnc(C[N-]C(=O)c2ccccc2C)o1 (3D coordinates assigned)
Cc1ccccc1NC(=O)CSc1nnc(C[N-]C(=O)c2ccccc2C)o1 (optimized conformer: 80.31406065471764 kcal/mol)

>  <smiles>  (11) 
Cc1ccccc1NC(=O)CSc1nnc(CNC(=O)c2ccccc2C)o1

>  <score_type>  (11) 
oracle

>  <origin>  (11) 
adg

>  <m_score__min__energy>  (11) 
-11.140000000000001

>  <m_primary>  (11) 
energy

$$$$
11:0
     RDKit          3D

 36 38  0  0  0  0  0  0  0  0999 V2000
   56.8410   29.8590   45.2630 O   0  0  0  0  0  0  0  0  0  0  0  0
   57.8540   30.3480   45.8340 C   0  0  0  0  0  0  0  0  0  0  0  0
   58.7380   29.4960   46.5840 N   0  0  0  0  0  0  0  0  0  0  0  0
   58.6700   28.0610   46.5540 C   0  0  0  0  0  0  0  0  0  0  0  0
   59.8280   27.3080   46.7970 C   0  0  0  0  0  0  0  0  0  0  0  0
   59.7810   25.9120   46.7750 C   0  0  0  0  0  0  0  0  0  0  0  0
   58.5790   25.2560   46.4950 C   0  0  0  0  0  0  0  0  0  0  0  0
   57.4230   25.9940   46.2140 C   0  0  0  0  0  0  0  0  0  0  0  0
   55.9070   25.1680   45.8630 S   0  0  0  0  0  0  0  0  0  0  0  0
   55.6650   24.0720   46.8620 O   0  0  0  0  0  0  0  0  0  0  0  0
   54.7710   26.1480   45.9540 O   0  0  0  0  0  0  0  0  0  0  0  0
   55.9560   24.5060   44.2620 N   0  0  0  0  0  0  0  0  0  0  0  0
   56.4930   23.3590   43.9810 C   0  0  0  0  0  0  0  0  0  0  0  0
   55.9070   22.4190   43.2090 N   0  0  0  0  0  0  0  0  0  0  0  0
   56.6940   21.3160   43.0860 C   0  0  0  0  0  0  0  0  0  0  0  0
   57.9080   21.3820   43.7610 C   0  0  0  0  0  0  0  0  0  0  0  0
   57.9980   22.8720   44.5390 S   0  0  0  0  0  0  0  0  0  0  0  0
   57.4720   27.3950   46.2380 C   0  0  0  0  0  0  0  0  0  0  0  0
   58.0960   31.8060   45.7570 C   0  0  0  0  0  0  0  0  0  0  0  0
   58.3910   32.5250   46.9300 C   0  0  0  0  0  0  0  0  0  0  0  0
   58.6060   33.9040   46.8830 C   0  0  0  0  0  0  0  0  0  0  0  0
   58.5280   34.5840   45.6670 C   0  0  0  0  0  0  0  0  0  0  0  0
   58.2350   33.8860   44.4950 C   0  0  0  0  0  0  0  0  0  0  0  0
   58.0170   32.5030   44.5280 C   0  0  0  0  0  0  0  0  0  0  0  0
   57.7030   31.6780   43.0040 Cl  0  0  0  0  0  0  0  0  0  0  0  0
   59.4370   29.9310   47.2270 H   0  0  0  0  0  0  0  0  0  0  0  0
   60.7790   27.8197   47.0062 H   0  0  0  0  0  0  0  0  0  0  0  0
   60.6910   25.3284   46.9783 H   0  0  0  0  0  0  0  0  0  0  0  0
   58.5412   24.1567   46.4954 H   0  0  0  0  0  0  0  0  0  0  0  0
   56.3925   20.4376   42.4966 H   0  0  0  0  0  0  0  0  0  0  0  0
   58.6771   20.5959   43.7828 H   0  0  0  0  0  0  0  0  0  0  0  0
   56.5675   27.9773   46.0082 H   0  0  0  0  0  0  0  0  0  0  0  0
   58.4528   31.9961   47.8925 H   0  0  0  0  0  0  0  0  0  0  0  0
   58.8373   34.4553   47.8064 H   0  0  0  0  0  0  0  0  0  0  0  0
   58.6975   35.6703   45.6324 H   0  0  0  0  0  0  0  0  0  0  0  0
   58.1748   34.4257   43.5384 H   0  0  0  0  0  0  0  0  0  0  0  0
  1  2  2  0
  2  3  1  0
  3  4  1  0
  4  5  2  0
  5  6  1  0
  6  7  2  0
  7  8  1  0
  8  9  1  0
  9 10  2  0
  9 11  2  0
  9 12  1  0
 12 13  2  3
 13 14  1  0
 14 15  1  0
 15 16  2  0
 16 17  1  0
  8 18  2  0
  2 19  1  0
 19 20  2  0
 20 21  1  0
 21 22  2  0
 22 23  1  0
 23 24  2  0
 24 25  1  0
 18  4  1  0
 24 19  1  0
 17 13  1  0
  3 26  1  0
  5 27  1  0
  6 28  1  0
  7 29  1  0
 15 30  1  0
 16 31  1  0
 18 32  1  0
 20 33  1  0
 21 34  1  0
 22 35  1  0
 23 36  1  0
M  CHG  1  14  -1
M  END
>  <UniqueID>  (12) 
11

>  <SMILES>  (12) 
O=C(Nc1cccc(S(=O)(=O)N=c2[n-]ccs2)c1)c1ccccc1Cl

>  <Energy>  (12) 
80.00833171942139

>  <Genealogy>  (12) 
O=C(Nc1cccc(S(=O)(=O)N=c2[n-]ccs2)c1)c1ccccc1Cl (protonated)
O=C(Nc1cccc(S(=O)(=O)N=c2[n-]ccs2)c1)c1ccccc1Cl (3D coordinates assigned)
O=C(Nc1cccc(S(=O)(=O)N=c2[n-]ccs2)c1)c1ccccc1Cl (optimized conformer: 80.00833171942139 kcal/mol)

>  <smiles>  (12) 
O=C(Nc1cccc(S(=O)(=O)N=c2[nH]ccs2)c1)c1ccccc1Cl

>  <score_type>  (12) 
oracle

>  <origin>  (12) 
adg

>  <m_score__min__energy>  (12) 
-11.01

>  <m_primary>  (12) 
energy

$$$$
12:0
     RDKit          3D

 32 33  0  0  0  0  0  0  0  0999 V2000
   55.5210   29.1450   42.2480 H   0  0  0  0  0  0  0  0  0  0  0  0
   56.2120   29.8060   41.9180 O   0  0  0  0  0  0  0  0  0  0  0  0
   56.8830   30.7000   42.7560 C   0  0  0  0  0  0  0  0  0  0  0  0
   57.5370   31.7860   42.1620 C   0  0  0  0  0  0  0  0  0  0  0  0
   57.5562   31.8775   41.0660 H   0  0  0  0  0  0  0  0  0  0  0  0
   58.1650   32.7540   42.9480 C   0  0  0  0  0  0  0  0  0  0  0  0
   58.6734   33.6047   42.4707 H   0  0  0  0  0  0  0  0  0  0  0  0
   58.1480   32.6430   44.3370 C   0  0  0  0  0  0  0  0  0  0  0  0
   58.6325   33.4130   44.9554 H   0  0  0  0  0  0  0  0  0  0  0  0
   57.5170   31.5560   44.9450 C   0  0  0  0  0  0  0  0  0  0  0  0
   57.5057   31.4769   46.0421 H   0  0  0  0  0  0  0  0  0  0  0  0
   56.8950   30.5600   44.1680 C   0  0  0  0  0  0  0  0  0  0  0  0
   56.3030   29.3910   44.8550 C   0  0  0  0  0  0  0  0  0  0  0  0
   55.1610   28.9750   44.5210 O   0  0  0  0  0  0  0  0  0  0  0  0
   57.0780   28.6730   45.8250 N   0  0  0  0  0  0  0  0  0  0  0  0
   57.0280   27.2630   46.0830 C   0  0  0  0  0  0  0  0  0  0  0  0
   55.7980   26.6020   46.0020 C   0  0  0  0  0  0  0  0  0  0  0  0
   54.8867   27.1685   45.7600 H   0  0  0  0  0  0  0  0  0  0  0  0
   55.7240   25.2630   46.2210 N   0  0  0  0  0  0  0  0  0  0  0  0
   56.8230   24.5110   46.5050 C   0  0  0  0  0  0  0  0  0  0  0  0
   56.7400   23.2300   46.7280 N   0  0  0  0  0  0  0  0  0  0  0  0
   57.4970   22.1500   46.1490 C   0  0  0  0  0  0  0  0  0  0  0  0
   57.7020   21.1250   46.8520 O   0  0  0  0  0  0  0  0  0  0  0  0
   58.0730   22.1860   44.7610 C   0  0  0  0  0  0  0  0  0  0  0  0
   58.8440   21.4070   44.6674 H   0  0  0  0  0  0  0  0  0  0  0  0
   58.5160   23.1769   44.5823 H   0  0  0  0  0  0  0  0  0  0  0  0
   57.0200   21.9470   43.7680 C   0  0  0  0  0  0  0  0  0  0  0  0
   56.1900   21.7580   42.9850 N   0  0  0  0  0  0  0  0  0  0  0  0
   58.0760   25.1320   46.5770 C   0  0  0  0  0  0  0  0  0  0  0  0
   58.9743   24.5400   46.8064 H   0  0  0  0  0  0  0  0  0  0  0  0
   58.1790   26.5070   46.3560 C   0  0  0  0  0  0  0  0  0  0  0  0
   59.1625   26.9980   46.3958 H   0  0  0  0  0  0  0  0  0  0  0  0
  1  2  1  0
  2  3  1  0
  3  4  2  0
  4  5  1  0
  4  6  1  0
  6  7  1  0
  6  8  2  0
  8  9  1  0
  8 10  1  0
 10 11  1  0
 10 12  2  0
 12 13  1  0
 13 14  2  0
 13 15  1  0
 15 16  1  0
 16 17  2  0
 17 18  1  0
 17 19  1  0
 19 20  1  0
 20 21  2  0
 21 22  1  0
 22 23  2  0
 22 24  1  0
 24 25  1  0
 24 26  1  0
 24 27  1  0
 27 28  3  0
 20 29  1  0
 29 30  1  0
 29 31  2  0
 31 32  1  0
 12  3  1  0
 31 16  1  0
M  CHG  2  15  -1  19  -1
M  END
>  <UniqueID>  (13) 
12

>  <SMILES>  (13) 
N#CCC(=O)/N=c1/ccc([N-]C(=O)c2ccccc2O)c[n-]1

>  <Energy>  (13) 
44.877254709761154

>  <Genealogy>  (13) 
N#CCC(=O)N=c1ccc([N-]C(=O)c2ccccc2O)c[n-]1 (protonated)
N#CCC(=O)/N=c1/ccc([N-]C(=O)c2ccccc2O)c[n-]1 (cis-trans isomerization)
N#CCC(=O)/N=c1/ccc([N-]C(=O)c2ccccc2O)c[n-]1 (3D coordinates assigned)
N#CCC(=O)/N=c1/ccc([N-]C(=O)c2ccccc2O)c[n-]1 (optimized conformer: 44.877254709761154 kcal/mol)

>  <smiles>  (13) 
N#CCC(=O)N=c1ccc(NC(=O)c2ccccc2O)c[nH]1

>  <score_type>  (13) 
oracle

>  <origin>  (13) 
adg

>  <m_score__min__energy>  (13) 
-10.34

>  <m_primary>  (13) 
energy

$$$$
13:0
     RDKit          3D

 55 59  0  0  0  0  0  0  0  0999 V2000
   63.1680   31.9340   52.9110 H   0  0  0  0  0  0  0  0  0  0  0  0
   62.4100   32.5880   52.6120 N   0  0  0  0  0  0  0  0  0  0  0  0
   62.6800   33.6630   51.7120 C   0  0  0  0  0  0  0  0  0  0  0  0
   63.5040   34.5520   52.0610 O   0  0  0  0  0  0  0  0  0  0  0  0
   61.9960   33.7270   50.3880 C   0  0  0  0  0  0  0  0  0  0  0  0
   60.5990   33.8900   50.3480 C   0  0  0  0  0  0  0  0  0  0  0  0
   60.0336   33.9665   51.2885 H   0  0  0  0  0  0  0  0  0  0  0  0
   59.9410   33.9540   49.1630 N   0  0  0  0  0  0  0  0  0  0  0  0
   60.5800   33.8620   47.9690 C   0  0  0  0  0  0  0  0  0  0  0  0
   59.8210   33.9590   46.7500 N   0  0  0  0  0  0  0  0  0  0  0  0
   59.6670   35.0810   46.0010 C   0  0  0  0  0  0  0  0  0  0  0  0
   60.1119   36.0578   46.2417 H   0  0  0  0  0  0  0  0  0  0  0  0
   58.8700   34.8290   44.8870 C   0  0  0  0  0  0  0  0  0  0  0  0
   58.5791   35.5393   44.0991 H   0  0  0  0  0  0  0  0  0  0  0  0
   58.5240   33.4980   44.9840 C   0  0  0  0  0  0  0  0  0  0  0  0
   57.7300   32.6960   44.1730 C   0  0  0  0  0  0  0  0  0  0  0  0
   57.2641   33.0917   43.2585 H   0  0  0  0  0  0  0  0  0  0  0  0
   57.5450   31.3560   44.5680 C   0  0  0  0  0  0  0  0  0  0  0  0
   56.7380   30.4730   43.7690 C   0  0  0  0  0  0  0  0  0  0  0  0
   56.0890   29.7620   43.1280 N   0  0  0  0  0  0  0  0  0  0  0  0
   58.1520   30.8870   45.7570 C   0  0  0  0  0  0  0  0  0  0  0  0
   58.0047   29.8429   46.0702 H   0  0  0  0  0  0  0  0  0  0  0  0
   58.9200   31.7220   46.5190 N   0  0  0  0  0  0  0  0  0  0  0  0
   59.1070   33.0060   46.1170 C   0  0  0  0  0  0  0  0  0  0  0  0
   61.9740   33.7180   47.9500 C   0  0  0  0  0  0  0  0  0  0  0  0
   62.5065   33.6703   46.9887 H   0  0  0  0  0  0  0  0  0  0  0  0
   62.6970   33.6340   49.1580 C   0  0  0  0  0  0  0  0  0  0  0  0
   63.9960   33.4920   49.1550 N   0  0  0  0  0  0  0  0  0  0  0  0
   64.7300   32.5080   49.8940 C   0  0  0  0  0  0  0  0  0  0  0  0
   66.1070   32.6610   50.1050 C   0  0  0  0  0  0  0  0  0  0  0  0
   66.6385   33.5180   49.6655 H   0  0  0  0  0  0  0  0  0  0  0  0
   66.8050   31.7260   50.8730 C   0  0  0  0  0  0  0  0  0  0  0  0
   67.8871   31.8439   51.0318 H   0  0  0  0  0  0  0  0  0  0  0  0
   66.1310   30.6410   51.4400 C   0  0  0  0  0  0  0  0  0  0  0  0
   66.6820   29.9139   52.0546 H   0  0  0  0  0  0  0  0  0  0  0  0
   64.7540   30.4760   51.2280 C   0  0  0  0  0  0  0  0  0  0  0  0
   64.0020   29.3690   51.9280 C   0  0  0  0  0  0  0  0  0  0  0  0
   63.9400   28.5004   51.2559 H   0  0  0  0  0  0  0  0  0  0  0  0
   64.5452   29.1171   52.8507 H   0  0  0  0  0  0  0  0  0  0  0  0
   62.6360   29.7840   52.2990 N   0  0  0  0  0  0  0  0  0  0  0  0
   62.6310   30.8060   52.5280 H   0  0  0  0  0  0  0  0  0  0  0  0
   62.3540   29.2710   53.1680 H   0  0  0  0  0  0  0  0  0  0  0  0
   61.6820   29.4940   51.2530 C   0  0  0  0  0  0  0  0  0  0  0  0
   61.5150   28.1760   50.7870 C   0  0  0  0  0  0  0  0  0  0  0  0
   62.0850   27.3559   51.2480 H   0  0  0  0  0  0  0  0  0  0  0  0
   60.6280   27.9050   49.7410 C   0  0  0  0  0  0  0  0  0  0  0  0
   60.5068   26.8739   49.3776 H   0  0  0  0  0  0  0  0  0  0  0  0
   59.8950   28.9410   49.1560 C   0  0  0  0  0  0  0  0  0  0  0  0
   59.1968   28.7249   48.3339 H   0  0  0  0  0  0  0  0  0  0  0  0
   60.0490   30.2500   49.6150 C   0  0  0  0  0  0  0  0  0  0  0  0
   59.4652   31.0634   49.1594 H   0  0  0  0  0  0  0  0  0  0  0  0
   60.9430   30.5300   50.6520 C   0  0  0  0  0  0  0  0  0  0  0  0
   61.0697   31.5657   51.0003 H   0  0  0  0  0  0  0  0  0  0  0  0
   64.0590   31.4100   50.4420 C   0  0  0  0  0  0  0  0  0  0  0  0
   62.9829   31.2773   50.2568 H   0  0  0  0  0  0  0  0  0  0  0  0
  1  2  1  0
  2  3  1  0
  3  4  2  0
  3  5  1  0
  5  6  2  0
  6  7  1  0
  6  8  1  0
  8  9  1  0
  9 10  1  0
 10 11  1  0
 11 12  1  0
 11 13  2  0
 13 14  1  0
 13 15  1  0
 15 16  2  0
 16 17  1  0
 16 18  1  0
 18 19  1  0
 19 20  3  0
 18 21  2  0
 21 22  1  0
 21 23  1  0
 23 24  2  0
  9 25  2  0
 25 26  1  0
 25 27  1  0
 27 28  2  0
 28 29  1  0
 29 30  2  0
 30 31  1  0
 30 32  1  0
 32 33  1  0
 32 34  2  0
 34 35  1  0
 34 36  1  0
 36 37  1  0
 37 38  1  0
 37 39  1  0
 37 40  1  0
 40 41  1  0
 40 42  1  0
 40 43  1  0
 43 44  2  0
 44 45  1  0
 44 46  1  0
 46 47  1  0
 46 48  2  0
 48 49  1  0
 48 50  1  0
 50 51  1  0
 50 52  2  0
 52 53  1  0
 36 54  2  0
 54 55  1  0
 27  5  1  0
 54 29  1  0
 24 10  1  0
 52 43  1  0
 24 15  1  0
M  CHG  3   2  -1   8  -1  40   1
M  END
>  <UniqueID>  (14) 
13

>  <SMILES>  (14) 
N#Cc1cnc2c(ccn2-c2c/c(=N\c3cccc(C[NH2+]c4ccccc4)c3)c(C([NH-])=O)c[n-]2)c1

>  <Energy>  (14) 
110.32950456934634

>  <Genealogy>  (14) 
N#Cc1cnc2c(ccn2-c2cc(=Nc3cccc(C[NH2+]c4ccccc4)c3)c(C([NH-])=O)c[n-]2)c1 (protonated)
N#Cc1cnc2c(ccn2-c2c/c(=N\c3cccc(C[NH2+]c4ccccc4)c3)c(C([NH-])=O)c[n-]2)c1 (cis-trans isomerization)
N#Cc1cnc2c(ccn2-c2c/c(=N\c3cccc(C[NH2+]c4ccccc4)c3)c(C([NH-])=O)c[n-]2)c1 (3D coordinates assigned)
N#Cc1cnc2c(ccn2-c2c/c(=N\c3cccc(C[NH2+]c4ccccc4)c3)c(C([NH-])=O)c[n-]2)c1 (optimized conformer: 110.32950456934634 kcal/mol)

>  <smiles>  (14) 
N#Cc1cnc2c(ccn2-c2cc(=Nc3cccc(CNc4ccccc4)c3)c(C(N)=O)c[nH]2)c1

>  <score_type>  (14) 
oracle

>  <origin>  (14) 
adg

>  <m_score__min__energy>  (14) 
-12.17

>  <m_primary>  (14) 
energy

$$$$
14:0
     RDKit          3D

 23 24  0  0  0  0  0  0  0  0999 V2000
   55.1390   27.4910   45.5120 H   0  0  0  0  0  0  0  0  0  0  0  0
   55.0120   26.6770   46.0980 O   0  0  0  0  0  0  0  0  0  0  0  0
   56.0050   25.7110   46.2280 C   0  0  0  0  0  0  0  0  0  0  0  0
   55.8660   24.6170   47.0030 N   0  0  0  0  0  0  0  0  0  0  0  0
   57.0260   23.9470   46.8550 C   0  0  0  0  0  0  0  0  0  0  0  0
   57.2960   22.7460   47.4960 O   0  0  0  0  0  0  0  0  0  0  0  0
   57.9000   24.5910   46.0030 C   0  0  0  0  0  0  0  0  0  0  0  0
   58.9083   24.2650   45.7080 H   0  0  0  0  0  0  0  0  0  0  0  0
   57.2380   25.7290   45.6020 C   0  0  0  0  0  0  0  0  0  0  0  0
   57.8790   26.9690   44.5030 S   0  0  0  0  0  0  0  0  0  0  0  0
   56.8340   27.2120   43.6190 H   0  0  0  0  0  0  0  0  0  0  0  0
   58.1440   28.2610   45.4490 C   0  0  0  0  0  0  0  0  0  0  0  0
   57.5790   29.5940   45.1080 C   0  0  0  0  0  0  0  0  0  0  0  0
   58.4560   31.0360   44.9860 S   0  0  0  0  0  0  0  0  0  0  0  0
   57.1030   31.9530   44.6160 C   0  0  0  0  0  0  0  0  0  0  0  0
   57.1210   33.1910   44.3970 O   0  0  0  0  0  0  0  0  0  0  0  0
   55.9780   31.2130   44.5770 N   0  0  0  0  0  0  0  0  0  0  0  0
   56.2360   29.9070   44.8510 C   0  0  0  0  0  0  0  0  0  0  0  0
   55.2130   28.9670   44.8580 O   0  0  0  0  0  0  0  0  0  0  0  0
   59.0140   28.0890   46.6610 C   0  0  0  0  0  0  0  0  0  0  0  0
   58.4053   28.2093   47.5693 H   0  0  0  0  0  0  0  0  0  0  0  0
   59.4628   27.0848   46.6507 H   0  0  0  0  0  0  0  0  0  0  0  0
   59.8111   28.8469   46.6507 H   0  0  0  0  0  0  0  0  0  0  0  0
  1  2  1  0
  2  3  1  0
  3  4  1  0
  4  5  1  0
  5  6  1  0
  5  7  2  0
  7  8  1  0
  7  9  1  0
  9 10  1  0
 10 11  1  6
 10 12  2  0
 12 13  1  0
 13 14  1  0
 14 15  1  0
 15 16  2  0
 15 17  1  0
 17 18  1  0
 18 19  1  0
 12 20  1  0
 20 21  1  0
 20 22  1  0
 20 23  1  0
  9  3  2  0
 18 13  2  0
M  CHG  4   4  -1   6  -1  17  -1  19  -1
M  END
>  <UniqueID>  (15) 
14

>  <SMILES>  (15) 
C/C(=[SH]\c1cc([O-])[n-]c1O)c1sc(=O)[n-]c1[O-]

>  <Energy>  (15) 
78.71572460173111

>  <Genealogy>  (15) 
CC(=[SH]c1cc([O-])[n-]c1O)c1sc(=O)[n-]c1[O-] (protonated)
C/C(=[SH]\c1cc([O-])[n-]c1O)c1sc(=O)[n-]c1[O-] (cis-trans isomerization)
C/C(=[SH]\c1cc([O-])[n-]c1O)c1sc(=O)[n-]c1[O-] (3D coordinates assigned)
C/C(=[SH]\c1cc([O-])[n-]c1O)c1sc(=O)[n-]c1[O-] (optimized conformer: 78.71572460173111 kcal/mol)

>  <smiles>  (15) 
CC(=[SH]c1cc(O)[nH]c1O)c1sc(=O)[nH]c1O

>  <score_type>  (15) 
oracle

>  <origin>  (15) 
adg

>  <m_score__min__energy>  (15) 
-17.48

>  <m_primary>  (15) 
energy

$$$$
15:0
     RDKit          3D

 44 46  0  0  1  0  0  0  0  0999 V2000
   59.1520   31.4730   48.8080 C   0  0  0  0  0  0  0  0  0  0  0  0
   59.8610   31.5600   47.5240 N   0  0  0  0  0  0  0  0  0  0  0  0
   61.1280   30.9170   47.4170 C   0  0  0  0  0  0  0  0  0  0  0  0
   62.2790   31.7680   47.8260 C   0  0  0  0  0  0  0  0  0  0  0  0
   62.7440   32.8830   47.1380 C   0  0  0  0  0  0  0  0  0  0  0  0
   63.7910   33.4180   47.7830 N   0  0  0  0  0  0  0  0  0  0  0  0
   64.0010   32.6760   48.8510 N   0  0  0  0  0  0  0  0  0  0  0  0
   65.0870   32.9870   49.7930 C   0  0  0  0  0  0  0  0  0  0  0  0
   63.1100   31.6640   48.9200 C   0  0  0  0  0  0  0  0  0  0  0  0
   59.2120   32.2970   46.4990 C   0  0  0  0  0  0  0  0  0  0  0  0
   59.0310   33.6600   46.6930 C   0  0  0  0  0  0  0  0  0  0  0  0
   58.4110   34.4600   45.7300 C   0  0  0  0  0  0  0  0  0  0  0  0
   57.9600   33.9030   44.5510 C   0  0  0  0  0  0  0  0  0  0  0  0
   58.1400   32.5270   44.3480 C   0  0  0  0  0  0  0  0  0  0  0  0
   57.6550   32.0030   43.0890 C   0  0  0  0  0  0  0  0  0  0  0  0
   58.1770   32.5020   42.0370 O   0  0  0  0  0  0  0  0  0  0  0  0
   56.6850   31.0130   42.9110 N   0  0  0  0  0  0  0  0  0  0  0  0
   56.6400   30.0100   43.7340 C   0  0  0  0  0  0  0  0  0  0  0  0
   57.6100   29.0730   44.0240 C   0  0  0  0  0  0  0  0  0  0  0  0
   57.0410   28.2320   44.9670 C   0  0  0  0  0  0  0  0  0  0  0  0
   57.7300   27.0590   45.5780 C   0  0  0  0  0  0  0  0  0  0  0  0
   56.8200   26.4910   46.4670 F   0  0  0  0  0  0  0  0  0  0  0  0
   58.8820   27.4430   46.1890 F   0  0  0  0  0  0  0  0  0  0  0  0
   58.0120   26.0950   44.6330 F   0  0  0  0  0  0  0  0  0  0  0  0
   55.7790   28.6490   45.2330 N   0  0  0  0  0  0  0  0  0  0  0  0
   55.5560   29.7190   44.4820 N   0  0  0  0  0  0  0  0  0  0  0  0
   58.7570   31.7710   45.3240 C   0  0  0  0  0  0  0  0  0  0  0  0
   59.8746   31.5617   49.6326 H   0  0  0  0  0  0  0  0  0  0  0  0
   58.4159   32.2876   48.8763 H   0  0  0  0  0  0  0  0  0  0  0  0
   58.6347   30.5046   48.8763 H   0  0  0  0  0  0  0  0  0  0  0  0
   61.1160   30.0219   48.0563 H   0  0  0  0  0  0  0  0  0  0  0  0
   61.2731   30.6779   46.3531 H   0  0  0  0  0  0  0  0  0  0  0  0
   62.3158   33.2698   46.2015 H   0  0  0  0  0  0  0  0  0  0  0  0
   64.7192   32.8817   50.8243 H   0  0  0  0  0  0  0  0  0  0  0  0
   65.9242   32.2925   49.6296 H   0  0  0  0  0  0  0  0  0  0  0  0
   65.4297   34.0194   49.6296 H   0  0  0  0  0  0  0  0  0  0  0  0
   63.0572   30.8965   49.7062 H   0  0  0  0  0  0  0  0  0  0  0  0
   59.3842   34.1209   47.6273 H   0  0  0  0  0  0  0  0  0  0  0  0
   58.2820   35.5371   45.9123 H   0  0  0  0  0  0  0  0  0  0  0  0
   57.4700   34.5245   43.7870 H   0  0  0  0  0  0  0  0  0  0  0  0
   58.6216   29.0073   43.5969 H   0  0  0  0  0  0  0  0  0  0  0  0
   55.1490   28.1710   45.9130 H   0  0  0  0  0  0  0  0  0  0  0  0
   54.6250   30.2130   44.5290 H   0  0  0  0  0  0  0  0  0  0  0  0
   58.8885   30.6933   45.1468 H   0  0  0  0  0  0  0  0  0  0  0  0
  1  2  1  0
  2  3  1  0
  3  4  1  0
  4  5  1  0
  5  6  2  0
  6  7  1  0
  7  8  1  0
  7  9  1  0
  2 10  1  0
 10 11  2  0
 11 12  1  0
 12 13  2  0
 13 14  1  0
 14 15  1  0
 15 16  2  0
 15 17  1  0
 17 18  2  0
 18 19  1  0
 19 20  2  0
 20 21  1  0
 21 22  1  0
 21 23  1  0
 21 24  1  0
 20 25  1  0
 25 26  1  0
 14 27  2  0
  9  4  2  0
 27 10  1  0
 26 18  1  0
  1 28  1  0
  1 29  1  0
  1 30  1  0
  3 31  1  0
  3 32  1  0
  5 33  1  0
  8 34  1  0
  8 35  1  0
  8 36  1  0
  9 37  1  0
 11 38  1  0
 12 39  1  0
 13 40  1  0
 19 41  1  0
 25 42  1  0
 26 43  1  0
 27 44  1  0
M  END
>  <smiles>  (16) 
CN(Cc1cnn(C)c1)c1cccc(C(=O)N=c2cc(C(F)(F)F)[nH][nH]2)c1

>  <score_type>  (16) 
oracle

>  <origin>  (16) 
adg

>  <m_score__min__energy>  (16) 
-8.4399999999999995

>  <m_primary>  (16) 
energy

$$$$
16:0
     RDKit          3D

 45 47  0  0  0  0  0  0  0  0999 V2000
   56.9920   31.7140   42.8550 O   0  0  0  0  0  0  0  0  0  0  0  0
   56.9050   30.9010   43.8140 C   0  0  0  0  0  0  0  0  0  0  0  0
   56.1110   29.6410   43.6380 C   0  0  0  0  0  0  0  0  0  0  0  0
   55.8160   29.0300   44.9330 N   0  0  0  0  0  0  0  0  0  0  0  0
   56.6230   28.0660   45.6240 C   0  0  0  0  0  0  0  0  0  0  0  0
   57.6690   28.4600   46.2030 O   0  0  0  0  0  0  0  0  0  0  0  0
   56.3050   26.6280   45.6510 C   0  0  0  0  0  0  0  0  0  0  0  0
   57.1470   25.5830   45.3230 C   0  0  0  0  0  0  0  0  0  0  0  0
   56.3960   24.4370   45.4750 C   0  0  0  0  0  0  0  0  0  0  0  0
   55.1430   24.8510   45.8750 C   0  0  0  0  0  0  0  0  0  0  0  0
   55.1170   26.1610   45.9640 O   0  0  0  0  0  0  0  0  0  0  0  0
   57.5560   31.1800   45.0640 N   0  0  0  0  0  0  0  0  0  0  0  0
   58.2550   32.4090   45.3050 C   0  0  0  0  0  0  0  0  0  0  0  0
   57.7620   33.5840   44.7220 C   0  0  0  0  0  0  0  0  0  0  0  0
   58.4450   34.7910   44.8680 C   0  0  0  0  0  0  0  0  0  0  0  0
   59.6270   34.8380   45.6070 C   0  0  0  0  0  0  0  0  0  0  0  0
   60.1170   33.6820   46.2200 C   0  0  0  0  0  0  0  0  0  0  0  0
   59.4330   32.4590   46.0960 C   0  0  0  0  0  0  0  0  0  0  0  0
   59.9360   31.2770   46.8350 C   0  0  0  0  0  0  0  0  0  0  0  0
   59.1260   30.4950   47.4030 O   0  0  0  0  0  0  0  0  0  0  0  0
   61.3480   31.0340   46.9160 N   0  0  0  0  0  0  0  0  0  0  0  0
   62.2740   31.6530   47.8690 C   0  0  0  0  0  0  0  0  0  0  0  0
   63.2660   32.5940   47.1780 C   0  0  0  0  0  0  0  0  0  0  0  0
   63.3760   33.8110   48.0810 C   0  0  0  0  0  0  0  0  0  0  0  0
   62.0450   33.9030   48.8070 C   0  0  0  0  0  0  0  0  0  0  0  0
   61.5420   32.4730   48.9410 C   0  0  0  0  0  0  0  0  0  0  0  0
   55.1661   29.8782   43.1272 H   0  0  0  0  0  0  0  0  0  0  0  0
   56.7015   28.9320   43.0392 H   0  0  0  0  0  0  0  0  0  0  0  0
   58.1982   25.6512   45.0064 H   0  0  0  0  0  0  0  0  0  0  0  0
   56.7290   23.4016   45.3105 H   0  0  0  0  0  0  0  0  0  0  0  0
   54.2938   24.1849   46.0874 H   0  0  0  0  0  0  0  0  0  0  0  0
   57.3380   30.5740   45.8870 H   0  0  0  0  0  0  0  0  0  0  0  0
   56.8269   33.5540   44.1434 H   0  0  0  0  0  0  0  0  0  0  0  0
   58.0517   35.7057   44.4005 H   0  0  0  0  0  0  0  0  0  0  0  0
   60.1744   35.7868   45.7074 H   0  0  0  0  0  0  0  0  0  0  0  0
   61.0471   33.7287   46.8055 H   0  0  0  0  0  0  0  0  0  0  0  0
   62.8079   30.8121   48.3357 H   0  0  0  0  0  0  0  0  0  0  0  0
   64.2461   32.1063   47.0707 H   0  0  0  0  0  0  0  0  0  0  0  0
   62.9291   32.8677   46.1673 H   0  0  0  0  0  0  0  0  0  0  0  0
   64.1978   33.6820   48.8007 H   0  0  0  0  0  0  0  0  0  0  0  0
   63.5908   34.7249   47.5078 H   0  0  0  0  0  0  0  0  0  0  0  0
   62.1817   34.3550   49.8005 H   0  0  0  0  0  0  0  0  0  0  0  0
   61.3290   34.5328   48.2586 H   0  0  0  0  0  0  0  0  0  0  0  0
   61.7723   32.0811   49.9427 H   0  0  0  0  0  0  0  0  0  0  0  0
   60.4514   32.4200   48.8076 H   0  0  0  0  0  0  0  0  0  0  0  0
  1  2  2  0
  2  3  1  0
  3  4  1  0
  4  5  1  0
  5  6  2  0
  5  7  1  0
  7  8  2  0
  8  9  1  0
  9 10  2  0
 10 11  1  0
  2 12  1  0
 12 13  1  0
 13 14  2  0
 14 15  1  0
 15 16  2  0
 16 17  1  0
 17 18  2  0
 18 19  1  0
 19 20  2  0
 19 21  1  0
 21 22  1  0
 22 23  1  0
 23 24  1  0
 24 25  1  0
 25 26  1  0
 11  7  1  0
 18 13  1  0
 26 22  1  0
  3 27  1  0
  3 28  1  0
  8 29  1  0
  9 30  1  0
 10 31  1  0
 12 32  1  0
 14 33  1  0
 15 34  1  0
 16 35  1  0
 17 36  1  0
 22 37  1  0
 23 38  1  0
 23 39  1  0
 24 40  1  0
 24 41  1  0
 25 42  1  0
 25 43  1  0
 26 44  1  0
 26 45  1  0
M  CHG  2   4  -1  21  -1
M  END
>  <UniqueID>  (17) 
15

>  <SMILES>  (17) 
O=C(C[N-]C(=O)c1ccco1)Nc1ccccc1C(=O)[N-]C1CCCC1

>  <Energy>  (17) 
80.26384230337753

>  <Genealogy>  (17) 
O=C(C[N-]C(=O)c1ccco1)Nc1ccccc1C(=O)[N-]C1CCCC1 (protonated)
O=C(C[N-]C(=O)c1ccco1)Nc1ccccc1C(=O)[N-]C1CCCC1 (3D coordinates assigned)
O=C(C[N-]C(=O)c1ccco1)Nc1ccccc1C(=O)[N-]C1CCCC1 (nonaromatic ring conformer: 80.26384230337753 kcal/mol)

>  <smiles>  (17) 
O=C(CNC(=O)c1ccco1)Nc1ccccc1C(=O)NC1CCCC1

>  <score_type>  (17) 
oracle

>  <origin>  (17) 
adg

>  <m_score__min__energy>  (17) 
-11.380000000000001

>  <m_primary>  (17) 
energy

$$$$
17:0
     RDKit          3D

 56 59  0  0  0  0  0  0  0  0999 V2000
   58.9079   35.0745   47.7376 H   0  0  0  0  0  0  0  0  0  0  0  0
   59.3050   34.0850   48.0080 C   0  0  0  0  0  0  0  0  0  0  0  0
   60.5370   34.0130   48.8190 C   0  0  0  0  0  0  0  0  0  0  0  0
   60.4590   34.2400   50.0560 O   0  0  0  0  0  0  0  0  0  0  0  0
   61.8100   33.7090   48.2300 N   0  0  0  0  0  0  0  0  0  0  0  0
   61.9370   33.8300   47.2010 H   0  0  0  0  0  0  0  0  0  0  0  0
   62.9420   33.2830   49.0540 C   0  0  0  0  0  0  0  0  0  0  0  0
   63.7163   34.0638   49.0273 H   0  0  0  0  0  0  0  0  0  0  0  0
   62.5788   33.1234   50.0800 H   0  0  0  0  0  0  0  0  0  0  0  0
   63.5470   31.9640   48.5490 C   0  0  0  0  0  0  0  0  0  0  0  0
   64.6430   32.0581   48.5503 H   0  0  0  0  0  0  0  0  0  0  0  0
   63.2021   31.1653   49.2221 H   0  0  0  0  0  0  0  0  0  0  0  0
   63.0900   31.5980   47.1320 C   0  0  0  0  0  0  0  0  0  0  0  0
   63.3743   32.4026   46.4379 H   0  0  0  0  0  0  0  0  0  0  0  0
   63.5717   30.6570   46.8280 H   0  0  0  0  0  0  0  0  0  0  0  0
   61.6400   31.4260   47.1060 N   0  0  0  0  0  0  0  0  0  0  0  0
   60.8600   30.4570   47.5090 C   0  0  0  0  0  0  0  0  0  0  0  0
   60.6660   30.3840   48.8960 C   0  0  0  0  0  0  0  0  0  0  0  0
   61.2605   31.0274   49.5613 H   0  0  0  0  0  0  0  0  0  0  0  0
   59.7330   29.5100   49.4420 C   0  0  0  0  0  0  0  0  0  0  0  0
   59.5891   29.4707   50.5318 H   0  0  0  0  0  0  0  0  0  0  0  0
   59.0020   28.7080   48.6350 N   0  0  0  0  0  0  0  0  0  0  0  0
   59.1710   28.6950   47.2890 C   0  0  0  0  0  0  0  0  0  0  0  0
   58.3910   27.8170   46.5280 C   0  0  0  0  0  0  0  0  0  0  0  0
   57.6300   27.1954   47.0224 H   0  0  0  0  0  0  0  0  0  0  0  0
   58.5710   27.7230   45.1420 C   0  0  0  0  0  0  0  0  0  0  0  0
   57.8140   26.8450   44.3530 O   0  0  0  0  0  0  0  0  0  0  0  0
   57.7910   25.4490   44.4850 C   0  0  0  0  0  0  0  0  0  0  0  0
   57.0260   24.7000   43.5810 C   0  0  0  0  0  0  0  0  0  0  0  0
   56.4709   25.2097   42.7797 H   0  0  0  0  0  0  0  0  0  0  0  0
   56.9650   23.3060   43.6930 C   0  0  0  0  0  0  0  0  0  0  0  0
   56.3681   22.7228   42.9763 H   0  0  0  0  0  0  0  0  0  0  0  0
   57.6620   22.6540   44.7150 C   0  0  0  0  0  0  0  0  0  0  0  0
   57.6187   21.5580   44.7976 H   0  0  0  0  0  0  0  0  0  0  0  0
   58.4140   23.3950   45.6320 C   0  0  0  0  0  0  0  0  0  0  0  0
   58.9576   22.8822   46.4392 H   0  0  0  0  0  0  0  0  0  0  0  0
   58.4750   24.7880   45.5230 C   0  0  0  0  0  0  0  0  0  0  0  0
   59.0597   25.3694   46.2511 H   0  0  0  0  0  0  0  0  0  0  0  0
   59.5730   28.4760   44.5350 C   0  0  0  0  0  0  0  0  0  0  0  0
   59.7504   28.3728   43.4543 H   0  0  0  0  0  0  0  0  0  0  0  0
   60.3560   29.3610   45.2810 C   0  0  0  0  0  0  0  0  0  0  0  0
   61.1538   29.9300   44.7812 H   0  0  0  0  0  0  0  0  0  0  0  0
   60.1400   29.5380   46.6700 C   0  0  0  0  0  0  0  0  0  0  0  0
   58.6510   32.9920   47.5880 C   0  0  0  0  0  0  0  0  0  0  0  0
   58.3002   32.2771   48.3469 H   0  0  0  0  0  0  0  0  0  0  0  0
   58.3710   32.6870   46.1610 C   0  0  0  0  0  0  0  0  0  0  0  0
   57.7780   31.4510   45.8450 C   0  0  0  0  0  0  0  0  0  0  0  0
   57.5398   30.7399   46.6497 H   0  0  0  0  0  0  0  0  0  0  0  0
   57.4880   31.1170   44.5170 C   0  0  0  0  0  0  0  0  0  0  0  0
   57.0311   30.1443   44.2823 H   0  0  0  0  0  0  0  0  0  0  0  0
   57.7780   32.0170   43.4900 C   0  0  0  0  0  0  0  0  0  0  0  0
   57.4960   31.6940   42.2030 F   0  0  0  0  0  0  0  0  0  0  0  0
   58.3520   33.2560   43.7900 C   0  0  0  0  0  0  0  0  0  0  0  0
   58.5749   33.9670   42.9808 H   0  0  0  0  0  0  0  0  0  0  0  0
   58.6440   33.5950   45.1160 C   0  0  0  0  0  0  0  0  0  0  0  0
   59.0888   34.5747   45.3449 H   0  0  0  0  0  0  0  0  0  0  0  0
  1  2  1  0
  2  3  1  0
  3  4  2  0
  3  5  1  0
  5  6  1  0
  5  7  1  0
  7  8  1  0
  7  9  1  0
  7 10  1  0
 10 11  1  0
 10 12  1  0
 10 13  1  0
 13 14  1  0
 13 15  1  0
 13 16  1  0
 16 17  2  3
 17 18  1  0
 18 19  1  0
 18 20  2  0
 20 21  1  0
 20 22  1  0
 22 23  1  0
 23 24  2  0
 24 25  1  0
 24 26  1  0
 26 27  1  0
 27 28  1  0
 28 29  2  0
 29 30  1  0
 29 31  1  0
 31 32  1  0
 31 33  2  0
 33 34  1  0
 33 35  1  0
 35 36  1  0
 35 37  2  0
 37 38  1  0
 26 39  2  0
 39 40  1  0
 39 41  1  0
 41 42  1  0
 41 43  2  0
  2 44  2  0
 44 45  1  0
 44 46  1  0
 46 47  2  0
 47 48  1  0
 47 49  1  0
 49 50  1  0
 49 51  2  0
 51 52  1  0
 51 53  1  0
 53 54  1  0
 53 55  2  0
 55 56  1  0
 43 17  1  0
 55 46  1  0
 43 23  1  0
 37 28  1  0
M  CHG  1  22  -1
M  END
>  <UniqueID>  (18) 
16

>  <SMILES>  (18) 
O=C(/C=C/c1ccc(F)cc1)NCCCN=c1cc[n-]c2cc(Oc3ccccc3)ccc12

>  <Energy>  (18) 
82.40802223332572

>  <Genealogy>  (18) 
O=C(C=Cc1ccc(F)cc1)NCCCN=c1cc[n-]c2cc(Oc3ccccc3)ccc12 (protonated)
O=C(/C=C/c1ccc(F)cc1)NCCCN=c1cc[n-]c2cc(Oc3ccccc3)ccc12 (cis-trans isomerization)
O=C(/C=C/c1ccc(F)cc1)NCCCN=c1cc[n-]c2cc(Oc3ccccc3)ccc12 (3D coordinates assigned)
O=C(/C=C/c1ccc(F)cc1)NCCCN=c1cc[n-]c2cc(Oc3ccccc3)ccc12 (optimized conformer: 82.40802223332572 kcal/mol)

>  <smiles>  (18) 
O=C(C=Cc1ccc(F)cc1)NCCCN=c1cc[nH]c2cc(Oc3ccccc3)ccc12

>  <score_type>  (18) 
oracle

>  <origin>  (18) 
adg

>  <m_score__min__energy>  (18) 
-10.35

>  <m_primary>  (18) 
energy

$$$$
18:0
     RDKit          3D

 45 47  0  0  0  0  0  0  0  0999 V2000
   57.2400   34.1910   45.4420 C   0  0  0  0  0  0  0  0  0  0  0  0
   58.2010   33.8190   46.5190 C   0  0  0  0  0  0  0  0  0  0  0  0
   59.5670   34.0210   46.4870 C   0  0  0  0  0  0  0  0  0  0  0  0
   60.0240   33.4440   47.6560 C   0  0  0  0  0  0  0  0  0  0  0  0
   61.4420   33.3760   48.0620 C   0  0  0  0  0  0  0  0  0  0  0  0
   62.4120   32.8320   47.2040 C   0  0  0  0  0  0  0  0  0  0  0  0
   63.7460   32.7450   47.6140 C   0  0  0  0  0  0  0  0  0  0  0  0
   64.1230   33.1880   48.8860 C   0  0  0  0  0  0  0  0  0  0  0  0
   65.4560   33.0960   49.2790 O   0  0  0  0  0  0  0  0  0  0  0  0
   63.1570   33.7160   49.7520 C   0  0  0  0  0  0  0  0  0  0  0  0
   61.8220   33.8020   49.3460 C   0  0  0  0  0  0  0  0  0  0  0  0
   58.9680   32.9180   48.3240 N   0  0  0  0  0  0  0  0  0  0  0  0
   58.9910   32.0770   49.5250 C   0  0  0  0  0  0  0  0  0  0  0  0
   58.5680   30.6380   49.2080 C   0  0  0  0  0  0  0  0  0  0  0  0
   59.3890   30.0510   48.0900 C   0  0  0  0  0  0  0  0  0  0  0  0
   60.5840   30.4230   47.9440 O   0  0  0  0  0  0  0  0  0  0  0  0
   58.8240   29.1500   47.1280 N   0  0  0  0  0  0  0  0  0  0  0  0
   58.0830   29.5190   45.9550 C   0  0  0  0  0  0  0  0  0  0  0  0
   58.2750   30.7890   45.3800 C   0  0  0  0  0  0  0  0  0  0  0  0
   57.5200   31.1910   44.2780 C   0  0  0  0  0  0  0  0  0  0  0  0
   56.5510   30.3430   43.7500 C   0  0  0  0  0  0  0  0  0  0  0  0
   56.3290   29.0900   44.3240 C   0  0  0  0  0  0  0  0  0  0  0  0
   57.0830   28.6590   45.4340 C   0  0  0  0  0  0  0  0  0  0  0  0
   56.8070   27.3130   46.0090 C   0  0  0  0  0  0  0  0  0  0  0  0
   55.4970   26.7490   45.9810 N   0  0  0  0  0  0  0  0  0  0  0  0
   57.7380   26.6560   46.5490 O   0  0  0  0  0  0  0  0  0  0  0  0
   57.8620   33.1270   47.6250 N   0  0  0  0  0  0  0  0  0  0  0  0
   56.3048   34.5530   45.8940 H   0  0  0  0  0  0  0  0  0  0  0  0
   57.6772   34.9848   44.8186 H   0  0  0  0  0  0  0  0  0  0  0  0
   57.0288   33.3097   44.8186 H   0  0  0  0  0  0  0  0  0  0  0  0
   60.1567   34.5263   45.7080 H   0  0  0  0  0  0  0  0  0  0  0  0
   62.1211   32.4731   46.2057 H   0  0  0  0  0  0  0  0  0  0  0  0
   64.5020   32.3264   46.9334 H   0  0  0  0  0  0  0  0  0  0  0  0
   66.1730   32.7620   48.6440 H   0  0  0  0  0  0  0  0  0  0  0  0
   63.4494   34.0638   50.7538 H   0  0  0  0  0  0  0  0  0  0  0  0
   61.0653   34.2051   50.0351 H   0  0  0  0  0  0  0  0  0  0  0  0
   60.0113   32.0679   49.9361 H   0  0  0  0  0  0  0  0  0  0  0  0
   58.2804   32.4943   50.2537 H   0  0  0  0  0  0  0  0  0  0  0  0
   58.6993   30.0209   50.1091 H   0  0  0  0  0  0  0  0  0  0  0  0
   57.5149   30.6516   48.8904 H   0  0  0  0  0  0  0  0  0  0  0  0
   59.0272   31.4709   45.8033 H   0  0  0  0  0  0  0  0  0  0  0  0
   57.6907   32.1792   43.8259 H   0  0  0  0  0  0  0  0  0  0  0  0
   55.9591   30.6606   42.8789 H   0  0  0  0  0  0  0  0  0  0  0  0
   55.5553   28.4303   43.9044 H   0  0  0  0  0  0  0  0  0  0  0  0
   54.7560   27.0840   46.6350 H   0  0  0  0  0  0  0  0  0  0  0  0
  1  2  1  0
  2  3  1  0
  3  4  2  0
  4  5  1  0
  5  6  2  0
  6  7  1  0
  7  8  2  0
  8  9  1  0
  8 10  1  0
 10 11  2  0
  4 12  1  0
 12 13  1  0
 13 14  1  0
 14 15  1  0
 15 16  2  0
 15 17  1  0
 17 18  1  0
 18 19  2  0
 19 20  1  0
 20 21  2  0
 21 22  1  0
 22 23  2  0
 23 24  1  0
 24 25  1  0
 24 26  2  0
 12 27  1  0
 27  2  2  0
 11  5  1  0
 23 18  1  0
  1 28  1  0
  1 29  1  0
  1 30  1  0
  3 31  1  0
  6 32  1  0
  7 33  1  0
  9 34  1  0
 10 35  1  0
 11 36  1  0
 13 37  1  0
 13 38  1  0
 14 39  1  0
 14 40  1  0
 19 41  1  0
 20 42  1  0
 21 43  1  0
 22 44  1  0
 25 45  1  0
M  CHG  2  17  -1  25  -1
M  END
>  <UniqueID>  (19) 
17

>  <SMILES>  (19) 
Cc1cc(-c2ccc(O)cc2)n(CCC(=O)[N-]c2ccccc2C([NH-])=O)n1

>  <Energy>  (19) 
85.92099212618251

>  <Genealogy>  (19) 
Cc1cc(-c2ccc(O)cc2)n(CCC(=O)[N-]c2ccccc2C([NH-])=O)n1 (protonated)
Cc1cc(-c2ccc(O)cc2)n(CCC(=O)[N-]c2ccccc2C([NH-])=O)n1 (3D coordinates assigned)
Cc1cc(-c2ccc(O)cc2)n(CCC(=O)[N-]c2ccccc2C([NH-])=O)n1 (optimized conformer: 85.92099212618251 kcal/mol)

>  <smiles>  (19) 
Cc1cc(-c2ccc(O)cc2)n(CCC(=O)Nc2ccccc2C(N)=O)n1

>  <score_type>  (19) 
oracle

>  <origin>  (19) 
adg

>  <m_score__min__energy>  (19) 
-13.44

>  <m_primary>  (19) 
energy

$$$$
19:0
     RDKit          3D

 55 57  0  0  0  0  0  0  0  0999 V2000
   54.7490   24.8350   45.5670 C   0  0  0  0  0  0  0  0  0  0  0  0
   55.1450   26.0800   46.1310 O   0  0  0  0  0  0  0  0  0  0  0  0
   56.4590   26.5750   46.1350 C   0  0  0  0  0  0  0  0  0  0  0  0
   57.5370   25.8010   46.6100 C   0  0  0  0  0  0  0  0  0  0  0  0
   58.8400   26.3020   46.5680 C   0  0  0  0  0  0  0  0  0  0  0  0
   59.0850   27.5730   46.0460 C   0  0  0  0  0  0  0  0  0  0  0  0
   58.0260   28.3520   45.5770 C   0  0  0  0  0  0  0  0  0  0  0  0
   56.7110   27.8740   45.6390 C   0  0  0  0  0  0  0  0  0  0  0  0
   55.6600   28.7130   45.1390 N   0  0  0  0  0  0  0  0  0  0  0  0
   55.7930   29.7320   44.1410 C   0  0  0  0  0  0  0  0  0  0  0  0
   55.8020   29.3990   42.9280 O   0  0  0  0  0  0  0  0  0  0  0  0
   55.9700   31.1140   44.4800 N   0  0  0  0  0  0  0  0  0  0  0  0
   57.2220   31.7470   44.8930 C   0  0  0  0  0  0  0  0  0  0  0  0
   57.0900   33.2770   44.9650 C   0  0  0  0  0  0  0  0  0  0  0  0
   57.4030   33.8560   46.3550 C   0  0  0  0  0  0  0  0  0  0  0  0
   58.8330   33.6080   46.7600 C   0  0  0  0  0  0  0  0  0  0  0  0
   59.1430   32.6100   47.6970 C   0  0  0  0  0  0  0  0  0  0  0  0
   60.4740   32.3410   48.0270 C   0  0  0  0  0  0  0  0  0  0  0  0
   61.5110   33.0560   47.4130 C   0  0  0  0  0  0  0  0  0  0  0  0
   63.1900   32.7010   47.8120 S   0  0  0  0  0  0  0  0  0  0  0  0
   64.0840   33.4750   46.8850 O   0  0  0  0  0  0  0  0  0  0  0  0
   63.4470   31.2380   47.5730 O   0  0  0  0  0  0  0  0  0  0  0  0
   63.6020   33.0930   49.4680 N   0  0  0  0  0  0  0  0  0  0  0  0
   65.0550   33.1230   49.7230 C   0  0  0  0  0  0  0  0  0  0  0  0
   65.6030   31.7710   50.1990 C   0  0  0  0  0  0  0  0  0  0  0  0
   64.8650   31.2940   51.3020 O   0  0  0  0  0  0  0  0  0  0  0  0
   63.5420   31.0270   50.8900 C   0  0  0  0  0  0  0  0  0  0  0  0
   62.8340   32.3220   50.4660 C   0  0  0  0  0  0  0  0  0  0  0  0
   61.2030   34.0700   46.4960 C   0  0  0  0  0  0  0  0  0  0  0  0
   59.8720   34.3400   46.1650 C   0  0  0  0  0  0  0  0  0  0  0  0
   54.5224   24.1225   46.3738 H   0  0  0  0  0  0  0  0  0  0  0  0
   53.8534   24.9823   44.9456 H   0  0  0  0  0  0  0  0  0  0  0  0
   55.5652   24.4378   44.9456 H   0  0  0  0  0  0  0  0  0  0  0  0
   57.3508   24.7959   47.0164 H   0  0  0  0  0  0  0  0  0  0  0  0
   59.6746   25.6938   46.9470 H   0  0  0  0  0  0  0  0  0  0  0  0
   60.1134   27.9611   46.0042 H   0  0  0  0  0  0  0  0  0  0  0  0
   58.2256   29.3483   45.1557 H   0  0  0  0  0  0  0  0  0  0  0  0
   57.5030   31.3665   45.8861 H   0  0  0  0  0  0  0  0  0  0  0  0
   57.9914   31.5044   44.1452 H   0  0  0  0  0  0  0  0  0  0  0  0
   57.7863   33.7209   44.2383 H   0  0  0  0  0  0  0  0  0  0  0  0
   56.0411   33.5217   44.7418 H   0  0  0  0  0  0  0  0  0  0  0  0
   57.2219   34.9408   46.3370 H   0  0  0  0  0  0  0  0  0  0  0  0
   56.7508   33.3562   47.0863 H   0  0  0  0  0  0  0  0  0  0  0  0
   58.3343   32.0368   48.1739 H   0  0  0  0  0  0  0  0  0  0  0  0
   60.7084   31.5655   48.7711 H   0  0  0  0  0  0  0  0  0  0  0  0
   65.5696   33.4027   48.7919 H   0  0  0  0  0  0  0  0  0  0  0  0
   65.2357   33.8544   50.5245 H   0  0  0  0  0  0  0  0  0  0  0  0
   65.5339   31.0437   49.3767 H   0  0  0  0  0  0  0  0  0  0  0  0
   66.6513   31.9025   50.5053 H   0  0  0  0  0  0  0  0  0  0  0  0
   63.5625   30.3311   50.0383 H   0  0  0  0  0  0  0  0  0  0  0  0
   62.9919   30.5827   51.7326 H   0  0  0  0  0  0  0  0  0  0  0  0
   61.8564   32.0628   50.0335 H   0  0  0  0  0  0  0  0  0  0  0  0
   62.7296   32.9513   51.3621 H   0  0  0  0  0  0  0  0  0  0  0  0
   62.0118   34.6558   46.0349 H   0  0  0  0  0  0  0  0  0  0  0  0
   59.6381   35.1293   45.4354 H   0  0  0  0  0  0  0  0  0  0  0  0
  1  2  1  0
  2  3  1  0
  3  4  2  0
  4  5  1  0
  5  6  2  0
  6  7  1  0
  7  8  2  0
  8  9  1  0
  9 10  1  0
 10 11  2  0
 10 12  1  0
 12 13  1  0
 13 14  1  0
 14 15  1  0
 15 16  1  0
 16 17  2  0
 17 18  1  0
 18 19  2  0
 19 20  1  0
 20 21  2  0
 20 22  2  0
 20 23  1  0
 23 24  1  0
 24 25  1  0
 25 26  1  0
 26 27  1  0
 27 28  1  0
 19 29  1  0
 29 30  2  0
  8  3  1  0
 30 16  1  0
 28 23  1  0
  1 31  1  0
  1 32  1  0
  1 33  1  0
  4 34  1  0
  5 35  1  0
  6 36  1  0
  7 37  1  0
 13 38  1  0
 13 39  1  0
 14 40  1  0
 14 41  1  0
 15 42  1  0
 15 43  1  0
 17 44  1  0
 18 45  1  0
 24 46  1  0
 24 47  1  0
 25 48  1  0
 25 49  1  0
 27 50  1  0
 27 51  1  0
 28 52  1  0
 28 53  1  0
 29 54  1  0
 30 55  1  0
M  CHG  2   9  -1  12  -1
M  END
>  <UniqueID>  (20) 
18

>  <SMILES>  (20) 
COc1ccccc1[N-]C(=O)[N-]CCCc1ccc(S(=O)(=O)N2CCOCC2)cc1

>  <Energy>  (20) 
62.53647606773062

>  <Genealogy>  (20) 
COc1ccccc1[N-]C(=O)[N-]CCCc1ccc(S(=O)(=O)N2CCOCC2)cc1 (protonated)
COc1ccccc1[N-]C(=O)[N-]CCCc1ccc(S(=O)(=O)N2CCOCC2)cc1 (3D coordinates assigned)
COc1ccccc1[N-]C(=O)[N-]CCCc1ccc(S(=O)(=O)N2CCOCC2)cc1 (nonaromatic ring conformer: 62.53647606773062 kcal/mol)

>  <smiles>  (20) 
COc1ccccc1NC(=O)NCCCc1ccc(S(=O)(=O)N2CCOCC2)cc1

>  <score_type>  (20) 
oracle

>  <origin>  (20) 
adg

>  <m_score__min__energy>  (20) 
-12.93

>  <m_primary>  (20) 
energy

$$$$
20:0
     RDKit          3D

 61 64  0  0  0  0  0  0  0  0999 V2000
   56.9430   34.2100   45.6020 C   0  0  0  0  0  0  0  0  0  0  0  0
   58.3430   33.9400   46.0870 C   0  0  0  0  0  0  0  0  0  0  0  0
   58.9160   34.7640   47.0670 C   0  0  0  0  0  0  0  0  0  0  0  0
   60.2170   34.5270   47.5170 C   0  0  0  0  0  0  0  0  0  0  0  0
   60.9600   33.4590   47.0000 C   0  0  0  0  0  0  0  0  0  0  0  0
   62.5850   33.1300   47.6100 S   0  0  0  0  0  0  0  0  0  0  0  0
   63.5160   34.2160   47.1490 O   0  0  0  0  0  0  0  0  0  0  0  0
   63.0720   31.8270   47.0400 O   0  0  0  0  0  0  0  0  0  0  0  0
   62.6140   33.0490   49.3570 N   0  0  0  0  0  0  0  0  0  0  0  0
   63.5450   32.0050   49.8400 C   0  0  0  0  0  0  0  0  0  0  0  0
   64.8480   32.6060   50.3970 C   0  0  0  0  0  0  0  0  0  0  0  0
   64.6350   33.5130   51.4700 O   0  0  0  0  0  0  0  0  0  0  0  0
   63.4210   34.2500   51.3680 C   0  0  0  0  0  0  0  0  0  0  0  0
   62.8870   34.3790   49.9320 C   0  0  0  0  0  0  0  0  0  0  0  0
   60.4010   32.6450   46.0070 C   0  0  0  0  0  0  0  0  0  0  0  0
   59.1000   32.8880   45.5320 C   0  0  0  0  0  0  0  0  0  0  0  0
   58.4990   32.0460   44.5370 N   0  0  0  0  0  0  0  0  0  0  0  0
   57.8750   30.7710   44.7400 C   0  0  0  0  0  0  0  0  0  0  0  0
   56.6380   30.6850   44.9640 O   0  0  0  0  0  0  0  0  0  0  0  0
   58.7070   29.5230   44.7390 C   0  0  0  0  0  0  0  0  0  0  0  0
   59.8840   29.6820   45.5310 O   0  0  0  0  0  0  0  0  0  0  0  0
   60.0200   29.3190   46.8840 C   0  0  0  0  0  0  0  0  0  0  0  0
   60.6560   30.1630   47.8170 C   0  0  0  0  0  0  0  0  0  0  0  0
   60.8340   29.7500   49.1390 C   0  0  0  0  0  0  0  0  0  0  0  0
   60.3810   28.4970   49.5480 C   0  0  0  0  0  0  0  0  0  0  0  0
   59.7370   27.6560   48.6400 C   0  0  0  0  0  0  0  0  0  0  0  0
   59.5320   28.0620   47.3100 C   0  0  0  0  0  0  0  0  0  0  0  0
   58.8340   27.1460   46.3760 C   0  0  0  0  0  0  0  0  0  0  0  0
   59.4120   26.7970   45.3130 O   0  0  0  0  0  0  0  0  0  0  0  0
   57.5050   26.6680   46.6230 N   0  0  0  0  0  0  0  0  0  0  0  0
   56.8880   25.5210   46.0150 C   0  0  0  0  0  0  0  0  0  0  0  0
   57.6300   24.3710   45.6940 C   0  0  0  0  0  0  0  0  0  0  0  0
   57.0020   23.2710   45.1020 C   0  0  0  0  0  0  0  0  0  0  0  0
   55.6360   23.3160   44.8140 C   0  0  0  0  0  0  0  0  0  0  0  0
   54.8960   24.4640   45.1090 C   0  0  0  0  0  0  0  0  0  0  0  0
   55.5200   25.5660   45.7030 C   0  0  0  0  0  0  0  0  0  0  0  0
   54.7730   26.7030   45.9940 O   0  0  0  0  0  0  0  0  0  0  0  0
   56.2742   34.3390   46.4658 H   0  0  0  0  0  0  0  0  0  0  0  0
   56.9362   35.1260   44.9930 H   0  0  0  0  0  0  0  0  0  0  0  0
   56.5960   33.3622   44.9930 H   0  0  0  0  0  0  0  0  0  0  0  0
   58.3374   35.6017   47.4836 H   0  0  0  0  0  0  0  0  0  0  0  0
   60.6598   35.1826   48.2812 H   0  0  0  0  0  0  0  0  0  0  0  0
   63.0506   31.4295   50.6365 H   0  0  0  0  0  0  0  0  0  0  0  0
   63.8056   31.3616   48.9867 H   0  0  0  0  0  0  0  0  0  0  0  0
   65.4860   31.7847   50.7555 H   0  0  0  0  0  0  0  0  0  0  0  0
   65.3206   33.1721   49.5808 H   0  0  0  0  0  0  0  0  0  0  0  0
   62.6571   33.7445   51.9771 H   0  0  0  0  0  0  0  0  0  0  0  0
   63.6368   35.2695   51.7203 H   0  0  0  0  0  0  0  0  0  0  0  0
   61.9564   34.9654   49.9439 H   0  0  0  0  0  0  0  0  0  0  0  0
   63.6466   34.8821   49.3156 H   0  0  0  0  0  0  0  0  0  0  0  0
   60.9846   31.8085   45.5951 H   0  0  0  0  0  0  0  0  0  0  0  0
   58.1099   28.6943   45.1473 H   0  0  0  0  0  0  0  0  0  0  0  0
   59.0120   29.3107   43.7037 H   0  0  0  0  0  0  0  0  0  0  0  0
   61.0146   31.1539   47.5014 H   0  0  0  0  0  0  0  0  0  0  0  0
   61.3329   30.4151   49.8592 H   0  0  0  0  0  0  0  0  0  0  0  0
   60.5314   28.1708   50.5877 H   0  0  0  0  0  0  0  0  0  0  0  0
   59.3865   26.6662   48.9679 H   0  0  0  0  0  0  0  0  0  0  0  0
   58.7082   24.3364   45.9093 H   0  0  0  0  0  0  0  0  0  0  0  0
   57.5844   22.3690   44.8628 H   0  0  0  0  0  0  0  0  0  0  0  0
   55.1423   22.4470   44.3546 H   0  0  0  0  0  0  0  0  0  0  0  0
   53.8220   24.5011   44.8740 H   0  0  0  0  0  0  0  0  0  0  0  0
  1  2  1  0
  2  3  2  0
  3  4  1  0
  4  5  2  0
  5  6  1  0
  6  7  2  0
  6  8  2  0
  6  9  1  0
  9 10  1  0
 10 11  1  0
 11 12  1  0
 12 13  1  0
 13 14  1  0
  5 15  1  0
 15 16  2  0
 16 17  1  0
 17 18  1  0
 18 19  2  0
 18 20  1  0
 20 21  1  0
 21 22  1  0
 22 23  2  0
 23 24  1  0
 24 25  2  0
 25 26  1  0
 26 27  2  0
 27 28  1  0
 28 29  2  0
 28 30  1  0
 30 31  1  0
 31 32  2  0
 32 33  1  0
 33 34  2  0
 34 35  1  0
 35 36  2  0
 36 37  1  0
 16  2  1  0
 27 22  1  0
 36 31  1  0
 14  9  1  0
  1 38  1  0
  1 39  1  0
  1 40  1  0
  3 41  1  0
  4 42  1  0
 10 43  1  0
 10 44  1  0
 11 45  1  0
 11 46  1  0
 13 47  1  0
 13 48  1  0
 14 49  1  0
 14 50  1  0
 15 51  1  0
 20 52  1  0
 20 53  1  0
 23 54  1  0
 24 55  1  0
 25 56  1  0
 26 57  1  0
 32 58  1  0
 33 59  1  0
 34 60  1  0
 35 61  1  0
M  CHG  3  17  -1  30  -1  37  -1
M  END
>  <UniqueID>  (21) 
19

>  <SMILES>  (21) 
Cc1ccc(S(=O)(=O)N2CCOCC2)cc1[N-]C(=O)COc1ccccc1C(=O)[N-]c1ccccc1[O-]

>  <Energy>  (21) 
85.63518509705524

>  <Genealogy>  (21) 
Cc1ccc(S(=O)(=O)N2CCOCC2)cc1[N-]C(=O)COc1ccccc1C(=O)[N-]c1ccccc1[O-] (protonated)
Cc1ccc(S(=O)(=O)N2CCOCC2)cc1[N-]C(=O)COc1ccccc1C(=O)[N-]c1ccccc1[O-] (3D coordinates assigned)
Cc1ccc(S(=O)(=O)N2CCOCC2)cc1[N-]C(=O)COc1ccccc1C(=O)[N-]c1ccccc1[O-] (nonaromatic ring conformer: 85.63518509705524 kcal/mol)

>  <smiles>  (21) 
Cc1ccc(S(=O)(=O)N2CCOCC2)cc1NC(=O)COc1ccccc1C(=O)Nc1ccccc1O

>  <score_type>  (21) 
oracle

>  <origin>  (21) 
adg

>  <m_score__min__energy>  (21) 
-16.469999999999999

>  <m_primary>  (21) 
energy

$$$$
21:0
     RDKit          3D

 28 29  0  0  0  0  0  0  0  0999 V2000
   59.2290   30.3310   53.8670 C   0  0  0  0  0  0  0  0  0  0  0  0
   58.3390   29.1870   52.8380 S   0  0  0  0  0  0  0  0  0  0  0  0
   58.8870   29.2370   51.4400 O   0  0  0  0  0  0  0  0  0  0  0  0
   58.5080   27.7930   53.3740 O   0  0  0  0  0  0  0  0  0  0  0  0
   56.6320   29.6180   52.8270 C   0  0  0  0  0  0  0  0  0  0  0  0
   55.6660   28.6800   53.2140 C   0  0  0  0  0  0  0  0  0  0  0  0
   54.3090   29.0170   53.1940 C   0  0  0  0  0  0  0  0  0  0  0  0
   53.9020   30.2930   52.7710 C   0  0  0  0  0  0  0  0  0  0  0  0
   52.4470   30.6690   52.7870 C   0  0  0  0  0  0  0  0  0  0  0  0
   51.9590   30.8910   51.3890 C   0  0  0  0  0  0  0  0  0  0  0  0
   52.0080   29.9750   50.4090 N   0  0  0  0  0  0  0  0  0  0  0  0
   51.3970   30.5660   49.3620 C   0  0  0  0  0  0  0  0  0  0  0  0
   51.2530   30.0030   48.2450 O   0  0  0  0  0  0  0  0  0  0  0  0
   50.9450   31.8120   49.6190 N   0  0  0  0  0  0  0  0  0  0  0  0
   51.3010   32.0000   50.9040 C   0  0  0  0  0  0  0  0  0  0  0  0
   51.0250   33.1560   51.6220 O   0  0  0  0  0  0  0  0  0  0  0  0
   54.8740   31.2320   52.3880 C   0  0  0  0  0  0  0  0  0  0  0  0
   56.2300   30.8930   52.4090 C   0  0  0  0  0  0  0  0  0  0  0  0
   59.0439   30.0931   54.9249 H   0  0  0  0  0  0  0  0  0  0  0  0
   60.3058   30.2524   53.6564 H   0  0  0  0  0  0  0  0  0  0  0  0
   58.8880   31.3554   53.6564 H   0  0  0  0  0  0  0  0  0  0  0  0
   55.9762   27.6746   53.5348 H   0  0  0  0  0  0  0  0  0  0  0  0
   53.5569   28.2795   53.5110 H   0  0  0  0  0  0  0  0  0  0  0  0
   51.8664   29.8579   53.2508 H   0  0  0  0  0  0  0  0  0  0  0  0
   52.3205   31.5965   53.3647 H   0  0  0  0  0  0  0  0  0  0  0  0
   52.4170   29.0150   50.4510 H   0  0  0  0  0  0  0  0  0  0  0  0
   54.5666   32.2391   52.0700 H   0  0  0  0  0  0  0  0  0  0  0  0
   56.9841   31.6302   52.0961 H   0  0  0  0  0  0  0  0  0  0  0  0
  1  2  1  0
  2  3  2  0
  2  4  2  0
  2  5  1  0
  5  6  2  0
  6  7  1  0
  7  8  2  0
  8  9  1  0
  9 10  1  0
 10 11  1  0
 11 12  1  0
 12 13  2  0
 12 14  1  0
 14 15  1  0
 15 16  1  0
  8 17  1  0
 17 18  2  0
 18  5  1  0
 15 10  2  0
  1 19  1  0
  1 20  1  0
  1 21  1  0
  6 22  1  0
  7 23  1  0
  9 24  1  0
  9 25  1  0
 11 26  1  0
 17 27  1  0
 18 28  1  0
M  CHG  2  14  -1  16  -1
M  END
>  <UniqueID>  (22) 
20

>  <SMILES>  (22) 
CS(=O)(=O)c1ccc(Cc2[nH]c(=O)[n-]c2[O-])cc1

>  <Energy>  (22) 
54.470429692909555

>  <Genealogy>  (22) 
CS(=O)(=O)c1ccc(Cc2[nH]c(=O)[n-]c2[O-])cc1 (protonated)
CS(=O)(=O)c1ccc(Cc2[nH]c(=O)[n-]c2[O-])cc1 (3D coordinates assigned)
CS(=O)(=O)c1ccc(Cc2[nH]c(=O)[n-]c2[O-])cc1 (optimized conformer: 54.470429692909555 kcal/mol)

>  <smiles>  (22) 
CS(=O)(=O)c1ccc(Cc2[nH]c(=O)[nH]c2O)cc1

>  <score_type>  (22) 
oracle

>  <origin>  (22) 
adg

>  <m_score__min__energy>  (22) 
-12.880000000000001

>  <m_primary>  (22) 
energy

$$$$
22:0
     RDKit          3D

 43 45  0  0  0  0  0  0  0  0999 V2000
   57.6950   31.6880   42.8930 C   0  0  0  0  0  0  0  0  0  0  0  0
   57.1700   30.3790   43.9770 S   0  0  0  0  0  0  0  0  0  0  0  0
   56.7130   29.2080   43.1520 O   0  0  0  0  0  0  0  0  0  0  0  0
   56.0230   30.8510   44.8260 O   0  0  0  0  0  0  0  0  0  0  0  0
   58.5110   29.9050   45.0150 C   0  0  0  0  0  0  0  0  0  0  0  0
   59.5660   29.1290   44.5130 C   0  0  0  0  0  0  0  0  0  0  0  0
   60.6230   28.7570   45.3490 C   0  0  0  0  0  0  0  0  0  0  0  0
   60.6340   29.1610   46.6860 C   0  0  0  0  0  0  0  0  0  0  0  0
   59.5870   29.9410   47.1950 C   0  0  0  0  0  0  0  0  0  0  0  0
   59.6090   30.4290   48.8870 S   0  0  0  0  0  0  0  0  0  0  0  0
   60.3270   29.4130   49.7320 O   0  0  0  0  0  0  0  0  0  0  0  0
   58.1950   30.5540   49.3770 O   0  0  0  0  0  0  0  0  0  0  0  0
   60.4040   31.9610   49.0410 N   0  0  0  0  0  0  0  0  0  0  0  0
   61.5680   32.3720   48.3090 C   0  0  0  0  0  0  0  0  0  0  0  0
   62.7260   31.5750   48.2480 C   0  0  0  0  0  0  0  0  0  0  0  0
   63.7910   31.9650   47.4960 N   0  0  0  0  0  0  0  0  0  0  0  0
   63.7710   33.1190   46.7780 C   0  0  0  0  0  0  0  0  0  0  0  0
   62.6480   33.9440   46.8120 C   0  0  0  0  0  0  0  0  0  0  0  0
   61.5490   33.5870   47.5960 C   0  0  0  0  0  0  0  0  0  0  0  0
   60.4370   34.4420   47.6170 O   0  0  0  0  0  0  0  0  0  0  0  0
   59.2910   34.2920   46.8210 C   0  0  0  0  0  0  0  0  0  0  0  0
   58.1790   33.6350   47.3610 C   0  0  0  0  0  0  0  0  0  0  0  0
   57.0210   33.4580   46.5970 C   0  0  0  0  0  0  0  0  0  0  0  0
   56.9720   33.9260   45.2800 C   0  0  0  0  0  0  0  0  0  0  0  0
   58.0830   34.5710   44.7280 C   0  0  0  0  0  0  0  0  0  0  0  0
   59.2420   34.7490   45.4890 C   0  0  0  0  0  0  0  0  0  0  0  0
   58.5280   30.3140   46.3560 C   0  0  0  0  0  0  0  0  0  0  0  0
   58.0385   32.5444   43.4918 H   0  0  0  0  0  0  0  0  0  0  0  0
   58.5192   31.3302   42.2584 H   0  0  0  0  0  0  0  0  0  0  0  0
   56.8520   31.9989   42.2584 H   0  0  0  0  0  0  0  0  0  0  0  0
   59.5617   28.8125   43.4595 H   0  0  0  0  0  0  0  0  0  0  0  0
   61.4471   28.1453   44.9533 H   0  0  0  0  0  0  0  0  0  0  0  0
   61.4669   28.8661   47.3412 H   0  0  0  0  0  0  0  0  0  0  0  0
   62.7707   30.6313   48.8114 H   0  0  0  0  0  0  0  0  0  0  0  0
   64.6410   31.3590   47.4630 H   0  0  0  0  0  0  0  0  0  0  0  0
   64.6423   33.4022   46.1692 H   0  0  0  0  0  0  0  0  0  0  0  0
   62.6276   34.8730   46.2233 H   0  0  0  0  0  0  0  0  0  0  0  0
   58.2163   33.2555   48.3928 H   0  0  0  0  0  0  0  0  0  0  0  0
   56.1478   32.9501   47.0324 H   0  0  0  0  0  0  0  0  0  0  0  0
   56.0610   33.7869   44.6794 H   0  0  0  0  0  0  0  0  0  0  0  0
   58.0449   34.9393   43.6922 H   0  0  0  0  0  0  0  0  0  0  0  0
   60.1177   35.2469   45.0470 H   0  0  0  0  0  0  0  0  0  0  0  0
   57.7069   30.9301   46.7512 H   0  0  0  0  0  0  0  0  0  0  0  0
  1  2  1  0
  2  3  2  0
  2  4  2  0
  2  5  1  0
  5  6  2  0
  6  7  1  0
  7  8  2  0
  8  9  1  0
  9 10  1  0
 10 11  2  0
 10 12  2  0
 10 13  1  0
 13 14  1  0
 14 15  2  0
 15 16  1  0
 16 17  2  0
 17 18  1  0
 18 19  2  0
 19 20  1  0
 20 21  1  0
 21 22  2  0
 22 23  1  0
 23 24  2  0
 24 25  1  0
 25 26  2  0
  9 27  2  0
 27  5  1  0
 19 14  1  0
 26 21  1  0
  1 28  1  0
  1 29  1  0
  1 30  1  0
  6 31  1  0
  7 32  1  0
  8 33  1  0
 15 34  1  0
 16 35  1  0
 17 36  1  0
 18 37  1  0
 22 38  1  0
 23 39  1  0
 24 40  1  0
 25 41  1  0
 26 42  1  0
 27 43  1  0
M  CHG  2  13  -1  16   1
M  END
>  <UniqueID>  (23) 
21

>  <SMILES>  (23) 
CS(=O)(=O)c1cccc(S(=O)(=O)[N-]c2c[nH+]ccc2Oc2ccccc2)c1

>  <Energy>  (23) 
53.38659198149693

>  <Genealogy>  (23) 
CS(=O)(=O)c1cccc(S(=O)(=O)[N-]c2c[nH+]ccc2Oc2ccccc2)c1 (protonated)
CS(=O)(=O)c1cccc(S(=O)(=O)[N-]c2c[nH+]ccc2Oc2ccccc2)c1 (3D coordinates assigned)
CS(=O)(=O)c1cccc(S(=O)(=O)[N-]c2c[nH+]ccc2Oc2ccccc2)c1 (optimized conformer: 53.38659198149693 kcal/mol)

>  <smiles>  (23) 
CS(=O)(=O)c1cccc(S(=O)(=O)Nc2cnccc2Oc2ccccc2)c1

>  <score_type>  (23) 
oracle

>  <origin>  (23) 
adg

>  <m_score__min__energy>  (23) 
-9.3100000000000005

>  <m_primary>  (23) 
energy

$$$$
23:0
     RDKit          3D

 24 25  0  0  0  0  0  0  0  0999 V2000
   57.6285   29.3461   43.3877 H   0  0  0  0  0  0  0  0  0  0  0  0
   57.9850   29.5120   44.4150 C   0  0  0  0  0  0  0  0  0  0  0  0
   58.3990   28.4360   45.1020 C   0  0  0  0  0  0  0  0  0  0  0  0
   59.4732   28.3583   45.3258 H   0  0  0  0  0  0  0  0  0  0  0  0
   57.5210   27.3470   45.5810 C   0  0  0  0  0  0  0  0  0  0  0  0
   56.1240   27.4920   45.6150 C   0  0  0  0  0  0  0  0  0  0  0  0
   55.5200   28.6790   45.2160 O   0  0  0  0  0  0  0  0  0  0  0  0
   55.3460   26.4590   46.0320 N   0  0  0  0  0  0  0  0  0  0  0  0
   55.8950   25.2740   46.4030 C   0  0  0  0  0  0  0  0  0  0  0  0
   55.1540   24.3330   46.7900 O   0  0  0  0  0  0  0  0  0  0  0  0
   57.2400   25.1000   46.3490 N   0  0  0  0  0  0  0  0  0  0  0  0
   58.0610   26.1020   45.9410 C   0  0  0  0  0  0  0  0  0  0  0  0
   59.3040   25.9030   45.8990 O   0  0  0  0  0  0  0  0  0  0  0  0
   57.9670   30.9000   44.9200 C   0  0  0  0  0  0  0  0  0  0  0  0
   58.8020   31.5120   46.2550 S   0  0  0  0  0  0  0  0  0  0  0  0
   58.3500   33.1150   46.0260 C   0  0  0  0  0  0  0  0  0  0  0  0
   58.6880   34.2430   46.9410 C   0  0  0  0  0  0  0  0  0  0  0  0
   58.5885   33.9108   47.9849 H   0  0  0  0  0  0  0  0  0  0  0  0
   59.7228   34.5673   46.7565 H   0  0  0  0  0  0  0  0  0  0  0  0
   58.0021   35.0829   46.7565 H   0  0  0  0  0  0  0  0  0  0  0  0
   57.5370   33.1950   44.9020 C   0  0  0  0  0  0  0  0  0  0  0  0
   57.0913   34.1345   44.5432 H   0  0  0  0  0  0  0  0  0  0  0  0
   57.3420   31.9600   44.2720 C   0  0  0  0  0  0  0  0  0  0  0  0
   56.7508   31.8396   43.3522 H   0  0  0  0  0  0  0  0  0  0  0  0
  1  2  1  0
  2  3  2  0
  3  4  1  0
  3  5  1  0
  5  6  2  0
  6  7  1  0
  6  8  1  0
  8  9  1  0
  9 10  2  0
  9 11  1  0
 11 12  1  0
 12 13  2  0
  2 14  1  0
 14 15  1  0
 15 16  1  0
 16 17  1  0
 17 18  1  0
 17 19  1  0
 17 20  1  0
 16 21  2  0
 21 22  1  0
 21 23  1  0
 23 24  1  0
 12  5  1  0
 23 14  2  0
M  CHG  3   7  -1   8  -1  11  -1
M  END
>  <UniqueID>  (24) 
22

>  <SMILES>  (24) 
Cc1ccc(/C=C\c2c([O-])[n-]c(=O)[n-]c2=O)s1

>  <Energy>  (24) 
60.830939737974205

>  <Genealogy>  (24) 
Cc1ccc(C=Cc2c([O-])[n-]c(=O)[n-]c2=O)s1 (protonated)
Cc1ccc(/C=C\c2c([O-])[n-]c(=O)[n-]c2=O)s1 (cis-trans isomerization)
Cc1ccc(/C=C\c2c([O-])[n-]c(=O)[n-]c2=O)s1 (3D coordinates assigned)
Cc1ccc(/C=C\c2c([O-])[n-]c(=O)[n-]c2=O)s1 (optimized conformer: 60.830939737974205 kcal/mol)

>  <smiles>  (24) 
Cc1ccc(C=Cc2c(O)[nH]c(=O)[nH]c2=O)s1

>  <score_type>  (24) 
oracle

>  <origin>  (24) 
adg

>  <m_score__min__energy>  (24) 
-14.5

>  <m_primary>  (24) 
energy

$$$$
24:0
     RDKit          3D

 29 30  0  0  0  0  0  0  0  0999 V2000
   59.8270   30.2810   47.7130 C   0  0  0  0  0  0  0  0  0  0  0  0
   58.5520   30.8280   47.3940 O   0  0  0  0  0  0  0  0  0  0  0  0
   58.3480   31.9730   46.6070 C   0  0  0  0  0  0  0  0  0  0  0  0
   58.6520   33.2640   47.0860 C   0  0  0  0  0  0  0  0  0  0  0  0
   58.5010   34.3800   46.2590 C   0  0  0  0  0  0  0  0  0  0  0  0
   58.0550   34.2240   44.9470 C   0  0  0  0  0  0  0  0  0  0  0  0
   57.7410   32.9530   44.4630 C   0  0  0  0  0  0  0  0  0  0  0  0
   57.8540   31.8280   45.2910 C   0  0  0  0  0  0  0  0  0  0  0  0
   57.5200   30.5440   44.7440 N   0  0  0  0  0  0  0  0  0  0  0  0
   56.2400   29.9130   44.8440 C   0  0  0  0  0  0  0  0  0  0  0  0
   55.1990   30.5280   44.4860 O   0  0  0  0  0  0  0  0  0  0  0  0
   56.1770   28.5760   45.2520 O   0  0  0  0  0  0  0  0  0  0  0  0
   57.2850   27.7620   45.5320 C   0  0  0  0  0  0  0  0  0  0  0  0
   58.6260   28.1310   45.3150 C   0  0  0  0  0  0  0  0  0  0  0  0
   59.5360   27.1380   45.6520 C   0  0  0  0  0  0  0  0  0  0  0  0
   58.6810   25.8020   46.2050 S   0  0  0  0  0  0  0  0  0  0  0  0
   57.1460   26.4660   46.0250 C   0  0  0  0  0  0  0  0  0  0  0  0
   55.8910   25.7720   46.3480 C   0  0  0  0  0  0  0  0  0  0  0  0
   55.9070   24.6620   46.9430 O   0  0  0  0  0  0  0  0  0  0  0  0
   54.6740   26.3400   45.9960 O   0  0  0  0  0  0  0  0  0  0  0  0
   59.9418   30.2317   48.8059 H   0  0  0  0  0  0  0  0  0  0  0  0
   59.9081   29.2689   47.2898 H   0  0  0  0  0  0  0  0  0  0  0  0
   60.6163   30.9197   47.2898 H   0  0  0  0  0  0  0  0  0  0  0  0
   59.0105   33.3933   48.1179 H   0  0  0  0  0  0  0  0  0  0  0  0
   58.7344   35.3838   46.6437 H   0  0  0  0  0  0  0  0  0  0  0  0
   57.9506   35.1026   44.2935 H   0  0  0  0  0  0  0  0  0  0  0  0
   57.4021   32.8334   43.4233 H   0  0  0  0  0  0  0  0  0  0  0  0
   58.9243   29.1120   44.9166 H   0  0  0  0  0  0  0  0  0  0  0  0
   60.6304   27.2133   45.5707 H   0  0  0  0  0  0  0  0  0  0  0  0
  1  2  1  0
  2  3  1  0
  3  4  2  0
  4  5  1  0
  5  6  2  0
  6  7  1  0
  7  8  2  0
  8  9  1  0
  9 10  1  0
 10 11  2  0
 10 12  1  0
 12 13  1  0
 13 14  1  0
 14 15  2  0
 15 16  1  0
 16 17  1  0
 17 18  1  0
 18 19  2  0
 18 20  1  0
  8  3  1  0
 17 13  2  0
  1 21  1  0
  1 22  1  0
  1 23  1  0
  4 24  1  0
  5 25  1  0
  6 26  1  0
  7 27  1  0
 14 28  1  0
 15 29  1  0
M  CHG  2   9  -1  20  -1
M  END
>  <UniqueID>  (25) 
23

>  <SMILES>  (25) 
COc1ccccc1[N-]C(=O)Oc1ccsc1C(=O)[O-]

>  <Energy>  (25) 
63.39399458050802

>  <Genealogy>  (25) 
COc1ccccc1[N-]C(=O)Oc1ccsc1C(=O)[O-] (protonated)
COc1ccccc1[N-]C(=O)Oc1ccsc1C(=O)[O-] (3D coordinates assigned)
COc1ccccc1[N-]C(=O)Oc1ccsc1C(=O)[O-] (optimized conformer: 63.39399458050802 kcal/mol)

>  <smiles>  (25) 
COc1ccccc1NC(=O)Oc1ccsc1C(=O)O

>  <score_type>  (25) 
oracle

>  <origin>  (25) 
adg

>  <m_score__min__energy>  (25) 
-11.199999999999999

>  <m_primary>  (25) 
energy

$$$$
25:0
     RDKit          3D

 42 44  0  0  0  0  0  0  0  0999 V2000
   55.7770   24.4670   47.1400 O   0  0  0  0  0  0  0  0  0  0  0  0
   55.3750   24.9740   45.7840 S   0  0  0  0  0  0  0  0  0  0  0  0
   54.5920   23.9070   45.0730 O   0  0  0  0  0  0  0  0  0  0  0  0
   54.4100   26.3370   45.9610 O   0  0  0  0  0  0  0  0  0  0  0  0
   56.8340   25.3660   44.8250 C   0  0  0  0  0  0  0  0  0  0  0  0
   57.9820   25.9090   45.6870 C   0  0  0  0  0  0  0  0  0  0  0  0
   57.6310   27.2350   46.3750 C   0  0  0  0  0  0  0  0  0  0  0  0
   56.7210   28.0230   45.5460 N   0  0  0  0  0  0  0  0  0  0  0  0
   57.0330   29.3800   45.2270 C   0  0  0  0  0  0  0  0  0  0  0  0
   57.9650   30.0710   46.0130 C   0  0  0  0  0  0  0  0  0  0  0  0
   58.2820   31.4120   45.7350 C   0  0  0  0  0  0  0  0  0  0  0  0
   59.2520   32.1410   46.5780 C   0  0  0  0  0  0  0  0  0  0  0  0
   59.0800   33.4080   47.0010 N   0  0  0  0  0  0  0  0  0  0  0  0
   60.1410   33.7110   47.7280 N   0  0  0  0  0  0  0  0  0  0  0  0
   60.9340   32.6210   47.7400 C   0  0  0  0  0  0  0  0  0  0  0  0
   62.2460   32.5710   48.4350 C   0  0  0  0  0  0  0  0  0  0  0  0
   63.2540   33.4670   48.0300 C   0  0  0  0  0  0  0  0  0  0  0  0
   64.5110   33.4540   48.6390 C   0  0  0  0  0  0  0  0  0  0  0  0
   64.7810   32.5490   49.6630 C   0  0  0  0  0  0  0  0  0  0  0  0
   63.7930   31.6590   50.0860 C   0  0  0  0  0  0  0  0  0  0  0  0
   62.5270   31.6590   49.4860 C   0  0  0  0  0  0  0  0  0  0  0  0
   61.2370   30.4280   50.2030 Br  0  0  0  0  0  0  0  0  0  0  0  0
   60.4120   31.6120   47.0170 N   0  0  0  0  0  0  0  0  0  0  0  0
   57.6600   32.0490   44.6480 C   0  0  0  0  0  0  0  0  0  0  0  0
   56.7370   31.3590   43.8580 C   0  0  0  0  0  0  0  0  0  0  0  0
   56.4230   30.0260   44.1350 C   0  0  0  0  0  0  0  0  0  0  0  0
   55.5170   29.3610   43.3070 O   0  0  0  0  0  0  0  0  0  0  0  0
   57.1771   24.4525   44.3171 H   0  0  0  0  0  0  0  0  0  0  0  0
   56.5578   26.1519   44.1067 H   0  0  0  0  0  0  0  0  0  0  0  0
   58.2238   25.1648   46.4601 H   0  0  0  0  0  0  0  0  0  0  0  0
   58.8371   26.0968   45.0210 H   0  0  0  0  0  0  0  0  0  0  0  0
   57.1483   27.0239   47.3406 H   0  0  0  0  0  0  0  0  0  0  0  0
   58.5565   27.8095   46.5280 H   0  0  0  0  0  0  0  0  0  0  0  0
   55.9270   27.5670   45.0430 H   0  0  0  0  0  0  0  0  0  0  0  0
   58.4531   29.5592   46.8555 H   0  0  0  0  0  0  0  0  0  0  0  0
   63.0489   34.1865   47.2236 H   0  0  0  0  0  0  0  0  0  0  0  0
   65.2884   34.1591   48.3097 H   0  0  0  0  0  0  0  0  0  0  0  0
   65.7730   32.5359   50.1381 H   0  0  0  0  0  0  0  0  0  0  0  0
   64.0104   30.9503   50.8987 H   0  0  0  0  0  0  0  0  0  0  0  0
   57.9012   33.0972   44.4176 H   0  0  0  0  0  0  0  0  0  0  0  0
   56.2539   31.8691   43.0116 H   0  0  0  0  0  0  0  0  0  0  0  0
   55.1260   29.7880   42.4770 H   0  0  0  0  0  0  0  0  0  0  0  0
  1  2  2  0
  2  3  2  0
  2  4  1  0
  2  5  1  0
  5  6  1  0
  6  7  1  0
  7  8  1  0
  8  9  1  0
  9 10  2  0
 10 11  1  0
 11 12  1  0
 12 13  2  0
 13 14  1  0
 14 15  1  0
 15 16  1  0
 16 17  2  0
 17 18  1  0
 18 19  2  0
 19 20  1  0
 20 21  2  0
 21 22  1  0
 15 23  2  0
 11 24  2  0
 24 25  1  0
 25 26  2  0
 26 27  1  0
 26  9  1  0
 23 12  1  0
 21 16  1  0
  5 28  1  0
  5 29  1  0
  6 30  1  0
  6 31  1  0
  7 32  1  0
  7 33  1  0
  8 34  1  0
 10 35  1  0
 17 36  1  0
 18 37  1  0
 19 38  1  0
 20 39  1  0
 24 40  1  0
 25 41  1  0
 27 42  1  0
M  CHG  2   4  -1  14  -1
M  END
>  <UniqueID>  (26) 
24

>  <SMILES>  (26) 
O=S(=O)([O-])CCCNc1cc(-c2n[n-]c(-c3ccccc3Br)n2)ccc1O

>  <Energy>  (26) 
79.9784652993156

>  <Genealogy>  (26) 
O=S(=O)([O-])CCCNc1cc(-c2n[n-]c(-c3ccccc3Br)n2)ccc1O (protonated)
O=S(=O)([O-])CCCNc1cc(-c2n[n-]c(-c3ccccc3Br)n2)ccc1O (3D coordinates assigned)
O=S(=O)([O-])CCCNc1cc(-c2n[n-]c(-c3ccccc3Br)n2)ccc1O (optimized conformer: 79.9784652993156 kcal/mol)

>  <smiles>  (26) 
O=S(=O)(O)CCCNc1cc(-c2n[nH]c(-c3ccccc3Br)n2)ccc1O

>  <score_type>  (26) 
oracle

>  <origin>  (26) 
adg

>  <m_score__min__energy>  (26) 
-13.6

>  <m_primary>  (26) 
energy

$$$$
26:0
     RDKit          3D

 25 25  0  0  0  0  0  0  0  0999 V2000
   56.6730   30.7010   43.4580 C   0  0  0  0  0  0  0  0  0  0  0  0
   57.8010   30.7080   44.3910 N   0  0  0  0  0  0  0  0  0  0  0  0
   57.8200   31.6750   45.4860 C   0  0  0  0  0  0  0  0  0  0  0  0
   58.6610   29.5640   44.4800 C   0  0  0  0  0  0  0  0  0  0  0  0
   58.4600   28.5610   45.3480 C   0  0  0  0  0  0  0  0  0  0  0  0
   57.1650   27.8740   45.5750 C   0  0  0  0  0  0  0  0  0  0  0  0
   56.0800   28.4220   45.2420 O   0  0  0  0  0  0  0  0  0  0  0  0
   57.1240   26.5300   46.1950 C   0  0  0  0  0  0  0  0  0  0  0  0
   55.9200   25.8040   46.2360 C   0  0  0  0  0  0  0  0  0  0  0  0
   54.7480   26.3440   45.7120 O   0  0  0  0  0  0  0  0  0  0  0  0
   55.8920   24.5680   46.8030 N   0  0  0  0  0  0  0  0  0  0  0  0
   57.0100   24.0130   47.3320 C   0  0  0  0  0  0  0  0  0  0  0  0
   56.9570   22.8700   47.8550 O   0  0  0  0  0  0  0  0  0  0  0  0
   58.1870   24.6850   47.2930 N   0  0  0  0  0  0  0  0  0  0  0  0
   58.2730   25.9210   46.7370 C   0  0  0  0  0  0  0  0  0  0  0  0
   59.3930   26.4960   46.6900 O   0  0  0  0  0  0  0  0  0  0  0  0
   55.7295   30.6951   44.0235 H   0  0  0  0  0  0  0  0  0  0  0  0
   56.7154   31.5994   42.8247 H   0  0  0  0  0  0  0  0  0  0  0  0
   56.7265   29.8032   42.8247 H   0  0  0  0  0  0  0  0  0  0  0  0
   57.8095   31.1405   46.4474 H   0  0  0  0  0  0  0  0  0  0  0  0
   58.7304   32.2886   45.4175 H   0  0  0  0  0  0  0  0  0  0  0  0
   56.9344   32.3239   45.4175 H   0  0  0  0  0  0  0  0  0  0  0  0
   59.5270   29.5060   43.8042 H   0  0  0  0  0  0  0  0  0  0  0  0
   59.3239   28.2211   45.9381 H   0  0  0  0  0  0  0  0  0  0  0  0
   54.7780   27.0950   45.0340 H   0  0  0  0  0  0  0  0  0  0  0  0
  1  2  1  0
  2  3  1  0
  2  4  1  0
  4  5  2  3
  5  6  1  0
  6  7  2  0
  6  8  1  0
  8  9  2  0
  9 10  1  0
  9 11  1  0
 11 12  1  0
 12 13  2  0
 12 14  1  0
 14 15  1  0
 15 16  2  0
 15  8  1  0
  1 17  1  0
  1 18  1  0
  1 19  1  0
  3 20  1  0
  3 21  1  0
  3 22  1  0
  4 23  1  0
  5 24  1  0
 10 25  1  0
M  CHG  2  11  -1  14  -1
M  END
>  <UniqueID>  (27) 
25

>  <SMILES>  (27) 
CN(C)C=CC(=O)c1c(O)[n-]c(=O)[n-]c1=O

>  <Energy>  (27) 
34.34794698896684

>  <Genealogy>  (27) 
CN(C)C=CC(=O)c1c(O)[n-]c(=O)[n-]c1=O (protonated)
CN(C)C=CC(=O)c1c(O)[n-]c(=O)[n-]c1=O (3D coordinates assigned)
CN(C)C=CC(=O)c1c(O)[n-]c(=O)[n-]c1=O (optimized conformer: 34.34794698896684 kcal/mol)

>  <smiles>  (27) 
CN(C)C=CC(=O)c1c(O)[nH]c(=O)[nH]c1=O

>  <score_type>  (27) 
oracle

>  <origin>  (27) 
adg

>  <m_score__min__energy>  (27) 
-9.7799999999999994

>  <m_primary>  (27) 
energy

$$$$
27:0
     RDKit          3D

 29 31  0  0  0  0  0  0  0  0999 V2000
   57.5030   20.1480   42.8310 H   0  0  0  0  0  0  0  0  0  0  0  0
   56.6740   20.6650   43.1000 O   0  0  0  0  0  0  0  0  0  0  0  0
   56.7640   21.8780   43.7790 C   0  0  0  0  0  0  0  0  0  0  0  0
   58.0350   22.4290   44.0500 C   0  0  0  0  0  0  0  0  0  0  0  0
   58.9404   21.8967   43.7230 H   0  0  0  0  0  0  0  0  0  0  0  0
   58.1550   23.6520   44.7340 C   0  0  0  0  0  0  0  0  0  0  0  0
   59.1417   24.0945   44.9357 H   0  0  0  0  0  0  0  0  0  0  0  0
   56.9830   24.2870   45.1490 C   0  0  0  0  0  0  0  0  0  0  0  0
   56.7510   25.4860   45.7970 C   0  0  0  0  0  0  0  0  0  0  0  0
   57.6960   26.4500   46.2790 N   0  0  0  0  0  0  0  0  0  0  0  0
   57.4140   27.6920   46.5250 C   0  0  0  0  0  0  0  0  0  0  0  0
   57.0419   27.9709   47.5219 H   0  0  0  0  0  0  0  0  0  0  0  0
   57.5810   28.7430   45.4960 C   0  0  0  0  0  0  0  0  0  0  0  0
   58.8860   29.1370   45.1500 C   0  0  0  0  0  0  0  0  0  0  0  0
   59.7469   28.6627   45.6439 H   0  0  0  0  0  0  0  0  0  0  0  0
   59.1000   30.1250   44.1850 C   0  0  0  0  0  0  0  0  0  0  0  0
   60.1257   30.4254   43.9249 H   0  0  0  0  0  0  0  0  0  0  0  0
   58.0150   30.7310   43.5510 C   0  0  0  0  0  0  0  0  0  0  0  0
   58.1855   31.5080   42.7913 H   0  0  0  0  0  0  0  0  0  0  0  0
   56.7130   30.3510   43.8810 C   0  0  0  0  0  0  0  0  0  0  0  0
   55.8599   30.8307   43.3790 H   0  0  0  0  0  0  0  0  0  0  0  0
   56.4860   29.3630   44.8470 C   0  0  0  0  0  0  0  0  0  0  0  0
   55.1750   29.0100   45.1440 O   0  0  0  0  0  0  0  0  0  0  0  0
   55.3760   25.6290   45.8330 C   0  0  0  0  0  0  0  0  0  0  0  0
   54.7080   26.7160   46.3810 O   0  0  0  0  0  0  0  0  0  0  0  0
   54.7410   24.5750   45.2720 N   0  0  0  0  0  0  0  0  0  0  0  0
   55.7410   23.7680   44.8620 C   0  0  0  0  0  0  0  0  0  0  0  0
   55.5970   22.5580   44.1840 C   0  0  0  0  0  0  0  0  0  0  0  0
   54.6000   22.1451   43.9709 H   0  0  0  0  0  0  0  0  0  0  0  0
  1  2  1  0
  2  3  1  0
  3  4  2  0
  4  5  1  0
  4  6  1  0
  6  7  1  0
  6  8  2  0
  8  9  1  0
  9 10  1  0
 10 11  2  0
 11 12  1  0
 11 13  1  0
 13 14  2  0
 14 15  1  0
 14 16  1  0
 16 17  1  0
 16 18  2  0
 18 19  1  0
 18 20  1  0
 20 21  1  0
 20 22  2  0
 22 23  1  0
  9 24  2  0
 24 25  1  0
 24 26  1  0
 26 27  1  0
 27 28  2  0
 28 29  1  0
 28  3  1  0
 27  8  1  0
 22 13  1  0
M  CHG  3  23  -1  25  -1  26  -1
M  END
>  <UniqueID>  (28) 
26

>  <SMILES>  (28) 
[O-]c1ccccc1/C=N/c1c([O-])[n-]c2cc(O)ccc12

>  <Energy>  (28) 
71.34604973036733

>  <Genealogy>  (28) 
[O-]c1ccccc1C=Nc1c([O-])[n-]c2cc(O)ccc12 (protonated)
[O-]c1ccccc1/C=N/c1c([O-])[n-]c2cc(O)ccc12 (cis-trans isomerization)
[O-]c1ccccc1/C=N/c1c([O-])[n-]c2cc(O)ccc12 (3D coordinates assigned)
[O-]c1ccccc1/C=N/c1c([O-])[n-]c2cc(O)ccc12 (optimized conformer: 71.34604973036733 kcal/mol)

>  <smiles>  (28) 
Oc1ccc2c(N=Cc3ccccc3O)c(O)[nH]c2c1

>  <score_type>  (28) 
oracle

>  <origin>  (28) 
adg

>  <m_score__min__energy>  (28) 
-16.34

>  <m_primary>  (28) 
energy

$$$$
28:0
     RDKit          3D

 41 43  0  0  0  0  0  0  0  0999 V2000
   55.5230   30.0070   43.2160 O   0  0  0  0  0  0  0  0  0  0  0  0
   56.0490   29.9390   44.3600 C   0  0  0  0  0  0  0  0  0  0  0  0
   55.7240   28.8620   45.2430 N   0  0  0  0  0  0  0  0  0  0  0  0
   56.6680   27.8160   45.6200 C   0  0  0  0  0  0  0  0  0  0  0  0
   58.0530   28.3860   45.7610 C   0  0  0  0  0  0  0  0  0  0  0  0
   58.4720   28.9560   46.9750 C   0  0  0  0  0  0  0  0  0  0  0  0
   59.7700   29.4640   47.1020 C   0  0  0  0  0  0  0  0  0  0  0  0
   60.6550   29.4030   46.0230 C   0  0  0  0  0  0  0  0  0  0  0  0
   60.2470   28.8320   44.8140 C   0  0  0  0  0  0  0  0  0  0  0  0
   58.9520   28.3230   44.6830 C   0  0  0  0  0  0  0  0  0  0  0  0
   56.9780   30.9380   44.7890 N   0  0  0  0  0  0  0  0  0  0  0  0
   56.6400   32.3490   44.9290 C   0  0  0  0  0  0  0  0  0  0  0  0
   57.8040   33.1130   45.4960 C   0  0  0  0  0  0  0  0  0  0  0  0
   58.2070   34.3200   44.9040 C   0  0  0  0  0  0  0  0  0  0  0  0
   59.2960   35.0270   45.4160 C   0  0  0  0  0  0  0  0  0  0  0  0
   59.9990   34.5320   46.5170 C   0  0  0  0  0  0  0  0  0  0  0  0
   59.6240   33.3160   47.1080 C   0  0  0  0  0  0  0  0  0  0  0  0
   60.3600   32.7980   48.3120 C   0  0  0  0  0  0  0  0  0  0  0  0
   61.8260   33.0550   48.1670 C   0  0  0  0  0  0  0  0  0  0  0  0
   62.6150   33.7590   49.0450 C   0  0  0  0  0  0  0  0  0  0  0  0
   63.8590   33.8370   48.5440 N   0  0  0  0  0  0  0  0  0  0  0  0
   63.7820   33.1810   47.3670 C   0  0  0  0  0  0  0  0  0  0  0  0
   62.5520   32.6950   47.0950 N   0  0  0  0  0  0  0  0  0  0  0  0
   58.5170   32.6140   46.5990 C   0  0  0  0  0  0  0  0  0  0  0  0
   56.3576   27.3761   46.5793 H   0  0  0  0  0  0  0  0  0  0  0  0
   56.6776   27.0444   44.8361 H   0  0  0  0  0  0  0  0  0  0  0  0
   57.7784   29.0031   47.8275 H   0  0  0  0  0  0  0  0  0  0  0  0
   60.0937   29.9120   48.0531 H   0  0  0  0  0  0  0  0  0  0  0  0
   61.6740   29.8047   46.1247 H   0  0  0  0  0  0  0  0  0  0  0  0
   60.9454   28.7833   43.9655 H   0  0  0  0  0  0  0  0  0  0  0  0
   58.6351   27.8710   43.7316 H   0  0  0  0  0  0  0  0  0  0  0  0
   56.3832   32.7599   43.9415 H   0  0  0  0  0  0  0  0  0  0  0  0
   55.7835   32.4446   45.6125 H   0  0  0  0  0  0  0  0  0  0  0  0
   57.6619   34.7107   44.0321 H   0  0  0  0  0  0  0  0  0  0  0  0
   59.6014   35.9762   44.9515 H   0  0  0  0  0  0  0  0  0  0  0  0
   60.8505   35.0982   46.9225 H   0  0  0  0  0  0  0  0  0  0  0  0
   59.9884   33.3080   49.2130 H   0  0  0  0  0  0  0  0  0  0  0  0
   60.1910   31.7146   48.3991 H   0  0  0  0  0  0  0  0  0  0  0  0
   62.2822   34.1884   50.0015 H   0  0  0  0  0  0  0  0  0  0  0  0
   64.6413   33.0541   46.6921 H   0  0  0  0  0  0  0  0  0  0  0  0
   58.2073   31.6681   47.0674 H   0  0  0  0  0  0  0  0  0  0  0  0
  1  2  2  0
  2  3  1  0
  3  4  1  0
  4  5  1  0
  5  6  2  0
  6  7  1  0
  7  8  2  0
  8  9  1  0
  9 10  2  0
  2 11  1  0
 11 12  1  0
 12 13  1  0
 13 14  2  0
 14 15  1  0
 15 16  2  0
 16 17  1  0
 17 18  1  0
 18 19  1  0
 19 20  2  0
 20 21  1  0
 21 22  1  0
 22 23  2  0
 17 24  2  0
 10  5  1  0
 24 13  1  0
 23 19  1  0
  4 25  1  0
  4 26  1  0
  6 27  1  0
  7 28  1  0
  8 29  1  0
  9 30  1  0
 10 31  1  0
 12 32  1  0
 12 33  1  0
 14 34  1  0
 15 35  1  0
 16 36  1  0
 18 37  1  0
 18 38  1  0
 20 39  1  0
 22 40  1  0
 24 41  1  0
M  CHG  3   3  -1  11  -1  21  -1
M  END
>  <UniqueID>  (29) 
27

>  <SMILES>  (29) 
O=C([N-]Cc1ccccc1)[N-]Cc1cccc(Cc2c[n-]cn2)c1

>  <Energy>  (29) 
63.770375239163016

>  <Genealogy>  (29) 
O=C([N-]Cc1ccccc1)[N-]Cc1cccc(Cc2c[n-]cn2)c1 (protonated)
O=C([N-]Cc1ccccc1)[N-]Cc1cccc(Cc2c[n-]cn2)c1 (3D coordinates assigned)
O=C([N-]Cc1ccccc1)[N-]Cc1cccc(Cc2c[n-]cn2)c1 (optimized conformer: 63.770375239163016 kcal/mol)

>  <smiles>  (29) 
O=C(NCc1ccccc1)NCc1cccc(Cc2c[nH]cn2)c1

>  <score_type>  (29) 
oracle

>  <origin>  (29) 
adg

>  <m_score__min__energy>  (29) 
-12.32

>  <m_primary>  (29) 
energy

$$$$
29:0
     RDKit          3D

 37 38  0  0  0  0  0  0  0  0999 V2000
   55.1430   29.3040   44.8410 N   0  0  0  0  0  0  0  0  0  0  0  0
   56.4150   29.9520   44.8410 C   0  0  0  0  0  0  0  0  0  0  0  0
   56.4840   31.1660   44.5140 O   0  0  0  0  0  0  0  0  0  0  0  0
   57.6400   29.1920   45.1950 C   0  0  0  0  0  0  0  0  0  0  0  0
   57.6630   27.8000   44.9880 C   0  0  0  0  0  0  0  0  0  0  0  0
   58.8210   27.0600   45.2390 C   0  0  0  0  0  0  0  0  0  0  0  0
   59.9740   27.6980   45.6940 C   0  0  0  0  0  0  0  0  0  0  0  0
   59.9670   29.0750   45.9190 C   0  0  0  0  0  0  0  0  0  0  0  0
   58.8060   29.8280   45.6980 C   0  0  0  0  0  0  0  0  0  0  0  0
   58.8330   31.2300   46.0060 N   0  0  0  0  0  0  0  0  0  0  0  0
   59.6220   31.8000   47.0680 C   0  0  0  0  0  0  0  0  0  0  0  0
   59.2010   31.7440   48.4110 C   0  0  0  0  0  0  0  0  0  0  0  0
   59.9890   32.3050   49.4210 C   0  0  0  0  0  0  0  0  0  0  0  0
   61.2070   32.9200   49.1070 C   0  0  0  0  0  0  0  0  0  0  0  0
   62.2030   33.6260   50.3760 S   0  0  0  0  0  0  0  0  0  0  0  0
   62.7190   34.9550   49.9010 O   0  0  0  0  0  0  0  0  0  0  0  0
   61.3990   33.8360   51.6290 O   0  0  0  0  0  0  0  0  0  0  0  0
   63.5500   32.5900   50.7300 N   0  0  0  0  0  0  0  0  0  0  0  0
   64.6070   32.4370   49.9880 C   0  0  0  0  0  0  0  0  0  0  0  0
   65.6700   31.5480   50.3560 N   0  0  0  0  0  0  0  0  0  0  0  0
   64.7090   33.1760   48.7710 N   0  0  0  0  0  0  0  0  0  0  0  0
   61.6310   32.9740   47.7730 C   0  0  0  0  0  0  0  0  0  0  0  0
   60.8450   32.4130   46.7630 C   0  0  0  0  0  0  0  0  0  0  0  0
   54.5230   29.3410   45.6800 H   0  0  0  0  0  0  0  0  0  0  0  0
   56.7592   27.2891   44.6246 H   0  0  0  0  0  0  0  0  0  0  0  0
   58.8231   25.9719   45.0773 H   0  0  0  0  0  0  0  0  0  0  0  0
   60.8894   27.1157   45.8757 H   0  0  0  0  0  0  0  0  0  0  0  0
   60.8811   29.5740   46.2731 H   0  0  0  0  0  0  0  0  0  0  0  0
   58.3650   31.8780   45.3330 H   0  0  0  0  0  0  0  0  0  0  0  0
   58.2484   31.2569   48.6665 H   0  0  0  0  0  0  0  0  0  0  0  0
   59.6504   32.2629   50.4667 H   0  0  0  0  0  0  0  0  0  0  0  0
   66.4980   31.4440   49.7300 H   0  0  0  0  0  0  0  0  0  0  0  0
   65.6620   30.9910   51.2370 H   0  0  0  0  0  0  0  0  0  0  0  0
   63.9470   33.8290   48.4810 H   0  0  0  0  0  0  0  0  0  0  0  0
   65.5440   33.0710   48.1540 H   0  0  0  0  0  0  0  0  0  0  0  0
   62.5852   33.4593   47.5199 H   0  0  0  0  0  0  0  0  0  0  0  0
   61.1892   32.4528   45.7190 H   0  0  0  0  0  0  0  0  0  0  0  0
  1  2  1  0
  2  3  2  0
  2  4  1  0
  4  5  2  0
  5  6  1  0
  6  7  2  0
  7  8  1  0
  8  9  2  0
  9 10  1  0
 10 11  1  0
 11 12  2  0
 12 13  1  0
 13 14  2  0
 14 15  1  0
 15 16  2  0
 15 17  2  0
 15 18  1  0
 18 19  2  3
 19 20  1  0
 19 21  1  0
 14 22  1  0
 22 23  2  0
  9  4  1  0
 23 11  1  0
  1 24  1  0
  5 25  1  0
  6 26  1  0
  7 27  1  0
  8 28  1  0
 10 29  1  0
 12 30  1  0
 13 31  1  0
 20 32  1  0
 20 33  1  0
 21 34  1  0
 21 35  1  0
 22 36  1  0
 23 37  1  0
M  CHG  1   1  -1
M  END
>  <UniqueID>  (30) 
28

>  <SMILES>  (30) 
[NH-]C(=O)c1ccccc1Nc1ccc(S(=O)(=O)N=C(N)N)cc1

>  <Energy>  (30) 
48.40115220636641

>  <Genealogy>  (30) 
[NH-]C(=O)c1ccccc1Nc1ccc(S(=O)(=O)N=C(N)N)cc1 (protonated)
[NH-]C(=O)c1ccccc1Nc1ccc(S(=O)(=O)N=C(N)N)cc1 (3D coordinates assigned)
[NH-]C(=O)c1ccccc1Nc1ccc(S(=O)(=O)N=C(N)N)cc1 (optimized conformer: 48.40115220636641 kcal/mol)

>  <smiles>  (30) 
NC(=O)c1ccccc1Nc1ccc(S(=O)(=O)N=C(N)N)cc1

>  <score_type>  (30) 
oracle

>  <origin>  (30) 
adg

>  <m_score__min__energy>  (30) 
-10.85

>  <m_primary>  (30) 
energy

$$$$
30:0
     RDKit          3D

 42 44  0  0  0  0  0  0  0  0999 V2000
   58.5920   34.9490   47.1400 N   0  0  0  0  0  0  0  0  0  0  0  0
   59.5790   33.9240   47.3160 C   0  0  0  0  0  0  0  0  0  0  0  0
   60.5410   34.0780   48.3270 C   0  0  0  0  0  0  0  0  0  0  0  0
   61.5070   33.0940   48.5450 C   0  0  0  0  0  0  0  0  0  0  0  0
   61.5220   31.9430   47.7580 C   0  0  0  0  0  0  0  0  0  0  0  0
   60.5750   31.7750   46.7480 C   0  0  0  0  0  0  0  0  0  0  0  0
   59.6040   32.7630   46.5060 C   0  0  0  0  0  0  0  0  0  0  0  0
   58.4720   32.5320   45.1640 S   0  0  0  0  0  0  0  0  0  0  0  0
   57.0580   32.7830   45.6100 O   0  0  0  0  0  0  0  0  0  0  0  0
   58.8080   33.5080   44.0730 O   0  0  0  0  0  0  0  0  0  0  0  0
   58.5800   30.9170   44.5390 N   0  0  0  0  0  0  0  0  0  0  0  0
   57.7420   29.8160   44.9240 C   0  0  0  0  0  0  0  0  0  0  0  0
   58.2570   28.6630   45.5330 C   0  0  0  0  0  0  0  0  0  0  0  0
   57.4030   27.6150   45.9170 C   0  0  0  0  0  0  0  0  0  0  0  0
   57.9320   26.3660   46.5190 C   0  0  0  0  0  0  0  0  0  0  0  0
   58.5850   25.3920   45.8620 C   0  0  0  0  0  0  0  0  0  0  0  0
   57.9540   24.2180   45.2210 C   0  0  0  0  0  0  0  0  0  0  0  0
   58.7240   23.0670   44.9950 C   0  0  0  0  0  0  0  0  0  0  0  0
   58.1550   21.9460   44.3850 C   0  0  0  0  0  0  0  0  0  0  0  0
   56.8180   21.9700   43.9750 C   0  0  0  0  0  0  0  0  0  0  0  0
   56.2610   20.8430   43.3760 O   0  0  0  0  0  0  0  0  0  0  0  0
   56.0520   23.1260   44.1710 C   0  0  0  0  0  0  0  0  0  0  0  0
   56.6190   24.2500   44.7810 C   0  0  0  0  0  0  0  0  0  0  0  0
   56.0340   27.7310   45.6310 C   0  0  0  0  0  0  0  0  0  0  0  0
   55.1520   26.7090   45.9630 O   0  0  0  0  0  0  0  0  0  0  0  0
   55.5560   28.8520   45.0290 N   0  0  0  0  0  0  0  0  0  0  0  0
   56.3640   29.8850   44.6760 C   0  0  0  0  0  0  0  0  0  0  0  0
   55.8650   30.9010   44.1250 O   0  0  0  0  0  0  0  0  0  0  0  0
   58.7110   35.9120   47.5190 H   0  0  0  0  0  0  0  0  0  0  0  0
   57.7330   34.7640   46.5750 H   0  0  0  0  0  0  0  0  0  0  0  0
   60.5335   34.9824   48.9531 H   0  0  0  0  0  0  0  0  0  0  0  0
   62.2572   33.2268   49.3385 H   0  0  0  0  0  0  0  0  0  0  0  0
   62.2814   31.1669   47.9339 H   0  0  0  0  0  0  0  0  0  0  0  0
   60.5877   30.8616   46.1353 H   0  0  0  0  0  0  0  0  0  0  0  0
   59.3390   28.5779   45.7118 H   0  0  0  0  0  0  0  0  0  0  0  0
   57.7759   26.2247   47.5987 H   0  0  0  0  0  0  0  0  0  0  0  0
   59.6798   25.4750   45.7956 H   0  0  0  0  0  0  0  0  0  0  0  0
   59.7808   23.0470   45.2995 H   0  0  0  0  0  0  0  0  0  0  0  0
   58.7607   21.0415   44.2267 H   0  0  0  0  0  0  0  0  0  0  0  0
   56.8240   20.0310   43.1500 H   0  0  0  0  0  0  0  0  0  0  0  0
   55.0019   23.1502   43.8445 H   0  0  0  0  0  0  0  0  0  0  0  0
   56.0186   25.1616   44.9168 H   0  0  0  0  0  0  0  0  0  0  0  0
  1  2  1  0
  2  3  2  0
  3  4  1  0
  4  5  2  0
  5  6  1  0
  6  7  2  0
  7  8  1  0
  8  9  2  0
  8 10  2  0
  8 11  1  0
 11 12  1  0
 12 13  2  0
 13 14  1  0
 14 15  1  0
 15 16  2  3
 16 17  1  0
 17 18  2  0
 18 19  1  0
 19 20  2  0
 20 21  1  0
 20 22  1  0
 22 23  2  0
 14 24  2  0
 24 25  1  0
 24 26  1  0
 26 27  1  0
 27 28  2  0
  7  2  1  0
 27 12  1  0
 23 17  1  0
  1 29  1  0
  1 30  1  0
  3 31  1  0
  4 32  1  0
  5 33  1  0
  6 34  1  0
 13 35  1  0
 15 36  1  0
 16 37  1  0
 18 38  1  0
 19 39  1  0
 21 40  1  0
 22 41  1  0
 23 42  1  0
M  CHG  3  11  -1  25  -1  26  -1
M  END
>  <UniqueID>  (31) 
29

>  <SMILES>  (31) 
Nc1ccccc1S(=O)(=O)[N-]c1cc(C=Cc2ccc(O)cc2)c([O-])[n-]c1=O

>  <Energy>  (31) 
57.5455788868341

>  <Genealogy>  (31) 
Nc1ccccc1S(=O)(=O)[N-]c1cc(C=Cc2ccc(O)cc2)c([O-])[n-]c1=O (protonated)
Nc1ccccc1S(=O)(=O)[N-]c1cc(C=Cc2ccc(O)cc2)c([O-])[n-]c1=O (3D coordinates assigned)
Nc1ccccc1S(=O)(=O)[N-]c1cc(C=Cc2ccc(O)cc2)c([O-])[n-]c1=O (optimized conformer: 57.5455788868341 kcal/mol)

>  <smiles>  (31) 
Nc1ccccc1S(=O)(=O)Nc1cc(C=Cc2ccc(O)cc2)c(O)[nH]c1=O

>  <score_type>  (31) 
oracle

>  <origin>  (31) 
adg

>  <m_score__min__energy>  (31) 
-16.039999999999999

>  <m_primary>  (31) 
energy

$$$$
31:0
     RDKit          3D

 54 57  0  0  0  0  0  0  0  0999 V2000
   57.6120   23.0670   45.5800 C   0  0  0  0  0  0  0  0  0  0  0  0
   57.9320   24.5230   45.4130 C   0  0  0  0  0  0  0  0  0  0  0  0
   57.7500   25.1500   44.1580 C   0  0  0  0  0  0  0  0  0  0  0  0
   58.0070   26.5280   43.9910 C   0  0  0  0  0  0  0  0  0  0  0  0
   57.8290   27.1800   42.6500 C   0  0  0  0  0  0  0  0  0  0  0  0
   58.4320   27.2660   45.1110 C   0  0  0  0  0  0  0  0  0  0  0  0
   58.7160   28.5980   45.1160 N   0  0  0  0  0  0  0  0  0  0  0  0
   59.0990   29.0310   46.3460 C   0  0  0  0  0  0  0  0  0  0  0  0
   59.5000   30.3880   46.6410 N   0  0  0  0  0  0  0  0  0  0  0  0
   58.5930   31.5180   46.3880 C   0  0  0  0  0  0  0  0  0  0  0  0
   57.8930   31.3500   45.0730 C   0  0  0  0  0  0  0  0  0  0  0  0
   58.1440   32.0690   43.9210 C   0  0  0  0  0  0  0  0  0  0  0  0
   57.2730   31.5710   42.9760 C   0  0  0  0  0  0  0  0  0  0  0  0
   56.5460   30.5820   43.6070 C   0  0  0  0  0  0  0  0  0  0  0  0
   56.9380   30.4730   44.8560 O   0  0  0  0  0  0  0  0  0  0  0  0
   60.8010   30.6330   47.2110 C   0  0  0  0  0  0  0  0  0  0  0  0
   61.8320   30.4690   46.5050 O   0  0  0  0  0  0  0  0  0  0  0  0
   60.9560   31.0540   48.6460 C   0  0  0  0  0  0  0  0  0  0  0  0
   62.4050   31.4400   48.9520 C   0  0  0  0  0  0  0  0  0  0  0  0
   62.8540   32.9400   48.0950 S   0  0  0  0  0  0  0  0  0  0  0  0
   63.5730   33.8680   49.0360 O   0  0  0  0  0  0  0  0  0  0  0  0
   63.7650   32.6200   46.9420 O   0  0  0  0  0  0  0  0  0  0  0  0
   61.3940   33.7190   47.4980 C   0  0  0  0  0  0  0  0  0  0  0  0
   60.4370   34.2130   48.3970 C   0  0  0  0  0  0  0  0  0  0  0  0
   59.2710   34.8210   47.9200 C   0  0  0  0  0  0  0  0  0  0  0  0
   59.0530   34.9350   46.5440 C   0  0  0  0  0  0  0  0  0  0  0  0
   60.0000   34.4370   45.6430 C   0  0  0  0  0  0  0  0  0  0  0  0
   61.1670   33.8270   46.1170 C   0  0  0  0  0  0  0  0  0  0  0  0
   59.1060   27.7630   47.4750 S   0  0  0  0  0  0  0  0  0  0  0  0
   58.5930   26.6400   46.3390 C   0  0  0  0  0  0  0  0  0  0  0  0
   58.3480   25.2830   46.5220 C   0  0  0  0  0  0  0  0  0  0  0  0
   57.5586   22.8239   46.6515 H   0  0  0  0  0  0  0  0  0  0  0  0
   56.6442   22.8475   45.1055 H   0  0  0  0  0  0  0  0  0  0  0  0
   58.3986   22.4619   45.1055 H   0  0  0  0  0  0  0  0  0  0  0  0
   57.4033   24.5553   43.3000 H   0  0  0  0  0  0  0  0  0  0  0  0
   57.5416   28.2326   42.7893 H   0  0  0  0  0  0  0  0  0  0  0  0
   58.7739   27.1290   42.0892 H   0  0  0  0  0  0  0  0  0  0  0  0
   57.0411   26.6559   42.0892 H   0  0  0  0  0  0  0  0  0  0  0  0
   58.6380   29.2080   44.2730 H   0  0  0  0  0  0  0  0  0  0  0  0
   57.8441   31.5673   47.1922 H   0  0  0  0  0  0  0  0  0  0  0  0
   59.1829   32.4460   46.3592 H   0  0  0  0  0  0  0  0  0  0  0  0
   58.8842   32.8714   43.7858 H   0  0  0  0  0  0  0  0  0  0  0  0
   57.1767   31.8963   41.9296 H   0  0  0  0  0  0  0  0  0  0  0  0
   55.7578   29.9767   43.1355 H   0  0  0  0  0  0  0  0  0  0  0  0
   60.3050   31.9194   48.8391 H   0  0  0  0  0  0  0  0  0  0  0  0
   60.6754   30.2084   49.2911 H   0  0  0  0  0  0  0  0  0  0  0  0
   62.5158   31.5962   50.0352 H   0  0  0  0  0  0  0  0  0  0  0  0
   63.0658   30.6284   48.6134 H   0  0  0  0  0  0  0  0  0  0  0  0
   60.6040   34.1219   49.4804 H   0  0  0  0  0  0  0  0  0  0  0  0
   58.5248   35.2098   48.6285 H   0  0  0  0  0  0  0  0  0  0  0  0
   58.1372   35.4161   46.1699 H   0  0  0  0  0  0  0  0  0  0  0  0
   59.8272   34.5250   44.5602 H   0  0  0  0  0  0  0  0  0  0  0  0
   61.9075   33.4316   45.4062 H   0  0  0  0  0  0  0  0  0  0  0  0
   58.4763   24.8154   47.5094 H   0  0  0  0  0  0  0  0  0  0  0  0
  1  2  1  0
  2  3  2  0
  3  4  1  0
  4  5  1  0
  4  6  2  0
  6  7  1  0
  7  8  2  0
  8  9  1  0
  9 10  1  0
 10 11  1  0
 11 12  2  0
 12 13  1  0
 13 14  2  0
 14 15  1  0
  9 16  1  0
 16 17  2  0
 16 18  1  0
 18 19  1  0
 19 20  1  0
 20 21  2  0
 20 22  2  0
 20 23  1  0
 23 24  2  0
 24 25  1  0
 25 26  2  0
 26 27  1  0
 27 28  2  0
  8 29  1  0
 29 30  1  0
 30 31  2  0
 31  2  1  0
 30  6  1  0
 15 11  1  0
 28 23  1  0
  1 32  1  0
  1 33  1  0
  1 34  1  0
  3 35  1  0
  5 36  1  0
  5 37  1  0
  5 38  1  0
  7 39  1  0
 10 40  1  0
 10 41  1  0
 12 42  1  0
 13 43  1  0
 14 44  1  0
 18 45  1  0
 18 46  1  0
 19 47  1  0
 19 48  1  0
 24 49  1  0
 25 50  1  0
 26 51  1  0
 27 52  1  0
 28 53  1  0
 31 54  1  0
M  CHG  1   7   1
M  END
>  <UniqueID>  (32) 
30

>  <SMILES>  (32) 
Cc1cc(C)c2[nH+]c(N(Cc3ccco3)C(=O)CCS(=O)(=O)c3ccccc3)sc2c1

>  <Energy>  (32) 
115.10952214832658

>  <Genealogy>  (32) 
Cc1cc(C)c2[nH+]c(N(Cc3ccco3)C(=O)CCS(=O)(=O)c3ccccc3)sc2c1 (protonated)
Cc1cc(C)c2[nH+]c(N(Cc3ccco3)C(=O)CCS(=O)(=O)c3ccccc3)sc2c1 (3D coordinates assigned)
Cc1cc(C)c2[nH+]c(N(Cc3ccco3)C(=O)CCS(=O)(=O)c3ccccc3)sc2c1 (optimized conformer: 115.10952214832658 kcal/mol)

>  <smiles>  (32) 
Cc1cc(C)c2nc(N(Cc3ccco3)C(=O)CCS(=O)(=O)c3ccccc3)sc2c1

>  <score_type>  (32) 
oracle

>  <origin>  (32) 
adg

>  <m_score__min__energy>  (32) 
-8.6799999999999997

>  <m_primary>  (32) 
energy

$$$$
32:0
     RDKit          3D

 39 41  0  0  0  0  0  0  0  0999 V2000
   60.0030   34.3760   46.8850 C   0  0  0  0  0  0  0  0  0  0  0  0
   59.2300   33.2880   46.2000 C   0  0  0  0  0  0  0  0  0  0  0  0
   58.1280   33.6050   45.3910 C   0  0  0  0  0  0  0  0  0  0  0  0
   57.3850   32.5900   44.7820 C   0  0  0  0  0  0  0  0  0  0  0  0
   57.7300   31.2470   44.9820 C   0  0  0  0  0  0  0  0  0  0  0  0
   56.7880   29.9770   44.2080 S   0  0  0  0  0  0  0  0  0  0  0  0
   56.6080   30.3240   42.7560 O   0  0  0  0  0  0  0  0  0  0  0  0
   55.4400   29.8530   44.8610 O   0  0  0  0  0  0  0  0  0  0  0  0
   57.6240   28.4680   44.3520 N   0  0  0  0  0  0  0  0  0  0  0  0
   57.7870   27.4900   43.3310 C   0  0  0  0  0  0  0  0  0  0  0  0
   57.7120   27.7490   42.1020 O   0  0  0  0  0  0  0  0  0  0  0  0
   58.0230   26.1760   43.8390 N   0  0  0  0  0  0  0  0  0  0  0  0
   57.9550   26.2820   45.1290 C   0  0  0  0  0  0  0  0  0  0  0  0
   58.2060   25.1410   46.0630 C   0  0  0  0  0  0  0  0  0  0  0  0
   57.6950   23.8620   45.4610 C   0  0  0  0  0  0  0  0  0  0  0  0
   56.3130   23.6290   45.3600 C   0  0  0  0  0  0  0  0  0  0  0  0
   55.8370   22.4570   44.7660 C   0  0  0  0  0  0  0  0  0  0  0  0
   56.7360   21.5100   44.2580 C   0  0  0  0  0  0  0  0  0  0  0  0
   56.2740   20.3380   43.6630 O   0  0  0  0  0  0  0  0  0  0  0  0
   58.1130   21.7420   44.3460 C   0  0  0  0  0  0  0  0  0  0  0  0
   58.5920   22.9140   44.9400 C   0  0  0  0  0  0  0  0  0  0  0  0
   57.6940   27.6640   45.5160 C   0  0  0  0  0  0  0  0  0  0  0  0
   57.5220   28.0880   46.6890 O   0  0  0  0  0  0  0  0  0  0  0  0
   58.8150   30.9270   45.8080 C   0  0  0  0  0  0  0  0  0  0  0  0
   59.5580   31.9410   46.4180 C   0  0  0  0  0  0  0  0  0  0  0  0
   59.9177   34.2559   47.9751 H   0  0  0  0  0  0  0  0  0  0  0  0
   61.0612   34.3148   46.5911 H   0  0  0  0  0  0  0  0  0  0  0  0
   59.5969   35.3551   46.5911 H   0  0  0  0  0  0  0  0  0  0  0  0
   57.8477   34.6573   45.2355 H   0  0  0  0  0  0  0  0  0  0  0  0
   56.5266   32.8464   44.1437 H   0  0  0  0  0  0  0  0  0  0  0  0
   59.2869   25.0511   46.2461 H   0  0  0  0  0  0  0  0  0  0  0  0
   57.6814   25.3286   47.0115 H   0  0  0  0  0  0  0  0  0  0  0  0
   55.6025   24.3725   45.7503 H   0  0  0  0  0  0  0  0  0  0  0  0
   54.7539   22.2776   44.6971 H   0  0  0  0  0  0  0  0  0  0  0  0
   56.8500   19.5050   43.6150 H   0  0  0  0  0  0  0  0  0  0  0  0
   58.8208   21.0005   43.9469 H   0  0  0  0  0  0  0  0  0  0  0  0
   59.6754   23.0945   44.9996 H   0  0  0  0  0  0  0  0  0  0  0  0
   59.0831   29.8737   45.9771 H   0  0  0  0  0  0  0  0  0  0  0  0
   60.4038   31.6823   47.0720 H   0  0  0  0  0  0  0  0  0  0  0  0
  1  2  1  0
  2  3  2  0
  3  4  1  0
  4  5  2  0
  5  6  1  0
  6  7  2  0
  6  8  2  0
  6  9  1  0
  9 10  1  0
 10 11  2  0
 10 12  1  0
 12 13  2  0
 13 14  1  0
 14 15  1  0
 15 16  2  0
 16 17  1  0
 17 18  2  0
 18 19  1  0
 18 20  1  0
 20 21  2  0
 13 22  1  0
 22 23  2  0
  5 24  1  0
 24 25  2  0
 25  2  1  0
 22  9  1  0
 21 15  1  0
  1 26  1  0
  1 27  1  0
  1 28  1  0
  3 29  1  0
  4 30  1  0
 14 31  1  0
 14 32  1  0
 16 33  1  0
 17 34  1  0
 19 35  1  0
 20 36  1  0
 21 37  1  0
 24 38  1  0
 25 39  1  0
M  END
>  <UniqueID>  (33) 
31

>  <SMILES>  (33) 
Cc1ccc(S(=O)(=O)N2C(=O)N=C(Cc3ccc(O)cc3)C2=O)cc1

>  <Energy>  (33) 
69.9971423022216

>  <Genealogy>  (33) 
Cc1ccc(S(=O)(=O)N2C(=O)N=C(Cc3ccc(O)cc3)C2=O)cc1 (3D coordinates assigned)
Cc1ccc(S(=O)(=O)N2C(=O)N=C(Cc3ccc(O)cc3)C2=O)cc1 (nonaromatic ring conformer: 69.9971423022216 kcal/mol)

>  <smiles>  (33) 
Cc1ccc(S(=O)(=O)N2C(=O)N=C(Cc3ccc(O)cc3)C2=O)cc1

>  <score_type>  (33) 
oracle

>  <origin>  (33) 
adg

>  <m_score__min__energy>  (33) 
-9.6099999999999994

>  <m_primary>  (33) 
energy

$$$$
33:0
     RDKit          3D

 32 34  0  0  0  0  0  0  0  0999 V2000
   54.7630   27.0810   45.9910 H   0  0  0  0  0  0  0  0  0  0  0  0
   54.4980   26.1080   45.9180 O   0  0  0  0  0  0  0  0  0  0  0  0
   55.3090   25.1410   45.3220 C   0  0  0  0  0  0  0  0  0  0  0  0
   54.6870   24.0770   44.6580 C   0  0  0  0  0  0  0  0  0  0  0  0
   53.5901   24.0490   44.5799 H   0  0  0  0  0  0  0  0  0  0  0  0
   55.4480   23.0510   44.0940 C   0  0  0  0  0  0  0  0  0  0  0  0
   54.9502   22.2204   43.5723 H   0  0  0  0  0  0  0  0  0  0  0  0
   56.8400   23.0790   44.1920 C   0  0  0  0  0  0  0  0  0  0  0  0
   57.4377   22.2623   43.7609 H   0  0  0  0  0  0  0  0  0  0  0  0
   57.4750   24.1430   44.8370 C   0  0  0  0  0  0  0  0  0  0  0  0
   58.5721   24.1572   44.9156 H   0  0  0  0  0  0  0  0  0  0  0  0
   56.7230   25.1950   45.3860 C   0  0  0  0  0  0  0  0  0  0  0  0
   57.4420   26.3390   45.9930 C   0  0  0  0  0  0  0  0  0  0  0  0
   58.6450   26.1890   46.3350 O   0  0  0  0  0  0  0  0  0  0  0  0
   56.8110   27.6070   46.2370 N   0  0  0  0  0  0  0  0  0  0  0  0
   56.7240   28.6090   45.4100 C   0  0  0  0  0  0  0  0  0  0  0  0
   55.5390   29.0180   44.9060 N   0  0  0  0  0  0  0  0  0  0  0  0
   55.6870   30.0770   44.0650 C   0  0  0  0  0  0  0  0  0  0  0  0
   54.8385   30.5474   43.5465 H   0  0  0  0  0  0  0  0  0  0  0  0
   56.9950   30.5160   43.9140 C   0  0  0  0  0  0  0  0  0  0  0  0
   57.5450   31.8310   42.8350 S   0  0  0  0  0  0  0  0  0  0  0  0
   57.9180   32.9050   44.2170 C   0  0  0  0  0  0  0  0  0  0  0  0
   58.9650   33.7700   44.1370 N   0  0  0  0  0  0  0  0  0  0  0  0
   59.2960   34.5880   45.1720 C   0  0  0  0  0  0  0  0  0  0  0  0
   60.1456   35.2800   45.0756 H   0  0  0  0  0  0  0  0  0  0  0  0
   58.5580   34.5500   46.3570 C   0  0  0  0  0  0  0  0  0  0  0  0
   58.8239   35.2064   47.1987 H   0  0  0  0  0  0  0  0  0  0  0  0
   57.4790   33.6700   46.4620 C   0  0  0  0  0  0  0  0  0  0  0  0
   56.8885   33.6294   47.3892 H   0  0  0  0  0  0  0  0  0  0  0  0
   57.1520   32.8420   45.3870 C   0  0  0  0  0  0  0  0  0  0  0  0
   56.3018   32.1477   45.4584 H   0  0  0  0  0  0  0  0  0  0  0  0
   58.0050   29.5650   44.8590 S   0  0  0  0  0  0  0  0  0  0  0  0
  1  2  1  0
  2  3  1  0
  3  4  2  0
  4  5  1  0
  4  6  1  0
  6  7  1  0
  6  8  2  0
  8  9  1  0
  8 10  1  0
 10 11  1  0
 10 12  2  0
 12 13  1  0
 13 14  2  0
 13 15  1  0
 15 16  2  0
 16 17  1  0
 17 18  1  0
 18 19  1  0
 18 20  2  0
 20 21  1  0
 21 22  1  0
 22 23  2  0
 23 24  1  0
 24 25  1  0
 24 26  2  0
 26 27  1  0
 26 28  1  0
 28 29  1  0
 28 30  2  0
 30 31  1  0
 20 32  1  0
 12  3  1  0
 32 16  1  0
 30 22  1  0
M  CHG  1  17  -1
M  END
>  <UniqueID>  (34) 
32

>  <SMILES>  (34) 
O=C(/N=c1/[n-]cc(Sc2ccccn2)s1)c1ccccc1O

>  <Energy>  (34) 
72.6235197078792

>  <Genealogy>  (34) 
O=C(N=c1[n-]cc(Sc2ccccn2)s1)c1ccccc1O (protonated)
O=C(/N=c1/[n-]cc(Sc2ccccn2)s1)c1ccccc1O (cis-trans isomerization)
O=C(/N=c1/[n-]cc(Sc2ccccn2)s1)c1ccccc1O (3D coordinates assigned)
O=C(/N=c1/[n-]cc(Sc2ccccn2)s1)c1ccccc1O (optimized conformer: 72.6235197078792 kcal/mol)

>  <smiles>  (34) 
O=C(N=c1[nH]cc(Sc2ccccn2)s1)c1ccccc1O

>  <score_type>  (34) 
oracle

>  <origin>  (34) 
adg

>  <m_score__min__energy>  (34) 
-11.01

>  <m_primary>  (34) 
energy

$$$$
34:0
     RDKit          3D

 39 41  0  0  0  0  0  0  0  0999 V2000
   56.1576   32.4546   43.7374 H   0  0  0  0  0  0  0  0  0  0  0  0
   57.0050   31.9040   44.1720 C   0  0  0  0  0  0  0  0  0  0  0  0
   57.1960   30.6340   43.7860 C   0  0  0  0  0  0  0  0  0  0  0  0
   57.1261   30.3907   42.7155 H   0  0  0  0  0  0  0  0  0  0  0  0
   57.4980   29.5440   44.7470 C   0  0  0  0  0  0  0  0  0  0  0  0
   56.4540   28.7510   45.2320 C   0  0  0  0  0  0  0  0  0  0  0  0
   55.1460   28.9630   44.8030 O   0  0  0  0  0  0  0  0  0  0  0  0
   56.7100   27.7570   46.1170 N   0  0  0  0  0  0  0  0  0  0  0  0
   55.9180   27.1670   46.4620 H   0  0  0  0  0  0  0  0  0  0  0  0
   57.9710   27.5080   46.5600 C   0  0  0  0  0  0  0  0  0  0  0  0
   58.1560   26.5640   47.3760 O   0  0  0  0  0  0  0  0  0  0  0  0
   59.0230   28.2750   46.1250 N   0  0  0  0  0  0  0  0  0  0  0  0
   60.3860   28.0360   46.6450 C   0  0  0  0  0  0  0  0  0  0  0  0
   60.4311   27.0327   47.0938 H   0  0  0  0  0  0  0  0  0  0  0  0
   61.1018   28.1129   45.8133 H   0  0  0  0  0  0  0  0  0  0  0  0
   60.7420   29.0630   47.6900 C   0  0  0  0  0  0  0  0  0  0  0  0
   61.2870   30.3010   47.3090 C   0  0  0  0  0  0  0  0  0  0  0  0
   61.4326   30.5309   46.2432 H   0  0  0  0  0  0  0  0  0  0  0  0
   61.6450   31.2420   48.2800 C   0  0  0  0  0  0  0  0  0  0  0  0
   62.0697   32.2102   47.9763 H   0  0  0  0  0  0  0  0  0  0  0  0
   61.4640   30.9540   49.6350 C   0  0  0  0  0  0  0  0  0  0  0  0
   61.7445   31.6962   50.3969 H   0  0  0  0  0  0  0  0  0  0  0  0
   60.9270   29.7240   50.0230 C   0  0  0  0  0  0  0  0  0  0  0  0
   60.7871   29.4975   51.0903 H   0  0  0  0  0  0  0  0  0  0  0  0
   60.5670   28.7800   49.0550 C   0  0  0  0  0  0  0  0  0  0  0  0
   60.1452   27.8122   49.3640 H   0  0  0  0  0  0  0  0  0  0  0  0
   58.7970   29.3000   45.2380 C   0  0  0  0  0  0  0  0  0  0  0  0
   59.7490   30.0450   44.8780 O   0  0  0  0  0  0  0  0  0  0  0  0
   57.8680   32.6110   45.1500 C   0  0  0  0  0  0  0  0  0  0  0  0
   58.7620   33.6350   44.7770 C   0  0  0  0  0  0  0  0  0  0  0  0
   58.8318   33.9429   43.7233 H   0  0  0  0  0  0  0  0  0  0  0  0
   59.5610   34.2620   45.7390 C   0  0  0  0  0  0  0  0  0  0  0  0
   60.2512   35.0647   45.4401 H   0  0  0  0  0  0  0  0  0  0  0  0
   59.4850   33.8720   47.0770 C   0  0  0  0  0  0  0  0  0  0  0  0
   60.1105   34.3713   47.8316 H   0  0  0  0  0  0  0  0  0  0  0  0
   58.6150   32.8480   47.4580 C   0  0  0  0  0  0  0  0  0  0  0  0
   58.5260   32.3530   49.1390 Cl  0  0  0  0  0  0  0  0  0  0  0  0
   57.8130   32.2170   46.4990 C   0  0  0  0  0  0  0  0  0  0  0  0
   57.1344   31.4065   46.8033 H   0  0  0  0  0  0  0  0  0  0  0  0
  1  2  1  0
  2  3  2  0
  3  4  1  0
  3  5  1  0
  5  6  2  0
  6  7  1  0
  6  8  1  0
  8  9  1  0
  8 10  1  0
 10 11  2  0
 10 12  1  0
 12 13  1  0
 13 14  1  0
 13 15  1  0
 13 16  1  0
 16 17  2  0
 17 18  1  0
 17 19  1  0
 19 20  1  0
 19 21  2  0
 21 22  1  0
 21 23  1  0
 23 24  1  0
 23 25  2  0
 25 26  1  0
 12 27  1  0
 27 28  2  0
  2 29  1  0
 29 30  2  0
 30 31  1  0
 30 32  1  0
 32 33  1  0
 32 34  2  0
 34 35  1  0
 34 36  1  0
 36 37  1  0
 36 38  2  0
 38 39  1  0
 27  5  1  0
 38 29  1  0
 25 16  1  0
M  CHG  1   7  -1
M  END
>  <UniqueID>  (35) 
33

>  <SMILES>  (35) 
O=c1[nH]c([O-])c(/C=C/c2cccc(Cl)c2)c(=O)n1Cc1ccccc1

>  <Energy>  (35) 
53.63197299881987

>  <Genealogy>  (35) 
O=c1[nH]c([O-])c(C=Cc2cccc(Cl)c2)c(=O)n1Cc1ccccc1 (protonated)
O=c1[nH]c([O-])c(/C=C/c2cccc(Cl)c2)c(=O)n1Cc1ccccc1 (cis-trans isomerization)
O=c1[nH]c([O-])c(/C=C/c2cccc(Cl)c2)c(=O)n1Cc1ccccc1 (3D coordinates assigned)
O=c1[nH]c([O-])c(/C=C/c2cccc(Cl)c2)c(=O)n1Cc1ccccc1 (optimized conformer: 53.63197299881987 kcal/mol)

>  <smiles>  (35) 
O=c1[nH]c(O)c(C=Cc2cccc(Cl)c2)c(=O)n1Cc1ccccc1

>  <score_type>  (35) 
oracle

>  <origin>  (35) 
adg

>  <m_score__min__energy>  (35) 
-11.390000000000001

>  <m_primary>  (35) 
energy

$$$$
35:0
     RDKit          3D

 53 55  0  0  0  0  0  0  0  0999 V2000
   60.7610   34.0620   47.9920 C   0  0  0  0  0  0  0  0  0  0  0  0
   62.0190   33.5890   46.7610 S   0  0  0  0  0  0  0  0  0  0  0  0
   62.8140   32.2820   47.7690 C   0  0  0  0  0  0  0  0  0  0  0  0
   63.3890   32.8470   49.0700 C   0  0  0  0  0  0  0  0  0  0  0  0
   63.2040   31.8950   50.2140 C   0  0  0  0  0  0  0  0  0  0  0  0
   64.0760   30.9110   50.5230 N   0  0  0  0  0  0  0  0  0  0  0  0
   63.4770   30.2640   51.5470 C   0  0  0  0  0  0  0  0  0  0  0  0
   63.9850   29.2560   52.1060 O   0  0  0  0  0  0  0  0  0  0  0  0
   62.2840   30.7900   51.8990 N   0  0  0  0  0  0  0  0  0  0  0  0
   61.3430   30.2880   52.9010 C   0  0  0  0  0  0  0  0  0  0  0  0
   60.0130   30.0270   52.2700 C   0  0  0  0  0  0  0  0  0  0  0  0
   59.0560   30.8220   52.4740 O   0  0  0  0  0  0  0  0  0  0  0  0
   59.8370   28.8750   51.4380 N   0  0  0  0  0  0  0  0  0  0  0  0
   60.6620   28.5920   50.2710 C   0  0  0  0  0  0  0  0  0  0  0  0
   60.1220   29.3190   49.0700 C   0  0  0  0  0  0  0  0  0  0  0  0
   59.3030   30.4480   49.2280 C   0  0  0  0  0  0  0  0  0  0  0  0
   58.7890   31.1080   48.1090 C   0  0  0  0  0  0  0  0  0  0  0  0
   59.0710   30.6410   46.8160 C   0  0  0  0  0  0  0  0  0  0  0  0
   58.5560   31.3730   45.6370 C   0  0  0  0  0  0  0  0  0  0  0  0
   59.0430   32.6710   45.4010 C   0  0  0  0  0  0  0  0  0  0  0  0
   58.6180   33.4020   44.2910 C   0  0  0  0  0  0  0  0  0  0  0  0
   57.7010   32.8470   43.4000 C   0  0  0  0  0  0  0  0  0  0  0  0
   57.1970   31.5640   43.6240 C   0  0  0  0  0  0  0  0  0  0  0  0
   57.6030   30.8180   44.7420 C   0  0  0  0  0  0  0  0  0  0  0  0
   56.8710   29.2220   44.9840 S   0  0  0  0  0  0  0  0  0  0  0  0
   55.1520   29.3420   44.8540 N   0  0  0  0  0  0  0  0  0  0  0  0
   57.2260   28.7050   46.3500 O   0  0  0  0  0  0  0  0  0  0  0  0
   57.3830   28.2460   43.9650 O   0  0  0  0  0  0  0  0  0  0  0  0
   59.8950   29.5160   46.6580 C   0  0  0  0  0  0  0  0  0  0  0  0
   60.4030   28.8500   47.7770 C   0  0  0  0  0  0  0  0  0  0  0  0
   62.1110   31.8180   51.0490 C   0  0  0  0  0  0  0  0  0  0  0  0
   60.9960   32.6520   51.0130 O   0  0  0  0  0  0  0  0  0  0  0  0
   61.1636   33.9106   49.0044 H   0  0  0  0  0  0  0  0  0  0  0  0
   60.4962   35.1211   47.8573 H   0  0  0  0  0  0  0  0  0  0  0  0
   59.8640   33.4397   47.8573 H   0  0  0  0  0  0  0  0  0  0  0  0
   62.0651   31.5142   48.0132 H   0  0  0  0  0  0  0  0  0  0  0  0
   63.6410   31.8517   47.1851 H   0  0  0  0  0  0  0  0  0  0  0  0
   64.4639   33.0359   48.9329 H   0  0  0  0  0  0  0  0  0  0  0  0
   62.8538   33.7783   49.3071 H   0  0  0  0  0  0  0  0  0  0  0  0
   61.7323   29.3528   53.3297 H   0  0  0  0  0  0  0  0  0  0  0  0
   61.2243   31.0415   53.6935 H   0  0  0  0  0  0  0  0  0  0  0  0
   61.6927   28.9239   50.4645 H   0  0  0  0  0  0  0  0  0  0  0  0
   60.6490   27.5099   50.0737 H   0  0  0  0  0  0  0  0  0  0  0  0
   59.0648   30.8147   50.2373 H   0  0  0  0  0  0  0  0  0  0  0  0
   58.1590   31.9998   48.2424 H   0  0  0  0  0  0  0  0  0  0  0  0
   59.7674   33.1152   46.0995 H   0  0  0  0  0  0  0  0  0  0  0  0
   59.0068   34.4165   44.1191 H   0  0  0  0  0  0  0  0  0  0  0  0
   57.3741   33.4200   42.5198 H   0  0  0  0  0  0  0  0  0  0  0  0
   56.4736   31.1329   42.9163 H   0  0  0  0  0  0  0  0  0  0  0  0
   54.7730   29.3560   45.8270 H   0  0  0  0  0  0  0  0  0  0  0  0
   60.1424   29.1565   45.6483 H   0  0  0  0  0  0  0  0  0  0  0  0
   61.0263   27.9535   47.6437 H   0  0  0  0  0  0  0  0  0  0  0  0
   60.1020   32.3600   51.3870 H   0  0  0  0  0  0  0  0  0  0  0  0
  1  2  1  0
  2  3  1  0
  3  4  1  0
  4  5  1  0
  5  6  1  0
  6  7  1  0
  7  8  2  0
  7  9  1  0
  9 10  1  0
 10 11  1  0
 11 12  2  0
 11 13  1  0
 13 14  1  0
 14 15  1  0
 15 16  2  0
 16 17  1  0
 17 18  2  0
 18 19  1  0
 19 20  2  0
 20 21  1  0
 21 22  2  0
 22 23  1  0
 23 24  2  0
 24 25  1  0
 25 26  1  0
 25 27  2  0
 25 28  2  0
 18 29  1  0
 29 30  2  0
  9 31  1  0
 31 32  1  0
 31  5  2  0
 30 15  1  0
 24 19  1  0
  1 33  1  0
  1 34  1  0
  1 35  1  0
  3 36  1  0
  3 37  1  0
  4 38  1  0
  4 39  1  0
 10 40  1  0
 10 41  1  0
 14 42  1  0
 14 43  1  0
 16 44  1  0
 17 45  1  0
 20 46  1  0
 21 47  1  0
 22 48  1  0
 23 49  1  0
 26 50  1  0
 29 51  1  0
 30 52  1  0
 32 53  1  0
M  CHG  3   6  -1  13  -1  26  -1
M  END
>  <UniqueID>  (36) 
34

>  <SMILES>  (36) 
CSCCc1[n-]c(=O)n(CC(=O)[N-]Cc2ccc(-c3ccccc3S([NH-])(=O)=O)cc2)c1O

>  <Energy>  (36) 
80.5238456292861

>  <Genealogy>  (36) 
CSCCc1[n-]c(=O)n(CC(=O)[N-]Cc2ccc(-c3ccccc3S([NH-])(=O)=O)cc2)c1O (protonated)
CSCCc1[n-]c(=O)n(CC(=O)[N-]Cc2ccc(-c3ccccc3S([NH-])(=O)=O)cc2)c1O (3D coordinates assigned)
CSCCc1[n-]c(=O)n(CC(=O)[N-]Cc2ccc(-c3ccccc3S([NH-])(=O)=O)cc2)c1O (optimized conformer: 80.5238456292861 kcal/mol)

>  <smiles>  (36) 
CSCCc1[nH]c(=O)n(CC(=O)NCc2ccc(-c3ccccc3S(N)(=O)=O)cc2)c1O

>  <score_type>  (36) 
oracle

>  <origin>  (36) 
adg

>  <m_score__min__energy>  (36) 
-12.890000000000001

>  <m_primary>  (36) 
energy

$$$$
36:0
     RDKit          3D

 55 58  0  0  0  0  0  0  0  0999 V2000
   61.5860   34.1300   47.6470 O   0  0  0  0  0  0  0  0  0  0  0  0
   60.6680   33.2720   47.7410 C   0  0  0  0  0  0  0  0  0  0  0  0
   60.7360   32.3170   48.8090 N   0  0  0  0  0  0  0  0  0  0  0  0
   59.7510   32.1550   49.8330 C   0  0  0  0  0  0  0  0  0  0  0  0
   59.1050   30.9220   49.9760 C   0  0  0  0  0  0  0  0  0  0  0  0
   58.1350   30.7450   50.9670 C   0  0  0  0  0  0  0  0  0  0  0  0
   57.8090   31.8030   51.8350 C   0  0  0  0  0  0  0  0  0  0  0  0
   56.8430   31.6610   52.8430 O   0  0  0  0  0  0  0  0  0  0  0  0
   55.7620   30.7670   52.8050 C   0  0  0  0  0  0  0  0  0  0  0  0
   54.6490   31.0900   52.0200 C   0  0  0  0  0  0  0  0  0  0  0  0
   53.5580   30.2170   51.9470 C   0  0  0  0  0  0  0  0  0  0  0  0
   53.5810   29.0080   52.6470 C   0  0  0  0  0  0  0  0  0  0  0  0
   54.6970   28.6670   53.4160 C   0  0  0  0  0  0  0  0  0  0  0  0
   55.7870   29.5390   53.4910 C   0  0  0  0  0  0  0  0  0  0  0  0
   58.4990   33.0170   51.7270 C   0  0  0  0  0  0  0  0  0  0  0  0
   59.4650   33.1930   50.7330 C   0  0  0  0  0  0  0  0  0  0  0  0
   59.5910   33.1880   46.6750 C   0  0  0  0  0  0  0  0  0  0  0  0
   58.1720   33.2250   47.2670 C   0  0  0  0  0  0  0  0  0  0  0  0
   57.1060   33.0680   46.1620 C   0  0  0  0  0  0  0  0  0  0  0  0
   57.4510   33.7490   44.8840 N   0  0  0  0  0  0  0  0  0  0  0  0
   57.8190   32.8050   43.8040 C   0  0  0  0  0  0  0  0  0  0  0  0
   57.5660   31.3890   44.2520 C   0  0  0  0  0  0  0  0  0  0  0  0
   58.6260   30.6130   44.7490 C   0  0  0  0  0  0  0  0  0  0  0  0
   58.4010   29.2960   45.1580 C   0  0  0  0  0  0  0  0  0  0  0  0
   57.1180   28.7400   45.0740 C   0  0  0  0  0  0  0  0  0  0  0  0
   56.8880   27.4260   45.4830 O   0  0  0  0  0  0  0  0  0  0  0  0
   56.0590   29.5090   44.5750 C   0  0  0  0  0  0  0  0  0  0  0  0
   54.7820   28.9660   44.4870 O   0  0  0  0  0  0  0  0  0  0  0  0
   56.2820   30.8280   44.1640 C   0  0  0  0  0  0  0  0  0  0  0  0
   58.4470   34.8260   45.0490 C   0  0  0  0  0  0  0  0  0  0  0  0
   59.7800   34.3090   45.6240 C   0  0  0  0  0  0  0  0  0  0  0  0
   59.3615   30.0884   49.3057 H   0  0  0  0  0  0  0  0  0  0  0  0
   57.6251   29.7756   51.0684 H   0  0  0  0  0  0  0  0  0  0  0  0
   54.6320   32.0352   51.4575 H   0  0  0  0  0  0  0  0  0  0  0  0
   52.6814   30.4827   51.3380 H   0  0  0  0  0  0  0  0  0  0  0  0
   52.7207   28.3246   52.5928 H   0  0  0  0  0  0  0  0  0  0  0  0
   54.7177   27.7124   53.9623 H   0  0  0  0  0  0  0  0  0  0  0  0
   56.6682   29.2638   54.0891 H   0  0  0  0  0  0  0  0  0  0  0  0
   58.2794   33.8357   52.4280 H   0  0  0  0  0  0  0  0  0  0  0  0
   60.0035   34.1491   50.6556 H   0  0  0  0  0  0  0  0  0  0  0  0
   59.7014   32.2124   46.1790 H   0  0  0  0  0  0  0  0  0  0  0  0
   58.0630   32.4040   47.9909 H   0  0  0  0  0  0  0  0  0  0  0  0
   58.0240   34.1969   47.7604 H   0  0  0  0  0  0  0  0  0  0  0  0
   56.9757   31.9950   45.9576 H   0  0  0  0  0  0  0  0  0  0  0  0
   56.1877   33.5434   46.5371 H   0  0  0  0  0  0  0  0  0  0  0  0
   57.2134   33.0186   42.9109 H   0  0  0  0  0  0  0  0  0  0  0  0
   58.8865   32.9244   43.5669 H   0  0  0  0  0  0  0  0  0  0  0  0
   59.6361   31.0433   44.8164 H   0  0  0  0  0  0  0  0  0  0  0  0
   59.2347   28.6934   45.5475 H   0  0  0  0  0  0  0  0  0  0  0  0
   56.2470   26.8210   44.9850 H   0  0  0  0  0  0  0  0  0  0  0  0
   55.4480   31.4276   43.7704 H   0  0  0  0  0  0  0  0  0  0  0  0
   58.6392   35.2831   44.0671 H   0  0  0  0  0  0  0  0  0  0  0  0
   58.0358   35.5576   45.7601 H   0  0  0  0  0  0  0  0  0  0  0  0
   60.3892   33.9152   44.7971 H   0  0  0  0  0  0  0  0  0  0  0  0
   60.2705   35.1542   46.1289 H   0  0  0  0  0  0  0  0  0  0  0  0
  1  2  2  0
  2  3  1  0
  3  4  1  0
  4  5  2  0
  5  6  1  0
  6  7  2  0
  7  8  1  0
  8  9  1  0
  9 10  2  0
 10 11  1  0
 11 12  2  0
 12 13  1  0
 13 14  2  0
  7 15  1  0
 15 16  2  0
  2 17  1  0
 17 18  1  0
 18 19  1  0
 19 20  1  0
 20 21  1  0
 21 22  1  0
 22 23  2  0
 23 24  1  0
 24 25  2  0
 25 26  1  0
 25 27  1  0
 27 28  1  0
 27 29  2  0
 20 30  1  0
 30 31  1  0
 16  4  1  0
 31 17  1  0
 14  9  1  0
 29 22  1  0
  5 32  1  0
  6 33  1  0
 10 34  1  0
 11 35  1  0
 12 36  1  0
 13 37  1  0
 14 38  1  0
 15 39  1  0
 16 40  1  0
 17 41  1  0
 18 42  1  0
 18 43  1  0
 19 44  1  0
 19 45  1  0
 21 46  1  0
 21 47  1  0
 23 48  1  0
 24 49  1  0
 26 50  1  0
 29 51  1  0
 30 52  1  0
 30 53  1  0
 31 54  1  0
 31 55  1  0
M  CHG  2   3  -1  28  -1
M  END
>  <UniqueID>  (37) 
35

>  <SMILES>  (37) 
O=C([N-]c1ccc(Oc2ccccc2)cc1)C1CCN(Cc2ccc(O)c([O-])c2)CC1

>  <Energy>  (37) 
79.61194698073125

>  <Genealogy>  (37) 
O=C([N-]c1ccc(Oc2ccccc2)cc1)C1CCN(Cc2ccc(O)c([O-])c2)CC1 (protonated)
O=C([N-]c1ccc(Oc2ccccc2)cc1)C1CCN(Cc2ccc(O)c([O-])c2)CC1 (3D coordinates assigned)
O=C([N-]c1ccc(Oc2ccccc2)cc1)C1CCN(Cc2ccc(O)c([O-])c2)CC1 (nonaromatic ring conformer: 79.61194698073125 kcal/mol)

>  <smiles>  (37) 
O=C(Nc1ccc(Oc2ccccc2)cc1)C1CCN(Cc2ccc(O)c(O)c2)CC1

>  <score_type>  (37) 
oracle

>  <origin>  (37) 
adg

>  <m_score__min__energy>  (37) 
-14.83

>  <m_primary>  (37) 
energy

$$$$
37:0
     RDKit          3D

 35 36  0  0  0  0  0  0  0  0999 V2000
   55.1470   28.9810   44.5160 O   0  0  0  0  0  0  0  0  0  0  0  0
   56.2050   29.5670   44.8660 C   0  0  0  0  0  0  0  0  0  0  0  0
   57.3130   28.7620   45.4860 C   0  0  0  0  0  0  0  0  0  0  0  0
   58.2770   29.6330   46.1600 N   0  0  0  0  0  0  0  0  0  0  0  0
   59.3080   29.1320   47.0260 C   0  0  0  0  0  0  0  0  0  0  0  0
   59.3330   27.9090   47.3330 O   0  0  0  0  0  0  0  0  0  0  0  0
   60.3490   30.0300   47.5510 C   0  0  0  0  0  0  0  0  0  0  0  0
   61.1270   30.9020   46.7950 C   0  0  0  0  0  0  0  0  0  0  0  0
   62.0270   31.6500   47.5620 C   0  0  0  0  0  0  0  0  0  0  0  0
   61.9680   31.3730   48.9210 C   0  0  0  0  0  0  0  0  0  0  0  0
   60.7930   30.1970   49.1670 S   0  0  0  0  0  0  0  0  0  0  0  0
   56.3310   30.9700   44.6130 N   0  0  0  0  0  0  0  0  0  0  0  0
   57.4940   31.6270   44.0230 C   0  0  0  0  0  0  0  0  0  0  0  0
   57.4130   33.1360   44.2600 C   0  0  0  0  0  0  0  0  0  0  0  0
   58.2290   33.5330   45.4660 C   0  0  0  0  0  0  0  0  0  0  0  0
   57.9670   32.9590   46.7220 C   0  0  0  0  0  0  0  0  0  0  0  0
   58.6850   33.3720   47.8490 C   0  0  0  0  0  0  0  0  0  0  0  0
   59.6670   34.3580   47.7300 C   0  0  0  0  0  0  0  0  0  0  0  0
   59.9320   34.9350   46.4850 C   0  0  0  0  0  0  0  0  0  0  0  0
   59.2090   34.5340   45.3580 C   0  0  0  0  0  0  0  0  0  0  0  0
   56.8839   28.0639   46.2198 H   0  0  0  0  0  0  0  0  0  0  0  0
   57.8344   28.2101   44.6900 H   0  0  0  0  0  0  0  0  0  0  0  0
   58.2030   30.6610   45.9920 H   0  0  0  0  0  0  0  0  0  0  0  0
   61.0426   30.9941   45.7021 H   0  0  0  0  0  0  0  0  0  0  0  0
   62.7171   32.3888   47.1285 H   0  0  0  0  0  0  0  0  0  0  0  0
   62.5841   31.8423   49.7021 H   0  0  0  0  0  0  0  0  0  0  0  0
   58.4103   31.2332   44.4871 H   0  0  0  0  0  0  0  0  0  0  0  0
   57.5121   31.4300   42.9409 H   0  0  0  0  0  0  0  0  0  0  0  0
   57.7992   33.6615   43.3742 H   0  0  0  0  0  0  0  0  0  0  0  0
   56.3626   33.4092   44.4392 H   0  0  0  0  0  0  0  0  0  0  0  0
   57.1944   32.1821   46.8189 H   0  0  0  0  0  0  0  0  0  0  0  0
   58.4761   32.9199   48.8298 H   0  0  0  0  0  0  0  0  0  0  0  0
   60.2322   34.6806   48.6168 H   0  0  0  0  0  0  0  0  0  0  0  0
   60.7109   35.7061   46.3919 H   0  0  0  0  0  0  0  0  0  0  0  0
   59.4079   35.0036   44.3834 H   0  0  0  0  0  0  0  0  0  0  0  0
  1  2  2  0
  2  3  1  0
  3  4  1  0
  4  5  1  0
  5  6  2  0
  5  7  1  0
  7  8  2  0
  8  9  1  0
  9 10  2  0
 10 11  1  0
  2 12  1  0
 12 13  1  0
 13 14  1  0
 14 15  1  0
 15 16  2  0
 16 17  1  0
 17 18  2  0
 18 19  1  0
 19 20  2  0
 11  7  1  0
 20 15  1  0
  3 21  1  0
  3 22  1  0
  4 23  1  0
  8 24  1  0
  9 25  1  0
 10 26  1  0
 13 27  1  0
 13 28  1  0
 14 29  1  0
 14 30  1  0
 16 31  1  0
 17 32  1  0
 18 33  1  0
 19 34  1  0
 20 35  1  0
M  CHG  1  12  -1
M  END
>  <UniqueID>  (38) 
36

>  <SMILES>  (38) 
O=C(CNC(=O)c1cccs1)[N-]CCc1ccccc1

>  <Energy>  (38) 
50.940262944119986

>  <Genealogy>  (38) 
O=C(CNC(=O)c1cccs1)[N-]CCc1ccccc1 (protonated)
O=C(CNC(=O)c1cccs1)[N-]CCc1ccccc1 (3D coordinates assigned)
O=C(CNC(=O)c1cccs1)[N-]CCc1ccccc1 (optimized conformer: 50.940262944119986 kcal/mol)

>  <smiles>  (38) 
O=C(CNC(=O)c1cccs1)NCCc1ccccc1

>  <score_type>  (38) 
oracle

>  <origin>  (38) 
adg

>  <m_score__min__energy>  (38) 
-8.8300000000000001

>  <m_primary>  (38) 
energy

$$$$
38:0
     RDKit          3D

 59 62  0  0  0  0  0  0  0  0999 V2000
   53.6920   25.7520   45.6320 N   0  0  0  0  0  0  0  0  0  0  0  0
   54.1220   24.1180   45.2510 S   0  0  0  0  0  0  0  0  0  0  0  0
   54.8170   24.0970   43.9170 O   0  0  0  0  0  0  0  0  0  0  0  0
   52.8840   23.2710   45.1700 O   0  0  0  0  0  0  0  0  0  0  0  0
   55.1900   23.4990   46.5140 C   0  0  0  0  0  0  0  0  0  0  0  0
   55.3150   22.1140   46.7010 C   0  0  0  0  0  0  0  0  0  0  0  0
   56.2150   21.6060   47.6480 C   0  0  0  0  0  0  0  0  0  0  0  0
   56.9830   22.4710   48.4160 C   0  0  0  0  0  0  0  0  0  0  0  0
   56.8740   23.8490   48.2260 C   0  0  0  0  0  0  0  0  0  0  0  0
   55.9880   24.3760   47.2720 C   0  0  0  0  0  0  0  0  0  0  0  0
   55.8930   25.7890   47.0590 N   0  0  0  0  0  0  0  0  0  0  0  0
   56.9220   26.6490   45.9620 S   0  0  0  0  0  0  0  0  0  0  0  0
   57.3650   25.7130   44.8750 O   0  0  0  0  0  0  0  0  0  0  0  0
   56.1220   27.7600   45.3520 O   0  0  0  0  0  0  0  0  0  0  0  0
   58.3420   27.3200   46.7800 C   0  0  0  0  0  0  0  0  0  0  0  0
   58.9210   26.6040   47.8420 C   0  0  0  0  0  0  0  0  0  0  0  0
   60.0200   27.1200   48.5350 C   0  0  0  0  0  0  0  0  0  0  0  0
   60.5540   28.3580   48.1760 C   0  0  0  0  0  0  0  0  0  0  0  0
   59.9950   29.0810   47.1130 C   0  0  0  0  0  0  0  0  0  0  0  0
   58.8870   28.5780   46.4090 C   0  0  0  0  0  0  0  0  0  0  0  0
   58.3240   29.3960   45.3110 C   0  0  0  0  0  0  0  0  0  0  0  0
   58.4950   29.0360   44.1200 O   0  0  0  0  0  0  0  0  0  0  0  0
   57.6380   30.6370   45.5660 N   0  0  0  0  0  0  0  0  0  0  0  0
   58.2350   31.9280   45.7410 C   0  0  0  0  0  0  0  0  0  0  0  0
   57.5860   33.1070   45.3320 C   0  0  0  0  0  0  0  0  0  0  0  0
   58.1980   34.3500   45.5190 C   0  0  0  0  0  0  0  0  0  0  0  0
   59.4690   34.4290   46.0870 C   0  0  0  0  0  0  0  0  0  0  0  0
   60.1440   33.2570   46.4560 C   0  0  0  0  0  0  0  0  0  0  0  0
   61.7480   33.3690   47.1860 S   0  0  0  0  0  0  0  0  0  0  0  0
   62.3660   32.0000   47.2740 O   0  0  0  0  0  0  0  0  0  0  0  0
   62.6140   34.2350   46.3080 O   0  0  0  0  0  0  0  0  0  0  0  0
   61.6190   34.0770   48.7790 N   0  0  0  0  0  0  0  0  0  0  0  0
   60.3860   33.6070   49.4350 C   0  0  0  0  0  0  0  0  0  0  0  0
   60.4890   33.7700   50.9530 C   0  0  0  0  0  0  0  0  0  0  0  0
   61.5500   33.0250   51.5370 O   0  0  0  0  0  0  0  0  0  0  0  0
   62.6120   32.7370   50.6460 C   0  0  0  0  0  0  0  0  0  0  0  0
   62.8330   33.8260   49.5830 C   0  0  0  0  0  0  0  0  0  0  0  0
   59.5210   32.0100   46.2800 C   0  0  0  0  0  0  0  0  0  0  0  0
   54.5290   26.3400   45.4250 H   0  0  0  0  0  0  0  0  0  0  0  0
   54.7037   21.4234   46.1015 H   0  0  0  0  0  0  0  0  0  0  0  0
   56.3131   20.5188   47.7831 H   0  0  0  0  0  0  0  0  0  0  0  0
   57.6751   22.0712   49.1718 H   0  0  0  0  0  0  0  0  0  0  0  0
   57.4896   24.5311   48.8308 H   0  0  0  0  0  0  0  0  0  0  0  0
   58.5050   25.6275   48.1308 H   0  0  0  0  0  0  0  0  0  0  0  0
   60.4641   26.5495   49.3640 H   0  0  0  0  0  0  0  0  0  0  0  0
   61.4137   28.7668   48.7271 H   0  0  0  0  0  0  0  0  0  0  0  0
   60.4275   30.0512   46.8270 H   0  0  0  0  0  0  0  0  0  0  0  0
   56.5926   33.0508   44.8630 H   0  0  0  0  0  0  0  0  0  0  0  0
   57.6748   35.2692   45.2169 H   0  0  0  0  0  0  0  0  0  0  0  0
   59.9414   35.4097   46.2454 H   0  0  0  0  0  0  0  0  0  0  0  0
   59.5329   34.1948   49.0652 H   0  0  0  0  0  0  0  0  0  0  0  0
   60.2434   32.5416   49.2012 H   0  0  0  0  0  0  0  0  0  0  0  0
   60.6475   34.8350   51.1780 H   0  0  0  0  0  0  0  0  0  0  0  0
   59.5519   33.3855   51.3820 H   0  0  0  0  0  0  0  0  0  0  0  0
   63.5373   32.6283   51.2307 H   0  0  0  0  0  0  0  0  0  0  0  0
   62.3450   31.8130   50.1121 H   0  0  0  0  0  0  0  0  0  0  0  0
   63.1229   34.7595   50.0874 H   0  0  0  0  0  0  0  0  0  0  0  0
   63.6227   33.4768   48.9015 H   0  0  0  0  0  0  0  0  0  0  0  0
   60.0506   31.0903   46.5692 H   0  0  0  0  0  0  0  0  0  0  0  0
  1  2  1  0
  2  3  2  0
  2  4  2  0
  2  5  1  0
  5  6  2  0
  6  7  1  0
  7  8  2  0
  8  9  1  0
  9 10  2  0
 10 11  1  0
 11 12  1  0
 12 13  2  0
 12 14  2  0
 12 15  1  0
 15 16  2  0
 16 17  1  0
 17 18  2  0
 18 19  1  0
 19 20  2  0
 20 21  1  0
 21 22  2  0
 21 23  1  0
 23 24  1  0
 24 25  2  0
 25 26  1  0
 26 27  2  0
 27 28  1  0
 28 29  1  0
 29 30  2  0
 29 31  2  0
 29 32  1  0
 32 33  1  0
 33 34  1  0
 34 35  1  0
 35 36  1  0
 36 37  1  0
 28 38  2  0
 10  5  1  0
 20 15  1  0
 38 24  1  0
 37 32  1  0
  1 39  1  0
  6 40  1  0
  7 41  1  0
  8 42  1  0
  9 43  1  0
 16 44  1  0
 17 45  1  0
 18 46  1  0
 19 47  1  0
 25 48  1  0
 26 49  1  0
 27 50  1  0
 33 51  1  0
 33 52  1  0
 34 53  1  0
 34 54  1  0
 36 55  1  0
 36 56  1  0
 37 57  1  0
 37 58  1  0
 38 59  1  0
M  CHG  3   1  -1  11  -1  23  -1
M  END
>  <UniqueID>  (39) 
37

>  <SMILES>  (39) 
[NH-]S(=O)(=O)c1ccccc1[N-]S(=O)(=O)c1ccccc1C(=O)[N-]c1cccc(S(=O)(=O)N2CCOCC2)c1

>  <Energy>  (39) 
92.2736447121067

>  <Genealogy>  (39) 
[NH-]S(=O)(=O)c1ccccc1[N-]S(=O)(=O)c1ccccc1C(=O)[N-]c1cccc(S(=O)(=O)N2CCOCC2)c1 (protonated)
[NH-]S(=O)(=O)c1ccccc1[N-]S(=O)(=O)c1ccccc1C(=O)[N-]c1cccc(S(=O)(=O)N2CCOCC2)c1 (3D coordinates assigned)
[NH-]S(=O)(=O)c1ccccc1[N-]S(=O)(=O)c1ccccc1C(=O)[N-]c1cccc(S(=O)(=O)N2CCOCC2)c1 (nonaromatic ring conformer: 92.2736447121067 kcal/mol)

>  <smiles>  (39) 
NS(=O)(=O)c1ccccc1NS(=O)(=O)c1ccccc1C(=O)Nc1cccc(S(=O)(=O)N2CCOCC2)c1

>  <score_type>  (39) 
oracle

>  <origin>  (39) 
adg

>  <m_score__min__energy>  (39) 
-15.699999999999999

>  <m_primary>  (39) 
energy

$$$$
39:0
     RDKit          3D

 50 53  0  0  0  0  0  0  0  0999 V2000
   57.0060   30.1200   45.3620 O   0  0  0  0  0  0  0  0  0  0  0  0
   57.7730   31.1200   45.4160 C   0  0  0  0  0  0  0  0  0  0  0  0
   57.3980   32.4060   44.7160 C   0  0  0  0  0  0  0  0  0  0  0  0
   57.6430   33.6300   45.5100 N   0  0  0  0  0  0  0  0  0  0  0  0
   57.7000   33.4260   46.9810 C   0  0  0  0  0  0  0  0  0  0  0  0
   58.8700   34.1600   47.6430 C   0  0  0  0  0  0  0  0  0  0  0  0
   60.0800   33.9650   46.8410 N   0  0  0  0  0  0  0  0  0  0  0  0
   61.2840   33.4000   47.3940 C   0  0  0  0  0  0  0  0  0  0  0  0
   61.9740   34.0390   48.4390 C   0  0  0  0  0  0  0  0  0  0  0  0
   63.1070   33.4330   48.9840 C   0  0  0  0  0  0  0  0  0  0  0  0
   63.5400   32.1980   48.4970 C   0  0  0  0  0  0  0  0  0  0  0  0
   62.8240   31.5840   47.4680 C   0  0  0  0  0  0  0  0  0  0  0  0
   61.7230   32.1880   46.9500 N   0  0  0  0  0  0  0  0  0  0  0  0
   60.0520   34.3210   45.4200 C   0  0  0  0  0  0  0  0  0  0  0  0
   58.6200   34.5760   44.9270 C   0  0  0  0  0  0  0  0  0  0  0  0
   59.0680   30.9930   46.0190 N   0  0  0  0  0  0  0  0  0  0  0  0
   59.5970   29.7100   46.3820 C   0  0  0  0  0  0  0  0  0  0  0  0
   59.8070   28.7580   45.3740 C   0  0  0  0  0  0  0  0  0  0  0  0
   60.2270   27.4660   45.6970 C   0  0  0  0  0  0  0  0  0  0  0  0
   60.4440   27.1160   47.0300 C   0  0  0  0  0  0  0  0  0  0  0  0
   60.2620   28.0620   48.0410 C   0  0  0  0  0  0  0  0  0  0  0  0
   59.8540   29.3700   47.7310 C   0  0  0  0  0  0  0  0  0  0  0  0
   59.7740   30.3540   48.7780 N   0  0  0  0  0  0  0  0  0  0  0  0
   60.6840   30.5560   49.7530 C   0  0  0  0  0  0  0  0  0  0  0  0
   60.2070   31.4910   50.6500 C   0  0  0  0  0  0  0  0  0  0  0  0
   58.9560   31.8680   50.2010 C   0  0  0  0  0  0  0  0  0  0  0  0
   58.7150   31.1450   49.0500 C   0  0  0  0  0  0  0  0  0  0  0  0
   57.9840   32.4755   43.7877 H   0  0  0  0  0  0  0  0  0  0  0  0
   56.3136   32.3605   44.5374 H   0  0  0  0  0  0  0  0  0  0  0  0
   56.7615   33.7929   47.4222 H   0  0  0  0  0  0  0  0  0  0  0  0
   57.8445   32.3500   47.1582 H   0  0  0  0  0  0  0  0  0  0  0  0
   58.6409   35.2340   47.7072 H   0  0  0  0  0  0  0  0  0  0  0  0
   59.0304   33.7602   48.6551 H   0  0  0  0  0  0  0  0  0  0  0  0
   61.6239   35.0082   48.8238 H   0  0  0  0  0  0  0  0  0  0  0  0
   63.6586   33.9280   49.7968 H   0  0  0  0  0  0  0  0  0  0  0  0
   64.4338   31.7152   48.9188 H   0  0  0  0  0  0  0  0  0  0  0  0
   63.1517   30.6098   47.0761 H   0  0  0  0  0  0  0  0  0  0  0  0
   60.6488   35.2326   45.2689 H   0  0  0  0  0  0  0  0  0  0  0  0
   60.4673   33.4789   44.8470 H   0  0  0  0  0  0  0  0  0  0  0  0
   58.3285   35.5997   45.2044 H   0  0  0  0  0  0  0  0  0  0  0  0
   58.6120   34.4347   43.8361 H   0  0  0  0  0  0  0  0  0  0  0  0
   59.7420   31.7840   45.9220 H   0  0  0  0  0  0  0  0  0  0  0  0
   59.6397   29.0309   44.3216 H   0  0  0  0  0  0  0  0  0  0  0  0
   60.3867   26.7243   44.9005 H   0  0  0  0  0  0  0  0  0  0  0  0
   60.7589   26.0934   47.2850 H   0  0  0  0  0  0  0  0  0  0  0  0
   60.4397   27.7804   49.0894 H   0  0  0  0  0  0  0  0  0  0  0  0
   61.6591   30.0518   49.8229 H   0  0  0  0  0  0  0  0  0  0  0  0
   60.7227   31.8633   51.5475 H   0  0  0  0  0  0  0  0  0  0  0  0
   58.2831   32.6014   50.6694 H   0  0  0  0  0  0  0  0  0  0  0  0
   57.7979   31.2047   48.4456 H   0  0  0  0  0  0  0  0  0  0  0  0
  1  2  2  0
  2  3  1  0
  3  4  1  0
  4  5  1  0
  5  6  1  0
  6  7  1  0
  7  8  1  0
  8  9  2  0
  9 10  1  0
 10 11  2  0
 11 12  1  0
 12 13  2  0
  7 14  1  0
 14 15  1  0
  2 16  1  0
 16 17  1  0
 17 18  2  0
 18 19  1  0
 19 20  2  0
 20 21  1  0
 21 22  2  0
 22 23  1  0
 23 24  1  0
 24 25  2  0
 25 26  1  0
 26 27  2  0
 15  4  1  0
 22 17  1  0
 27 23  1  0
 13  8  1  0
  3 28  1  0
  3 29  1  0
  5 30  1  0
  5 31  1  0
  6 32  1  0
  6 33  1  0
  9 34  1  0
 10 35  1  0
 11 36  1  0
 12 37  1  0
 14 38  1  0
 14 39  1  0
 15 40  1  0
 15 41  1  0
 16 42  1  0
 18 43  1  0
 19 44  1  0
 20 45  1  0
 21 46  1  0
 24 47  1  0
 25 48  1  0
 26 49  1  0
 27 50  1  0
M  END
>  <UniqueID>  (40) 
38

>  <SMILES>  (40) 
O=C(CN1CCN(c2ccccn2)CC1)Nc1ccccc1-n1cccc1

>  <Energy>  (40) 
101.47678474615398

>  <Genealogy>  (40) 
O=C(CN1CCN(c2ccccn2)CC1)Nc1ccccc1-n1cccc1 (3D coordinates assigned)
O=C(CN1CCN(c2ccccn2)CC1)Nc1ccccc1-n1cccc1 (nonaromatic ring conformer: 101.47678474615398 kcal/mol)

>  <smiles>  (40) 
O=C(CN1CCN(c2ccccn2)CC1)Nc1ccccc1-n1cccc1

>  <score_type>  (40) 
oracle

>  <origin>  (40) 
adg

>  <m_score__min__energy>  (40) 
-8.4900000000000002

>  <m_primary>  (40) 
energy

$$$$
40:0
     RDKit          3D

 36 38  0  0  0  0  0  0  0  0999 V2000
   58.2760   34.8490   47.0080 O   0  0  0  0  0  0  0  0  0  0  0  0
   58.7060   33.6740   46.8500 C   0  0  0  0  0  0  0  0  0  0  0  0
   59.5630   33.0830   47.8360 N   0  0  0  0  0  0  0  0  0  0  0  0
   60.9980   33.0640   47.8390 C   0  0  0  0  0  0  0  0  0  0  0  0
   61.7360   32.3450   48.7990 C   0  0  0  0  0  0  0  0  0  0  0  0
   63.1330   32.3210   48.7370 C   0  0  0  0  0  0  0  0  0  0  0  0
   63.8020   32.9930   47.7120 C   0  0  0  0  0  0  0  0  0  0  0  0
   63.0740   33.6870   46.7400 C   0  0  0  0  0  0  0  0  0  0  0  0
   63.7200   34.3190   45.7300 F   0  0  0  0  0  0  0  0  0  0  0  0
   61.6770   33.7110   46.7980 C   0  0  0  0  0  0  0  0  0  0  0  0
   58.3610   32.9210   45.6210 C   0  0  0  0  0  0  0  0  0  0  0  0
   58.5270   33.5090   44.3530 C   0  0  0  0  0  0  0  0  0  0  0  0
   58.1880   32.8020   43.1970 C   0  0  0  0  0  0  0  0  0  0  0  0
   57.6830   31.5040   43.2890 C   0  0  0  0  0  0  0  0  0  0  0  0
   57.5230   30.9000   44.5420 C   0  0  0  0  0  0  0  0  0  0  0  0
   56.8920   29.2590   44.6550 S   0  0  0  0  0  0  0  0  0  0  0  0
   55.4360   29.2810   45.0280 O   0  0  0  0  0  0  0  0  0  0  0  0
   57.0490   28.5790   43.3250 O   0  0  0  0  0  0  0  0  0  0  0  0
   57.7660   28.3680   45.8550 N   0  0  0  0  0  0  0  0  0  0  0  0
   57.6550   26.9520   46.0070 C   0  0  0  0  0  0  0  0  0  0  0  0
   58.9300   25.8570   46.1220 S   0  0  0  0  0  0  0  0  0  0  0  0
   57.8790   24.5480   46.2550 C   0  0  0  0  0  0  0  0  0  0  0  0
   58.2510   23.3520   46.3740 O   0  0  0  0  0  0  0  0  0  0  0  0
   56.5790   24.9120   46.2130 N   0  0  0  0  0  0  0  0  0  0  0  0
   56.4550   26.2580   46.0720 C   0  0  0  0  0  0  0  0  0  0  0  0
   55.2150   26.8840   45.9930 O   0  0  0  0  0  0  0  0  0  0  0  0
   57.8550   31.6100   45.7030 C   0  0  0  0  0  0  0  0  0  0  0  0
   61.2127   31.8012   49.5992 H   0  0  0  0  0  0  0  0  0  0  0  0
   63.7064   31.7712   49.4979 H   0  0  0  0  0  0  0  0  0  0  0  0
   64.9010   32.9766   47.6690 H   0  0  0  0  0  0  0  0  0  0  0  0
   61.1072   34.2415   46.0209 H   0  0  0  0  0  0  0  0  0  0  0  0
   58.9259   34.5309   44.2719 H   0  0  0  0  0  0  0  0  0  0  0  0
   58.3195   33.2700   42.2102 H   0  0  0  0  0  0  0  0  0  0  0  0
   57.4103   30.9548   42.3758 H   0  0  0  0  0  0  0  0  0  0  0  0
   55.1470   27.8930   45.9420 H   0  0  0  0  0  0  0  0  0  0  0  0
   57.7191   31.1388   46.6876 H   0  0  0  0  0  0  0  0  0  0  0  0
  1  2  2  0
  2  3  1  0
  3  4  1  0
  4  5  2  0
  5  6  1  0
  6  7  2  0
  7  8  1  0
  8  9  1  0
  8 10  2  0
  2 11  1  0
 11 12  2  0
 12 13  1  0
 13 14  2  0
 14 15  1  0
 15 16  1  0
 16 17  2  0
 16 18  2  0
 16 19  1  0
 19 20  1  0
 20 21  1  0
 21 22  1  0
 22 23  2  0
 22 24  1  0
 24 25  1  0
 25 26  1  0
 15 27  2  0
 10  4  1  0
 27 11  1  0
 25 20  2  0
  5 28  1  0
  6 29  1  0
  7 30  1  0
 10 31  1  0
 12 32  1  0
 13 33  1  0
 14 34  1  0
 26 35  1  0
 27 36  1  0
M  CHG  3   3  -1  19  -1  24  -1
M  END
>  <UniqueID>  (41) 
39

>  <SMILES>  (41) 
O=C([N-]c1cccc(F)c1)c1cccc(S(=O)(=O)[N-]c2sc(=O)[n-]c2O)c1

>  <Energy>  (41) 
76.15309575816853

>  <Genealogy>  (41) 
O=C([N-]c1cccc(F)c1)c1cccc(S(=O)(=O)[N-]c2sc(=O)[n-]c2O)c1 (protonated)
O=C([N-]c1cccc(F)c1)c1cccc(S(=O)(=O)[N-]c2sc(=O)[n-]c2O)c1 (3D coordinates assigned)
O=C([N-]c1cccc(F)c1)c1cccc(S(=O)(=O)[N-]c2sc(=O)[n-]c2O)c1 (optimized conformer: 76.15309575816853 kcal/mol)

>  <smiles>  (41) 
O=C(Nc1cccc(F)c1)c1cccc(S(=O)(=O)Nc2sc(=O)[nH]c2O)c1

>  <score_type>  (41) 
oracle

>  <origin>  (41) 
adg

>  <m_score__min__energy>  (41) 
-14.02

>  <m_primary>  (41) 
energy

$$$$
41:0
     RDKit          3D

 34 35  0  0  0  0  0  0  0  0999 V2000
   52.2780   23.8850   44.6760 C   0  0  0  0  0  0  0  0  0  0  0  0
   53.5290   24.1390   45.4490 C   0  0  0  0  0  0  0  0  0  0  0  0
   54.3820   23.1760   45.9430 C   0  0  0  0  0  0  0  0  0  0  0  0
   55.4090   23.9070   46.5100 C   0  0  0  0  0  0  0  0  0  0  0  0
   56.6160   23.3700   47.1670 C   0  0  0  0  0  0  0  0  0  0  0  0
   56.4910   22.4370   48.0040 O   0  0  0  0  0  0  0  0  0  0  0  0
   57.9200   23.9140   46.9280 N   0  0  0  0  0  0  0  0  0  0  0  0
   58.2190   25.2850   46.6310 C   0  0  0  0  0  0  0  0  0  0  0  0
   58.8690   25.5920   45.4300 C   0  0  0  0  0  0  0  0  0  0  0  0
   59.1760   26.9200   45.1130 C   0  0  0  0  0  0  0  0  0  0  0  0
   58.8180   27.9540   45.9860 C   0  0  0  0  0  0  0  0  0  0  0  0
   59.2560   29.6140   45.5950 S   0  0  0  0  0  0  0  0  0  0  0  0
   60.7460   29.7360   45.4200 O   0  0  0  0  0  0  0  0  0  0  0  0
   58.8310   30.5090   46.7250 O   0  0  0  0  0  0  0  0  0  0  0  0
   58.4520   30.1080   44.1350 N   0  0  0  0  0  0  0  0  0  0  0  0
   57.3170   29.2210   43.8720 C   0  0  0  0  0  0  0  0  0  0  0  0
   56.0900   29.7660   44.5290 C   0  0  0  0  0  0  0  0  0  0  0  0
   55.1570   28.9920   44.8710 O   0  0  0  0  0  0  0  0  0  0  0  0
   55.9960   31.1240   44.8080 O   0  0  0  0  0  0  0  0  0  0  0  0
   58.1410   27.6520   47.1770 C   0  0  0  0  0  0  0  0  0  0  0  0
   57.8330   26.3260   47.4940 C   0  0  0  0  0  0  0  0  0  0  0  0
   55.1820   25.2230   46.3290 N   0  0  0  0  0  0  0  0  0  0  0  0
   54.0360   25.3650   45.6780 N   0  0  0  0  0  0  0  0  0  0  0  0
   51.4442   23.7157   45.3732 H   0  0  0  0  0  0  0  0  0  0  0  0
   52.0551   24.7562   44.0425 H   0  0  0  0  0  0  0  0  0  0  0  0
   52.4126   22.9959   44.0425 H   0  0  0  0  0  0  0  0  0  0  0  0
   54.2715   22.0825   45.8969 H   0  0  0  0  0  0  0  0  0  0  0  0
   59.1397   24.7858   44.7323 H   0  0  0  0  0  0  0  0  0  0  0  0
   59.7005   27.1522   44.1744 H   0  0  0  0  0  0  0  0  0  0  0  0
   59.1420   29.9930   43.3580 H   0  0  0  0  0  0  0  0  0  0  0  0
   57.1508   29.1516   42.7869 H   0  0  0  0  0  0  0  0  0  0  0  0
   57.5339   28.2214   44.2767 H   0  0  0  0  0  0  0  0  0  0  0  0
   57.8516   28.4613   47.8635 H   0  0  0  0  0  0  0  0  0  0  0  0
   57.2872   26.0962   48.4210 H   0  0  0  0  0  0  0  0  0  0  0  0
  1  2  1  0
  2  3  1  0
  3  4  2  0
  4  5  1  0
  5  6  2  0
  5  7  1  0
  7  8  1  0
  8  9  2  0
  9 10  1  0
 10 11  2  0
 11 12  1  0
 12 13  2  0
 12 14  2  0
 12 15  1  0
 15 16  1  0
 16 17  1  0
 17 18  2  0
 17 19  1  0
 11 20  1  0
 20 21  2  0
  4 22  1  0
 22 23  1  0
 23  2  2  0
 21  8  1  0
  1 24  1  0
  1 25  1  0
  1 26  1  0
  3 27  1  0
  9 28  1  0
 10 29  1  0
 15 30  1  0
 16 31  1  0
 16 32  1  0
 20 33  1  0
 21 34  1  0
M  CHG  3   7  -1  19  -1  22  -1
M  END
>  <UniqueID>  (42) 
40

>  <SMILES>  (42) 
Cc1cc(C(=O)[N-]c2ccc(S(=O)(=O)NCC(=O)[O-])cc2)[n-]n1

>  <Energy>  (42) 
63.30702682091437

>  <Genealogy>  (42) 
Cc1cc(C(=O)[N-]c2ccc(S(=O)(=O)NCC(=O)[O-])cc2)[n-]n1 (protonated)
Cc1cc(C(=O)[N-]c2ccc(S(=O)(=O)NCC(=O)[O-])cc2)[n-]n1 (3D coordinates assigned)
Cc1cc(C(=O)[N-]c2ccc(S(=O)(=O)NCC(=O)[O-])cc2)[n-]n1 (optimized conformer: 63.30702682091437 kcal/mol)

>  <smiles>  (42) 
Cc1cc(C(=O)Nc2ccc(S(=O)(=O)NCC(=O)O)cc2)[nH]n1

>  <score_type>  (42) 
oracle

>  <origin>  (42) 
adg

>  <m_score__min__energy>  (42) 
-12.9

>  <m_primary>  (42) 
energy

$$$$
42:0
     RDKit          3D

 23 24  0  0  0  0  0  0  0  0999 V2000
   53.3000   22.3390   45.6010 O   0  0  0  0  0  0  0  0  0  0  0  0
   54.2600   23.1320   45.7740 C   0  0  0  0  0  0  0  0  0  0  0  0
   54.0380   24.4700   45.7950 N   0  0  0  0  0  0  0  0  0  0  0  0
   55.0570   25.3490   45.9810 C   0  0  0  0  0  0  0  0  0  0  0  0
   54.7800   26.7110   45.9970 O   0  0  0  0  0  0  0  0  0  0  0  0
   56.3720   24.8780   46.1500 C   0  0  0  0  0  0  0  0  0  0  0  0
   57.5170   25.8340   46.3940 C   0  0  0  0  0  0  0  0  0  0  0  0
   57.5090   26.9420   45.3730 C   0  0  0  0  0  0  0  0  0  0  0  0
   57.8800   26.6840   44.0420 C   0  0  0  0  0  0  0  0  0  0  0  0
   57.8440   27.7060   43.0890 C   0  0  0  0  0  0  0  0  0  0  0  0
   57.4320   28.9910   43.4550 C   0  0  0  0  0  0  0  0  0  0  0  0
   57.0560   29.2560   44.7750 C   0  0  0  0  0  0  0  0  0  0  0  0
   56.6460   30.5320   45.1370 O   0  0  0  0  0  0  0  0  0  0  0  0
   57.0920   28.2350   45.7320 C   0  0  0  0  0  0  0  0  0  0  0  0
   56.5720   23.4840   46.1290 C   0  0  0  0  0  0  0  0  0  0  0  0
   57.7220   22.9960   46.2810 O   0  0  0  0  0  0  0  0  0  0  0  0
   55.5170   22.6490   45.9400 N   0  0  0  0  0  0  0  0  0  0  0  0
   57.4174   26.2683   47.3997 H   0  0  0  0  0  0  0  0  0  0  0  0
   58.4645   25.2814   46.3105 H   0  0  0  0  0  0  0  0  0  0  0  0
   58.2001   25.6732   43.7490 H   0  0  0  0  0  0  0  0  0  0  0  0
   58.1401   27.4991   42.0500 H   0  0  0  0  0  0  0  0  0  0  0  0
   57.4037   29.7940   42.7037 H   0  0  0  0  0  0  0  0  0  0  0  0
   56.7926   28.4457   46.7693 H   0  0  0  0  0  0  0  0  0  0  0  0
  1  2  2  0
  2  3  1  0
  3  4  1  0
  4  5  1  0
  4  6  2  0
  6  7  1  0
  7  8  1  0
  8  9  2  0
  9 10  1  0
 10 11  2  0
 11 12  1  0
 12 13  1  0
 12 14  2  0
  6 15  1  0
 15 16  2  0
 15 17  1  0
 17  2  1  0
 14  8  1  0
  7 18  1  0
  7 19  1  0
  9 20  1  0
 10 21  1  0
 11 22  1  0
 14 23  1  0
M  CHG  4   3  -1   5  -1  13  -1  17  -1
M  END
>  <UniqueID>  (43) 
41

>  <SMILES>  (43) 
O=c1[n-]c([O-])c(Cc2cccc([O-])c2)c(=O)[n-]1

>  <Energy>  (43) 
25.751887775726093

>  <Genealogy>  (43) 
O=c1[n-]c([O-])c(Cc2cccc([O-])c2)c(=O)[n-]1 (protonated)
O=c1[n-]c([O-])c(Cc2cccc([O-])c2)c(=O)[n-]1 (3D coordinates assigned)
O=c1[n-]c([O-])c(Cc2cccc([O-])c2)c(=O)[n-]1 (optimized conformer: 25.751887775726093 kcal/mol)

>  <smiles>  (43) 
O=c1[nH]c(O)c(Cc2cccc(O)c2)c(=O)[nH]1

>  <score_type>  (43) 
oracle

>  <origin>  (43) 
adg

>  <m_score__min__energy>  (43) 
-15.73

>  <m_primary>  (43) 
energy

$$$$
43:0
     RDKit          3D

 84 90  0  0  1  0  0  0  0  0999 V2000
   50.2910   26.6200   52.6640 C   0  0  0  0  0  0  0  0  0  0  0  0
   50.7940   25.4430   53.3420 N   0  0  0  0  0  0  0  0  0  0  0  0
   50.0720   24.2770   52.8530 C   0  0  0  0  0  0  0  0  0  0  0  0
   50.9320   23.0360   52.9610 C   0  0  0  0  0  0  0  0  0  0  0  0
   52.1250   23.1160   52.1930 N   0  0  0  0  0  0  0  0  0  0  0  0
   52.1160   22.2780   51.0360 C   0  0  0  0  0  0  0  0  0  0  0  0
   53.4250   22.2040   50.3970 C   0  0  0  0  0  0  0  0  0  0  0  0
   54.5970   21.7960   50.9860 C   0  0  0  0  0  0  0  0  0  0  0  0
   55.8100   21.7550   50.3090 C   0  0  0  0  0  0  0  0  0  0  0  0
   55.8850   22.1330   48.9870 C   0  0  0  0  0  0  0  0  0  0  0  0
   54.7220   22.5470   48.3720 C   0  0  0  0  0  0  0  0  0  0  0  0
   61.2200   33.0590   46.7440 N   0  0  0  0  0  0  0  0  0  0  0  0
   62.1780   32.8560   47.5750 C   0  0  0  0  0  0  0  0  0  0  0  0
   55.4340   25.0360   46.3280 N   0  0  0  0  0  0  0  0  0  0  0  0
   56.4050   25.8500   45.8270 C   0  0  0  0  0  0  0  0  0  0  0  0
   56.1110   27.1830   45.6510 O   0  0  0  0  0  0  0  0  0  0  0  0
   57.0720   28.1710   45.6700 C   0  0  0  0  0  0  0  0  0  0  0  0
   58.0500   28.0620   46.6640 C   0  0  0  0  0  0  0  0  0  0  0  0
   59.0610   28.9920   46.7800 C   0  0  0  0  0  0  0  0  0  0  0  0
   59.1130   30.0600   45.8920 C   0  0  0  0  0  0  0  0  0  0  0  0
   60.1770   30.9780   46.0690 N   0  0  0  0  0  0  0  0  0  0  0  0
   60.0470   32.2600   46.6410 C   0  0  0  0  0  0  0  0  0  0  0  0
   58.9490   32.7130   47.0560 O   0  0  0  0  0  0  0  0  0  0  0  0
   54.7670   22.9480   46.9860 N   0  0  0  0  0  0  0  0  0  0  0  0
   55.6930   23.7120   46.5110 C   0  0  0  0  0  0  0  0  0  0  0  0
   62.0790   31.7680   48.4080 C   0  0  0  0  0  0  0  0  0  0  0  0
   63.0900   31.5180   49.3150 C   0  0  0  0  0  0  0  0  0  0  0  0
   64.1670   32.3940   49.3330 C   0  0  0  0  0  0  0  0  0  0  0  0
   65.2230   32.1120   50.2960 C   0  0  0  0  0  0  0  0  0  0  0  0
   64.9970   31.4500   51.4890 C   0  0  0  0  0  0  0  0  0  0  0  0
   66.0590   31.2270   52.3390 C   0  0  0  0  0  0  0  0  0  0  0  0
   67.3490   31.6300   52.0690 C   0  0  0  0  0  0  0  0  0  0  0  0
   67.5740   32.2860   50.8870 C   0  0  0  0  0  0  0  0  0  0  0  0
   66.5240   32.5210   50.0160 C   0  0  0  0  0  0  0  0  0  0  0  0
   57.8600   23.9070   45.7260 C   0  0  0  0  0  0  0  0  0  0  0  0
   56.8670   23.1500   46.2240 N   0  0  0  0  0  0  0  0  0  0  0  0
   58.1540   30.1750   44.9080 C   0  0  0  0  0  0  0  0  0  0  0  0
   58.2340   31.2400   44.0250 C   0  0  0  0  0  0  0  0  0  0  0  0
   57.2790   31.3470   43.0270 C   0  0  0  0  0  0  0  0  0  0  0  0
   56.2650   30.3940   42.9260 C   0  0  0  0  0  0  0  0  0  0  0  0
   56.2010   29.3530   43.8010 C   0  0  0  0  0  0  0  0  0  0  0  0
   57.1310   29.2270   44.7980 C   0  0  0  0  0  0  0  0  0  0  0  0
   57.6050   25.2490   45.5370 C   0  0  0  0  0  0  0  0  0  0  0  0
   64.2050   33.4710   48.4660 C   0  0  0  0  0  0  0  0  0  0  0  0
   63.2100   33.7150   47.5770 N   0  0  0  0  0  0  0  0  0  0  0  0
   53.5170   22.5850   49.0560 C   0  0  0  0  0  0  0  0  0  0  0  0
   52.5280   24.4860   51.9350 C   0  0  0  0  0  0  0  0  0  0  0  0
   52.2340   25.3050   53.1850 C   0  0  0  0  0  0  0  0  0  0  0  0
   49.9729   27.3643   53.4088 H   0  0  0  0  0  0  0  0  0  0  0  0
   51.0849   27.0477   52.0341 H   0  0  0  0  0  0  0  0  0  0  0  0
   49.4332   26.3418   52.0341 H   0  0  0  0  0  0  0  0  0  0  0  0
   49.1601   24.1385   53.4523 H   0  0  0  0  0  0  0  0  0  0  0  0
   49.8112   24.4378   51.7965 H   0  0  0  0  0  0  0  0  0  0  0  0
   51.2044   22.8896   54.0166 H   0  0  0  0  0  0  0  0  0  0  0  0
   50.3440   22.1941   52.5668 H   0  0  0  0  0  0  0  0  0  0  0  0
   51.8105   21.2646   51.3354 H   0  0  0  0  0  0  0  0  0  0  0  0
   51.4113   22.7118   50.3113 H   0  0  0  0  0  0  0  0  0  0  0  0
   54.5744   21.4877   52.0417 H   0  0  0  0  0  0  0  0  0  0  0  0
   56.7167   21.4182   50.8329 H   0  0  0  0  0  0  0  0  0  0  0  0
   56.8392   22.1057   48.4405 H   0  0  0  0  0  0  0  0  0  0  0  0
   58.0117   27.2171   47.3674 H   0  0  0  0  0  0  0  0  0  0  0  0
   59.8205   28.8897   47.5691 H   0  0  0  0  0  0  0  0  0  0  0  0
   61.1280   30.6440   45.7350 H   0  0  0  0  0  0  0  0  0  0  0  0
   61.2042   31.1034   48.3531 H   0  0  0  0  0  0  0  0  0  0  0  0
   63.0437   30.6568   49.9978 H   0  0  0  0  0  0  0  0  0  0  0  0
   63.9863   31.1070   51.7552 H   0  0  0  0  0  0  0  0  0  0  0  0
   65.8664   30.6986   53.2843 H   0  0  0  0  0  0  0  0  0  0  0  0
   68.1679   31.4324   52.7763 H   0  0  0  0  0  0  0  0  0  0  0  0
   68.5883   32.6256   50.6305 H   0  0  0  0  0  0  0  0  0  0  0  0
   66.7242   33.0482   49.0716 H   0  0  0  0  0  0  0  0  0  0  0  0
   58.8396   23.4721   45.4785 H   0  0  0  0  0  0  0  0  0  0  0  0
   57.0090   22.1280   46.3840 H   0  0  0  0  0  0  0  0  0  0  0  0
   59.0387   31.9846   44.1146 H   0  0  0  0  0  0  0  0  0  0  0  0
   57.3202   32.1836   42.3140 H   0  0  0  0  0  0  0  0  0  0  0  0
   55.5097   30.4847   42.1314 H   0  0  0  0  0  0  0  0  0  0  0  0
   55.3970   28.6083   43.7064 H   0  0  0  0  0  0  0  0  0  0  0  0
   58.4117   25.8759   45.1293 H   0  0  0  0  0  0  0  0  0  0  0  0
   65.0691   34.1509   48.4984 H   0  0  0  0  0  0  0  0  0  0  0  0
   63.2400   34.5260   46.9250 H   0  0  0  0  0  0  0  0  0  0  0  0
   52.6117   22.9231   48.5305 H   0  0  0  0  0  0  0  0  0  0  0  0
   53.6039   24.5226   51.7089 H   0  0  0  0  0  0  0  0  0  0  0  0
   51.9769   24.8912   51.0736 H   0  0  0  0  0  0  0  0  0  0  0  0
   52.6524   24.7950   54.0653 H   0  0  0  0  0  0  0  0  0  0  0  0
   52.6913   26.3008   53.0890 H   0  0  0  0  0  0  0  0  0  0  0  0
  1  2  1  0
  2  3  1  0
  3  4  1  0
  4  5  1  0
  5  6  1  0
  6  7  1  0
  7  8  2  0
  8  9  1  0
  9 10  2  0
 10 11  1  0
 11 12  1  0
 12 13  2  0
 13 14  1  0
 14 15  2  0
 15 16  1  0
 16 17  1  0
 17 18  2  0
 18 19  1  0
 19 20  2  0
 20 21  1  0
 21 22  1  0
 22 23  2  0
 22 24  1  0
 24 25  2  0
 25 26  1  0
 26 27  2  0
 27 28  1  0
 28 29  1  0
 29 30  2  0
 30 31  1  0
 31 32  2  0
 32 33  1  0
 33 34  2  0
 28 35  2  0
 35 36  1  0
 20 37  1  0
 37 38  2  0
 38 39  1  0
 39 40  2  0
 40 41  1  0
 41 42  2  0
 15 43  1  0
 43 44  2  0
 44 45  1  0
 11 46  2  0
  5 47  1  0
 47 48  1  0
 48  2  1  0
 46  7  1  0
 45 13  1  0
 42 17  1  0
 36 25  1  0
 42 37  1  0
 34 29  1  0
  1 49  1  0
  1 50  1  0
  1 51  1  0
  3 52  1  0
  3 53  1  0
  4 54  1  0
  4 55  1  0
  6 56  1  0
  6 57  1  0
  8 58  1  0
  9 59  1  0
 10 60  1  0
 18 61  1  0
 19 62  1  0
 21 63  1  0
 26 64  1  0
 27 65  1  0
 30 66  1  0
 31 67  1  0
 32 68  1  0
 33 69  1  0
 34 70  1  0
 35 71  1  0
 36 72  1  0
 38 73  1  0
 39 74  1  0
 40 75  1  0
 41 76  1  0
 43 77  1  0
 44 78  1  0
 45 79  1  0
 46 80  1  0
 47 81  1  0
 47 82  1  0
 48 83  1  0
 48 84  1  0
M  END
>  <smiles>  (44) 
CN1CCN(Cc2cccc(N=c3nc(Oc4ccc(NC(=O)N=c5ccc(-c6ccccc6)c[nH]5)c5ccccc45)cc[nH]3)c2)CC1

>  <score_type>  (44) 
oracle

>  <origin>  (44) 
adg

>  <m_score__min__energy>  (44) 
-12.06

>  <m_primary>  (44) 
energy

$$$$
44:0
     RDKit          3D

 44 46  0  0  0  0  0  0  0  0999 V2000
   59.2250   30.6680   50.2400 O   0  0  0  0  0  0  0  0  0  0  0  0
   59.4050   30.5740   48.7510 S   0  0  0  0  0  0  0  0  0  0  0  0
   58.5800   29.4230   48.2500 O   0  0  0  0  0  0  0  0  0  0  0  0
   61.1140   30.2490   48.3380 C   0  0  0  0  0  0  0  0  0  0  0  0
   61.8880   31.5240   48.1630 C   0  0  0  0  0  0  0  0  0  0  0  0
   61.6520   32.6200   49.0100 C   0  0  0  0  0  0  0  0  0  0  0  0
   62.4080   33.7880   48.8800 C   0  0  0  0  0  0  0  0  0  0  0  0
   63.4040   33.8720   47.9020 C   0  0  0  0  0  0  0  0  0  0  0  0
   63.6430   32.7870   47.0540 C   0  0  0  0  0  0  0  0  0  0  0  0
   62.8910   31.6150   47.1830 C   0  0  0  0  0  0  0  0  0  0  0  0
   58.8460   32.0210   47.9700 N   0  0  0  0  0  0  0  0  0  0  0  0
   58.5440   32.1910   46.5760 C   0  0  0  0  0  0  0  0  0  0  0  0
   59.0110   33.2860   45.8260 C   0  0  0  0  0  0  0  0  0  0  0  0
   58.7150   33.3850   44.4650 C   0  0  0  0  0  0  0  0  0  0  0  0
   57.9470   32.4010   43.8390 C   0  0  0  0  0  0  0  0  0  0  0  0
   57.4630   31.3140   44.5780 C   0  0  0  0  0  0  0  0  0  0  0  0
   56.4900   30.0820   43.7820 S   0  0  0  0  0  0  0  0  0  0  0  0
   56.1830   30.4750   42.3640 O   0  0  0  0  0  0  0  0  0  0  0  0
   55.1980   29.9250   44.5330 O   0  0  0  0  0  0  0  0  0  0  0  0
   57.3370   28.5690   43.7820 N   0  0  0  0  0  0  0  0  0  0  0  0
   57.8430   27.9010   44.9470 C   0  0  0  0  0  0  0  0  0  0  0  0
   59.2250   27.8250   45.2130 C   0  0  0  0  0  0  0  0  0  0  0  0
   59.6890   27.1660   46.3540 C   0  0  0  0  0  0  0  0  0  0  0  0
   58.7860   26.5770   47.2400 C   0  0  0  0  0  0  0  0  0  0  0  0
   57.4140   26.6480   46.9870 C   0  0  0  0  0  0  0  0  0  0  0  0
   56.9370   27.3030   45.8470 C   0  0  0  0  0  0  0  0  0  0  0  0
   55.5600   27.3480   45.6270 O   0  0  0  0  0  0  0  0  0  0  0  0
   57.7620   31.2150   45.9440 C   0  0  0  0  0  0  0  0  0  0  0  0
   61.5719   29.6606   49.1468 H   0  0  0  0  0  0  0  0  0  0  0  0
   61.1410   29.6947   47.3882 H   0  0  0  0  0  0  0  0  0  0  0  0
   60.8682   32.5583   49.7793 H   0  0  0  0  0  0  0  0  0  0  0  0
   62.2195   34.6419   49.5474 H   0  0  0  0  0  0  0  0  0  0  0  0
   63.9991   34.7915   47.8002 H   0  0  0  0  0  0  0  0  0  0  0  0
   64.4247   32.8551   46.2831 H   0  0  0  0  0  0  0  0  0  0  0  0
   63.0851   30.7623   46.5157 H   0  0  0  0  0  0  0  0  0  0  0  0
   59.6119   34.0675   46.3140 H   0  0  0  0  0  0  0  0  0  0  0  0
   59.0881   34.2412   43.8839 H   0  0  0  0  0  0  0  0  0  0  0  0
   57.7220   32.4795   42.7651 H   0  0  0  0  0  0  0  0  0  0  0  0
   59.9420   28.2871   44.5185 H   0  0  0  0  0  0  0  0  0  0  0  0
   60.7692   27.1112   46.5546 H   0  0  0  0  0  0  0  0  0  0  0  0
   59.1542   26.0573   48.1368 H   0  0  0  0  0  0  0  0  0  0  0  0
   56.7042   26.1858   47.6889 H   0  0  0  0  0  0  0  0  0  0  0  0
   55.1460   27.8990   44.8850 H   0  0  0  0  0  0  0  0  0  0  0  0
   57.3792   30.3632   46.5252 H   0  0  0  0  0  0  0  0  0  0  0  0
  1  2  2  0
  2  3  2  0
  2  4  1  0
  4  5  1  0
  5  6  2  0
  6  7  1  0
  7  8  2  0
  8  9  1  0
  9 10  2  0
  2 11  1  0
 11 12  1  0
 12 13  2  0
 13 14  1  0
 14 15  2  0
 15 16  1  0
 16 17  1  0
 17 18  2  0
 17 19  2  0
 17 20  1  0
 20 21  1  0
 21 22  2  0
 22 23  1  0
 23 24  2  0
 24 25  1  0
 25 26  2  0
 26 27  1  0
 16 28  2  0
 10  5  1  0
 28 12  1  0
 26 21  1  0
  4 29  1  0
  4 30  1  0
  6 31  1  0
  7 32  1  0
  8 33  1  0
  9 34  1  0
 10 35  1  0
 13 36  1  0
 14 37  1  0
 15 38  1  0
 22 39  1  0
 23 40  1  0
 24 41  1  0
 25 42  1  0
 27 43  1  0
 28 44  1  0
M  CHG  2  11  -1  20  -1
M  END
>  <UniqueID>  (45) 
42

>  <SMILES>  (45) 
O=S(=O)(Cc1ccccc1)[N-]c1cccc(S(=O)(=O)[N-]c2ccccc2O)c1

>  <Energy>  (45) 
47.22834423928086

>  <Genealogy>  (45) 
O=S(=O)(Cc1ccccc1)[N-]c1cccc(S(=O)(=O)[N-]c2ccccc2O)c1 (protonated)
O=S(=O)(Cc1ccccc1)[N-]c1cccc(S(=O)(=O)[N-]c2ccccc2O)c1 (3D coordinates assigned)
O=S(=O)(Cc1ccccc1)[N-]c1cccc(S(=O)(=O)[N-]c2ccccc2O)c1 (optimized conformer: 47.22834423928086 kcal/mol)

>  <smiles>  (45) 
O=S(=O)(Cc1ccccc1)Nc1cccc(S(=O)(=O)Nc2ccccc2O)c1

>  <score_type>  (45) 
oracle

>  <origin>  (45) 
adg

>  <m_score__min__energy>  (45) 
-12.609999999999999

>  <m_primary>  (45) 
energy

$$$$
45:0
     RDKit          3D

 40 42  0  0  0  0  0  0  0  0999 V2000
   55.1390   28.0120   44.9580 H   0  0  0  0  0  0  0  0  0  0  0  0
   55.3540   28.9930   44.8370 O   0  0  0  0  0  0  0  0  0  0  0  0
   56.6390   29.4980   45.0190 C   0  0  0  0  0  0  0  0  0  0  0  0
   56.8650   30.8390   45.0530 N   0  0  0  0  0  0  0  0  0  0  0  0
   58.1750   31.1220   45.2140 C   0  0  0  0  0  0  0  0  0  0  0  0
   58.6080   32.3450   45.3120 N   0  0  0  0  0  0  0  0  0  0  0  0
   59.4650   32.8680   46.3400 C   0  0  0  0  0  0  0  0  0  0  0  0
   59.1290   34.0830   46.9450 C   0  0  0  0  0  0  0  0  0  0  0  0
   58.2052   34.6029   46.6512 H   0  0  0  0  0  0  0  0  0  0  0  0
   59.9600   34.6410   47.9210 C   0  0  0  0  0  0  0  0  0  0  0  0
   59.6760   35.5888   48.4016 H   0  0  0  0  0  0  0  0  0  0  0  0
   61.1530   34.0030   48.2930 C   0  0  0  0  0  0  0  0  0  0  0  0
   61.9880   34.6020   49.3020 N   0  0  0  0  0  0  0  0  0  0  0  0
   62.0890   35.6420   49.3220 H   0  0  0  0  0  0  0  0  0  0  0  0
   62.7050   33.8340   50.3140 C   0  0  0  0  0  0  0  0  0  0  0  0
   62.3942   34.1669   51.3153 H   0  0  0  0  0  0  0  0  0  0  0  0
   62.4742   32.7651   50.1949 H   0  0  0  0  0  0  0  0  0  0  0  0
   63.7872   33.9909   50.1949 H   0  0  0  0  0  0  0  0  0  0  0  0
   61.5070   32.7980   47.6570 C   0  0  0  0  0  0  0  0  0  0  0  0
   62.4448   32.2915   47.9288 H   0  0  0  0  0  0  0  0  0  0  0  0
   60.6740   32.2410   46.6820 C   0  0  0  0  0  0  0  0  0  0  0  0
   60.9672   31.3070   46.1803 H   0  0  0  0  0  0  0  0  0  0  0  0
   59.1090   29.7180   45.3410 S   0  0  0  0  0  0  0  0  0  0  0  0
   57.7770   28.7010   45.1770 C   0  0  0  0  0  0  0  0  0  0  0  0
   57.8540   27.2060   45.1240 C   0  0  0  0  0  0  0  0  0  0  0  0
   57.0416   26.8222   44.4894 H   0  0  0  0  0  0  0  0  0  0  0  0
   58.8275   26.9105   44.7057 H   0  0  0  0  0  0  0  0  0  0  0  0
   57.7190   26.6350   46.4990 C   0  0  0  0  0  0  0  0  0  0  0  0
   58.1260   27.3010   47.4890 O   0  0  0  0  0  0  0  0  0  0  0  0
   57.2950   25.2750   46.6600 N   0  0  0  0  0  0  0  0  0  0  0  0
   56.2530   24.6680   46.1610 C   0  0  0  0  0  0  0  0  0  0  0  0
   56.3720   23.3410   45.8800 N   0  0  0  0  0  0  0  0  0  0  0  0
   55.3510   22.6040   45.3710 C   0  0  0  0  0  0  0  0  0  0  0  0
   55.4961   21.5334   45.1640 H   0  0  0  0  0  0  0  0  0  0  0  0
   54.1210   23.2020   45.1110 C   0  0  0  0  0  0  0  0  0  0  0  0
   53.2843   22.6063   44.7173 H   0  0  0  0  0  0  0  0  0  0  0  0
   53.9630   24.5660   45.3560 C   0  0  0  0  0  0  0  0  0  0  0  0
   52.9981   25.0519   45.1489 H   0  0  0  0  0  0  0  0  0  0  0  0
   55.0270   25.3180   45.8640 C   0  0  0  0  0  0  0  0  0  0  0  0
   54.8530   26.6900   46.0030 O   0  0  0  0  0  0  0  0  0  0  0  0
  1  2  1  0
  2  3  1  0
  3  4  1  0
  4  5  1  0
  5  6  2  0
  6  7  1  0
  7  8  2  0
  8  9  1  0
  8 10  1  0
 10 11  1  0
 10 12  2  0
 12 13  1  0
 13 14  1  0
 13 15  1  0
 15 16  1  0
 15 17  1  0
 15 18  1  0
 12 19  1  0
 19 20  1  0
 19 21  2  0
 21 22  1  0
  5 23  1  0
 23 24  1  0
 24 25  1  0
 25 26  1  0
 25 27  1  0
 25 28  1  0
 28 29  2  0
 28 30  1  0
 30 31  2  0
 31 32  1  0
 32 33  1  0
 33 34  1  0
 33 35  2  0
 35 36  1  0
 35 37  1  0
 37 38  1  0
 37 39  2  0
 39 40  1  0
 24  3  2  0
 39 31  1  0
 21  7  1  0
M  CHG  3   4  -1  32  -1  40  -1
M  END
>  <UniqueID>  (46) 
43

>  <SMILES>  (46) 
CNc1ccc(/N=c2/[n-]c(O)c(CC(=O)/N=c3/[n-]cccc3[O-])s2)cc1

>  <Energy>  (46) 
88.72624859119767

>  <Genealogy>  (46) 
CNc1ccc(N=c2[n-]c(O)c(CC(=O)N=c3[n-]cccc3[O-])s2)cc1 (protonated)
CNc1ccc(/N=c2/[n-]c(O)c(CC(=O)/N=c3/[n-]cccc3[O-])s2)cc1 (cis-trans isomerization)
CNc1ccc(/N=c2/[n-]c(O)c(CC(=O)/N=c3/[n-]cccc3[O-])s2)cc1 (3D coordinates assigned)
CNc1ccc(/N=c2/[n-]c(O)c(CC(=O)/N=c3/[n-]cccc3[O-])s2)cc1 (optimized conformer: 88.72624859119767 kcal/mol)

>  <smiles>  (46) 
CNc1ccc(N=c2[nH]c(O)c(CC(=O)N=c3[nH]cccc3O)s2)cc1

>  <score_type>  (46) 
oracle

>  <origin>  (46) 
adg

>  <m_score__min__energy>  (46) 
-15.34

>  <m_primary>  (46) 
energy

$$$$
46:0
     RDKit          3D

 47 50  0  0  1  0  0  0  0  0999 V2000
   59.2660   34.7640   44.8710 C   0  0  0  0  0  0  0  0  0  0  0  0
   58.5770   33.4530   44.7990 C   0  0  0  0  0  0  0  0  0  0  0  0
   58.0110   33.0360   43.6070 C   0  0  0  0  0  0  0  0  0  0  0  0
   57.3550   31.8080   43.5230 C   0  0  0  0  0  0  0  0  0  0  0  0
   57.2690   31.0010   44.6400 C   0  0  0  0  0  0  0  0  0  0  0  0
   56.6060   29.7120   44.6280 C   0  0  0  0  0  0  0  0  0  0  0  0
   55.3750   29.6890   44.9330 O   0  0  0  0  0  0  0  0  0  0  0  0
   57.2610   28.4980   44.2960 N   0  0  0  0  0  0  0  0  0  0  0  0
   57.2680   27.5490   45.1690 C   0  0  0  0  0  0  0  0  0  0  0  0
   58.4150   26.9560   45.6450 C   0  0  0  0  0  0  0  0  0  0  0  0
   58.3050   25.9510   46.5830 C   0  0  0  0  0  0  0  0  0  0  0  0
   57.0770   25.5210   47.0610 C   0  0  0  0  0  0  0  0  0  0  0  0
   55.9650   26.1610   46.5390 C   0  0  0  0  0  0  0  0  0  0  0  0
   56.0540   27.1460   45.6200 N   0  0  0  0  0  0  0  0  0  0  0  0
   57.8400   31.4330   45.8220 C   0  0  0  0  0  0  0  0  0  0  0  0
   58.5000   32.6670   45.9140 C   0  0  0  0  0  0  0  0  0  0  0  0
   59.0340   32.9850   47.1870 N   0  0  0  0  0  0  0  0  0  0  0  0
   60.2890   32.4250   47.5300 C   0  0  0  0  0  0  0  0  0  0  0  0
   60.8520   31.6850   46.6650 O   0  0  0  0  0  0  0  0  0  0  0  0
   60.9830   32.6170   48.7800 C   0  0  0  0  0  0  0  0  0  0  0  0
   60.1870   32.6280   49.9340 C   0  0  0  0  0  0  0  0  0  0  0  0
   60.7280   32.8010   51.1900 C   0  0  0  0  0  0  0  0  0  0  0  0
   62.0900   32.9690   51.3400 C   0  0  0  0  0  0  0  0  0  0  0  0
   62.8610   32.9570   50.2030 C   0  0  0  0  0  0  0  0  0  0  0  0
   64.1990   33.0940   50.0410 N   0  0  0  0  0  0  0  0  0  0  0  0
   64.4970   33.0130   48.7460 N   0  0  0  0  0  0  0  0  0  0  0  0
   63.3750   32.8220   48.0340 C   0  0  0  0  0  0  0  0  0  0  0  0
   63.2380   32.6930   46.7760 N   0  0  0  0  0  0  0  0  0  0  0  0
   62.3350   32.7840   48.9330 C   0  0  0  0  0  0  0  0  0  0  0  0
   59.4129   35.0436   45.9247 H   0  0  0  0  0  0  0  0  0  0  0  0
   60.2431   34.6926   44.3709 H   0  0  0  0  0  0  0  0  0  0  0  0
   58.6531   35.5283   44.3709 H   0  0  0  0  0  0  0  0  0  0  0  0
   58.0791   33.6792   42.7172 H   0  0  0  0  0  0  0  0  0  0  0  0
   56.9083   31.4840   42.5714 H   0  0  0  0  0  0  0  0  0  0  0  0
   59.4027   27.2781   45.2835 H   0  0  0  0  0  0  0  0  0  0  0  0
   59.2209   25.4755   46.9639 H   0  0  0  0  0  0  0  0  0  0  0  0
   56.9908   24.7198   47.8098 H   0  0  0  0  0  0  0  0  0  0  0  0
   54.9680   25.8539   46.8877 H   0  0  0  0  0  0  0  0  0  0  0  0
   55.1680   27.5590   45.3000 H   0  0  0  0  0  0  0  0  0  0  0  0
   57.7751   30.7923   46.7138 H   0  0  0  0  0  0  0  0  0  0  0  0
   58.5670   33.6040   47.8870 H   0  0  0  0  0  0  0  0  0  0  0  0
   59.0997   32.4948   49.8343 H   0  0  0  0  0  0  0  0  0  0  0  0
   60.0735   32.8052   52.0741 H   0  0  0  0  0  0  0  0  0  0  0  0
   62.5414   33.1074   52.3335 H   0  0  0  0  0  0  0  0  0  0  0  0
   64.8930   33.2370   50.8130 H   0  0  0  0  0  0  0  0  0  0  0  0
   65.4580   33.0830   48.3400 H   0  0  0  0  0  0  0  0  0  0  0  0
   62.4020   32.1970   46.3710 H   0  0  0  0  0  0  0  0  0  0  0  0
  1  2  1  0
  2  3  2  0
  3  4  1  0
  4  5  2  0
  5  6  1  0
  6  7  2  0
  6  8  1  0
  8  9  2  0
  9 10  1  0
 10 11  2  0
 11 12  1  0
 12 13  2  0
 13 14  1  0
  5 15  1  0
 15 16  2  0
 16 17  1  0
 17 18  1  0
 18 19  2  0
 18 20  1  0
 20 21  2  0
 21 22  1  0
 22 23  2  0
 23 24  1  0
 24 25  1  0
 25 26  1  0
 26 27  1  0
 27 28  2  3
 27 29  1  0
 16  2  1  0
 29 20  1  0
 14  9  1  0
 29 24  2  0
  1 30  1  0
  1 31  1  0
  1 32  1  0
  3 33  1  0
  4 34  1  0
 10 35  1  0
 11 36  1  0
 12 37  1  0
 13 38  1  0
 14 39  1  0
 15 40  1  0
 17 41  1  0
 21 42  1  0
 22 43  1  0
 23 44  1  0
 25 45  1  0
 26 46  1  0
 28 47  1  0
M  END
>  <smiles>  (47) 
Cc1ccc(C(=O)N=c2cccc[nH]2)cc1NC(=O)c1cccc2[nH][nH]c(=N)c12

>  <score_type>  (47) 
oracle

>  <origin>  (47) 
adg

>  <m_score__min__energy>  (47) 
-9.3800000000000008

>  <m_primary>  (47) 
energy

$$$$
47:0
     RDKit          3D

 43 45  0  0  0  0  0  0  0  0999 V2000
   58.0486   29.0337   49.6940 H   0  0  0  0  0  0  0  0  0  0  0  0
   58.5120   30.0260   49.5910 C   0  0  0  0  0  0  0  0  0  0  0  0
   59.3860   30.2590   48.5840 N   0  0  0  0  0  0  0  0  0  0  0  0
   59.9720   31.4700   48.4260 C   0  0  0  0  0  0  0  0  0  0  0  0
   60.6836   31.6283   47.6022 H   0  0  0  0  0  0  0  0  0  0  0  0
   59.6870   32.4950   49.2800 N   0  0  0  0  0  0  0  0  0  0  0  0
   60.3680   33.7880   49.0960 C   0  0  0  0  0  0  0  0  0  0  0  0
   60.0106   34.4979   49.8564 H   0  0  0  0  0  0  0  0  0  0  0  0
   60.1443   34.1705   48.0892 H   0  0  0  0  0  0  0  0  0  0  0  0
   61.8570   33.6180   49.2360 C   0  0  0  0  0  0  0  0  0  0  0  0
   62.4680   33.6880   50.4980 C   0  0  0  0  0  0  0  0  0  0  0  0
   61.8593   33.8965   51.3902 H   0  0  0  0  0  0  0  0  0  0  0  0
   63.8460   33.4940   50.6260 C   0  0  0  0  0  0  0  0  0  0  0  0
   64.3154   33.5547   51.6189 H   0  0  0  0  0  0  0  0  0  0  0  0
   64.6340   33.2230   49.5010 C   0  0  0  0  0  0  0  0  0  0  0  0
   66.0130   33.0340   49.6830 O   0  0  0  0  0  0  0  0  0  0  0  0
   66.5820   32.1180   50.6130 C   0  0  0  0  0  0  0  0  0  0  0  0
   66.3711   32.4575   51.6378 H   0  0  0  0  0  0  0  0  0  0  0  0
   66.1443   31.1205   50.4598 H   0  0  0  0  0  0  0  0  0  0  0  0
   67.6701   32.0684   50.4598 H   0  0  0  0  0  0  0  0  0  0  0  0
   64.0220   33.1480   48.2350 C   0  0  0  0  0  0  0  0  0  0  0  0
   64.6307   32.9361   47.3436 H   0  0  0  0  0  0  0  0  0  0  0  0
   62.6430   33.3420   48.1070 C   0  0  0  0  0  0  0  0  0  0  0  0
   62.1717   33.2778   47.1152 H   0  0  0  0  0  0  0  0  0  0  0  0
   58.8110   32.2990   50.3190 C   0  0  0  0  0  0  0  0  0  0  0  0
   58.5570   33.2490   51.1110 O   0  0  0  0  0  0  0  0  0  0  0  0
   58.1940   31.0410   50.5030 C   0  0  0  0  0  0  0  0  0  0  0  0
   57.2430   30.7590   51.6170 C   0  0  0  0  0  0  0  0  0  0  0  0
   57.6070   30.0110   52.5650 O   0  0  0  0  0  0  0  0  0  0  0  0
   55.9230   31.3310   51.6080 N   0  0  0  0  0  0  0  0  0  0  0  0
   54.8230   30.8090   52.0730 C   0  0  0  0  0  0  0  0  0  0  0  0
   54.6940   29.5500   53.1890 S   0  0  0  0  0  0  0  0  0  0  0  0
   53.0100   29.5850   53.2030 C   0  0  0  0  0  0  0  0  0  0  0  0
   52.3542   28.9344   53.8003 H   0  0  0  0  0  0  0  0  0  0  0  0
   52.5940   30.5840   52.3240 C   0  0  0  0  0  0  0  0  0  0  0  0
   51.1540   30.9370   52.1110 C   0  0  0  0  0  0  0  0  0  0  0  0
   50.7158   30.2502   51.3719 H   0  0  0  0  0  0  0  0  0  0  0  0
   50.6151   30.8496   53.0659 H   0  0  0  0  0  0  0  0  0  0  0  0
   51.0420   32.3410   51.6100 C   0  0  0  0  0  0  0  0  0  0  0  0
   50.6130   33.2520   52.3660 O   0  0  0  0  0  0  0  0  0  0  0  0
   51.4590   32.6540   50.3230 O   0  0  0  0  0  0  0  0  0  0  0  0
   53.6040   31.2610   51.7110 N   0  0  0  0  0  0  0  0  0  0  0  0
   53.4530   32.0470   51.0380 H   0  0  0  0  0  0  0  0  0  0  0  0
  1  2  1  0
  2  3  1  0
  3  4  2  0
  4  5  1  0
  4  6  1  0
  6  7  1  0
  7  8  1  0
  7  9  1  0
  7 10  1  0
 10 11  2  0
 11 12  1  0
 11 13  1  0
 13 14  1  0
 13 15  2  0
 15 16  1  0
 16 17  1  0
 17 18  1  0
 17 19  1  0
 17 20  1  0
 15 21  1  0
 21 22  1  0
 21 23  2  0
 23 24  1  0
  6 25  1  0
 25 26  2  0
 25 27  1  0
 27 28  1  0
 28 29  2  0
 28 30  1  0
 30 31  2  0
 31 32  1  0
 32 33  1  0
 33 34  1  0
 33 35  2  0
 35 36  1  0
 36 37  1  0
 36 38  1  0
 36 39  1  0
 39 40  2  0
 39 41  1  0
 35 42  1  0
 42 43  1  0
 27  2  2  0
 42 31  1  0
 23 10  1  0
M  CHG  1  41  -1
M  END
>  <UniqueID>  (48) 
44

>  <SMILES>  (48) 
COc1ccc(Cn2cncc(C(=O)/N=c3/[nH]c(CC(=O)[O-])cs3)c2=O)cc1

>  <Energy>  (48) 
80.50740448027506

>  <Genealogy>  (48) 
COc1ccc(Cn2cncc(C(=O)N=c3[nH]c(CC(=O)[O-])cs3)c2=O)cc1 (protonated)
COc1ccc(Cn2cncc(C(=O)/N=c3/[nH]c(CC(=O)[O-])cs3)c2=O)cc1 (cis-trans isomerization)
COc1ccc(Cn2cncc(C(=O)/N=c3/[nH]c(CC(=O)[O-])cs3)c2=O)cc1 (3D coordinates assigned)
COc1ccc(Cn2cncc(C(=O)/N=c3/[nH]c(CC(=O)[O-])cs3)c2=O)cc1 (optimized conformer: 80.50740448027506 kcal/mol)

>  <smiles>  (48) 
COc1ccc(Cn2cncc(C(=O)N=c3[nH]c(CC(=O)O)cs3)c2=O)cc1

>  <score_type>  (48) 
oracle

>  <origin>  (48) 
adg

>  <m_score__min__energy>  (48) 
-11.75

>  <m_primary>  (48) 
energy

$$$$
48:0
     RDKit          3D

 38 40  0  0  0  0  0  0  0  0999 V2000
   55.4890   26.4140   44.9730 H   0  0  0  0  0  0  0  0  0  0  0  0
   55.9290   27.0900   45.6370 N   0  0  0  0  0  0  0  0  0  0  0  0
   56.3750   28.2370   45.2360 C   0  0  0  0  0  0  0  0  0  0  0  0
   55.5100   29.1910   44.7950 N   0  0  0  0  0  0  0  0  0  0  0  0
   55.9420   30.4070   44.3640 C   0  0  0  0  0  0  0  0  0  0  0  0
   55.2129   31.1585   44.0270 H   0  0  0  0  0  0  0  0  0  0  0  0
   57.3090   30.7070   44.3470 C   0  0  0  0  0  0  0  0  0  0  0  0
   57.7280   32.0140   43.9220 N   0  0  0  0  0  0  0  0  0  0  0  0
   58.3390   32.9120   44.6390 C   0  0  0  0  0  0  0  0  0  0  0  0
   58.6210   32.6410   45.9400 N   0  0  0  0  0  0  0  0  0  0  0  0
   59.2360   33.5510   46.7430 C   0  0  0  0  0  0  0  0  0  0  0  0
   59.5240   33.2040   48.1490 C   0  0  0  0  0  0  0  0  0  0  0  0
   60.9700   33.4730   48.9680 S   0  0  0  0  0  0  0  0  0  0  0  0
   60.4930   32.8190   50.4450 C   0  0  0  0  0  0  0  0  0  0  0  0
   61.3730   32.6730   51.6240 C   0  0  0  0  0  0  0  0  0  0  0  0
   62.6110   32.8790   51.5190 O   0  0  0  0  0  0  0  0  0  0  0  0
   60.8350   32.3120   52.8990 N   0  0  0  0  0  0  0  0  0  0  0  0
   61.4650   32.2260   53.7270 H   0  0  0  0  0  0  0  0  0  0  0  0
   59.8180   32.1120   53.0250 H   0  0  0  0  0  0  0  0  0  0  0  0
   59.1680   32.3820   50.3110 C   0  0  0  0  0  0  0  0  0  0  0  0
   58.3720   31.7650   51.3840 C   0  0  0  0  0  0  0  0  0  0  0  0
   57.8930   30.6150   51.2090 O   0  0  0  0  0  0  0  0  0  0  0  0
   58.0940   32.4570   52.6070 N   0  0  0  0  0  0  0  0  0  0  0  0
   58.1260   33.9070   52.7450 C   0  0  0  0  0  0  0  0  0  0  0  0
   58.1319   34.1737   53.8122 H   0  0  0  0  0  0  0  0  0  0  0  0
   59.0331   34.3012   52.2635 H   0  0  0  0  0  0  0  0  0  0  0  0
   57.2372   34.3409   52.2635 H   0  0  0  0  0  0  0  0  0  0  0  0
   58.6370   32.5880   49.0280 C   0  0  0  0  0  0  0  0  0  0  0  0
   57.6167   32.2909   48.7439 H   0  0  0  0  0  0  0  0  0  0  0  0
   59.5790   34.8040   46.2160 C   0  0  0  0  0  0  0  0  0  0  0  0
   60.0779   35.5586   46.8418 H   0  0  0  0  0  0  0  0  0  0  0  0
   59.2750   35.0740   44.8830 C   0  0  0  0  0  0  0  0  0  0  0  0
   59.5330   36.0500   44.4462 H   0  0  0  0  0  0  0  0  0  0  0  0
   58.6600   34.1310   44.1240 N   0  0  0  0  0  0  0  0  0  0  0  0
   58.2140   29.7460   44.8300 C   0  0  0  0  0  0  0  0  0  0  0  0
   59.2900   29.9721   44.8646 H   0  0  0  0  0  0  0  0  0  0  0  0
   57.7470   28.5040   45.2660 C   0  0  0  0  0  0  0  0  0  0  0  0
   58.4526   27.7425   45.6298 H   0  0  0  0  0  0  0  0  0  0  0  0
  1  2  1  0
  2  3  2  0
  3  4  1  0
  4  5  1  0
  5  6  1  0
  5  7  2  0
  7  8  1  0
  8  9  2  3
  9 10  1  0
 10 11  2  0
 11 12  1  0
 12 13  1  0
 13 14  1  0
 14 15  1  0
 15 16  2  0
 15 17  1  0
 17 18  1  0
 17 19  1  0
 14 20  2  0
 20 21  1  0
 21 22  2  0
 21 23  1  0
 23 24  1  0
 24 25  1  0
 24 26  1  0
 24 27  1  0
 20 28  1  0
 28 29  1  0
 11 30  1  0
 30 31  1  0
 30 32  2  0
 32 33  1  0
 32 34  1  0
  7 35  1  0
 35 36  1  0
 35 37  2  0
 37 38  1  0
 37  3  1  0
 34  9  1  0
 28 12  2  0
M  CHG  3   4  -1  23  -1  34  -1
M  END
>  <UniqueID>  (49) 
45

>  <SMILES>  (49) 
[H]/N=c1/ccc(N=c2nc(-c3cc(C(=O)[N-]C)c(C(N)=O)s3)cc[n-]2)c[n-]1

>  <Energy>  (49) 
78.77609753645696

>  <Genealogy>  (49) 
C[N-]C(=O)c1cc(-c2cc[n-]c(=Nc3ccc(=N)[n-]c3)n2)sc1C(N)=O (protonated)
[H]/N=c1/ccc(N=c2nc(-c3cc(C(=O)[N-]C)c(C(N)=O)s3)cc[n-]2)c[n-]1 (cis-trans isomerization)
[H]/N=c1/ccc(N=c2nc(-c3cc(C(=O)[N-]C)c(C(N)=O)s3)cc[n-]2)c[n-]1 (3D coordinates assigned)
[H]/N=c1/ccc(N=c2nc(-c3cc(C(=O)[N-]C)c(C(N)=O)s3)cc[n-]2)c[n-]1 (optimized conformer: 78.77609753645696 kcal/mol)

>  <smiles>  (49) 
CNC(=O)c1cc(-c2cc[nH]c(=Nc3ccc(=N)[nH]c3)n2)sc1C(N)=O

>  <score_type>  (49) 
oracle

>  <origin>  (49) 
adg

>  <m_score__min__energy>  (49) 
-11.81

>  <m_primary>  (49) 
energy

$$$$
49:0
     RDKit          3D

 37 39  0  0  0  0  0  0  0  0999 V2000
   59.3780   28.6440   48.9680 O   0  0  0  0  0  0  0  0  0  0  0  0
   59.1750   29.8390   48.6160 C   0  0  0  0  0  0  0  0  0  0  0  0
   59.3740   30.2390   47.2490 N   0  0  0  0  0  0  0  0  0  0  0  0
   58.5710   30.9760   46.5400 C   0  0  0  0  0  0  0  0  0  0  0  0
   57.5160   30.5060   45.8390 N   0  0  0  0  0  0  0  0  0  0  0  0
   56.8540   31.4660   45.1960 N   0  0  0  0  0  0  0  0  0  0  0  0
   57.3750   32.7010   45.3810 C   0  0  0  0  0  0  0  0  0  0  0  0
   58.7290   32.6410   46.3850 S   0  0  0  0  0  0  0  0  0  0  0  0
   58.7300   30.8350   49.6200 C   0  0  0  0  0  0  0  0  0  0  0  0
   59.2720   32.1340   49.6260 C   0  0  0  0  0  0  0  0  0  0  0  0
   58.8460   33.0750   50.5660 C   0  0  0  0  0  0  0  0  0  0  0  0
   57.8810   32.7340   51.5140 C   0  0  0  0  0  0  0  0  0  0  0  0
   57.3390   31.4400   51.5360 C   0  0  0  0  0  0  0  0  0  0  0  0
   56.2730   31.0850   52.5320 C   0  0  0  0  0  0  0  0  0  0  0  0
   55.8090   29.7260   52.2720 N   0  0  0  0  0  0  0  0  0  0  0  0
   54.1890   29.5330   52.8660 S   0  0  0  0  0  0  0  0  0  0  0  0
   53.8390   28.0700   52.8810 O   0  0  0  0  0  0  0  0  0  0  0  0
   54.0950   30.0610   54.2710 O   0  0  0  0  0  0  0  0  0  0  0  0
   53.0550   30.3810   51.8170 C   0  0  0  0  0  0  0  0  0  0  0  0
   52.6870   29.8410   50.5750 C   0  0  0  0  0  0  0  0  0  0  0  0
   51.7720   30.5130   49.7610 C   0  0  0  0  0  0  0  0  0  0  0  0
   51.2140   31.7250   50.1830 C   0  0  0  0  0  0  0  0  0  0  0  0
   50.3040   32.3890   49.3690 O   0  0  0  0  0  0  0  0  0  0  0  0
   51.5740   32.2650   51.4240 C   0  0  0  0  0  0  0  0  0  0  0  0
   51.0200   33.4670   51.8510 O   0  0  0  0  0  0  0  0  0  0  0  0
   52.4910   31.5920   52.2390 C   0  0  0  0  0  0  0  0  0  0  0  0
   57.7560   30.5000   50.5800 C   0  0  0  0  0  0  0  0  0  0  0  0
   56.9695   33.6216   44.9359 H   0  0  0  0  0  0  0  0  0  0  0  0
   60.0366   32.4100   48.8850 H   0  0  0  0  0  0  0  0  0  0  0  0
   59.2729   34.0887   50.5588 H   0  0  0  0  0  0  0  0  0  0  0  0
   57.5439   33.4821   52.2467 H   0  0  0  0  0  0  0  0  0  0  0  0
   56.6856   31.1448   53.5499 H   0  0  0  0  0  0  0  0  0  0  0  0
   55.4316   31.7875   52.4400 H   0  0  0  0  0  0  0  0  0  0  0  0
   53.1201   28.8863   50.2417 H   0  0  0  0  0  0  0  0  0  0  0  0
   51.4895   30.0886   48.7863 H   0  0  0  0  0  0  0  0  0  0  0  0
   52.7702   32.0155   53.2150 H   0  0  0  0  0  0  0  0  0  0  0  0
   57.3172   29.4913   50.5810 H   0  0  0  0  0  0  0  0  0  0  0  0
  1  2  2  0
  2  3  1  0
  3  4  2  3
  4  5  1  0
  5  6  1  0
  6  7  2  0
  7  8  1  0
  2  9  1  0
  9 10  2  0
 10 11  1  0
 11 12  2  0
 12 13  1  0
 13 14  1  0
 14 15  1  0
 15 16  1  0
 16 17  2  0
 16 18  2  0
 16 19  1  0
 19 20  2  0
 20 21  1  0
 21 22  2  0
 22 23  1  0
 22 24  1  0
 24 25  1  0
 24 26  2  0
 13 27  2  0
  8  4  1  0
 27  9  1  0
 26 19  1  0
  7 28  1  0
 10 29  1  0
 11 30  1  0
 12 31  1  0
 14 32  1  0
 14 33  1  0
 20 34  1  0
 21 35  1  0
 26 36  1  0
 27 37  1  0
M  CHG  4   5  -1  15  -1  23  -1  25  -1
M  END
>  <UniqueID>  (50) 
46

>  <SMILES>  (50) 
O=C(N=c1[n-]ncs1)c1cccc(C[N-]S(=O)(=O)c2ccc([O-])c([O-])c2)c1

>  <Energy>  (50) 
74.77175729954652

>  <Genealogy>  (50) 
O=C(N=c1[n-]ncs1)c1cccc(C[N-]S(=O)(=O)c2ccc([O-])c([O-])c2)c1 (protonated)
O=C(N=c1[n-]ncs1)c1cccc(C[N-]S(=O)(=O)c2ccc([O-])c([O-])c2)c1 (3D coordinates assigned)
O=C(N=c1[n-]ncs1)c1cccc(C[N-]S(=O)(=O)c2ccc([O-])c([O-])c2)c1 (optimized conformer: 74.77175729954652 kcal/mol)

>  <smiles>  (50) 
O=C(N=c1[nH]ncs1)c1cccc(CNS(=O)(=O)c2ccc(O)c(O)c2)c1

>  <score_type>  (50) 
oracle

>  <origin>  (50) 
adg

>  <m_score__min__energy>  (50) 
-18.710000000000001

>  <m_primary>  (50) 
energy

$$$$
50:0
     RDKit          3D

 32 34  0  0  0  0  0  0  0  0999 V2000
   55.9510   26.1650   46.7050 O   0  0  0  0  0  0  0  0  0  0  0  0
   56.5850   27.1010   46.1520 C   0  0  0  0  0  0  0  0  0  0  0  0
   58.0620   27.2500   46.3830 C   0  0  0  0  0  0  0  0  0  0  0  0
   58.4950   28.6370   46.1540 N   0  0  0  0  0  0  0  0  0  0  0  0
   59.5520   29.1690   46.9710 C   0  0  0  0  0  0  0  0  0  0  0  0
   60.7060   28.6670   46.9030 O   0  0  0  0  0  0  0  0  0  0  0  0
   59.2640   30.2120   48.0120 C   0  0  0  0  0  0  0  0  0  0  0  0
   59.3140   31.5490   47.4030 N   0  0  0  0  0  0  0  0  0  0  0  0
   58.1490   32.2390   47.2120 C   0  0  0  0  0  0  0  0  0  0  0  0
   58.1600   33.4920   46.6060 C   0  0  0  0  0  0  0  0  0  0  0  0
   59.3790   34.0200   46.1890 C   0  0  0  0  0  0  0  0  0  0  0  0
   59.4260   35.1500   45.6370 O   0  0  0  0  0  0  0  0  0  0  0  0
   60.5190   33.3100   46.3760 N   0  0  0  0  0  0  0  0  0  0  0  0
   60.5000   32.0870   46.9700 C   0  0  0  0  0  0  0  0  0  0  0  0
   61.5840   31.4600   47.1120 O   0  0  0  0  0  0  0  0  0  0  0  0
   57.8910   29.4120   45.0930 C   0  0  0  0  0  0  0  0  0  0  0  0
   58.5730   30.4760   44.4730 C   0  0  0  0  0  0  0  0  0  0  0  0
   57.9490   31.2200   43.4660 C   0  0  0  0  0  0  0  0  0  0  0  0
   56.6490   30.9050   43.0640 C   0  0  0  0  0  0  0  0  0  0  0  0
   55.9720   29.8370   43.6590 C   0  0  0  0  0  0  0  0  0  0  0  0
   56.5950   29.0840   44.6590 C   0  0  0  0  0  0  0  0  0  0  0  0
   55.9100   27.9770   45.2490 N   0  0  0  0  0  0  0  0  0  0  0  0
   58.2939   26.9676   47.4205 H   0  0  0  0  0  0  0  0  0  0  0  0
   58.5945   26.5959   45.6768 H   0  0  0  0  0  0  0  0  0  0  0  0
   58.2630   30.0401   48.4343 H   0  0  0  0  0  0  0  0  0  0  0  0
   60.0184   30.1474   48.8099 H   0  0  0  0  0  0  0  0  0  0  0  0
   57.1952   31.8002   47.5400 H   0  0  0  0  0  0  0  0  0  0  0  0
   57.2254   34.0533   46.4596 H   0  0  0  0  0  0  0  0  0  0  0  0
   59.5996   30.7231   44.7813 H   0  0  0  0  0  0  0  0  0  0  0  0
   58.4835   32.0551   42.9896 H   0  0  0  0  0  0  0  0  0  0  0  0
   56.1577   31.4980   42.2785 H   0  0  0  0  0  0  0  0  0  0  0  0
   54.9488   29.5887   43.3406 H   0  0  0  0  0  0  0  0  0  0  0  0
  1  2  2  0
  2  3  1  0
  3  4  1  0
  4  5  1  0
  5  6  2  0
  5  7  1  0
  7  8  1  0
  8  9  1  0
  9 10  2  0
 10 11  1  0
 11 12  2  0
 11 13  1  0
 13 14  1  0
 14 15  2  0
  4 16  1  0
 16 17  2  0
 17 18  1  0
 18 19  2  0
 19 20  1  0
 20 21  2  0
 21 22  1  0
 22  2  1  0
 14  8  1  0
 21 16  1  0
  3 23  1  0
  3 24  1  0
  7 25  1  0
  7 26  1  0
  9 27  1  0
 10 28  1  0
 17 29  1  0
 18 30  1  0
 19 31  1  0
 20 32  1  0
M  CHG  2  13  -1  22  -1
M  END
>  <UniqueID>  (51) 
47

>  <SMILES>  (51) 
O=C1CN(C(=O)Cn2ccc(=O)[n-]c2=O)c2ccccc2[N-]1

>  <Energy>  (51) 
42.67493298134615

>  <Genealogy>  (51) 
O=C1CN(C(=O)Cn2ccc(=O)[n-]c2=O)c2ccccc2[N-]1 (protonated)
O=C1CN(C(=O)Cn2ccc(=O)[n-]c2=O)c2ccccc2[N-]1 (3D coordinates assigned)
O=C1CN(C(=O)Cn2ccc(=O)[n-]c2=O)c2ccccc2[N-]1 (nonaromatic ring conformer: 42.67493298134615 kcal/mol)

>  <smiles>  (51) 
O=C1CN(C(=O)Cn2ccc(=O)[nH]c2=O)c2ccccc2N1

>  <score_type>  (51) 
oracle

>  <origin>  (51) 
adg

>  <m_score__min__energy>  (51) 
-10.6

>  <m_primary>  (51) 
energy

$$$$
51:0
     RDKit          3D

 38 39  0  0  0  0  0  0  0  0999 V2000
   55.8830   30.6180   44.6280 O   0  0  0  0  0  0  0  0  0  0  0  0
   57.0610   30.2100   44.4360 C   0  0  0  0  0  0  0  0  0  0  0  0
   58.1060   31.1610   44.1740 N   0  0  0  0  0  0  0  0  0  0  0  0
   57.8420   32.5890   44.0190 C   0  0  0  0  0  0  0  0  0  0  0  0
   58.4400   33.3590   45.1670 C   0  0  0  0  0  0  0  0  0  0  0  0
   59.0670   34.5930   44.9220 C   0  0  0  0  0  0  0  0  0  0  0  0
   59.6420   35.3150   45.9710 C   0  0  0  0  0  0  0  0  0  0  0  0
   59.5960   34.8130   47.2740 C   0  0  0  0  0  0  0  0  0  0  0  0
   58.9770   33.5860   47.5290 C   0  0  0  0  0  0  0  0  0  0  0  0
   58.4000   32.8570   46.4830 C   0  0  0  0  0  0  0  0  0  0  0  0
   57.8070   31.6680   46.7570 F   0  0  0  0  0  0  0  0  0  0  0  0
   57.3440   28.7560   44.5040 C   0  0  0  0  0  0  0  0  0  0  0  0
   57.8640   28.0550   43.4030 C   0  0  0  0  0  0  0  0  0  0  0  0
   58.1150   26.6850   43.4970 C   0  0  0  0  0  0  0  0  0  0  0  0
   57.8380   26.0150   44.6890 C   0  0  0  0  0  0  0  0  0  0  0  0
   58.0900   24.6430   44.7810 O   0  0  0  0  0  0  0  0  0  0  0  0
   57.0700   23.6860   45.0500 C   0  0  0  0  0  0  0  0  0  0  0  0
   55.7300   24.1670   44.4910 C   0  0  0  0  0  0  0  0  0  0  0  0
   54.7090   24.4910   45.5880 C   0  0  0  0  0  0  0  0  0  0  0  0
   55.1820   24.0860   46.8230 F   0  0  0  0  0  0  0  0  0  0  0  0
   53.5290   23.8230   45.3230 F   0  0  0  0  0  0  0  0  0  0  0  0
   54.4540   25.8510   45.6200 F   0  0  0  0  0  0  0  0  0  0  0  0
   57.3230   26.7020   45.7460 N   0  0  0  0  0  0  0  0  0  0  0  0
   57.0690   28.0370   45.6800 C   0  0  0  0  0  0  0  0  0  0  0  0
   59.1020   30.8480   44.1500 H   0  0  0  0  0  0  0  0  0  0  0  0
   58.2866   32.9399   43.0760 H   0  0  0  0  0  0  0  0  0  0  0  0
   56.7543   32.7524   44.0067 H   0  0  0  0  0  0  0  0  0  0  0  0
   59.1052   34.9928   43.8979 H   0  0  0  0  0  0  0  0  0  0  0  0
   60.1314   36.2796   45.7707 H   0  0  0  0  0  0  0  0  0  0  0  0
   60.0470   35.3835   48.0993 H   0  0  0  0  0  0  0  0  0  0  0  0
   58.9433   33.1920   48.5555 H   0  0  0  0  0  0  0  0  0  0  0  0
   58.0741   28.5875   42.4637 H   0  0  0  0  0  0  0  0  0  0  0  0
   58.5284   26.1375   42.6371 H   0  0  0  0  0  0  0  0  0  0  0  0
   57.3372   22.7287   44.5787 H   0  0  0  0  0  0  0  0  0  0  0  0
   56.9781   23.5574   46.1386 H   0  0  0  0  0  0  0  0  0  0  0  0
   55.9039   25.0744   43.8940 H   0  0  0  0  0  0  0  0  0  0  0  0
   55.3136   23.3508   43.8824 H   0  0  0  0  0  0  0  0  0  0  0  0
   56.6459   28.5568   46.5522 H   0  0  0  0  0  0  0  0  0  0  0  0
  1  2  2  0
  2  3  1  0
  3  4  1  0
  4  5  1  0
  5  6  2  0
  6  7  1  0
  7  8  2  0
  8  9  1  0
  9 10  2  0
 10 11  1  0
  2 12  1  0
 12 13  2  0
 13 14  1  0
 14 15  2  0
 15 16  1  0
 16 17  1  0
 17 18  1  0
 18 19  1  0
 19 20  1  0
 19 21  1  0
 19 22  1  0
 15 23  1  0
 23 24  2  0
 10  5  1  0
 24 12  1  0
  3 25  1  0
  4 26  1  0
  4 27  1  0
  6 28  1  0
  7 29  1  0
  8 30  1  0
  9 31  1  0
 13 32  1  0
 14 33  1  0
 17 34  1  0
 17 35  1  0
 18 36  1  0
 18 37  1  0
 24 38  1  0
M  END
>  <UniqueID>  (52) 
48

>  <SMILES>  (52) 
O=C(NCc1ccccc1F)c1ccc(OCCC(F)(F)F)nc1

>  <Energy>  (52) 
33.89299387684582

>  <Genealogy>  (52) 
O=C(NCc1ccccc1F)c1ccc(OCCC(F)(F)F)nc1 (3D coordinates assigned)
O=C(NCc1ccccc1F)c1ccc(OCCC(F)(F)F)nc1 (optimized conformer: 33.89299387684582 kcal/mol)

>  <smiles>  (52) 
O=C(NCc1ccccc1F)c1ccc(OCCC(F)(F)F)nc1

>  <score_type>  (52) 
oracle

>  <origin>  (52) 
adg

>  <m_score__min__energy>  (52) 
-6.4199999999999999

>  <m_primary>  (52) 
energy

$$$$
52:0
     RDKit          3D

 61 65  0  0  0  0  0  0  0  0999 V2000
   61.3012   29.6084   45.1034 H   0  0  0  0  0  0  0  0  0  0  0  0
   60.5070   29.5360   45.8610 C   0  0  0  0  0  0  0  0  0  0  0  0
   59.2360   29.2400   45.4840 N   0  0  0  0  0  0  0  0  0  0  0  0
   58.2140   29.1450   46.3770 C   0  0  0  0  0  0  0  0  0  0  0  0
   57.0310   28.8360   45.9240 N   0  0  0  0  0  0  0  0  0  0  0  0
   56.3140   29.4090   44.8170 C   0  0  0  0  0  0  0  0  0  0  0  0
   55.1500   29.0100   44.5380 O   0  0  0  0  0  0  0  0  0  0  0  0
   56.9140   30.5270   44.0500 C   0  0  0  0  0  0  0  0  0  0  0  0
   56.8420   30.5500   42.6470 C   0  0  0  0  0  0  0  0  0  0  0  0
   56.3721   29.7126   42.1103 H   0  0  0  0  0  0  0  0  0  0  0  0
   57.3630   31.6290   41.9290 C   0  0  0  0  0  0  0  0  0  0  0  0
   57.2904   31.6428   40.8315 H   0  0  0  0  0  0  0  0  0  0  0  0
   57.9750   32.6890   42.5980 C   0  0  0  0  0  0  0  0  0  0  0  0
   58.3559   33.5485   42.0269 H   0  0  0  0  0  0  0  0  0  0  0  0
   58.1080   32.6660   43.9960 C   0  0  0  0  0  0  0  0  0  0  0  0
   58.7390   33.8420   44.7330 C   0  0  0  0  0  0  0  0  0  0  0  0
   59.4623   34.3121   44.0505 H   0  0  0  0  0  0  0  0  0  0  0  0
   57.8942   34.4828   45.0255 H   0  0  0  0  0  0  0  0  0  0  0  0
   59.4520   33.5380   46.0030 N   0  0  0  0  0  0  0  0  0  0  0  0
   60.1580   34.6720   46.6150 C   0  0  0  0  0  0  0  0  0  0  0  0
   61.2159   34.4631   46.8324 H   0  0  0  0  0  0  0  0  0  0  0  0
   60.2557   35.6071   46.0440 H   0  0  0  0  0  0  0  0  0  0  0  0
   59.2730   34.6560   47.8490 C   0  0  0  0  0  0  0  0  0  0  0  0
   59.7922   34.4369   48.7937 H   0  0  0  0  0  0  0  0  0  0  0  0
   58.7196   35.5398   48.1992 H   0  0  0  0  0  0  0  0  0  0  0  0
   58.5970   33.4660   47.1940 C   0  0  0  0  0  0  0  0  0  0  0  0
   58.7142   32.5303   47.7604 H   0  0  0  0  0  0  0  0  0  0  0  0
   57.5049   33.4826   47.0639 H   0  0  0  0  0  0  0  0  0  0  0  0
   57.5410   31.5970   44.7160 C   0  0  0  0  0  0  0  0  0  0  0  0
   57.5887   31.5980   45.8150 H   0  0  0  0  0  0  0  0  0  0  0  0
   58.4850   29.3390   47.7490 C   0  0  0  0  0  0  0  0  0  0  0  0
   57.6786   29.2376   48.4902 H   0  0  0  0  0  0  0  0  0  0  0  0
   59.7880   29.6620   48.1650 C   0  0  0  0  0  0  0  0  0  0  0  0
   60.0810   29.8500   49.6070 C   0  0  0  0  0  0  0  0  0  0  0  0
   61.1690   29.4130   50.0710 O   0  0  0  0  0  0  0  0  0  0  0  0
   59.1260   30.5170   50.5220 C   0  0  0  0  0  0  0  0  0  0  0  0
   58.0840   29.9140   51.2210 C   0  0  0  0  0  0  0  0  0  0  0  0
   57.8226   28.8475   51.1561 H   0  0  0  0  0  0  0  0  0  0  0  0
   57.4350   30.8210   51.9930 N   0  0  0  0  0  0  0  0  0  0  0  0
   56.2820   30.5430   52.8660 C   0  0  0  0  0  0  0  0  0  0  0  0
   56.3366   31.1999   53.7466 H   0  0  0  0  0  0  0  0  0  0  0  0
   56.3210   29.0930   53.3540 C   0  0  0  0  0  0  0  0  0  0  0  0
   56.3215   29.0762   54.4539 H   0  0  0  0  0  0  0  0  0  0  0  0
   55.4370   28.5562   52.9794 H   0  0  0  0  0  0  0  0  0  0  0  0
   57.2326   28.6045   52.9794 H   0  0  0  0  0  0  0  0  0  0  0  0
   54.9720   30.8440   52.1310 C   0  0  0  0  0  0  0  0  0  0  0  0
   54.1735   31.0275   52.8650 H   0  0  0  0  0  0  0  0  0  0  0  0
   55.1021   31.7357   51.5001 H   0  0  0  0  0  0  0  0  0  0  0  0
   54.6998   29.9850   51.5001 H   0  0  0  0  0  0  0  0  0  0  0  0
   58.0720   31.9970   51.7960 C   0  0  0  0  0  0  0  0  0  0  0  0
   57.7990   33.2480   52.3550 C   0  0  0  0  0  0  0  0  0  0  0  0
   56.9700   33.3774   53.0664 H   0  0  0  0  0  0  0  0  0  0  0  0
   58.5850   34.3070   51.9980 N   0  0  0  0  0  0  0  0  0  0  0  0
   58.3890   35.2470   52.4090 H   0  0  0  0  0  0  0  0  0  0  0  0
   59.6230   34.1710   51.1130 C   0  0  0  0  0  0  0  0  0  0  0  0
   60.2347   35.0470   50.8513 H   0  0  0  0  0  0  0  0  0  0  0  0
   59.9120   32.9240   50.5380 C   0  0  0  0  0  0  0  0  0  0  0  0
   60.7384   32.8019   49.8223 H   0  0  0  0  0  0  0  0  0  0  0  0
   59.1100   31.8460   50.9100 C   0  0  0  0  0  0  0  0  0  0  0  0
   60.8070   29.7480   47.2040 C   0  0  0  0  0  0  0  0  0  0  0  0
   61.8374   29.9817   47.5101 H   0  0  0  0  0  0  0  0  0  0  0  0
  1  2  1  0
  2  3  1  0
  3  4  1  0
  4  5  2  0
  5  6  1  0
  6  7  2  0
  6  8  1  0
  8  9  2  0
  9 10  1  0
  9 11  1  0
 11 12  1  0
 11 13  2  0
 13 14  1  0
 13 15  1  0
 15 16  1  0
 16 17  1  0
 16 18  1  0
 16 19  1  0
 19 20  1  0
 20 21  1  0
 20 22  1  0
 20 23  1  0
 23 24  1  0
 23 25  1  0
 23 26  1  0
 26 27  1  0
 26 28  1  0
 15 29  2  0
 29 30  1  0
  4 31  1  0
 31 32  1  0
 31 33  2  0
 33 34  1  0
 34 35  2  0
 34 36  1  0
 36 37  2  0
 37 38  1  0
 37 39  1  0
 39 40  1  0
 40 41  1  0
 40 42  1  0
 42 43  1  0
 42 44  1  0
 42 45  1  0
 40 46  1  0
 46 47  1  0
 46 48  1  0
 46 49  1  0
 39 50  1  0
 50 51  2  0
 51 52  1  0
 51 53  1  0
 53 54  1  0
 53 55  2  0
 55 56  1  0
 55 57  1  0
 57 58  1  0
 57 59  2  0
 33 60  1  0
 60 61  1  0
 60  2  2  0
 29  8  1  0
 59 36  1  0
 26 19  1  0
 59 50  1  0
M  CHG  2   3  -1  53   1
M  END
>  <UniqueID>  (53) 
49

>  <SMILES>  (53) 
CC(C)n1cc(C(=O)c2cc[n-]/c(=N/C(=O)c3cccc(CN4CCC4)c3)c2)c2cc[nH+]cc21

>  <Energy>  (53) 
187.38195362484956

>  <Genealogy>  (53) 
CC(C)n1cc(C(=O)c2cc[n-]c(=NC(=O)c3cccc(CN4CCC4)c3)c2)c2cc[nH+]cc21 (protonated)
CC(C)n1cc(C(=O)c2cc[n-]/c(=N/C(=O)c3cccc(CN4CCC4)c3)c2)c2cc[nH+]cc21 (cis-trans isomerization)
CC(C)n1cc(C(=O)c2cc[n-]/c(=N/C(=O)c3cccc(CN4CCC4)c3)c2)c2cc[nH+]cc21 (3D coordinates assigned)
CC(C)n1cc(C(=O)c2cc[n-]/c(=N/C(=O)c3cccc(CN4CCC4)c3)c2)c2cc[nH+]cc21 (nonaromatic ring conformer: 187.38195362484956 kcal/mol)

>  <smiles>  (53) 
CC(C)n1cc(C(=O)c2cc[nH]c(=NC(=O)c3cccc(CN4CCC4)c3)c2)c2ccncc21

>  <score_type>  (53) 
oracle

>  <origin>  (53) 
adg

>  <m_score__min__energy>  (53) 
-10.66

>  <m_primary>  (53) 
energy

$$$$
53:0
     RDKit          3D

 44 46  0  0  0  0  0  0  0  0999 V2000
   56.4180   28.3830   54.1110 O   0  0  0  0  0  0  0  0  0  0  0  0
   55.6870   28.7710   53.1620 C   0  0  0  0  0  0  0  0  0  0  0  0
   54.1910   28.6320   53.2740 C   0  0  0  0  0  0  0  0  0  0  0  0
   53.5450   29.9450   53.7330 C   0  0  0  0  0  0  0  0  0  0  0  0
   52.8020   30.5920   52.5960 C   0  0  0  0  0  0  0  0  0  0  0  0
   52.8410   30.0270   51.3100 C   0  0  0  0  0  0  0  0  0  0  0  0
   52.1210   30.6100   50.2620 C   0  0  0  0  0  0  0  0  0  0  0  0
   51.3500   31.7540   50.4910 C   0  0  0  0  0  0  0  0  0  0  0  0
   50.6380   32.3280   49.4450 O   0  0  0  0  0  0  0  0  0  0  0  0
   51.2950   32.3140   51.7730 C   0  0  0  0  0  0  0  0  0  0  0  0
   50.5250   33.4480   52.0070 O   0  0  0  0  0  0  0  0  0  0  0  0
   52.0140   31.7340   52.8220 C   0  0  0  0  0  0  0  0  0  0  0  0
   56.3070   29.3700   52.0160 N   0  0  0  0  0  0  0  0  0  0  0  0
   57.0420   30.6020   51.9930 C   0  0  0  0  0  0  0  0  0  0  0  0
   56.9580   31.5280   53.0450 C   0  0  0  0  0  0  0  0  0  0  0  0
   57.6770   32.7250   52.9860 C   0  0  0  0  0  0  0  0  0  0  0  0
   58.4610   33.0220   51.8680 C   0  0  0  0  0  0  0  0  0  0  0  0
   59.2190   34.1870   51.8650 O   0  0  0  0  0  0  0  0  0  0  0  0
   58.4970   32.1300   50.7770 C   0  0  0  0  0  0  0  0  0  0  0  0
   59.2800   32.3920   49.6050 N   0  0  0  0  0  0  0  0  0  0  0  0
   58.9350   32.0050   48.2680 C   0  0  0  0  0  0  0  0  0  0  0  0
   58.7050   30.7920   48.0060 O   0  0  0  0  0  0  0  0  0  0  0  0
   58.8990   33.0160   47.1860 C   0  0  0  0  0  0  0  0  0  0  0  0
   58.0260   32.8630   46.0920 C   0  0  0  0  0  0  0  0  0  0  0  0
   57.9970   33.8180   45.0710 C   0  0  0  0  0  0  0  0  0  0  0  0
   58.8360   34.9330   45.1290 C   0  0  0  0  0  0  0  0  0  0  0  0
   59.7070   35.0950   46.2090 C   0  0  0  0  0  0  0  0  0  0  0  0
   59.7410   34.1440   47.2320 C   0  0  0  0  0  0  0  0  0  0  0  0
   57.8010   30.9170   50.8600 C   0  0  0  0  0  0  0  0  0  0  0  0
   53.7818   28.3551   52.2912 H   0  0  0  0  0  0  0  0  0  0  0  0
   53.9682   27.8547   54.0198 H   0  0  0  0  0  0  0  0  0  0  0  0
   52.8417   29.7354   54.5524 H   0  0  0  0  0  0  0  0  0  0  0  0
   54.3348   30.6290   54.0770 H   0  0  0  0  0  0  0  0  0  0  0  0
   53.4400   29.1228   51.1267 H   0  0  0  0  0  0  0  0  0  0  0  0
   52.1613   30.1677   49.2557 H   0  0  0  0  0  0  0  0  0  0  0  0
   51.9630   32.1733   53.8292 H   0  0  0  0  0  0  0  0  0  0  0  0
   56.3247   31.3108   53.9178 H   0  0  0  0  0  0  0  0  0  0  0  0
   57.6255   33.4365   53.8233 H   0  0  0  0  0  0  0  0  0  0  0  0
   57.3628   31.9870   46.0402 H   0  0  0  0  0  0  0  0  0  0  0  0
   57.3117   33.6907   44.2200 H   0  0  0  0  0  0  0  0  0  0  0  0
   58.8109   35.6831   44.3248 H   0  0  0  0  0  0  0  0  0  0  0  0
   60.3677   35.9733   46.2542 H   0  0  0  0  0  0  0  0  0  0  0  0
   60.4301   34.2772   48.0790 H   0  0  0  0  0  0  0  0  0  0  0  0
   57.8516   30.2034   50.0244 H   0  0  0  0  0  0  0  0  0  0  0  0
  1  2  2  0
  2  3  1  0
  3  4  1  0
  4  5  1  0
  5  6  2  0
  6  7  1  0
  7  8  2  0
  8  9  1  0
  8 10  1  0
 10 11  1  0
 10 12  2  0
  2 13  1  0
 13 14  1  0
 14 15  2  0
 15 16  1  0
 16 17  2  0
 17 18  1  0
 17 19  1  0
 19 20  1  0
 20 21  1  0
 21 22  2  0
 21 23  1  0
 23 24  2  0
 24 25  1  0
 25 26  2  0
 26 27  1  0
 27 28  2  0
 19 29  2  0
 12  5  1  0
 29 14  1  0
 28 23  1  0
  3 30  1  0
  3 31  1  0
  4 32  1  0
  4 33  1  0
  6 34  1  0
  7 35  1  0
 12 36  1  0
 15 37  1  0
 16 38  1  0
 24 39  1  0
 25 40  1  0
 26 41  1  0
 27 42  1  0
 28 43  1  0
 29 44  1  0
M  CHG  5   9  -1  11  -1  13  -1  18  -1  20  -1
M  END
>  <UniqueID>  (54) 
50

>  <SMILES>  (54) 
O=C(CCc1ccc([O-])c([O-])c1)[N-]c1ccc([O-])c([N-]C(=O)c2ccccc2)c1

>  <Energy>  (54) 
55.51400230715966

>  <Genealogy>  (54) 
O=C(CCc1ccc([O-])c([O-])c1)[N-]c1ccc([O-])c([N-]C(=O)c2ccccc2)c1 (protonated)
O=C(CCc1ccc([O-])c([O-])c1)[N-]c1ccc([O-])c([N-]C(=O)c2ccccc2)c1 (3D coordinates assigned)
O=C(CCc1ccc([O-])c([O-])c1)[N-]c1ccc([O-])c([N-]C(=O)c2ccccc2)c1 (optimized conformer: 55.51400230715966 kcal/mol)

>  <smiles>  (54) 
O=C(CCc1ccc(O)c(O)c1)Nc1ccc(O)c(NC(=O)c2ccccc2)c1

>  <score_type>  (54) 
oracle

>  <origin>  (54) 
adg

>  <m_score__min__energy>  (54) 
-20.379999999999999

>  <m_primary>  (54) 
energy

$$$$
54:0
     RDKit          3D

 66 69  0  0  0  0  0  0  0  0999 V2000
   50.6860   25.0680   44.5050 C   0  0  0  0  0  0  0  0  0  0  0  0
   52.1230   24.0200   44.5480 S   0  0  0  0  0  0  0  0  0  0  0  0
   52.5430   23.7250   43.1340 O   0  0  0  0  0  0  0  0  0  0  0  0
   51.8010   22.7240   45.2390 O   0  0  0  0  0  0  0  0  0  0  0  0
   53.4190   24.8310   45.3710 N   0  0  0  0  0  0  0  0  0  0  0  0
   54.8100   24.5060   45.2390 C   0  0  0  0  0  0  0  0  0  0  0  0
   55.2370   23.2580   44.7530 C   0  0  0  0  0  0  0  0  0  0  0  0
   56.5980   22.9890   44.6030 C   0  0  0  0  0  0  0  0  0  0  0  0
   57.5470   23.9400   44.9700 C   0  0  0  0  0  0  0  0  0  0  0  0
   57.1470   25.1710   45.5230 C   0  0  0  0  0  0  0  0  0  0  0  0
   58.1780   26.1700   46.0180 C   0  0  0  0  0  0  0  0  0  0  0  0
   58.0270   27.4820   45.3470 N   0  0  0  0  0  0  0  0  0  0  0  0
   58.1170   28.6790   46.0310 C   0  0  0  0  0  0  0  0  0  0  0  0
   58.3010   28.7670   47.5010 C   0  0  0  0  0  0  0  0  0  0  0  0
   58.1420   27.7530   48.2320 O   0  0  0  0  0  0  0  0  0  0  0  0
   58.5670   30.0420   48.0950 N   0  0  0  0  0  0  0  0  0  0  0  0
   59.8870   30.4880   48.5320 C   0  0  0  0  0  0  0  0  0  0  0  0
   60.8200   30.7480   47.3380 C   0  0  0  0  0  0  0  0  0  0  0  0
   61.9320   31.7070   47.6850 C   0  0  0  0  0  0  0  0  0  0  0  0
   62.6300   31.5740   48.8960 C   0  0  0  0  0  0  0  0  0  0  0  0
   63.6990   32.4270   49.1910 C   0  0  0  0  0  0  0  0  0  0  0  0
   64.0760   33.4190   48.2790 C   0  0  0  0  0  0  0  0  0  0  0  0
   63.3880   33.5560   47.0710 C   0  0  0  0  0  0  0  0  0  0  0  0
   62.3200   32.7040   46.7720 C   0  0  0  0  0  0  0  0  0  0  0  0
   57.9780   29.8890   45.3350 C   0  0  0  0  0  0  0  0  0  0  0  0
   57.6870   29.8650   43.9720 C   0  0  0  0  0  0  0  0  0  0  0  0
   57.4210   31.1070   43.2230 C   0  0  0  0  0  0  0  0  0  0  0  0
   56.6700   31.0950   42.2100 O   0  0  0  0  0  0  0  0  0  0  0  0
   58.0580   32.3240   43.6270 N   0  0  0  0  0  0  0  0  0  0  0  0
   57.3980   33.3520   44.4210 C   0  0  0  0  0  0  0  0  0  0  0  0
   58.2150   33.6880   45.6390 C   0  0  0  0  0  0  0  0  0  0  0  0
   57.9460   33.0770   46.8750 C   0  0  0  0  0  0  0  0  0  0  0  0
   58.6910   33.4190   48.0070 C   0  0  0  0  0  0  0  0  0  0  0  0
   59.7130   34.3690   47.9120 C   0  0  0  0  0  0  0  0  0  0  0  0
   60.4240   34.7120   49.0130 F   0  0  0  0  0  0  0  0  0  0  0  0
   59.9960   34.9730   46.6830 C   0  0  0  0  0  0  0  0  0  0  0  0
   59.2480   34.6360   45.5500 C   0  0  0  0  0  0  0  0  0  0  0  0
   57.5900   28.6720   43.3400 N   0  0  0  0  0  0  0  0  0  0  0  0
   57.7660   27.4990   43.9960 C   0  0  0  0  0  0  0  0  0  0  0  0
   57.6700   26.4220   43.3440 O   0  0  0  0  0  0  0  0  0  0  0  0
   55.7690   25.4620   45.6140 C   0  0  0  0  0  0  0  0  0  0  0  0
   55.3460   26.6970   46.0950 O   0  0  0  0  0  0  0  0  0  0  0  0
   50.3696   25.2988   45.5329 H   0  0  0  0  0  0  0  0  0  0  0  0
   50.9292   26.0023   43.9777 H   0  0  0  0  0  0  0  0  0  0  0  0
   49.8707   24.5509   43.9777 H   0  0  0  0  0  0  0  0  0  0  0  0
   54.4949   22.4899   44.4897 H   0  0  0  0  0  0  0  0  0  0  0  0
   56.9228   22.0213   44.1930 H   0  0  0  0  0  0  0  0  0  0  0  0
   58.6167   23.7276   44.8267 H   0  0  0  0  0  0  0  0  0  0  0  0
   58.0522   26.3062   47.1023 H   0  0  0  0  0  0  0  0  0  0  0  0
   59.1790   25.7768   45.7868 H   0  0  0  0  0  0  0  0  0  0  0  0
   59.7768   31.4185   49.1083 H   0  0  0  0  0  0  0  0  0  0  0  0
   60.3316   29.6939   49.1498 H   0  0  0  0  0  0  0  0  0  0  0  0
   61.2622   29.7927   47.0188 H   0  0  0  0  0  0  0  0  0  0  0  0
   60.2220   31.1998   46.5329 H   0  0  0  0  0  0  0  0  0  0  0  0
   62.3352   30.7961   49.6156 H   0  0  0  0  0  0  0  0  0  0  0  0
   64.2435   32.3177   50.1405 H   0  0  0  0  0  0  0  0  0  0  0  0
   64.9145   34.0913   48.5134 H   0  0  0  0  0  0  0  0  0  0  0  0
   63.6866   34.3350   46.3540 H   0  0  0  0  0  0  0  0  0  0  0  0
   61.7814   32.8140   45.8192 H   0  0  0  0  0  0  0  0  0  0  0  0
   58.0976   30.8481   45.8601 H   0  0  0  0  0  0  0  0  0  0  0  0
   57.2735   34.2572   43.8085 H   0  0  0  0  0  0  0  0  0  0  0  0
   56.4175   32.9736   44.7456 H   0  0  0  0  0  0  0  0  0  0  0  0
   57.1457   32.3263   46.9522 H   0  0  0  0  0  0  0  0  0  0  0  0
   58.4734   32.9406   48.9733 H   0  0  0  0  0  0  0  0  0  0  0  0
   60.8065   35.7128   46.6072 H   0  0  0  0  0  0  0  0  0  0  0  0
   59.4696   35.1154   44.5851 H   0  0  0  0  0  0  0  0  0  0  0  0
  1  2  1  0
  2  3  2  0
  2  4  2  0
  2  5  1  0
  5  6  1  0
  6  7  2  0
  7  8  1  0
  8  9  2  0
  9 10  1  0
 10 11  1  0
 11 12  1  0
 12 13  1  0
 13 14  1  0
 14 15  2  0
 14 16  1  0
 16 17  1  0
 17 18  1  0
 18 19  1  0
 19 20  2  0
 20 21  1  0
 21 22  2  0
 22 23  1  0
 23 24  2  0
 13 25  2  0
 25 26  1  0
 26 27  1  0
 27 28  2  0
 27 29  1  0
 29 30  1  0
 30 31  1  0
 31 32  2  0
 32 33  1  0
 33 34  2  0
 34 35  1  0
 34 36  1  0
 36 37  2  0
 26 38  2  0
 38 39  1  0
 39 40  2  0
 10 41  2  0
 41 42  1  0
 41  6  1  0
 39 12  1  0
 24 19  1  0
 37 31  1  0
  1 43  1  0
  1 44  1  0
  1 45  1  0
  7 46  1  0
  8 47  1  0
  9 48  1  0
 11 49  1  0
 11 50  1  0
 17 51  1  0
 17 52  1  0
 18 53  1  0
 18 54  1  0
 20 55  1  0
 21 56  1  0
 22 57  1  0
 23 58  1  0
 24 59  1  0
 25 60  1  0
 30 61  1  0
 30 62  1  0
 32 63  1  0
 33 64  1  0
 36 65  1  0
 37 66  1  0
M  CHG  4   5  -1  16  -1  29  -1  42  -1
M  END
>  <UniqueID>  (55) 
51

>  <SMILES>  (55) 
CS(=O)(=O)[N-]c1cccc(Cn2c(C(=O)[N-]CCc3ccccc3)cc(C(=O)[N-]Cc3ccc(F)cc3)nc2=O)c1[O-]

>  <Energy>  (55) 
75.10241410552004

>  <Genealogy>  (55) 
CS(=O)(=O)[N-]c1cccc(Cn2c(C(=O)[N-]CCc3ccccc3)cc(C(=O)[N-]Cc3ccc(F)cc3)nc2=O)c1[O-] (protonated)
CS(=O)(=O)[N-]c1cccc(Cn2c(C(=O)[N-]CCc3ccccc3)cc(C(=O)[N-]Cc3ccc(F)cc3)nc2=O)c1[O-] (3D coordinates assigned)
CS(=O)(=O)[N-]c1cccc(Cn2c(C(=O)[N-]CCc3ccccc3)cc(C(=O)[N-]Cc3ccc(F)cc3)nc2=O)c1[O-] (optimized conformer: 75.10241410552004 kcal/mol)

>  <smiles>  (55) 
CS(=O)(=O)Nc1cccc(Cn2c(C(=O)NCCc3ccccc3)cc(C(=O)NCc3ccc(F)cc3)nc2=O)c1O

>  <score_type>  (55) 
oracle

>  <origin>  (55) 
adg

>  <m_score__min__energy>  (55) 
-17.760000000000002

>  <m_primary>  (55) 
energy

$$$$
55:0
     RDKit          3D

 66 70  0  0  0  0  0  0  0  0999 V2000
   58.0934   26.7464   44.5287 H   0  0  0  0  0  0  0  0  0  0  0  0
   57.7750   27.7970   44.5990 C   0  0  0  0  0  0  0  0  0  0  0  0
   57.7480   28.4480   45.8430 C   0  0  0  0  0  0  0  0  0  0  0  0
   58.1830   27.7870   47.0350 N   0  0  0  0  0  0  0  0  0  0  0  0
   59.4390   27.1200   47.2130 C   0  0  0  0  0  0  0  0  0  0  0  0
   59.8870   26.4180   46.2650 O   0  0  0  0  0  0  0  0  0  0  0  0
   60.2820   27.3630   48.4420 C   0  0  0  0  0  0  0  0  0  0  0  0
   59.8969   26.7402   49.2629 H   0  0  0  0  0  0  0  0  0  0  0  0
   61.3212   27.1038   48.1914 H   0  0  0  0  0  0  0  0  0  0  0  0
   60.2620   28.8020   48.8780 C   0  0  0  0  0  0  0  0  0  0  0  0
   61.1370   29.6830   48.3260 N   0  0  0  0  0  0  0  0  0  0  0  0
   61.1500   30.9970   48.6830 C   0  0  0  0  0  0  0  0  0  0  0  0
   62.1000   31.8930   48.0640 N   0  0  0  0  0  0  0  0  0  0  0  0
   63.4810   31.9360   48.5640 C   0  0  0  0  0  0  0  0  0  0  0  0
   63.4782   31.7737   49.6520 H   0  0  0  0  0  0  0  0  0  0  0  0
   64.0661   31.1483   48.0668 H   0  0  0  0  0  0  0  0  0  0  0  0
   64.1150   33.2950   48.2580 C   0  0  0  0  0  0  0  0  0  0  0  0
   63.6223   34.0681   48.8659 H   0  0  0  0  0  0  0  0  0  0  0  0
   65.1875   33.2461   48.4975 H   0  0  0  0  0  0  0  0  0  0  0  0
   63.9700   33.6190   46.8890 O   0  0  0  0  0  0  0  0  0  0  0  0
   62.6010   33.8100   46.5940 C   0  0  0  0  0  0  0  0  0  0  0  0
   62.1880   34.5664   47.2776 H   0  0  0  0  0  0  0  0  0  0  0  0
   62.5112   34.1437   45.5497 H   0  0  0  0  0  0  0  0  0  0  0  0
   61.8160   32.5050   46.7580 C   0  0  0  0  0  0  0  0  0  0  0  0
   60.7394   32.7187   46.6850 H   0  0  0  0  0  0  0  0  0  0  0  0
   62.1189   31.8060   45.9646 H   0  0  0  0  0  0  0  0  0  0  0  0
   60.2560   31.4450   49.6150 N   0  0  0  0  0  0  0  0  0  0  0  0
   60.2220   32.4570   49.8720 H   0  0  0  0  0  0  0  0  0  0  0  0
   59.3500   30.6000   50.1840 C   0  0  0  0  0  0  0  0  0  0  0  0
   58.4170   31.0880   51.1570 N   0  0  0  0  0  0  0  0  0  0  0  0
   57.4440   30.1670   51.7510 C   0  0  0  0  0  0  0  0  0  0  0  0
   57.1157   29.4414   50.9922 H   0  0  0  0  0  0  0  0  0  0  0  0
   57.9111   29.6333   52.5918 H   0  0  0  0  0  0  0  0  0  0  0  0
   56.2320   30.9590   52.2590 C   0  0  0  0  0  0  0  0  0  0  0  0
   55.6831   31.3683   51.3981 H   0  0  0  0  0  0  0  0  0  0  0  0
   55.5885   30.2813   52.8392 H   0  0  0  0  0  0  0  0  0  0  0  0
   56.6380   32.0240   53.0980 O   0  0  0  0  0  0  0  0  0  0  0  0
   57.3910   32.9640   52.3520 C   0  0  0  0  0  0  0  0  0  0  0  0
   56.7999   33.2936   51.4848 H   0  0  0  0  0  0  0  0  0  0  0  0
   57.6286   33.8208   52.9996 H   0  0  0  0  0  0  0  0  0  0  0  0
   58.7010   32.3400   51.8600 C   0  0  0  0  0  0  0  0  0  0  0  0
   59.2040   33.0382   51.1748 H   0  0  0  0  0  0  0  0  0  0  0  0
   59.3530   32.1344   52.7217 H   0  0  0  0  0  0  0  0  0  0  0  0
   59.3300   29.2530   49.8150 C   0  0  0  0  0  0  0  0  0  0  0  0
   58.5952   28.5617   50.2535 H   0  0  0  0  0  0  0  0  0  0  0  0
   57.3910   29.7600   45.9050 N   0  0  0  0  0  0  0  0  0  0  0  0
   57.0210   30.4660   44.7980 C   0  0  0  0  0  0  0  0  0  0  0  0
   56.6820   31.7170   44.8880 N   0  0  0  0  0  0  0  0  0  0  0  0
   57.5120   32.8260   44.4270 C   0  0  0  0  0  0  0  0  0  0  0  0
   58.2752   32.4490   43.7303 H   0  0  0  0  0  0  0  0  0  0  0  0
   56.8835   33.5678   43.9125 H   0  0  0  0  0  0  0  0  0  0  0  0
   58.1830   33.4670   45.6070 C   0  0  0  0  0  0  0  0  0  0  0  0
   58.0980   32.8760   46.8810 C   0  0  0  0  0  0  0  0  0  0  0  0
   57.5119   31.9558   47.0214 H   0  0  0  0  0  0  0  0  0  0  0  0
   58.7580   33.4570   47.9700 C   0  0  0  0  0  0  0  0  0  0  0  0
   58.6808   32.9989   48.9671 H   0  0  0  0  0  0  0  0  0  0  0  0
   59.5160   34.6200   47.7920 C   0  0  0  0  0  0  0  0  0  0  0  0
   60.0330   35.0752   48.6496 H   0  0  0  0  0  0  0  0  0  0  0  0
   59.6170   35.2040   46.5260 C   0  0  0  0  0  0  0  0  0  0  0  0
   60.2163   36.1159   46.3874 H   0  0  0  0  0  0  0  0  0  0  0  0
   58.9560   34.6290   45.4350 C   0  0  0  0  0  0  0  0  0  0  0  0
   59.0414   35.0877   44.4389 H   0  0  0  0  0  0  0  0  0  0  0  0
   57.0120   29.8360   43.5480 C   0  0  0  0  0  0  0  0  0  0  0  0
   56.7069   30.3913   42.6488 H   0  0  0  0  0  0  0  0  0  0  0  0
   57.3940   28.4960   43.4530 C   0  0  0  0  0  0  0  0  0  0  0  0
   57.3945   27.9919   42.4753 H   0  0  0  0  0  0  0  0  0  0  0  0
  1  2  1  0
  2  3  2  0
  3  4  1  0
  4  5  1  0
  5  6  2  0
  5  7  1  0
  7  8  1  0
  7  9  1  0
  7 10  1  0
 10 11  2  0
 11 12  1  0
 12 13  1  0
 13 14  1  0
 14 15  1  0
 14 16  1  0
 14 17  1  0
 17 18  1  0
 17 19  1  0
 17 20  1  0
 20 21  1  0
 21 22  1  0
 21 23  1  0
 21 24  1  0
 24 25  1  0
 24 26  1  0
 12 27  2  0
 27 28  1  0
 27 29  1  0
 29 30  1  0
 30 31  1  0
 31 32  1  0
 31 33  1  0
 31 34  1  0
 34 35  1  0
 34 36  1  0
 34 37  1  0
 37 38  1  0
 38 39  1  0
 38 40  1  0
 38 41  1  0
 41 42  1  0
 41 43  1  0
 29 44  2  0
 44 45  1  0
  3 46  1  0
 46 47  1  0
 47 48  2  0
 48 49  1  0
 49 50  1  0
 49 51  1  0
 49 52  1  0
 52 53  2  0
 53 54  1  0
 53 55  1  0
 55 56  1  0
 55 57  2  0
 57 58  1  0
 57 59  1  0
 59 60  1  0
 59 61  2  0
 61 62  1  0
 47 63  1  0
 63 64  1  0
 63 65  2  0
 65 66  1  0
 65  2  1  0
 44 10  1  0
 61 52  1  0
 24 13  1  0
 41 30  1  0
M  CHG  3   4  -1  27   1  46  -1
M  END
>  <UniqueID>  (56) 
52

>  <SMILES>  (56) 
O=C(Cc1cc(N2CCOCC2)[nH+]c(N2CCOCC2)n1)[N-]c1ccc/c(=N/Cc2ccccc2)[n-]1

>  <Energy>  (56) 
84.40373304854825

>  <Genealogy>  (56) 
O=C(Cc1cc(N2CCOCC2)[nH+]c(N2CCOCC2)n1)[N-]c1cccc(=NCc2ccccc2)[n-]1 (protonated)
O=C(Cc1cc(N2CCOCC2)[nH+]c(N2CCOCC2)n1)[N-]c1ccc/c(=N/Cc2ccccc2)[n-]1 (cis-trans isomerization)
O=C(Cc1cc(N2CCOCC2)[nH+]c(N2CCOCC2)n1)[N-]c1ccc/c(=N/Cc2ccccc2)[n-]1 (3D coordinates assigned)
O=C(Cc1cc(N2CCOCC2)[nH+]c(N2CCOCC2)n1)[N-]c1ccc/c(=N/Cc2ccccc2)[n-]1 (nonaromatic ring conformer: 84.40373304854825 kcal/mol)

>  <smiles>  (56) 
O=C(Cc1cc(N2CCOCC2)nc(N2CCOCC2)n1)Nc1cccc(=NCc2ccccc2)[nH]1

>  <score_type>  (56) 
oracle

>  <origin>  (56) 
adg

>  <m_score__min__energy>  (56) 
-10.4

>  <m_primary>  (56) 
energy

$$$$
56:0
     RDKit          3D

 35 37  0  0  0  0  0  0  0  0999 V2000
   57.7510   31.0640   47.0760 O   0  0  0  0  0  0  0  0  0  0  0  0
   58.9310   31.3230   46.7140 C   0  0  0  0  0  0  0  0  0  0  0  0
   59.8460   30.2090   46.3960 C   0  0  0  0  0  0  0  0  0  0  0  0
   59.4540   29.3180   45.4640 C   0  0  0  0  0  0  0  0  0  0  0  0
   58.3160   28.3960   45.6280 C   0  0  0  0  0  0  0  0  0  0  0  0
   58.5540   27.0920   46.0770 C   0  0  0  0  0  0  0  0  0  0  0  0
   57.4940   26.1960   46.2280 C   0  0  0  0  0  0  0  0  0  0  0  0
   57.8110   24.5550   46.7740 Cl  0  0  0  0  0  0  0  0  0  0  0  0
   56.1940   26.6230   45.9370 C   0  0  0  0  0  0  0  0  0  0  0  0
   55.2190   25.8340   46.0590 O   0  0  0  0  0  0  0  0  0  0  0  0
   55.9750   27.8990   45.5240 N   0  0  0  0  0  0  0  0  0  0  0  0
   56.9860   28.7960   45.3700 C   0  0  0  0  0  0  0  0  0  0  0  0
   56.6740   30.0950   44.9700 O   0  0  0  0  0  0  0  0  0  0  0  0
   61.1070   30.0380   47.2150 C   0  0  0  0  0  0  0  0  0  0  0  0
   62.0530   31.2340   47.0890 C   0  0  0  0  0  0  0  0  0  0  0  0
   61.4990   32.4840   47.7910 C   0  0  0  0  0  0  0  0  0  0  0  0
   60.5580   33.2650   46.9030 C   0  0  0  0  0  0  0  0  0  0  0  0
   60.8830   34.5940   46.5740 C   0  0  0  0  0  0  0  0  0  0  0  0
   59.9950   35.3840   45.8420 C   0  0  0  0  0  0  0  0  0  0  0  0
   58.7690   34.8640   45.4380 C   0  0  0  0  0  0  0  0  0  0  0  0
   58.4310   33.5470   45.7500 C   0  0  0  0  0  0  0  0  0  0  0  0
   59.3210   32.7290   46.4690 C   0  0  0  0  0  0  0  0  0  0  0  0
   60.0192   29.2763   44.5212 H   0  0  0  0  0  0  0  0  0  0  0  0
   59.5799   26.7719   46.3118 H   0  0  0  0  0  0  0  0  0  0  0  0
   56.6750   30.8780   45.6110 H   0  0  0  0  0  0  0  0  0  0  0  0
   60.8277   29.9187   48.2723 H   0  0  0  0  0  0  0  0  0  0  0  0
   61.6356   29.1516   46.8344 H   0  0  0  0  0  0  0  0  0  0  0  0
   63.0199   30.9712   47.5429 H   0  0  0  0  0  0  0  0  0  0  0  0
   62.1650   31.4669   46.0198 H   0  0  0  0  0  0  0  0  0  0  0  0
   60.9560   32.1716   48.6952 H   0  0  0  0  0  0  0  0  0  0  0  0
   62.3486   33.1365   48.0409 H   0  0  0  0  0  0  0  0  0  0  0  0
   61.8467   35.0147   46.8970 H   0  0  0  0  0  0  0  0  0  0  0  0
   60.2646   36.4188   45.5842 H   0  0  0  0  0  0  0  0  0  0  0  0
   58.0656   35.4923   44.8719 H   0  0  0  0  0  0  0  0  0  0  0  0
   57.4586   33.1442   45.4305 H   0  0  0  0  0  0  0  0  0  0  0  0
  1  2  2  0
  2  3  1  0
  3  4  2  3
  4  5  1  0
  5  6  1  0
  6  7  2  0
  7  8  1  0
  7  9  1  0
  9 10  2  0
  9 11  1  0
 11 12  1  0
 12 13  1  0
  3 14  1  0
 14 15  1  0
 15 16  1  0
 16 17  1  0
 17 18  2  0
 18 19  1  0
 19 20  2  0
 20 21  1  0
 21 22  2  0
 22  2  1  0
 12  5  2  0
 22 17  1  0
  4 23  1  0
  6 24  1  0
 13 25  1  0
 14 26  1  0
 14 27  1  0
 15 28  1  0
 15 29  1  0
 16 30  1  0
 16 31  1  0
 18 32  1  0
 19 33  1  0
 20 34  1  0
 21 35  1  0
M  CHG  1  11  -1
M  END
>  <UniqueID>  (57) 
53

>  <SMILES>  (57) 
O=C1C(=Cc2cc(Cl)c(=O)[n-]c2O)CCCc2ccccc21

>  <Energy>  (57) 
60.413526228021205

>  <Genealogy>  (57) 
O=C1C(=Cc2cc(Cl)c(=O)[n-]c2O)CCCc2ccccc21 (protonated)
O=C1C(=Cc2cc(Cl)c(=O)[n-]c2O)CCCc2ccccc21 (3D coordinates assigned)
O=C1C(=Cc2cc(Cl)c(=O)[n-]c2O)CCCc2ccccc21 (nonaromatic ring conformer: 60.413526228021205 kcal/mol)

>  <smiles>  (57) 
O=C1C(=Cc2cc(Cl)c(=O)[nH]c2O)CCCc2ccccc21

>  <score_type>  (57) 
oracle

>  <origin>  (57) 
adg

>  <m_score__min__energy>  (57) 
-9.5099999999999998

>  <m_primary>  (57) 
energy

$$$$
57:0
     RDKit          3D

 53 56  0  0  0  0  0  0  0  0999 V2000
   57.0880   26.9960   44.8780 O   0  0  0  0  0  0  0  0  0  0  0  0
   56.9900   28.1640   45.3400 C   0  0  0  0  0  0  0  0  0  0  0  0
   55.7330   28.8420   45.2420 N   0  0  0  0  0  0  0  0  0  0  0  0
   55.2740   29.5590   44.0550 C   0  0  0  0  0  0  0  0  0  0  0  0
   56.4550   29.8570   43.1300 C   0  0  0  0  0  0  0  0  0  0  0  0
   57.1640   31.1180   43.5520 C   0  0  0  0  0  0  0  0  0  0  0  0
   57.0210   31.6100   44.8600 C   0  0  0  0  0  0  0  0  0  0  0  0
   57.6310   32.8120   45.2310 C   0  0  0  0  0  0  0  0  0  0  0  0
   58.3800   33.5350   44.2980 C   0  0  0  0  0  0  0  0  0  0  0  0
   58.5200   33.0560   42.9920 C   0  0  0  0  0  0  0  0  0  0  0  0
   57.9110   31.8540   42.6180 C   0  0  0  0  0  0  0  0  0  0  0  0
   58.1810   28.8120   45.9260 C   0  0  0  0  0  0  0  0  0  0  0  0
   59.3030   29.0910   45.1310 C   0  0  0  0  0  0  0  0  0  0  0  0
   60.4340   29.6920   45.6870 C   0  0  0  0  0  0  0  0  0  0  0  0
   60.4660   30.0120   47.0560 C   0  0  0  0  0  0  0  0  0  0  0  0
   61.5790   30.6260   47.6530 C   0  0  0  0  0  0  0  0  0  0  0  0
   62.5900   30.9020   46.9470 O   0  0  0  0  0  0  0  0  0  0  0  0
   61.5650   30.9320   48.9930 N   0  0  0  0  0  0  0  0  0  0  0  0
   62.7070   31.6390   49.6110 C   0  0  0  0  0  0  0  0  0  0  0  0
   62.3830   33.1200   49.8520 C   0  0  0  0  0  0  0  0  0  0  0  0
   61.5280   33.6890   48.7490 C   0  0  0  0  0  0  0  0  0  0  0  0
   62.0120   33.7360   47.4310 C   0  0  0  0  0  0  0  0  0  0  0  0
   61.1970   34.2110   46.3990 C   0  0  0  0  0  0  0  0  0  0  0  0
   59.8930   34.6350   46.6730 C   0  0  0  0  0  0  0  0  0  0  0  0
   59.4020   34.5830   47.9800 C   0  0  0  0  0  0  0  0  0  0  0  0
   60.2140   34.1110   49.0170 C   0  0  0  0  0  0  0  0  0  0  0  0
   60.4600   30.6290   49.7500 C   0  0  0  0  0  0  0  0  0  0  0  0
   60.4300   30.9100   50.9810 O   0  0  0  0  0  0  0  0  0  0  0  0
   59.3790   30.0270   49.1860 N   0  0  0  0  0  0  0  0  0  0  0  0
   59.3510   29.7170   47.8630 C   0  0  0  0  0  0  0  0  0  0  0  0
   58.2190   29.1100   47.2970 C   0  0  0  0  0  0  0  0  0  0  0  0
   54.5389   28.9411   43.5186 H   0  0  0  0  0  0  0  0  0  0  0  0
   54.8115   30.5078   44.3646 H   0  0  0  0  0  0  0  0  0  0  0  0
   57.1630   29.0160   43.1676 H   0  0  0  0  0  0  0  0  0  0  0  0
   56.0744   29.9935   42.1070 H   0  0  0  0  0  0  0  0  0  0  0  0
   56.4268   31.0474   45.5951 H   0  0  0  0  0  0  0  0  0  0  0  0
   57.5214   33.1893   46.2584 H   0  0  0  0  0  0  0  0  0  0  0  0
   58.8592   34.4807   44.5914 H   0  0  0  0  0  0  0  0  0  0  0  0
   59.1096   33.6250   42.2581 H   0  0  0  0  0  0  0  0  0  0  0  0
   58.0175   31.4834   41.5878 H   0  0  0  0  0  0  0  0  0  0  0  0
   59.2915   28.8343   44.0614 H   0  0  0  0  0  0  0  0  0  0  0  0
   61.3035   29.9161   45.0516 H   0  0  0  0  0  0  0  0  0  0  0  0
   62.9443   31.1630   50.5739 H   0  0  0  0  0  0  0  0  0  0  0  0
   63.5646   31.5788   48.9248 H   0  0  0  0  0  0  0  0  0  0  0  0
   61.8448   33.2167   50.8065 H   0  0  0  0  0  0  0  0  0  0  0  0
   63.3299   33.6793   49.8757 H   0  0  0  0  0  0  0  0  0  0  0  0
   63.0353   33.3981   47.2103 H   0  0  0  0  0  0  0  0  0  0  0  0
   61.5824   34.2512   45.3695 H   0  0  0  0  0  0  0  0  0  0  0  0
   59.2539   35.0094   45.8597 H   0  0  0  0  0  0  0  0  0  0  0  0
   58.3750   34.9138   48.1941 H   0  0  0  0  0  0  0  0  0  0  0  0
   59.8234   34.0700   50.0445 H   0  0  0  0  0  0  0  0  0  0  0  0
   58.5510   29.8100   49.7890 H   0  0  0  0  0  0  0  0  0  0  0  0
   57.3551   28.8660   47.9328 H   0  0  0  0  0  0  0  0  0  0  0  0
  1  2  2  0
  2  3  1  0
  3  4  1  0
  4  5  1  0
  5  6  1  0
  6  7  2  0
  7  8  1  0
  8  9  2  0
  9 10  1  0
 10 11  2  0
  2 12  1  0
 12 13  2  0
 13 14  1  0
 14 15  2  0
 15 16  1  0
 16 17  2  0
 16 18  1  0
 18 19  1  0
 19 20  1  0
 20 21  1  0
 21 22  2  0
 22 23  1  0
 23 24  2  0
 24 25  1  0
 25 26  2  0
 18 27  1  0
 27 28  2  0
 27 29  1  0
 29 30  1  0
 30 31  2  0
 11  6  1  0
 31 12  1  0
 30 15  1  0
 26 21  1  0
  4 32  1  0
  4 33  1  0
  5 34  1  0
  5 35  1  0
  7 36  1  0
  8 37  1  0
  9 38  1  0
 10 39  1  0
 11 40  1  0
 13 41  1  0
 14 42  1  0
 19 43  1  0
 19 44  1  0
 20 45  1  0
 20 46  1  0
 22 47  1  0
 23 48  1  0
 24 49  1  0
 25 50  1  0
 26 51  1  0
 29 52  1  0
 31 53  1  0
M  CHG  1   3  -1
M  END
>  <UniqueID>  (58) 
54

>  <SMILES>  (58) 
O=C([N-]CCc1ccccc1)c1ccc2c(=O)n(CCc3ccccc3)c(=O)[nH]c2c1

>  <Energy>  (58) 
63.49726833832039

>  <Genealogy>  (58) 
O=C([N-]CCc1ccccc1)c1ccc2c(=O)n(CCc3ccccc3)c(=O)[nH]c2c1 (protonated)
O=C([N-]CCc1ccccc1)c1ccc2c(=O)n(CCc3ccccc3)c(=O)[nH]c2c1 (3D coordinates assigned)
O=C([N-]CCc1ccccc1)c1ccc2c(=O)n(CCc3ccccc3)c(=O)[nH]c2c1 (optimized conformer: 63.49726833832039 kcal/mol)

>  <smiles>  (58) 
O=C(NCCc1ccccc1)c1ccc2c(=O)n(CCc3ccccc3)c(=O)[nH]c2c1

>  <score_type>  (58) 
oracle

>  <origin>  (58) 
adg

>  <m_score__min__energy>  (58) 
-11.08

>  <m_primary>  (58) 
energy

$$$$
58:0
     RDKit          3D

 47 49  0  0  0  0  0  0  0  0999 V2000
   54.7490   26.3190   45.9430 O   0  0  0  0  0  0  0  0  0  0  0  0
   55.9690   26.2080   46.2490 C   0  0  0  0  0  0  0  0  0  0  0  0
   56.8530   27.3160   46.0950 N   0  0  0  0  0  0  0  0  0  0  0  0
   57.7850   27.5660   44.6550 S   0  0  0  0  0  0  0  0  0  0  0  0
   57.7900   26.3110   43.8300 O   0  0  0  0  0  0  0  0  0  0  0  0
   59.1980   27.9070   45.0370 O   0  0  0  0  0  0  0  0  0  0  0  0
   57.1060   28.8650   43.7260 N   0  0  0  0  0  0  0  0  0  0  0  0
   57.4710   30.2470   43.8900 C   0  0  0  0  0  0  0  0  0  0  0  0
   57.4120   31.1650   42.8260 C   0  0  0  0  0  0  0  0  0  0  0  0
   57.7660   32.5020   43.0250 C   0  0  0  0  0  0  0  0  0  0  0  0
   58.1830   32.9400   44.2840 C   0  0  0  0  0  0  0  0  0  0  0  0
   58.2600   32.0370   45.3550 C   0  0  0  0  0  0  0  0  0  0  0  0
   58.6590   32.5210   46.7240 C   0  0  0  0  0  0  0  0  0  0  0  0
   60.1260   32.5620   46.8410 N   0  0  0  0  0  0  0  0  0  0  0  0
   60.7770   33.7470   46.6430 C   0  0  0  0  0  0  0  0  0  0  0  0
   62.1600   33.8280   46.7780 C   0  0  0  0  0  0  0  0  0  0  0  0
   62.8620   32.6790   47.1290 C   0  0  0  0  0  0  0  0  0  0  0  0
   64.1150   32.7230   47.2620 O   0  0  0  0  0  0  0  0  0  0  0  0
   62.1950   31.5140   47.3330 N   0  0  0  0  0  0  0  0  0  0  0  0
   60.8420   31.4450   47.1940 C   0  0  0  0  0  0  0  0  0  0  0  0
   60.2570   30.3440   47.3950 O   0  0  0  0  0  0  0  0  0  0  0  0
   57.9000   30.6940   45.1520 C   0  0  0  0  0  0  0  0  0  0  0  0
   56.4730   24.9990   46.7390 O   0  0  0  0  0  0  0  0  0  0  0  0
   57.6480   24.3750   46.2210 C   0  0  0  0  0  0  0  0  0  0  0  0
   57.3030   23.5050   45.0430 C   0  0  0  0  0  0  0  0  0  0  0  0
   58.0530   22.3440   44.7890 C   0  0  0  0  0  0  0  0  0  0  0  0
   57.7180   21.5100   43.7170 C   0  0  0  0  0  0  0  0  0  0  0  0
   56.6390   21.8320   42.8890 C   0  0  0  0  0  0  0  0  0  0  0  0
   55.8910   22.9880   43.1330 C   0  0  0  0  0  0  0  0  0  0  0  0
   56.2180   23.8230   44.2070 C   0  0  0  0  0  0  0  0  0  0  0  0
   56.4390   28.6020   42.9660 H   0  0  0  0  0  0  0  0  0  0  0  0
   57.0852   30.8284   41.8311 H   0  0  0  0  0  0  0  0  0  0  0  0
   57.7161   33.2125   42.1867 H   0  0  0  0  0  0  0  0  0  0  0  0
   58.4518   33.9957   44.4362 H   0  0  0  0  0  0  0  0  0  0  0  0
   58.2533   33.5307   46.8850 H   0  0  0  0  0  0  0  0  0  0  0  0
   58.2577   31.8301   47.4801 H   0  0  0  0  0  0  0  0  0  0  0  0
   60.2025   34.6457   46.3743 H   0  0  0  0  0  0  0  0  0  0  0  0
   62.6864   34.7793   46.6109 H   0  0  0  0  0  0  0  0  0  0  0  0
   62.7290   30.6540   47.5980 H   0  0  0  0  0  0  0  0  0  0  0  0
   57.9545   29.9840   45.9904 H   0  0  0  0  0  0  0  0  0  0  0  0
   58.3601   25.1506   45.9027 H   0  0  0  0  0  0  0  0  0  0  0  0
   58.0967   23.7501   47.0072 H   0  0  0  0  0  0  0  0  0  0  0  0
   58.9062   22.0902   45.4352 H   0  0  0  0  0  0  0  0  0  0  0  0
   58.3046   20.5994   43.5254 H   0  0  0  0  0  0  0  0  0  0  0  0
   56.3782   21.1760   42.0454 H   0  0  0  0  0  0  0  0  0  0  0  0
   55.0436   23.2415   42.4791 H   0  0  0  0  0  0  0  0  0  0  0  0
   55.6253   24.7298   44.3977 H   0  0  0  0  0  0  0  0  0  0  0  0
  1  2  2  0
  2  3  1  0
  3  4  1  0
  4  5  2  0
  4  6  2  0
  4  7  1  0
  7  8  1  0
  8  9  2  0
  9 10  1  0
 10 11  2  0
 11 12  1  0
 12 13  1  0
 13 14  1  0
 14 15  1  0
 15 16  2  0
 16 17  1  0
 17 18  2  0
 17 19  1  0
 19 20  1  0
 20 21  2  0
 12 22  2  0
  2 23  1  0
 23 24  1  0
 24 25  1  0
 25 26  2  0
 26 27  1  0
 27 28  2  0
 28 29  1  0
 29 30  2  0
 22  8  1  0
 30 25  1  0
 20 14  1  0
  7 31  1  0
  9 32  1  0
 10 33  1  0
 11 34  1  0
 13 35  1  0
 13 36  1  0
 15 37  1  0
 16 38  1  0
 19 39  1  0
 22 40  1  0
 24 41  1  0
 24 42  1  0
 26 43  1  0
 27 44  1  0
 28 45  1  0
 29 46  1  0
 30 47  1  0
M  CHG  1   3  -1
M  END
>  <UniqueID>  (59) 
55

>  <SMILES>  (59) 
O=C([N-]S(=O)(=O)Nc1cccc(Cn2ccc(=O)[nH]c2=O)c1)OCc1ccccc1

>  <Energy>  (59) 
51.85754708298037

>  <Genealogy>  (59) 
O=C([N-]S(=O)(=O)Nc1cccc(Cn2ccc(=O)[nH]c2=O)c1)OCc1ccccc1 (protonated)
O=C([N-]S(=O)(=O)Nc1cccc(Cn2ccc(=O)[nH]c2=O)c1)OCc1ccccc1 (3D coordinates assigned)
O=C([N-]S(=O)(=O)Nc1cccc(Cn2ccc(=O)[nH]c2=O)c1)OCc1ccccc1 (optimized conformer: 51.85754708298037 kcal/mol)

>  <smiles>  (59) 
O=C(NS(=O)(=O)Nc1cccc(Cn2ccc(=O)[nH]c2=O)c1)OCc1ccccc1

>  <score_type>  (59) 
oracle

>  <origin>  (59) 
adg

>  <m_score__min__energy>  (59) 
-11.58

>  <m_primary>  (59) 
energy

$$$$
59:0
     RDKit          3D

 47 49  0  0  0  0  0  0  0  0999 V2000
   61.0830   29.4880   49.9110 C   0  0  0  0  0  0  0  0  0  0  0  0
   61.2150   30.6990   49.1760 O   0  0  0  0  0  0  0  0  0  0  0  0
   60.3790   31.0780   48.1130 C   0  0  0  0  0  0  0  0  0  0  0  0
   59.3630   30.2000   47.7210 C   0  0  0  0  0  0  0  0  0  0  0  0
   58.5080   30.5230   46.6640 C   0  0  0  0  0  0  0  0  0  0  0  0
   58.6430   31.7550   45.9940 C   0  0  0  0  0  0  0  0  0  0  0  0
   59.6630   32.6420   46.3830 C   0  0  0  0  0  0  0  0  0  0  0  0
   60.5310   32.3010   47.4310 C   0  0  0  0  0  0  0  0  0  0  0  0
   59.8610   33.9110   45.5970 C   0  0  0  0  0  0  0  0  0  0  0  0
   58.5200   34.5980   45.2690 C   0  0  0  0  0  0  0  0  0  0  0  0
   57.3430   33.6270   44.9820 C   0  0  0  0  0  0  0  0  0  0  0  0
   57.7720   32.1540   44.8190 C   0  0  2  0  0  0  0  0  0  0  0  0
   56.5880   31.3000   44.7160 N   0  0  0  0  0  0  0  0  0  0  0  0
   56.6490   29.8870   44.4970 C   0  0  0  0  0  0  0  0  0  0  0  0
   55.8710   29.1130   45.1200 O   0  0  0  0  0  0  0  0  0  0  0  0
   57.5880   29.3620   43.5500 N   0  0  0  0  0  0  0  0  0  0  0  0
   57.7700   27.9280   43.3400 C   0  0  0  0  0  0  0  0  0  0  0  0
   58.2500   27.2860   44.6030 C   0  0  0  0  0  0  0  0  0  0  0  0
   59.4300   27.5840   45.2640 C   0  0  0  0  0  0  0  0  0  0  0  0
   59.3780   26.8130   46.4070 C   0  0  0  0  0  0  0  0  0  0  0  0
   60.4070   26.7840   47.4950 C   0  0  0  0  0  0  0  0  0  0  0  0
   58.2250   26.1110   46.4060 N   0  0  0  0  0  0  0  0  0  0  0  0
   57.7470   25.2190   47.4580 C   0  0  0  0  0  0  0  0  0  0  0  0
   57.5270   26.4020   45.3170 N   0  0  0  0  0  0  0  0  0  0  0  0
   61.1070   29.7085   50.9884 H   0  0  0  0  0  0  0  0  0  0  0  0
   60.1271   29.0069   49.6564 H   0  0  0  0  0  0  0  0  0  0  0  0
   61.9128   28.8123   49.6564 H   0  0  0  0  0  0  0  0  0  0  0  0
   59.2357   29.2445   48.2508 H   0  0  0  0  0  0  0  0  0  0  0  0
   57.7270   29.8131   46.3540 H   0  0  0  0  0  0  0  0  0  0  0  0
   61.3352   32.9929   47.7219 H   0  0  0  0  0  0  0  0  0  0  0  0
   60.4800   34.6024   46.1876 H   0  0  0  0  0  0  0  0  0  0  0  0
   60.3528   33.6515   44.6479 H   0  0  0  0  0  0  0  0  0  0  0  0
   58.2411   35.2299   46.1251 H   0  0  0  0  0  0  0  0  0  0  0  0
   58.6832   35.1684   44.3427 H   0  0  0  0  0  0  0  0  0  0  0  0
   56.6308   33.6896   45.8180 H   0  0  0  0  0  0  0  0  0  0  0  0
   56.8995   33.9378   44.0245 H   0  0  0  0  0  0  0  0  0  0  0  0
   58.3564   32.0309   43.8952 H   0  0  0  0  0  0  0  0  0  0  0  0
   58.1770   30.0300   43.0010 H   0  0  0  0  0  0  0  0  0  0  0  0
   56.8110   27.4780   43.0436 H   0  0  0  0  0  0  0  0  0  0  0  0
   58.5156   27.7696   42.5469 H   0  0  0  0  0  0  0  0  0  0  0  0
   60.2254   28.2759   44.9501 H   0  0  0  0  0  0  0  0  0  0  0  0
   59.9059   26.7981   48.4741 H   0  0  0  0  0  0  0  0  0  0  0  0
   61.0101   25.8685   47.4050 H   0  0  0  0  0  0  0  0  0  0  0  0
   61.0607   27.6641   47.4050 H   0  0  0  0  0  0  0  0  0  0  0  0
   57.9800   25.6537   48.4412 H   0  0  0  0  0  0  0  0  0  0  0  0
   56.6588   25.0898   47.3628 H   0  0  0  0  0  0  0  0  0  0  0  0
   58.2421   24.2413   47.3628 H   0  0  0  0  0  0  0  0  0  0  0  0
  1  2  1  0
  2  3  1  0
  3  4  2  0
  4  5  1  0
  5  6  2  0
  6  7  1  0
  7  8  2  0
  7  9  1  0
  9 10  1  0
 10 11  1  0
 11 12  1  0
 12 13  1  0
 13 14  1  0
 14 15  2  0
 14 16  1  0
 16 17  1  0
 17 18  1  0
 18 19  1  0
 19 20  2  0
 20 21  1  0
 20 22  1  0
 22 23  1  0
 22 24  1  0
  8  3  1  0
 24 18  2  0
 12  6  1  0
  1 25  1  0
  1 26  1  0
  1 27  1  0
  4 28  1  0
  5 29  1  0
  8 30  1  0
  9 31  1  0
  9 32  1  0
 10 33  1  0
 10 34  1  0
 11 35  1  0
 11 36  1  0
 12 37  1  6
 16 38  1  0
 17 39  1  0
 17 40  1  0
 19 41  1  0
 21 42  1  0
 21 43  1  0
 21 44  1  0
 23 45  1  0
 23 46  1  0
 23 47  1  0
M  CHG  1  13  -1
M  END
>  <UniqueID>  (60) 
56

>  <SMILES>  (60) 
COc1ccc2c(c1)CCC[C@@H]2[N-]C(=O)NCc1cc(C)n(C)n1

>  <Energy>  (60) 
76.66354884770394

>  <Genealogy>  (60) 
COc1ccc2c(c1)CCCC2[N-]C(=O)NCc1cc(C)n(C)n1 (protonated)
COc1ccc2c(c1)CCC[C@@H]2[N-]C(=O)NCc1cc(C)n(C)n1 (chirality)
COc1ccc2c(c1)CCC[C@@H]2[N-]C(=O)NCc1cc(C)n(C)n1 (3D coordinates assigned)
COc1ccc2c(c1)CCC[C@@H]2[N-]C(=O)NCc1cc(C)n(C)n1 (nonaromatic ring conformer: 76.66354884770394 kcal/mol)

>  <smiles>  (60) 
COc1ccc2c(c1)CCCC2NC(=O)NCc1cc(C)n(C)n1

>  <score_type>  (60) 
oracle

>  <origin>  (60) 
adg

>  <m_score__min__energy>  (60) 
-9.2899999999999991

>  <m_primary>  (60) 
energy

$$$$
60:0
     RDKit          3D

 34 35  0  0  0  0  0  0  0  0999 V2000
   54.4040   24.9660   45.6740 O   0  0  0  0  0  0  0  0  0  0  0  0
   54.3460   23.9870   44.8840 C   0  0  0  0  0  0  0  0  0  0  0  0
   55.2980   23.8960   43.7310 C   0  0  0  0  0  0  0  0  0  0  0  0
   56.5860   23.3410   44.1790 N   0  0  0  0  0  0  0  0  0  0  0  0
   57.4100   24.1040   44.9610 C   0  0  0  0  0  0  0  0  0  0  0  0
   58.6510   23.6180   45.3650 C   0  0  0  0  0  0  0  0  0  0  0  0
   59.0390   22.3500   44.9440 C   0  0  0  0  0  0  0  0  0  0  0  0
   60.1570   21.8810   45.2840 O   0  0  0  0  0  0  0  0  0  0  0  0
   58.2100   21.6180   44.1590 N   0  0  0  0  0  0  0  0  0  0  0  0
   56.9980   22.0970   43.7730 C   0  0  0  0  0  0  0  0  0  0  0  0
   56.2640   21.3850   43.0350 O   0  0  0  0  0  0  0  0  0  0  0  0
   53.3700   22.9600   45.0720 N   0  0  0  0  0  0  0  0  0  0  0  0
   52.3780   22.9890   46.1390 C   0  0  0  0  0  0  0  0  0  0  0  0
   52.8450   22.1260   47.3110 C   0  0  0  0  0  0  0  0  0  0  0  0
   54.2720   21.6750   47.1220 C   0  0  0  0  0  0  0  0  0  0  0  0
   55.3260   22.3810   47.7260 C   0  0  0  0  0  0  0  0  0  0  0  0
   56.6430   21.9310   47.5920 C   0  0  0  0  0  0  0  0  0  0  0  0
   56.9180   20.7640   46.8690 C   0  0  0  0  0  0  0  0  0  0  0  0
   58.2250   20.2990   46.7410 O   0  0  0  0  0  0  0  0  0  0  0  0
   55.8710   20.0550   46.2710 C   0  0  0  0  0  0  0  0  0  0  0  0
   54.5540   20.5050   46.3980 C   0  0  0  0  0  0  0  0  0  0  0  0
   54.8700   23.2422   42.9569 H   0  0  0  0  0  0  0  0  0  0  0  0
   55.4637   24.9034   43.3214 H   0  0  0  0  0  0  0  0  0  0  0  0
   57.0896   25.1090   45.2729 H   0  0  0  0  0  0  0  0  0  0  0  0
   59.3106   24.2240   46.0036 H   0  0  0  0  0  0  0  0  0  0  0  0
   52.2416   24.0254   46.4815 H   0  0  0  0  0  0  0  0  0  0  0  0
   51.4252   22.5938   45.7569 H   0  0  0  0  0  0  0  0  0  0  0  0
   52.7740   22.7124   48.2390 H   0  0  0  0  0  0  0  0  0  0  0  0
   52.2024   21.2349   47.3650 H   0  0  0  0  0  0  0  0  0  0  0  0
   55.1143   23.2911   48.3064 H   0  0  0  0  0  0  0  0  0  0  0  0
   57.4653   22.4954   48.0559 H   0  0  0  0  0  0  0  0  0  0  0  0
   58.7120   20.3270   45.8520 H   0  0  0  0  0  0  0  0  0  0  0  0
   56.0849   19.1402   45.6989 H   0  0  0  0  0  0  0  0  0  0  0  0
   53.7347   19.9404   45.9289 H   0  0  0  0  0  0  0  0  0  0  0  0
  1  2  2  0
  2  3  1  0
  3  4  1  0
  4  5  1  0
  5  6  2  0
  6  7  1  0
  7  8  2  0
  7  9  1  0
  9 10  1  0
 10 11  2  0
  2 12  1  0
 12 13  1  0
 13 14  1  0
 14 15  1  0
 15 16  2  0
 16 17  1  0
 17 18  2  0
 18 19  1  0
 18 20  1  0
 20 21  2  0
 10  4  1  0
 21 15  1  0
  3 22  1  0
  3 23  1  0
  5 24  1  0
  6 25  1  0
 13 26  1  0
 13 27  1  0
 14 28  1  0
 14 29  1  0
 16 30  1  0
 17 31  1  0
 19 32  1  0
 20 33  1  0
 21 34  1  0
M  CHG  2   9  -1  12  -1
M  END
>  <UniqueID>  (61) 
57

>  <SMILES>  (61) 
O=C(Cn1ccc(=O)[n-]c1=O)[N-]CCc1ccc(O)cc1

>  <Energy>  (61) 
27.79422555317398

>  <Genealogy>  (61) 
O=C(Cn1ccc(=O)[n-]c1=O)[N-]CCc1ccc(O)cc1 (protonated)
O=C(Cn1ccc(=O)[n-]c1=O)[N-]CCc1ccc(O)cc1 (3D coordinates assigned)
O=C(Cn1ccc(=O)[n-]c1=O)[N-]CCc1ccc(O)cc1 (optimized conformer: 27.79422555317398 kcal/mol)

>  <smiles>  (61) 
O=C(Cn1ccc(=O)[nH]c1=O)NCCc1ccc(O)cc1

>  <score_type>  (61) 
oracle

>  <origin>  (61) 
adg

>  <m_score__min__energy>  (61) 
-10.27

>  <m_primary>  (61) 
energy

$$$$
61:0
     RDKit          3D

 37 39  0  0  0  0  0  0  0  0999 V2000
   60.0920   34.5860   48.6780 C   0  0  0  0  0  0  0  0  0  0  0  0
   59.4270   33.9330   47.5030 C   0  0  0  0  0  0  0  0  0  0  0  0
   59.7260   34.3640   46.2020 C   0  0  0  0  0  0  0  0  0  0  0  0
   59.0860   33.7850   45.1030 C   0  0  0  0  0  0  0  0  0  0  0  0
   58.1320   32.7720   45.2910 C   0  0  0  0  0  0  0  0  0  0  0  0
   57.4190   32.1840   44.1030 C   0  0  0  0  0  0  0  0  0  0  0  0
   56.2750   31.3980   44.5500 N   0  0  0  0  0  0  0  0  0  0  0  0
   56.2240   29.9710   44.4690 C   0  0  0  0  0  0  0  0  0  0  0  0
   55.2310   29.3390   44.9200 O   0  0  0  0  0  0  0  0  0  0  0  0
   57.3340   29.2310   43.7970 C   0  0  0  0  0  0  0  0  0  0  0  0
   57.8070   27.7690   44.7820 S   0  0  0  0  0  0  0  0  0  0  0  0
   58.7780   28.6970   45.9660 C   0  0  0  0  0  0  0  0  0  0  0  0
   58.4960   28.7090   47.2960 N   0  0  0  0  0  0  0  0  0  0  0  0
   59.4480   29.5170   47.7820 C   0  0  0  0  0  0  0  0  0  0  0  0
   59.6490   29.9000   49.1060 C   0  0  0  0  0  0  0  0  0  0  0  0
   60.7230   30.7670   49.3800 C   0  0  0  0  0  0  0  0  0  0  0  0
   61.5580   31.2240   48.3340 C   0  0  0  0  0  0  0  0  0  0  0  0
   61.3240   30.8150   47.0090 C   0  0  0  0  0  0  0  0  0  0  0  0
   60.2530   29.9570   46.7750 C   0  0  0  0  0  0  0  0  0  0  0  0
   59.8490   29.4480   45.6030 N   0  0  0  0  0  0  0  0  0  0  0  0
   57.8180   32.3560   46.5940 C   0  0  0  0  0  0  0  0  0  0  0  0
   58.4610   32.9330   47.6920 C   0  0  0  0  0  0  0  0  0  0  0  0
   59.6748   34.1764   49.6098 H   0  0  0  0  0  0  0  0  0  0  0  0
   61.1737   34.3894   48.6430 H   0  0  0  0  0  0  0  0  0  0  0  0
   59.9152   35.6711   48.6430 H   0  0  0  0  0  0  0  0  0  0  0  0
   60.4676   35.1613   46.0462 H   0  0  0  0  0  0  0  0  0  0  0  0
   59.3307   34.1244   44.0857 H   0  0  0  0  0  0  0  0  0  0  0  0
   57.0701   32.9962   43.4483 H   0  0  0  0  0  0  0  0  0  0  0  0
   58.1122   31.5328   43.5504 H   0  0  0  0  0  0  0  0  0  0  0  0
   57.0018   28.9052   42.8003 H   0  0  0  0  0  0  0  0  0  0  0  0
   58.2043   29.8974   43.7046 H   0  0  0  0  0  0  0  0  0  0  0  0
   58.9911   29.5374   49.9095 H   0  0  0  0  0  0  0  0  0  0  0  0
   60.9142   31.0911   50.4136 H   0  0  0  0  0  0  0  0  0  0  0  0
   62.3944   31.9025   48.5579 H   0  0  0  0  0  0  0  0  0  0  0  0
   61.9656   31.1613   46.1853 H   0  0  0  0  0  0  0  0  0  0  0  0
   57.0624   31.5723   46.7515 H   0  0  0  0  0  0  0  0  0  0  0  0
   58.2086   32.6016   48.7101 H   0  0  0  0  0  0  0  0  0  0  0  0
  1  2  1  0
  2  3  2  0
  3  4  1  0
  4  5  2  0
  5  6  1  0
  6  7  1  0
  7  8  1  0
  8  9  2  0
  8 10  1  0
 10 11  1  0
 11 12  1  0
 12 13  2  0
 13 14  1  0
 14 15  2  0
 15 16  1  0
 16 17  2  0
 17 18  1  0
 18 19  2  0
 19 20  1  0
  5 21  1  0
 21 22  2  0
 22  2  1  0
 20 12  1  0
 19 14  1  0
  1 23  1  0
  1 24  1  0
  1 25  1  0
  3 26  1  0
  4 27  1  0
  6 28  1  0
  6 29  1  0
 10 30  1  0
 10 31  1  0
 15 32  1  0
 16 33  1  0
 17 34  1  0
 18 35  1  0
 21 36  1  0
 22 37  1  0
M  CHG  2   7  -1  20  -1
M  END
>  <UniqueID>  (62) 
58

>  <SMILES>  (62) 
Cc1ccc(C[N-]C(=O)CSc2nc3ccccc3[n-]2)cc1

>  <Energy>  (62) 
62.79340848608673

>  <Genealogy>  (62) 
Cc1ccc(C[N-]C(=O)CSc2nc3ccccc3[n-]2)cc1 (protonated)
Cc1ccc(C[N-]C(=O)CSc2nc3ccccc3[n-]2)cc1 (3D coordinates assigned)
Cc1ccc(C[N-]C(=O)CSc2nc3ccccc3[n-]2)cc1 (optimized conformer: 62.79340848608673 kcal/mol)

>  <smiles>  (62) 
Cc1ccc(CNC(=O)CSc2nc3ccccc3[nH]2)cc1

>  <score_type>  (62) 
oracle

>  <origin>  (62) 
adg

>  <m_score__min__energy>  (62) 
-11.19

>  <m_primary>  (62) 
energy

$$$$
62:0
     RDKit          3D

 56 59  0  0  0  0  0  0  0  0999 V2000
   62.5300   33.8490   48.4770 C   0  0  0  0  0  0  0  0  0  0  0  0
   61.2150   33.8260   47.7440 C   0  0  0  0  0  0  0  0  0  0  0  0
   61.2120   33.8200   46.3400 C   0  0  0  0  0  0  0  0  0  0  0  0
   60.0100   33.8310   45.6310 C   0  0  0  0  0  0  0  0  0  0  0  0
   58.7860   33.8490   46.3100 C   0  0  0  0  0  0  0  0  0  0  0  0
   57.4950   33.8930   45.5390 C   0  0  0  0  0  0  0  0  0  0  0  0
   57.4240   32.7390   44.5900 C   0  0  0  0  0  0  0  0  0  0  0  0
   58.0810   32.6940   43.4160 N   0  0  0  0  0  0  0  0  0  0  0  0
   57.8280   31.5130   42.9410 O   0  0  0  0  0  0  0  0  0  0  0  0
   57.0650   30.8550   43.7780 C   0  0  0  0  0  0  0  0  0  0  0  0
   56.6100   29.4360   43.5740 C   0  0  0  0  0  0  0  0  0  0  0  0
   57.3210   28.4690   44.4400 N   0  0  0  0  0  0  0  0  0  0  0  0
   58.5840   27.9540   43.8590 C   0  0  0  0  0  0  0  0  0  0  0  0
   59.8200   28.6070   44.4970 C   0  0  0  0  0  0  0  0  0  0  0  0
   59.8770   28.4130   45.9710 N   0  0  0  0  0  0  0  0  0  0  0  0
   60.5830   29.5340   46.6310 C   0  0  0  0  0  0  0  0  0  0  0  0
   60.1240   29.6970   48.0570 C   0  0  0  0  0  0  0  0  0  0  0  0
   59.1550   30.6600   48.3810 C   0  0  0  0  0  0  0  0  0  0  0  0
   58.7140   30.7980   49.7010 C   0  0  0  0  0  0  0  0  0  0  0  0
   59.2260   29.9690   50.7020 C   0  0  0  0  0  0  0  0  0  0  0  0
   60.1770   28.9980   50.3850 C   0  0  0  0  0  0  0  0  0  0  0  0
   60.6250   28.8580   49.0680 C   0  0  0  0  0  0  0  0  0  0  0  0
   58.5460   28.1780   46.5860 C   0  0  0  0  0  0  0  0  0  0  0  0
   57.4320   28.9270   45.8430 C   0  0  0  0  0  0  0  0  0  0  0  0
   56.7710   31.5920   44.8650 N   0  0  0  0  0  0  0  0  0  0  0  0
   58.7780   33.8700   47.7130 C   0  0  0  0  0  0  0  0  0  0  0  0
   59.9810   33.8640   48.4400 C   0  0  0  0  0  0  0  0  0  0  0  0
   59.9310   33.8620   49.9460 C   0  0  0  0  0  0  0  0  0  0  0  0
   62.3454   33.8458   49.5614 H   0  0  0  0  0  0  0  0  0  0  0  0
   63.1183   32.9610   48.2026 H   0  0  0  0  0  0  0  0  0  0  0  0
   63.0869   34.7570   48.2026 H   0  0  0  0  0  0  0  0  0  0  0  0
   62.1665   33.8065   45.7934 H   0  0  0  0  0  0  0  0  0  0  0  0
   60.0245   33.8255   44.5311 H   0  0  0  0  0  0  0  0  0  0  0  0
   56.6499   33.8394   46.2410 H   0  0  0  0  0  0  0  0  0  0  0  0
   57.4481   34.8322   44.9682 H   0  0  0  0  0  0  0  0  0  0  0  0
   55.5339   29.3781   43.7943 H   0  0  0  0  0  0  0  0  0  0  0  0
   56.8314   29.1670   42.5306 H   0  0  0  0  0  0  0  0  0  0  0  0
   58.6326   26.8672   44.0220 H   0  0  0  0  0  0  0  0  0  0  0  0
   58.5878   28.1962   42.7860 H   0  0  0  0  0  0  0  0  0  0  0  0
   60.7221   28.1648   44.0490 H   0  0  0  0  0  0  0  0  0  0  0  0
   59.7590   29.6887   44.3069 H   0  0  0  0  0  0  0  0  0  0  0  0
   61.6645   29.3331   46.6220 H   0  0  0  0  0  0  0  0  0  0  0  0
   60.3585   30.4608   46.0826 H   0  0  0  0  0  0  0  0  0  0  0  0
   58.7414   31.3079   47.5942 H   0  0  0  0  0  0  0  0  0  0  0  0
   57.9623   31.5610   49.9515 H   0  0  0  0  0  0  0  0  0  0  0  0
   58.8797   30.0815   51.7400 H   0  0  0  0  0  0  0  0  0  0  0  0
   60.5749   28.3415   51.1729 H   0  0  0  0  0  0  0  0  0  0  0  0
   61.3719   28.0889   48.8219 H   0  0  0  0  0  0  0  0  0  0  0  0
   58.3279   27.1001   46.5607 H   0  0  0  0  0  0  0  0  0  0  0  0
   58.5774   28.5522   47.6199 H   0  0  0  0  0  0  0  0  0  0  0  0
   56.4755   28.7473   46.3556 H   0  0  0  0  0  0  0  0  0  0  0  0
   57.6759   29.9996   45.8404 H   0  0  0  0  0  0  0  0  0  0  0  0
   57.8185   33.8914   48.2505 H   0  0  0  0  0  0  0  0  0  0  0  0
   60.9545   33.9029   50.3469 H   0  0  0  0  0  0  0  0  0  0  0  0
   59.3651   34.7382   50.2952 H   0  0  0  0  0  0  0  0  0  0  0  0
   59.4369   32.9434   50.2952 H   0  0  0  0  0  0  0  0  0  0  0  0
  1  2  1  0
  2  3  2  0
  3  4  1  0
  4  5  2  0
  5  6  1  0
  6  7  1  0
  7  8  2  0
  8  9  1  0
  9 10  1  0
 10 11  1  0
 11 12  1  0
 12 13  1  0
 13 14  1  0
 14 15  1  0
 15 16  1  0
 16 17  1  0
 17 18  2  0
 18 19  1  0
 19 20  2  0
 20 21  1  0
 21 22  2  0
 15 23  1  0
 23 24  1  0
 10 25  2  0
  5 26  1  0
 26 27  2  0
 27 28  1  0
 27  2  1  0
 25  7  1  0
 24 12  1  0
 22 17  1  0
  1 29  1  0
  1 30  1  0
  1 31  1  0
  3 32  1  0
  4 33  1  0
  6 34  1  0
  6 35  1  0
 11 36  1  0
 11 37  1  0
 13 38  1  0
 13 39  1  0
 14 40  1  0
 14 41  1  0
 16 42  1  0
 16 43  1  0
 18 44  1  0
 19 45  1  0
 20 46  1  0
 21 47  1  0
 22 48  1  0
 23 49  1  0
 23 50  1  0
 24 51  1  0
 24 52  1  0
 26 53  1  0
 28 54  1  0
 28 55  1  0
 28 56  1  0
M  END
>  <UniqueID>  (63) 
59

>  <SMILES>  (63) 
Cc1ccc(Cc2noc(CN3CCN(Cc4ccccc4)CC3)n2)cc1C

>  <Energy>  (63) 
97.50622427982185

>  <Genealogy>  (63) 
Cc1ccc(Cc2noc(CN3CCN(Cc4ccccc4)CC3)n2)cc1C (3D coordinates assigned)
Cc1ccc(Cc2noc(CN3CCN(Cc4ccccc4)CC3)n2)cc1C (nonaromatic ring conformer: 97.50622427982185 kcal/mol)

>  <smiles>  (63) 
Cc1ccc(Cc2noc(CN3CCN(Cc4ccccc4)CC3)n2)cc1C

>  <score_type>  (63) 
oracle

>  <origin>  (63) 
adg

>  <m_score__min__energy>  (63) 
-9.5099999999999998

>  <m_primary>  (63) 
energy

$$$$
63:0
     RDKit          3D

 43 45  0  0  0  0  0  0  0  0999 V2000
   59.6070   35.8740   45.0470 N   0  0  0  0  0  0  0  0  0  0  0  0
   59.3850   35.0480   46.1910 C   0  0  0  0  0  0  0  0  0  0  0  0
   59.8670   35.3410   47.3480 N   0  0  0  0  0  0  0  0  0  0  0  0
   59.4740   34.3260   48.3150 C   0  0  0  0  0  0  0  0  0  0  0  0
   58.6270   33.3050   47.5150 C   0  0  2  0  0  0  0  0  0  0  0  0
   59.2320   31.8880   47.5340 C   0  0  0  0  0  0  0  0  0  0  0  0
   60.6900   31.9150   47.9140 C   0  0  0  0  0  0  0  0  0  0  0  0
   61.1050   31.3790   49.1440 C   0  0  0  0  0  0  0  0  0  0  0  0
   62.4530   31.4220   49.5120 C   0  0  0  0  0  0  0  0  0  0  0  0
   63.3950   32.0020   48.6580 C   0  0  0  0  0  0  0  0  0  0  0  0
   62.9940   32.5400   47.4320 C   0  0  0  0  0  0  0  0  0  0  0  0
   63.9440   33.1160   46.5910 O   0  0  0  0  0  0  0  0  0  0  0  0
   61.6420   32.4970   47.0600 C   0  0  0  0  0  0  0  0  0  0  0  0
   58.6280   33.8470   46.1620 N   0  0  0  0  0  0  0  0  0  0  0  0
   57.7020   33.4460   45.1000 C   0  0  0  0  0  0  0  0  0  0  0  0
   58.2890   32.2920   44.2820 C   0  0  0  0  0  0  0  0  0  0  0  0
   57.5710   31.0070   44.5940 C   0  0  0  0  0  0  0  0  0  0  0  0
   56.2440   30.8150   44.1710 C   0  0  0  0  0  0  0  0  0  0  0  0
   55.5680   29.6340   44.4920 C   0  0  0  0  0  0  0  0  0  0  0  0
   56.2050   28.6420   45.2450 C   0  0  0  0  0  0  0  0  0  0  0  0
   55.5310   27.4690   45.5630 O   0  0  0  0  0  0  0  0  0  0  0  0
   57.5210   28.8330   45.6800 C   0  0  0  0  0  0  0  0  0  0  0  0
   58.2000   30.0130   45.3610 C   0  0  0  0  0  0  0  0  0  0  0  0
   59.2170   35.6210   44.1130 H   0  0  0  0  0  0  0  0  0  0  0  0
   60.1680   36.7490   45.1350 H   0  0  0  0  0  0  0  0  0  0  0  0
   60.3618   33.8381   48.7437 H   0  0  0  0  0  0  0  0  0  0  0  0
   58.9104   34.7570   49.1556 H   0  0  0  0  0  0  0  0  0  0  0  0
   57.6206   33.1858   47.9427 H   0  0  0  0  0  0  0  0  0  0  0  0
   58.6836   31.2750   48.2644 H   0  0  0  0  0  0  0  0  0  0  0  0
   59.1466   31.4627   46.5231 H   0  0  0  0  0  0  0  0  0  0  0  0
   60.3666   30.9236   49.8204 H   0  0  0  0  0  0  0  0  0  0  0  0
   62.7728   30.9985   50.4755 H   0  0  0  0  0  0  0  0  0  0  0  0
   64.4546   32.0352   48.9515 H   0  0  0  0  0  0  0  0  0  0  0  0
   64.8800   32.7360   46.5110 H   0  0  0  0  0  0  0  0  0  0  0  0
   61.3258   32.9208   46.0954 H   0  0  0  0  0  0  0  0  0  0  0  0
   56.7522   33.1231   45.5511 H   0  0  0  0  0  0  0  0  0  0  0  0
   57.5334   34.3043   44.4330 H   0  0  0  0  0  0  0  0  0  0  0  0
   58.1811   32.5161   43.2105 H   0  0  0  0  0  0  0  0  0  0  0  0
   59.3522   32.1775   44.5400 H   0  0  0  0  0  0  0  0  0  0  0  0
   55.7363   31.5960   43.5860 H   0  0  0  0  0  0  0  0  0  0  0  0
   54.5327   29.4845   44.1516 H   0  0  0  0  0  0  0  0  0  0  0  0
   58.0220   28.0541   46.2736 H   0  0  0  0  0  0  0  0  0  0  0  0
   59.2315   30.1633   45.7124 H   0  0  0  0  0  0  0  0  0  0  0  0
  1  2  1  0
  2  3  2  0
  3  4  1  0
  4  5  1  0
  5  6  1  0
  6  7  1  0
  7  8  2  0
  8  9  1  0
  9 10  2  0
 10 11  1  0
 11 12  1  0
 11 13  2  0
  5 14  1  0
 14 15  1  0
 15 16  1  0
 16 17  1  0
 17 18  2  0
 18 19  1  0
 19 20  2  0
 20 21  1  0
 20 22  1  0
 22 23  2  0
 14  2  1  0
 23 17  1  0
 13  7  1  0
  1 24  1  0
  1 25  1  0
  4 26  1  0
  4 27  1  0
  5 28  1  1
  6 29  1  0
  6 30  1  0
  8 31  1  0
  9 32  1  0
 10 33  1  0
 12 34  1  0
 13 35  1  0
 15 36  1  0
 15 37  1  0
 16 38  1  0
 16 39  1  0
 18 40  1  0
 19 41  1  0
 22 42  1  0
 23 43  1  0
M  CHG  1  21  -1
M  END
>  <UniqueID>  (64) 
60

>  <SMILES>  (64) 
NC1=NC[C@H](Cc2cccc(O)c2)N1CCc1ccc([O-])cc1

>  <Energy>  (64) 
49.867632206134694

>  <Genealogy>  (64) 
NC1=NCC(Cc2cccc(O)c2)N1CCc1ccc([O-])cc1 (protonated)
NC1=NC[C@H](Cc2cccc(O)c2)N1CCc1ccc([O-])cc1 (chirality)
NC1=NC[C@H](Cc2cccc(O)c2)N1CCc1ccc([O-])cc1 (3D coordinates assigned)
NC1=NC[C@H](Cc2cccc(O)c2)N1CCc1ccc([O-])cc1 (nonaromatic ring conformer: 49.867632206134694 kcal/mol)

>  <smiles>  (64) 
NC1=NCC(Cc2cccc(O)c2)N1CCc1ccc(O)cc1

>  <score_type>  (64) 
oracle

>  <origin>  (64) 
adg

>  <m_score__min__energy>  (64) 
-10.25

>  <m_primary>  (64) 
energy

$$$$
64:0
     RDKit          3D

 37 39  0  0  0  0  0  0  0  0999 V2000
   59.9350   29.7950   45.4420 O   0  0  0  0  0  0  0  0  0  0  0  0
   58.9220   29.3420   46.0400 C   0  0  0  0  0  0  0  0  0  0  0  0
   59.0950   28.2780   47.0800 C   0  0  0  0  0  0  0  0  0  0  0  0
   58.5730   26.9600   46.5640 C   0  0  0  0  0  0  0  0  0  0  0  0
   57.1930   26.7760   46.3890 C   0  0  0  0  0  0  0  0  0  0  0  0
   56.6940   25.5440   45.9410 C   0  0  0  0  0  0  0  0  0  0  0  0
   55.3160   25.3260   45.7490 C   0  0  0  0  0  0  0  0  0  0  0  0
   54.3910   26.3360   45.9960 O   0  0  0  0  0  0  0  0  0  0  0  0
   54.8640   24.0800   45.3000 C   0  0  0  0  0  0  0  0  0  0  0  0
   55.7730   23.0490   45.0440 C   0  0  0  0  0  0  0  0  0  0  0  0
   57.1420   23.2560   45.2340 C   0  0  0  0  0  0  0  0  0  0  0  0
   57.6080   24.4980   45.6820 C   0  0  0  0  0  0  0  0  0  0  0  0
   58.9390   24.6940   45.8700 N   0  0  0  0  0  0  0  0  0  0  0  0
   59.4400   25.8820   46.3030 C   0  0  0  0  0  0  0  0  0  0  0  0
   60.6830   26.0010   46.4690 O   0  0  0  0  0  0  0  0  0  0  0  0
   57.6180   29.8700   45.7610 N   0  0  0  0  0  0  0  0  0  0  0  0
   57.3890   30.9070   44.7590 C   0  0  0  0  0  0  0  0  0  0  0  0
   57.9290   32.2260   45.2410 C   0  0  0  0  0  0  0  0  0  0  0  0
   58.3400   33.2090   44.3260 C   0  0  0  0  0  0  0  0  0  0  0  0
   58.8210   34.4400   44.7830 C   0  0  0  0  0  0  0  0  0  0  0  0
   58.8900   34.6990   46.1550 C   0  0  0  0  0  0  0  0  0  0  0  0
   58.4770   33.7270   47.0720 C   0  0  0  0  0  0  0  0  0  0  0  0
   57.9960   32.4960   46.6170 C   0  0  0  0  0  0  0  0  0  0  0  0
   60.1631   28.1765   47.3227 H   0  0  0  0  0  0  0  0  0  0  0  0
   58.5318   28.5605   47.9817 H   0  0  0  0  0  0  0  0  0  0  0  0
   56.4991   27.6019   46.6042 H   0  0  0  0  0  0  0  0  0  0  0  0
   53.7878   23.9109   45.1477 H   0  0  0  0  0  0  0  0  0  0  0  0
   55.4096   22.0722   44.6921 H   0  0  0  0  0  0  0  0  0  0  0  0
   57.8541   22.4424   45.0314 H   0  0  0  0  0  0  0  0  0  0  0  0
   56.7990   29.5110   46.3020 H   0  0  0  0  0  0  0  0  0  0  0  0
   57.8964   30.6268   43.8241 H   0  0  0  0  0  0  0  0  0  0  0  0
   56.3072   31.0047   44.5855 H   0  0  0  0  0  0  0  0  0  0  0  0
   58.2833   33.0098   43.2457 H   0  0  0  0  0  0  0  0  0  0  0  0
   59.1453   35.2051   44.0623 H   0  0  0  0  0  0  0  0  0  0  0  0
   59.2692   35.6674   46.5134 H   0  0  0  0  0  0  0  0  0  0  0  0
   58.5307   33.9314   48.1515 H   0  0  0  0  0  0  0  0  0  0  0  0
   57.6684   31.7351   47.3406 H   0  0  0  0  0  0  0  0  0  0  0  0
  1  2  2  0
  2  3  1  0
  3  4  1  0
  4  5  2  0
  5  6  1  0
  6  7  2  0
  7  8  1  0
  7  9  1  0
  9 10  2  0
 10 11  1  0
 11 12  2  0
 12 13  1  0
 13 14  1  0
 14 15  2  0
  2 16  1  0
 16 17  1  0
 17 18  1  0
 18 19  2  0
 19 20  1  0
 20 21  2  0
 21 22  1  0
 22 23  2  0
 14  4  1  0
 23 18  1  0
 12  6  1  0
  3 24  1  0
  3 25  1  0
  5 26  1  0
  9 27  1  0
 10 28  1  0
 11 29  1  0
 16 30  1  0
 17 31  1  0
 17 32  1  0
 19 33  1  0
 20 34  1  0
 21 35  1  0
 22 36  1  0
 23 37  1  0
M  CHG  2   8  -1  13  -1
M  END
>  <UniqueID>  (65) 
61

>  <SMILES>  (65) 
O=C(Cc1cc2c([O-])cccc2[n-]c1=O)NCc1ccccc1

>  <Energy>  (65) 
39.914048853257455

>  <Genealogy>  (65) 
O=C(Cc1cc2c([O-])cccc2[n-]c1=O)NCc1ccccc1 (protonated)
O=C(Cc1cc2c([O-])cccc2[n-]c1=O)NCc1ccccc1 (3D coordinates assigned)
O=C(Cc1cc2c([O-])cccc2[n-]c1=O)NCc1ccccc1 (optimized conformer: 39.914048853257455 kcal/mol)

>  <smiles>  (65) 
O=C(Cc1cc2c(O)cccc2[nH]c1=O)NCc1ccccc1

>  <score_type>  (65) 
oracle

>  <origin>  (65) 
adg

>  <m_score__min__energy>  (65) 
-12.470000000000001

>  <m_primary>  (65) 
energy

$$$$
65:0
     RDKit          3D

 60 64  0  0  0  0  0  0  0  0999 V2000
   57.9530   21.0400   43.2010 N   0  0  0  0  0  0  0  0  0  0  0  0
   56.6360   22.1130   43.5170 S   0  0  0  0  0  0  0  0  0  0  0  0
   55.7740   21.5490   44.6130 O   0  0  0  0  0  0  0  0  0  0  0  0
   55.8120   22.2460   42.2690 O   0  0  0  0  0  0  0  0  0  0  0  0
   57.2540   23.6840   44.0110 C   0  0  0  0  0  0  0  0  0  0  0  0
   57.7270   23.8600   45.3180 C   0  0  0  0  0  0  0  0  0  0  0  0
   58.2260   25.1000   45.7270 C   0  0  0  0  0  0  0  0  0  0  0  0
   58.2520   26.1910   44.8360 C   0  0  0  0  0  0  0  0  0  0  0  0
   58.7620   27.5200   45.2790 C   0  0  0  0  0  0  0  0  0  0  0  0
   59.2880   27.6980   46.5720 C   0  0  0  0  0  0  0  0  0  0  0  0
   59.7500   28.9490   46.9790 C   0  0  0  0  0  0  0  0  0  0  0  0
   59.6760   30.0350   46.0940 C   0  0  0  0  0  0  0  0  0  0  0  0
   60.0920   31.3500   46.4990 N   0  0  0  0  0  0  0  0  0  0  0  0
   59.2050   32.5000   46.5130 C   0  0  0  0  0  0  0  0  0  0  0  0
   60.0550   33.6800   47.0190 C   0  0  0  0  0  0  0  0  0  0  0  0
   61.3340   33.0770   47.6670 C   0  0  0  0  0  0  0  0  0  0  0  0
   62.6020   33.8610   47.2230 C   0  0  0  0  0  0  0  0  0  0  0  0
   63.7150   33.7530   48.2730 C   0  0  0  0  0  0  0  0  0  0  0  0
   63.3150   34.3320   49.5840 N   0  0  0  0  0  0  0  0  0  0  0  0
   64.1100   33.7570   50.6910 C   0  0  0  0  0  0  0  0  0  0  0  0
   63.6950   32.3410   50.9760 C   0  0  0  0  0  0  0  0  0  0  0  0
   63.5320   31.7860   52.2310 C   0  0  0  0  0  0  0  0  0  0  0  0
   63.1090   30.4890   52.0250 C   0  0  0  0  0  0  0  0  0  0  0  0
   63.0280   30.3120   50.6570 C   0  0  0  0  0  0  0  0  0  0  0  0
   63.3790   31.4460   50.0230 N   0  0  0  0  0  0  0  0  0  0  0  0
   61.8570   34.2460   49.8630 C   0  0  0  0  0  0  0  0  0  0  0  0
   61.2130   33.0140   49.2160 C   0  0  0  0  0  0  0  0  0  0  0  0
   61.3190   31.6880   47.1210 C   0  0  0  0  0  0  0  0  0  0  0  0
   62.2980   30.8950   47.1880 O   0  0  0  0  0  0  0  0  0  0  0  0
   59.1580   29.8490   44.8520 N   0  0  0  0  0  0  0  0  0  0  0  0
   58.7180   28.6370   44.4250 C   0  0  0  0  0  0  0  0  0  0  0  0
   57.7750   26.0050   43.5230 C   0  0  0  0  0  0  0  0  0  0  0  0
   57.2840   24.7610   43.1140 C   0  0  0  0  0  0  0  0  0  0  0  0
   57.5450   20.1280   42.9100 H   0  0  0  0  0  0  0  0  0  0  0  0
   58.4440   20.8780   44.1080 H   0  0  0  0  0  0  0  0  0  0  0  0
   57.7056   23.0182   46.0258 H   0  0  0  0  0  0  0  0  0  0  0  0
   58.6016   25.2250   46.7533 H   0  0  0  0  0  0  0  0  0  0  0  0
   59.3349   26.8454   47.2655 H   0  0  0  0  0  0  0  0  0  0  0  0
   60.1696   29.0835   47.9869 H   0  0  0  0  0  0  0  0  0  0  0  0
   58.8287   32.7057   45.5001 H   0  0  0  0  0  0  0  0  0  0  0  0
   58.3290   32.3275   47.1555 H   0  0  0  0  0  0  0  0  0  0  0  0
   60.3303   34.3345   46.1788 H   0  0  0  0  0  0  0  0  0  0  0  0
   59.4936   34.2830   47.7479 H   0  0  0  0  0  0  0  0  0  0  0  0
   62.9652   33.4469   46.2708 H   0  0  0  0  0  0  0  0  0  0  0  0
   62.3337   34.9214   47.1066 H   0  0  0  0  0  0  0  0  0  0  0  0
   63.9635   32.6911   48.4167 H   0  0  0  0  0  0  0  0  0  0  0  0
   64.5807   34.3228   47.9044 H   0  0  0  0  0  0  0  0  0  0  0  0
   65.1744   33.7706   50.4138 H   0  0  0  0  0  0  0  0  0  0  0  0
   63.9383   34.3602   51.5947 H   0  0  0  0  0  0  0  0  0  0  0  0
   63.7047   32.2789   53.1991 H   0  0  0  0  0  0  0  0  0  0  0  0
   62.8807   29.7415   52.7990 H   0  0  0  0  0  0  0  0  0  0  0  0
   62.7214   29.3803   50.1590 H   0  0  0  0  0  0  0  0  0  0  0  0
   63.4170   31.5900   48.9860 H   0  0  0  0  0  0  0  0  0  0  0  0
   61.7075   34.1929   50.9515 H   0  0  0  0  0  0  0  0  0  0  0  0
   61.3790   35.1396   49.4353 H   0  0  0  0  0  0  0  0  0  0  0  0
   61.7200   32.1085   49.5808 H   0  0  0  0  0  0  0  0  0  0  0  0
   60.1468   32.9908   49.4857 H   0  0  0  0  0  0  0  0  0  0  0  0
   58.3243   28.5281   43.4037 H   0  0  0  0  0  0  0  0  0  0  0  0
   57.7890   26.8456   42.8137 H   0  0  0  0  0  0  0  0  0  0  0  0
   56.9200   24.6271   42.0846 H   0  0  0  0  0  0  0  0  0  0  0  0
  1  2  1  0
  2  3  2  0
  2  4  2  0
  2  5  1  0
  5  6  2  0
  6  7  1  0
  7  8  2  0
  8  9  1  0
  9 10  2  0
 10 11  1  0
 11 12  2  0
 12 13  1  0
 13 14  1  0
 14 15  1  0
 15 16  1  0
 16 17  1  0
 17 18  1  0
 18 19  1  0
 19 20  1  0
 20 21  1  0
 21 22  2  0
 22 23  1  0
 23 24  2  0
 24 25  1  0
 19 26  1  0
 26 27  1  0
 16 28  1  0
 28 29  2  0
 12 30  1  0
 30 31  2  0
  8 32  1  0
 32 33  2  0
 33  5  1  0
 31  9  1  0
 28 13  1  0
 27 16  1  0
 25 21  1  0
  1 34  1  0
  1 35  1  0
  6 36  1  0
  7 37  1  0
 10 38  1  0
 11 39  1  0
 14 40  1  0
 14 41  1  0
 15 42  1  0
 15 43  1  0
 17 44  1  0
 17 45  1  0
 18 46  1  0
 18 47  1  0
 20 48  1  0
 20 49  1  0
 22 50  1  0
 23 51  1  0
 24 52  1  0
 25 53  1  0
 26 54  1  0
 26 55  1  0
 27 56  1  0
 27 57  1  0
 31 58  1  0
 32 59  1  0
 33 60  1  0
M  END
>  <UniqueID>  (66) 
62

>  <SMILES>  (66) 
NS(=O)(=O)c1ccc(-c2ccc(N3CCC4(CCN(Cc5ccc[nH]5)CC4)C3=O)nc2)cc1

>  <Energy>  (66) 
115.70701014333886

>  <Genealogy>  (66) 
NS(=O)(=O)c1ccc(-c2ccc(N3CCC4(CCN(Cc5ccc[nH]5)CC4)C3=O)nc2)cc1 (3D coordinates assigned)
NS(=O)(=O)c1ccc(-c2ccc(N3CCC4(CCN(Cc5ccc[nH]5)CC4)C3=O)nc2)cc1 (nonaromatic ring conformer: 115.70701014333886 kcal/mol)

>  <smiles>  (66) 
NS(=O)(=O)c1ccc(-c2ccc(N3CCC4(CCN(Cc5ccc[nH]5)CC4)C3=O)nc2)cc1

>  <score_type>  (66) 
oracle

>  <origin>  (66) 
adg

>  <m_score__min__energy>  (66) 
-9.8399999999999999

>  <m_primary>  (66) 
energy

$$$$
66:0
     RDKit          3D

 46 48  0  0  0  0  0  0  0  0999 V2000
   59.8080   33.3740   49.8990 C   0  0  0  0  0  0  0  0  0  0  0  0
   60.6050   34.0670   48.8840 N   0  0  0  0  0  0  0  0  0  0  0  0
   61.9260   34.5840   49.2440 C   0  0  0  0  0  0  0  0  0  0  0  0
   60.0950   34.3060   47.5590 C   0  0  0  0  0  0  0  0  0  0  0  0
   60.3450   35.4030   46.9890 O   0  0  0  0  0  0  0  0  0  0  0  0
   59.3040   33.2930   46.8310 C   0  0  0  0  0  0  0  0  0  0  0  0
   59.0920   31.9750   47.2340 C   0  0  0  0  0  0  0  0  0  0  0  0
   58.3410   31.4100   46.2270 C   0  0  0  0  0  0  0  0  0  0  0  0
   57.8350   30.1200   46.0910 C   0  0  0  0  0  0  0  0  0  0  0  0
   57.0990   29.8130   44.9200 C   0  0  0  0  0  0  0  0  0  0  0  0
   56.5300   28.5070   44.7190 N   0  0  0  0  0  0  0  0  0  0  0  0
   57.0340   27.3070   45.3260 C   0  0  0  0  0  0  0  0  0  0  0  0
   58.4150   27.0820   45.3430 C   0  0  0  0  0  0  0  0  0  0  0  0
   58.9320   25.9270   45.9280 C   0  0  0  0  0  0  0  0  0  0  0  0
   58.0780   24.9910   46.5150 C   0  0  0  0  0  0  0  0  0  0  0  0
   56.6870   25.2110   46.5430 C   0  0  0  0  0  0  0  0  0  0  0  0
   55.7860   24.2620   47.1480 N   0  0  0  0  0  0  0  0  0  0  0  0
   56.2750   22.7600   47.8650 S   0  0  0  0  0  0  0  0  0  0  0  0
   54.8520   21.7460   48.2080 C   0  0  0  0  0  0  0  0  0  0  0  0
   57.0520   23.0180   49.1260 O   0  0  0  0  0  0  0  0  0  0  0  0
   57.1590   22.0260   46.8970 O   0  0  0  0  0  0  0  0  0  0  0  0
   56.1720   26.3840   45.9530 C   0  0  0  0  0  0  0  0  0  0  0  0
   54.8060   26.6450   46.0140 O   0  0  0  0  0  0  0  0  0  0  0  0
   56.8790   30.8210   43.9490 C   0  0  0  0  0  0  0  0  0  0  0  0
   57.4070   32.1130   44.1180 C   0  0  0  0  0  0  0  0  0  0  0  0
   58.1370   32.3720   45.2750 C   0  0  0  0  0  0  0  0  0  0  0  0
   58.7250   33.5270   45.6280 N   0  0  0  0  0  0  0  0  0  0  0  0
   60.1508   33.6721   50.9008 H   0  0  0  0  0  0  0  0  0  0  0  0
   58.7480   33.6425   49.7792 H   0  0  0  0  0  0  0  0  0  0  0  0
   59.9267   32.2870   49.7792 H   0  0  0  0  0  0  0  0  0  0  0  0
   62.0194   34.6206   50.3394 H   0  0  0  0  0  0  0  0  0  0  0  0
   62.7031   33.9236   48.8316 H   0  0  0  0  0  0  0  0  0  0  0  0
   62.0484   35.5964   48.8316 H   0  0  0  0  0  0  0  0  0  0  0  0
   59.4474   31.4915   48.1559 H   0  0  0  0  0  0  0  0  0  0  0  0
   58.0018   29.3614   46.8699 H   0  0  0  0  0  0  0  0  0  0  0  0
   55.6480   28.4360   44.1620 H   0  0  0  0  0  0  0  0  0  0  0  0
   59.0956   27.8196   44.8928 H   0  0  0  0  0  0  0  0  0  0  0  0
   60.0180   25.7521   45.9272 H   0  0  0  0  0  0  0  0  0  0  0  0
   58.4947   24.0749   46.9589 H   0  0  0  0  0  0  0  0  0  0  0  0
   54.7720   24.4960   47.2240 H   0  0  0  0  0  0  0  0  0  0  0  0
   54.7217   21.6531   49.2963 H   0  0  0  0  0  0  0  0  0  0  0  0
   53.9564   22.2107   47.7698 H   0  0  0  0  0  0  0  0  0  0  0  0
   54.9988   20.7478   47.7698 H   0  0  0  0  0  0  0  0  0  0  0  0
   56.2873   30.5897   43.0510 H   0  0  0  0  0  0  0  0  0  0  0  0
   57.2484   32.8944   43.3602 H   0  0  0  0  0  0  0  0  0  0  0  0
   58.7330   34.4190   45.0830 H   0  0  0  0  0  0  0  0  0  0  0  0
  1  2  1  0
  2  3  1  0
  2  4  1  0
  4  5  2  0
  4  6  1  0
  6  7  2  0
  7  8  1  0
  8  9  2  0
  9 10  1  0
 10 11  1  0
 11 12  1  0
 12 13  2  0
 13 14  1  0
 14 15  2  0
 15 16  1  0
 16 17  1  0
 17 18  1  0
 18 19  1  0
 18 20  2  0
 18 21  2  0
 16 22  2  0
 22 23  1  0
 10 24  2  0
 24 25  1  0
 25 26  2  0
 26 27  1  0
 27  6  1  0
 26  8  1  0
 22 12  1  0
  1 28  1  0
  1 29  1  0
  1 30  1  0
  3 31  1  0
  3 32  1  0
  3 33  1  0
  7 34  1  0
  9 35  1  0
 11 36  1  0
 13 37  1  0
 14 38  1  0
 15 39  1  0
 17 40  1  0
 19 41  1  0
 19 42  1  0
 19 43  1  0
 24 44  1  0
 25 45  1  0
 27 46  1  0
M  CHG  1  23  -1
M  END
>  <UniqueID>  (67) 
63

>  <SMILES>  (67) 
CN(C)C(=O)c1cc2cc(Nc3cccc(NS(C)(=O)=O)c3[O-])ccc2[nH]1

>  <Energy>  (67) 
87.91171878794893

>  <Genealogy>  (67) 
CN(C)C(=O)c1cc2cc(Nc3cccc(NS(C)(=O)=O)c3[O-])ccc2[nH]1 (protonated)
CN(C)C(=O)c1cc2cc(Nc3cccc(NS(C)(=O)=O)c3[O-])ccc2[nH]1 (3D coordinates assigned)
CN(C)C(=O)c1cc2cc(Nc3cccc(NS(C)(=O)=O)c3[O-])ccc2[nH]1 (optimized conformer: 87.91171878794893 kcal/mol)

>  <smiles>  (67) 
CN(C)C(=O)c1cc2cc(Nc3cccc(NS(C)(=O)=O)c3O)ccc2[nH]1

>  <score_type>  (67) 
oracle

>  <origin>  (67) 
adg

>  <m_score__min__energy>  (67) 
-12.119999999999999

>  <m_primary>  (67) 
energy

$$$$
67:0
     RDKit          3D

 46 47  0  0  0  0  0  0  0  0999 V2000
   63.2850   33.8320   46.3220 C   0  0  0  0  0  0  0  0  0  0  0  0
   63.3540   33.8700   47.7440 O   0  0  0  0  0  0  0  0  0  0  0  0
   62.9040   32.8440   48.5880 C   0  0  0  0  0  0  0  0  0  0  0  0
   63.7780   32.1000   49.4000 C   0  0  0  0  0  0  0  0  0  0  0  0
   63.2810   31.0800   50.2140 C   0  0  0  0  0  0  0  0  0  0  0  0
   61.9150   30.7950   50.2280 C   0  0  0  0  0  0  0  0  0  0  0  0
   61.0200   31.5360   49.4370 C   0  0  0  0  0  0  0  0  0  0  0  0
   59.5480   31.1560   49.4540 C   0  0  1  0  0  0  0  0  0  0  0  0
   58.5790   32.3300   49.6480 C   0  0  0  0  0  0  0  0  0  0  0  0
   59.2020   30.3850   48.2590 N   0  0  0  0  0  0  0  0  0  0  0  0
   59.5660   30.7080   46.9090 C   0  0  0  0  0  0  0  0  0  0  0  0
   60.4810   30.0550   46.3390 O   0  0  0  0  0  0  0  0  0  0  0  0
   58.8760   31.8040   46.1690 C   0  0  0  0  0  0  0  0  0  0  0  0
   59.1070   33.1380   46.5620 C   0  0  0  0  0  0  0  0  0  0  0  0
   58.4960   34.1990   45.8940 C   0  0  0  0  0  0  0  0  0  0  0  0
   57.6400   33.9510   44.8240 C   0  0  0  0  0  0  0  0  0  0  0  0
   57.3980   32.6410   44.4130 C   0  0  0  0  0  0  0  0  0  0  0  0
   58.0200   31.5580   45.0630 C   0  0  0  0  0  0  0  0  0  0  0  0
   57.7480   30.2130   44.6410 N   0  0  0  0  0  0  0  0  0  0  0  0
   56.8450   29.2910   45.2640 C   0  0  0  0  0  0  0  0  0  0  0  0
   55.5990   29.3970   45.0970 O   0  0  0  0  0  0  0  0  0  0  0  0
   57.3970   28.1360   46.0360 C   0  0  0  0  0  0  0  0  0  0  0  0
   56.9880   26.8120   45.3860 C   0  0  0  0  0  0  0  0  0  0  0  0
   55.9390   26.1280   46.2030 C   0  0  0  0  0  0  0  0  0  0  0  0
   54.7190   26.3420   45.9760 O   0  0  0  0  0  0  0  0  0  0  0  0
   56.3070   25.2200   47.1890 O   0  0  0  0  0  0  0  0  0  0  0  0
   61.5330   32.5570   48.6100 C   0  0  0  0  0  0  0  0  0  0  0  0
   62.3602   33.3227   46.0133 H   0  0  0  0  0  0  0  0  0  0  0  0
   63.2875   34.8587   45.9272 H   0  0  0  0  0  0  0  0  0  0  0  0
   64.1540   33.2852   45.9272 H   0  0  0  0  0  0  0  0  0  0  0  0
   64.8554   32.3218   49.3941 H   0  0  0  0  0  0  0  0  0  0  0  0
   63.9686   30.4992   50.8463 H   0  0  0  0  0  0  0  0  0  0  0  0
   61.5348   29.9823   50.8644 H   0  0  0  0  0  0  0  0  0  0  0  0
   59.4197   30.5318   50.3506 H   0  0  0  0  0  0  0  0  0  0  0  0
   58.4309   32.5094   50.7231 H   0  0  0  0  0  0  0  0  0  0  0  0
   58.9984   33.2328   49.1800 H   0  0  0  0  0  0  0  0  0  0  0  0
   57.6131   32.0894   49.1800 H   0  0  0  0  0  0  0  0  0  0  0  0
   59.7790   33.3451   47.4079 H   0  0  0  0  0  0  0  0  0  0  0  0
   58.6906   35.2336   46.2130 H   0  0  0  0  0  0  0  0  0  0  0  0
   57.1545   34.7892   44.3028 H   0  0  0  0  0  0  0  0  0  0  0  0
   56.7142   32.4516   43.5724 H   0  0  0  0  0  0  0  0  0  0  0  0
   58.4946   28.2055   46.0561 H   0  0  0  0  0  0  0  0  0  0  0  0
   56.9961   28.1684   47.0598 H   0  0  0  0  0  0  0  0  0  0  0  0
   56.5904   27.0106   44.3798 H   0  0  0  0  0  0  0  0  0  0  0  0
   57.8712   26.1593   45.3235 H   0  0  0  0  0  0  0  0  0  0  0  0
   60.8473   33.1357   47.9737 H   0  0  0  0  0  0  0  0  0  0  0  0
  1  2  1  0
  2  3  1  0
  3  4  2  0
  4  5  1  0
  5  6  2  0
  6  7  1  0
  7  8  1  0
  8  9  1  0
  8 10  1  0
 10 11  1  0
 11 12  2  0
 11 13  1  0
 13 14  2  0
 14 15  1  0
 15 16  2  0
 16 17  1  0
 17 18  2  0
 18 19  1  0
 19 20  1  0
 20 21  2  0
 20 22  1  0
 22 23  1  0
 23 24  1  0
 24 25  2  0
 24 26  1  0
  7 27  2  0
 27  3  1  0
 18 13  1  0
  1 28  1  0
  1 29  1  0
  1 30  1  0
  4 31  1  0
  5 32  1  0
  6 33  1  0
  8 34  1  1
  9 35  1  0
  9 36  1  0
  9 37  1  0
 14 38  1  0
 15 39  1  0
 16 40  1  0
 17 41  1  0
 22 42  1  0
 22 43  1  0
 23 44  1  0
 23 45  1  0
 27 46  1  0
M  CHG  3  10  -1  19  -1  26  -1
M  END
>  <UniqueID>  (68) 
64

>  <SMILES>  (68) 
COc1cccc([C@@H](C)[N-]C(=O)c2ccccc2[N-]C(=O)CCC(=O)[O-])c1

>  <Energy>  (68) 
46.344082356306906

>  <Genealogy>  (68) 
COc1cccc(C(C)[N-]C(=O)c2ccccc2[N-]C(=O)CCC(=O)[O-])c1 (protonated)
COc1cccc([C@@H](C)[N-]C(=O)c2ccccc2[N-]C(=O)CCC(=O)[O-])c1 (chirality)
COc1cccc([C@@H](C)[N-]C(=O)c2ccccc2[N-]C(=O)CCC(=O)[O-])c1 (3D coordinates assigned)
COc1cccc([C@@H](C)[N-]C(=O)c2ccccc2[N-]C(=O)CCC(=O)[O-])c1 (optimized conformer: 46.344082356306906 kcal/mol)

>  <smiles>  (68) 
COc1cccc(C(C)NC(=O)c2ccccc2NC(=O)CCC(=O)O)c1

>  <score_type>  (68) 
oracle

>  <origin>  (68) 
adg

>  <m_score__min__energy>  (68) 
-13.449999999999999

>  <m_primary>  (68) 
energy

$$$$
68:0
     RDKit          3D

 26 27  0  0  0  0  0  0  0  0999 V2000
   52.5580   23.0020   45.0570 O   0  0  0  0  0  0  0  0  0  0  0  0
   53.6860   23.5570   45.0780 C   0  0  0  0  0  0  0  0  0  0  0  0
   53.8180   24.8060   45.5930 N   0  0  0  0  0  0  0  0  0  0  0  0
   55.0270   25.4280   45.6240 C   0  0  0  0  0  0  0  0  0  0  0  0
   55.1290   26.7130   46.1520 O   0  0  0  0  0  0  0  0  0  0  0  0
   56.1590   24.7790   45.1110 C   0  0  0  0  0  0  0  0  0  0  0  0
   57.4730   25.4500   45.1310 C   0  0  0  0  0  0  0  0  0  0  0  0
   57.6080   26.7450   45.1460 N   0  0  0  0  0  0  0  0  0  0  0  0
   58.0320   27.5820   44.0200 C   0  0  0  0  0  0  0  0  0  0  0  0
   57.7120   29.0320   44.2730 C   0  0  0  0  0  0  0  0  0  0  0  0
   58.7380   29.9510   44.5280 C   0  0  0  0  0  0  0  0  0  0  0  0
   58.4300   31.2890   44.7860 C   0  0  0  0  0  0  0  0  0  0  0  0
   57.0940   31.6950   44.7810 C   0  0  0  0  0  0  0  0  0  0  0  0
   56.1090   30.7950   44.5250 N   0  0  0  0  0  0  0  0  0  0  0  0
   56.3840   29.4880   44.2710 C   0  0  0  0  0  0  0  0  0  0  0  0
   56.0010   23.4810   44.6000 C   0  0  0  0  0  0  0  0  0  0  0  0
   56.9910   22.8390   44.1570 O   0  0  0  0  0  0  0  0  0  0  0  0
   54.7720   22.9030   44.5900 N   0  0  0  0  0  0  0  0  0  0  0  0
   55.9990   27.0420   46.5540 H   0  0  0  0  0  0  0  0  0  0  0  0
   58.3801   24.8277   45.1333 H   0  0  0  0  0  0  0  0  0  0  0  0
   59.1175   27.4726   43.8795 H   0  0  0  0  0  0  0  0  0  0  0  0
   57.4914   27.2564   43.1190 H   0  0  0  0  0  0  0  0  0  0  0  0
   59.7867   29.6190   44.5251 H   0  0  0  0  0  0  0  0  0  0  0  0
   59.2310   32.0146   44.9908 H   0  0  0  0  0  0  0  0  0  0  0  0
   56.8386   32.7454   44.9847 H   0  0  0  0  0  0  0  0  0  0  0  0
   55.5635   28.7855   44.0632 H   0  0  0  0  0  0  0  0  0  0  0  0
  1  2  2  0
  2  3  1  0
  3  4  1  0
  4  5  1  0
  4  6  2  0
  6  7  1  0
  7  8  2  3
  8  9  1  0
  9 10  1  0
 10 11  2  0
 11 12  1  0
 12 13  2  0
 13 14  1  0
 14 15  2  0
  6 16  1  0
 16 17  2  0
 16 18  1  0
 18  2  1  0
 15 10  1  0
  5 19  1  0
  7 20  1  0
  9 21  1  0
  9 22  1  0
 11 23  1  0
 12 24  1  0
 13 25  1  0
 15 26  1  0
M  CHG  2   3  -1  18  -1
M  END
>  <UniqueID>  (69) 
65

>  <SMILES>  (69) 
O=c1[n-]c(O)c(C=NCc2cccnc2)c(=O)[n-]1

>  <Energy>  (69) 
34.6102390267406

>  <Genealogy>  (69) 
O=c1[n-]c(O)c(C=NCc2cccnc2)c(=O)[n-]1 (protonated)
O=c1[n-]c(O)c(C=NCc2cccnc2)c(=O)[n-]1 (3D coordinates assigned)
O=c1[n-]c(O)c(C=NCc2cccnc2)c(=O)[n-]1 (optimized conformer: 34.6102390267406 kcal/mol)

>  <smiles>  (69) 
O=c1[nH]c(O)c(C=NCc2cccnc2)c(=O)[nH]1

>  <score_type>  (69) 
oracle

>  <origin>  (69) 
adg

>  <m_score__min__energy>  (69) 
-10.93

>  <m_primary>  (69) 
energy

$$$$
69:0
     RDKit          3D

 40 43  0  0  0  0  0  0  0  0999 V2000
   59.4860   31.5110   47.3620 O   0  0  0  0  0  0  0  0  0  0  0  0
   59.0480   32.1050   46.3410 C   0  0  0  0  0  0  0  0  0  0  0  0
   59.0450   33.5600   46.1770 C   0  0  0  0  0  0  0  0  0  0  0  0
   59.7480   34.4570   46.8860 C   0  0  0  0  0  0  0  0  0  0  0  0
   61.0560   34.1950   47.5190 C   0  0  0  0  0  0  0  0  0  0  0  0
   62.1440   33.8100   46.7250 C   0  0  0  0  0  0  0  0  0  0  0  0
   63.3720   33.5130   47.3190 C   0  0  0  0  0  0  0  0  0  0  0  0
   63.4950   33.5820   48.7080 C   0  0  0  0  0  0  0  0  0  0  0  0
   62.4220   33.9250   49.4690 N   0  0  0  0  0  0  0  0  0  0  0  0
   61.2160   34.2220   48.9130 C   0  0  0  0  0  0  0  0  0  0  0  0
   57.9440   34.0710   44.8560 S   0  0  0  0  0  0  0  0  0  0  0  0
   57.8590   32.3510   44.3380 C   0  0  0  0  0  0  0  0  0  0  0  0
   57.7740   31.9960   42.7410 S   0  0  0  0  0  0  0  0  0  0  0  0
   58.4020   31.4180   45.2770 N   0  0  0  0  0  0  0  0  0  0  0  0
   58.3170   29.9840   45.1590 C   0  0  0  0  0  0  0  0  0  0  0  0
   59.4660   29.2280   44.8820 C   0  0  0  0  0  0  0  0  0  0  0  0
   59.3870   27.8380   44.7680 C   0  0  0  0  0  0  0  0  0  0  0  0
   58.1580   27.1750   44.9300 C   0  0  0  0  0  0  0  0  0  0  0  0
   58.0750   25.6970   44.8090 C   0  0  0  0  0  0  0  0  0  0  0  0
   57.3380   25.1050   43.7650 C   0  0  0  0  0  0  0  0  0  0  0  0
   57.2610   23.7130   43.6530 C   0  0  0  0  0  0  0  0  0  0  0  0
   57.9170   22.8980   44.5790 C   0  0  0  0  0  0  0  0  0  0  0  0
   58.6510   23.4740   45.6180 C   0  0  0  0  0  0  0  0  0  0  0  0
   58.7310   24.8640   45.7360 C   0  0  0  0  0  0  0  0  0  0  0  0
   57.0090   27.9360   45.2090 C   0  0  0  0  0  0  0  0  0  0  0  0
   57.0880   29.3260   45.3220 C   0  0  0  0  0  0  0  0  0  0  0  0
   59.3176   35.4624   47.0043 H   0  0  0  0  0  0  0  0  0  0  0  0
   62.0307   33.7417   45.6330 H   0  0  0  0  0  0  0  0  0  0  0  0
   64.2343   33.2274   46.6987 H   0  0  0  0  0  0  0  0  0  0  0  0
   64.4600   33.3589   49.1865 H   0  0  0  0  0  0  0  0  0  0  0  0
   60.3643   34.4839   49.5579 H   0  0  0  0  0  0  0  0  0  0  0  0
   60.4349   29.7329   44.7538 H   0  0  0  0  0  0  0  0  0  0  0  0
   60.2950   27.2568   44.5494 H   0  0  0  0  0  0  0  0  0  0  0  0
   56.8195   25.7416   43.0329 H   0  0  0  0  0  0  0  0  0  0  0  0
   56.6830   23.2591   42.8345 H   0  0  0  0  0  0  0  0  0  0  0  0
   57.8553   21.8034   44.4897 H   0  0  0  0  0  0  0  0  0  0  0  0
   59.1679   22.8314   46.3459 H   0  0  0  0  0  0  0  0  0  0  0  0
   59.3099   25.3104   46.5580 H   0  0  0  0  0  0  0  0  0  0  0  0
   56.0398   27.4325   45.3394 H   0  0  0  0  0  0  0  0  0  0  0  0
   56.1810   29.9088   45.5402 H   0  0  0  0  0  0  0  0  0  0  0  0
  1  2  2  0
  2  3  1  0
  3  4  2  3
  4  5  1  0
  5  6  2  0
  6  7  1  0
  7  8  2  0
  8  9  1  0
  9 10  2  0
  3 11  1  0
 11 12  1  0
 12 13  2  0
 12 14  1  0
 14 15  1  0
 15 16  2  0
 16 17  1  0
 17 18  2  0
 18 19  1  0
 19 20  2  0
 20 21  1  0
 21 22  2  0
 22 23  1  0
 23 24  2  0
 18 25  1  0
 25 26  2  0
 14  2  1  0
 26 15  1  0
 10  5  1  0
 24 19  1  0
  4 27  1  0
  6 28  1  0
  7 29  1  0
  8 30  1  0
 10 31  1  0
 16 32  1  0
 17 33  1  0
 20 34  1  0
 21 35  1  0
 22 36  1  0
 23 37  1  0
 24 38  1  0
 25 39  1  0
 26 40  1  0
M  END
>  <UniqueID>  (70) 
66

>  <SMILES>  (70) 
O=C1C(=Cc2cccnc2)SC(=S)N1c1ccc(-c2ccccc2)cc1

>  <Energy>  (70) 
83.10024507770777

>  <Genealogy>  (70) 
O=C1C(=Cc2cccnc2)SC(=S)N1c1ccc(-c2ccccc2)cc1 (3D coordinates assigned)
O=C1C(=Cc2cccnc2)SC(=S)N1c1ccc(-c2ccccc2)cc1 (nonaromatic ring conformer: 83.10024507770777 kcal/mol)

>  <smiles>  (70) 
O=C1C(=Cc2cccnc2)SC(=S)N1c1ccc(-c2ccccc2)cc1

>  <score_type>  (70) 
oracle

>  <origin>  (70) 
adg

>  <m_score__min__energy>  (70) 
-8.9499999999999993

>  <m_primary>  (70) 
energy

$$$$
70:0
     RDKit          3D

 37 39  0  0  0  0  0  0  0  0999 V2000
   65.4873   31.8411   50.8542 H   0  0  0  0  0  0  0  0  0  0  0  0
   64.7080   32.0990   50.1220 C   0  0  0  0  0  0  0  0  0  0  0  0
   64.9230   33.0950   49.2240 N   0  0  0  0  0  0  0  0  0  0  0  0
   63.9840   33.4470   48.3060 C   0  0  0  0  0  0  0  0  0  0  0  0
   64.1947   34.2551   47.5900 H   0  0  0  0  0  0  0  0  0  0  0  0
   62.7440   32.7830   48.2670 C   0  0  0  0  0  0  0  0  0  0  0  0
   61.7200   33.1610   47.2620 C   0  0  0  0  0  0  0  0  0  0  0  0
   62.0840   33.7070   46.1830 O   0  0  0  0  0  0  0  0  0  0  0  0
   60.3210   32.9560   47.5190 N   0  0  0  0  0  0  0  0  0  0  0  0
   60.0050   32.8990   48.5130 H   0  0  0  0  0  0  0  0  0  0  0  0
   59.3240   32.9500   46.4810 C   0  0  0  0  0  0  0  0  0  0  0  0
   58.6830   31.7520   46.1150 C   0  0  0  0  0  0  0  0  0  0  0  0
   58.9546   30.8143   46.6218 H   0  0  0  0  0  0  0  0  0  0  0  0
   57.7020   31.7380   45.1120 C   0  0  0  0  0  0  0  0  0  0  0  0
   57.0350   30.4670   44.7400 C   0  0  0  0  0  0  0  0  0  0  0  0
   55.7950   30.4670   44.5140 O   0  0  0  0  0  0  0  0  0  0  0  0
   57.7590   29.2370   44.5790 N   0  0  0  0  0  0  0  0  0  0  0  0
   57.7830   28.2570   45.4310 C   0  0  0  0  0  0  0  0  0  0  0  0
   56.8400   27.2910   45.5070 N   0  0  0  0  0  0  0  0  0  0  0  0
   57.1350   26.3840   46.4770 C   0  0  0  0  0  0  0  0  0  0  0  0
   56.2640   25.1990   46.7360 C   0  0  0  0  0  0  0  0  0  0  0  0
   56.1567   25.0530   47.8210 H   0  0  0  0  0  0  0  0  0  0  0  0
   55.2732   25.3675   46.2889 H   0  0  0  0  0  0  0  0  0  0  0  0
   56.7206   24.3036   46.2889 H   0  0  0  0  0  0  0  0  0  0  0  0
   58.3300   26.6100   47.1550 C   0  0  0  0  0  0  0  0  0  0  0  0
   58.7454   25.9840   47.9585 H   0  0  0  0  0  0  0  0  0  0  0  0
   59.0280   28.0090   46.5300 S   0  0  0  0  0  0  0  0  0  0  0  0
   57.3320   32.9460   44.5000 C   0  0  0  0  0  0  0  0  0  0  0  0
   56.5504   32.9501   43.7260 H   0  0  0  0  0  0  0  0  0  0  0  0
   57.9500   34.1410   44.8680 C   0  0  0  0  0  0  0  0  0  0  0  0
   57.6560   35.0813   44.3786 H   0  0  0  0  0  0  0  0  0  0  0  0
   58.9400   34.1520   45.8540 C   0  0  0  0  0  0  0  0  0  0  0  0
   59.7030   35.6850   46.2590 Cl  0  0  0  0  0  0  0  0  0  0  0  0
   62.5160   31.7450   49.1860 C   0  0  0  0  0  0  0  0  0  0  0  0
   61.5603   31.2005   49.1725 H   0  0  0  0  0  0  0  0  0  0  0  0
   63.4990   31.4030   50.1160 C   0  0  0  0  0  0  0  0  0  0  0  0
   63.3220   30.5920   50.8377 H   0  0  0  0  0  0  0  0  0  0  0  0
  1  2  1  0
  2  3  2  0
  3  4  1  0
  4  5  1  0
  4  6  2  0
  6  7  1  0
  7  8  2  0
  7  9  1  0
  9 10  1  0
  9 11  1  0
 11 12  2  0
 12 13  1  0
 12 14  1  0
 14 15  1  0
 15 16  2  0
 15 17  1  0
 17 18  2  0
 18 19  1  0
 19 20  1  0
 20 21  1  0
 21 22  1  0
 21 23  1  0
 21 24  1  0
 20 25  2  0
 25 26  1  0
 25 27  1  0
 14 28  2  0
 28 29  1  0
 28 30  1  0
 30 31  1  0
 30 32  2  0
 32 33  1  0
  6 34  1  0
 34 35  1  0
 34 36  2  0
 36 37  1  0
 36  2  1  0
 32 11  1  0
 27 18  1  0
M  CHG  1  19  -1
M  END
>  <UniqueID>  (71) 
67

>  <SMILES>  (71) 
Cc1cs/c(=N/C(=O)c2ccc(Cl)c(NC(=O)c3cccnc3)c2)[n-]1

>  <Energy>  (71) 
82.67456643645276

>  <Genealogy>  (71) 
Cc1csc(=NC(=O)c2ccc(Cl)c(NC(=O)c3cccnc3)c2)[n-]1 (protonated)
Cc1cs/c(=N/C(=O)c2ccc(Cl)c(NC(=O)c3cccnc3)c2)[n-]1 (cis-trans isomerization)
Cc1cs/c(=N/C(=O)c2ccc(Cl)c(NC(=O)c3cccnc3)c2)[n-]1 (3D coordinates assigned)
Cc1cs/c(=N/C(=O)c2ccc(Cl)c(NC(=O)c3cccnc3)c2)[n-]1 (optimized conformer: 82.67456643645276 kcal/mol)

>  <smiles>  (71) 
Cc1csc(=NC(=O)c2ccc(Cl)c(NC(=O)c3cccnc3)c2)[nH]1

>  <score_type>  (71) 
oracle

>  <origin>  (71) 
adg

>  <m_score__min__energy>  (71) 
-10.09

>  <m_primary>  (71) 
energy

$$$$
71:0
     RDKit          3D

 53 56  0  0  0  0  0  0  0  0999 V2000
   64.7518   31.7560   48.8205 H   0  0  0  0  0  0  0  0  0  0  0  0
   63.8680   32.3670   48.5850 C   0  0  0  0  0  0  0  0  0  0  0  0
   62.9830   32.7380   49.6020 C   0  0  0  0  0  0  0  0  0  0  0  0
   63.1714   32.4189   50.6377 H   0  0  0  0  0  0  0  0  0  0  0  0
   61.8590   33.5140   49.3040 C   0  0  0  0  0  0  0  0  0  0  0  0
   61.1691   33.8104   50.1079 H   0  0  0  0  0  0  0  0  0  0  0  0
   61.6070   33.9170   47.9810 C   0  0  0  0  0  0  0  0  0  0  0  0
   60.4190   34.7840   47.6650 C   0  0  0  0  0  0  0  0  0  0  0  0
   60.7517   35.6603   47.0894 H   0  0  0  0  0  0  0  0  0  0  0  0
   59.9510   35.1082   48.6062 H   0  0  0  0  0  0  0  0  0  0  0  0
   59.4120   34.0120   46.8570 C   0  0  0  0  0  0  0  0  0  0  0  0
   59.2350   34.2870   45.4940 C   0  0  0  0  0  0  0  0  0  0  0  0
   59.8177   35.0895   45.0181 H   0  0  0  0  0  0  0  0  0  0  0  0
   58.3230   33.5480   44.7360 C   0  0  0  0  0  0  0  0  0  0  0  0
   58.1765   33.7867   43.6723 H   0  0  0  0  0  0  0  0  0  0  0  0
   57.5940   32.5050   45.3220 C   0  0  0  0  0  0  0  0  0  0  0  0
   56.6520   31.7840   44.5120 N   0  0  0  0  0  0  0  0  0  0  0  0
   56.5010   30.3610   44.4440 C   0  0  0  0  0  0  0  0  0  0  0  0
   55.5020   29.7990   44.9690 O   0  0  0  0  0  0  0  0  0  0  0  0
   57.5060   29.5840   43.7790 N   0  0  0  0  0  0  0  0  0  0  0  0
   58.1770   30.0950   43.1610 H   0  0  0  0  0  0  0  0  0  0  0  0
   57.5730   28.1480   43.8110 C   0  0  0  0  0  0  0  0  0  0  0  0
   57.7460   27.4410   42.6120 C   0  0  0  0  0  0  0  0  0  0  0  0
   57.8120   27.9876   41.6597 H   0  0  0  0  0  0  0  0  0  0  0  0
   57.8350   26.0460   42.6200 C   0  0  0  0  0  0  0  0  0  0  0  0
   57.9612   25.4984   41.6743 H   0  0  0  0  0  0  0  0  0  0  0  0
   57.7640   25.3460   43.8270 C   0  0  0  0  0  0  0  0  0  0  0  0
   57.8276   24.2478   43.8294 H   0  0  0  0  0  0  0  0  0  0  0  0
   57.6120   26.0400   45.0340 C   0  0  0  0  0  0  0  0  0  0  0  0
   57.5680   25.1760   46.5690 S   0  0  0  0  0  0  0  0  0  0  0  0
   57.9880   23.7440   46.3880 O   0  0  0  0  0  0  0  0  0  0  0  0
   56.1630   25.1990   47.1020 O   0  0  0  0  0  0  0  0  0  0  0  0
   58.6230   25.9500   47.7050 N   0  0  0  0  0  0  0  0  0  0  0  0
   58.9740   27.1940   47.6110 C   0  0  0  0  0  0  0  0  0  0  0  0
   58.3640   28.2100   48.2520 N   0  0  0  0  0  0  0  0  0  0  0  0
   59.0000   29.2910   47.9040 O   0  0  0  0  0  0  0  0  0  0  0  0
   59.9830   29.0170   47.0760 C   0  0  0  0  0  0  0  0  0  0  0  0
   60.8970   30.0330   46.4810 C   0  0  0  0  0  0  0  0  0  0  0  0
   61.3987   30.5907   47.2855 H   0  0  0  0  0  0  0  0  0  0  0  0
   61.6511   29.5284   45.8592 H   0  0  0  0  0  0  0  0  0  0  0  0
   60.3157   30.7297   45.8592 H   0  0  0  0  0  0  0  0  0  0  0  0
   60.0170   27.6580   46.8430 C   0  0  0  0  0  0  0  0  0  0  0  0
   60.7060   27.0875   46.2029 H   0  0  0  0  0  0  0  0  0  0  0  0
   57.5280   27.4390   45.0250 C   0  0  0  0  0  0  0  0  0  0  0  0
   57.4262   27.9863   45.9738 H   0  0  0  0  0  0  0  0  0  0  0  0
   57.7620   32.2350   46.6920 C   0  0  0  0  0  0  0  0  0  0  0  0
   57.1739   31.4372   47.1690 H   0  0  0  0  0  0  0  0  0  0  0  0
   58.6730   32.9760   47.4500 C   0  0  0  0  0  0  0  0  0  0  0  0
   58.8117   32.7463   48.5168 H   0  0  0  0  0  0  0  0  0  0  0  0
   62.5070   33.5500   46.9680 C   0  0  0  0  0  0  0  0  0  0  0  0
   62.3283   33.8755   45.9326 H   0  0  0  0  0  0  0  0  0  0  0  0
   63.6290   32.7730   47.2690 C   0  0  0  0  0  0  0  0  0  0  0  0
   64.3251   32.4805   46.4691 H   0  0  0  0  0  0  0  0  0  0  0  0
  1  2  1  0
  2  3  2  0
  3  4  1  0
  3  5  1  0
  5  6  1  0
  5  7  2  0
  7  8  1  0
  8  9  1  0
  8 10  1  0
  8 11  1  0
 11 12  2  0
 12 13  1  0
 12 14  1  0
 14 15  1  0
 14 16  2  0
 16 17  1  0
 17 18  1  0
 18 19  2  0
 18 20  1  0
 20 21  1  0
 20 22  1  0
 22 23  2  0
 23 24  1  0
 23 25  1  0
 25 26  1  0
 25 27  2  0
 27 28  1  0
 27 29  1  0
 29 30  1  0
 30 31  2  0
 30 32  2  0
 30 33  1  0
 33 34  2  0
 34 35  1  0
 35 36  1  0
 36 37  1  0
 37 38  1  0
 38 39  1  0
 38 40  1  0
 38 41  1  0
 37 42  2  0
 42 43  1  0
 29 44  2  0
 44 45  1  0
 16 46  1  0
 46 47  1  0
 46 48  2  0
 48 49  1  0
  7 50  1  0
 50 51  1  0
 50 52  2  0
 52 53  1  0
 52  2  1  0
 48 11  1  0
 44 22  1  0
 42 34  1  0
M  CHG  2  17  -1  35  -1
M  END
>  <UniqueID>  (72) 
68

>  <SMILES>  (72) 
Cc1c/c(=N/S(=O)(=O)c2cccc(NC(=O)[N-]c3ccc(Cc4ccccc4)cc3)c2)[n-]o1

>  <Energy>  (72) 
95.15036928319199

>  <Genealogy>  (72) 
Cc1cc(=NS(=O)(=O)c2cccc(NC(=O)[N-]c3ccc(Cc4ccccc4)cc3)c2)[n-]o1 (protonated)
Cc1c/c(=N/S(=O)(=O)c2cccc(NC(=O)[N-]c3ccc(Cc4ccccc4)cc3)c2)[n-]o1 (cis-trans isomerization)
Cc1c/c(=N/S(=O)(=O)c2cccc(NC(=O)[N-]c3ccc(Cc4ccccc4)cc3)c2)[n-]o1 (3D coordinates assigned)
Cc1c/c(=N/S(=O)(=O)c2cccc(NC(=O)[N-]c3ccc(Cc4ccccc4)cc3)c2)[n-]o1 (optimized conformer: 95.15036928319199 kcal/mol)

>  <smiles>  (72) 
Cc1cc(=NS(=O)(=O)c2cccc(NC(=O)Nc3ccc(Cc4ccccc4)cc3)c2)[nH]o1

>  <score_type>  (72) 
oracle

>  <origin>  (72) 
adg

>  <m_score__min__energy>  (72) 
-14.699999999999999

>  <m_primary>  (72) 
energy

$$$$
72:0
     RDKit          3D

 46 48  0  0  0  0  0  0  0  0999 V2000
   58.0750   25.3270   47.5020 C   0  0  0  0  0  0  0  0  0  0  0  0
   58.1350   26.5040   46.5730 C   0  0  0  0  0  0  0  0  0  0  0  0
   56.9610   27.0180   46.0110 C   0  0  0  0  0  0  0  0  0  0  0  0
   57.0100   28.1400   45.1820 C   0  0  0  0  0  0  0  0  0  0  0  0
   58.2340   28.7710   44.8990 C   0  0  0  0  0  0  0  0  0  0  0  0
   58.2630   29.9510   44.0750 N   0  0  0  0  0  0  0  0  0  0  0  0
   57.3460   31.0470   44.2420 C   0  0  0  0  0  0  0  0  0  0  0  0
   56.2660   30.8590   44.8700 O   0  0  0  0  0  0  0  0  0  0  0  0
   57.6320   32.3510   43.6890 N   0  0  0  0  0  0  0  0  0  0  0  0
   58.1360   32.4820   42.3180 C   0  0  0  0  0  0  0  0  0  0  0  0
   57.4480   33.5550   44.5130 C   0  0  0  0  0  0  0  0  0  0  0  0
   57.5930   33.2330   46.0050 C   0  0  0  0  0  0  0  0  0  0  0  0
   59.0030   33.1400   46.3770 N   0  0  0  0  0  0  0  0  0  0  0  0
   60.1500   34.3240   46.1170 S   0  0  0  0  0  0  0  0  0  0  0  0
   61.4820   33.4830   46.6710 C   0  0  0  0  0  0  0  0  0  0  0  0
   62.8160   33.8670   46.7480 C   0  0  0  0  0  0  0  0  0  0  0  0
   63.7380   32.9360   47.2520 C   0  0  0  0  0  0  0  0  0  0  0  0
   63.3080   31.6570   47.6610 C   0  0  0  0  0  0  0  0  0  0  0  0
   61.9520   31.2940   47.5700 C   0  0  0  0  0  0  0  0  0  0  0  0
   61.0390   32.2280   47.0690 C   0  0  0  0  0  0  0  0  0  0  0  0
   59.6510   32.0570   46.8910 C   0  0  0  0  0  0  0  0  0  0  0  0
   59.0520   30.9850   47.1760 O   0  0  0  0  0  0  0  0  0  0  0  0
   59.4200   28.2670   45.4800 C   0  0  0  0  0  0  0  0  0  0  0  0
   60.7500   28.9240   45.2260 C   0  0  0  0  0  0  0  0  0  0  0  0
   59.3570   27.1430   46.3230 C   0  0  0  0  0  0  0  0  0  0  0  0
   58.0930   25.6806   48.5435 H   0  0  0  0  0  0  0  0  0  0  0  0
   57.1470   24.7645   47.3218 H   0  0  0  0  0  0  0  0  0  0  0  0
   58.9410   24.6731   47.3218 H   0  0  0  0  0  0  0  0  0  0  0  0
   55.9954   26.5358   46.2234 H   0  0  0  0  0  0  0  0  0  0  0  0
   56.0807   28.5348   44.7454 H   0  0  0  0  0  0  0  0  0  0  0  0
   58.9520   29.9850   43.2920 H   0  0  0  0  0  0  0  0  0  0  0  0
   59.2003   32.7586   42.3435 H   0  0  0  0  0  0  0  0  0  0  0  0
   58.0188   31.5235   41.7911 H   0  0  0  0  0  0  0  0  0  0  0  0
   57.5669   33.2621   41.7911 H   0  0  0  0  0  0  0  0  0  0  0  0
   58.2054   34.3015   44.2318 H   0  0  0  0  0  0  0  0  0  0  0  0
   56.4347   33.9456   44.3377 H   0  0  0  0  0  0  0  0  0  0  0  0
   57.1154   34.0294   46.5947 H   0  0  0  0  0  0  0  0  0  0  0  0
   57.1085   32.2664   46.2076 H   0  0  0  0  0  0  0  0  0  0  0  0
   63.1385   34.8677   46.4246 H   0  0  0  0  0  0  0  0  0  0  0  0
   64.8017   33.2058   47.3282 H   0  0  0  0  0  0  0  0  0  0  0  0
   64.0397   30.9363   48.0549 H   0  0  0  0  0  0  0  0  0  0  0  0
   61.6162   30.2955   47.8865 H   0  0  0  0  0  0  0  0  0  0  0  0
   61.2310   29.1616   46.1863 H   0  0  0  0  0  0  0  0  0  0  0  0
   61.3933   28.2401   44.6530 H   0  0  0  0  0  0  0  0  0  0  0  0
   60.5978   29.8506   44.6530 H   0  0  0  0  0  0  0  0  0  0  0  0
   60.2765   26.7615   46.7910 H   0  0  0  0  0  0  0  0  0  0  0  0
  1  2  1  0
  2  3  2  0
  3  4  1  0
  4  5  2  0
  5  6  1  0
  6  7  1  0
  7  8  2  0
  7  9  1  0
  9 10  1  0
  9 11  1  0
 11 12  1  0
 12 13  1  0
 13 14  1  0
 14 15  1  0
 15 16  2  0
 16 17  1  0
 17 18  2  0
 18 19  1  0
 19 20  2  0
 20 21  1  0
 21 22  2  0
  5 23  1  0
 23 24  1  0
 23 25  2  0
 25  2  1  0
 21 13  1  0
 20 15  1  0
  1 26  1  0
  1 27  1  0
  1 28  1  0
  3 29  1  0
  4 30  1  0
  6 31  1  0
 10 32  1  0
 10 33  1  0
 10 34  1  0
 11 35  1  0
 11 36  1  0
 12 37  1  0
 12 38  1  0
 16 39  1  0
 17 40  1  0
 18 41  1  0
 19 42  1  0
 24 43  1  0
 24 44  1  0
 24 45  1  0
 25 46  1  0
M  END
>  <UniqueID>  (73) 
69

>  <SMILES>  (73) 
Cc1ccc(NC(=O)N(C)CCn2sc3ccccc3c2=O)c(C)c1

>  <Energy>  (73) 
84.87424049127354

>  <Genealogy>  (73) 
Cc1ccc(NC(=O)N(C)CCn2sc3ccccc3c2=O)c(C)c1 (3D coordinates assigned)
Cc1ccc(NC(=O)N(C)CCn2sc3ccccc3c2=O)c(C)c1 (optimized conformer: 84.87424049127354 kcal/mol)

>  <smiles>  (73) 
Cc1ccc(NC(=O)N(C)CCn2sc3ccccc3c2=O)c(C)c1

>  <score_type>  (73) 
oracle

>  <origin>  (73) 
adg

>  <m_score__min__energy>  (73) 
-8.8900000000000006

>  <m_primary>  (73) 
energy

$$$$
73:0
     RDKit          3D

 55 58  0  0  0  0  0  0  0  0999 V2000
   59.2050   34.9040   48.0630 O   0  0  0  0  0  0  0  0  0  0  0  0
   59.0640   33.6820   47.7770 C   0  0  0  0  0  0  0  0  0  0  0  0
   58.7910   33.2970   46.3460 C   0  0  0  0  0  0  0  0  0  0  0  0
   57.5790   32.4880   46.2310 N   0  0  0  0  0  0  0  0  0  0  0  0
   57.4840   31.3670   45.5720 C   0  0  0  0  0  0  0  0  0  0  0  0
   56.6470   31.2770   44.4970 N   0  0  0  0  0  0  0  0  0  0  0  0
   56.5340   30.1460   43.7540 C   0  0  0  0  0  0  0  0  0  0  0  0
   57.2950   29.0250   44.0740 C   0  0  0  0  0  0  0  0  0  0  0  0
   58.1530   29.0720   45.1720 C   0  0  0  0  0  0  0  0  0  0  0  0
   58.2610   30.2410   45.9530 C   0  0  0  0  0  0  0  0  0  0  0  0
   59.1490   30.2460   47.1530 C   0  0  0  0  0  0  0  0  0  0  0  0
   60.2300   30.8910   47.1380 O   0  0  0  0  0  0  0  0  0  0  0  0
   58.7130   29.6060   48.3710 N   0  0  0  0  0  0  0  0  0  0  0  0
   59.4600   29.4650   49.5900 C   0  0  0  0  0  0  0  0  0  0  0  0
   60.7680   28.9440   49.6170 C   0  0  0  0  0  0  0  0  0  0  0  0
   61.4520   28.8220   50.8320 C   0  0  0  0  0  0  0  0  0  0  0  0
   60.8390   29.2040   52.0240 C   0  0  0  0  0  0  0  0  0  0  0  0
   59.5260   29.6870   52.0120 C   0  0  0  0  0  0  0  0  0  0  0  0
   58.8350   29.8090   50.8010 C   0  0  0  0  0  0  0  0  0  0  0  0
   57.5580   30.2740   50.8060 F   0  0  0  0  0  0  0  0  0  0  0  0
   59.2480   32.6800   48.7980 N   0  0  0  0  0  0  0  0  0  0  0  0
   59.8910   32.9830   50.0440 C   0  0  0  0  0  0  0  0  0  0  0  0
   59.1160   33.0520   51.2110 C   0  0  0  0  0  0  0  0  0  0  0  0
   59.7040   33.3990   52.4320 C   0  0  0  0  0  0  0  0  0  0  0  0
   61.0720   33.6710   52.4940 C   0  0  0  0  0  0  0  0  0  0  0  0
   61.8620   33.5810   51.3410 C   0  0  0  0  0  0  0  0  0  0  0  0
   61.2860   33.2240   50.1100 C   0  0  0  0  0  0  0  0  0  0  0  0
   62.1400   33.0440   48.9610 N   0  0  0  0  0  0  0  0  0  0  0  0
   62.5950   34.2180   48.1980 C   0  0  0  0  0  0  0  0  0  0  0  0
   62.9280   33.8220   46.7540 C   0  0  0  0  0  0  0  0  0  0  0  0
   63.7890   32.7020   46.7340 O   0  0  0  0  0  0  0  0  0  0  0  0
   63.0840   31.5690   47.2120 C   0  0  0  0  0  0  0  0  0  0  0  0
   62.7360   31.7220   48.7030 C   0  0  0  0  0  0  0  0  0  0  0  0
   58.6686   34.2114   45.7469 H   0  0  0  0  0  0  0  0  0  0  0  0
   59.6401   32.7005   45.9810 H   0  0  0  0  0  0  0  0  0  0  0  0
   55.8416   30.1156   42.8998 H   0  0  0  0  0  0  0  0  0  0  0  0
   57.2201   28.1111   43.4665 H   0  0  0  0  0  0  0  0  0  0  0  0
   58.7525   28.1871   45.4319 H   0  0  0  0  0  0  0  0  0  0  0  0
   61.2535   28.6320   48.6806 H   0  0  0  0  0  0  0  0  0  0  0  0
   62.4771   28.4232   50.8462 H   0  0  0  0  0  0  0  0  0  0  0  0
   61.3876   29.1257   52.9742 H   0  0  0  0  0  0  0  0  0  0  0  0
   59.0363   29.9711   52.9551 H   0  0  0  0  0  0  0  0  0  0  0  0
   58.8270   31.7310   48.6810 H   0  0  0  0  0  0  0  0  0  0  0  0
   58.0392   32.8319   51.1659 H   0  0  0  0  0  0  0  0  0  0  0  0
   59.0892   33.4575   53.3423 H   0  0  0  0  0  0  0  0  0  0  0  0
   61.5310   33.9570   53.4519 H   0  0  0  0  0  0  0  0  0  0  0  0
   62.9402   33.7911   51.3994 H   0  0  0  0  0  0  0  0  0  0  0  0
   61.7985   34.9766   48.1911 H   0  0  0  0  0  0  0  0  0  0  0  0
   63.4998   34.6238   48.6741 H   0  0  0  0  0  0  0  0  0  0  0  0
   61.9973   33.5727   46.2233 H   0  0  0  0  0  0  0  0  0  0  0  0
   63.4314   34.6665   46.2606 H   0  0  0  0  0  0  0  0  0  0  0  0
   62.1539   31.4551   46.6358 H   0  0  0  0  0  0  0  0  0  0  0  0
   63.7242   30.6826   47.0917 H   0  0  0  0  0  0  0  0  0  0  0  0
   62.0181   30.9393   48.9893 H   0  0  0  0  0  0  0  0  0  0  0  0
   63.6581   31.6260   49.2950 H   0  0  0  0  0  0  0  0  0  0  0  0
  1  2  2  0
  2  3  1  0
  3  4  1  0
  4  5  2  3
  5  6  1  0
  6  7  1  0
  7  8  2  0
  8  9  1  0
  9 10  2  0
 10 11  1  0
 11 12  2  0
 11 13  1  0
 13 14  1  0
 14 15  2  0
 15 16  1  0
 16 17  2  0
 17 18  1  0
 18 19  2  0
 19 20  1  0
  2 21  1  0
 21 22  1  0
 22 23  2  0
 23 24  1  0
 24 25  2  0
 25 26  1  0
 26 27  2  0
 27 28  1  0
 28 29  1  0
 29 30  1  0
 30 31  1  0
 31 32  1  0
 32 33  1  0
 10  5  1  0
 19 14  1  0
 27 22  1  0
 33 28  1  0
  3 34  1  0
  3 35  1  0
  7 36  1  0
  8 37  1  0
  9 38  1  0
 15 39  1  0
 16 40  1  0
 17 41  1  0
 18 42  1  0
 21 43  1  0
 23 44  1  0
 24 45  1  0
 25 46  1  0
 26 47  1  0
 29 48  1  0
 29 49  1  0
 30 50  1  0
 30 51  1  0
 32 52  1  0
 32 53  1  0
 33 54  1  0
 33 55  1  0
M  CHG  2   6  -1  13  -1
M  END
>  <UniqueID>  (74) 
70

>  <SMILES>  (74) 
O=C(CN=c1[n-]cccc1C(=O)[N-]c1ccccc1F)Nc1ccccc1N1CCOCC1

>  <Energy>  (74) 
78.48639637644817

>  <Genealogy>  (74) 
O=C(CN=c1[n-]cccc1C(=O)[N-]c1ccccc1F)Nc1ccccc1N1CCOCC1 (protonated)
O=C(CN=c1[n-]cccc1C(=O)[N-]c1ccccc1F)Nc1ccccc1N1CCOCC1 (3D coordinates assigned)
O=C(CN=c1[n-]cccc1C(=O)[N-]c1ccccc1F)Nc1ccccc1N1CCOCC1 (nonaromatic ring conformer: 78.48639637644817 kcal/mol)

>  <smiles>  (74) 
O=C(CN=c1[nH]cccc1C(=O)Nc1ccccc1F)Nc1ccccc1N1CCOCC1

>  <score_type>  (74) 
oracle

>  <origin>  (74) 
adg

>  <m_score__min__energy>  (74) 
-12.33

>  <m_primary>  (74) 
energy

$$$$
74:0
     RDKit          3D

 41 43  0  0  1  0  0  0  0  0999 V2000
   56.4700   24.0500   45.4440 C   0  0  0  0  0  0  0  0  0  0  0  0
   56.5450   25.7630   45.8450 S   0  0  0  0  0  0  0  0  0  0  0  0
   55.1610   26.3240   46.0050 O   0  0  0  0  0  0  0  0  0  0  0  0
   57.3470   25.9820   47.1140 O   0  0  0  0  0  0  0  0  0  0  0  0
   57.3200   26.6800   44.5880 N   0  0  0  0  0  0  0  0  0  0  0  0
   57.9690   27.9140   44.8580 C   0  0  0  0  0  0  0  0  0  0  0  0
   59.3530   27.8720   44.9730 C   0  0  0  0  0  0  0  0  0  0  0  0
   60.0520   29.0410   45.2370 C   0  0  0  0  0  0  0  0  0  0  0  0
   59.3880   30.2430   45.3860 C   0  0  0  0  0  0  0  0  0  0  0  0
   58.0010   30.2610   45.2680 C   0  0  0  0  0  0  0  0  0  0  0  0
   57.3760   31.5290   45.4340 N   0  0  0  0  0  0  0  0  0  0  0  0
   58.0140   32.6220   45.6260 C   0  0  0  0  0  0  0  0  0  0  0  0
   57.9080   33.6020   44.6590 C   0  0  0  0  0  0  0  0  0  0  0  0
   58.6060   34.7970   44.8680 C   0  0  0  0  0  0  0  0  0  0  0  0
   59.3410   34.9350   45.9880 N   0  0  0  0  0  0  0  0  0  0  0  0
   59.4030   33.9350   46.8950 C   0  0  0  0  0  0  0  0  0  0  0  0
   60.2210   34.2050   48.0490 N   0  0  0  0  0  0  0  0  0  0  0  0
   61.4910   33.8840   47.9910 C   0  0  0  0  0  0  0  0  0  0  0  0
   62.2290   33.6250   49.1280 C   0  0  0  0  0  0  0  0  0  0  0  0
   63.5650   33.2900   49.0020 C   0  0  0  0  0  0  0  0  0  0  0  0
   64.1300   33.2200   47.7830 N   0  0  0  0  0  0  0  0  0  0  0  0
   63.4150   33.4720   46.6610 C   0  0  0  0  0  0  0  0  0  0  0  0
   62.0770   33.8090   46.7430 C   0  0  0  0  0  0  0  0  0  0  0  0
   58.7510   32.7670   46.7420 N   0  0  0  0  0  0  0  0  0  0  0  0
   57.2910   29.1070   45.0060 C   0  0  0  0  0  0  0  0  0  0  0  0
   56.4441   23.4574   46.3703 H   0  0  0  0  0  0  0  0  0  0  0  0
   55.5623   23.8506   44.8556 H   0  0  0  0  0  0  0  0  0  0  0  0
   57.3568   23.7720   44.8556 H   0  0  0  0  0  0  0  0  0  0  0  0
   57.3340   26.3570   43.5890 H   0  0  0  0  0  0  0  0  0  0  0  0
   59.8903   26.9194   44.8556 H   0  0  0  0  0  0  0  0  0  0  0  0
   61.1477   29.0103   45.3287 H   0  0  0  0  0  0  0  0  0  0  0  0
   59.9447   31.1686   45.5940 H   0  0  0  0  0  0  0  0  0  0  0  0
   57.2971   33.4490   43.7571 H   0  0  0  0  0  0  0  0  0  0  0  0
   58.5550   35.6104   44.1293 H   0  0  0  0  0  0  0  0  0  0  0  0
   59.8650   35.8390   46.1400 H   0  0  0  0  0  0  0  0  0  0  0  0
   61.7608   33.6842   50.1216 H   0  0  0  0  0  0  0  0  0  0  0  0
   64.1661   33.0806   49.8992 H   0  0  0  0  0  0  0  0  0  0  0  0
   65.1380   32.9640   47.7470 H   0  0  0  0  0  0  0  0  0  0  0  0
   63.9026   33.4080   45.6770 H   0  0  0  0  0  0  0  0  0  0  0  0
   61.4919   34.0129   45.8341 H   0  0  0  0  0  0  0  0  0  0  0  0
   56.1951   29.1377   44.9160 H   0  0  0  0  0  0  0  0  0  0  0  0
  1  2  1  0
  2  3  2  0
  2  4  2  0
  2  5  1  0
  5  6  1  0
  6  7  2  0
  7  8  1  0
  8  9  2  0
  9 10  1  0
 10 11  1  0
 11 12  2  0
 12 13  1  0
 13 14  2  0
 14 15  1  0
 15 16  1  0
 16 17  1  0
 17 18  2  3
 18 19  1  0
 19 20  2  0
 20 21  1  0
 21 22  1  0
 22 23  2  0
 16 24  2  0
 10 25  2  0
 25  6  1  0
 24 12  1  0
 23 18  1  0
  1 26  1  0
  1 27  1  0
  1 28  1  0
  5 29  1  0
  7 30  1  0
  8 31  1  0
  9 32  1  0
 13 33  1  0
 14 34  1  0
 15 35  1  0
 19 36  1  0
 20 37  1  0
 21 38  1  0
 22 39  1  0
 23 40  1  0
 25 41  1  0
M  END
>  <smiles>  (75) 
CS(=O)(=O)Nc1cccc(N=c2cc[nH]c(N=c3cc[nH]cc3)n2)c1

>  <score_type>  (75) 
oracle

>  <origin>  (75) 
adg

>  <m_score__min__energy>  (75) 
-8.8499999999999996

>  <m_primary>  (75) 
energy

$$$$
75:0
     RDKit          3D

 39 41  0  0  0  0  0  0  0  0999 V2000
   55.1330   27.8920   45.9550 H   0  0  0  0  0  0  0  0  0  0  0  0
   55.5020   26.9500   46.0080 O   0  0  0  0  0  0  0  0  0  0  0  0
   56.8730   26.7070   46.0870 C   0  0  0  0  0  0  0  0  0  0  0  0
   57.3570   25.3990   46.2180 C   0  0  0  0  0  0  0  0  0  0  0  0
   56.6543   24.5535   46.2546 H   0  0  0  0  0  0  0  0  0  0  0  0
   58.7300   25.1690   46.3020 C   0  0  0  0  0  0  0  0  0  0  0  0
   59.1165   24.1446   46.4081 H   0  0  0  0  0  0  0  0  0  0  0  0
   59.6080   26.2520   46.2500 C   0  0  0  0  0  0  0  0  0  0  0  0
   60.6933   26.0833   46.3102 H   0  0  0  0  0  0  0  0  0  0  0  0
   59.1230   27.5150   46.1250 N   0  0  0  0  0  0  0  0  0  0  0  0
   57.7850   27.7730   46.0420 C   0  0  0  0  0  0  0  0  0  0  0  0
   57.3380   28.9940   45.9600 N   0  0  0  0  0  0  0  0  0  0  0  0
   56.6060   29.5680   44.8650 C   0  0  0  0  0  0  0  0  0  0  0  0
   55.3510   29.6910   44.9110 O   0  0  0  0  0  0  0  0  0  0  0  0
   57.3520   30.0500   43.6580 C   0  0  0  0  0  0  0  0  0  0  0  0
   56.6244   30.3427   42.8867 H   0  0  0  0  0  0  0  0  0  0  0  0
   57.9973   29.2288   43.3128 H   0  0  0  0  0  0  0  0  0  0  0  0
   58.2550   31.2570   43.9690 C   0  0  0  0  0  0  0  0  0  0  0  0
   58.9120   31.4316   43.1042 H   0  0  0  0  0  0  0  0  0  0  0  0
   58.8192   31.0109   44.8806 H   0  0  0  0  0  0  0  0  0  0  0  0
   57.4760   32.5520   44.2570 C   0  0  0  0  0  0  0  0  0  0  0  0
   56.5141   32.2905   44.7222 H   0  0  0  0  0  0  0  0  0  0  0  0
   57.3296   33.0771   43.3016 H   0  0  0  0  0  0  0  0  0  0  0  0
   58.2240   33.4720   45.1780 C   0  0  0  0  0  0  0  0  0  0  0  0
   58.6260   34.7240   44.8550 N   0  0  0  0  0  0  0  0  0  0  0  0
   59.2690   35.2270   45.9100 N   0  0  0  0  0  0  0  0  0  0  0  0
   59.2410   34.2690   46.8550 C   0  0  0  0  0  0  0  0  0  0  0  0
   59.7900   34.3090   48.1290 C   0  0  0  0  0  0  0  0  0  0  0  0
   60.3225   35.1981   48.4979 H   0  0  0  0  0  0  0  0  0  0  0  0
   59.6350   33.1630   48.9260 C   0  0  0  0  0  0  0  0  0  0  0  0
   60.0496   33.1416   49.9447 H   0  0  0  0  0  0  0  0  0  0  0  0
   58.9470   32.0380   48.4200 C   0  0  0  0  0  0  0  0  0  0  0  0
   58.8070   30.8990   49.2170 O   0  0  0  0  0  0  0  0  0  0  0  0
   59.0370   29.5850   48.7240 C   0  0  0  0  0  0  0  0  0  0  0  0
   59.1583   28.8921   49.5697 H   0  0  0  0  0  0  0  0  0  0  0  0
   58.1806   29.2684   48.1105 H   0  0  0  0  0  0  0  0  0  0  0  0
   59.9500   29.5781   48.1105 H   0  0  0  0  0  0  0  0  0  0  0  0
   58.4340   32.0760   47.1530 N   0  0  0  0  0  0  0  0  0  0  0  0
   58.6000   33.1810   46.4300 N   0  0  0  0  0  0  0  0  0  0  0  0
  1  2  1  0
  2  3  1  0
  3  4  2  0
  4  5  1  0
  4  6  1  0
  6  7  1  0
  6  8  2  0
  8  9  1  0
  8 10  1  0
 10 11  1  0
 11 12  2  0
 12 13  1  0
 13 14  2  0
 13 15  1  0
 15 16  1  0
 15 17  1  0
 15 18  1  0
 18 19  1  0
 18 20  1  0
 18 21  1  0
 21 22  1  0
 21 23  1  0
 21 24  1  0
 24 25  2  0
 25 26  1  0
 26 27  2  0
 27 28  1  0
 28 29  1  0
 28 30  2  0
 30 31  1  0
 30 32  1  0
 32 33  1  0
 33 34  1  0
 34 35  1  0
 34 36  1  0
 34 37  1  0
 32 38  2  0
 38 39  1  0
 11  3  1  0
 39 24  1  0
 39 27  1  0
M  CHG  1  10  -1
M  END
>  <UniqueID>  (76) 
71

>  <SMILES>  (76) 
COc1ccc2nnc(CCCC(=O)/N=c3\[n-]cccc3O)n2n1

>  <Energy>  (76) 
75.51293354792442

>  <Genealogy>  (76) 
COc1ccc2nnc(CCCC(=O)N=c3[n-]cccc3O)n2n1 (protonated)
COc1ccc2nnc(CCCC(=O)/N=c3\[n-]cccc3O)n2n1 (cis-trans isomerization)
COc1ccc2nnc(CCCC(=O)/N=c3\[n-]cccc3O)n2n1 (3D coordinates assigned)
COc1ccc2nnc(CCCC(=O)/N=c3\[n-]cccc3O)n2n1 (optimized conformer: 75.51293354792442 kcal/mol)

>  <smiles>  (76) 
COc1ccc2nnc(CCCC(=O)N=c3[nH]cccc3O)n2n1

>  <score_type>  (76) 
oracle

>  <origin>  (76) 
adg

>  <m_score__min__energy>  (76) 
-10.289999999999999

>  <m_primary>  (76) 
energy

$$$$
76:0
     RDKit          3D

 41 43  0  0  0  0  0  0  0  0999 V2000
   63.8227   34.5277   49.5932 H   0  0  0  0  0  0  0  0  0  0  0  0
   62.9550   34.2070   48.9980 C   0  0  0  0  0  0  0  0  0  0  0  0
   63.1300   33.7890   47.6780 C   0  0  0  0  0  0  0  0  0  0  0  0
   64.1369   33.7767   47.2354 H   0  0  0  0  0  0  0  0  0  0  0  0
   62.0290   33.3860   46.9170 C   0  0  0  0  0  0  0  0  0  0  0  0
   62.1756   33.0515   45.8794 H   0  0  0  0  0  0  0  0  0  0  0  0
   60.7330   33.4050   47.4690 C   0  0  0  0  0  0  0  0  0  0  0  0
   59.5740   32.9670   46.6480 C   0  0  0  0  0  0  0  0  0  0  0  0
   58.8780   31.8560   47.0100 N   0  0  0  0  0  0  0  0  0  0  0  0
   57.8310   31.4170   46.3090 N   0  0  0  0  0  0  0  0  0  0  0  0
   57.4000   32.0530   45.1880 C   0  0  0  0  0  0  0  0  0  0  0  0
   56.3660   31.5720   44.5570 N   0  0  0  0  0  0  0  0  0  0  0  0
   56.2930   30.3170   43.8040 C   0  0  0  0  0  0  0  0  0  0  0  0
   56.6257   30.4969   42.7711 H   0  0  0  0  0  0  0  0  0  0  0  0
   55.2526   29.9600   43.8160 H   0  0  0  0  0  0  0  0  0  0  0  0
   57.1700   29.2640   44.4280 C   0  0  0  0  0  0  0  0  0  0  0  0
   58.5620   29.2950   44.2470 C   0  0  0  0  0  0  0  0  0  0  0  0
   59.0186   30.0966   43.6479 H   0  0  0  0  0  0  0  0  0  0  0  0
   59.3690   28.3130   44.8240 C   0  0  0  0  0  0  0  0  0  0  0  0
   60.4568   28.3349   44.6621 H   0  0  0  0  0  0  0  0  0  0  0  0
   58.8030   27.3010   45.6070 C   0  0  0  0  0  0  0  0  0  0  0  0
   59.8520   26.0380   46.2340 Cl  0  0  0  0  0  0  0  0  0  0  0  0
   57.4120   27.2840   45.8270 C   0  0  0  0  0  0  0  0  0  0  0  0
   56.7920   26.2710   46.6230 N   0  0  0  0  0  0  0  0  0  0  0  0
   55.6010   25.1810   45.9910 S   0  0  0  0  0  0  0  0  0  0  0  0
   55.2650   24.1320   47.0130 O   0  0  0  0  0  0  0  0  0  0  0  0
   54.3580   25.9530   45.6510 O   0  0  0  0  0  0  0  0  0  0  0  0
   56.2320   24.3930   44.5270 C   0  0  0  0  0  0  0  0  0  0  0  0
   56.8958   23.5641   44.8139 H   0  0  0  0  0  0  0  0  0  0  0  0
   55.3942   24.0024   43.9308 H   0  0  0  0  0  0  0  0  0  0  0  0
   56.7963   25.1251   43.9308 H   0  0  0  0  0  0  0  0  0  0  0  0
   56.6040   28.2550   45.2240 C   0  0  0  0  0  0  0  0  0  0  0  0
   55.5148   28.2274   45.3752 H   0  0  0  0  0  0  0  0  0  0  0  0
   58.0900   33.1980   44.7580 C   0  0  0  0  0  0  0  0  0  0  0  0
   57.7703   33.7300   43.8498 H   0  0  0  0  0  0  0  0  0  0  0  0
   59.1820   33.6540   45.4910 C   0  0  0  0  0  0  0  0  0  0  0  0
   59.7337   34.5478   45.1643 H   0  0  0  0  0  0  0  0  0  0  0  0
   60.5730   33.8170   48.8070 C   0  0  0  0  0  0  0  0  0  0  0  0
   59.5706   33.8231   49.2600 H   0  0  0  0  0  0  0  0  0  0  0  0
   61.6780   34.2180   49.5630 C   0  0  0  0  0  0  0  0  0  0  0  0
   61.5415   34.5429   50.6050 H   0  0  0  0  0  0  0  0  0  0  0  0
  1  2  1  0
  2  3  2  0
  3  4  1  0
  3  5  1  0
  5  6  1  0
  5  7  2  0
  7  8  1  0
  8  9  2  0
  9 10  1  0
 10 11  1  0
 11 12  2  0
 12 13  1  0
 13 14  1  0
 13 15  1  0
 13 16  1  0
 16 17  2  0
 17 18  1  0
 17 19  1  0
 19 20  1  0
 19 21  2  0
 21 22  1  0
 21 23  1  0
 23 24  1  0
 24 25  1  0
 25 26  2  0
 25 27  2  0
 25 28  1  0
 28 29  1  0
 28 30  1  0
 28 31  1  0
 23 32  2  0
 32 33  1  0
 11 34  1  0
 34 35  1  0
 34 36  2  0
 36 37  1  0
  7 38  1  0
 38 39  1  0
 38 40  2  0
 40 41  1  0
 40  2  1  0
 36  8  1  0
 32 16  1  0
M  CHG  2  10  -1  24  -1
M  END
>  <UniqueID>  (77) 
72

>  <SMILES>  (77) 
CS(=O)(=O)[N-]c1cc(C/N=c2\ccc(-c3ccccc3)n[n-]2)ccc1Cl

>  <Energy>  (77) 
55.94791330367159

>  <Genealogy>  (77) 
CS(=O)(=O)[N-]c1cc(CN=c2ccc(-c3ccccc3)n[n-]2)ccc1Cl (protonated)
CS(=O)(=O)[N-]c1cc(C/N=c2\ccc(-c3ccccc3)n[n-]2)ccc1Cl (cis-trans isomerization)
CS(=O)(=O)[N-]c1cc(C/N=c2\ccc(-c3ccccc3)n[n-]2)ccc1Cl (3D coordinates assigned)
CS(=O)(=O)[N-]c1cc(C/N=c2\ccc(-c3ccccc3)n[n-]2)ccc1Cl (optimized conformer: 55.94791330367159 kcal/mol)

>  <smiles>  (77) 
CS(=O)(=O)Nc1cc(CN=c2ccc(-c3ccccc3)n[nH]2)ccc1Cl

>  <score_type>  (77) 
oracle

>  <origin>  (77) 
adg

>  <m_score__min__energy>  (77) 
-12.289999999999999

>  <m_primary>  (77) 
energy

$$$$
77:0
     RDKit          3D

 41 44  0  0  0  0  0  0  0  0999 V2000
   65.6220   33.0390   49.9770 C   0  0  0  0  0  0  0  0  0  0  0  0
   64.6170   33.4700   49.0640 O   0  0  0  0  0  0  0  0  0  0  0  0
   63.4580   32.7390   48.7600 C   0  0  0  0  0  0  0  0  0  0  0  0
   62.3860   32.6190   49.6620 C   0  0  0  0  0  0  0  0  0  0  0  0
   61.2550   31.8810   49.3140 C   0  0  0  0  0  0  0  0  0  0  0  0
   61.1690   31.2610   48.0510 C   0  0  0  0  0  0  0  0  0  0  0  0
   59.9970   30.5390   47.6510 N   0  0  0  0  0  0  0  0  0  0  0  0
   58.9960   31.0900   46.7900 C   0  0  0  0  0  0  0  0  0  0  0  0
   58.1020   30.3840   46.0080 C   0  0  0  0  0  0  0  0  0  0  0  0
   57.9400   28.9220   45.9730 C   0  0  0  0  0  0  0  0  0  0  0  0
   59.0310   28.1000   46.2950 C   0  0  0  0  0  0  0  0  0  0  0  0
   58.8890   26.7100   46.2840 C   0  0  0  0  0  0  0  0  0  0  0  0
   57.6640   26.1340   45.9300 C   0  0  0  0  0  0  0  0  0  0  0  0
   56.5750   26.9450   45.5950 C   0  0  0  0  0  0  0  0  0  0  0  0
   56.7080   28.3420   45.6130 C   0  0  0  0  0  0  0  0  0  0  0  0
   55.6260   29.1490   45.2570 O   0  0  0  0  0  0  0  0  0  0  0  0
   57.3970   31.2380   45.2260 N   0  0  0  0  0  0  0  0  0  0  0  0
   57.8960   32.4480   45.5670 C   0  0  0  0  0  0  0  0  0  0  0  0
   57.4990   33.6800   45.0520 C   0  0  0  0  0  0  0  0  0  0  0  0
   58.1290   34.7990   45.5150 N   0  0  0  0  0  0  0  0  0  0  0  0
   59.1250   34.7330   46.4500 C   0  0  0  0  0  0  0  0  0  0  0  0
   59.5190   33.4840   46.9570 C   0  0  0  0  0  0  0  0  0  0  0  0
   58.8680   32.3900   46.4920 N   0  0  0  0  0  0  0  0  0  0  0  0
   62.2420   31.3810   47.1600 C   0  0  0  0  0  0  0  0  0  0  0  0
   63.3720   32.1160   47.5100 C   0  0  0  0  0  0  0  0  0  0  0  0
   65.2698   33.1900   51.0081 H   0  0  0  0  0  0  0  0  0  0  0  0
   65.8321   31.9716   49.8140 H   0  0  0  0  0  0  0  0  0  0  0  0
   66.5401   33.6225   49.8140 H   0  0  0  0  0  0  0  0  0  0  0  0
   62.4397   33.1089   50.6454 H   0  0  0  0  0  0  0  0  0  0  0  0
   60.4252   31.7821   50.0293 H   0  0  0  0  0  0  0  0  0  0  0  0
   59.9550   29.5090   47.8370 H   0  0  0  0  0  0  0  0  0  0  0  0
   59.9997   28.5508   46.5565 H   0  0  0  0  0  0  0  0  0  0  0  0
   59.7407   26.0682   46.5538 H   0  0  0  0  0  0  0  0  0  0  0  0
   57.5571   25.0393   45.9151 H   0  0  0  0  0  0  0  0  0  0  0  0
   55.6139   26.4878   45.3173 H   0  0  0  0  0  0  0  0  0  0  0  0
   55.5230   30.0950   45.6160 H   0  0  0  0  0  0  0  0  0  0  0  0
   56.7029   33.7489   44.2960 H   0  0  0  0  0  0  0  0  0  0  0  0
   59.6145   35.6527   46.8028 H   0  0  0  0  0  0  0  0  0  0  0  0
   60.3238   33.3971   47.7018 H   0  0  0  0  0  0  0  0  0  0  0  0
   62.1923   30.8912   46.1763 H   0  0  0  0  0  0  0  0  0  0  0  0
   64.2047   32.2076   46.7971 H   0  0  0  0  0  0  0  0  0  0  0  0
  1  2  1  0
  2  3  1  0
  3  4  2  0
  4  5  1  0
  5  6  2  0
  6  7  1  0
  7  8  1  0
  8  9  2  0
  9 10  1  0
 10 11  2  0
 11 12  1  0
 12 13  2  0
 13 14  1  0
 14 15  2  0
 15 16  1  0
  9 17  1  0
 17 18  2  0
 18 19  1  0
 19 20  2  0
 20 21  1  0
 21 22  2  0
 22 23  1  0
  6 24  1  0
 24 25  2  0
 25  3  1  0
 23  8  1  0
 15 10  1  0
 23 18  1  0
  1 26  1  0
  1 27  1  0
  1 28  1  0
  4 29  1  0
  5 30  1  0
  7 31  1  0
 11 32  1  0
 12 33  1  0
 13 34  1  0
 14 35  1  0
 16 36  1  0
 19 37  1  0
 21 38  1  0
 22 39  1  0
 24 40  1  0
 25 41  1  0
M  END
>  <UniqueID>  (78) 
73

>  <SMILES>  (78) 
COc1ccc(Nc2c(-c3ccccc3O)nc3cnccn23)cc1

>  <Energy>  (78) 
96.64141685653742

>  <Genealogy>  (78) 
COc1ccc(Nc2c(-c3ccccc3O)nc3cnccn23)cc1 (3D coordinates assigned)
COc1ccc(Nc2c(-c3ccccc3O)nc3cnccn23)cc1 (optimized conformer: 96.64141685653742 kcal/mol)

>  <smiles>  (78) 
COc1ccc(Nc2c(-c3ccccc3O)nc3cnccn23)cc1

>  <score_type>  (78) 
oracle

>  <origin>  (78) 
adg

>  <m_score__min__energy>  (78) 
-7.96

>  <m_primary>  (78) 
energy

$$$$
78:0
     RDKit          3D

 42 44  0  0  0  0  0  0  0  0999 V2000
   57.2310   21.5230   47.8530 N   0  0  0  0  0  0  0  0  0  0  0  0
   57.0360   21.7750   46.7420 C   0  0  0  0  0  0  0  0  0  0  0  0
   56.7910   22.0870   45.3540 C   0  0  0  0  0  0  0  0  0  0  0  0
   57.2570   21.2110   44.3650 C   0  0  0  0  0  0  0  0  0  0  0  0
   57.0260   21.4890   43.0150 C   0  0  0  0  0  0  0  0  0  0  0  0
   56.3240   22.6390   42.6480 C   0  0  0  0  0  0  0  0  0  0  0  0
   55.8600   23.5200   43.6280 C   0  0  0  0  0  0  0  0  0  0  0  0
   56.1050   23.2630   44.9910 C   0  0  0  0  0  0  0  0  0  0  0  0
   55.6120   24.1380   46.0200 N   0  0  0  0  0  0  0  0  0  0  0  0
   55.8210   25.5540   46.1110 C   0  0  0  0  0  0  0  0  0  0  0  0
   54.8440   26.3450   45.9970 O   0  0  0  0  0  0  0  0  0  0  0  0
   57.1900   26.0920   46.2900 C   0  0  0  0  0  0  0  0  0  0  0  0
   58.3140   25.2770   46.0630 C   0  0  0  0  0  0  0  0  0  0  0  0
   59.6030   25.7830   46.2440 C   0  0  0  0  0  0  0  0  0  0  0  0
   59.7870   27.1030   46.6540 C   0  0  0  0  0  0  0  0  0  0  0  0
   58.6860   27.9340   46.8850 C   0  0  0  0  0  0  0  0  0  0  0  0
   58.9220   29.2820   47.3170 N   0  0  0  0  0  0  0  0  0  0  0  0
   60.0400   30.3870   46.5840 S   0  0  0  0  0  0  0  0  0  0  0  0
   60.7070   29.6910   45.4300 O   0  0  0  0  0  0  0  0  0  0  0  0
   61.0790   30.7690   47.6000 O   0  0  0  0  0  0  0  0  0  0  0  0
   59.1990   31.8460   46.0380 C   0  0  0  0  0  0  0  0  0  0  0  0
   59.7150   33.0970   46.4130 C   0  0  0  0  0  0  0  0  0  0  0  0
   59.0350   34.2730   46.0940 C   0  0  0  0  0  0  0  0  0  0  0  0
   57.8320   34.2150   45.3940 C   0  0  0  0  0  0  0  0  0  0  0  0
   57.3120   32.9820   44.9980 C   0  0  0  0  0  0  0  0  0  0  0  0
   57.9940   31.7880   45.2940 C   0  0  0  0  0  0  0  0  0  0  0  0
   57.4590   30.5420   44.8210 N   0  0  0  0  0  0  0  0  0  0  0  0
   56.2290   30.3320   44.8680 O   0  0  0  0  0  0  0  0  0  0  0  0
   58.2530   29.6750   44.1090 O   0  0  0  0  0  0  0  0  0  0  0  0
   57.3860   27.4250   46.6990 C   0  0  0  0  0  0  0  0  0  0  0  0
   57.8061   20.3020   44.6518 H   0  0  0  0  0  0  0  0  0  0  0  0
   57.3975   20.8014   42.2409 H   0  0  0  0  0  0  0  0  0  0  0  0
   56.1360   22.8516   41.5853 H   0  0  0  0  0  0  0  0  0  0  0  0
   55.3000   24.4198   43.3334 H   0  0  0  0  0  0  0  0  0  0  0  0
   58.1767   24.2343   45.7408 H   0  0  0  0  0  0  0  0  0  0  0  0
   60.4757   25.1384   46.0626 H   0  0  0  0  0  0  0  0  0  0  0  0
   60.8054   27.4935   46.7968 H   0  0  0  0  0  0  0  0  0  0  0  0
   60.6655   33.1505   46.9641 H   0  0  0  0  0  0  0  0  0  0  0  0
   59.4491   35.2464   46.3955 H   0  0  0  0  0  0  0  0  0  0  0  0
   57.2913   35.1422   45.1531 H   0  0  0  0  0  0  0  0  0  0  0  0
   56.3595   32.9435   44.4491 H   0  0  0  0  0  0  0  0  0  0  0  0
   56.5160   28.0747   46.8748 H   0  0  0  0  0  0  0  0  0  0  0  0
  1  2  3  0
  2  3  1  0
  3  4  2  0
  4  5  1  0
  5  6  2  0
  6  7  1  0
  7  8  2  0
  8  9  1  0
  9 10  1  0
 10 11  2  0
 10 12  1  0
 12 13  2  0
 13 14  1  0
 14 15  2  0
 15 16  1  0
 16 17  1  0
 17 18  1  0
 18 19  2  0
 18 20  2  0
 18 21  1  0
 21 22  2  0
 22 23  1  0
 23 24  2  0
 24 25  1  0
 25 26  2  0
 26 27  1  0
 27 28  2  0
 27 29  1  0
 16 30  2  0
  8  3  1  0
 30 12  1  0
 26 21  1  0
  4 31  1  0
  5 32  1  0
  6 33  1  0
  7 34  1  0
 13 35  1  0
 14 36  1  0
 15 37  1  0
 22 38  1  0
 23 39  1  0
 24 40  1  0
 25 41  1  0
 30 42  1  0
M  CHG  4   9  -1  17  -1  27   1  29  -1
M  END
>  <UniqueID>  (79) 
74

>  <SMILES>  (79) 
N#Cc1ccccc1[N-]C(=O)c1cccc([N-]S(=O)(=O)c2ccccc2[N+](=O)[O-])c1

>  <Energy>  (79) 
58.636139702246915

>  <Genealogy>  (79) 
N#Cc1ccccc1[N-]C(=O)c1cccc([N-]S(=O)(=O)c2ccccc2[N+](=O)[O-])c1 (protonated)
N#Cc1ccccc1[N-]C(=O)c1cccc([N-]S(=O)(=O)c2ccccc2[N+](=O)[O-])c1 (3D coordinates assigned)
N#Cc1ccccc1[N-]C(=O)c1cccc([N-]S(=O)(=O)c2ccccc2[N+](=O)[O-])c1 (optimized conformer: 58.636139702246915 kcal/mol)

>  <smiles>  (79) 
N#Cc1ccccc1NC(=O)c1cccc(NS(=O)(=O)c2ccccc2[N+](=O)[O-])c1

>  <score_type>  (79) 
oracle

>  <origin>  (79) 
adg

>  <m_score__min__energy>  (79) 
-12.91

>  <m_primary>  (79) 
energy

$$$$
79:0
     RDKit          3D

 35 36  0  0  0  0  0  0  0  0999 V2000
   55.1750   29.1880   44.8720 N   0  0  0  0  0  0  0  0  0  0  0  0
   56.4830   30.1090   44.2180 S   0  0  0  0  0  0  0  0  0  0  0  0
   56.2910   31.5600   44.5600 O   0  0  0  0  0  0  0  0  0  0  0  0
   56.5030   29.9640   42.7230 O   0  0  0  0  0  0  0  0  0  0  0  0
   58.0040   29.5250   44.8850 C   0  0  0  0  0  0  0  0  0  0  0  0
   58.6060   28.3800   44.3460 C   0  0  0  0  0  0  0  0  0  0  0  0
   59.7980   27.8930   44.8870 C   0  0  0  0  0  0  0  0  0  0  0  0
   60.3980   28.5490   45.9660 C   0  0  0  0  0  0  0  0  0  0  0  0
   59.8160   29.7050   46.5070 C   0  0  0  0  0  0  0  0  0  0  0  0
   60.4340   30.3440   47.6350 N   0  0  0  0  0  0  0  0  0  0  0  0
   60.9370   31.6890   47.6150 C   0  0  0  0  0  0  0  0  0  0  0  0
   61.1910   32.2620   46.5210 O   0  0  0  0  0  0  0  0  0  0  0  0
   61.1650   32.4280   48.9050 C   0  0  0  0  0  0  0  0  0  0  0  0
   61.2490   33.8850   48.7020 N   0  0  0  0  0  0  0  0  0  0  0  0
   59.9400   34.5550   48.7430 C   0  0  0  0  0  0  0  0  0  0  0  0
   59.2290   34.4320   47.4300 C   0  0  0  0  0  0  0  0  0  0  0  0
   58.1170   33.6420   47.1750 C   0  0  0  0  0  0  0  0  0  0  0  0
   57.6920   33.7030   45.8440 C   0  0  0  0  0  0  0  0  0  0  0  0
   58.4660   34.5410   45.0490 C   0  0  0  0  0  0  0  0  0  0  0  0
   59.6810   35.2030   46.0050 S   0  0  0  0  0  0  0  0  0  0  0  0
   58.6020   30.1760   45.9720 C   0  0  0  0  0  0  0  0  0  0  0  0
   55.5150   28.2060   44.9720 H   0  0  0  0  0  0  0  0  0  0  0  0
   58.1385   27.8635   43.4947 H   0  0  0  0  0  0  0  0  0  0  0  0
   60.2655   26.9919   44.4634 H   0  0  0  0  0  0  0  0  0  0  0  0
   61.3323   28.1562   46.3934 H   0  0  0  0  0  0  0  0  0  0  0  0
   60.5780   29.7810   48.5050 H   0  0  0  0  0  0  0  0  0  0  0  0
   60.3310   32.2128   49.5892 H   0  0  0  0  0  0  0  0  0  0  0  0
   62.1235   32.0888   49.3247 H   0  0  0  0  0  0  0  0  0  0  0  0
   61.6840   34.0670   47.7650 H   0  0  0  0  0  0  0  0  0  0  0  0
   59.3247   34.0932   49.5292 H   0  0  0  0  0  0  0  0  0  0  0  0
   60.1007   35.6225   48.9543 H   0  0  0  0  0  0  0  0  0  0  0  0
   57.6201   33.0298   47.9420 H   0  0  0  0  0  0  0  0  0  0  0  0
   56.8270   33.1410   45.4621 H   0  0  0  0  0  0  0  0  0  0  0  0
   58.3103   34.7374   43.9779 H   0  0  0  0  0  0  0  0  0  0  0  0
   58.1193   31.0618   46.4107 H   0  0  0  0  0  0  0  0  0  0  0  0
  1  2  1  0
  2  3  2  0
  2  4  2  0
  2  5  1  0
  5  6  2  0
  6  7  1  0
  7  8  2  0
  8  9  1  0
  9 10  1  0
 10 11  1  0
 11 12  2  0
 11 13  1  0
 13 14  1  0
 14 15  1  0
 15 16  1  0
 16 17  2  0
 17 18  1  0
 18 19  2  0
 19 20  1  0
  9 21  2  0
 21  5  1  0
 20 16  1  0
  1 22  1  0
  6 23  1  0
  7 24  1  0
  8 25  1  0
 10 26  1  0
 13 27  1  0
 13 28  1  0
 14 29  1  0
 15 30  1  0
 15 31  1  0
 17 32  1  0
 18 33  1  0
 19 34  1  0
 21 35  1  0
M  CHG  1   1  -1
M  END
>  <UniqueID>  (80) 
75

>  <SMILES>  (80) 
[NH-]S(=O)(=O)c1cccc(NC(=O)CNCc2cccs2)c1

>  <Energy>  (80) 
61.997394420035725

>  <Genealogy>  (80) 
[NH-]S(=O)(=O)c1cccc(NC(=O)CNCc2cccs2)c1 (protonated)
[NH-]S(=O)(=O)c1cccc(NC(=O)CNCc2cccs2)c1 (3D coordinates assigned)
[NH-]S(=O)(=O)c1cccc(NC(=O)CNCc2cccs2)c1 (optimized conformer: 61.997394420035725 kcal/mol)

>  <smiles>  (80) 
NS(=O)(=O)c1cccc(NC(=O)CNCc2cccs2)c1

>  <score_type>  (80) 
oracle

>  <origin>  (80) 
adg

>  <m_score__min__energy>  (80) 
-11.41

>  <m_primary>  (80) 
energy

$$$$
80:0
     RDKit          3D

 30 30  0  0  0  0  0  0  0  0999 V2000
   56.2800   29.4160   42.7230 C   0  0  0  0  0  0  0  0  0  0  0  0
   55.9650   29.9630   44.0740 C   0  0  0  0  0  0  0  0  0  0  0  0
   55.1660   29.3430   44.8270 O   0  0  0  0  0  0  0  0  0  0  0  0
   56.5260   31.1810   44.4720 O   0  0  0  0  0  0  0  0  0  0  0  0
   57.8520   31.2910   44.9780 C   0  0  0  0  0  0  0  0  0  0  0  0
   57.8140   31.4540   46.3910 O   0  0  0  0  0  0  0  0  0  0  0  0
   58.2940   32.6000   47.0340 C   0  0  0  0  0  0  0  0  0  0  0  0
   57.4880   33.4600   47.4850 O   0  0  0  0  0  0  0  0  0  0  0  0
   59.7140   32.7970   47.1810 N   0  0  0  0  0  0  0  0  0  0  0  0
   60.4500   31.9350   47.9640 C   0  0  0  0  0  0  0  0  0  0  0  0
   59.8140   30.7600   48.6670 C   0  0  0  0  0  0  0  0  0  0  0  0
   61.8240   32.1410   48.1230 C   0  0  0  0  0  0  0  0  0  0  0  0
   62.4330   33.2090   47.4710 C   0  0  0  0  0  0  0  0  0  0  0  0
   63.9140   33.4200   47.5910 C   0  0  0  0  0  0  0  0  0  0  0  0
   61.6880   34.0200   46.6760 N   0  0  0  0  0  0  0  0  0  0  0  0
   60.3450   33.8350   46.5300 C   0  0  0  0  0  0  0  0  0  0  0  0
   59.5090   34.9100   45.5990 S   0  0  0  0  0  0  0  0  0  0  0  0
   56.8263   28.4673   42.8298 H   0  0  0  0  0  0  0  0  0  0  0  0
   55.3447   29.2404   42.1713 H   0  0  0  0  0  0  0  0  0  0  0  0
   56.9013   30.1368   42.1713 H   0  0  0  0  0  0  0  0  0  0  0  0
   58.4148   30.3790   44.7301 H   0  0  0  0  0  0  0  0  0  0  0  0
   58.3441   32.1636   44.5237 H   0  0  0  0  0  0  0  0  0  0  0  0
   59.8894   30.8993   49.7555 H   0  0  0  0  0  0  0  0  0  0  0  0
   58.7547   30.6898   48.3788 H   0  0  0  0  0  0  0  0  0  0  0  0
   60.3345   29.8348   48.3788 H   0  0  0  0  0  0  0  0  0  0  0  0
   62.4174   31.4657   48.7570 H   0  0  0  0  0  0  0  0  0  0  0  0
   64.1937   33.4599   48.6541 H   0  0  0  0  0  0  0  0  0  0  0  0
   64.4436   32.5882   47.1034 H   0  0  0  0  0  0  0  0  0  0  0  0
   64.1902   34.3666   47.1034 H   0  0  0  0  0  0  0  0  0  0  0  0
   62.1560   34.8090   46.1740 H   0  0  0  0  0  0  0  0  0  0  0  0
  1  2  1  0
  2  3  2  0
  2  4  1  0
  4  5  1  0
  5  6  1  0
  6  7  1  0
  7  8  2  0
  7  9  1  0
  9 10  1  0
 10 11  1  0
 10 12  2  0
 12 13  1  0
 13 14  1  0
 13 15  2  0
 15 16  1  0
 16 17  2  0
 16  9  1  0
  1 18  1  0
  1 19  1  0
  1 20  1  0
  5 21  1  0
  5 22  1  0
 11 23  1  0
 11 24  1  0
 11 25  1  0
 12 26  1  0
 14 27  1  0
 14 28  1  0
 14 29  1  0
 15 30  1  0
M  CHG  1  15   1
M  END
>  <UniqueID>  (81) 
76

>  <SMILES>  (81) 
CC(=O)OCOC(=O)n1c(C)cc(C)[nH+]c1=S

>  <Energy>  (81) 
33.23356875117261

>  <Genealogy>  (81) 
CC(=O)OCOC(=O)n1c(C)cc(C)[nH+]c1=S (protonated)
CC(=O)OCOC(=O)n1c(C)cc(C)[nH+]c1=S (3D coordinates assigned)
CC(=O)OCOC(=O)n1c(C)cc(C)[nH+]c1=S (optimized conformer: 33.23356875117261 kcal/mol)

>  <smiles>  (81) 
CC(=O)OCOC(=O)n1c(C)cc(C)nc1=S

>  <score_type>  (81) 
oracle

>  <origin>  (81) 
adg

>  <m_score__min__energy>  (81) 
-4.9400000000000004

>  <m_primary>  (81) 
energy

$$$$
81:0
     RDKit          3D

 37 38  0  0  0  0  0  0  0  0999 V2000
   56.7107   28.2094   45.5798 H   0  0  0  0  0  0  0  0  0  0  0  0
   57.1320   27.3590   46.1360 C   0  0  0  0  0  0  0  0  0  0  0  0
   57.9230   27.5890   47.1390 N   0  0  0  0  0  0  0  0  0  0  0  0
   59.3720   27.6910   47.0040 C   0  0  0  0  0  0  0  0  0  0  0  0
   59.6452   27.5807   45.9442 H   0  0  0  0  0  0  0  0  0  0  0  0
   59.8412   26.8959   47.6021 H   0  0  0  0  0  0  0  0  0  0  0  0
   59.8590   29.0310   47.5060 C   0  0  0  0  0  0  0  0  0  0  0  0
   60.5320   29.0860   48.7380 C   0  0  0  0  0  0  0  0  0  0  0  0
   60.7063   28.1591   49.3041 H   0  0  0  0  0  0  0  0  0  0  0  0
   60.9820   30.3030   49.2520 C   0  0  0  0  0  0  0  0  0  0  0  0
   61.5084   30.3308   50.2175 H   0  0  0  0  0  0  0  0  0  0  0  0
   60.7650   31.4830   48.5430 C   0  0  0  0  0  0  0  0  0  0  0  0
   61.1261   32.4404   48.9467 H   0  0  0  0  0  0  0  0  0  0  0  0
   60.0900   31.4520   47.3210 C   0  0  0  0  0  0  0  0  0  0  0  0
   59.9290   32.3866   46.7637 H   0  0  0  0  0  0  0  0  0  0  0  0
   59.6140   30.2370   46.7960 C   0  0  0  0  0  0  0  0  0  0  0  0
   58.9090   30.2500   45.4630 C   0  0  0  0  0  0  0  0  0  0  0  0
   59.0339   29.2737   44.9718 H   0  0  0  0  0  0  0  0  0  0  0  0
   59.3399   31.0365   44.8260 H   0  0  0  0  0  0  0  0  0  0  0  0
   57.4880   30.5130   45.6710 N   0  0  0  0  0  0  0  0  0  0  0  0
   56.5660   29.8920   44.3360 S   0  0  0  0  0  0  0  0  0  0  0  0
   56.3160   30.9790   43.3270 O   0  0  0  0  0  0  0  0  0  0  0  0
   55.2470   29.3890   44.8510 O   0  0  0  0  0  0  0  0  0  0  0  0
   57.4080   28.5820   43.5820 N   0  0  0  0  0  0  0  0  0  0  0  0
   57.7950   28.9470   42.6840 H   0  0  0  0  0  0  0  0  0  0  0  0
   56.7010   27.8550   43.3340 H   0  0  0  0  0  0  0  0  0  0  0  0
   56.7820   25.9810   45.7210 C   0  0  0  0  0  0  0  0  0  0  0  0
   57.8270   25.1030   45.3820 C   0  0  0  0  0  0  0  0  0  0  0  0
   58.8697   25.4485   45.4397 H   0  0  0  0  0  0  0  0  0  0  0  0
   57.5520   23.7940   44.9720 C   0  0  0  0  0  0  0  0  0  0  0  0
   58.3775   23.1146   44.7131 H   0  0  0  0  0  0  0  0  0  0  0  0
   56.2320   23.3490   44.8910 C   0  0  0  0  0  0  0  0  0  0  0  0
   56.0171   22.3221   44.5603 H   0  0  0  0  0  0  0  0  0  0  0  0
   55.1830   24.2080   45.2300 C   0  0  0  0  0  0  0  0  0  0  0  0
   54.1440   23.8518   45.1704 H   0  0  0  0  0  0  0  0  0  0  0  0
   55.4460   25.5190   45.6450 C   0  0  0  0  0  0  0  0  0  0  0  0
   54.3750   26.3410   45.9760 O   0  0  0  0  0  0  0  0  0  0  0  0
  1  2  1  0
  2  3  2  0
  3  4  1  0
  4  5  1  0
  4  6  1  0
  4  7  1  0
  7  8  2  0
  8  9  1  0
  8 10  1  0
 10 11  1  0
 10 12  2  0
 12 13  1  0
 12 14  1  0
 14 15  1  0
 14 16  2  0
 16 17  1  0
 17 18  1  0
 17 19  1  0
 17 20  1  0
 20 21  1  0
 21 22  2  0
 21 23  2  0
 21 24  1  0
 24 25  1  0
 24 26  1  0
  2 27  1  0
 27 28  2  0
 28 29  1  0
 28 30  1  0
 30 31  1  0
 30 32  2  0
 32 33  1  0
 32 34  1  0
 34 35  1  0
 34 36  2  0
 36 37  1  0
 16  7  1  0
 36 27  1  0
M  CHG  2  20  -1  37  -1
M  END
>  <UniqueID>  (82) 
77

>  <SMILES>  (82) 
NS(=O)(=O)[N-]Cc1ccccc1C/N=C/c1ccccc1[O-]

>  <Energy>  (82) 
32.50275631254811

>  <Genealogy>  (82) 
NS(=O)(=O)[N-]Cc1ccccc1CN=Cc1ccccc1[O-] (protonated)
NS(=O)(=O)[N-]Cc1ccccc1C/N=C/c1ccccc1[O-] (cis-trans isomerization)
NS(=O)(=O)[N-]Cc1ccccc1C/N=C/c1ccccc1[O-] (3D coordinates assigned)
NS(=O)(=O)[N-]Cc1ccccc1C/N=C/c1ccccc1[O-] (optimized conformer: 32.50275631254811 kcal/mol)

>  <smiles>  (82) 
NS(=O)(=O)NCc1ccccc1CN=Cc1ccccc1O

>  <score_type>  (82) 
oracle

>  <origin>  (82) 
adg

>  <m_score__min__energy>  (82) 
-12.82

>  <m_primary>  (82) 
energy

$$$$
82:0
     RDKit          3D

 54 58  0  0  1  0  0  0  0  0999 V2000
   54.0880   23.9420   45.4870 C   0  0  0  0  0  0  0  0  0  0  0  0
   55.1550   24.9770   45.6300 C   0  0  0  0  0  0  0  0  0  0  0  0
   56.4120   24.7930   45.0440 C   0  0  0  0  0  0  0  0  0  0  0  0
   57.0960   25.9640   45.4070 C   0  0  0  0  0  0  0  0  0  0  0  0
   58.2990   26.2410   45.0950 N   0  0  0  0  0  0  0  0  0  0  0  0
   59.4270   26.2600   45.9440 C   0  0  0  0  0  0  0  0  0  0  0  0
   60.2560   25.3300   46.0870 O   0  0  0  0  0  0  0  0  0  0  0  0
   59.6070   27.5170   46.7160 C   0  0  0  0  0  0  0  0  0  0  0  0
   58.8570   27.6070   47.8660 C   0  0  0  0  0  0  0  0  0  0  0  0
   58.9650   28.7180   48.6780 C   0  0  0  0  0  0  0  0  0  0  0  0
   59.8360   29.7240   48.3060 C   0  0  0  0  0  0  0  0  0  0  0  0
   59.9660   30.8490   49.0890 F   0  0  0  0  0  0  0  0  0  0  0  0
   60.5970   29.6280   47.1340 C   0  0  0  0  0  0  0  0  0  0  0  0
   61.5210   30.6130   46.7330 N   0  0  0  0  0  0  0  0  0  0  0  0
   61.6510   31.7100   47.3780 C   0  0  0  0  0  0  0  0  0  0  0  0
   62.7160   31.7580   48.2430 N   0  0  0  0  0  0  0  0  0  0  0  0
   62.9330   32.8710   48.9830 C   0  0  0  0  0  0  0  0  0  0  0  0
   62.0870   33.9050   48.8420 N   0  0  0  0  0  0  0  0  0  0  0  0
   61.0360   33.8870   48.0030 C   0  0  0  0  0  0  0  0  0  0  0  0
   60.1800   34.9570   47.8910 C   0  0  0  0  0  0  0  0  0  0  0  0
   59.1500   34.8460   47.0410 N   0  0  0  0  0  0  0  0  0  0  0  0
   58.8930   33.7740   46.2900 C   0  0  0  0  0  0  0  0  0  0  0  0
   57.8930   33.6270   45.5030 N   0  0  0  0  0  0  0  0  0  0  0  0
   58.0850   33.0990   44.1880 C   0  0  0  0  0  0  0  0  0  0  0  0
   57.6190   31.6580   44.1270 C   0  0  0  0  0  0  0  0  0  0  0  0
   57.7300   30.8280   45.2320 C   0  0  0  0  0  0  0  0  0  0  0  0
   57.2910   29.5350   45.1980 C   0  0  0  0  0  0  0  0  0  0  0  0
   56.7200   29.0440   44.0260 C   0  0  0  0  0  0  0  0  0  0  0  0
   56.5960   29.8420   42.9100 C   0  0  0  0  0  0  0  0  0  0  0  0
   57.0470   31.1640   42.9470 C   0  0  0  0  0  0  0  0  0  0  0  0
   59.7300   32.6900   46.3800 N   0  0  0  0  0  0  0  0  0  0  0  0
   60.7840   32.7520   47.2260 C   0  0  0  0  0  0  0  0  0  0  0  0
   60.4810   28.4950   46.3110 C   0  0  0  0  0  0  0  0  0  0  0  0
   56.2770   26.7370   46.1420 N   0  0  0  0  0  0  0  0  0  0  0  0
   55.1360   26.1230   46.2540 O   0  0  0  0  0  0  0  0  0  0  0  0
   53.7547   23.6187   46.4842 H   0  0  0  0  0  0  0  0  0  0  0  0
   53.2363   24.3671   44.9357 H   0  0  0  0  0  0  0  0  0  0  0  0
   54.4870   23.0778   44.9357 H   0  0  0  0  0  0  0  0  0  0  0  0
   56.7741   23.9427   44.4475 H   0  0  0  0  0  0  0  0  0  0  0  0
   58.1702   26.7922   48.1388 H   0  0  0  0  0  0  0  0  0  0  0  0
   58.3712   28.8006   49.6002 H   0  0  0  0  0  0  0  0  0  0  0  0
   63.3640   30.9480   48.3430 H   0  0  0  0  0  0  0  0  0  0  0  0
   63.7806   32.9271   49.6819 H   0  0  0  0  0  0  0  0  0  0  0  0
   60.3354   35.8734   48.4793 H   0  0  0  0  0  0  0  0  0  0  0  0
   58.5090   35.6600   46.9710 H   0  0  0  0  0  0  0  0  0  0  0  0
   57.5075   33.6980   43.4685 H   0  0  0  0  0  0  0  0  0  0  0  0
   59.1556   33.1399   43.9386 H   0  0  0  0  0  0  0  0  0  0  0  0
   58.1812   31.2191   46.1558 H   0  0  0  0  0  0  0  0  0  0  0  0
   57.3870   28.8902   46.0840 H   0  0  0  0  0  0  0  0  0  0  0  0
   56.3630   28.0041   43.9912 H   0  0  0  0  0  0  0  0  0  0  0  0
   56.1430   29.4395   41.9920 H   0  0  0  0  0  0  0  0  0  0  0  0
   56.9542   31.8090   42.0608 H   0  0  0  0  0  0  0  0  0  0  0  0
   61.0644   28.3962   45.3837 H   0  0  0  0  0  0  0  0  0  0  0  0
   56.5430   27.6580   46.5370 H   0  0  0  0  0  0  0  0  0  0  0  0
  1  2  1  0
  2  3  2  0
  3  4  1  0
  4  5  2  0
  5  6  1  0
  6  7  2  0
  6  8  1  0
  8  9  2  0
  9 10  1  0
 10 11  2  0
 11 12  1  0
 11 13  1  0
 13 14  1  0
 14 15  2  0
 15 16  1  0
 16 17  1  0
 17 18  2  0
 18 19  1  0
 19 20  2  0
 20 21  1  0
 21 22  1  0
 22 23  2  0
 23 24  1  0
 24 25  1  0
 25 26  2  0
 26 27  1  0
 27 28  2  0
 28 29  1  0
 29 30  2  0
 22 31  1  0
 31 32  2  0
 13 33  2  0
  4 34  1  0
 34 35  1  0
 35  2  1  0
 33  8  1  0
 32 15  1  0
 32 19  1  0
 30 25  1  0
  1 36  1  0
  1 37  1  0
  1 38  1  0
  3 39  1  0
  9 40  1  0
 10 41  1  0
 16 42  1  0
 17 43  1  0
 20 44  1  0
 21 45  1  0
 24 46  1  0
 24 47  1  0
 26 48  1  0
 27 49  1  0
 28 50  1  0
 29 51  1  0
 30 52  1  0
 33 53  1  0
 34 54  1  0
M  END
>  <smiles>  (83) 
Cc1cc(=NC(=O)c2ccc(F)c(N=c3[nH]cnc4c[nH]c(=NCc5ccccc5)nc34)c2)[nH]o1

>  <score_type>  (83) 
oracle

>  <origin>  (83) 
adg

>  <m_score__min__energy>  (83) 
-10.279999999999999

>  <m_primary>  (83) 
energy

$$$$
83:0
     RDKit          3D

 60 64  0  0  0  0  0  0  0  0999 V2000
   55.8430   26.0010   46.3690 O   0  0  0  0  0  0  0  0  0  0  0  0
   56.5670   26.9270   45.8990 C   0  0  0  0  0  0  0  0  0  0  0  0
   55.9890   27.9840   45.2460 O   0  0  0  0  0  0  0  0  0  0  0  0
   58.0330   26.8260   46.0780 C   0  0  0  0  0  0  0  0  0  0  0  0
   58.3430   27.0190   47.5570 C   0  0  0  0  0  0  0  0  0  0  0  0
   59.6620   27.7360   47.7520 C   0  0  0  0  0  0  0  0  0  0  0  0
   59.4480   29.1420   48.0570 N   0  0  0  0  0  0  0  0  0  0  0  0
   59.7590   29.7330   49.2270 C   0  0  0  0  0  0  0  0  0  0  0  0
   59.4210   31.0850   49.1780 C   0  0  0  0  0  0  0  0  0  0  0  0
   59.6470   31.9730   50.3050 C   0  0  0  0  0  0  0  0  0  0  0  0
   58.5460   32.3960   51.0330 C   0  0  0  0  0  0  0  0  0  0  0  0
   58.6450   33.2360   52.1180 C   0  0  0  0  0  0  0  0  0  0  0  0
   59.8970   33.6640   52.4760 C   0  0  0  0  0  0  0  0  0  0  0  0
   61.0200   33.2550   51.7610 C   0  0  0  0  0  0  0  0  0  0  0  0
   62.2790   33.7250   52.1760 O   0  0  0  0  0  0  0  0  0  0  0  0
   63.4010   33.4980   51.3630 C   0  0  0  0  0  0  0  0  0  0  0  0
   63.2570   34.2240   50.0640 C   0  0  0  0  0  0  0  0  0  0  0  0
   63.9030   33.3780   48.9760 C   0  0  0  0  0  0  0  0  0  0  0  0
   63.7510   34.0940   47.7930 O   0  0  0  0  0  0  0  0  0  0  0  0
   62.8760   33.3870   46.9770 C   0  0  0  0  0  0  0  0  0  0  0  0
   63.0830   31.9670   47.4600 C   0  0  0  0  0  0  0  0  0  0  0  0
   63.2330   32.1840   48.8390 O   0  0  0  0  0  0  0  0  0  0  0  0
   60.9160   32.4120   50.6750 C   0  0  0  0  0  0  0  0  0  0  0  0
   58.8920   31.3100   47.9420 C   0  0  0  0  0  0  0  0  0  0  0  0
   58.4020   32.4670   47.3780 C   0  0  0  0  0  0  0  0  0  0  0  0
   57.9210   32.3920   46.0850 C   0  0  0  0  0  0  0  0  0  0  0  0
   57.9300   31.2070   45.3800 C   0  0  0  0  0  0  0  0  0  0  0  0
   57.4270   31.1030   44.0140 C   0  0  0  0  0  0  0  0  0  0  0  0
   57.6740   31.9520   43.0000 N   0  0  0  0  0  0  0  0  0  0  0  0
   57.0490   31.5550   41.8740 C   0  0  0  0  0  0  0  0  0  0  0  0
   56.3930   30.4220   42.2060 N   0  0  0  0  0  0  0  0  0  0  0  0
   56.6170   30.1440   43.4980 N   0  0  0  0  0  0  0  0  0  0  0  0
   58.4330   30.0450   45.9750 C   0  0  0  0  0  0  0  0  0  0  0  0
   58.9180   30.0990   47.2670 C   0  0  0  0  0  0  0  0  0  0  0  0
   56.2500   28.1810   44.2840 H   0  0  0  0  0  0  0  0  0  0  0  0
   58.3814   25.8355   45.7501 H   0  0  0  0  0  0  0  0  0  0  0  0
   58.5442   27.5932   45.4779 H   0  0  0  0  0  0  0  0  0  0  0  0
   57.5401   27.6137   48.0170 H   0  0  0  0  0  0  0  0  0  0  0  0
   58.4123   26.0283   48.0300 H   0  0  0  0  0  0  0  0  0  0  0  0
   60.2079   27.2661   48.5834 H   0  0  0  0  0  0  0  0  0  0  0  0
   60.2430   27.6627   46.8209 H   0  0  0  0  0  0  0  0  0  0  0  0
   60.2117   29.2252   50.0914 H   0  0  0  0  0  0  0  0  0  0  0  0
   57.5488   32.0444   50.7298 H   0  0  0  0  0  0  0  0  0  0  0  0
   57.7524   33.5525   52.6776 H   0  0  0  0  0  0  0  0  0  0  0  0
   60.0160   34.3378   53.3373 H   0  0  0  0  0  0  0  0  0  0  0  0
   64.3027   33.8566   51.8809 H   0  0  0  0  0  0  0  0  0  0  0  0
   63.4848   32.4197   51.1624 H   0  0  0  0  0  0  0  0  0  0  0  0
   62.1912   34.3737   49.8366 H   0  0  0  0  0  0  0  0  0  0  0  0
   63.7443   35.2085   50.1213 H   0  0  0  0  0  0  0  0  0  0  0  0
   64.9554   33.1689   49.2185 H   0  0  0  0  0  0  0  0  0  0  0  0
   61.8363   33.7136   47.1265 H   0  0  0  0  0  0  0  0  0  0  0  0
   63.0606   33.5235   45.9012 H   0  0  0  0  0  0  0  0  0  0  0  0
   62.2113   31.3327   47.2414 H   0  0  0  0  0  0  0  0  0  0  0  0
   63.9236   31.4397   46.9853 H   0  0  0  0  0  0  0  0  0  0  0  0
   61.8094   32.0953   50.1169 H   0  0  0  0  0  0  0  0  0  0  0  0
   58.3939   33.4150   47.9359 H   0  0  0  0  0  0  0  0  0  0  0  0
   57.5216   33.2986   45.6069 H   0  0  0  0  0  0  0  0  0  0  0  0
   57.0689   32.0495   40.8916 H   0  0  0  0  0  0  0  0  0  0  0  0
   55.8000   29.8560   41.5380 H   0  0  0  0  0  0  0  0  0  0  0  0
   58.4421   29.0962   45.4184 H   0  0  0  0  0  0  0  0  0  0  0  0
  1  2  2  0
  2  3  1  0
  2  4  1  0
  4  5  1  0
  5  6  1  0
  6  7  1  0
  7  8  1  0
  8  9  2  0
  9 10  1  0
 10 11  2  0
 11 12  1  0
 12 13  2  0
 13 14  1  0
 14 15  1  0
 15 16  1  0
 16 17  1  0
 17 18  1  0
 18 19  1  0
 19 20  1  0
 20 21  1  0
 21 22  1  0
 14 23  2  0
  9 24  1  0
 24 25  2  0
 25 26  1  0
 26 27  2  0
 27 28  1  0
 28 29  1  0
 29 30  2  0
 30 31  1  0
 31 32  1  0
 27 33  1  0
 33 34  2  0
 34  7  1  0
 23 10  1  0
 34 24  1  0
 22 18  1  0
 32 28  2  0
  3 35  1  0
  4 36  1  0
  4 37  1  0
  5 38  1  0
  5 39  1  0
  6 40  1  0
  6 41  1  0
  8 42  1  0
 11 43  1  0
 12 44  1  0
 13 45  1  0
 16 46  1  0
 16 47  1  0
 17 48  1  0
 17 49  1  0
 18 50  1  0
 20 51  1  0
 20 52  1  0
 21 53  1  0
 21 54  1  0
 23 55  1  0
 25 56  1  0
 26 57  1  0
 30 58  1  0
 31 59  1  0
 33 60  1  0
M  END
>  <smiles>  (84) 
O=C(O)CCCn1cc(-c2cccc(OCCC3OCCO3)c2)c2ccc(-c3nc[nH]n3)cc21

>  <score_type>  (84) 
oracle

>  <origin>  (84) 
adg

>  <m_score__min__energy>  (84) 
-9.7599999999999998

>  <m_primary>  (84) 
energy

$$$$
84:0
     RDKit          3D

 41 44  0  0  0  0  0  0  0  0999 V2000
   57.6500   28.4370   45.7910 H   0  0  0  0  0  0  0  0  0  0  0  0
   57.7550   29.1780   46.4730 O   0  0  0  0  0  0  0  0  0  0  0  0
   57.9850   30.5000   46.0900 C   0  0  0  0  0  0  0  0  0  0  0  0
   57.3830   31.0140   44.9240 C   0  0  0  0  0  0  0  0  0  0  0  0
   56.4680   30.1750   44.1120 C   0  0  0  0  0  0  0  0  0  0  0  0
   55.2360   30.1850   44.3720 O   0  0  0  0  0  0  0  0  0  0  0  0
   58.0830   26.3120   45.7450 N   0  0  0  0  0  0  0  0  0  0  0  0
   57.3940   28.1660   43.1170 C   0  0  0  0  0  0  0  0  0  0  0  0
   56.9589   27.3559   42.5133 H   0  0  0  0  0  0  0  0  0  0  0  0
   58.4980   27.8810   44.0380 C   0  0  0  0  0  0  0  0  0  0  0  0
   59.3340   28.7850   44.3050 O   0  0  0  0  0  0  0  0  0  0  0  0
   56.9290   29.3740   43.0130 N   0  0  0  0  0  0  0  0  0  0  0  0
   58.6210   26.5850   44.6260 N   0  0  0  0  0  0  0  0  0  0  0  0
   56.7610   25.7700   45.8350 C   0  0  0  0  0  0  0  0  0  0  0  0
   55.5900   26.5020   45.7730 C   0  0  0  0  0  0  0  0  0  0  0  0
   55.5240   27.8800   45.6140 O   0  0  0  0  0  0  0  0  0  0  0  0
   54.4940   25.7160   45.8850 N   0  0  0  0  0  0  0  0  0  0  0  0
   54.9940   24.4710   46.0200 C   0  0  0  0  0  0  0  0  0  0  0  0
   54.2560   23.2980   46.1700 C   0  0  0  0  0  0  0  0  0  0  0  0
   53.1564   23.3198   46.1877 H   0  0  0  0  0  0  0  0  0  0  0  0
   54.9570   22.0870   46.2980 C   0  0  0  0  0  0  0  0  0  0  0  0
   54.4014   21.1452   46.4179 H   0  0  0  0  0  0  0  0  0  0  0  0
   56.3690   22.0690   46.2740 C   0  0  0  0  0  0  0  0  0  0  0  0
   57.3030   20.4130   46.4510 Br  0  0  0  0  0  0  0  0  0  0  0  0
   57.0930   23.2660   46.1210 C   0  0  0  0  0  0  0  0  0  0  0  0
   58.1928   23.2651   46.1012 H   0  0  0  0  0  0  0  0  0  0  0  0
   56.3710   24.4560   45.9950 C   0  0  0  0  0  0  0  0  0  0  0  0
   57.6210   32.3480   44.5540 C   0  0  0  0  0  0  0  0  0  0  0  0
   57.1392   32.7580   43.6541 H   0  0  0  0  0  0  0  0  0  0  0  0
   58.4670   33.1620   45.3210 C   0  0  0  0  0  0  0  0  0  0  0  0
   58.7110   34.4930   44.9480 C   0  0  0  0  0  0  0  0  0  0  0  0
   58.2378   34.9059   44.0449 H   0  0  0  0  0  0  0  0  0  0  0  0
   59.5550   35.2950   45.7230 C   0  0  0  0  0  0  0  0  0  0  0  0
   59.7444   36.3374   45.4272 H   0  0  0  0  0  0  0  0  0  0  0  0
   60.1580   34.7770   46.8710 C   0  0  0  0  0  0  0  0  0  0  0  0
   60.8215   35.4128   47.4756 H   0  0  0  0  0  0  0  0  0  0  0  0
   59.9220   33.4540   47.2550 C   0  0  0  0  0  0  0  0  0  0  0  0
   60.3994   33.0513   48.1605 H   0  0  0  0  0  0  0  0  0  0  0  0
   59.0760   32.6380   46.4860 C   0  0  0  0  0  0  0  0  0  0  0  0
   58.8270   31.3120   46.8620 C   0  0  0  0  0  0  0  0  0  0  0  0
   59.2958   30.9048   47.7700 H   0  0  0  0  0  0  0  0  0  0  0  0
  1  2  1  0
  2  3  1  0
  3  4  2  0
  4  5  1  0
  5  6  2  0
  5  7  1  0
  7  8  2  0
  8  9  1  0
  8 10  1  0
 10 11  2  0
 10 12  1  0
 12 13  2  0
 13 14  1  0
 14 15  2  0
 15 16  1  0
 15 17  1  0
 17 18  1  0
 18 19  2  0
 19 20  1  0
 19 21  1  0
 21 22  1  0
 21 23  2  0
 23 24  1  0
 23 25  1  0
 25 26  1  0
 25 27  2  0
  4 28  1  0
 28 29  1  0
 28 30  2  0
 30 31  1  0
 31 32  1  0
 31 33  2  0
 33 34  1  0
 33 35  1  0
 35 36  1  0
 35 37  2  0
 37 38  1  0
 37 39  1  0
 39 40  2  0
 40 41  1  0
 40  3  1  0
 27 14  1  0
 39 30  1  0
 27 18  1  0
M  CHG  2  16  -1  17  -1
M  END
>  <UniqueID>  (85) 
78

>  <SMILES>  (85) 
O=C(/C=N/C(=O)c1cc2ccccc2cc1O)/N=N/c1c([O-])[n-]c2ccc(Br)cc12

>  <Energy>  (85) 
86.38691083121017

>  <Genealogy>  (85) 
O=C(C=NC(=O)c1cc2ccccc2cc1O)N=Nc1c([O-])[n-]c2ccc(Br)cc12 (protonated)
O=C(/C=N/C(=O)c1cc2ccccc2cc1O)/N=N/c1c([O-])[n-]c2ccc(Br)cc12 (cis-trans isomerization)
O=C(/C=N/C(=O)c1cc2ccccc2cc1O)/N=N/c1c([O-])[n-]c2ccc(Br)cc12 (3D coordinates assigned)
O=C(/C=N/C(=O)c1cc2ccccc2cc1O)/N=N/c1c([O-])[n-]c2ccc(Br)cc12 (optimized conformer: 86.38691083121017 kcal/mol)

>  <smiles>  (85) 
O=C(C=NC(=O)c1cc2ccccc2cc1O)N=Nc1c(O)[nH]c2ccc(Br)cc12

>  <score_type>  (85) 
oracle

>  <origin>  (85) 
adg

>  <m_score__min__energy>  (85) 
-14.51

>  <m_primary>  (85) 
energy

$$$$
85:0
     RDKit          3D

 72 77  0  0  0  0  0  0  0  0999 V2000
   57.6460   34.4650   45.6680 N   0  0  0  0  0  0  0  0  0  0  0  0
   59.2790   34.5660   46.2240 S   0  0  0  0  0  0  0  0  0  0  0  0
   59.6940   36.0090   46.2820 O   0  0  0  0  0  0  0  0  0  0  0  0
   60.1840   33.8400   45.2700 O   0  0  0  0  0  0  0  0  0  0  0  0
   59.4030   33.8370   47.8230 C   0  0  0  0  0  0  0  0  0  0  0  0
   59.8700   34.5840   48.9130 C   0  0  0  0  0  0  0  0  0  0  0  0
   59.9570   34.0000   50.1800 C   0  0  0  0  0  0  0  0  0  0  0  0
   59.5760   32.6620   50.3730 C   0  0  0  0  0  0  0  0  0  0  0  0
   59.6370   32.0460   51.7470 C   0  0  0  0  0  0  0  0  0  0  0  0
   61.0190   32.0250   52.2420 N   0  0  0  0  0  0  0  0  0  0  0  0
   61.5410   30.8320   52.8530 C   0  0  0  0  0  0  0  0  0  0  0  0
   60.8560   30.2420   53.7310 O   0  0  0  0  0  0  0  0  0  0  0  0
   62.8460   30.2470   52.4350 C   0  0  0  0  0  0  0  0  0  0  0  0
   62.9690   28.8330   52.3820 C   0  0  0  0  0  0  0  0  0  0  0  0
   61.8460   27.9820   52.6490 N   0  0  0  0  0  0  0  0  0  0  0  0
   61.4160   26.7080   51.5580 S   0  0  0  0  0  0  0  0  0  0  0  0
   60.4090   25.8090   52.2190 O   0  0  0  0  0  0  0  0  0  0  0  0
   62.6390   25.8950   51.2350 O   0  0  0  0  0  0  0  0  0  0  0  0
   60.7110   27.3640   50.0830 C   0  0  0  0  0  0  0  0  0  0  0  0
   60.0510   28.5980   50.0990 C   0  0  0  0  0  0  0  0  0  0  0  0
   59.4760   29.1040   48.9300 C   0  0  0  0  0  0  0  0  0  0  0  0
   59.5490   28.3790   47.7260 C   0  0  0  0  0  0  0  0  0  0  0  0
   58.9430   28.9200   46.4830 C   0  0  0  0  0  0  0  0  0  0  0  0
   59.4190   30.1170   45.9160 C   0  0  0  0  0  0  0  0  0  0  0  0
   58.8490   30.6210   44.7430 C   0  0  0  0  0  0  0  0  0  0  0  0
   57.8000   29.9390   44.1240 C   0  0  0  0  0  0  0  0  0  0  0  0
   57.3160   28.7510   44.6780 C   0  0  0  0  0  0  0  0  0  0  0  0
   57.8840   28.2420   45.8490 C   0  0  0  0  0  0  0  0  0  0  0  0
   60.2070   27.1360   47.7210 C   0  0  0  0  0  0  0  0  0  0  0  0
   60.7820   26.6330   48.8920 C   0  0  0  0  0  0  0  0  0  0  0  0
   64.1790   28.2440   51.9920 C   0  0  0  0  0  0  0  0  0  0  0  0
   65.2710   29.0340   51.6530 C   0  0  0  0  0  0  0  0  0  0  0  0
   65.1700   30.4200   51.7000 C   0  0  0  0  0  0  0  0  0  0  0  0
   63.9820   31.0460   52.0940 C   0  0  0  0  0  0  0  0  0  0  0  0
   64.0180   32.4510   52.1330 O   0  0  0  0  0  0  0  0  0  0  0  0
   63.0670   33.3360   51.5560 C   0  0  1  0  0  0  0  0  0  0  0  0
   62.8770   33.0190   50.0890 C   0  0  0  0  0  0  0  0  0  0  0  0
   63.1620   33.9780   49.0990 C   0  0  0  0  0  0  0  0  0  0  0  0
   63.0160   33.6590   47.7450 C   0  0  0  0  0  0  0  0  0  0  0  0
   62.6000   32.3810   47.3670 C   0  0  0  0  0  0  0  0  0  0  0  0
   62.3340   31.4150   48.3410 C   0  0  0  0  0  0  0  0  0  0  0  0
   62.4780   31.7290   49.6970 C   0  0  0  0  0  0  0  0  0  0  0  0
   61.7770   33.2390   52.3160 C   0  0  0  0  0  0  0  0  0  0  0  0
   61.3380   34.2230   52.9740 O   0  0  0  0  0  0  0  0  0  0  0  0
   59.0990   31.9210   49.2810 C   0  0  0  0  0  0  0  0  0  0  0  0
   59.0130   32.5050   48.0140 C   0  0  0  0  0  0  0  0  0  0  0  0
   57.0480   34.2950   46.5080 H   0  0  0  0  0  0  0  0  0  0  0  0
   60.1690   35.6330   48.7710 H   0  0  0  0  0  0  0  0  0  0  0  0
   60.3260   34.5917   51.0307 H   0  0  0  0  0  0  0  0  0  0  0  0
   59.0150   32.6363   52.4359 H   0  0  0  0  0  0  0  0  0  0  0  0
   59.2647   31.0125   51.6896 H   0  0  0  0  0  0  0  0  0  0  0  0
   61.4580   27.9420   53.6170 H   0  0  0  0  0  0  0  0  0  0  0  0
   59.9846   29.1718   51.0351 H   0  0  0  0  0  0  0  0  0  0  0  0
   58.9624   30.0765   48.9511 H   0  0  0  0  0  0  0  0  0  0  0  0
   60.2450   30.6597   46.3989 H   0  0  0  0  0  0  0  0  0  0  0  0
   59.2280   31.5570   44.3069 H   0  0  0  0  0  0  0  0  0  0  0  0
   57.3545   30.3367   43.2003 H   0  0  0  0  0  0  0  0  0  0  0  0
   56.4870   28.2158   44.1919 H   0  0  0  0  0  0  0  0  0  0  0  0
   57.5010   27.3047   46.2788 H   0  0  0  0  0  0  0  0  0  0  0  0
   60.2697   26.5553   46.7889 H   0  0  0  0  0  0  0  0  0  0  0  0
   61.2923   25.6586   48.8769 H   0  0  0  0  0  0  0  0  0  0  0  0
   64.2653   27.1481   51.9538 H   0  0  0  0  0  0  0  0  0  0  0  0
   66.2164   28.5622   51.3471 H   0  0  0  0  0  0  0  0  0  0  0  0
   66.0388   31.0350   51.4227 H   0  0  0  0  0  0  0  0  0  0  0  0
   63.4323   34.3715   51.6221 H   0  0  0  0  0  0  0  0  0  0  0  0
   63.5010   34.9828   49.3914 H   0  0  0  0  0  0  0  0  0  0  0  0
   63.2294   34.4165   46.9765 H   0  0  0  0  0  0  0  0  0  0  0  0
   62.4815   32.1343   46.3016 H   0  0  0  0  0  0  0  0  0  0  0  0
   62.0112   30.4070   48.0416 H   0  0  0  0  0  0  0  0  0  0  0  0
   62.2780   30.9626   50.4603 H   0  0  0  0  0  0  0  0  0  0  0  0
   58.7910   30.8746   49.4229 H   0  0  0  0  0  0  0  0  0  0  0  0
   58.6377   31.9166   47.1637 H   0  0  0  0  0  0  0  0  0  0  0  0
  1  2  1  0
  2  3  2  0
  2  4  2  0
  2  5  1  0
  5  6  2  0
  6  7  1  0
  7  8  2  0
  8  9  1  0
  9 10  1  0
 10 11  1  0
 11 12  2  0
 11 13  1  0
 13 14  2  0
 14 15  1  0
 15 16  1  0
 16 17  2  0
 16 18  2  0
 16 19  1  0
 19 20  2  0
 20 21  1  0
 21 22  2  0
 22 23  1  0
 23 24  2  0
 24 25  1  0
 25 26  2  0
 26 27  1  0
 27 28  2  0
 22 29  1  0
 29 30  2  0
 14 31  1  0
 31 32  2  0
 32 33  1  0
 33 34  2  0
 34 35  1  0
 35 36  1  0
 36 37  1  0
 37 38  2  0
 38 39  1  0
 39 40  2  0
 40 41  1  0
 41 42  2  0
 36 43  1  0
 43 44  2  0
  8 45  1  0
 45 46  2  0
 46  5  1  0
 43 10  1  0
 34 13  1  0
 42 37  1  0
 30 19  1  0
 28 23  1  0
  1 47  1  0
  6 48  1  0
  7 49  1  0
  9 50  1  0
  9 51  1  0
 15 52  1  0
 20 53  1  0
 21 54  1  0
 24 55  1  0
 25 56  1  0
 26 57  1  0
 27 58  1  0
 28 59  1  0
 29 60  1  0
 30 61  1  0
 31 62  1  0
 32 63  1  0
 33 64  1  0
 36 65  1  6
 38 66  1  0
 39 67  1  0
 40 68  1  0
 41 69  1  0
 42 70  1  0
 45 71  1  0
 46 72  1  0
M  CHG  1   1  -1
M  END
>  <UniqueID>  (86) 
79

>  <SMILES>  (86) 
[NH-]S(=O)(=O)c1ccc(CN2C(=O)c3c(NS(=O)(=O)c4ccc(-c5ccccc5)cc4)cccc3O[C@@H](c3ccccc3)C2=O)cc1

>  <Energy>  (86) 
107.35736345198742

>  <Genealogy>  (86) 
[NH-]S(=O)(=O)c1ccc(CN2C(=O)c3c(NS(=O)(=O)c4ccc(-c5ccccc5)cc4)cccc3OC(c3ccccc3)C2=O)cc1 (protonated)
[NH-]S(=O)(=O)c1ccc(CN2C(=O)c3c(NS(=O)(=O)c4ccc(-c5ccccc5)cc4)cccc3O[C@@H](c3ccccc3)C2=O)cc1 (chirality)
[NH-]S(=O)(=O)c1ccc(CN2C(=O)c3c(NS(=O)(=O)c4ccc(-c5ccccc5)cc4)cccc3O[C@@H](c3ccccc3)C2=O)cc1 (3D coordinates assigned)
[NH-]S(=O)(=O)c1ccc(CN2C(=O)c3c(NS(=O)(=O)c4ccc(-c5ccccc5)cc4)cccc3O[C@@H](c3ccccc3)C2=O)cc1 (nonaromatic ring conformer: 107.35736345198742 kcal/mol)

>  <smiles>  (86) 
NS(=O)(=O)c1ccc(CN2C(=O)c3c(NS(=O)(=O)c4ccc(-c5ccccc5)cc4)cccc3OC(c3ccccc3)C2=O)cc1

>  <score_type>  (86) 
oracle

>  <origin>  (86) 
adg

>  <m_score__min__energy>  (86) 
-11.960000000000001

>  <m_primary>  (86) 
energy

$$$$
86:0
     RDKit          3D

 51 54  0  0  0  0  0  0  0  0999 V2000
   59.5500   33.9220   44.9790 C   0  0  0  0  0  0  0  0  0  0  0  0
   58.4340   33.9680   46.3670 S   0  0  0  0  0  0  0  0  0  0  0  0
   58.7240   35.1950   47.1830 O   0  0  0  0  0  0  0  0  0  0  0  0
   57.0080   34.0380   45.8890 O   0  0  0  0  0  0  0  0  0  0  0  0
   58.6660   32.5630   47.3640 N   0  0  0  0  0  0  0  0  0  0  0  0
   59.9090   32.2260   48.0110 C   0  0  0  0  0  0  0  0  0  0  0  0
   60.9790   33.1430   48.0620 C   0  0  0  0  0  0  0  0  0  0  0  0
   62.1750   32.7970   48.6940 C   0  0  0  0  0  0  0  0  0  0  0  0
   62.3330   31.5240   49.2500 C   0  0  0  0  0  0  0  0  0  0  0  0
   61.2740   30.6190   49.2350 C   0  0  0  0  0  0  0  0  0  0  0  0
   60.0520   30.9660   48.6320 C   0  0  0  0  0  0  0  0  0  0  0  0
   58.9860   30.0520   48.5910 O   0  0  0  0  0  0  0  0  0  0  0  0
   58.5430   29.3890   47.4390 C   0  0  0  0  0  0  0  0  0  0  0  0
   58.3430   28.0010   47.4220 C   0  0  0  0  0  0  0  0  0  0  0  0
   57.8970   27.4010   46.2400 C   0  0  0  0  0  0  0  0  0  0  0  0
   57.6940   25.9140   46.1620 C   0  0  0  0  0  0  0  0  0  0  0  0
   56.2120   25.5550   46.2880 C   0  0  0  0  0  0  0  0  0  0  0  0
   55.4200   26.6600   45.9500 O   0  0  0  0  0  0  0  0  0  0  0  0
   57.6570   28.1720   45.1460 N   0  0  0  0  0  0  0  0  0  0  0  0
   57.8310   29.5180   45.1850 C   0  0  0  0  0  0  0  0  0  0  0  0
   57.5550   30.3060   44.0310 N   0  0  0  0  0  0  0  0  0  0  0  0
   56.6430   30.2600   42.8760 C   0  0  0  0  0  0  0  0  0  0  0  0
   57.1300   31.5200   42.2400 C   0  0  0  0  0  0  0  0  0  0  0  0
   58.0490   31.5510   43.4180 C   0  0  0  0  0  0  0  0  0  0  0  0
   58.2640   30.1150   46.3260 N   0  0  0  0  0  0  0  0  0  0  0  0
   63.5640   31.1760   49.8170 O   0  0  0  0  0  0  0  0  0  0  0  0
   64.7280   31.9810   49.6040 C   0  0  0  0  0  0  0  0  0  0  0  0
   64.3520   33.4680   49.6310 C   0  0  0  0  0  0  0  0  0  0  0  0
   63.2310   33.7090   48.7770 O   0  0  0  0  0  0  0  0  0  0  0  0
   60.5870   33.8793   45.3435 H   0  0  0  0  0  0  0  0  0  0  0  0
   59.3391   33.0318   44.3682 H   0  0  0  0  0  0  0  0  0  0  0  0
   59.4130   34.8266   44.3682 H   0  0  0  0  0  0  0  0  0  0  0  0
   57.8630   31.8980   47.4160 H   0  0  0  0  0  0  0  0  0  0  0  0
   60.8709   34.1361   47.6015 H   0  0  0  0  0  0  0  0  0  0  0  0
   61.3943   29.6281   49.6971 H   0  0  0  0  0  0  0  0  0  0  0  0
   58.5332   27.3960   48.3208 H   0  0  0  0  0  0  0  0  0  0  0  0
   58.0713   25.5498   45.1951 H   0  0  0  0  0  0  0  0  0  0  0  0
   58.2405   25.4419   46.9918 H   0  0  0  0  0  0  0  0  0  0  0  0
   55.9807   24.7202   45.6100 H   0  0  0  0  0  0  0  0  0  0  0  0
   55.9988   25.2627   47.3268 H   0  0  0  0  0  0  0  0  0  0  0  0
   55.8170   27.0520   45.1290 H   0  0  0  0  0  0  0  0  0  0  0  0
   56.8039   29.3750   42.2428 H   0  0  0  0  0  0  0  0  0  0  0  0
   55.5663   30.1904   43.0901 H   0  0  0  0  0  0  0  0  0  0  0  0
   57.6170   31.4002   41.2610 H   0  0  0  0  0  0  0  0  0  0  0  0
   56.4750   32.3546   41.9497 H   0  0  0  0  0  0  0  0  0  0  0  0
   59.1094   31.4920   43.1315 H   0  0  0  0  0  0  0  0  0  0  0  0
   58.0355   32.4572   44.0414 H   0  0  0  0  0  0  0  0  0  0  0  0
   65.4619   31.7767   50.3975 H   0  0  0  0  0  0  0  0  0  0  0  0
   65.1605   31.7365   48.6226 H   0  0  0  0  0  0  0  0  0  0  0  0
   64.0942   33.7590   50.6600 H   0  0  0  0  0  0  0  0  0  0  0  0
   65.2077   34.0613   49.2764 H   0  0  0  0  0  0  0  0  0  0  0  0
  1  2  1  0
  2  3  2  0
  2  4  2  0
  2  5  1  0
  5  6  1  0
  6  7  2  0
  7  8  1  0
  8  9  2  0
  9 10  1  0
 10 11  2  0
 11 12  1  0
 12 13  1  0
 13 14  2  0
 14 15  1  0
 15 16  1  0
 16 17  1  0
 17 18  1  0
 15 19  2  0
 19 20  1  0
 20 21  1  0
 21 22  1  0
 22 23  1  0
 23 24  1  0
 20 25  2  0
  9 26  1  0
 26 27  1  0
 27 28  1  0
 28 29  1  0
 11  6  1  0
 25 13  1  0
 29  8  1  0
 24 21  1  0
  1 30  1  0
  1 31  1  0
  1 32  1  0
  5 33  1  0
  7 34  1  0
 10 35  1  0
 14 36  1  0
 16 37  1  0
 16 38  1  0
 17 39  1  0
 17 40  1  0
 18 41  1  0
 22 42  1  0
 22 43  1  0
 23 44  1  0
 23 45  1  0
 24 46  1  0
 24 47  1  0
 27 48  1  0
 27 49  1  0
 28 50  1  0
 28 51  1  0
M  END
>  <UniqueID>  (87) 
80

>  <SMILES>  (87) 
CS(=O)(=O)Nc1cc2c(cc1Oc1cc(CCO)nc(N3CCC3)n1)OCCO2

>  <Energy>  (87) 
100.34552545127657

>  <Genealogy>  (87) 
CS(=O)(=O)Nc1cc2c(cc1Oc1cc(CCO)nc(N3CCC3)n1)OCCO2 (3D coordinates assigned)
CS(=O)(=O)Nc1cc2c(cc1Oc1cc(CCO)nc(N3CCC3)n1)OCCO2 (nonaromatic ring conformer: 100.34552545127657 kcal/mol)

>  <smiles>  (87) 
CS(=O)(=O)Nc1cc2c(cc1Oc1cc(CCO)nc(N3CCC3)n1)OCCO2

>  <score_type>  (87) 
oracle

>  <origin>  (87) 
adg

>  <m_score__min__energy>  (87) 
-8.0399999999999991

>  <m_primary>  (87) 
energy

$$$$
87:0
     RDKit          3D

 40 42  0  0  0  0  0  0  0  0999 V2000
   58.7470   33.9220   45.4320 O   0  0  0  0  0  0  0  0  0  0  0  0
   58.9930   33.3540   46.8030 S   0  0  0  0  0  0  0  0  0  0  0  0
   58.5880   34.3770   47.8270 O   0  0  0  0  0  0  0  0  0  0  0  0
   58.0490   31.9090   47.0350 N   0  0  0  0  0  0  0  0  0  0  0  0
   58.5340   30.8040   46.2040 C   0  0  0  0  0  0  0  0  0  0  0  0
   57.8340   30.7610   44.8660 C   0  0  0  0  0  0  0  0  0  0  0  0
   58.1530   31.7130   43.8820 C   0  0  0  0  0  0  0  0  0  0  0  0
   57.5430   31.6650   42.6270 C   0  0  0  0  0  0  0  0  0  0  0  0
   56.6130   30.6660   42.3400 C   0  0  0  0  0  0  0  0  0  0  0  0
   56.2790   29.7200   43.3110 C   0  0  0  0  0  0  0  0  0  0  0  0
   56.8710   29.7680   44.5870 C   0  0  0  0  0  0  0  0  0  0  0  0
   56.5760   28.8070   45.5680 O   0  0  0  0  0  0  0  0  0  0  0  0
   57.0610   27.4920   45.5940 C   0  0  0  0  0  0  0  0  0  0  0  0
   58.4170   27.2000   45.3620 C   0  0  0  0  0  0  0  0  0  0  0  0
   58.8650   25.8770   45.3790 C   0  0  0  0  0  0  0  0  0  0  0  0
   57.9630   24.8340   45.6140 C   0  0  0  0  0  0  0  0  0  0  0  0
   58.5270   23.1730   45.6320 Cl  0  0  0  0  0  0  0  0  0  0  0  0
   56.6090   25.1170   45.8250 C   0  0  0  0  0  0  0  0  0  0  0  0
   56.1580   26.4420   45.8100 C   0  0  0  0  0  0  0  0  0  0  0  0
   54.8110   26.7130   46.0180 O   0  0  0  0  0  0  0  0  0  0  0  0
   60.7000   32.9810   47.0210 C   0  0  0  0  0  0  0  0  0  0  0  0
   61.1030   31.8550   47.7550 C   0  0  0  0  0  0  0  0  0  0  0  0
   62.4620   31.6080   47.9700 C   0  0  0  0  0  0  0  0  0  0  0  0
   63.4240   32.4790   47.4510 C   0  0  0  0  0  0  0  0  0  0  0  0
   63.0270   33.5980   46.7130 C   0  0  0  0  0  0  0  0  0  0  0  0
   61.6690   33.8470   46.4960 C   0  0  0  0  0  0  0  0  0  0  0  0
   59.6139   30.9309   46.0373 H   0  0  0  0  0  0  0  0  0  0  0  0
   58.3241   29.8615   46.7308 H   0  0  0  0  0  0  0  0  0  0  0  0
   58.8882   32.5010   44.1023 H   0  0  0  0  0  0  0  0  0  0  0  0
   57.7961   32.4158   41.8639 H   0  0  0  0  0  0  0  0  0  0  0  0
   56.1419   30.6234   41.3469 H   0  0  0  0  0  0  0  0  0  0  0  0
   55.5482   28.9318   43.0772 H   0  0  0  0  0  0  0  0  0  0  0  0
   59.1276   28.0166   45.1664 H   0  0  0  0  0  0  0  0  0  0  0  0
   59.9286   25.6551   45.2073 H   0  0  0  0  0  0  0  0  0  0  0  0
   55.8979   24.2969   46.0030 H   0  0  0  0  0  0  0  0  0  0  0  0
   60.3484   31.1657   48.1618 H   0  0  0  0  0  0  0  0  0  0  0  0
   62.7749   30.7264   48.5488 H   0  0  0  0  0  0  0  0  0  0  0  0
   64.4928   32.2842   47.6231 H   0  0  0  0  0  0  0  0  0  0  0  0
   63.7838   34.2828   46.3029 H   0  0  0  0  0  0  0  0  0  0  0  0
   61.3595   34.7257   45.9111 H   0  0  0  0  0  0  0  0  0  0  0  0
  1  2  2  0
  2  3  2  0
  2  4  1  0
  4  5  1  0
  5  6  1  0
  6  7  2  0
  7  8  1  0
  8  9  2  0
  9 10  1  0
 10 11  2  0
 11 12  1  0
 12 13  1  0
 13 14  2  0
 14 15  1  0
 15 16  2  0
 16 17  1  0
 16 18  1  0
 18 19  2  0
 19 20  1  0
  2 21  1  0
 21 22  2  0
 22 23  1  0
 23 24  2  0
 24 25  1  0
 25 26  2  0
 11  6  1  0
 19 13  1  0
 26 21  1  0
  5 27  1  0
  5 28  1  0
  7 29  1  0
  8 30  1  0
  9 31  1  0
 10 32  1  0
 14 33  1  0
 15 34  1  0
 18 35  1  0
 22 36  1  0
 23 37  1  0
 24 38  1  0
 25 39  1  0
 26 40  1  0
M  CHG  2   4  -1  20  -1
M  END
>  <UniqueID>  (88) 
81

>  <SMILES>  (88) 
O=S(=O)([N-]Cc1ccccc1Oc1ccc(Cl)cc1[O-])c1ccccc1

>  <Energy>  (88) 
45.13971929351615

>  <Genealogy>  (88) 
O=S(=O)([N-]Cc1ccccc1Oc1ccc(Cl)cc1[O-])c1ccccc1 (protonated)
O=S(=O)([N-]Cc1ccccc1Oc1ccc(Cl)cc1[O-])c1ccccc1 (3D coordinates assigned)
O=S(=O)([N-]Cc1ccccc1Oc1ccc(Cl)cc1[O-])c1ccccc1 (optimized conformer: 45.13971929351615 kcal/mol)

>  <smiles>  (88) 
O=S(=O)(NCc1ccccc1Oc1ccc(Cl)cc1O)c1ccccc1

>  <score_type>  (88) 
oracle

>  <origin>  (88) 
adg

>  <m_score__min__energy>  (88) 
-14.029999999999999

>  <m_primary>  (88) 
energy

$$$$
88:0
     RDKit          3D

 57 60  0  0  0  0  0  0  0  0999 V2000
   63.5660   33.6730   46.8080 C   0  0  0  0  0  0  0  0  0  0  0  0
   62.1170   33.7910   47.1560 C   0  0  0  0  0  0  0  0  0  0  0  0
   61.7010   33.8020   48.4900 C   0  0  0  0  0  0  0  0  0  0  0  0
   60.3320   33.8990   48.7670 C   0  0  0  0  0  0  0  0  0  0  0  0
   59.8420   33.8950   50.1840 C   0  0  0  0  0  0  0  0  0  0  0  0
   59.4410   33.9390   47.7360 N   0  0  0  0  0  0  0  0  0  0  0  0
   59.8650   33.8980   46.4450 C   0  0  0  0  0  0  0  0  0  0  0  0
   58.6880   33.9060   45.0970 S   0  0  0  0  0  0  0  0  0  0  0  0
   57.4550   32.8620   45.9540 C   0  0  0  0  0  0  0  0  0  0  0  0
   57.3860   31.4830   45.3670 C   0  0  0  0  0  0  0  0  0  0  0  0
   56.4480   31.1140   44.4720 N   0  0  0  0  0  0  0  0  0  0  0  0
   56.6040   29.8140   44.2560 N   0  0  0  0  0  0  0  0  0  0  0  0
   57.6280   29.4100   45.0300 C   0  0  0  0  0  0  0  0  0  0  0  0
   58.2260   27.7170   45.0790 S   0  0  0  0  0  0  0  0  0  0  0  0
   57.3610   27.3010   46.6410 C   0  0  0  0  0  0  0  0  0  0  0  0
   56.2540   26.3040   46.4510 C   0  0  0  0  0  0  0  0  0  0  0  0
   55.1490   26.7030   45.9940 O   0  0  0  0  0  0  0  0  0  0  0  0
   56.4550   24.9130   46.7310 N   0  0  0  0  0  0  0  0  0  0  0  0
   56.8180   23.9270   45.7550 C   0  0  0  0  0  0  0  0  0  0  0  0
   58.1330   23.4500   45.7590 C   0  0  0  0  0  0  0  0  0  0  0  0
   58.5470   22.5020   44.8230 C   0  0  0  0  0  0  0  0  0  0  0  0
   57.6450   22.0130   43.8800 C   0  0  0  0  0  0  0  0  0  0  0  0
   56.3220   22.4530   43.8850 C   0  0  0  0  0  0  0  0  0  0  0  0
   55.8830   23.3910   44.8340 C   0  0  0  0  0  0  0  0  0  0  0  0
   54.4300   23.7800   44.8430 C   0  0  0  0  0  0  0  0  0  0  0  0
   58.1410   30.4300   45.7420 N   0  0  0  0  0  0  0  0  0  0  0  0
   59.1720   30.3780   46.7400 C   0  0  0  0  0  0  0  0  0  0  0  0
   58.8500   30.1340   48.0830 C   0  0  0  0  0  0  0  0  0  0  0  0
   59.8600   30.0800   49.0490 C   0  0  0  0  0  0  0  0  0  0  0  0
   61.1950   30.2660   48.6790 C   0  0  0  0  0  0  0  0  0  0  0  0
   61.5210   30.5110   47.3420 C   0  0  0  0  0  0  0  0  0  0  0  0
   60.5140   30.5690   46.3760 C   0  0  0  0  0  0  0  0  0  0  0  0
   61.1910   33.8270   46.1650 N   0  0  0  0  0  0  0  0  0  0  0  0
   64.1620   33.6245   47.7312 H   0  0  0  0  0  0  0  0  0  0  0  0
   63.7282   32.7587   46.2183 H   0  0  0  0  0  0  0  0  0  0  0  0
   63.8740   34.5490   46.2183 H   0  0  0  0  0  0  0  0  0  0  0  0
   62.4349   33.7357   49.3067 H   0  0  0  0  0  0  0  0  0  0  0  0
   60.7023   33.9020   50.8695 H   0  0  0  0  0  0  0  0  0  0  0  0
   59.2248   34.7881   50.3611 H   0  0  0  0  0  0  0  0  0  0  0  0
   59.2394   32.9919   50.3611 H   0  0  0  0  0  0  0  0  0  0  0  0
   58.4150   33.9860   47.9360 H   0  0  0  0  0  0  0  0  0  0  0  0
   57.7319   32.7833   47.0157 H   0  0  0  0  0  0  0  0  0  0  0  0
   56.4680   33.3330   45.8359 H   0  0  0  0  0  0  0  0  0  0  0  0
   58.0934   26.8814   47.3463 H   0  0  0  0  0  0  0  0  0  0  0  0
   56.9075   28.2275   47.0229 H   0  0  0  0  0  0  0  0  0  0  0  0
   58.8469   23.8257   46.5068 H   0  0  0  0  0  0  0  0  0  0  0  0
   59.5858   22.1404   44.8293 H   0  0  0  0  0  0  0  0  0  0  0  0
   57.9771   21.2791   43.1309 H   0  0  0  0  0  0  0  0  0  0  0  0
   55.6151   22.0618   43.1385 H   0  0  0  0  0  0  0  0  0  0  0  0
   54.0818   23.8732   45.8823 H   0  0  0  0  0  0  0  0  0  0  0  0
   54.3051   24.7432   44.3267 H   0  0  0  0  0  0  0  0  0  0  0  0
   53.8405   23.0080   44.3267 H   0  0  0  0  0  0  0  0  0  0  0  0
   57.8007   29.9847   48.3773 H   0  0  0  0  0  0  0  0  0  0  0  0
   59.6033   29.8908   50.1018 H   0  0  0  0  0  0  0  0  0  0  0  0
   61.9885   30.2196   49.4394 H   0  0  0  0  0  0  0  0  0  0  0  0
   62.5714   30.6582   47.0505 H   0  0  0  0  0  0  0  0  0  0  0  0
   60.7738   30.7652   45.3253 H   0  0  0  0  0  0  0  0  0  0  0  0
  1  2  1  0
  2  3  2  0
  3  4  1  0
  4  5  1  0
  4  6  2  0
  6  7  1  0
  7  8  1  0
  8  9  1  0
  9 10  1  0
 10 11  2  0
 11 12  1  0
 12 13  2  0
 13 14  1  0
 14 15  1  0
 15 16  1  0
 16 17  2  0
 16 18  1  0
 18 19  1  0
 19 20  2  0
 20 21  1  0
 21 22  2  0
 22 23  1  0
 23 24  2  0
 24 25  1  0
 13 26  1  0
 26 27  1  0
 27 28  2  0
 28 29  1  0
 29 30  2  0
 30 31  1  0
 31 32  2  0
  7 33  2  0
 33  2  1  0
 26 10  1  0
 32 27  1  0
 24 19  1  0
  1 34  1  0
  1 35  1  0
  1 36  1  0
  3 37  1  0
  5 38  1  0
  5 39  1  0
  5 40  1  0
  6 41  1  0
  9 42  1  0
  9 43  1  0
 15 44  1  0
 15 45  1  0
 20 46  1  0
 21 47  1  0
 22 48  1  0
 23 49  1  0
 25 50  1  0
 25 51  1  0
 25 52  1  0
 28 53  1  0
 29 54  1  0
 30 55  1  0
 31 56  1  0
 32 57  1  0
M  CHG  2   6   1  18  -1
M  END
>  <UniqueID>  (89) 
82

>  <SMILES>  (89) 
Cc1cc(C)[nH+]c(SCc2nnc(SCC(=O)[N-]c3ccccc3C)n2-c2ccccc2)n1

>  <Energy>  (89) 
96.24809556027792

>  <Genealogy>  (89) 
Cc1cc(C)[nH+]c(SCc2nnc(SCC(=O)[N-]c3ccccc3C)n2-c2ccccc2)n1 (protonated)
Cc1cc(C)[nH+]c(SCc2nnc(SCC(=O)[N-]c3ccccc3C)n2-c2ccccc2)n1 (3D coordinates assigned)
Cc1cc(C)[nH+]c(SCc2nnc(SCC(=O)[N-]c3ccccc3C)n2-c2ccccc2)n1 (optimized conformer: 96.24809556027792 kcal/mol)

>  <smiles>  (89) 
Cc1cc(C)nc(SCc2nnc(SCC(=O)Nc3ccccc3C)n2-c2ccccc2)n1

>  <score_type>  (89) 
oracle

>  <origin>  (89) 
adg

>  <m_score__min__energy>  (89) 
-10.539999999999999

>  <m_primary>  (89) 
energy

$$$$
89:0
     RDKit          3D

 34 35  0  0  0  0  0  0  0  0999 V2000
   58.7070   29.8950   50.8430 H   0  0  0  0  0  0  0  0  0  0  0  0
   58.2740   29.8150   49.9300 O   0  0  0  0  0  0  0  0  0  0  0  0
   59.0180   29.9300   48.7580 C   0  0  0  0  0  0  0  0  0  0  0  0
   59.9070   30.9990   48.6090 C   0  0  0  0  0  0  0  0  0  0  0  0
   60.0126   31.7421   49.4131 H   0  0  0  0  0  0  0  0  0  0  0  0
   60.6610   31.1240   47.4400 C   0  0  0  0  0  0  0  0  0  0  0  0
   61.3612   31.9647   47.3267 H   0  0  0  0  0  0  0  0  0  0  0  0
   60.5290   30.1850   46.4140 C   0  0  0  0  0  0  0  0  0  0  0  0
   61.1306   30.2862   45.4987 H   0  0  0  0  0  0  0  0  0  0  0  0
   59.6290   29.1090   46.5460 C   0  0  0  0  0  0  0  0  0  0  0  0
   59.4650   28.1260   45.5070 N   0  0  0  0  0  0  0  0  0  0  0  0
   60.1910   27.3800   45.4130 H   0  0  0  0  0  0  0  0  0  0  0  0
   58.5150   28.2430   44.4410 C   0  0  0  0  0  0  0  0  0  0  0  0
   58.8860   28.2697   43.4058 H   0  0  0  0  0  0  0  0  0  0  0  0
   57.2320   28.3190   44.6450 N   0  0  0  0  0  0  0  0  0  0  0  0
   56.3890   29.4750   44.5000 C   0  0  0  0  0  0  0  0  0  0  0  0
   55.1850   29.3920   44.8570 O   0  0  0  0  0  0  0  0  0  0  0  0
   56.9060   30.8030   44.0080 C   0  0  0  0  0  0  0  0  0  0  0  0
   57.9919   30.7272   43.8496 H   0  0  0  0  0  0  0  0  0  0  0  0
   56.3889   31.0477   43.0684 H   0  0  0  0  0  0  0  0  0  0  0  0
   56.6460   31.8470   44.9470 O   0  0  0  0  0  0  0  0  0  0  0  0
   57.5700   32.8230   45.3510 C   0  0  0  0  0  0  0  0  0  0  0  0
   58.3550   33.5530   44.4350 C   0  0  0  0  0  0  0  0  0  0  0  0
   58.2575   33.3637   43.3558 H   0  0  0  0  0  0  0  0  0  0  0  0
   59.2580   34.5180   44.8960 C   0  0  0  0  0  0  0  0  0  0  0  0
   59.8675   35.0864   44.1781 H   0  0  0  0  0  0  0  0  0  0  0  0
   59.3870   34.7610   46.2650 C   0  0  0  0  0  0  0  0  0  0  0  0
   60.0985   35.5190   46.6246 H   0  0  0  0  0  0  0  0  0  0  0  0
   58.6120   34.0410   47.1780 C   0  0  0  0  0  0  0  0  0  0  0  0
   58.7125   34.2336   48.2563 H   0  0  0  0  0  0  0  0  0  0  0  0
   57.7090   33.0760   46.7220 C   0  0  0  0  0  0  0  0  0  0  0  0
   57.1028   32.5109   47.4453 H   0  0  0  0  0  0  0  0  0  0  0  0
   58.8830   28.9860   47.7300 C   0  0  0  0  0  0  0  0  0  0  0  0
   58.1875   28.1425   47.8516 H   0  0  0  0  0  0  0  0  0  0  0  0
  1  2  1  0
  2  3  1  0
  3  4  2  0
  4  5  1  0
  4  6  1  0
  6  7  1  0
  6  8  2  0
  8  9  1  0
  8 10  1  0
 10 11  1  0
 11 12  1  0
 11 13  1  0
 13 14  1  0
 13 15  2  0
 15 16  1  0
 16 17  2  0
 16 18  1  0
 18 19  1  0
 18 20  1  0
 18 21  1  0
 21 22  1  0
 22 23  2  0
 23 24  1  0
 23 25  1  0
 25 26  1  0
 25 27  2  0
 27 28  1  0
 27 29  1  0
 29 30  1  0
 29 31  2  0
 31 32  1  0
 10 33  2  0
 33 34  1  0
 33  3  1  0
 31 22  1  0
M  END
>  <UniqueID>  (90) 
83

>  <SMILES>  (90) 
O=C(COc1ccccc1)/N=C\Nc1cccc(O)c1

>  <Energy>  (90) 
45.0496010399015

>  <Genealogy>  (90) 
O=C(COc1ccccc1)/N=C\Nc1cccc(O)c1 (cis-trans isomerization)
O=C(COc1ccccc1)/N=C\Nc1cccc(O)c1 (3D coordinates assigned)
O=C(COc1ccccc1)/N=C\Nc1cccc(O)c1 (optimized conformer: 45.0496010399015 kcal/mol)

>  <smiles>  (90) 
O=C(COc1ccccc1)N=CNc1cccc(O)c1

>  <score_type>  (90) 
oracle

>  <origin>  (90) 
adg

>  <m_score__min__energy>  (90) 
-8.0500000000000007

>  <m_primary>  (90) 
energy

$$$$
90:0
     RDKit          3D

 50 52  0  0  0  0  0  0  0  0999 V2000
   61.5000   33.8230   49.4550 C   0  0  0  0  0  0  0  0  0  0  0  0
   60.5580   33.6800   48.2950 C   0  0  0  0  0  0  0  0  0  0  0  0
   61.0050   33.9630   46.9950 C   0  0  0  0  0  0  0  0  0  0  0  0
   60.1360   33.8350   45.9070 C   0  0  0  0  0  0  0  0  0  0  0  0
   58.8140   33.4120   46.1050 C   0  0  0  0  0  0  0  0  0  0  0  0
   57.7140   33.2920   44.7330 S   0  0  0  0  0  0  0  0  0  0  0  0
   56.9090   34.5560   44.6380 O   0  0  0  0  0  0  0  0  0  0  0  0
   58.4820   33.1150   43.4530 O   0  0  0  0  0  0  0  0  0  0  0  0
   56.6410   31.9490   44.9440 N   0  0  0  0  0  0  0  0  0  0  0  0
   57.0320   30.5950   44.7030 C   0  0  0  0  0  0  0  0  0  0  0  0
   56.2410   29.6470   44.9600 O   0  0  0  0  0  0  0  0  0  0  0  0
   58.3380   30.2870   44.0950 C   0  0  0  0  0  0  0  0  0  0  0  0
   59.1960   29.3560   44.5380 C   0  0  0  0  0  0  0  0  0  0  0  0
   59.4100   28.9820   45.9570 C   0  0  0  0  0  0  0  0  0  0  0  0
   59.4770   29.9640   46.9660 C   0  0  0  0  0  0  0  0  0  0  0  0
   59.6110   29.5940   48.3070 C   0  0  0  0  0  0  0  0  0  0  0  0
   59.6530   28.2460   48.6590 C   0  0  0  0  0  0  0  0  0  0  0  0
   59.5550   27.2600   47.6710 C   0  0  0  0  0  0  0  0  0  0  0  0
   59.4260   27.6220   46.3240 C   0  0  0  0  0  0  0  0  0  0  0  0
   59.3210   26.6320   45.3490 O   0  0  0  0  0  0  0  0  0  0  0  0
   57.8240   26.2950   44.5960 S   0  0  0  0  0  0  0  0  0  0  0  0
   56.7040   26.7940   45.4640 O   0  0  0  0  0  0  0  0  0  0  0  0
   57.7920   27.0140   43.2770 O   0  0  0  0  0  0  0  0  0  0  0  0
   57.6300   24.5620   44.3200 C   0  0  0  0  0  0  0  0  0  0  0  0
   56.6700   24.1180   43.3990 C   0  0  0  0  0  0  0  0  0  0  0  0
   56.4770   22.7510   43.1790 C   0  0  0  0  0  0  0  0  0  0  0  0
   57.2360   21.8150   43.8790 C   0  0  0  0  0  0  0  0  0  0  0  0
   58.1950   22.2430   44.7970 C   0  0  0  0  0  0  0  0  0  0  0  0
   58.4060   23.6090   45.0220 C   0  0  0  0  0  0  0  0  0  0  0  0
   59.3880   23.9780   45.9440 O   0  0  0  0  0  0  0  0  0  0  0  0
   58.3700   33.1110   47.4000 C   0  0  0  0  0  0  0  0  0  0  0  0
   59.2380   33.2470   48.4880 C   0  0  0  0  0  0  0  0  0  0  0  0
   60.9378   33.7376   50.3966 H   0  0  0  0  0  0  0  0  0  0  0  0
   62.2611   33.0301   49.4092 H   0  0  0  0  0  0  0  0  0  0  0  0
   61.9915   34.8060   49.4092 H   0  0  0  0  0  0  0  0  0  0  0  0
   62.0434   34.2869   46.8313 H   0  0  0  0  0  0  0  0  0  0  0  0
   60.4909   34.0670   44.8920 H   0  0  0  0  0  0  0  0  0  0  0  0
   58.6329   30.8663   43.2076 H   0  0  0  0  0  0  0  0  0  0  0  0
   59.7929   28.8235   43.7829 H   0  0  0  0  0  0  0  0  0  0  0  0
   59.4234   31.0290   46.6960 H   0  0  0  0  0  0  0  0  0  0  0  0
   59.6834   30.3676   49.0857 H   0  0  0  0  0  0  0  0  0  0  0  0
   59.7633   27.9570   49.7146 H   0  0  0  0  0  0  0  0  0  0  0  0
   59.5793   26.1971   47.9530 H   0  0  0  0  0  0  0  0  0  0  0  0
   56.0644   24.8508   42.8456 H   0  0  0  0  0  0  0  0  0  0  0  0
   55.7242   22.4133   42.4515 H   0  0  0  0  0  0  0  0  0  0  0  0
   57.0790   20.7398   43.7078 H   0  0  0  0  0  0  0  0  0  0  0  0
   58.7907   21.5011   45.3490 H   0  0  0  0  0  0  0  0  0  0  0  0
   59.8090   24.8990   45.9700 H   0  0  0  0  0  0  0  0  0  0  0  0
   57.3375   32.7674   47.5607 H   0  0  0  0  0  0  0  0  0  0  0  0
   58.8830   33.0127   49.5024 H   0  0  0  0  0  0  0  0  0  0  0  0
  1  2  1  0
  2  3  2  0
  3  4  1  0
  4  5  2  0
  5  6  1  0
  6  7  2  0
  6  8  2  0
  6  9  1  0
  9 10  1  0
 10 11  2  0
 10 12  1  0
 12 13  2  3
 13 14  1  0
 14 15  2  0
 15 16  1  0
 16 17  2  0
 17 18  1  0
 18 19  2  0
 19 20  1  0
 20 21  1  0
 21 22  2  0
 21 23  2  0
 21 24  1  0
 24 25  2  0
 25 26  1  0
 26 27  2  0
 27 28  1  0
 28 29  2  0
 29 30  1  0
  5 31  1  0
 31 32  2  0
 32  2  1  0
 19 14  1  0
 29 24  1  0
  1 33  1  0
  1 34  1  0
  1 35  1  0
  3 36  1  0
  4 37  1  0
 12 38  1  0
 13 39  1  0
 15 40  1  0
 16 41  1  0
 17 42  1  0
 18 43  1  0
 25 44  1  0
 26 45  1  0
 27 46  1  0
 28 47  1  0
 30 48  1  0
 31 49  1  0
 32 50  1  0
M  CHG  1   9  -1
M  END
>  <UniqueID>  (91) 
84

>  <SMILES>  (91) 
Cc1ccc(S(=O)(=O)[N-]C(=O)C=Cc2ccccc2OS(=O)(=O)c2ccccc2O)cc1

>  <Energy>  (91) 
71.53821074334492

>  <Genealogy>  (91) 
Cc1ccc(S(=O)(=O)[N-]C(=O)C=Cc2ccccc2OS(=O)(=O)c2ccccc2O)cc1 (protonated)
Cc1ccc(S(=O)(=O)[N-]C(=O)C=Cc2ccccc2OS(=O)(=O)c2ccccc2O)cc1 (3D coordinates assigned)
Cc1ccc(S(=O)(=O)[N-]C(=O)C=Cc2ccccc2OS(=O)(=O)c2ccccc2O)cc1 (optimized conformer: 71.53821074334492 kcal/mol)

>  <smiles>  (91) 
Cc1ccc(S(=O)(=O)NC(=O)C=Cc2ccccc2OS(=O)(=O)c2ccccc2O)cc1

>  <score_type>  (91) 
oracle

>  <origin>  (91) 
adg

>  <m_score__min__energy>  (91) 
-11.67

>  <m_primary>  (91) 
energy

$$$$
91:0
     RDKit          3D

 42 44  0  0  0  0  0  0  0  0999 V2000
   63.0080   32.8870   47.8220 C   0  0  0  0  0  0  0  0  0  0  0  0
   61.5440   32.9730   47.8730 N   0  0  0  0  0  0  0  0  0  0  0  0
   60.8860   32.6000   49.0100 C   0  0  0  0  0  0  0  0  0  0  0  0
   59.4900   32.6870   49.0980 C   0  0  0  0  0  0  0  0  0  0  0  0
   58.8060   32.2830   50.3530 C   0  0  0  0  0  0  0  0  0  0  0  0
   58.7200   33.1710   51.4400 C   0  0  0  0  0  0  0  0  0  0  0  0
   58.0830   32.7830   52.6210 C   0  0  0  0  0  0  0  0  0  0  0  0
   57.5280   31.5050   52.7320 C   0  0  0  0  0  0  0  0  0  0  0  0
   57.6130   30.6080   51.6590 C   0  0  0  0  0  0  0  0  0  0  0  0
   57.0660   29.3310   51.7570 O   0  0  0  0  0  0  0  0  0  0  0  0
   58.2520   30.9960   50.4750 C   0  0  0  0  0  0  0  0  0  0  0  0
   58.7700   33.1570   47.9860 C   0  0  0  0  0  0  0  0  0  0  0  0
   57.5090   33.2100   48.0270 O   0  0  0  0  0  0  0  0  0  0  0  0
   59.4520   33.5480   46.8190 C   0  0  0  0  0  0  0  0  0  0  0  0
   58.6940   34.1080   45.6340 C   0  0  0  0  0  0  0  0  0  0  0  0
   58.2000   32.9950   44.7470 C   0  0  0  0  0  0  0  0  0  0  0  0
   58.3750   33.0660   43.3570 C   0  0  0  0  0  0  0  0  0  0  0  0
   57.9490   32.0180   42.5400 C   0  0  0  0  0  0  0  0  0  0  0  0
   57.3480   30.8880   43.1000 C   0  0  0  0  0  0  0  0  0  0  0  0
   57.1680   30.7930   44.4910 C   0  0  0  0  0  0  0  0  0  0  0  0
   56.5370   29.5920   45.0860 C   0  0  0  0  0  0  0  0  0  0  0  0
   55.1560   29.3130   44.8660 N   0  0  0  0  0  0  0  0  0  0  0  0
   57.2170   28.8000   45.7940 O   0  0  0  0  0  0  0  0  0  0  0  0
   57.6010   31.8540   45.3080 C   0  0  0  0  0  0  0  0  0  0  0  0
   60.8570   33.4520   46.7900 C   0  0  0  0  0  0  0  0  0  0  0  0
   61.5540   33.8460   45.6500 O   0  0  0  0  0  0  0  0  0  0  0  0
   63.4098   32.8634   48.8457 H   0  0  0  0  0  0  0  0  0  0  0  0
   63.3032   31.9700   47.2910 H   0  0  0  0  0  0  0  0  0  0  0  0
   63.4085   33.7632   47.2910 H   0  0  0  0  0  0  0  0  0  0  0  0
   61.4605   32.2255   49.8700 H   0  0  0  0  0  0  0  0  0  0  0  0
   59.1570   34.1773   51.3597 H   0  0  0  0  0  0  0  0  0  0  0  0
   58.0180   33.4848   53.4656 H   0  0  0  0  0  0  0  0  0  0  0  0
   57.0243   31.2033   53.6622 H   0  0  0  0  0  0  0  0  0  0  0  0
   57.0510   28.8270   52.6370 H   0  0  0  0  0  0  0  0  0  0  0  0
   58.3212   30.2895   49.6347 H   0  0  0  0  0  0  0  0  0  0  0  0
   57.8339   34.6898   45.9971 H   0  0  0  0  0  0  0  0  0  0  0  0
   59.3703   34.7517   45.0523 H   0  0  0  0  0  0  0  0  0  0  0  0
   58.8500   33.9514   42.9092 H   0  0  0  0  0  0  0  0  0  0  0  0
   58.0870   32.0819   41.4506 H   0  0  0  0  0  0  0  0  0  0  0  0
   57.0135   30.0674   42.4484 H   0  0  0  0  0  0  0  0  0  0  0  0
   54.4650   29.3650   45.6470 H   0  0  0  0  0  0  0  0  0  0  0  0
   57.4691   31.7895   46.3982 H   0  0  0  0  0  0  0  0  0  0  0  0
  1  2  1  0
  2  3  1  0
  3  4  2  0
  4  5  1  0
  5  6  2  0
  6  7  1  0
  7  8  2  0
  8  9  1  0
  9 10  1  0
  9 11  2  0
  4 12  1  0
 12 13  2  0
 12 14  1  0
 14 15  1  0
 15 16  1  0
 16 17  2  0
 17 18  1  0
 18 19  2  0
 19 20  1  0
 20 21  1  0
 21 22  1  0
 21 23  2  0
 20 24  2  0
 14 25  2  0
 25 26  1  0
 25  2  1  0
 11  5  1  0
 24 16  1  0
  1 27  1  0
  1 28  1  0
  1 29  1  0
  3 30  1  0
  6 31  1  0
  7 32  1  0
  8 33  1  0
 10 34  1  0
 11 35  1  0
 15 36  1  0
 15 37  1  0
 17 38  1  0
 18 39  1  0
 19 40  1  0
 22 41  1  0
 24 42  1  0
M  CHG  2  22  -1  26  -1
M  END
>  <UniqueID>  (92) 
85

>  <SMILES>  (92) 
Cn1cc(-c2cccc(O)c2)c(=O)c(Cc2cccc(C([NH-])=O)c2)c1[O-]

>  <Energy>  (92) 
53.53741356754295

>  <Genealogy>  (92) 
Cn1cc(-c2cccc(O)c2)c(=O)c(Cc2cccc(C([NH-])=O)c2)c1[O-] (protonated)
Cn1cc(-c2cccc(O)c2)c(=O)c(Cc2cccc(C([NH-])=O)c2)c1[O-] (3D coordinates assigned)
Cn1cc(-c2cccc(O)c2)c(=O)c(Cc2cccc(C([NH-])=O)c2)c1[O-] (optimized conformer: 53.53741356754295 kcal/mol)

>  <smiles>  (92) 
Cn1cc(-c2cccc(O)c2)c(=O)c(Cc2cccc(C(N)=O)c2)c1O

>  <score_type>  (92) 
oracle

>  <origin>  (92) 
adg

>  <m_score__min__energy>  (92) 
-12.529999999999999

>  <m_primary>  (92) 
energy

$$$$
92:0
     RDKit          3D

 41 43  0  0  0  0  0  0  0  0999 V2000
   64.1870   33.3260   49.9120 C   0  0  0  0  0  0  0  0  0  0  0  0
   63.1800   33.4760   48.8120 C   0  0  0  0  0  0  0  0  0  0  0  0
   63.5790   33.4730   47.4720 C   0  0  0  0  0  0  0  0  0  0  0  0
   62.6400   33.6580   46.4570 C   0  0  0  0  0  0  0  0  0  0  0  0
   61.2830   33.8480   46.7910 C   0  0  0  0  0  0  0  0  0  0  0  0
   60.3570   34.0420   45.8900 N   0  0  0  0  0  0  0  0  0  0  0  0
   58.9450   33.7920   45.9890 C   0  0  0  0  0  0  0  0  0  0  0  0
   58.4320   33.3890   47.0680 O   0  0  0  0  0  0  0  0  0  0  0  0
   58.0630   34.1010   44.8200 C   0  0  0  0  0  0  0  0  0  0  0  0
   57.6760   32.8260   44.1200 C   0  0  0  0  0  0  0  0  0  0  0  0
   57.8210   32.7120   42.7280 C   0  0  0  0  0  0  0  0  0  0  0  0
   57.3870   31.5610   42.0680 C   0  0  0  0  0  0  0  0  0  0  0  0
   56.8050   30.5160   42.7910 C   0  0  0  0  0  0  0  0  0  0  0  0
   56.6680   30.6040   44.1810 C   0  0  0  0  0  0  0  0  0  0  0  0
   56.0380   29.5200   44.8780 N   0  0  0  0  0  0  0  0  0  0  0  0
   56.6970   28.4430   45.5600 C   0  0  0  0  0  0  0  0  0  0  0  0
   56.1240   27.3300   45.7090 O   0  0  0  0  0  0  0  0  0  0  0  0
   58.0310   28.6540   46.1350 C   0  0  0  0  0  0  0  0  0  0  0  0
   59.1180   27.7930   46.0180 C   0  0  0  0  0  0  0  0  0  0  0  0
   60.2640   28.2570   46.6730 C   0  0  0  0  0  0  0  0  0  0  0  0
   60.0750   29.4790   47.3000 C   0  0  0  0  0  0  0  0  0  0  0  0
   61.2870   30.3630   48.2030 Cl  0  0  0  0  0  0  0  0  0  0  0  0
   58.4950   29.9910   47.0480 S   0  0  0  0  0  0  0  0  0  0  0  0
   57.0860   31.7750   44.8420 C   0  0  0  0  0  0  0  0  0  0  0  0
   60.9250   33.8800   48.1090 N   0  0  0  0  0  0  0  0  0  0  0  0
   61.8300   33.7000   49.1100 C   0  0  0  0  0  0  0  0  0  0  0  0
   63.6805   33.4014   50.8855 H   0  0  0  0  0  0  0  0  0  0  0  0
   64.6774   32.3449   49.8289 H   0  0  0  0  0  0  0  0  0  0  0  0
   64.9421   34.1216   49.8289 H   0  0  0  0  0  0  0  0  0  0  0  0
   64.6386   33.3240   47.2168 H   0  0  0  0  0  0  0  0  0  0  0  0
   62.9558   33.6557   45.4033 H   0  0  0  0  0  0  0  0  0  0  0  0
   57.1558   34.6134   45.1728 H   0  0  0  0  0  0  0  0  0  0  0  0
   58.6066   34.7497   44.1173 H   0  0  0  0  0  0  0  0  0  0  0  0
   58.2782   33.5326   42.1556 H   0  0  0  0  0  0  0  0  0  0  0  0
   57.5032   31.4764   40.9774 H   0  0  0  0  0  0  0  0  0  0  0  0
   56.4520   29.6176   42.2635 H   0  0  0  0  0  0  0  0  0  0  0  0
   59.0800   26.8425   45.4657 H   0  0  0  0  0  0  0  0  0  0  0  0
   61.2173   27.7084   46.6889 H   0  0  0  0  0  0  0  0  0  0  0  0
   56.9498   31.8674   45.9296 H   0  0  0  0  0  0  0  0  0  0  0  0
   59.9250   34.0420   48.3680 H   0  0  0  0  0  0  0  0  0  0  0  0
   61.4991   33.7307   50.1586 H   0  0  0  0  0  0  0  0  0  0  0  0
  1  2  1  0
  2  3  1  0
  3  4  2  0
  4  5  1  0
  5  6  2  3
  6  7  1  0
  7  8  2  0
  7  9  1  0
  9 10  1  0
 10 11  2  0
 11 12  1  0
 12 13  2  0
 13 14  1  0
 14 15  1  0
 15 16  1  0
 16 17  2  0
 16 18  1  0
 18 19  2  0
 19 20  1  0
 20 21  2  0
 21 22  1  0
 21 23  1  0
 14 24  2  0
  5 25  1  0
 25 26  1  0
 26  2  2  0
 24 10  1  0
 23 18  1  0
  1 27  1  0
  1 28  1  0
  1 29  1  0
  3 30  1  0
  4 31  1  0
  9 32  1  0
  9 33  1  0
 11 34  1  0
 12 35  1  0
 13 36  1  0
 19 37  1  0
 20 38  1  0
 24 39  1  0
 25 40  1  0
 26 41  1  0
M  CHG  1  15  -1
M  END
>  <UniqueID>  (93) 
86

>  <SMILES>  (93) 
Cc1ccc(=NC(=O)Cc2cccc([N-]C(=O)c3ccc(Cl)s3)c2)[nH]c1

>  <Energy>  (93) 
77.33408054476578

>  <Genealogy>  (93) 
Cc1ccc(=NC(=O)Cc2cccc([N-]C(=O)c3ccc(Cl)s3)c2)[nH]c1 (protonated)
Cc1ccc(=NC(=O)Cc2cccc([N-]C(=O)c3ccc(Cl)s3)c2)[nH]c1 (3D coordinates assigned)
Cc1ccc(=NC(=O)Cc2cccc([N-]C(=O)c3ccc(Cl)s3)c2)[nH]c1 (optimized conformer: 77.33408054476578 kcal/mol)

>  <smiles>  (93) 
Cc1ccc(=NC(=O)Cc2cccc(NC(=O)c3ccc(Cl)s3)c2)[nH]c1

>  <score_type>  (93) 
oracle

>  <origin>  (93) 
adg

>  <m_score__min__energy>  (93) 
-10.789999999999999

>  <m_primary>  (93) 
energy

$$$$
93:0
     RDKit          3D

 36 39  0  0  0  0  0  0  0  0999 V2000
   56.5094   25.0196   46.9932 H   0  0  0  0  0  0  0  0  0  0  0  0
   57.1400   25.7640   46.4850 C   0  0  0  0  0  0  0  0  0  0  0  0
   58.4940   25.5030   46.2750 C   0  0  0  0  0  0  0  0  0  0  0  0
   58.9276   24.5490   46.6093 H   0  0  0  0  0  0  0  0  0  0  0  0
   59.3000   26.4510   45.6410 C   0  0  0  0  0  0  0  0  0  0  0  0
   60.3687   26.2426   45.4844 H   0  0  0  0  0  0  0  0  0  0  0  0
   58.7550   27.6690   45.2020 C   0  0  0  0  0  0  0  0  0  0  0  0
   59.6340   28.6830   44.5220 C   0  0  0  0  0  0  0  0  0  0  0  0
   60.1553   29.2844   45.2814 H   0  0  0  0  0  0  0  0  0  0  0  0
   60.3734   28.1647   43.8937 H   0  0  0  0  0  0  0  0  0  0  0  0
   59.0161   29.3413   43.8937 H   0  0  0  0  0  0  0  0  0  0  0  0
   57.3780   27.9220   45.3820 C   0  0  0  0  0  0  0  0  0  0  0  0
   56.8310   29.1830   44.9560 N   0  0  0  0  0  0  0  0  0  0  0  0
   57.3590   30.3600   45.1320 C   0  0  0  0  0  0  0  0  0  0  0  0
   57.7460   30.7950   46.3680 N   0  0  0  0  0  0  0  0  0  0  0  0
   58.2780   32.0430   46.5480 C   0  0  0  0  0  0  0  0  0  0  0  0
   58.6750   32.4630   47.8230 C   0  0  0  0  0  0  0  0  0  0  0  0
   58.5600   31.7891   48.6848 H   0  0  0  0  0  0  0  0  0  0  0  0
   59.2180   33.7400   48.0010 C   0  0  0  0  0  0  0  0  0  0  0  0
   59.5286   34.0676   49.0041 H   0  0  0  0  0  0  0  0  0  0  0  0
   59.3680   34.6030   46.9090 C   0  0  0  0  0  0  0  0  0  0  0  0
   59.7971   35.6048   47.0582 H   0  0  0  0  0  0  0  0  0  0  0  0
   58.9750   34.1980   45.6290 C   0  0  0  0  0  0  0  0  0  0  0  0
   59.0933   34.8780   44.7725 H   0  0  0  0  0  0  0  0  0  0  0  0
   58.4290   32.9190   45.4450 C   0  0  0  0  0  0  0  0  0  0  0  0
   58.0110   32.4390   44.2040 C   0  0  0  0  0  0  0  0  0  0  0  0
   58.0540   33.0840   43.0220 N   0  0  0  0  0  0  0  0  0  0  0  0
   57.5180   32.1500   42.1920 C   0  0  0  0  0  0  0  0  0  0  0  0
   57.3870   32.3460   40.7200 C   0  0  0  0  0  0  0  0  0  0  0  0
   56.7857   33.2456   40.5220 H   0  0  0  0  0  0  0  0  0  0  0  0
   58.3860   32.4676   40.2759 H   0  0  0  0  0  0  0  0  0  0  0  0
   56.8926   31.4694   40.2759 H   0  0  0  0  0  0  0  0  0  0  0  0
   57.1850   30.9980   42.8210 N   0  0  0  0  0  0  0  0  0  0  0  0
   57.4990   31.2110   44.0840 N   0  0  0  0  0  0  0  0  0  0  0  0
   56.5840   26.9690   46.0510 C   0  0  0  0  0  0  0  0  0  0  0  0
   55.5190   27.1759   46.2325 H   0  0  0  0  0  0  0  0  0  0  0  0
  1  2  1  0
  2  3  2  0
  3  4  1  0
  3  5  1  0
  5  6  1  0
  5  7  2  0
  7  8  1  0
  8  9  1  0
  8 10  1  0
  8 11  1  0
  7 12  1  0
 12 13  1  0
 13 14  2  0
 14 15  1  0
 15 16  1  0
 16 17  2  0
 17 18  1  0
 17 19  1  0
 19 20  1  0
 19 21  2  0
 21 22  1  0
 21 23  1  0
 23 24  1  0
 23 25  2  0
 25 26  1  0
 26 27  2  0
 27 28  1  0
 28 29  1  0
 29 30  1  0
 29 31  1  0
 29 32  1  0
 28 33  2  0
 33 34  1  0
 12 35  2  0
 35 36  1  0
 35  2  1  0
 34 14  1  0
 25 16  1  0
 34 26  1  0
M  CHG  1  15  -1
M  END
>  <UniqueID>  (94) 
87

>  <SMILES>  (94) 
Cc1nc2c3ccccc3[n-]/c(=N\c3ccccc3C)n2n1

>  <Energy>  (94) 
87.20942107663173

>  <Genealogy>  (94) 
Cc1nc2c3ccccc3[n-]c(=Nc3ccccc3C)n2n1 (protonated)
Cc1nc2c3ccccc3[n-]/c(=N\c3ccccc3C)n2n1 (cis-trans isomerization)
Cc1nc2c3ccccc3[n-]/c(=N\c3ccccc3C)n2n1 (3D coordinates assigned)
Cc1nc2c3ccccc3[n-]/c(=N\c3ccccc3C)n2n1 (optimized conformer: 87.20942107663173 kcal/mol)

>  <smiles>  (94) 
Cc1nc2c3ccccc3[nH]c(=Nc3ccccc3C)n2n1

>  <score_type>  (94) 
oracle

>  <origin>  (94) 
adg

>  <m_score__min__energy>  (94) 
-9.1300000000000008

>  <m_primary>  (94) 
energy

$$$$
94:0
     RDKit          3D

 35 37  0  0  0  0  0  0  0  0999 V2000
   59.5500   29.9980   46.1830 C   0  0  0  0  0  0  0  0  0  0  0  0
   58.2780   30.4160   45.5880 N   0  0  0  0  0  0  0  0  0  0  0  0
   57.7730   31.6630   45.4530 C   0  0  0  0  0  0  0  0  0  0  0  0
   58.4420   32.9170   45.8660 C   0  0  0  0  0  0  0  0  0  0  0  0
   59.0000   33.7620   44.8910 C   0  0  0  0  0  0  0  0  0  0  0  0
   59.6050   34.9650   45.2590 C   0  0  0  0  0  0  0  0  0  0  0  0
   59.6460   35.3450   46.6000 C   0  0  0  0  0  0  0  0  0  0  0  0
   59.0850   34.5230   47.5790 C   0  0  0  0  0  0  0  0  0  0  0  0
   58.4720   33.3060   47.2240 C   0  0  0  0  0  0  0  0  0  0  0  0
   57.8990   32.4400   48.2170 N   0  0  0  0  0  0  0  0  0  0  0  0
   58.6890   31.9110   49.6670 S   0  0  0  0  0  0  0  0  0  0  0  0
   58.1280   32.6670   50.8370 O   0  0  0  0  0  0  0  0  0  0  0  0
   58.4280   30.4440   49.8620 O   0  0  0  0  0  0  0  0  0  0  0  0
   60.4170   32.2320   49.5570 C   0  0  0  0  0  0  0  0  0  0  0  0
   61.2370   31.4420   48.7390 C   0  0  0  0  0  0  0  0  0  0  0  0
   62.6080   31.7070   48.6540 C   0  0  0  0  0  0  0  0  0  0  0  0
   63.1650   32.7600   49.3850 C   0  0  0  0  0  0  0  0  0  0  0  0
   64.8850   33.0910   49.2770 Cl  0  0  0  0  0  0  0  0  0  0  0  0
   62.3510   33.5480   50.2070 C   0  0  0  0  0  0  0  0  0  0  0  0
   60.9800   33.2830   50.2940 C   0  0  0  0  0  0  0  0  0  0  0  0
   56.5580   31.6340   44.8650 N   0  0  0  0  0  0  0  0  0  0  0  0
   56.2790   30.3660   44.6020 N   0  0  0  0  0  0  0  0  0  0  0  0
   57.3240   29.6400   45.0370 C   0  0  0  0  0  0  0  0  0  0  0  0
   57.4010   28.0100   44.8980 S   0  0  0  0  0  0  0  0  0  0  0  0
   59.4682   30.0249   47.2796 H   0  0  0  0  0  0  0  0  0  0  0  0
   59.7880   28.9744   45.8580 H   0  0  0  0  0  0  0  0  0  0  0  0
   60.3488   30.6809   45.8580 H   0  0  0  0  0  0  0  0  0  0  0  0
   58.9596   33.4732   43.8304 H   0  0  0  0  0  0  0  0  0  0  0  0
   60.0499   35.6139   44.4902 H   0  0  0  0  0  0  0  0  0  0  0  0
   60.1214   36.2945   46.8871 H   0  0  0  0  0  0  0  0  0  0  0  0
   59.1221   34.8281   48.6352 H   0  0  0  0  0  0  0  0  0  0  0  0
   60.8015   30.6122   48.1629 H   0  0  0  0  0  0  0  0  0  0  0  0
   63.2486   31.0857   48.0109 H   0  0  0  0  0  0  0  0  0  0  0  0
   62.7891   34.3754   50.7844 H   0  0  0  0  0  0  0  0  0  0  0  0
   60.3420   33.9012   50.9427 H   0  0  0  0  0  0  0  0  0  0  0  0
  1  2  1  0
  2  3  1  0
  3  4  1  0
  4  5  2  0
  5  6  1  0
  6  7  2  0
  7  8  1  0
  8  9  2  0
  9 10  1  0
 10 11  1  0
 11 12  2  0
 11 13  2  0
 11 14  1  0
 14 15  2  0
 15 16  1  0
 16 17  2  0
 17 18  1  0
 17 19  1  0
 19 20  2  0
  3 21  2  0
 21 22  1  0
 22 23  1  0
 23 24  2  0
 23  2  1  0
  9  4  1  0
 20 14  1  0
  1 25  1  0
  1 26  1  0
  1 27  1  0
  5 28  1  0
  6 29  1  0
  7 30  1  0
  8 31  1  0
 15 32  1  0
 16 33  1  0
 19 34  1  0
 20 35  1  0
M  CHG  2  10  -1  22  -1
M  END
>  <UniqueID>  (95) 
88

>  <SMILES>  (95) 
Cn1c(-c2ccccc2[N-]S(=O)(=O)c2ccc(Cl)cc2)n[n-]c1=S

>  <Energy>  (95) 
81.96206103629791

>  <Genealogy>  (95) 
Cn1c(-c2ccccc2[N-]S(=O)(=O)c2ccc(Cl)cc2)n[n-]c1=S (protonated)
Cn1c(-c2ccccc2[N-]S(=O)(=O)c2ccc(Cl)cc2)n[n-]c1=S (3D coordinates assigned)
Cn1c(-c2ccccc2[N-]S(=O)(=O)c2ccc(Cl)cc2)n[n-]c1=S (optimized conformer: 81.96206103629791 kcal/mol)

>  <smiles>  (95) 
Cn1c(-c2ccccc2NS(=O)(=O)c2ccc(Cl)cc2)n[nH]c1=S

>  <score_type>  (95) 
oracle

>  <origin>  (95) 
adg

>  <m_score__min__energy>  (95) 
-12.779999999999999

>  <m_primary>  (95) 
energy

$$$$
