0:0
     RDKit          3D

 41 43  0  0  0  0  0  0  0  0999 V2000
   56.3890   27.6001   45.3477 H   0  0  0  0  0  0  0  0  0  0  0  0
   57.0080   28.4840   45.1340 C   0  0  0  0  0  0  0  0  0  0  0  0
   56.4480   29.7210   45.1250 N   0  0  0  0  0  0  0  0  0  0  0  0
   57.1930   30.8310   44.8630 C   0  0  0  0  0  0  0  0  0  0  0  0
   56.6490   32.0110   44.8620 N   0  0  0  0  0  0  0  0  0  0  0  0
   57.5550   33.4910   44.8190 S   0  0  0  0  0  0  0  0  0  0  0  0
   58.4930   33.4630   43.6460 O   0  0  0  0  0  0  0  0  0  0  0  0
   56.6120   34.6490   44.6540 O   0  0  0  0  0  0  0  0  0  0  0  0
   58.4960   33.6530   46.3000 C   0  0  0  0  0  0  0  0  0  0  0  0
   59.6200   34.4870   46.3180 C   0  0  0  0  0  0  0  0  0  0  0  0
   59.8916   35.0602   45.4193 H   0  0  0  0  0  0  0  0  0  0  0  0
   60.3980   34.5940   47.4730 C   0  0  0  0  0  0  0  0  0  0  0  0
   61.2703   35.2641   47.4840 H   0  0  0  0  0  0  0  0  0  0  0  0
   60.0750   33.8540   48.6170 C   0  0  0  0  0  0  0  0  0  0  0  0
   60.8940   33.9780   49.7470 O   0  0  0  0  0  0  0  0  0  0  0  0
   62.2610   33.6590   49.7780 C   0  0  0  0  0  0  0  0  0  0  0  0
   63.0420   34.1560   50.8260 C   0  0  0  0  0  0  0  0  0  0  0  0
   62.5785   34.7805   51.6039 H   0  0  0  0  0  0  0  0  0  0  0  0
   64.4070   33.8650   50.8920 C   0  0  0  0  0  0  0  0  0  0  0  0
   65.0078   34.2566   51.7260 H   0  0  0  0  0  0  0  0  0  0  0  0
   65.0170   33.0800   49.9070 C   0  0  0  0  0  0  0  0  0  0  0  0
   66.3920   32.8180   50.0250 O   0  0  0  0  0  0  0  0  0  0  0  0
   66.9840   31.9500   50.9880 C   0  0  0  0  0  0  0  0  0  0  0  0
   68.2500   32.4110   51.2880 F   0  0  0  0  0  0  0  0  0  0  0  0
   67.0860   30.6690   50.4770 F   0  0  0  0  0  0  0  0  0  0  0  0
   66.2280   31.9360   52.1470 F   0  0  0  0  0  0  0  0  0  0  0  0
   64.2370   32.5900   48.8430 C   0  0  0  0  0  0  0  0  0  0  0  0
   64.7043   31.9753   48.0595 H   0  0  0  0  0  0  0  0  0  0  0  0
   62.8700   32.8810   48.7770 C   0  0  0  0  0  0  0  0  0  0  0  0
   62.2689   32.4996   47.9384 H   0  0  0  0  0  0  0  0  0  0  0  0
   58.9270   33.0330   48.6110 C   0  0  0  0  0  0  0  0  0  0  0  0
   58.5110   32.3240   49.7970 C   0  0  0  0  0  0  0  0  0  0  0  0
   58.1770   31.7560   50.7480 N   0  0  0  0  0  0  0  0  0  0  0  0
   58.1480   32.9320   47.4500 C   0  0  0  0  0  0  0  0  0  0  0  0
   57.2594   32.2837   47.4417 H   0  0  0  0  0  0  0  0  0  0  0  0
   58.5250   30.7020   44.6020 N   0  0  0  0  0  0  0  0  0  0  0  0
   59.1030   31.5490   44.4000 H   0  0  0  0  0  0  0  0  0  0  0  0
   59.1200   29.4790   44.6020 C   0  0  0  0  0  0  0  0  0  0  0  0
   60.1955   29.3911   44.3887 H   0  0  0  0  0  0  0  0  0  0  0  0
   58.3680   28.3370   44.8720 C   0  0  0  0  0  0  0  0  0  0  0  0
   58.8378   27.3424   44.8780 H   0  0  0  0  0  0  0  0  0  0  0  0
  1  2  1  0
  2  3  2  0
  3  4  1  0
  4  5  2  0
  5  6  1  0
  6  7  2  0
  6  8  2  0
  6  9  1  0
  9 10  2  0
 10 11  1  0
 10 12  1  0
 12 13  1  0
 12 14  2  0
 14 15  1  0
 15 16  1  0
 16 17  2  0
 17 18  1  0
 17 19  1  0
 19 20  1  0
 19 21  2  0
 21 22  1  0
 22 23  1  0
 23 24  1  0
 23 25  1  0
 23 26  1  0
 21 27  1  0
 27 28  1  0
 27 29  2  0
 29 30  1  0
 14 31  1  0
 31 32  1  0
 32 33  3  0
 31 34  2  0
 34 35  1  0
  4 36  1  0
 36 37  1  0
 36 38  1  0
 38 39  1  0
 38 40  2  0
 40 41  1  0
 40  2  1  0
 34  9  1  0
 29 16  1  0
M  END
>  <UniqueID>  (1) 
1

>  <SMILES>  (1) 
N#Cc1cc(S(=O)(=O)/N=c2\nccc[nH]2)ccc1Oc1ccc(OC(F)(F)F)cc1

>  <Energy>  (1) 
55.01595054689177

>  <Genealogy>  (1) 
N#Cc1cc(S(=O)(=O)/N=c2\nccc[nH]2)ccc1Oc1ccc(OC(F)(F)F)cc1 (cis-trans isomerization)
N#Cc1cc(S(=O)(=O)/N=c2\nccc[nH]2)ccc1Oc1ccc(OC(F)(F)F)cc1 (3D coordinates assigned)
N#Cc1cc(S(=O)(=O)/N=c2\nccc[nH]2)ccc1Oc1ccc(OC(F)(F)F)cc1 (optimized conformer: 55.01595054689177 kcal/mol)

>  <smiles>  (1) 
N#Cc1cc(S(=O)(=O)N=c2nccc[nH]2)ccc1Oc1ccc(OC(F)(F)F)cc1

>  <score_type>  (1) 
oracle

>  <origin>  (1) 
adg

>  <m_score__min__energy>  (1) 
-8.0800000000000001

>  <m_primary>  (1) 
energy

$$$$
1:0
     RDKit          3D

 66 68  0  0  0  0  0  0  0  0999 V2000
   52.2190   24.0100   45.1550 C   0  0  0  0  0  0  0  0  0  0  0  0
   53.7100   24.1060   45.0790 C   0  0  0  0  0  0  0  0  0  0  0  0
   54.4240   23.3500   44.1450 C   0  0  0  0  0  0  0  0  0  0  0  0
   55.8180   23.4650   44.1140 C   0  0  0  0  0  0  0  0  0  0  0  0
   56.6240   22.7150   43.1020 C   0  0  0  0  0  0  0  0  0  0  0  0
   56.4390   24.3160   44.9760 N   0  0  0  0  0  0  0  0  0  0  0  0
   55.7370   25.0310   45.8920 C   0  0  0  0  0  0  0  0  0  0  0  0
   56.3740   25.8350   46.6930 N   0  0  0  0  0  0  0  0  0  0  0  0
   57.5280   26.6290   46.3700 C   0  0  0  0  0  0  0  0  0  0  0  0
   58.8000   26.0520   46.2030 C   0  0  0  0  0  0  0  0  0  0  0  0
   59.8880   26.8450   45.8390 C   0  0  0  0  0  0  0  0  0  0  0  0
   59.7200   28.2150   45.6250 C   0  0  0  0  0  0  0  0  0  0  0  0
   58.4510   28.8060   45.7610 C   0  0  0  0  0  0  0  0  0  0  0  0
   58.2680   30.2610   45.5290 C   0  0  0  0  0  0  0  0  0  0  0  0
   57.8190   30.7320   44.2860 C   0  0  0  0  0  0  0  0  0  0  0  0
   57.6010   32.0960   44.0840 C   0  0  0  0  0  0  0  0  0  0  0  0
   57.8350   33.0170   45.1170 C   0  0  0  0  0  0  0  0  0  0  0  0
   57.5840   34.4820   44.8860 C   0  0  0  0  0  0  0  0  0  0  0  0
   58.3220   32.5610   46.3580 C   0  0  0  0  0  0  0  0  0  0  0  0
   58.5380   33.5050   47.4200 N   0  0  0  0  0  0  0  0  0  0  0  0
   59.7500   33.6770   48.1640 C   0  0  0  0  0  0  0  0  0  0  0  0
   60.8650   33.6370   47.5790 O   0  0  0  0  0  0  0  0  0  0  0  0
   59.6700   34.0180   49.6220 C   0  0  0  0  0  0  0  0  0  0  0  0
   58.9690   32.9330   50.4560 C   0  0  0  0  0  0  0  0  0  0  0  0
   59.3540   31.5990   49.9960 N   0  0  0  0  0  0  0  0  0  0  0  0
   58.5600   30.4260   50.1990 C   0  0  0  0  0  0  0  0  0  0  0  0
   57.5120   30.4800   50.8970 O   0  0  0  0  0  0  0  0  0  0  0  0
   58.9760   29.2230   49.6070 O   0  0  0  0  0  0  0  0  0  0  0  0
   60.3320   28.8220   49.3530 C   0  0  0  0  0  0  0  0  0  0  0  0
   60.4040   27.3240   48.9920 C   0  0  0  0  0  0  0  0  0  0  0  0
   60.9440   29.6840   48.2300 C   0  0  0  0  0  0  0  0  0  0  0  0
   61.1240   29.0590   50.6500 C   0  0  0  0  0  0  0  0  0  0  0  0
   58.5190   31.1840   46.5610 C   0  0  0  0  0  0  0  0  0  0  0  0
   57.3580   27.9980   46.1240 C   0  0  0  0  0  0  0  0  0  0  0  0
   54.3800   24.9240   45.9320 N   0  0  0  0  0  0  0  0  0  0  0  0
   51.9061   23.9899   46.2094 H   0  0  0  0  0  0  0  0  0  0  0  0
   51.7696   24.8811   44.6558 H   0  0  0  0  0  0  0  0  0  0  0  0
   51.8850   23.0885   44.6558 H   0  0  0  0  0  0  0  0  0  0  0  0
   53.9006   22.6784   43.4486 H   0  0  0  0  0  0  0  0  0  0  0  0
   57.3354   22.0530   43.6174 H   0  0  0  0  0  0  0  0  0  0  0  0
   55.9529   22.1126   42.4721 H   0  0  0  0  0  0  0  0  0  0  0  0
   57.1766   23.4277   42.4721 H   0  0  0  0  0  0  0  0  0  0  0  0
   58.9370   24.9719   46.3600 H   0  0  0  0  0  0  0  0  0  0  0  0
   60.8823   26.3898   45.7200 H   0  0  0  0  0  0  0  0  0  0  0  0
   60.5853   28.8354   45.3485 H   0  0  0  0  0  0  0  0  0  0  0  0
   57.6376   30.0221   43.4656 H   0  0  0  0  0  0  0  0  0  0  0  0
   57.2427   32.4521   43.1068 H   0  0  0  0  0  0  0  0  0  0  0  0
   57.4959   34.9961   45.8545 H   0  0  0  0  0  0  0  0  0  0  0  0
   58.4215   34.9123   44.3173 H   0  0  0  0  0  0  0  0  0  0  0  0
   56.6510   34.6090   44.3173 H   0  0  0  0  0  0  0  0  0  0  0  0
   60.6917   34.1507   50.0074 H   0  0  0  0  0  0  0  0  0  0  0  0
   59.0740   34.9381   49.7121 H   0  0  0  0  0  0  0  0  0  0  0  0
   59.2554   33.0476   51.5119 H   0  0  0  0  0  0  0  0  0  0  0  0
   57.8809   33.0465   50.3416 H   0  0  0  0  0  0  0  0  0  0  0  0
   60.2330   31.5100   49.4320 H   0  0  0  0  0  0  0  0  0  0  0  0
   60.4328   26.7255   49.9145 H   0  0  0  0  0  0  0  0  0  0  0  0
   59.5182   27.0460   48.4020 H   0  0  0  0  0  0  0  0  0  0  0  0
   61.3124   27.1323   48.4020 H   0  0  0  0  0  0  0  0  0  0  0  0
   61.5267   30.5047   48.6739 H   0  0  0  0  0  0  0  0  0  0  0  0
   61.6033   29.0611   47.6076 H   0  0  0  0  0  0  0  0  0  0  0  0
   60.1386   30.1010   47.6076 H   0  0  0  0  0  0  0  0  0  0  0  0
   60.4750   28.8648   51.5166 H   0  0  0  0  0  0  0  0  0  0  0  0
   61.9892   28.3804   50.6805 H   0  0  0  0  0  0  0  0  0  0  0  0
   61.4742   30.1013   50.6805 H   0  0  0  0  0  0  0  0  0  0  0  0
   58.8735   30.8238   47.5380 H   0  0  0  0  0  0  0  0  0  0  0  0
   56.3577   28.4464   46.2158 H   0  0  0  0  0  0  0  0  0  0  0  0
  1  2  1  0
  2  3  1  0
  3  4  2  0
  4  5  1  0
  4  6  1  0
  6  7  1  0
  7  8  2  3
  8  9  1  0
  9 10  2  0
 10 11  1  0
 11 12  2  0
 12 13  1  0
 13 14  1  0
 14 15  2  0
 15 16  1  0
 16 17  2  0
 17 18  1  0
 17 19  1  0
 19 20  1  0
 20 21  1  0
 21 22  2  0
 21 23  1  0
 23 24  1  0
 24 25  1  0
 25 26  1  0
 26 27  2  0
 26 28  1  0
 28 29  1  0
 29 30  1  0
 29 31  1  0
 29 32  1  0
 19 33  2  0
 13 34  2  0
  7 35  1  0
 35  2  2  0
 34  9  1  0
 33 14  1  0
  1 36  1  0
  1 37  1  0
  1 38  1  0
  3 39  1  0
  5 40  1  0
  5 41  1  0
  5 42  1  0
 10 43  1  0
 11 44  1  0
 12 45  1  0
 15 46  1  0
 16 47  1  0
 18 48  1  0
 18 49  1  0
 18 50  1  0
 23 51  1  0
 23 52  1  0
 24 53  1  0
 24 54  1  0
 25 55  1  0
 30 56  1  0
 30 57  1  0
 30 58  1  0
 31 59  1  0
 31 60  1  0
 31 61  1  0
 32 62  1  0
 32 63  1  0
 32 64  1  0
 33 65  1  0
 34 66  1  0
M  CHG  2   6  -1  20  -1
M  END
>  <UniqueID>  (2) 
2

>  <SMILES>  (2) 
Cc1cc(C)[n-]c(=Nc2cccc(-c3ccc(C)c([N-]C(=O)CCNC(=O)OC(C)(C)C)c3)c2)n1

>  <Energy>  (2) 
74.18020296776899

>  <Genealogy>  (2) 
Cc1cc(C)[n-]c(=Nc2cccc(-c3ccc(C)c([N-]C(=O)CCNC(=O)OC(C)(C)C)c3)c2)n1 (protonated)
Cc1cc(C)[n-]c(=Nc2cccc(-c3ccc(C)c([N-]C(=O)CCNC(=O)OC(C)(C)C)c3)c2)n1 (3D coordinates assigned)
Cc1cc(C)[n-]c(=Nc2cccc(-c3ccc(C)c([N-]C(=O)CCNC(=O)OC(C)(C)C)c3)c2)n1 (optimized conformer: 74.18020296776899 kcal/mol)

>  <smiles>  (2) 
Cc1cc(C)[nH]c(=Nc2cccc(-c3ccc(C)c(NC(=O)CCNC(=O)OC(C)(C)C)c3)c2)n1

>  <score_type>  (2) 
oracle

>  <origin>  (2) 
adg

>  <m_score__min__energy>  (2) 
-12.35

>  <m_primary>  (2) 
energy

$$$$
2:0
     RDKit          3D

 45 47  0  0  0  0  0  0  0  0999 V2000
   55.1420   29.1900   44.6320 N   0  0  0  0  0  0  0  0  0  0  0  0
   56.5450   29.1690   44.3660 C   0  0  0  0  0  0  0  0  0  0  0  0
   56.9690   29.5600   43.2460 O   0  0  0  0  0  0  0  0  0  0  0  0
   57.5080   28.7580   45.4110 C   0  0  0  0  0  0  0  0  0  0  0  0
   58.5520   29.6390   45.7320 C   0  0  0  0  0  0  0  0  0  0  0  0
   59.4380   29.3450   46.7780 C   0  0  0  0  0  0  0  0  0  0  0  0
   60.4930   30.2380   47.1640 N   0  0  0  0  0  0  0  0  0  0  0  0
   60.5730   30.9760   48.3920 C   0  0  0  0  0  0  0  0  0  0  0  0
   59.6660   30.8540   49.2600 O   0  0  0  0  0  0  0  0  0  0  0  0
   61.6940   31.9220   48.6300 C   0  0  0  0  0  0  0  0  0  0  0  0
   62.7330   31.5330   49.3980 C   0  0  0  0  0  0  0  0  0  0  0  0
   63.9320   32.4010   49.6660 C   0  0  0  0  0  0  0  0  0  0  0  0
   64.1430   33.4350   48.5620 C   0  0  0  0  0  0  0  0  0  0  0  0
   62.8440   34.2010   48.3320 C   0  0  0  0  0  0  0  0  0  0  0  0
   61.7210   33.2500   47.8690 C   0  0  2  0  0  0  0  0  0  0  0  0
   60.3920   33.9700   47.9830 C   0  0  0  0  0  0  0  0  0  0  0  0
   60.1940   34.7200   48.9790 O   0  0  0  0  0  0  0  0  0  0  0  0
   59.3230   33.8310   46.9620 C   0  0  0  0  0  0  0  0  0  0  0  0
   59.2960   34.6940   45.8520 C   0  0  0  0  0  0  0  0  0  0  0  0
   58.2970   34.5710   44.8870 C   0  0  0  0  0  0  0  0  0  0  0  0
   57.3280   33.5780   45.0300 C   0  0  0  0  0  0  0  0  0  0  0  0
   57.3660   32.7400   46.0980 N   0  0  0  0  0  0  0  0  0  0  0  0
   58.3270   32.8400   47.0550 C   0  0  0  0  0  0  0  0  0  0  0  0
   59.2370   28.1790   47.5170 C   0  0  0  0  0  0  0  0  0  0  0  0
   58.2440   27.3180   47.1790 N   0  0  0  0  0  0  0  0  0  0  0  0
   57.3880   27.5510   46.1470 C   0  0  0  0  0  0  0  0  0  0  0  0
   56.4120   26.4900   45.8200 C   0  0  0  0  0  0  0  0  0  0  0  0
   56.7880   25.3520   45.4320 O   0  0  0  0  0  0  0  0  0  0  0  0
   55.0560   26.7250   46.0070 O   0  0  0  0  0  0  0  0  0  0  0  0
   54.4690   29.4700   43.8830 H   0  0  0  0  0  0  0  0  0  0  0  0
   54.7730   28.9700   45.5830 H   0  0  0  0  0  0  0  0  0  0  0  0
   58.6764   30.5689   45.1576 H   0  0  0  0  0  0  0  0  0  0  0  0
   62.7017   30.5310   49.8508 H   0  0  0  0  0  0  0  0  0  0  0  0
   63.7851   32.9256   50.6216 H   0  0  0  0  0  0  0  0  0  0  0  0
   64.8208   31.7539   49.7022 H   0  0  0  0  0  0  0  0  0  0  0  0
   64.9349   34.1368   48.8627 H   0  0  0  0  0  0  0  0  0  0  0  0
   64.4395   32.9261   47.6330 H   0  0  0  0  0  0  0  0  0  0  0  0
   62.5407   34.6866   49.2712 H   0  0  0  0  0  0  0  0  0  0  0  0
   63.0132   34.9542   47.5484 H   0  0  0  0  0  0  0  0  0  0  0  0
   61.9209   32.9811   46.8213 H   0  0  0  0  0  0  0  0  0  0  0  0
   60.0675   35.4707   45.7444 H   0  0  0  0  0  0  0  0  0  0  0  0
   58.2734   35.2500   44.0219 H   0  0  0  0  0  0  0  0  0  0  0  0
   56.5326   33.4736   44.2773 H   0  0  0  0  0  0  0  0  0  0  0  0
   58.3263   32.1431   47.9061 H   0  0  0  0  0  0  0  0  0  0  0  0
   59.8859   27.9566   48.3770 H   0  0  0  0  0  0  0  0  0  0  0  0
  1  2  1  0
  2  3  2  0
  2  4  1  0
  4  5  2  0
  5  6  1  0
  6  7  1  0
  7  8  1  0
  8  9  2  0
  8 10  1  0
 10 11  2  0
 11 12  1  0
 12 13  1  0
 13 14  1  0
 14 15  1  0
 15 16  1  0
 16 17  2  0
 16 18  1  0
 18 19  2  0
 19 20  1  0
 20 21  2  0
 21 22  1  0
 22 23  2  0
  6 24  2  0
 24 25  1  0
 25 26  2  0
 26 27  1  0
 27 28  2  0
 27 29  1  0
 26  4  1  0
 15 10  1  0
 23 18  1  0
  1 30  1  0
  1 31  1  0
  5 32  1  0
 11 33  1  0
 12 34  1  0
 12 35  1  0
 13 36  1  0
 13 37  1  0
 14 38  1  0
 14 39  1  0
 15 40  1  6
 19 41  1  0
 20 42  1  0
 21 43  1  0
 23 44  1  0
 24 45  1  0
M  CHG  2   7  -1  29  -1
M  END
>  <UniqueID>  (3) 
3

>  <SMILES>  (3) 
NC(=O)c1cc([N-]C(=O)C2=CCCC[C@@H]2C(=O)c2cccnc2)cnc1C(=O)[O-]

>  <Energy>  (3) 
62.411623762662984

>  <Genealogy>  (3) 
NC(=O)c1cc([N-]C(=O)C2=CCCCC2C(=O)c2cccnc2)cnc1C(=O)[O-] (protonated)
NC(=O)c1cc([N-]C(=O)C2=CCCC[C@@H]2C(=O)c2cccnc2)cnc1C(=O)[O-] (chirality)
NC(=O)c1cc([N-]C(=O)C2=CCCC[C@@H]2C(=O)c2cccnc2)cnc1C(=O)[O-] (3D coordinates assigned)
NC(=O)c1cc([N-]C(=O)C2=CCCC[C@@H]2C(=O)c2cccnc2)cnc1C(=O)[O-] (nonaromatic ring conformer: 62.411623762662984 kcal/mol)

>  <smiles>  (3) 
NC(=O)c1cc(NC(=O)C2=CCCCC2C(=O)c2cccnc2)cnc1C(=O)O

>  <score_type>  (3) 
oracle

>  <origin>  (3) 
adg

>  <m_score__min__energy>  (3) 
-13.029999999999999

>  <m_primary>  (3) 
energy

$$$$
3:0
     RDKit          3D

 46 47  0  0  0  0  0  0  0  0999 V2000
   63.8790   33.0600   48.3870 C   0  0  0  0  0  0  0  0  0  0  0  0
   62.7370   34.0380   49.4150 S   0  0  0  0  0  0  0  0  0  0  0  0
   61.3680   33.8790   48.2660 C   0  0  0  0  0  0  0  0  0  0  0  0
   61.6140   33.8260   46.8870 C   0  0  0  0  0  0  0  0  0  0  0  0
   60.5490   33.7000   45.9910 C   0  0  0  0  0  0  0  0  0  0  0  0
   59.2300   33.6230   46.4640 C   0  0  0  0  0  0  0  0  0  0  0  0
   57.9110   33.3700   45.3190 S   0  0  0  0  0  0  0  0  0  0  0  0
   57.7050   34.6360   44.5350 O   0  0  0  0  0  0  0  0  0  0  0  0
   56.6380   33.0280   46.0440 O   0  0  0  0  0  0  0  0  0  0  0  0
   58.3250   32.0850   44.2300 N   0  0  0  0  0  0  0  0  0  0  0  0
   58.0430   30.7160   44.5310 C   0  0  0  0  0  0  0  0  0  0  0  0
   57.2030   29.8980   43.8150 C   0  0  0  0  0  0  0  0  0  0  0  0
   56.3770   30.2800   42.6290 C   0  0  0  0  0  0  0  0  0  0  0  0
   57.3770   28.6340   44.2430 N   0  0  0  0  0  0  0  0  0  0  0  0
   58.2910   28.6040   45.2140 N   0  0  0  0  0  0  0  0  0  0  0  0
   58.7200   27.3570   45.9110 C   0  0  0  0  0  0  0  0  0  0  0  0
   58.1200   27.3270   47.3280 C   0  0  0  0  0  0  0  0  0  0  0  0
   58.2200   26.1020   45.1510 C   0  0  0  0  0  0  0  0  0  0  0  0
   60.2630   27.2550   45.9820 C   0  0  0  0  0  0  0  0  0  0  0  0
   58.6920   29.8920   45.4380 C   0  0  0  0  0  0  0  0  0  0  0  0
   59.6320   30.3780   46.5060 C   0  0  0  0  0  0  0  0  0  0  0  0
   58.9840   33.6930   47.8450 C   0  0  0  0  0  0  0  0  0  0  0  0
   60.0510   33.8200   48.7430 C   0  0  0  0  0  0  0  0  0  0  0  0
   64.5535   32.4824   49.0362 H   0  0  0  0  0  0  0  0  0  0  0  0
   63.3024   32.3713   47.7520 H   0  0  0  0  0  0  0  0  0  0  0  0
   64.4708   33.7357   47.7520 H   0  0  0  0  0  0  0  0  0  0  0  0
   62.6458   33.8836   46.5100 H   0  0  0  0  0  0  0  0  0  0  0  0
   60.7456   33.6610   44.9094 H   0  0  0  0  0  0  0  0  0  0  0  0
   55.4276   30.7191   42.9695 H   0  0  0  0  0  0  0  0  0  0  0  0
   56.9248   31.0162   42.0224 H   0  0  0  0  0  0  0  0  0  0  0  0
   56.1708   29.3858   42.0224 H   0  0  0  0  0  0  0  0  0  0  0  0
   56.8750   27.8100   43.8420 H   0  0  0  0  0  0  0  0  0  0  0  0
   58.9307   27.3675   48.0704 H   0  0  0  0  0  0  0  0  0  0  0  0
   57.4554   28.1930   47.4632 H   0  0  0  0  0  0  0  0  0  0  0  0
   57.5451   26.3990   47.4632 H   0  0  0  0  0  0  0  0  0  0  0  0
   57.9135   25.3327   45.8751 H   0  0  0  0  0  0  0  0  0  0  0  0
   57.3615   26.3737   44.5193 H   0  0  0  0  0  0  0  0  0  0  0  0
   59.0302   25.7089   44.5193 H   0  0  0  0  0  0  0  0  0  0  0  0
   60.5810   27.2340   47.0348 H   0  0  0  0  0  0  0  0  0  0  0  0
   60.5930   26.3331   45.4808 H   0  0  0  0  0  0  0  0  0  0  0  0
   60.7115   28.1255   45.4808 H   0  0  0  0  0  0  0  0  0  0  0  0
   59.2068   30.1582   47.4964 H   0  0  0  0  0  0  0  0  0  0  0  0
   60.6009   29.8679   46.4015 H   0  0  0  0  0  0  0  0  0  0  0  0
   59.7760   31.4635   46.4015 H   0  0  0  0  0  0  0  0  0  0  0  0
   57.9515   33.6480   48.2218 H   0  0  0  0  0  0  0  0  0  0  0  0
   59.8555   33.8735   49.8242 H   0  0  0  0  0  0  0  0  0  0  0  0
  1  2  1  0
  2  3  1  0
  3  4  2  0
  4  5  1  0
  5  6  2  0
  6  7  1  0
  7  8  2  0
  7  9  2  0
  7 10  1  0
 10 11  1  0
 11 12  1  0
 12 13  1  0
 12 14  2  0
 14 15  1  0
 15 16  1  0
 16 17  1  0
 16 18  1  0
 16 19  1  0
 15 20  1  0
 20 21  1  0
  6 22  1  0
 22 23  2  0
 23  3  1  0
 20 11  2  0
  1 24  1  0
  1 25  1  0
  1 26  1  0
  4 27  1  0
  5 28  1  0
 13 29  1  0
 13 30  1  0
 13 31  1  0
 14 32  1  0
 17 33  1  0
 17 34  1  0
 17 35  1  0
 18 36  1  0
 18 37  1  0
 18 38  1  0
 19 39  1  0
 19 40  1  0
 19 41  1  0
 21 42  1  0
 21 43  1  0
 21 44  1  0
 22 45  1  0
 23 46  1  0
M  CHG  2  10  -1  14   1
M  END
>  <UniqueID>  (4) 
4

>  <SMILES>  (4) 
CSc1ccc(S(=O)(=O)[N-]c2c(C)[nH+]n(C(C)(C)C)c2C)cc1

>  <Energy>  (4) 
79.38177113522711

>  <Genealogy>  (4) 
CSc1ccc(S(=O)(=O)[N-]c2c(C)[nH+]n(C(C)(C)C)c2C)cc1 (protonated)
CSc1ccc(S(=O)(=O)[N-]c2c(C)[nH+]n(C(C)(C)C)c2C)cc1 (3D coordinates assigned)
CSc1ccc(S(=O)(=O)[N-]c2c(C)[nH+]n(C(C)(C)C)c2C)cc1 (optimized conformer: 79.38177113522711 kcal/mol)

>  <smiles>  (4) 
CSc1ccc(S(=O)(=O)Nc2c(C)nn(C(C)(C)C)c2C)cc1

>  <score_type>  (4) 
oracle

>  <origin>  (4) 
adg

>  <m_score__min__energy>  (4) 
-8.2200000000000006

>  <m_primary>  (4) 
energy

$$$$
4:0
     RDKit          3D

 65 68  0  0  1  0  0  0  0  0999 V2000
   58.9560   22.9620   45.1960 C   0  0  0  0  0  0  0  0  0  0  0  0
   58.0190   24.0110   44.8470 N   0  0  0  0  0  0  0  0  0  0  0  0
   57.0460   23.8450   43.7950 C   0  0  0  0  0  0  0  0  0  0  0  0
   58.0070   25.2790   45.5320 C   0  0  0  0  0  0  0  0  0  0  0  0
   58.8010   25.5310   46.5730 N   0  0  0  0  0  0  0  0  0  0  0  0
   58.7570   26.7290   47.1840 C   0  0  0  0  0  0  0  0  0  0  0  0
   59.5510   26.9250   48.1940 N   0  0  0  0  0  0  0  0  0  0  0  0
   60.5060   28.0130   48.1240 C   0  0  0  0  0  0  0  0  0  0  0  0
   59.8390   29.3260   48.5380 C   0  0  0  0  0  0  0  0  0  0  0  0
   60.7750   30.4530   48.5120 C   0  0  0  0  0  0  0  0  0  0  0  0
   61.1250   31.1760   49.6330 C   0  0  0  0  0  0  0  0  0  0  0  0
   62.0160   32.2200   49.4970 C   0  0  0  0  0  0  0  0  0  0  0  0
   62.5810   32.5840   48.2940 C   0  0  0  0  0  0  0  0  0  0  0  0
   62.2280   31.8550   47.1650 C   0  0  0  0  0  0  0  0  0  0  0  0
   61.3390   30.8160   47.3070 C   0  0  0  0  0  0  0  0  0  0  0  0
   57.9050   27.6690   46.7340 N   0  0  0  0  0  0  0  0  0  0  0  0
   57.0950   27.4230   45.6790 C   0  0  0  0  0  0  0  0  0  0  0  0
   56.2890   28.3020   45.2490 N   0  0  0  0  0  0  0  0  0  0  0  0
   56.6590   29.7060   45.0080 C   0  0  0  0  0  0  0  0  0  0  0  0
   57.9530   30.1040   45.5950 C   0  0  0  0  0  0  0  0  0  0  0  0
   58.8040   31.0390   44.7770 C   0  0  0  0  0  0  0  0  0  0  0  0
   58.0780   31.9150   43.9240 N   0  0  0  0  0  0  0  0  0  0  0  0
   57.4090   33.0060   44.5550 C   0  0  0  0  0  0  0  0  0  0  0  0
   58.2620   33.5070   45.6630 C   0  0  0  0  0  0  0  0  0  0  0  0
   59.2610   34.4160   45.2970 C   0  0  0  0  0  0  0  0  0  0  0  0
   60.1240   34.9650   46.2140 C   0  0  0  0  0  0  0  0  0  0  0  0
   59.9780   34.5930   47.5320 C   0  0  0  0  0  0  0  0  0  0  0  0
   58.9950   33.6980   47.8970 C   0  0  0  0  0  0  0  0  0  0  0  0
   58.1170   33.1360   46.9740 C   0  0  0  0  0  0  0  0  0  0  0  0
   57.2980   31.1350   43.0230 C   0  0  0  0  0  0  0  0  0  0  0  0
   56.3120   30.2040   43.6620 C   0  0  0  0  0  0  0  0  0  0  0  0
   57.1630   26.2330   45.1010 N   0  0  0  0  0  0  0  0  0  0  0  0
   59.0267   22.8829   46.2909 H   0  0  0  0  0  0  0  0  0  0  0  0
   58.6064   22.0051   44.7810 H   0  0  0  0  0  0  0  0  0  0  0  0
   59.9461   23.2018   44.7810 H   0  0  0  0  0  0  0  0  0  0  0  0
   56.0532   23.6756   44.2372 H   0  0  0  0  0  0  0  0  0  0  0  0
   57.0204   24.7518   43.1728 H   0  0  0  0  0  0  0  0  0  0  0  0
   57.3225   22.9810   43.1728 H   0  0  0  0  0  0  0  0  0  0  0  0
   61.3470   27.8029   48.8012 H   0  0  0  0  0  0  0  0  0  0  0  0
   60.8713   28.1052   47.0905 H   0  0  0  0  0  0  0  0  0  0  0  0
   59.0110   29.5368   47.8452 H   0  0  0  0  0  0  0  0  0  0  0  0
   59.4769   29.2107   49.5703 H   0  0  0  0  0  0  0  0  0  0  0  0
   60.7017   30.9249   50.6167 H   0  0  0  0  0  0  0  0  0  0  0  0
   62.2899   32.7920   50.3958 H   0  0  0  0  0  0  0  0  0  0  0  0
   63.2882   33.4241   48.2296 H   0  0  0  0  0  0  0  0  0  0  0  0
   62.6502   32.1035   46.1801 H   0  0  0  0  0  0  0  0  0  0  0  0
   61.0623   30.2426   46.4100 H   0  0  0  0  0  0  0  0  0  0  0  0
   57.8850   28.5980   47.2250 H   0  0  0  0  0  0  0  0  0  0  0  0
   55.9758   30.3129   45.6203 H   0  0  0  0  0  0  0  0  0  0  0  0
   57.7462   30.5959   46.5569 H   0  0  0  0  0  0  0  0  0  0  0  0
   58.5352   29.1740   45.6726 H   0  0  0  0  0  0  0  0  0  0  0  0
   59.4008   31.6518   45.4686 H   0  0  0  0  0  0  0  0  0  0  0  0
   59.4166   30.4045   44.1196 H   0  0  0  0  0  0  0  0  0  0  0  0
   57.2406   33.8105   43.8239 H   0  0  0  0  0  0  0  0  0  0  0  0
   56.4371   32.6740   44.9491 H   0  0  0  0  0  0  0  0  0  0  0  0
   59.3586   34.7006   44.2389 H   0  0  0  0  0  0  0  0  0  0  0  0
   60.9043   35.6767   45.9064 H   0  0  0  0  0  0  0  0  0  0  0  0
   60.6486   35.0118   48.2967 H   0  0  0  0  0  0  0  0  0  0  0  0
   58.9008   33.4175   48.9565 H   0  0  0  0  0  0  0  0  0  0  0  0
   57.3388   32.4233   47.2846 H   0  0  0  0  0  0  0  0  0  0  0  0
   56.7402   31.8251   42.3728 H   0  0  0  0  0  0  0  0  0  0  0  0
   58.0110   30.4950   42.4826 H   0  0  0  0  0  0  0  0  0  0  0  0
   55.3514   30.7344   43.7384 H   0  0  0  0  0  0  0  0  0  0  0  0
   56.2894   29.3133   43.0169 H   0  0  0  0  0  0  0  0  0  0  0  0
   56.5650   26.0200   44.3040 H   0  0  0  0  0  0  0  0  0  0  0  0
  1  2  1  0
  2  3  1  0
  2  4  1  0
  4  5  2  0
  5  6  1  0
  6  7  2  0
  7  8  1  0
  8  9  1  0
  9 10  1  0
 10 11  2  0
 11 12  1  0
 12 13  2  0
 13 14  1  0
 14 15  2  0
  6 16  1  0
 16 17  1  0
 17 18  2  0
 18 19  1  0
 19 20  1  0
 20 21  1  0
 21 22  1  0
 22 23  1  0
 23 24  1  0
 24 25  2  0
 25 26  1  0
 26 27  2  0
 27 28  1  0
 28 29  2  0
 22 30  1  0
 30 31  1  0
 17 32  1  0
 32  4  1  0
 15 10  1  0
 31 19  1  0
 29 24  1  0
  1 33  1  0
  1 34  1  0
  1 35  1  0
  3 36  1  0
  3 37  1  0
  3 38  1  0
  8 39  1  0
  8 40  1  0
  9 41  1  0
  9 42  1  0
 11 43  1  0
 12 44  1  0
 13 45  1  0
 14 46  1  0
 15 47  1  0
 16 48  1  0
 19 49  1  0
 20 50  1  0
 20 51  1  0
 21 52  1  0
 21 53  1  0
 23 54  1  0
 23 55  1  0
 25 56  1  0
 26 57  1  0
 27 58  1  0
 28 59  1  0
 29 60  1  0
 30 61  1  0
 30 62  1  0
 31 63  1  0
 31 64  1  0
 32 65  1  0
M  END
>  <smiles>  (5) 
CN(C)c1nc(=NCCc2ccccc2)[nH]c(=NC2CCN(Cc3ccccc3)CC2)[nH]1

>  <score_type>  (5) 
oracle

>  <origin>  (5) 
adg

>  <m_score__min__energy>  (5) 
-9.4100000000000001

>  <m_primary>  (5) 
energy

$$$$
5:0
     RDKit          3D

 31 32  0  0  0  0  0  0  0  0999 V2000
   60.9980   33.8190   46.7500 C   0  0  0  0  0  0  0  0  0  0  0  0
   59.8080   34.7530   46.9630 C   0  0  0  0  0  0  0  0  0  0  0  0
   58.4970   33.9890   47.2060 C   0  0  0  0  0  0  0  0  0  0  0  0
   58.3290   32.8780   46.2450 N   0  0  0  0  0  0  0  0  0  0  0  0
   58.4020   31.5790   46.6950 C   0  0  0  0  0  0  0  0  0  0  0  0
   58.5930   31.3200   47.9150 O   0  0  0  0  0  0  0  0  0  0  0  0
   58.2620   30.5500   45.7710 C   0  0  0  0  0  0  0  0  0  0  0  0
   58.0630   30.8350   44.4610 C   0  0  0  0  0  0  0  0  0  0  0  0
   57.9850   29.6950   43.7490 N   0  0  0  0  0  0  0  0  0  0  0  0
   58.1410   28.7210   44.6780 C   0  0  0  0  0  0  0  0  0  0  0  0
   58.1400   27.1270   44.2940 S   0  0  0  0  0  0  0  0  0  0  0  0
   58.3100   29.2120   45.9370 N   0  0  0  0  0  0  0  0  0  0  0  0
   58.5350   28.4760   47.1820 C   0  0  0  0  0  0  0  0  0  0  0  0
   57.9810   32.1100   43.9920 N   0  0  0  0  0  0  0  0  0  0  0  0
   57.7810   32.3510   42.5560 C   0  0  0  0  0  0  0  0  0  0  0  0
   58.1270   33.1400   44.8970 C   0  0  0  0  0  0  0  0  0  0  0  0
   58.0810   34.3370   44.4930 O   0  0  0  0  0  0  0  0  0  0  0  0
   61.3974   33.5056   47.7258 H   0  0  0  0  0  0  0  0  0  0  0  0
   60.6722   32.9329   46.1854 H   0  0  0  0  0  0  0  0  0  0  0  0
   61.7813   34.3460   46.1854 H   0  0  0  0  0  0  0  0  0  0  0  0
   60.0118   35.3907   47.8358 H   0  0  0  0  0  0  0  0  0  0  0  0
   59.6828   35.3493   46.0472 H   0  0  0  0  0  0  0  0  0  0  0  0
   58.5062   33.5797   48.2270 H   0  0  0  0  0  0  0  0  0  0  0  0
   57.6600   34.6900   47.0716 H   0  0  0  0  0  0  0  0  0  0  0  0
   57.8480   29.5790   42.7210 H   0  0  0  0  0  0  0  0  0  0  0  0
   58.3335   29.1352   48.0392 H   0  0  0  0  0  0  0  0  0  0  0  0
   57.8614   27.6072   47.2212 H   0  0  0  0  0  0  0  0  0  0  0  0
   59.5792   28.1324   47.2212 H   0  0  0  0  0  0  0  0  0  0  0  0
   57.0840   33.1909   42.4187 H   0  0  0  0  0  0  0  0  0  0  0  0
   58.7458   32.5948   42.0873 H   0  0  0  0  0  0  0  0  0  0  0  0
   57.3635   31.4477   42.0873 H   0  0  0  0  0  0  0  0  0  0  0  0
  1  2  1  0
  2  3  1  0
  3  4  1  0
  4  5  1  0
  5  6  2  0
  5  7  1  0
  7  8  2  0
  8  9  1  0
  9 10  1  0
 10 11  2  0
 10 12  1  0
 12 13  1  0
  8 14  1  0
 14 15  1  0
 14 16  1  0
 16 17  2  0
 16  4  1  0
 12  7  1  0
  1 18  1  0
  1 19  1  0
  1 20  1  0
  2 21  1  0
  2 22  1  0
  3 23  1  0
  3 24  1  0
  9 25  1  0
 13 26  1  0
 13 27  1  0
 13 28  1  0
 15 29  1  0
 15 30  1  0
 15 31  1  0
M  END
>  <UniqueID>  (6) 
5

>  <SMILES>  (6) 
CCCn1c(=O)c2c([nH]c(=S)n2C)n(C)c1=O

>  <Energy>  (6) 
75.42269076111626

>  <Genealogy>  (6) 
CCCn1c(=O)c2c([nH]c(=S)n2C)n(C)c1=O (3D coordinates assigned)
CCCn1c(=O)c2c([nH]c(=S)n2C)n(C)c1=O (optimized conformer: 75.42269076111626 kcal/mol)

>  <smiles>  (6) 
CCCn1c(=O)c2c([nH]c(=S)n2C)n(C)c1=O

>  <score_type>  (6) 
oracle

>  <origin>  (6) 
adg

>  <m_score__min__energy>  (6) 
-5.5300000000000002

>  <m_primary>  (6) 
energy

$$$$
6:0
     RDKit          3D

 53 54  0  0  0  0  0  0  0  0999 V2000
   50.8400   32.2710   52.9590 C   0  0  0  0  0  0  0  0  0  0  0  0
   51.0170   32.6680   51.6170 O   0  0  0  0  0  0  0  0  0  0  0  0
   51.8440   31.7460   50.9320 C   0  0  0  0  0  0  0  0  0  0  0  0
   52.6010   30.8450   51.9180 C   0  0  0  0  0  0  0  0  0  0  0  0
   54.0860   31.2180   52.0470 C   0  0  0  0  0  0  0  0  0  0  0  0
   54.9290   30.0280   52.1010 N   0  0  0  0  0  0  0  0  0  0  0  0
   56.3400   30.0630   52.3320 C   0  0  0  0  0  0  0  0  0  0  0  0
   56.8010   29.8510   53.4860 O   0  0  0  0  0  0  0  0  0  0  0  0
   57.2120   30.3870   51.2440 N   0  0  0  0  0  0  0  0  0  0  0  0
   57.9920   31.5830   51.0980 C   0  0  0  0  0  0  0  0  0  0  0  0
   58.2750   32.4280   52.1860 C   0  0  0  0  0  0  0  0  0  0  0  0
   59.0560   33.5720   52.0030 C   0  0  0  0  0  0  0  0  0  0  0  0
   59.5720   33.8760   50.7400 C   0  0  0  0  0  0  0  0  0  0  0  0
   59.3210   33.0260   49.6560 C   0  0  0  0  0  0  0  0  0  0  0  0
   59.9770   33.4200   48.0690 S   0  0  0  0  0  0  0  0  0  0  0  0
   61.1020   34.4010   48.2320 O   0  0  0  0  0  0  0  0  0  0  0  0
   60.5160   32.1820   47.4060 O   0  0  0  0  0  0  0  0  0  0  0  0
   58.7390   34.1260   47.0730 N   0  0  0  0  0  0  0  0  0  0  0  0
   57.7530   33.1230   46.6590 C   0  0  0  0  0  0  0  0  0  0  0  0
   58.2930   32.3070   45.4830 C   0  0  0  0  0  0  0  0  0  0  0  0
   57.8830   30.8610   45.5910 C   0  0  0  0  0  0  0  0  0  0  0  0
   57.0710   30.2770   44.6060 C   0  0  0  0  0  0  0  0  0  0  0  0
   56.7330   28.9230   44.6830 C   0  0  0  0  0  0  0  0  0  0  0  0
   57.2120   28.1340   45.7370 C   0  0  0  0  0  0  0  0  0  0  0  0
   56.7840   26.4310   45.8450 S   0  0  0  0  0  0  0  0  0  0  0  0
   55.0690   26.2740   45.9910 N   0  0  0  0  0  0  0  0  0  0  0  0
   57.4520   25.8170   47.0450 O   0  0  0  0  0  0  0  0  0  0  0  0
   57.2460   25.7050   44.6120 O   0  0  0  0  0  0  0  0  0  0  0  0
   58.0240   28.7140   46.7210 C   0  0  0  0  0  0  0  0  0  0  0  0
   58.3630   30.0680   46.6460 C   0  0  0  0  0  0  0  0  0  0  0  0
   58.5360   31.8790   49.8410 C   0  0  0  0  0  0  0  0  0  0  0  0
   51.1958   33.0689   53.6274 H   0  0  0  0  0  0  0  0  0  0  0  0
   49.7728   32.0830   53.1480 H   0  0  0  0  0  0  0  0  0  0  0  0
   51.4134   31.3515   53.1480 H   0  0  0  0  0  0  0  0  0  0  0  0
   51.2191   31.1189   50.2791 H   0  0  0  0  0  0  0  0  0  0  0  0
   52.5788   32.3095   50.3383 H   0  0  0  0  0  0  0  0  0  0  0  0
   52.1293   30.9333   52.9078 H   0  0  0  0  0  0  0  0  0  0  0  0
   52.5506   29.8163   51.5318 H   0  0  0  0  0  0  0  0  0  0  0  0
   54.3795   31.8259   51.1785 H   0  0  0  0  0  0  0  0  0  0  0  0
   54.2222   31.7826   52.9812 H   0  0  0  0  0  0  0  0  0  0  0  0
   57.8803   32.1875   53.1842 H   0  0  0  0  0  0  0  0  0  0  0  0
   59.2654   34.2353   52.8552 H   0  0  0  0  0  0  0  0  0  0  0  0
   60.1760   34.7842   50.5975 H   0  0  0  0  0  0  0  0  0  0  0  0
   57.5432   32.4494   47.5030 H   0  0  0  0  0  0  0  0  0  0  0  0
   56.8296   33.6336   46.3482 H   0  0  0  0  0  0  0  0  0  0  0  0
   57.8969   32.7234   44.5451 H   0  0  0  0  0  0  0  0  0  0  0  0
   59.3916   32.3601   45.4967 H   0  0  0  0  0  0  0  0  0  0  0  0
   56.6992   30.8876   43.7700 H   0  0  0  0  0  0  0  0  0  0  0  0
   56.0881   28.4749   43.9127 H   0  0  0  0  0  0  0  0  0  0  0  0
   54.7370   27.0840   46.5620 H   0  0  0  0  0  0  0  0  0  0  0  0
   58.3960   28.1014   47.5555 H   0  0  0  0  0  0  0  0  0  0  0  0
   59.0086   30.5144   47.4167 H   0  0  0  0  0  0  0  0  0  0  0  0
   58.3456   31.2058   48.9922 H   0  0  0  0  0  0  0  0  0  0  0  0
  1  2  1  0
  2  3  1  0
  3  4  1  0
  4  5  1  0
  5  6  1  0
  6  7  1  0
  7  8  2  0
  7  9  1  0
  9 10  1  0
 10 11  2  0
 11 12  1  0
 12 13  2  0
 13 14  1  0
 14 15  1  0
 15 16  2  0
 15 17  2  0
 15 18  1  0
 18 19  1  0
 19 20  1  0
 20 21  1  0
 21 22  2  0
 22 23  1  0
 23 24  2  0
 24 25  1  0
 25 26  1  0
 25 27  2  0
 25 28  2  0
 24 29  1  0
 29 30  2  0
 14 31  2  0
 31 10  1  0
 30 21  1  0
  1 32  1  0
  1 33  1  0
  1 34  1  0
  3 35  1  0
  3 36  1  0
  4 37  1  0
  4 38  1  0
  5 39  1  0
  5 40  1  0
 11 41  1  0
 12 42  1  0
 13 43  1  0
 19 44  1  0
 19 45  1  0
 20 46  1  0
 20 47  1  0
 22 48  1  0
 23 49  1  0
 26 50  1  0
 29 51  1  0
 30 52  1  0
 31 53  1  0
M  CHG  4   6  -1   9  -1  18  -1  26  -1
M  END
>  <UniqueID>  (7) 
6

>  <SMILES>  (7) 
COCCC[N-]C(=O)[N-]c1cccc(S(=O)(=O)[N-]CCc2ccc(S([NH-])(=O)=O)cc2)c1

>  <Energy>  (7) 
49.39456033727136

>  <Genealogy>  (7) 
COCCC[N-]C(=O)[N-]c1cccc(S(=O)(=O)[N-]CCc2ccc(S([NH-])(=O)=O)cc2)c1 (protonated)
COCCC[N-]C(=O)[N-]c1cccc(S(=O)(=O)[N-]CCc2ccc(S([NH-])(=O)=O)cc2)c1 (3D coordinates assigned)
COCCC[N-]C(=O)[N-]c1cccc(S(=O)(=O)[N-]CCc2ccc(S([NH-])(=O)=O)cc2)c1 (optimized conformer: 49.39456033727136 kcal/mol)

>  <smiles>  (7) 
COCCCNC(=O)Nc1cccc(S(=O)(=O)NCCc2ccc(S(N)(=O)=O)cc2)c1

>  <score_type>  (7) 
oracle

>  <origin>  (7) 
adg

>  <m_score__min__energy>  (7) 
-15.359999999999999

>  <m_primary>  (7) 
energy

$$$$
7:0
     RDKit          3D

 60 62  0  0  0  0  0  0  0  0999 V2000
   63.0620   33.7600   46.7830 C   0  0  0  0  0  0  0  0  0  0  0  0
   63.0950   33.3450   48.2460 C   0  0  0  0  0  0  0  0  0  0  0  0
   62.2110   34.1720   48.9960 O   0  0  0  0  0  0  0  0  0  0  0  0
   60.8300   34.1900   48.7800 C   0  0  0  0  0  0  0  0  0  0  0  0
   60.3340   34.9680   47.9220 O   0  0  0  0  0  0  0  0  0  0  0  0
   59.9680   33.2910   49.5710 C   0  0  0  0  0  0  0  0  0  0  0  0
   59.2400   33.7310   50.6260 N   0  0  0  0  0  0  0  0  0  0  0  0
   58.6270   32.6490   51.1360 C   0  0  0  0  0  0  0  0  0  0  0  0
   57.7920   32.6050   52.2500 C   0  0  0  0  0  0  0  0  0  0  0  0
   57.2730   31.3490   52.6480 C   0  0  0  0  0  0  0  0  0  0  0  0
   56.4240   31.2070   53.7560 O   0  0  0  0  0  0  0  0  0  0  0  0
   55.6220   30.0590   54.0090 C   0  0  0  0  0  0  0  0  0  0  0  0
   57.6160   30.1890   51.9150 C   0  0  0  0  0  0  0  0  0  0  0  0
   58.4630   30.2670   50.7970 C   0  0  0  0  0  0  0  0  0  0  0  0
   58.9480   31.5220   50.4280 C   0  0  0  0  0  0  0  0  0  0  0  0
   59.7990   31.9070   49.4050 C   0  0  0  0  0  0  0  0  0  0  0  0
   60.5030   30.9890   48.4460 C   0  0  0  0  0  0  0  0  0  0  0  0
   60.1460   31.3540   47.0420 C   0  0  0  0  0  0  0  0  0  0  0  0
   60.5930   30.6680   46.0820 O   0  0  0  0  0  0  0  0  0  0  0  0
   59.3640   32.4910   46.8070 O   0  0  0  0  0  0  0  0  0  0  0  0
   58.8830   32.8630   45.5180 C   0  0  2  0  0  0  0  0  0  0  0  0
   59.2800   34.3100   45.2370 C   0  0  0  0  0  0  0  0  0  0  0  0
   57.3910   32.7140   45.4490 C   0  0  0  0  0  0  0  0  0  0  0  0
   56.6500   33.5490   46.0350 O   0  0  0  0  0  0  0  0  0  0  0  0
   56.8250   31.6760   44.6380 N   0  0  0  0  0  0  0  0  0  0  0  0
   57.1490   30.2800   44.6960 C   0  0  0  0  0  0  0  0  0  0  0  0
   58.4300   29.8720   44.3070 C   0  0  0  0  0  0  0  0  0  0  0  0
   58.7880   28.5220   44.3540 C   0  0  0  0  0  0  0  0  0  0  0  0
   57.8740   27.5720   44.8160 C   0  0  0  0  0  0  0  0  0  0  0  0
   56.6030   27.9710   45.2610 C   0  0  0  0  0  0  0  0  0  0  0  0
   55.6370   27.0190   45.7310 N   0  0  0  0  0  0  0  0  0  0  0  0
   55.9030   25.6970   46.2150 C   0  0  0  0  0  0  0  0  0  0  0  0
   57.1990   25.3350   46.8740 C   0  0  0  0  0  0  0  0  0  0  0  0
   55.0050   24.8200   46.1130 O   0  0  0  0  0  0  0  0  0  0  0  0
   56.2400   29.3220   45.1840 C   0  0  0  0  0  0  0  0  0  0  0  0
   62.9750   34.8544   46.7142 H   0  0  0  0  0  0  0  0  0  0  0  0
   63.9889   33.4341   46.2884 H   0  0  0  0  0  0  0  0  0  0  0  0
   62.1983   33.2917   46.2884 H   0  0  0  0  0  0  0  0  0  0  0  0
   62.7794   32.2951   48.3362 H   0  0  0  0  0  0  0  0  0  0  0  0
   64.1180   33.4560   48.6348 H   0  0  0  0  0  0  0  0  0  0  0  0
   59.1800   34.7080   50.9880 H   0  0  0  0  0  0  0  0  0  0  0  0
   57.5425   33.5211   52.8055 H   0  0  0  0  0  0  0  0  0  0  0  0
   55.5210   29.9144   55.0948 H   0  0  0  0  0  0  0  0  0  0  0  0
   54.6263   30.2020   53.5639 H   0  0  0  0  0  0  0  0  0  0  0  0
   56.0988   29.1733   53.5639 H   0  0  0  0  0  0  0  0  0  0  0  0
   57.2142   29.2129   52.2245 H   0  0  0  0  0  0  0  0  0  0  0  0
   58.7358   29.3652   50.2293 H   0  0  0  0  0  0  0  0  0  0  0  0
   61.5905   31.0826   48.5824 H   0  0  0  0  0  0  0  0  0  0  0  0
   60.1929   29.9519   48.6418 H   0  0  0  0  0  0  0  0  0  0  0  0
   59.3287   32.2023   44.7598 H   0  0  0  0  0  0  0  0  0  0  0  0
   59.4259   34.8417   46.1889 H   0  0  0  0  0  0  0  0  0  0  0  0
   60.2162   34.3279   44.6598 H   0  0  0  0  0  0  0  0  0  0  0  0
   58.4840   34.8031   44.6598 H   0  0  0  0  0  0  0  0  0  0  0  0
   59.1600   30.6190   43.9619 H   0  0  0  0  0  0  0  0  0  0  0  0
   59.7900   28.2073   44.0270 H   0  0  0  0  0  0  0  0  0  0  0  0
   58.1507   26.5075   44.8313 H   0  0  0  0  0  0  0  0  0  0  0  0
   57.0768   25.3691   47.9667 H   0  0  0  0  0  0  0  0  0  0  0  0
   57.4942   24.3200   46.5696 H   0  0  0  0  0  0  0  0  0  0  0  0
   57.9774   26.0501   46.5696 H   0  0  0  0  0  0  0  0  0  0  0  0
   55.2368   29.6367   45.5074 H   0  0  0  0  0  0  0  0  0  0  0  0
  1  2  1  0
  2  3  1  0
  3  4  1  0
  4  5  2  0
  4  6  1  0
  6  7  1  0
  7  8  1  0
  8  9  2  0
  9 10  1  0
 10 11  1  0
 11 12  1  0
 10 13  2  0
 13 14  1  0
 14 15  2  0
 15 16  1  0
 16 17  1  0
 17 18  1  0
 18 19  2  0
 18 20  1  0
 20 21  1  0
 21 22  1  0
 21 23  1  0
 23 24  2  0
 23 25  1  0
 25 26  1  0
 26 27  2  0
 27 28  1  0
 28 29  2  0
 29 30  1  0
 30 31  1  0
 31 32  1  0
 32 33  1  0
 32 34  2  0
 30 35  2  0
 16  6  2  0
 35 26  1  0
 15  8  1  0
  1 36  1  0
  1 37  1  0
  1 38  1  0
  2 39  1  0
  2 40  1  0
  7 41  1  0
  9 42  1  0
 12 43  1  0
 12 44  1  0
 12 45  1  0
 13 46  1  0
 14 47  1  0
 17 48  1  0
 17 49  1  0
 21 50  1  6
 22 51  1  0
 22 52  1  0
 22 53  1  0
 27 54  1  0
 28 55  1  0
 29 56  1  0
 33 57  1  0
 33 58  1  0
 33 59  1  0
 35 60  1  0
M  CHG  2  25  -1  31  -1
M  END
>  <UniqueID>  (8) 
7

>  <SMILES>  (8) 
CCOC(=O)c1[nH]c2cc(OC)ccc2c1CC(=O)O[C@H](C)C(=O)[N-]c1cccc([N-]C(C)=O)c1

>  <Energy>  (8) 
88.32512399565321

>  <Genealogy>  (8) 
CCOC(=O)c1[nH]c2cc(OC)ccc2c1CC(=O)OC(C)C(=O)[N-]c1cccc([N-]C(C)=O)c1 (protonated)
CCOC(=O)c1[nH]c2cc(OC)ccc2c1CC(=O)O[C@H](C)C(=O)[N-]c1cccc([N-]C(C)=O)c1 (chirality)
CCOC(=O)c1[nH]c2cc(OC)ccc2c1CC(=O)O[C@H](C)C(=O)[N-]c1cccc([N-]C(C)=O)c1 (3D coordinates assigned)
CCOC(=O)c1[nH]c2cc(OC)ccc2c1CC(=O)O[C@H](C)C(=O)[N-]c1cccc([N-]C(C)=O)c1 (optimized conformer: 88.32512399565321 kcal/mol)

>  <smiles>  (8) 
CCOC(=O)c1[nH]c2cc(OC)ccc2c1CC(=O)OC(C)C(=O)Nc1cccc(NC(C)=O)c1

>  <score_type>  (8) 
oracle

>  <origin>  (8) 
adg

>  <m_score__min__energy>  (8) 
-12.06

>  <m_primary>  (8) 
energy

$$$$
8:0
     RDKit          3D

 41 43  0  0  0  0  0  0  0  0999 V2000
   62.0300   34.2690   49.4480 C   0  0  0  0  0  0  0  0  0  0  0  0
   61.0610   33.9300   48.3540 C   0  0  0  0  0  0  0  0  0  0  0  0
   59.7510   33.5350   48.6660 C   0  0  0  0  0  0  0  0  0  0  0  0
   58.8370   33.2540   47.6450 C   0  0  0  0  0  0  0  0  0  0  0  0
   59.2180   33.3850   46.3020 C   0  0  0  0  0  0  0  0  0  0  0  0
   58.0760   33.0120   45.0150 S   0  0  0  0  0  0  0  0  0  0  0  0
   58.7120   33.2970   43.6830 O   0  0  0  0  0  0  0  0  0  0  0  0
   56.8490   33.8680   45.1660 O   0  0  0  0  0  0  0  0  0  0  0  0
   57.6320   31.3410   45.1010 N   0  0  0  0  0  0  0  0  0  0  0  0
   56.4090   30.8870   44.8610 N   0  0  0  0  0  0  0  0  0  0  0  0
   56.4460   29.5470   45.0230 C   0  0  0  0  0  0  0  0  0  0  0  0
   55.3450   28.7180   44.8570 O   0  0  0  0  0  0  0  0  0  0  0  0
   57.7180   29.1420   45.3750 C   0  0  0  0  0  0  0  0  0  0  0  0
   58.1500   27.8000   45.6330 N   0  0  0  0  0  0  0  0  0  0  0  0
   57.4600   26.9200   46.5770 C   0  0  0  0  0  0  0  0  0  0  0  0
   57.0610   25.6270   45.9090 C   0  0  0  0  0  0  0  0  0  0  0  0
   58.0620   24.7220   45.5100 C   0  0  0  0  0  0  0  0  0  0  0  0
   57.7260   23.5200   44.8840 C   0  0  0  0  0  0  0  0  0  0  0  0
   56.3880   23.2080   44.6420 C   0  0  0  0  0  0  0  0  0  0  0  0
   55.3830   24.1010   45.0200 C   0  0  0  0  0  0  0  0  0  0  0  0
   55.7060   25.3120   45.6450 C   0  0  0  0  0  0  0  0  0  0  0  0
   54.6630   26.1780   45.9830 O   0  0  0  0  0  0  0  0  0  0  0  0
   58.4430   30.3130   45.4130 C   0  0  0  0  0  0  0  0  0  0  0  0
   59.6670   30.4330   45.6920 O   0  0  0  0  0  0  0  0  0  0  0  0
   60.5230   33.7900   45.9900 C   0  0  0  0  0  0  0  0  0  0  0  0
   61.4360   34.0700   47.0100 C   0  0  0  0  0  0  0  0  0  0  0  0
   61.5530   34.1021   50.4250 H   0  0  0  0  0  0  0  0  0  0  0  0
   62.9203   33.6290   49.3606 H   0  0  0  0  0  0  0  0  0  0  0  0
   62.3272   35.3245   49.3606 H   0  0  0  0  0  0  0  0  0  0  0  0
   59.4416   33.4460   49.7178 H   0  0  0  0  0  0  0  0  0  0  0  0
   57.8165   32.9294   47.8964 H   0  0  0  0  0  0  0  0  0  0  0  0
   58.9950   27.4500   45.1240 H   0  0  0  0  0  0  0  0  0  0  0  0
   58.1308   26.6985   47.4202 H   0  0  0  0  0  0  0  0  0  0  0  0
   56.5519   27.4279   46.9340 H   0  0  0  0  0  0  0  0  0  0  0  0
   59.1194   24.9638   45.6930 H   0  0  0  0  0  0  0  0  0  0  0  0
   58.5172   22.8183   44.5813 H   0  0  0  0  0  0  0  0  0  0  0  0
   56.1245   22.2584   44.1533 H   0  0  0  0  0  0  0  0  0  0  0  0
   54.3296   23.8513   44.8253 H   0  0  0  0  0  0  0  0  0  0  0  0
   54.7580   27.1850   45.9920 H   0  0  0  0  0  0  0  0  0  0  0  0
   60.8296   33.8878   44.9381 H   0  0  0  0  0  0  0  0  0  0  0  0
   62.4539   34.4019   46.7575 H   0  0  0  0  0  0  0  0  0  0  0  0
  1  2  1  0
  2  3  2  0
  3  4  1  0
  4  5  2  0
  5  6  1  0
  6  7  2  0
  6  8  2  0
  6  9  1  0
  9 10  1  0
 10 11  1  0
 11 12  1  0
 11 13  2  0
 13 14  1  0
 14 15  1  0
 15 16  1  0
 16 17  2  0
 17 18  1  0
 18 19  2  0
 19 20  1  0
 20 21  2  0
 21 22  1  0
 13 23  1  0
 23 24  2  0
  5 25  1  0
 25 26  2  0
 26  2  1  0
 23  9  1  0
 21 16  1  0
  1 27  1  0
  1 28  1  0
  1 29  1  0
  3 30  1  0
  4 31  1  0
 14 32  1  0
 15 33  1  0
 15 34  1  0
 17 35  1  0
 18 36  1  0
 19 37  1  0
 20 38  1  0
 22 39  1  0
 25 40  1  0
 26 41  1  0
M  CHG  2  10  -1  12  -1
M  END
>  <UniqueID>  (9) 
8

>  <SMILES>  (9) 
Cc1ccc(S(=O)(=O)n2[n-]c([O-])c(NCc3ccccc3O)c2=O)cc1

>  <Energy>  (9) 
80.33264453203944

>  <Genealogy>  (9) 
Cc1ccc(S(=O)(=O)n2[n-]c([O-])c(NCc3ccccc3O)c2=O)cc1 (protonated)
Cc1ccc(S(=O)(=O)n2[n-]c([O-])c(NCc3ccccc3O)c2=O)cc1 (3D coordinates assigned)
Cc1ccc(S(=O)(=O)n2[n-]c([O-])c(NCc3ccccc3O)c2=O)cc1 (optimized conformer: 80.33264453203944 kcal/mol)

>  <smiles>  (9) 
Cc1ccc(S(=O)(=O)n2[nH]c(O)c(NCc3ccccc3O)c2=O)cc1

>  <score_type>  (9) 
oracle

>  <origin>  (9) 
adg

>  <m_score__min__energy>  (9) 
-15.039999999999999

>  <m_primary>  (9) 
energy

$$$$
9:0
     RDKit          3D

 50 53  0  0  0  0  0  0  0  0999 V2000
   59.2320   35.6830   49.0950 H   0  0  0  0  0  0  0  0  0  0  0  0
   59.7660   34.9580   48.6310 O   0  0  0  0  0  0  0  0  0  0  0  0
   59.2090   34.1770   47.6210 C   0  0  0  0  0  0  0  0  0  0  0  0
   59.1670   34.6680   46.3120 C   0  0  0  0  0  0  0  0  0  0  0  0
   59.5736   35.6649   46.0865 H   0  0  0  0  0  0  0  0  0  0  0  0
   58.6090   33.8940   45.2890 C   0  0  0  0  0  0  0  0  0  0  0  0
   58.5948   34.2772   44.2580 H   0  0  0  0  0  0  0  0  0  0  0  0
   58.0660   32.6280   45.5730 C   0  0  0  0  0  0  0  0  0  0  0  0
   57.5180   31.7740   44.5000 C   0  0  0  0  0  0  0  0  0  0  0  0
   58.1645   31.5778   43.6319 H   0  0  0  0  0  0  0  0  0  0  0  0
   56.2960   31.2170   44.4960 C   0  0  0  0  0  0  0  0  0  0  0  0
   55.4479   31.8661   44.7595 H   0  0  0  0  0  0  0  0  0  0  0  0
   55.9910   29.8100   44.1690 C   0  0  0  0  0  0  0  0  0  0  0  0
   54.8030   29.3870   44.1560 O   0  0  0  0  0  0  0  0  0  0  0  0
   57.0750   28.9210   43.8770 N   0  0  0  0  0  0  0  0  0  0  0  0
   57.6810   28.0150   44.8100 C   0  0  0  0  0  0  0  0  0  0  0  0
   59.0760   28.0150   44.9270 C   0  0  0  0  0  0  0  0  0  0  0  0
   59.6766   28.6940   44.3040 H   0  0  0  0  0  0  0  0  0  0  0  0
   59.7090   27.1600   45.8280 C   0  0  0  0  0  0  0  0  0  0  0  0
   60.8062   27.1601   45.9062 H   0  0  0  0  0  0  0  0  0  0  0  0
   58.9540   26.3040   46.6310 C   0  0  0  0  0  0  0  0  0  0  0  0
   59.4603   25.6256   47.3335 H   0  0  0  0  0  0  0  0  0  0  0  0
   57.5510   26.3030   46.5480 C   0  0  0  0  0  0  0  0  0  0  0  0
   56.7540   25.4110   47.4710 C   0  0  0  0  0  0  0  0  0  0  0  0
   57.1322   25.5224   48.4979 H   0  0  0  0  0  0  0  0  0  0  0  0
   55.6950   25.7047   47.4232 H   0  0  0  0  0  0  0  0  0  0  0  0
   56.8800   23.9670   47.0490 C   0  0  0  0  0  0  0  0  0  0  0  0
   57.1110   23.0510   48.0290 N   0  0  0  0  0  0  0  0  0  0  0  0
   57.2660   21.7550   47.7690 N   0  0  0  0  0  0  0  0  0  0  0  0
   57.2030   21.2710   46.5060 C   0  0  0  0  0  0  0  0  0  0  0  0
   57.3710   20.0390   46.3070 O   0  0  0  0  0  0  0  0  0  0  0  0
   56.9540   22.1460   45.4380 C   0  0  0  0  0  0  0  0  0  0  0  0
   56.8030   23.5250   45.7060 C   0  0  0  0  0  0  0  0  0  0  0  0
   56.5520   24.4270   44.6100 N   0  0  0  0  0  0  0  0  0  0  0  0
   56.1110   25.3570   44.7590 H   0  0  0  0  0  0  0  0  0  0  0  0
   56.7480   23.9990   43.2290 C   0  0  0  0  0  0  0  0  0  0  0  0
   56.2071   24.6791   42.5546 H   0  0  0  0  0  0  0  0  0  0  0  0
   57.8213   24.0193   42.9889 H   0  0  0  0  0  0  0  0  0  0  0  0
   56.2160   22.5800   43.0530 C   0  0  0  0  0  0  0  0  0  0  0  0
   55.1365   22.5677   43.2639 H   0  0  0  0  0  0  0  0  0  0  0  0
   56.3998   22.2529   42.0190 H   0  0  0  0  0  0  0  0  0  0  0  0
   56.9310   21.6250   44.0150 C   0  0  0  0  0  0  0  0  0  0  0  0
   56.4105   20.6560   44.0023 H   0  0  0  0  0  0  0  0  0  0  0  0
   57.9733   21.5280   43.6772 H   0  0  0  0  0  0  0  0  0  0  0  0
   56.9130   27.1850   45.6520 C   0  0  0  0  0  0  0  0  0  0  0  0
   55.5240   27.2590   45.6260 O   0  0  0  0  0  0  0  0  0  0  0  0
   58.1380   32.1290   46.8810 C   0  0  0  0  0  0  0  0  0  0  0  0
   57.7528   31.1233   47.1048 H   0  0  0  0  0  0  0  0  0  0  0  0
   58.6970   32.9030   47.9030 C   0  0  0  0  0  0  0  0  0  0  0  0
   58.7349   32.5112   48.9302 H   0  0  0  0  0  0  0  0  0  0  0  0
  1  2  1  0
  2  3  1  0
  3  4  2  0
  4  5  1  0
  4  6  1  0
  6  7  1  0
  6  8  2  0
  8  9  1  0
  9 10  1  0
  9 11  2  0
 11 12  1  0
 11 13  1  0
 13 14  2  0
 13 15  1  0
 15 16  1  0
 16 17  2  0
 17 18  1  0
 17 19  1  0
 19 20  1  0
 19 21  2  0
 21 22  1  0
 21 23  1  0
 23 24  1  0
 24 25  1  0
 24 26  1  0
 24 27  1  0
 27 28  2  0
 28 29  1  0
 29 30  1  0
 30 31  2  0
 30 32  1  0
 32 33  2  0
 33 34  1  0
 34 35  1  0
 34 36  1  0
 36 37  1  0
 36 38  1  0
 36 39  1  0
 39 40  1  0
 39 41  1  0
 39 42  1  0
 42 43  1  0
 42 44  1  0
 23 45  2  0
 45 46  1  0
  8 47  1  0
 47 48  1  0
 47 49  2  0
 49 50  1  0
 49  3  1  0
 45 16  1  0
 33 27  1  0
 42 32  1  0
M  CHG  3  15  -1  29  -1  46  -1
M  END
>  <UniqueID>  (10) 
9

>  <SMILES>  (10) 
O=C(/C=C\c1ccc(O)cc1)[N-]c1cccc(Cc2n[n-]c(=O)c3c2NCCC3)c1[O-]

>  <Energy>  (10) 
70.67322166779236

>  <Genealogy>  (10) 
O=C(C=Cc1ccc(O)cc1)[N-]c1cccc(Cc2n[n-]c(=O)c3c2NCCC3)c1[O-] (protonated)
O=C(/C=C\c1ccc(O)cc1)[N-]c1cccc(Cc2n[n-]c(=O)c3c2NCCC3)c1[O-] (cis-trans isomerization)
O=C(/C=C\c1ccc(O)cc1)[N-]c1cccc(Cc2n[n-]c(=O)c3c2NCCC3)c1[O-] (3D coordinates assigned)
O=C(/C=C\c1ccc(O)cc1)[N-]c1cccc(Cc2n[n-]c(=O)c3c2NCCC3)c1[O-] (nonaromatic ring conformer: 70.67322166779236 kcal/mol)

>  <smiles>  (10) 
O=C(C=Cc1ccc(O)cc1)Nc1cccc(Cc2n[nH]c(=O)c3c2NCCC3)c1O

>  <score_type>  (10) 
oracle

>  <origin>  (10) 
adg

>  <m_score__min__energy>  (10) 
-16.41

>  <m_primary>  (10) 
energy

$$$$
10:0
     RDKit          3D

 57 60  0  0  0  0  0  0  0  0999 V2000
   57.5580   31.5620   43.5100 C   0  0  0  0  0  0  0  0  0  0  0  0
   56.6580   31.0700   44.4950 O   0  0  0  0  0  0  0  0  0  0  0  0
   56.3350   29.7140   44.6070 C   0  0  0  0  0  0  0  0  0  0  0  0
   55.1570   29.3520   44.8750 O   0  0  0  0  0  0  0  0  0  0  0  0
   57.3890   28.6840   44.3610 C   0  0  0  0  0  0  0  0  0  0  0  0
   57.5990   27.8630   45.6020 C   0  0  0  0  0  0  0  0  0  0  0  0
   56.6920   27.0710   45.9710 O   0  0  0  0  0  0  0  0  0  0  0  0
   58.7190   28.0860   46.4700 N   0  0  0  0  0  0  0  0  0  0  0  0
   58.8600   29.0760   47.3000 C   0  0  0  0  0  0  0  0  0  0  0  0
   59.3440   28.8980   48.5490 N   0  0  0  0  0  0  0  0  0  0  0  0
   59.4330   30.0730   49.2280 C   0  0  0  0  0  0  0  0  0  0  0  0
   59.0280   31.1860   48.5070 C   0  0  0  0  0  0  0  0  0  0  0  0
   58.9950   32.8690   49.1090 S   0  0  0  0  0  0  0  0  0  0  0  0
   58.7430   33.5430   47.4580 C   0  0  0  0  0  0  0  0  0  0  0  0
   57.4680   33.6420   46.9880 N   0  0  0  0  0  0  0  0  0  0  0  0
   57.2000   34.0670   45.7230 C   0  0  0  0  0  0  0  0  0  0  0  0
   58.2410   34.4070   44.8630 C   0  0  0  0  0  0  0  0  0  0  0  0
   59.5570   34.3200   45.3160 C   0  0  0  0  0  0  0  0  0  0  0  0
   59.8280   33.9070   46.6280 C   0  0  0  0  0  0  0  0  0  0  0  0
   61.2370   33.8460   47.0800 C   0  0  0  0  0  0  0  0  0  0  0  0
   62.1440   33.6560   46.2280 O   0  0  0  0  0  0  0  0  0  0  0  0
   61.6040   33.9710   48.4590 N   0  0  0  0  0  0  0  0  0  0  0  0
   62.6040   33.2030   49.1460 C   0  0  0  0  0  0  0  0  0  0  0  0
   63.9760   33.4540   48.9770 C   0  0  0  0  0  0  0  0  0  0  0  0
   64.9220   32.6840   49.6590 C   0  0  0  0  0  0  0  0  0  0  0  0
   64.5140   31.6410   50.5050 C   0  0  0  0  0  0  0  0  0  0  0  0
   65.4920   30.8570   51.2150 N   0  0  0  0  0  0  0  0  0  0  0  0
   65.1500   29.5250   51.7300 C   0  0  0  0  0  0  0  0  0  0  0  0
   66.3430   28.5500   51.5840 C   0  0  0  0  0  0  0  0  0  0  0  0
   67.5620   29.1820   51.2250 O   0  0  0  0  0  0  0  0  0  0  0  0
   67.7620   30.3420   52.0060 C   0  0  0  0  0  0  0  0  0  0  0  0
   66.8010   31.4370   51.5420 C   0  0  0  0  0  0  0  0  0  0  0  0
   63.1420   31.3820   50.6580 C   0  0  0  0  0  0  0  0  0  0  0  0
   62.1970   32.1510   49.9740 C   0  0  0  0  0  0  0  0  0  0  0  0
   58.5480   30.7040   46.9720 S   0  0  0  0  0  0  0  0  0  0  0  0
   58.4204   32.0334   44.0041 H   0  0  0  0  0  0  0  0  0  0  0  0
   57.9057   30.7285   42.8820 H   0  0  0  0  0  0  0  0  0  0  0  0
   57.0441   32.3046   42.8820 H   0  0  0  0  0  0  0  0  0  0  0  0
   57.0721   28.0268   43.5378 H   0  0  0  0  0  0  0  0  0  0  0  0
   58.3310   29.1853   44.0939 H   0  0  0  0  0  0  0  0  0  0  0  0
   59.7965   30.1353   50.2643 H   0  0  0  0  0  0  0  0  0  0  0  0
   56.6690   33.3710   47.6040 H   0  0  0  0  0  0  0  0  0  0  0  0
   56.1579   34.1421   45.3790 H   0  0  0  0  0  0  0  0  0  0  0  0
   58.0275   34.7408   43.8368 H   0  0  0  0  0  0  0  0  0  0  0  0
   60.3864   34.5767   44.6406 H   0  0  0  0  0  0  0  0  0  0  0  0
   64.3069   34.2598   48.3052 H   0  0  0  0  0  0  0  0  0  0  0  0
   65.9937   32.8968   49.5319 H   0  0  0  0  0  0  0  0  0  0  0  0
   64.8820   29.6086   52.7936 H   0  0  0  0  0  0  0  0  0  0  0  0
   64.3031   29.1316   51.1486 H   0  0  0  0  0  0  0  0  0  0  0  0
   66.4896   28.0357   52.5453 H   0  0  0  0  0  0  0  0  0  0  0  0
   66.0906   27.8567   50.7681 H   0  0  0  0  0  0  0  0  0  0  0  0
   67.5708   30.1098   53.0641 H   0  0  0  0  0  0  0  0  0  0  0  0
   68.7993   30.6894   51.8900 H   0  0  0  0  0  0  0  0  0  0  0  0
   66.6796   32.1784   52.3455 H   0  0  0  0  0  0  0  0  0  0  0  0
   67.2139   31.9206   50.6444 H   0  0  0  0  0  0  0  0  0  0  0  0
   62.8095   30.5690   51.3202 H   0  0  0  0  0  0  0  0  0  0  0  0
   61.1258   31.9279   50.0872 H   0  0  0  0  0  0  0  0  0  0  0  0
  1  2  1  0
  2  3  1  0
  3  4  2  0
  3  5  1  0
  5  6  1  0
  6  7  2  0
  6  8  1  0
  8  9  2  3
  9 10  1  0
 10 11  1  0
 11 12  2  0
 12 13  1  0
 13 14  1  0
 14 15  2  0
 15 16  1  0
 16 17  2  0
 17 18  1  0
 18 19  2  0
 19 20  1  0
 20 21  2  0
 20 22  1  0
 22 23  1  0
 23 24  2  0
 24 25  1  0
 25 26  2  0
 26 27  1  0
 27 28  1  0
 28 29  1  0
 29 30  1  0
 30 31  1  0
 31 32  1  0
 26 33  1  0
 33 34  2  0
 12 35  1  0
 35  9  1  0
 19 14  1  0
 34 23  1  0
 32 27  1  0
  1 36  1  0
  1 37  1  0
  1 38  1  0
  5 39  1  0
  5 40  1  0
 11 41  1  0
 15 42  1  0
 16 43  1  0
 17 44  1  0
 18 45  1  0
 24 46  1  0
 25 47  1  0
 28 48  1  0
 28 49  1  0
 29 50  1  0
 29 51  1  0
 31 52  1  0
 31 53  1  0
 32 54  1  0
 32 55  1  0
 33 56  1  0
 34 57  1  0
M  CHG  3  10  -1  15   1  22  -1
M  END
>  <UniqueID>  (11) 
10

>  <SMILES>  (11) 
COC(=O)CC(=O)N=c1[n-]cc(Sc2[nH+]cccc2C(=O)[N-]c2ccc(N3CCOCC3)cc2)s1

>  <Energy>  (11) 
109.33834166664516

>  <Genealogy>  (11) 
COC(=O)CC(=O)N=c1[n-]cc(Sc2[nH+]cccc2C(=O)[N-]c2ccc(N3CCOCC3)cc2)s1 (protonated)
COC(=O)CC(=O)N=c1[n-]cc(Sc2[nH+]cccc2C(=O)[N-]c2ccc(N3CCOCC3)cc2)s1 (3D coordinates assigned)
COC(=O)CC(=O)N=c1[n-]cc(Sc2[nH+]cccc2C(=O)[N-]c2ccc(N3CCOCC3)cc2)s1 (nonaromatic ring conformer: 109.33834166664516 kcal/mol)

>  <smiles>  (11) 
COC(=O)CC(=O)N=c1[nH]cc(Sc2ncccc2C(=O)Nc2ccc(N3CCOCC3)cc2)s1

>  <score_type>  (11) 
oracle

>  <origin>  (11) 
adg

>  <m_score__min__energy>  (11) 
-10.48

>  <m_primary>  (11) 
energy

$$$$
11:0
     RDKit          3D

 50 53  0  0  0  0  0  0  0  0999 V2000
   57.3040   31.4080   51.8310 C   0  0  0  0  0  0  0  0  0  0  0  0
   58.3750   32.0700   51.0140 C   0  0  0  0  0  0  0  0  0  0  0  0
   59.5610   32.5060   51.6130 C   0  0  0  0  0  0  0  0  0  0  0  0
   60.5340   33.1470   50.8430 C   0  0  0  0  0  0  0  0  0  0  0  0
   60.3350   33.3690   49.5050 N   0  0  0  0  0  0  0  0  0  0  0  0
   61.2940   33.9940   48.7440 C   0  0  0  0  0  0  0  0  0  0  0  0
   62.3840   34.3740   49.2570 O   0  0  0  0  0  0  0  0  0  0  0  0
   61.0770   34.2190   47.3840 C   0  0  0  0  0  0  0  0  0  0  0  0
   59.8710   33.8110   46.8130 C   0  0  0  0  0  0  0  0  0  0  0  0
   59.6210   34.0200   45.3440 C   0  0  0  0  0  0  0  0  0  0  0  0
   58.2610   33.7580   44.9890 O   0  0  0  0  0  0  0  0  0  0  0  0
   57.7950   32.5880   44.3650 C   0  0  0  0  0  0  0  0  0  0  0  0
   57.7630   32.5510   42.9660 C   0  0  0  0  0  0  0  0  0  0  0  0
   57.2960   31.4170   42.2970 C   0  0  0  0  0  0  0  0  0  0  0  0
   56.8620   30.3040   43.0240 C   0  0  0  0  0  0  0  0  0  0  0  0
   56.9020   30.3130   44.4220 C   0  0  0  0  0  0  0  0  0  0  0  0
   56.4160   29.1630   45.1330 N   0  0  0  0  0  0  0  0  0  0  0  0
   57.1760   28.3140   46.0040 C   0  0  0  0  0  0  0  0  0  0  0  0
   57.8380   28.8430   46.9340 O   0  0  0  0  0  0  0  0  0  0  0  0
   57.1910   26.8390   45.8570 C   0  0  0  0  0  0  0  0  0  0  0  0
   58.4210   26.1780   45.7160 C   0  0  0  0  0  0  0  0  0  0  0  0
   58.4660   24.7940   45.5460 C   0  0  0  0  0  0  0  0  0  0  0  0
   57.2840   24.0510   45.5200 C   0  0  0  0  0  0  0  0  0  0  0  0
   56.0440   24.6890   45.6730 C   0  0  0  0  0  0  0  0  0  0  0  0
   54.7750   23.8890   45.6440 C   0  0  0  0  0  0  0  0  0  0  0  0
   55.9990   26.0840   45.8550 C   0  0  0  0  0  0  0  0  0  0  0  0
   54.7720   26.7120   46.0520 O   0  0  0  0  0  0  0  0  0  0  0  0
   57.3530   31.4660   45.0900 C   0  0  0  0  0  0  0  0  0  0  0  0
   58.9420   33.1970   47.5900 N   0  0  0  0  0  0  0  0  0  0  0  0
   59.1570   32.9670   48.9100 C   0  0  0  0  0  0  0  0  0  0  0  0
   58.1680   32.3170   49.6550 C   0  0  0  0  0  0  0  0  0  0  0  0
   57.5226   31.5431   52.9006 H   0  0  0  0  0  0  0  0  0  0  0  0
   56.3300   31.8619   51.5956 H   0  0  0  0  0  0  0  0  0  0  0  0
   57.2745   30.3339   51.5956 H   0  0  0  0  0  0  0  0  0  0  0  0
   59.7272   32.3445   52.6883 H   0  0  0  0  0  0  0  0  0  0  0  0
   61.4707   33.4775   51.3156 H   0  0  0  0  0  0  0  0  0  0  0  0
   61.8461   34.7112   46.7706 H   0  0  0  0  0  0  0  0  0  0  0  0
   59.8602   35.0627   45.0880 H   0  0  0  0  0  0  0  0  0  0  0  0
   60.2586   33.3171   44.7877 H   0  0  0  0  0  0  0  0  0  0  0  0
   58.1082   33.4216   42.3890 H   0  0  0  0  0  0  0  0  0  0  0  0
   57.2696   31.3995   41.1975 H   0  0  0  0  0  0  0  0  0  0  0  0
   56.4870   29.4164   42.4933 H   0  0  0  0  0  0  0  0  0  0  0  0
   59.3568   26.7556   45.7397 H   0  0  0  0  0  0  0  0  0  0  0  0
   59.4353   24.2866   45.4321 H   0  0  0  0  0  0  0  0  0  0  0  0
   57.3253   22.9609   45.3790 H   0  0  0  0  0  0  0  0  0  0  0  0
   54.4479   23.6828   46.6738 H   0  0  0  0  0  0  0  0  0  0  0  0
   53.9944   24.4586   45.1185 H   0  0  0  0  0  0  0  0  0  0  0  0
   54.9523   22.9391   45.1185 H   0  0  0  0  0  0  0  0  0  0  0  0
   57.3602   31.4907   46.1897 H   0  0  0  0  0  0  0  0  0  0  0  0
   57.2310   32.0016   49.1727 H   0  0  0  0  0  0  0  0  0  0  0  0
  1  2  1  0
  2  3  1  0
  3  4  2  0
  4  5  1  0
  5  6  1  0
  6  7  2  0
  6  8  1  0
  8  9  2  0
  9 10  1  0
 10 11  1  0
 11 12  1  0
 12 13  2  0
 13 14  1  0
 14 15  2  0
 15 16  1  0
 16 17  1  0
 17 18  1  0
 18 19  2  0
 18 20  1  0
 20 21  2  0
 21 22  1  0
 22 23  2  0
 23 24  1  0
 24 25  1  0
 24 26  2  0
 26 27  1  0
 16 28  2  0
  9 29  1  0
 29 30  2  0
 30 31  1  0
 31  2  2  0
 30  5  1  0
 28 12  1  0
 26 20  1  0
  1 32  1  0
  1 33  1  0
  1 34  1  0
  3 35  1  0
  4 36  1  0
  8 37  1  0
 10 38  1  0
 10 39  1  0
 13 40  1  0
 14 41  1  0
 15 42  1  0
 21 43  1  0
 22 44  1  0
 23 45  1  0
 25 46  1  0
 25 47  1  0
 25 48  1  0
 28 49  1  0
 31 50  1  0
M  CHG  2  17  -1  27  -1
M  END
>  <UniqueID>  (12) 
11

>  <SMILES>  (12) 
Cc1ccn2c(=O)cc(COc3cccc([N-]C(=O)c4cccc(C)c4[O-])c3)nc2c1

>  <Energy>  (12) 
66.3978456193173

>  <Genealogy>  (12) 
Cc1ccn2c(=O)cc(COc3cccc([N-]C(=O)c4cccc(C)c4[O-])c3)nc2c1 (protonated)
Cc1ccn2c(=O)cc(COc3cccc([N-]C(=O)c4cccc(C)c4[O-])c3)nc2c1 (3D coordinates assigned)
Cc1ccn2c(=O)cc(COc3cccc([N-]C(=O)c4cccc(C)c4[O-])c3)nc2c1 (optimized conformer: 66.3978456193173 kcal/mol)

>  <smiles>  (12) 
Cc1ccn2c(=O)cc(COc3cccc(NC(=O)c4cccc(C)c4O)c3)nc2c1

>  <score_type>  (12) 
oracle

>  <origin>  (12) 
adg

>  <m_score__min__energy>  (12) 
-15.220000000000001

>  <m_primary>  (12) 
energy

$$$$
12:0
     RDKit          3D

 45 47  0  0  0  0  0  0  0  0999 V2000
   56.8680   21.4520   48.7680 H   0  0  0  0  0  0  0  0  0  0  0  0
   56.9950   22.4880   48.7790 N   0  0  0  0  0  0  0  0  0  0  0  0
   56.9960   23.2400   47.5660 C   0  0  0  0  0  0  0  0  0  0  0  0
   57.6150   22.7920   46.5670 O   0  0  0  0  0  0  0  0  0  0  0  0
   56.3100   24.4960   47.4530 N   0  0  0  0  0  0  0  0  0  0  0  0
   56.6390   25.5350   46.7410 C   0  0  0  0  0  0  0  0  0  0  0  0
   55.7270   26.4530   46.3580 N   0  0  0  0  0  0  0  0  0  0  0  0
   56.2860   27.4530   45.6280 C   0  0  0  0  0  0  0  0  0  0  0  0
   55.5210   28.5190   45.1720 O   0  0  0  0  0  0  0  0  0  0  0  0
   57.6640   27.3340   45.4090 C   0  0  0  0  0  0  0  0  0  0  0  0
   58.5780   28.2450   44.6920 C   0  0  0  0  0  0  0  0  0  0  0  0
   59.4445   27.8080   44.1740 H   0  0  0  0  0  0  0  0  0  0  0  0
   58.4130   29.5720   44.6360 C   0  0  0  0  0  0  0  0  0  0  0  0
   58.7871   30.1261   43.7625 H   0  0  0  0  0  0  0  0  0  0  0  0
   57.7270   30.3180   45.7430 C   0  0  0  0  0  0  0  0  0  0  0  0
   56.6544   30.3998   45.5131 H   0  0  0  0  0  0  0  0  0  0  0  0
   57.8740   29.7686   46.6846 H   0  0  0  0  0  0  0  0  0  0  0  0
   58.3080   31.7000   45.8920 C   0  0  0  0  0  0  0  0  0  0  0  0
   57.5440   32.8250   45.5490 C   0  0  0  0  0  0  0  0  0  0  0  0
   56.5289   32.6958   45.1453 H   0  0  0  0  0  0  0  0  0  0  0  0
   58.0670   34.1080   45.7180 C   0  0  0  0  0  0  0  0  0  0  0  0
   57.4659   34.9862   45.4399 H   0  0  0  0  0  0  0  0  0  0  0  0
   59.3510   34.2800   46.2390 C   0  0  0  0  0  0  0  0  0  0  0  0
   59.7574   35.2943   46.3659 H   0  0  0  0  0  0  0  0  0  0  0  0
   60.1290   33.1650   46.6030 C   0  0  0  0  0  0  0  0  0  0  0  0
   61.5220   33.3380   47.1800 C   0  0  0  0  0  0  0  0  0  0  0  0
   62.1162   33.8928   46.4390 H   0  0  0  0  0  0  0  0  0  0  0  0
   62.2150   31.9790   47.4020 C   0  0  0  0  0  0  0  0  0  0  0  0
   61.6733   31.4250   48.1828 H   0  0  0  0  0  0  0  0  0  0  0  0
   62.2042   31.4270   46.4506 H   0  0  0  0  0  0  0  0  0  0  0  0
   63.6830   32.1570   47.8410 C   0  0  0  0  0  0  0  0  0  0  0  0
   63.9648   31.2997   48.4699 H   0  0  0  0  0  0  0  0  0  0  0  0
   64.2894   32.2196   46.9254 H   0  0  0  0  0  0  0  0  0  0  0  0
   63.9330   33.4530   48.6410 C   0  0  0  0  0  0  0  0  0  0  0  0
   64.7543   33.2797   49.3519 H   0  0  0  0  0  0  0  0  0  0  0  0
   64.1886   34.2507   47.9281 H   0  0  0  0  0  0  0  0  0  0  0  0
   62.6880   33.8910   49.4190 C   0  0  0  0  0  0  0  0  0  0  0  0
   62.4033   33.0891   50.1161 H   0  0  0  0  0  0  0  0  0  0  0  0
   62.9311   34.8173   49.9602 H   0  0  0  0  0  0  0  0  0  0  0  0
   61.4990   34.1820   48.4800 C   0  0  0  0  0  0  0  0  0  0  0  0
   60.5661   33.9646   49.0207 H   0  0  0  0  0  0  0  0  0  0  0  0
   61.5701   35.2388   48.1830 H   0  0  0  0  0  0  0  0  0  0  0  0
   59.5960   31.8760   46.4240 C   0  0  0  0  0  0  0  0  0  0  0  0
   60.1941   30.9962   46.7036 H   0  0  0  0  0  0  0  0  0  0  0  0
   58.1820   25.9370   46.1890 S   0  0  0  0  0  0  0  0  0  0  0  0
  1  2  1  0
  2  3  1  0
  3  4  2  0
  3  5  1  0
  5  6  2  0
  6  7  1  0
  7  8  1  0
  8  9  1  0
  8 10  2  0
 10 11  1  0
 11 12  1  0
 11 13  2  0
 13 14  1  0
 13 15  1  0
 15 16  1  0
 15 17  1  0
 15 18  1  0
 18 19  2  0
 19 20  1  0
 19 21  1  0
 21 22  1  0
 21 23  2  0
 23 24  1  0
 23 25  1  0
 25 26  1  0
 26 27  1  0
 26 28  1  0
 28 29  1  0
 28 30  1  0
 28 31  1  0
 31 32  1  0
 31 33  1  0
 31 34  1  0
 34 35  1  0
 34 36  1  0
 34 37  1  0
 37 38  1  0
 37 39  1  0
 37 40  1  0
 40 41  1  0
 40 42  1  0
 25 43  2  0
 43 44  1  0
 10 45  1  0
 45  6  1  0
 43 18  1  0
 40 26  1  0
M  CHG  3   2  -1   7  -1   9  -1
M  END
>  <UniqueID>  (13) 
12

>  <SMILES>  (13) 
[NH-]C(=O)/N=c1/[n-]c([O-])c(/C=C/Cc2cccc(C3CCCCC3)c2)s1

>  <Energy>  (13) 
81.36697100200132

>  <Genealogy>  (13) 
[NH-]C(=O)N=c1[n-]c([O-])c(C=CCc2cccc(C3CCCCC3)c2)s1 (protonated)
[NH-]C(=O)/N=c1/[n-]c([O-])c(/C=C/Cc2cccc(C3CCCCC3)c2)s1 (cis-trans isomerization)
[NH-]C(=O)/N=c1/[n-]c([O-])c(/C=C/Cc2cccc(C3CCCCC3)c2)s1 (3D coordinates assigned)
[NH-]C(=O)/N=c1/[n-]c([O-])c(/C=C/Cc2cccc(C3CCCCC3)c2)s1 (nonaromatic ring conformer: 81.36697100200132 kcal/mol)

>  <smiles>  (13) 
NC(=O)N=c1[nH]c(O)c(C=CCc2cccc(C3CCCCC3)c2)s1

>  <score_type>  (13) 
oracle

>  <origin>  (13) 
adg

>  <m_score__min__energy>  (13) 
-15.199999999999999

>  <m_primary>  (13) 
energy

$$$$
13:0
     RDKit          3D

 44 46  0  0  0  0  0  0  0  0999 V2000
   56.9110   28.6200   45.4030 C   0  0  0  0  0  0  0  0  0  0  0  0
   57.8010   27.5120   45.7530 N   0  0  0  0  0  0  0  0  0  0  0  0
   57.2640   26.2950   46.3080 C   0  0  0  0  0  0  0  0  0  0  0  0
   57.9890   25.2530   46.8510 C   0  0  0  0  0  0  0  0  0  0  0  0
   57.0470   24.3380   47.2740 C   0  0  0  0  0  0  0  0  0  0  0  0
   57.3460   23.1290   47.8870 O   0  0  0  0  0  0  0  0  0  0  0  0
   55.7860   24.7480   47.0270 N   0  0  0  0  0  0  0  0  0  0  0  0
   55.9280   25.9500   46.4370 C   0  0  0  0  0  0  0  0  0  0  0  0
   54.8490   26.7130   46.0100 O   0  0  0  0  0  0  0  0  0  0  0  0
   59.5240   27.7270   45.6010 S   0  0  0  0  0  0  0  0  0  0  0  0
   59.8810   28.0730   44.1820 O   0  0  0  0  0  0  0  0  0  0  0  0
   60.2100   26.4470   45.9870 O   0  0  0  0  0  0  0  0  0  0  0  0
   60.0660   29.0530   46.6280 C   0  0  0  0  0  0  0  0  0  0  0  0
   60.2950   30.3280   46.0910 C   0  0  0  0  0  0  0  0  0  0  0  0
   60.7250   31.3710   46.9160 C   0  0  0  0  0  0  0  0  0  0  0  0
   60.9150   31.1530   48.2930 C   0  0  0  0  0  0  0  0  0  0  0  0
   61.3810   32.1920   49.1650 N   0  0  0  0  0  0  0  0  0  0  0  0
   61.9540   33.4360   48.7500 C   0  0  0  0  0  0  0  0  0  0  0  0
   63.1950   33.5030   48.5480 O   0  0  0  0  0  0  0  0  0  0  0  0
   61.1380   34.6060   48.6230 N   0  0  0  0  0  0  0  0  0  0  0  0
   59.6820   34.5880   48.6940 C   0  0  0  0  0  0  0  0  0  0  0  0
   59.1030   34.2780   47.3410 C   0  0  0  0  0  0  0  0  0  0  0  0
   59.6310   34.8940   46.1940 C   0  0  0  0  0  0  0  0  0  0  0  0
   59.0770   34.6360   44.9370 C   0  0  0  0  0  0  0  0  0  0  0  0
   57.9930   33.7620   44.8160 C   0  0  0  0  0  0  0  0  0  0  0  0
   57.4600   33.1470   45.9520 C   0  0  0  0  0  0  0  0  0  0  0  0
   58.0090   33.4050   47.2120 C   0  0  0  0  0  0  0  0  0  0  0  0
   60.7060   29.8720   48.8190 C   0  0  0  0  0  0  0  0  0  0  0  0
   60.2720   28.8310   47.9950 C   0  0  0  0  0  0  0  0  0  0  0  0
   56.5327   29.0909   46.3223 H   0  0  0  0  0  0  0  0  0  0  0  0
   57.4659   29.3634   44.8118 H   0  0  0  0  0  0  0  0  0  0  0  0
   56.0655   28.2384   44.8118 H   0  0  0  0  0  0  0  0  0  0  0  0
   59.0831   25.1701   46.9295 H   0  0  0  0  0  0  0  0  0  0  0  0
   60.1358   30.5077   45.0175 H   0  0  0  0  0  0  0  0  0  0  0  0
   60.9156   32.3659   46.4872 H   0  0  0  0  0  0  0  0  0  0  0  0
   59.3621   33.8183   49.4118 H   0  0  0  0  0  0  0  0  0  0  0  0
   59.3250   35.5757   49.0210 H   0  0  0  0  0  0  0  0  0  0  0  0
   60.4841   35.5823   46.2856 H   0  0  0  0  0  0  0  0  0  0  0  0
   59.4944   35.1211   44.0423 H   0  0  0  0  0  0  0  0  0  0  0  0
   57.5592   33.5581   43.8259 H   0  0  0  0  0  0  0  0  0  0  0  0
   56.6073   32.4589   45.8549 H   0  0  0  0  0  0  0  0  0  0  0  0
   57.5835   32.9234   48.1047 H   0  0  0  0  0  0  0  0  0  0  0  0
   60.8848   29.6844   49.8880 H   0  0  0  0  0  0  0  0  0  0  0  0
   60.0914   27.8333   48.4215 H   0  0  0  0  0  0  0  0  0  0  0  0
  1  2  1  0
  2  3  1  0
  3  4  1  0
  4  5  2  0
  5  6  1  0
  5  7  1  0
  7  8  1  0
  8  9  1  0
  2 10  1  0
 10 11  2  0
 10 12  2  0
 10 13  1  0
 13 14  2  0
 14 15  1  0
 15 16  2  0
 16 17  1  0
 17 18  1  0
 18 19  2  0
 18 20  1  0
 20 21  1  0
 21 22  1  0
 22 23  2  0
 23 24  1  0
 24 25  2  0
 25 26  1  0
 26 27  2  0
 16 28  1  0
 28 29  2  0
  8  3  2  0
 29 13  1  0
 27 22  1  0
  1 30  1  0
  1 31  1  0
  1 32  1  0
  4 33  1  0
 14 34  1  0
 15 35  1  0
 21 36  1  0
 21 37  1  0
 23 38  1  0
 24 39  1  0
 25 40  1  0
 26 41  1  0
 27 42  1  0
 28 43  1  0
 29 44  1  0
M  CHG  5   6  -1   7  -1   9  -1  17  -1  20  -1
M  END
>  <UniqueID>  (14) 
13

>  <SMILES>  (14) 
CN(c1cc([O-])[n-]c1[O-])S(=O)(=O)c1ccc([N-]C(=O)[N-]Cc2ccccc2)cc1

>  <Energy>  (14) 
77.48002398502894

>  <Genealogy>  (14) 
CN(c1cc([O-])[n-]c1[O-])S(=O)(=O)c1ccc([N-]C(=O)[N-]Cc2ccccc2)cc1 (protonated)
CN(c1cc([O-])[n-]c1[O-])S(=O)(=O)c1ccc([N-]C(=O)[N-]Cc2ccccc2)cc1 (3D coordinates assigned)
CN(c1cc([O-])[n-]c1[O-])S(=O)(=O)c1ccc([N-]C(=O)[N-]Cc2ccccc2)cc1 (optimized conformer: 77.48002398502894 kcal/mol)

>  <smiles>  (14) 
CN(c1cc(O)[nH]c1O)S(=O)(=O)c1ccc(NC(=O)NCc2ccccc2)cc1

>  <score_type>  (14) 
oracle

>  <origin>  (14) 
adg

>  <m_score__min__energy>  (14) 
-18.120000000000001

>  <m_primary>  (14) 
energy

$$$$
14:0
     RDKit          3D

 64 67  0  0  0  0  0  0  0  0999 V2000
   59.3000   22.3490   44.4440 C   0  0  0  0  0  0  0  0  0  0  0  0
   59.3270   23.3090   45.6300 C   0  0  0  0  0  0  0  0  0  0  0  0
   58.0810   24.0890   45.6850 N   0  0  0  0  0  0  0  0  0  0  0  0
   56.8550   23.5160   45.4160 C   0  0  0  0  0  0  0  0  0  0  0  0
   56.7980   22.2970   45.0890 O   0  0  0  0  0  0  0  0  0  0  0  0
   55.6880   24.2610   45.5030 N   0  0  0  0  0  0  0  0  0  0  0  0
   54.3860   23.6210   45.2220 C   0  0  0  0  0  0  0  0  0  0  0  0
   53.7710   23.0080   46.4920 C   0  0  0  0  0  0  0  0  0  0  0  0
   52.3090   22.5910   46.3140 C   0  0  0  0  0  0  0  0  0  0  0  0
   51.9670   22.6270   44.9440 O   0  0  0  0  0  0  0  0  0  0  0  0
   51.0510   23.6760   44.7190 C   0  0  0  0  0  0  0  0  0  0  0  0
   55.7440   25.5870   45.8750 C   0  0  0  0  0  0  0  0  0  0  0  0
   54.7020   26.2920   45.9670 O   0  0  0  0  0  0  0  0  0  0  0  0
   56.9800   26.1390   46.1570 C   0  0  0  0  0  0  0  0  0  0  0  0
   57.2730   27.3840   46.5580 N   0  0  0  0  0  0  0  0  0  0  0  0
   58.6270   27.3370   46.6950 C   0  0  0  0  0  0  0  0  0  0  0  0
   59.4320   28.4980   47.1340 C   0  0  0  0  0  0  0  0  0  0  0  0
   59.2240   29.0720   48.4000 C   0  0  0  0  0  0  0  0  0  0  0  0
   59.9800   30.1730   48.8130 C   0  0  0  0  0  0  0  0  0  0  0  0
   60.9630   30.7170   47.9670 C   0  0  0  0  0  0  0  0  0  0  0  0
   61.7420   31.8250   48.3330 O   0  0  0  0  0  0  0  0  0  0  0  0
   62.0100   32.9370   47.4830 C   0  0  0  0  0  0  0  0  0  0  0  0
   60.7400   33.3680   46.8270 C   0  0  0  0  0  0  0  0  0  0  0  0
   60.7800   33.9600   45.7140 O   0  0  0  0  0  0  0  0  0  0  0  0
   59.4820   33.0770   47.4500 N   0  0  0  0  0  0  0  0  0  0  0  0
   58.2020   33.4360   46.8430 C   0  0  0  0  0  0  0  0  0  0  0  0
   57.9910   32.6610   45.5700 C   0  0  0  0  0  0  0  0  0  0  0  0
   58.0070   33.3260   44.3320 C   0  0  0  0  0  0  0  0  0  0  0  0
   57.8110   32.6110   43.1450 C   0  0  0  0  0  0  0  0  0  0  0  0
   57.5980   31.2300   43.1870 C   0  0  0  0  0  0  0  0  0  0  0  0
   57.5750   30.5630   44.4150 C   0  0  0  0  0  0  0  0  0  0  0  0
   57.7690   31.2740   45.6040 C   0  0  0  0  0  0  0  0  0  0  0  0
   61.1750   30.1410   46.7100 C   0  0  0  0  0  0  0  0  0  0  0  0
   60.4180   29.0430   46.2930 C   0  0  0  0  0  0  0  0  0  0  0  0
   59.1750   26.1260   46.4000 N   0  0  0  0  0  0  0  0  0  0  0  0
   58.1000   25.3980   46.0630 C   0  0  0  0  0  0  0  0  0  0  0  0
   59.2709   21.3127   44.8117 H   0  0  0  0  0  0  0  0  0  0  0  0
   58.4071   22.5464   43.8327 H   0  0  0  0  0  0  0  0  0  0  0  0
   60.2026   22.4959   43.8327 H   0  0  0  0  0  0  0  0  0  0  0  0
   59.4356   22.7328   46.5607 H   0  0  0  0  0  0  0  0  0  0  0  0
   60.1757   23.9989   45.5122 H   0  0  0  0  0  0  0  0  0  0  0  0
   53.6957   24.3773   44.8202 H   0  0  0  0  0  0  0  0  0  0  0  0
   54.5497   22.8127   44.4941 H   0  0  0  0  0  0  0  0  0  0  0  0
   54.3566   22.1193   46.7699 H   0  0  0  0  0  0  0  0  0  0  0  0
   53.7971   23.7815   47.2737 H   0  0  0  0  0  0  0  0  0  0  0  0
   52.1706   21.5698   46.6987 H   0  0  0  0  0  0  0  0  0  0  0  0
   51.6618   23.2858   46.8694 H   0  0  0  0  0  0  0  0  0  0  0  0
   50.7041   24.0732   45.6843 H   0  0  0  0  0  0  0  0  0  0  0  0
   51.5438   24.4771   44.1486 H   0  0  0  0  0  0  0  0  0  0  0  0
   50.1908   23.2956   44.1486 H   0  0  0  0  0  0  0  0  0  0  0  0
   58.4604   28.6516   49.0710 H   0  0  0  0  0  0  0  0  0  0  0  0
   59.8052   30.6160   49.8045 H   0  0  0  0  0  0  0  0  0  0  0  0
   62.4165   33.7670   48.0795 H   0  0  0  0  0  0  0  0  0  0  0  0
   62.7439   32.6486   46.7160 H   0  0  0  0  0  0  0  0  0  0  0  0
   59.4750   32.5920   48.3760 H   0  0  0  0  0  0  0  0  0  0  0  0
   57.3891   33.2051   47.5472 H   0  0  0  0  0  0  0  0  0  0  0  0
   58.2056   34.5112   46.6105 H   0  0  0  0  0  0  0  0  0  0  0  0
   58.1742   34.4126   44.2959 H   0  0  0  0  0  0  0  0  0  0  0  0
   57.8246   33.1360   42.1784 H   0  0  0  0  0  0  0  0  0  0  0  0
   57.4484   30.6681   42.2532 H   0  0  0  0  0  0  0  0  0  0  0  0
   57.4040   29.4768   44.4466 H   0  0  0  0  0  0  0  0  0  0  0  0
   57.7477   30.7456   46.5685 H   0  0  0  0  0  0  0  0  0  0  0  0
   61.9451   30.5564   46.0434 H   0  0  0  0  0  0  0  0  0  0  0  0
   60.5946   28.6024   45.3007 H   0  0  0  0  0  0  0  0  0  0  0  0
  1  2  1  0
  2  3  1  0
  3  4  1  0
  4  5  2  0
  4  6  1  0
  6  7  1  0
  7  8  1  0
  8  9  1  0
  9 10  1  0
 10 11  1  0
  6 12  1  0
 12 13  2  0
 12 14  1  0
 14 15  1  0
 15 16  2  0
 16 17  1  0
 17 18  2  0
 18 19  1  0
 19 20  2  0
 20 21  1  0
 21 22  1  0
 22 23  1  0
 23 24  2  0
 23 25  1  0
 25 26  1  0
 26 27  1  0
 27 28  2  0
 28 29  1  0
 29 30  2  0
 30 31  1  0
 31 32  2  0
 20 33  1  0
 33 34  2  0
 16 35  1  0
 35 36  1  0
 36  3  1  0
 36 14  2  0
 34 17  1  0
 32 27  1  0
  1 37  1  0
  1 38  1  0
  1 39  1  0
  2 40  1  0
  2 41  1  0
  7 42  1  0
  7 43  1  0
  8 44  1  0
  8 45  1  0
  9 46  1  0
  9 47  1  0
 11 48  1  0
 11 49  1  0
 11 50  1  0
 18 51  1  0
 19 52  1  0
 22 53  1  0
 22 54  1  0
 25 55  1  0
 26 56  1  0
 26 57  1  0
 28 58  1  0
 29 59  1  0
 30 60  1  0
 31 61  1  0
 32 62  1  0
 33 63  1  0
 34 64  1  0
M  CHG  1  35  -1
M  END
>  <UniqueID>  (15) 
14

>  <SMILES>  (15) 
CCn1c(=O)n(CCCOC)c(=O)c2nc(-c3ccc(OCC(=O)NCc4ccccc4)cc3)[n-]c21

>  <Energy>  (15) 
99.83055348954208

>  <Genealogy>  (15) 
CCn1c(=O)n(CCCOC)c(=O)c2nc(-c3ccc(OCC(=O)NCc4ccccc4)cc3)[n-]c21 (protonated)
CCn1c(=O)n(CCCOC)c(=O)c2nc(-c3ccc(OCC(=O)NCc4ccccc4)cc3)[n-]c21 (3D coordinates assigned)
CCn1c(=O)n(CCCOC)c(=O)c2nc(-c3ccc(OCC(=O)NCc4ccccc4)cc3)[n-]c21 (optimized conformer: 99.83055348954208 kcal/mol)

>  <smiles>  (15) 
CCn1c(=O)n(CCCOC)c(=O)c2nc(-c3ccc(OCC(=O)NCc4ccccc4)cc3)[nH]c21

>  <score_type>  (15) 
oracle

>  <origin>  (15) 
adg

>  <m_score__min__energy>  (15) 
-10.18

>  <m_primary>  (15) 
energy

$$$$
15:0
     RDKit          3D

 26 27  0  0  0  0  0  0  0  0999 V2000
   57.5170   32.4360   43.3320 O   0  0  0  0  0  0  0  0  0  0  0  0
   57.6040   32.2470   44.5750 C   0  0  0  0  0  0  0  0  0  0  0  0
   57.0710   31.0920   45.1590 O   0  0  0  0  0  0  0  0  0  0  0  0
   57.7150   29.8200   45.1100 C   0  0  0  0  0  0  0  0  0  0  0  0
   56.7100   28.7020   45.1720 C   0  0  0  0  0  0  0  0  0  0  0  0
   55.5140   28.9520   44.8630 O   0  0  0  0  0  0  0  0  0  0  0  0
   57.0840   27.3220   45.5840 C   0  0  0  0  0  0  0  0  0  0  0  0
   56.1180   26.3750   45.9780 C   0  0  0  0  0  0  0  0  0  0  0  0
   54.7710   26.7120   46.0420 O   0  0  0  0  0  0  0  0  0  0  0  0
   56.4990   25.1150   46.3250 N   0  0  0  0  0  0  0  0  0  0  0  0
   57.8090   24.7520   46.3130 C   0  0  0  0  0  0  0  0  0  0  0  0
   58.1440   23.5830   46.6410 O   0  0  0  0  0  0  0  0  0  0  0  0
   58.7590   25.6470   45.9490 N   0  0  0  0  0  0  0  0  0  0  0  0
   58.4320   26.9140   45.5870 C   0  0  0  0  0  0  0  0  0  0  0  0
   59.3490   27.7080   45.2410 O   0  0  0  0  0  0  0  0  0  0  0  0
   58.2590   33.2460   45.4260 C   0  0  0  0  0  0  0  0  0  0  0  0
   58.2030   33.3070   46.8130 C   0  0  0  0  0  0  0  0  0  0  0  0
   58.9440   34.3690   47.3480 C   0  0  0  0  0  0  0  0  0  0  0  0
   59.5820   35.1420   46.3870 C   0  0  0  0  0  0  0  0  0  0  0  0
   59.2260   34.5040   44.8720 S   0  0  0  0  0  0  0  0  0  0  0  0
   58.2832   29.7408   44.1715 H   0  0  0  0  0  0  0  0  0  0  0  0
   58.3869   29.7346   45.9768 H   0  0  0  0  0  0  0  0  0  0  0  0
   55.7720   24.4220   46.6140 H   0  0  0  0  0  0  0  0  0  0  0  0
   57.6347   32.5940   47.4284 H   0  0  0  0  0  0  0  0  0  0  0  0
   59.0137   34.5712   48.4270 H   0  0  0  0  0  0  0  0  0  0  0  0
   60.2127   36.0216   46.5831 H   0  0  0  0  0  0  0  0  0  0  0  0
  1  2  2  0
  2  3  1  0
  3  4  1  0
  4  5  1  0
  5  6  2  0
  5  7  1  0
  7  8  2  0
  8  9  1  0
  8 10  1  0
 10 11  1  0
 11 12  2  0
 11 13  1  0
 13 14  1  0
 14 15  2  0
  2 16  1  0
 16 17  2  0
 17 18  1  0
 18 19  2  0
 19 20  1  0
 14  7  1  0
 20 16  1  0
  4 21  1  0
  4 22  1  0
 10 23  1  0
 17 24  1  0
 18 25  1  0
 19 26  1  0
M  CHG  2   9  -1  13  -1
M  END
>  <UniqueID>  (16) 
15

>  <SMILES>  (16) 
O=C(OCC(=O)c1c([O-])[nH]c(=O)[n-]c1=O)c1cccs1

>  <Energy>  (16) 
56.0089952977169

>  <Genealogy>  (16) 
O=C(OCC(=O)c1c([O-])[nH]c(=O)[n-]c1=O)c1cccs1 (protonated)
O=C(OCC(=O)c1c([O-])[nH]c(=O)[n-]c1=O)c1cccs1 (3D coordinates assigned)
O=C(OCC(=O)c1c([O-])[nH]c(=O)[n-]c1=O)c1cccs1 (optimized conformer: 56.0089952977169 kcal/mol)

>  <smiles>  (16) 
O=C(OCC(=O)c1c(O)[nH]c(=O)[nH]c1=O)c1cccs1

>  <score_type>  (16) 
oracle

>  <origin>  (16) 
adg

>  <m_score__min__energy>  (16) 
-12.67

>  <m_primary>  (16) 
energy

$$$$
16:0
     RDKit          3D

 52 55  0  0  0  0  0  0  0  0999 V2000
   55.4510   29.1090   44.7140 O   0  0  0  0  0  0  0  0  0  0  0  0
   56.6980   29.0510   44.8770 C   0  0  0  0  0  0  0  0  0  0  0  0
   57.3770   27.8270   44.5700 N   0  0  0  0  0  0  0  0  0  0  0  0
   57.5100   26.7730   45.3280 C   0  0  0  0  0  0  0  0  0  0  0  0
   58.7480   26.2120   45.4190 N   0  0  0  0  0  0  0  0  0  0  0  0
   59.0060   25.1240   46.1900 C   0  0  0  0  0  0  0  0  0  0  0  0
   57.9820   24.5340   46.9270 C   0  0  0  0  0  0  0  0  0  0  0  0
   56.6970   25.0610   46.8490 C   0  0  0  0  0  0  0  0  0  0  0  0
   56.4360   26.1780   46.0430 C   0  0  0  0  0  0  0  0  0  0  0  0
   55.1300   26.6540   45.9430 O   0  0  0  0  0  0  0  0  0  0  0  0
   57.4440   30.2570   45.3170 C   0  0  0  0  0  0  0  0  0  0  0  0
   58.3590   30.1760   46.3850 C   0  0  0  0  0  0  0  0  0  0  0  0
   59.0690   31.3060   46.7950 C   0  0  0  0  0  0  0  0  0  0  0  0
   58.8770   32.5330   46.1500 C   0  0  0  0  0  0  0  0  0  0  0  0
   59.7350   33.9650   46.7130 S   0  0  0  0  0  0  0  0  0  0  0  0
   60.9660   34.1770   45.8790 O   0  0  0  0  0  0  0  0  0  0  0  0
   58.8430   35.1670   46.5800 O   0  0  0  0  0  0  0  0  0  0  0  0
   60.1840   33.7660   48.3710 N   0  0  0  0  0  0  0  0  0  0  0  0
   61.4430   33.1930   48.7280 C   0  0  0  0  0  0  0  0  0  0  0  0
   62.6240   33.8180   48.3080 C   0  0  0  0  0  0  0  0  0  0  0  0
   63.8660   33.3110   48.7000 C   0  0  0  0  0  0  0  0  0  0  0  0
   63.9330   32.1790   49.5140 C   0  0  0  0  0  0  0  0  0  0  0  0
   62.7600   31.5500   49.9380 C   0  0  0  0  0  0  0  0  0  0  0  0
   61.5060   32.0470   49.5460 C   0  0  0  0  0  0  0  0  0  0  0  0
   60.3000   31.4030   49.9950 N   0  0  0  0  0  0  0  0  0  0  0  0
   60.1350   29.9590   49.8120 C   0  0  0  0  0  0  0  0  0  0  0  0
   58.6430   29.6230   49.7310 C   0  0  0  0  0  0  0  0  0  0  0  0
   57.9480   30.1530   50.8430 O   0  0  0  0  0  0  0  0  0  0  0  0
   58.0040   31.5670   50.8170 C   0  0  0  0  0  0  0  0  0  0  0  0
   59.4440   32.0600   50.9840 C   0  0  0  0  0  0  0  0  0  0  0  0
   57.9600   32.6280   45.0960 C   0  0  0  0  0  0  0  0  0  0  0  0
   57.2490   31.4980   44.6800 C   0  0  0  0  0  0  0  0  0  0  0  0
   60.0237   24.7088   46.2324 H   0  0  0  0  0  0  0  0  0  0  0  0
   58.1871   23.6608   47.5638 H   0  0  0  0  0  0  0  0  0  0  0  0
   55.8807   24.5985   47.4232 H   0  0  0  0  0  0  0  0  0  0  0  0
   54.7820   27.0900   45.0940 H   0  0  0  0  0  0  0  0  0  0  0  0
   58.5151   29.2162   46.8992 H   0  0  0  0  0  0  0  0  0  0  0  0
   59.7826   31.2315   47.6288 H   0  0  0  0  0  0  0  0  0  0  0  0
   62.5738   34.7109   47.6675 H   0  0  0  0  0  0  0  0  0  0  0  0
   64.7911   33.8042   48.3669 H   0  0  0  0  0  0  0  0  0  0  0  0
   64.9113   31.7815   49.8221 H   0  0  0  0  0  0  0  0  0  0  0  0
   62.8186   30.6605   50.5825 H   0  0  0  0  0  0  0  0  0  0  0  0
   60.6322   29.6480   48.8814 H   0  0  0  0  0  0  0  0  0  0  0  0
   60.5854   29.4272   50.6631 H   0  0  0  0  0  0  0  0  0  0  0  0
   58.2264   30.0516   48.8076 H   0  0  0  0  0  0  0  0  0  0  0  0
   58.5273   28.5291   49.7314 H   0  0  0  0  0  0  0  0  0  0  0  0
   57.6100   31.9254   49.8546 H   0  0  0  0  0  0  0  0  0  0  0  0
   57.4000   31.9580   51.6490 H   0  0  0  0  0  0  0  0  0  0  0  0
   59.4789   33.1492   50.8339 H   0  0  0  0  0  0  0  0  0  0  0  0
   59.8001   31.8189   51.9965 H   0  0  0  0  0  0  0  0  0  0  0  0
   57.7986   33.5935   44.5942 H   0  0  0  0  0  0  0  0  0  0  0  0
   56.5324   31.5789   43.8494 H   0  0  0  0  0  0  0  0  0  0  0  0
  1  2  2  0
  2  3  1  0
  3  4  2  3
  4  5  1  0
  5  6  1  0
  6  7  2  0
  7  8  1  0
  8  9  2  0
  9 10  1  0
  2 11  1  0
 11 12  2  0
 12 13  1  0
 13 14  2  0
 14 15  1  0
 15 16  2  0
 15 17  2  0
 15 18  1  0
 18 19  1  0
 19 20  2  0
 20 21  1  0
 21 22  2  0
 22 23  1  0
 23 24  2  0
 24 25  1  0
 25 26  1  0
 26 27  1  0
 27 28  1  0
 28 29  1  0
 29 30  1  0
 14 31  1  0
 31 32  2  0
  9  4  1  0
 32 11  1  0
 24 19  1  0
 30 25  1  0
  6 33  1  0
  7 34  1  0
  8 35  1  0
 10 36  1  0
 12 37  1  0
 13 38  1  0
 20 39  1  0
 21 40  1  0
 22 41  1  0
 23 42  1  0
 26 43  1  0
 26 44  1  0
 27 45  1  0
 27 46  1  0
 29 47  1  0
 29 48  1  0
 30 49  1  0
 30 50  1  0
 31 51  1  0
 32 52  1  0
M  CHG  2   5  -1  18  -1
M  END
>  <UniqueID>  (17) 
16

>  <SMILES>  (17) 
O=C(N=c1[n-]cccc1O)c1ccc(S(=O)(=O)[N-]c2ccccc2N2CCOCC2)cc1

>  <Energy>  (17) 
83.00503164377142

>  <Genealogy>  (17) 
O=C(N=c1[n-]cccc1O)c1ccc(S(=O)(=O)[N-]c2ccccc2N2CCOCC2)cc1 (protonated)
O=C(N=c1[n-]cccc1O)c1ccc(S(=O)(=O)[N-]c2ccccc2N2CCOCC2)cc1 (3D coordinates assigned)
O=C(N=c1[n-]cccc1O)c1ccc(S(=O)(=O)[N-]c2ccccc2N2CCOCC2)cc1 (nonaromatic ring conformer: 83.00503164377142 kcal/mol)

>  <smiles>  (17) 
O=C(N=c1[nH]cccc1O)c1ccc(S(=O)(=O)Nc2ccccc2N2CCOCC2)cc1

>  <score_type>  (17) 
oracle

>  <origin>  (17) 
adg

>  <m_score__min__energy>  (17) 
-12.42

>  <m_primary>  (17) 
energy

$$$$
17:0
     RDKit          3D

 54 55  0  0  0  0  0  0  0  0999 V2000
   56.2004   34.2151   45.3870 H   0  0  0  0  0  0  0  0  0  0  0  0
   57.2490   33.9770   45.6190 C   0  0  0  0  0  0  0  0  0  0  0  0
   57.5400   33.0610   46.5790 N   0  0  0  0  0  0  0  0  0  0  0  0
   58.8250   32.7330   46.9070 C   0  0  0  0  0  0  0  0  0  0  0  0
   59.0800   31.8280   47.8100 N   0  0  0  0  0  0  0  0  0  0  0  0
   59.4980   30.4660   47.5910 C   0  0  0  0  0  0  0  0  0  0  0  0
   60.2970   29.8840   48.3870 O   0  0  0  0  0  0  0  0  0  0  0  0
   58.9860   29.7380   46.4260 C   0  0  0  0  0  0  0  0  0  0  0  0
   58.2290   30.3180   45.4590 N   0  0  0  0  0  0  0  0  0  0  0  0
   57.8800   29.4290   44.4860 C   0  0  0  0  0  0  0  0  0  0  0  0
   56.9540   29.7990   43.3480 C   0  0  0  0  0  0  0  0  0  0  0  0
   57.0971   29.0722   42.5348 H   0  0  0  0  0  0  0  0  0  0  0  0
   55.4950   29.7340   43.8180 C   0  0  0  0  0  0  0  0  0  0  0  0
   55.4637   29.7326   44.9176 H   0  0  0  0  0  0  0  0  0  0  0  0
   54.9476   30.6086   43.4367 H   0  0  0  0  0  0  0  0  0  0  0  0
   55.0276   28.8141   43.4367 H   0  0  0  0  0  0  0  0  0  0  0  0
   57.2880   31.1880   42.7830 C   0  0  0  0  0  0  0  0  0  0  0  0
   57.4569   31.8904   43.6126 H   0  0  0  0  0  0  0  0  0  0  0  0
   58.1964   31.1241   42.1659 H   0  0  0  0  0  0  0  0  0  0  0  0
   56.4499   31.5441   42.1659 H   0  0  0  0  0  0  0  0  0  0  0  0
   58.3450   28.1200   44.6920 C   0  0  0  0  0  0  0  0  0  0  0  0
   58.1623   27.2598   44.0311 H   0  0  0  0  0  0  0  0  0  0  0  0
   59.2300   28.0930   46.1240 S   0  0  0  0  0  0  0  0  0  0  0  0
   59.8930   33.3680   46.2470 C   0  0  0  0  0  0  0  0  0  0  0  0
   61.2100   33.0050   46.5840 O   0  0  0  0  0  0  0  0  0  0  0  0
   62.3600   33.8280   46.3650 C   0  0  0  0  0  0  0  0  0  0  0  0
   62.0676   34.8867   46.4247 H   0  0  0  0  0  0  0  0  0  0  0  0
   62.7753   33.6126   45.3694 H   0  0  0  0  0  0  0  0  0  0  0  0
   63.4240   33.5330   47.4310 C   0  0  0  0  0  0  0  0  0  0  0  0
   63.4173   34.3486   48.1691 H   0  0  0  0  0  0  0  0  0  0  0  0
   64.3937   33.4545   46.9176 H   0  0  0  0  0  0  0  0  0  0  0  0
   63.1790   32.1940   48.1710 C   0  0  0  0  0  0  0  0  0  0  0  0
   64.0513   31.9793   48.8058 H   0  0  0  0  0  0  0  0  0  0  0  0
   63.0274   31.4178   47.4064 H   0  0  0  0  0  0  0  0  0  0  0  0
   61.9590   32.2190   49.0310 N   0  0  0  0  0  0  0  0  0  0  0  0
   61.1430   31.9060   48.4560 H   0  0  0  0  0  0  0  0  0  0  0  0
   61.6380   33.6080   49.4640 C   0  0  0  0  0  0  0  0  0  0  0  0
   61.8470   34.2868   48.6240 H   0  0  0  0  0  0  0  0  0  0  0  0
   62.2610   33.8124   50.3472 H   0  0  0  0  0  0  0  0  0  0  0  0
   60.1750   33.8190   49.9010 C   0  0  0  0  0  0  0  0  0  0  0  0
   60.1180   33.8272   50.9995 H   0  0  0  0  0  0  0  0  0  0  0  0
   59.8097   34.7791   49.5077 H   0  0  0  0  0  0  0  0  0  0  0  0
   59.5533   33.0012   49.5077 H   0  0  0  0  0  0  0  0  0  0  0  0
   62.0820   31.2570   50.1630 C   0  0  0  0  0  0  0  0  0  0  0  0
   61.4388   31.6025   50.9857 H   0  0  0  0  0  0  0  0  0  0  0  0
   61.7786   30.2697   49.7847 H   0  0  0  0  0  0  0  0  0  0  0  0
   63.5220   31.1180   50.6940 C   0  0  0  0  0  0  0  0  0  0  0  0
   63.5089   31.1193   51.7939 H   0  0  0  0  0  0  0  0  0  0  0  0
   63.9562   30.1738   50.3336 H   0  0  0  0  0  0  0  0  0  0  0  0
   64.1288   31.9617   50.3336 H   0  0  0  0  0  0  0  0  0  0  0  0
   59.6040   34.3220   45.2500 C   0  0  0  0  0  0  0  0  0  0  0  0
   60.4244   34.8348   44.7265 H   0  0  0  0  0  0  0  0  0  0  0  0
   58.2790   34.6170   44.9260 C   0  0  0  0  0  0  0  0  0  0  0  0
   58.0486   35.3450   44.1342 H   0  0  0  0  0  0  0  0  0  0  0  0
  1  2  1  0
  2  3  1  0
  3  4  1  0
  4  5  2  0
  5  6  1  0
  6  7  2  0
  6  8  1  0
  8  9  2  0
  9 10  1  0
 10 11  1  0
 11 12  1  0
 11 13  1  0
 13 14  1  0
 13 15  1  0
 13 16  1  0
 11 17  1  0
 17 18  1  0
 17 19  1  0
 17 20  1  0
 10 21  2  0
 21 22  1  0
 21 23  1  0
  4 24  1  0
 24 25  1  0
 25 26  1  0
 26 27  1  0
 26 28  1  0
 26 29  1  0
 29 30  1  0
 29 31  1  0
 29 32  1  0
 32 33  1  0
 32 34  1  0
 32 35  1  0
 35 36  1  0
 35 37  1  0
 37 38  1  0
 37 39  1  0
 37 40  1  0
 40 41  1  0
 40 42  1  0
 40 43  1  0
 35 44  1  0
 44 45  1  0
 44 46  1  0
 44 47  1  0
 47 48  1  0
 47 49  1  0
 47 50  1  0
 24 51  2  0
 51 52  1  0
 51 53  1  0
 53 54  1  0
 53  2  2  0
 23  8  1  0
M  CHG  2   3  -1  35   1
M  END
>  <UniqueID>  (18) 
17

>  <SMILES>  (18) 
CC[NH+](CC)CCCOc1ccc[n-]/c1=N\C(=O)c1nc(C(C)C)cs1

>  <Energy>  (18) 
82.32551712060713

>  <Genealogy>  (18) 
CC[NH+](CC)CCCOc1ccc[n-]c1=NC(=O)c1nc(C(C)C)cs1 (protonated)
CC[NH+](CC)CCCOc1ccc[n-]/c1=N\C(=O)c1nc(C(C)C)cs1 (cis-trans isomerization)
CC[NH+](CC)CCCOc1ccc[n-]/c1=N\C(=O)c1nc(C(C)C)cs1 (3D coordinates assigned)
CC[NH+](CC)CCCOc1ccc[n-]/c1=N\C(=O)c1nc(C(C)C)cs1 (optimized conformer: 82.32551712060713 kcal/mol)

>  <smiles>  (18) 
CCN(CC)CCCOc1ccc[nH]c1=NC(=O)c1nc(C(C)C)cs1

>  <score_type>  (18) 
oracle

>  <origin>  (18) 
adg

>  <m_score__min__energy>  (18) 
-8.0999999999999996

>  <m_primary>  (18) 
energy

$$$$
18:0
     RDKit          3D

 34 36  0  0  0  0  0  0  0  0999 V2000
   58.4060   26.9120   47.3350 O   0  0  0  0  0  0  0  0  0  0  0  0
   57.6410   27.2950   46.4090 C   0  0  0  0  0  0  0  0  0  0  0  0
   56.7760   26.3490   45.7600 N   0  0  0  0  0  0  0  0  0  0  0  0
   56.4940   25.0330   46.3290 C   0  0  0  0  0  0  0  0  0  0  0  0
   56.8390   23.9580   45.3370 C   0  0  0  0  0  0  0  0  0  0  0  0
   57.9590   23.1320   45.5350 C   0  0  0  0  0  0  0  0  0  0  0  0
   58.2550   22.1160   44.6210 C   0  0  0  0  0  0  0  0  0  0  0  0
   57.4340   21.9130   43.5080 C   0  0  0  0  0  0  0  0  0  0  0  0
   56.3140   22.7250   43.3070 C   0  0  0  0  0  0  0  0  0  0  0  0
   55.5150   22.5250   42.2300 F   0  0  0  0  0  0  0  0  0  0  0  0
   56.0150   23.7430   44.2190 C   0  0  0  0  0  0  0  0  0  0  0  0
   57.6880   28.7070   45.9830 C   0  0  0  0  0  0  0  0  0  0  0  0
   58.7520   29.4660   46.3600 N   0  0  0  0  0  0  0  0  0  0  0  0
   58.8590   30.7730   46.0030 C   0  0  0  0  0  0  0  0  0  0  0  0
   60.0280   31.5610   46.4210 C   0  0  0  0  0  0  0  0  0  0  0  0
   60.1580   32.9420   46.3360 C   0  0  0  0  0  0  0  0  0  0  0  0
   61.3890   33.4120   46.8120 C   0  0  0  0  0  0  0  0  0  0  0  0
   62.2300   32.4070   47.2700 C   0  0  0  0  0  0  0  0  0  0  0  0
   61.4420   30.9330   47.0840 S   0  0  0  0  0  0  0  0  0  0  0  0
   57.8810   31.3500   45.2580 N   0  0  0  0  0  0  0  0  0  0  0  0
   56.7880   30.6460   44.8680 C   0  0  0  0  0  0  0  0  0  0  0  0
   55.8930   31.2110   44.1870 O   0  0  0  0  0  0  0  0  0  0  0  0
   56.6570   29.3020   45.2320 C   0  0  0  0  0  0  0  0  0  0  0  0
   55.5110   28.5960   44.8800 O   0  0  0  0  0  0  0  0  0  0  0  0
   56.3660   26.5810   44.8280 H   0  0  0  0  0  0  0  0  0  0  0  0
   57.0946   24.8940   47.2400 H   0  0  0  0  0  0  0  0  0  0  0  0
   55.4235   24.9678   46.5735 H   0  0  0  0  0  0  0  0  0  0  0  0
   58.6049   23.2854   46.4121 H   0  0  0  0  0  0  0  0  0  0  0  0
   59.1354   21.4754   44.7781 H   0  0  0  0  0  0  0  0  0  0  0  0
   57.6694   21.1137   42.7898 H   0  0  0  0  0  0  0  0  0  0  0  0
   55.1309   24.3780   44.0603 H   0  0  0  0  0  0  0  0  0  0  0  0
   59.3730   33.6001   45.9351 H   0  0  0  0  0  0  0  0  0  0  0  0
   61.6633   34.4772   46.8219 H   0  0  0  0  0  0  0  0  0  0  0  0
   63.2391   32.5502   47.6838 H   0  0  0  0  0  0  0  0  0  0  0  0
  1  2  2  0
  2  3  1  0
  3  4  1  0
  4  5  1  0
  5  6  2  0
  6  7  1  0
  7  8  2  0
  8  9  1  0
  9 10  1  0
  9 11  2  0
  2 12  1  0
 12 13  1  0
 13 14  1  0
 14 15  1  0
 15 16  2  0
 16 17  1  0
 17 18  2  0
 18 19  1  0
 14 20  2  0
 20 21  1  0
 21 22  2  0
 21 23  1  0
 23 24  1  0
 11  5  1  0
 23 12  2  0
 19 15  1  0
  3 25  1  0
  4 26  1  0
  4 27  1  0
  6 28  1  0
  7 29  1  0
  8 30  1  0
 11 31  1  0
 16 32  1  0
 17 33  1  0
 18 34  1  0
M  CHG  2  13  -1  24  -1
M  END
>  <UniqueID>  (19) 
18

>  <SMILES>  (19) 
O=C(NCc1cccc(F)c1)c1[n-]c(-c2cccs2)nc(=O)c1[O-]

>  <Energy>  (19) 
64.53948238192561

>  <Genealogy>  (19) 
O=C(NCc1cccc(F)c1)c1[n-]c(-c2cccs2)nc(=O)c1[O-] (protonated)
O=C(NCc1cccc(F)c1)c1[n-]c(-c2cccs2)nc(=O)c1[O-] (3D coordinates assigned)
O=C(NCc1cccc(F)c1)c1[n-]c(-c2cccs2)nc(=O)c1[O-] (optimized conformer: 64.53948238192561 kcal/mol)

>  <smiles>  (19) 
O=C(NCc1cccc(F)c1)c1[nH]c(-c2cccs2)nc(=O)c1O

>  <score_type>  (19) 
oracle

>  <origin>  (19) 
adg

>  <m_score__min__energy>  (19) 
-11.300000000000001

>  <m_primary>  (19) 
energy

$$$$
19:0
     RDKit          3D

 48 50  0  0  0  0  0  0  0  0999 V2000
   62.6210   31.6510   48.9040 C   0  0  0  0  0  0  0  0  0  0  0  0
   62.0020   30.8400   50.0390 C   0  0  0  0  0  0  0  0  0  0  0  0
   60.6340   30.5430   49.7600 O   0  0  0  0  0  0  0  0  0  0  0  0
   60.1670   29.3830   49.1190 C   0  0  0  0  0  0  0  0  0  0  0  0
   60.7750   28.1240   49.2800 C   0  0  0  0  0  0  0  0  0  0  0  0
   60.2400   26.9970   48.6500 C   0  0  0  0  0  0  0  0  0  0  0  0
   59.0750   27.1070   47.8750 C   0  0  0  0  0  0  0  0  0  0  0  0
   58.4410   25.9530   47.3030 N   0  0  0  0  0  0  0  0  0  0  0  0
   57.1760   25.9260   46.6200 C   0  0  0  0  0  0  0  0  0  0  0  0
   56.2410   25.2440   47.1120 O   0  0  0  0  0  0  0  0  0  0  0  0
   56.9270   26.6690   45.3350 C   0  0  0  0  0  0  0  0  0  0  0  0
   56.1920   27.8610   45.5850 O   0  0  0  0  0  0  0  0  0  0  0  0
   56.3400   29.0260   44.8280 C   0  0  0  0  0  0  0  0  0  0  0  0
   55.4510   29.9200   44.8400 O   0  0  0  0  0  0  0  0  0  0  0  0
   57.5670   29.1990   43.9860 C   0  0  0  0  0  0  0  0  0  0  0  0
   58.6750   29.9460   44.7360 C   0  0  0  0  0  0  0  0  0  0  0  0
   58.3830   31.4160   44.8430 C   0  0  0  0  0  0  0  0  0  0  0  0
   57.4450   32.1270   44.1000 C   0  0  0  0  0  0  0  0  0  0  0  0
   57.3900   33.4130   44.5150 N   0  0  0  0  0  0  0  0  0  0  0  0
   58.2710   33.5150   45.5250 C   0  0  0  0  0  0  0  0  0  0  0  0
   58.5390   34.6430   46.3000 C   0  0  0  0  0  0  0  0  0  0  0  0
   59.4840   34.5200   47.3350 C   0  0  0  0  0  0  0  0  0  0  0  0
   60.1310   33.2870   47.5700 C   0  0  0  0  0  0  0  0  0  0  0  0
   59.8430   32.1660   46.7710 C   0  0  0  0  0  0  0  0  0  0  0  0
   58.8990   32.3180   45.7540 C   0  0  0  0  0  0  0  0  0  0  0  0
   58.5150   28.3670   47.6550 C   0  0  0  0  0  0  0  0  0  0  0  0
   59.0510   29.4960   48.2820 C   0  0  0  0  0  0  0  0  0  0  0  0
   63.2377   32.4590   49.3246 H   0  0  0  0  0  0  0  0  0  0  0  0
   63.2497   30.9944   48.2847 H   0  0  0  0  0  0  0  0  0  0  0  0
   61.8218   32.0842   48.2847 H   0  0  0  0  0  0  0  0  0  0  0  0
   62.5592   29.8988   50.1557 H   0  0  0  0  0  0  0  0  0  0  0  0
   62.0534   31.4316   50.9649 H   0  0  0  0  0  0  0  0  0  0  0  0
   61.6753   28.0266   49.9045 H   0  0  0  0  0  0  0  0  0  0  0  0
   60.7337   26.0204   48.7619 H   0  0  0  0  0  0  0  0  0  0  0  0
   57.8913   26.9280   44.8735 H   0  0  0  0  0  0  0  0  0  0  0  0
   56.3444   26.0262   44.6587 H   0  0  0  0  0  0  0  0  0  0  0  0
   57.9414   28.2064   43.6952 H   0  0  0  0  0  0  0  0  0  0  0  0
   57.2927   29.7943   43.1026 H   0  0  0  0  0  0  0  0  0  0  0  0
   58.7650   29.5262   45.7488 H   0  0  0  0  0  0  0  0  0  0  0  0
   59.6118   29.8235   44.1727 H   0  0  0  0  0  0  0  0  0  0  0  0
   56.8344   31.7026   43.2894 H   0  0  0  0  0  0  0  0  0  0  0  0
   56.7660   34.1630   44.1440 H   0  0  0  0  0  0  0  0  0  0  0  0
   58.0280   35.5981   46.1083 H   0  0  0  0  0  0  0  0  0  0  0  0
   59.7204   35.3900   47.9653 H   0  0  0  0  0  0  0  0  0  0  0  0
   60.8658   33.2027   48.3842 H   0  0  0  0  0  0  0  0  0  0  0  0
   60.3447   31.2021   46.9417 H   0  0  0  0  0  0  0  0  0  0  0  0
   57.6485   28.4719   46.9856 H   0  0  0  0  0  0  0  0  0  0  0  0
   58.5916   30.4816   48.1160 H   0  0  0  0  0  0  0  0  0  0  0  0
  1  2  1  0
  2  3  1  0
  3  4  1  0
  4  5  2  0
  5  6  1  0
  6  7  2  0
  7  8  1  0
  8  9  1  0
  9 10  2  0
  9 11  1  0
 11 12  1  0
 12 13  1  0
 13 14  2  0
 13 15  1  0
 15 16  1  0
 16 17  1  0
 17 18  2  0
 18 19  1  0
 19 20  1  0
 20 21  2  0
 21 22  1  0
 22 23  2  0
 23 24  1  0
 24 25  2  0
  7 26  1  0
 26 27  2  0
 27  4  1  0
 25 17  1  0
 25 20  1  0
  1 28  1  0
  1 29  1  0
  1 30  1  0
  2 31  1  0
  2 32  1  0
  5 33  1  0
  6 34  1  0
 11 35  1  0
 11 36  1  0
 15 37  1  0
 15 38  1  0
 16 39  1  0
 16 40  1  0
 18 41  1  0
 19 42  1  0
 21 43  1  0
 22 44  1  0
 23 45  1  0
 24 46  1  0
 26 47  1  0
 27 48  1  0
M  CHG  1   8  -1
M  END
>  <UniqueID>  (20) 
19

>  <SMILES>  (20) 
CCOc1ccc([N-]C(=O)COC(=O)CCc2c[nH]c3ccccc23)cc1

>  <Energy>  (20) 
72.84106733994564

>  <Genealogy>  (20) 
CCOc1ccc([N-]C(=O)COC(=O)CCc2c[nH]c3ccccc23)cc1 (protonated)
CCOc1ccc([N-]C(=O)COC(=O)CCc2c[nH]c3ccccc23)cc1 (3D coordinates assigned)
CCOc1ccc([N-]C(=O)COC(=O)CCc2c[nH]c3ccccc23)cc1 (optimized conformer: 72.84106733994564 kcal/mol)

>  <smiles>  (20) 
CCOc1ccc(NC(=O)COC(=O)CCc2c[nH]c3ccccc23)cc1

>  <score_type>  (20) 
oracle

>  <origin>  (20) 
adg

>  <m_score__min__energy>  (20) 
-9.4299999999999997

>  <m_primary>  (20) 
energy

$$$$
20:0
     RDKit          3D

 46 48  0  0  0  0  0  0  0  0999 V2000
   54.6310   29.5190   45.3050 H   0  0  0  0  0  0  0  0  0  0  0  0
   55.4170   28.9700   44.8890 N   0  0  0  0  0  0  0  0  0  0  0  0
   56.6260   30.1020   44.3910 S   0  0  0  0  0  0  0  0  0  0  0  0
   56.2420   31.4750   44.8660 O   0  0  0  0  0  0  0  0  0  0  0  0
   56.6820   30.0880   42.8880 O   0  0  0  0  0  0  0  0  0  0  0  0
   58.2040   29.6530   45.0630 C   0  0  0  0  0  0  0  0  0  0  0  0
   58.7860   28.4410   44.6560 C   0  0  0  0  0  0  0  0  0  0  0  0
   58.2304   27.7680   43.9864 H   0  0  0  0  0  0  0  0  0  0  0  0
   60.0630   28.0820   45.0930 C   0  0  0  0  0  0  0  0  0  0  0  0
   60.5053   27.1276   44.7713 H   0  0  0  0  0  0  0  0  0  0  0  0
   60.7780   28.9310   45.9360 C   0  0  0  0  0  0  0  0  0  0  0  0
   61.7893   28.6525   46.2674 H   0  0  0  0  0  0  0  0  0  0  0  0
   60.2120   30.1340   46.3600 C   0  0  0  0  0  0  0  0  0  0  0  0
   60.7846   30.8041   47.0181 H   0  0  0  0  0  0  0  0  0  0  0  0
   58.9190   30.4960   45.9540 C   0  0  0  0  0  0  0  0  0  0  0  0
   58.3740   31.7670   46.4670 C   0  0  0  0  0  0  0  0  0  0  0  0
   57.9490   31.7970   47.4811 H   0  0  0  0  0  0  0  0  0  0  0  0
   58.3830   32.8830   45.7320 C   0  0  0  0  0  0  0  0  0  0  0  0
   57.4780   33.1529   45.1680 H   0  0  0  0  0  0  0  0  0  0  0  0
   59.5610   33.7660   45.6490 C   0  0  0  0  0  0  0  0  0  0  0  0
   59.7470   34.4250   44.5910 O   0  0  0  0  0  0  0  0  0  0  0  0
   60.4980   33.8870   46.7330 N   0  0  0  0  0  0  0  0  0  0  0  0
   60.0310   34.2690   48.0740 C   0  0  0  0  0  0  0  0  0  0  0  0
   60.1923   35.3471   48.2209 H   0  0  0  0  0  0  0  0  0  0  0  0
   58.9601   34.0329   48.1607 H   0  0  0  0  0  0  0  0  0  0  0  0
   60.8020   33.4910   49.1480 C   0  0  0  0  0  0  0  0  0  0  0  0
   60.6926   34.0102   50.1116 H   0  0  0  0  0  0  0  0  0  0  0  0
   60.3867   32.4737   49.1985 H   0  0  0  0  0  0  0  0  0  0  0  0
   62.2330   33.3860   48.8230 N   0  0  0  0  0  0  0  0  0  0  0  0
   63.0710   32.4930   49.5810 C   0  0  0  0  0  0  0  0  0  0  0  0
   62.5200   31.3670   50.2200 C   0  0  0  0  0  0  0  0  0  0  0  0
   61.4433   31.1600   50.1311 H   0  0  0  0  0  0  0  0  0  0  0  0
   63.3330   30.5100   50.9670 C   0  0  0  0  0  0  0  0  0  0  0  0
   62.8953   29.6302   51.4613 H   0  0  0  0  0  0  0  0  0  0  0  0
   64.7010   30.7690   51.0870 C   0  0  0  0  0  0  0  0  0  0  0  0
   65.3396   30.0919   51.6732 H   0  0  0  0  0  0  0  0  0  0  0  0
   65.2570   31.8870   50.4630 C   0  0  0  0  0  0  0  0  0  0  0  0
   66.3336   32.0911   50.5599 H   0  0  0  0  0  0  0  0  0  0  0  0
   64.4480   32.7480   49.7150 C   0  0  0  0  0  0  0  0  0  0  0  0
   64.8908   33.6297   49.2286 H   0  0  0  0  0  0  0  0  0  0  0  0
   62.7750   34.1370   47.6830 C   0  0  0  0  0  0  0  0  0  0  0  0
   62.7450   35.2136   47.9066 H   0  0  0  0  0  0  0  0  0  0  0  0
   63.8148   33.8264   47.5029 H   0  0  0  0  0  0  0  0  0  0  0  0
   61.9370   33.8530   46.4340 C   0  0  0  0  0  0  0  0  0  0  0  0
   62.1620   34.6135   45.6718 H   0  0  0  0  0  0  0  0  0  0  0  0
   62.1906   32.8468   46.0690 H   0  0  0  0  0  0  0  0  0  0  0  0
  1  2  1  0
  2  3  1  0
  3  4  2  0
  3  5  2  0
  3  6  1  0
  6  7  2  0
  7  8  1  0
  7  9  1  0
  9 10  1  0
  9 11  2  0
 11 12  1  0
 11 13  1  0
 13 14  1  0
 13 15  2  0
 15 16  1  0
 16 17  1  0
 16 18  2  0
 18 19  1  0
 18 20  1  0
 20 21  2  0
 20 22  1  0
 22 23  1  0
 23 24  1  0
 23 25  1  0
 23 26  1  0
 26 27  1  0
 26 28  1  0
 26 29  1  0
 29 30  1  0
 30 31  2  0
 31 32  1  0
 31 33  1  0
 33 34  1  0
 33 35  2  0
 35 36  1  0
 35 37  1  0
 37 38  1  0
 37 39  2  0
 39 40  1  0
 29 41  1  0
 41 42  1  0
 41 43  1  0
 41 44  1  0
 44 45  1  0
 44 46  1  0
 15  6  1  0
 44 22  1  0
 39 30  1  0
M  CHG  1   2  -1
M  END
>  <UniqueID>  (21) 
20

>  <SMILES>  (21) 
[NH-]S(=O)(=O)c1ccccc1/C=C/C(=O)N1CCN(c2ccccc2)CC1

>  <Energy>  (21) 
62.79454941617984

>  <Genealogy>  (21) 
[NH-]S(=O)(=O)c1ccccc1C=CC(=O)N1CCN(c2ccccc2)CC1 (protonated)
[NH-]S(=O)(=O)c1ccccc1/C=C/C(=O)N1CCN(c2ccccc2)CC1 (cis-trans isomerization)
[NH-]S(=O)(=O)c1ccccc1/C=C/C(=O)N1CCN(c2ccccc2)CC1 (3D coordinates assigned)
[NH-]S(=O)(=O)c1ccccc1/C=C/C(=O)N1CCN(c2ccccc2)CC1 (nonaromatic ring conformer: 62.79454941617984 kcal/mol)

>  <smiles>  (21) 
NS(=O)(=O)c1ccccc1C=CC(=O)N1CCN(c2ccccc2)CC1

>  <score_type>  (21) 
oracle

>  <origin>  (21) 
adg

>  <m_score__min__energy>  (21) 
-11.35

>  <m_primary>  (21) 
energy

$$$$
21:0
     RDKit          3D

 38 41  0  0  0  0  0  0  0  0999 V2000
   60.7510   28.5550   46.3460 O   0  0  0  0  0  0  0  0  0  0  0  0
   59.2520   28.5200   46.4320 S   0  0  0  0  0  0  0  0  0  0  0  0
   58.8680   28.4290   47.8830 O   0  0  0  0  0  0  0  0  0  0  0  0
   58.6580   27.1100   45.6180 N   0  0  0  0  0  0  0  0  0  0  0  0
   57.3530   26.5760   45.8630 C   0  0  0  0  0  0  0  0  0  0  0  0
   57.0250   25.3370   46.3660 C   0  0  0  0  0  0  0  0  0  0  0  0
   55.6810   25.2500   46.4290 N   0  0  0  0  0  0  0  0  0  0  0  0
   55.1580   26.3840   45.9840 N   0  0  0  0  0  0  0  0  0  0  0  0
   56.1590   27.2120   45.6290 C   0  0  0  0  0  0  0  0  0  0  0  0
   58.5870   29.9940   45.7030 C   0  0  0  0  0  0  0  0  0  0  0  0
   57.5160   29.8670   44.8010 C   0  0  0  0  0  0  0  0  0  0  0  0
   56.9550   30.9900   44.1950 C   0  0  0  0  0  0  0  0  0  0  0  0
   57.4480   32.2600   44.4840 C   0  0  0  0  0  0  0  0  0  0  0  0
   58.5070   32.4100   45.3810 C   0  0  0  0  0  0  0  0  0  0  0  0
   59.0960   31.2900   45.9950 C   0  0  0  0  0  0  0  0  0  0  0  0
   60.2150   31.5290   46.9850 C   0  0  0  0  0  0  0  0  0  0  0  0
   59.6860   31.9920   48.3060 C   0  0  0  0  0  0  0  0  0  0  0  0
   58.7540   31.3030   49.0100 N   0  0  0  0  0  0  0  0  0  0  0  0
   58.4890   31.9110   50.1940 C   0  0  0  0  0  0  0  0  0  0  0  0
   57.5660   31.4440   51.1310 C   0  0  0  0  0  0  0  0  0  0  0  0
   57.3880   32.1680   52.3230 C   0  0  0  0  0  0  0  0  0  0  0  0
   58.1310   33.3410   52.5630 C   0  0  0  0  0  0  0  0  0  0  0  0
   59.0580   33.8000   51.6140 C   0  0  0  0  0  0  0  0  0  0  0  0
   59.2130   33.0660   50.4410 C   0  0  0  0  0  0  0  0  0  0  0  0
   60.2370   33.3610   49.1450 S   0  0  0  0  0  0  0  0  0  0  0  0
   59.2670   26.6560   44.9030 H   0  0  0  0  0  0  0  0  0  0  0  0
   57.7367   24.5533   46.6649 H   0  0  0  0  0  0  0  0  0  0  0  0
   56.0401   28.2264   45.2206 H   0  0  0  0  0  0  0  0  0  0  0  0
   57.1157   28.8687   44.5706 H   0  0  0  0  0  0  0  0  0  0  0  0
   56.1212   30.8728   43.4871 H   0  0  0  0  0  0  0  0  0  0  0  0
   57.0029   33.1448   44.0055 H   0  0  0  0  0  0  0  0  0  0  0  0
   58.8857   33.4169   45.6106 H   0  0  0  0  0  0  0  0  0  0  0  0
   60.7702   30.5907   47.1309 H   0  0  0  0  0  0  0  0  0  0  0  0
   60.8725   32.3131   46.5814 H   0  0  0  0  0  0  0  0  0  0  0  0
   56.9889   30.5271   50.9405 H   0  0  0  0  0  0  0  0  0  0  0  0
   56.6641   31.8165   53.0730 H   0  0  0  0  0  0  0  0  0  0  0  0
   57.9838   33.9000   53.4989 H   0  0  0  0  0  0  0  0  0  0  0  0
   59.6450   34.7131   51.7919 H   0  0  0  0  0  0  0  0  0  0  0  0
  1  2  2  0
  2  3  2  0
  2  4  1  0
  4  5  1  0
  5  6  1  0
  6  7  2  0
  7  8  1  0
  8  9  1  0
  2 10  1  0
 10 11  2  0
 11 12  1  0
 12 13  2  0
 13 14  1  0
 14 15  2  0
 15 16  1  0
 16 17  1  0
 17 18  2  0
 18 19  1  0
 19 20  2  0
 20 21  1  0
 21 22  2  0
 22 23  1  0
 23 24  2  0
 24 25  1  0
  9  5  2  0
 15 10  1  0
 25 17  1  0
 24 19  1  0
  4 26  1  0
  6 27  1  0
  9 28  1  0
 11 29  1  0
 12 30  1  0
 13 31  1  0
 14 32  1  0
 16 33  1  0
 16 34  1  0
 20 35  1  0
 21 36  1  0
 22 37  1  0
 23 38  1  0
M  CHG  1   8  -1
M  END
>  <UniqueID>  (22) 
21

>  <SMILES>  (22) 
O=S(=O)(Nc1cn[n-]c1)c1ccccc1Cc1nc2ccccc2s1

>  <Energy>  (22) 
109.1813431282368

>  <Genealogy>  (22) 
O=S(=O)(Nc1cn[n-]c1)c1ccccc1Cc1nc2ccccc2s1 (protonated)
O=S(=O)(Nc1cn[n-]c1)c1ccccc1Cc1nc2ccccc2s1 (3D coordinates assigned)
O=S(=O)(Nc1cn[n-]c1)c1ccccc1Cc1nc2ccccc2s1 (optimized conformer: 109.1813431282368 kcal/mol)

>  <smiles>  (22) 
O=S(=O)(Nc1cn[nH]c1)c1ccccc1Cc1nc2ccccc2s1

>  <score_type>  (22) 
oracle

>  <origin>  (22) 
adg

>  <m_score__min__energy>  (22) 
-11.119999999999999

>  <m_primary>  (22) 
energy

$$$$
22:0
     RDKit          3D

 53 56  0  0  0  0  0  0  0  0999 V2000
   56.1390   27.8860   54.6720 C   0  0  0  0  0  0  0  0  0  0  0  0
   56.4430   28.8200   53.5440 C   0  0  0  0  0  0  0  0  0  0  0  0
   57.6610   28.9290   52.9860 N   0  0  0  0  0  0  0  0  0  0  0  0
   57.4850   29.8540   52.0180 C   0  0  0  0  0  0  0  0  0  0  0  0
   58.4410   30.2800   51.2460 N   0  0  0  0  0  0  0  0  0  0  0  0
   59.0950   29.4840   50.2080 C   0  0  0  0  0  0  0  0  0  0  0  0
   58.9420   30.1420   48.8600 C   0  0  0  0  0  0  0  0  0  0  0  0
   58.9330   31.5450   48.7800 C   0  0  0  0  0  0  0  0  0  0  0  0
   58.8540   32.1850   47.5410 C   0  0  0  0  0  0  0  0  0  0  0  0
   58.7970   31.4310   46.3690 C   0  0  0  0  0  0  0  0  0  0  0  0
   58.7840   30.0380   46.4340 C   0  0  0  0  0  0  0  0  0  0  0  0
   58.8020   29.3810   47.6770 C   0  0  0  0  0  0  0  0  0  0  0  0
   58.7720   27.9480   47.7480 N   0  0  0  0  0  0  0  0  0  0  0  0
   58.7720   27.0250   46.6490 C   0  0  0  0  0  0  0  0  0  0  0  0
   59.6950   26.1720   46.5820 O   0  0  0  0  0  0  0  0  0  0  0  0
   57.6460   26.9500   45.6500 C   0  0  0  0  0  0  0  0  0  0  0  0
   56.9510   25.6150   45.7290 C   0  0  0  0  0  0  0  0  0  0  0  0
   57.7080   24.4320   45.6500 C   0  0  0  0  0  0  0  0  0  0  0  0
   57.0760   23.1860   45.6930 C   0  0  0  0  0  0  0  0  0  0  0  0
   55.6870   23.1080   45.8200 C   0  0  0  0  0  0  0  0  0  0  0  0
   54.9270   24.2760   45.9230 C   0  0  0  0  0  0  0  0  0  0  0  0
   55.5520   25.5280   45.8850 C   0  0  0  0  0  0  0  0  0  0  0  0
   54.7750   26.6770   45.9990 O   0  0  0  0  0  0  0  0  0  0  0  0
   56.2290   30.3380   51.9350 N   0  0  0  0  0  0  0  0  0  0  0  0
   55.5680   29.6870   52.9120 C   0  0  0  0  0  0  0  0  0  0  0  0
   54.1300   29.8850   53.2050 C   0  0  0  0  0  0  0  0  0  0  0  0
   53.7030   29.6760   54.3730 O   0  0  0  0  0  0  0  0  0  0  0  0
   53.1710   30.3080   52.1560 C   0  0  0  0  0  0  0  0  0  0  0  0
   53.2240   29.7410   50.8680 C   0  0  0  0  0  0  0  0  0  0  0  0
   52.3330   30.1550   49.8740 C   0  0  0  0  0  0  0  0  0  0  0  0
   51.3870   31.1440   50.1490 C   0  0  0  0  0  0  0  0  0  0  0  0
   51.3310   31.7250   51.4180 C   0  0  0  0  0  0  0  0  0  0  0  0
   50.3900   32.7120   51.6850 O   0  0  0  0  0  0  0  0  0  0  0  0
   52.2210   31.3160   52.4190 C   0  0  0  0  0  0  0  0  0  0  0  0
   52.1420   31.8890   53.6460 F   0  0  0  0  0  0  0  0  0  0  0  0
   56.3065   28.4008   55.6296 H   0  0  0  0  0  0  0  0  0  0  0  0
   55.0894   27.5631   54.6080 H   0  0  0  0  0  0  0  0  0  0  0  0
   56.7975   27.0072   54.6080 H   0  0  0  0  0  0  0  0  0  0  0  0
   60.1650   29.3897   50.4450 H   0  0  0  0  0  0  0  0  0  0  0  0
   58.6242   28.4904   50.1734 H   0  0  0  0  0  0  0  0  0  0  0  0
   58.9886   32.1442   49.7008 H   0  0  0  0  0  0  0  0  0  0  0  0
   58.8367   33.2837   47.4896 H   0  0  0  0  0  0  0  0  0  0  0  0
   58.7623   31.9357   45.3922 H   0  0  0  0  0  0  0  0  0  0  0  0
   58.7595   29.4486   45.5056 H   0  0  0  0  0  0  0  0  0  0  0  0
   56.9199   27.7482   45.8639 H   0  0  0  0  0  0  0  0  0  0  0  0
   58.0618   27.0727   44.6390 H   0  0  0  0  0  0  0  0  0  0  0  0
   58.8024   24.4877   45.5539 H   0  0  0  0  0  0  0  0  0  0  0  0
   57.6736   22.2649   45.6267 H   0  0  0  0  0  0  0  0  0  0  0  0
   55.1912   22.1263   45.8389 H   0  0  0  0  0  0  0  0  0  0  0  0
   53.8345   24.2115   46.0343 H   0  0  0  0  0  0  0  0  0  0  0  0
   53.9721   28.9667   50.6427 H   0  0  0  0  0  0  0  0  0  0  0  0
   52.3773   29.7007   48.8732 H   0  0  0  0  0  0  0  0  0  0  0  0
   50.6851   31.4661   49.3657 H   0  0  0  0  0  0  0  0  0  0  0  0
  1  2  1  0
  2  3  1  0
  3  4  1  0
  4  5  2  3
  5  6  1  0
  6  7  1  0
  7  8  2  0
  8  9  1  0
  9 10  2  0
 10 11  1  0
 11 12  2  0
 12 13  1  0
 13 14  1  0
 14 15  2  0
 14 16  1  0
 16 17  1  0
 17 18  2  0
 18 19  1  0
 19 20  2  0
 20 21  1  0
 21 22  2  0
 22 23  1  0
  4 24  1  0
 24 25  1  0
 25 26  1  0
 26 27  2  0
 26 28  1  0
 28 29  2  0
 29 30  1  0
 30 31  2  0
 31 32  1  0
 32 33  1  0
 32 34  2  0
 34 35  1  0
 25  2  2  0
 34 28  1  0
 12  7  1  0
 22 17  1  0
  1 36  1  0
  1 37  1  0
  1 38  1  0
  6 39  1  0
  6 40  1  0
  8 41  1  0
  9 42  1  0
 10 43  1  0
 11 44  1  0
 16 45  1  0
 16 46  1  0
 18 47  1  0
 19 48  1  0
 20 49  1  0
 21 50  1  0
 29 51  1  0
 30 52  1  0
 31 53  1  0
M  CHG  5   3  -1  13  -1  23  -1  24  -1  33  -1
M  END
>  <UniqueID>  (23) 
22

>  <SMILES>  (23) 
Cc1[n-]c(=NCc2ccccc2[N-]C(=O)Cc2ccccc2[O-])[n-]c1C(=O)c1cccc([O-])c1F

>  <Energy>  (23) 
89.36912491856516

>  <Genealogy>  (23) 
Cc1[n-]c(=NCc2ccccc2[N-]C(=O)Cc2ccccc2[O-])[n-]c1C(=O)c1cccc([O-])c1F (protonated)
Cc1[n-]c(=NCc2ccccc2[N-]C(=O)Cc2ccccc2[O-])[n-]c1C(=O)c1cccc([O-])c1F (3D coordinates assigned)
Cc1[n-]c(=NCc2ccccc2[N-]C(=O)Cc2ccccc2[O-])[n-]c1C(=O)c1cccc([O-])c1F (optimized conformer: 89.36912491856516 kcal/mol)

>  <smiles>  (23) 
Cc1[nH]c(=NCc2ccccc2NC(=O)Cc2ccccc2O)[nH]c1C(=O)c1cccc(O)c1F

>  <score_type>  (23) 
oracle

>  <origin>  (23) 
adg

>  <m_score__min__energy>  (23) 
-20.32

>  <m_primary>  (23) 
energy

$$$$
23:0
     RDKit          3D

 51 54  0  0  0  0  0  0  0  0999 V2000
   60.6006   29.3710   44.8842 H   0  0  0  0  0  0  0  0  0  0  0  0
   59.5010   29.3610   44.8570 C   0  0  0  0  0  0  0  0  0  0  0  0
   58.8100   30.5290   44.9120 N   0  0  0  0  0  0  0  0  0  0  0  0
   57.4450   30.5690   44.8920 C   0  0  0  0  0  0  0  0  0  0  0  0
   56.8140   31.7080   44.9360 N   0  0  0  0  0  0  0  0  0  0  0  0
   57.4160   32.9970   45.1190 C   0  0  0  0  0  0  0  0  0  0  0  0
   57.1550   33.9120   44.2920 O   0  0  0  0  0  0  0  0  0  0  0  0
   58.2800   33.3010   46.2760 C   0  0  0  0  0  0  0  0  0  0  0  0
   59.5330   33.8850   46.2200 C   0  0  0  0  0  0  0  0  0  0  0  0
   60.0904   34.2056   45.3275 H   0  0  0  0  0  0  0  0  0  0  0  0
   59.9230   33.9730   47.5410 C   0  0  0  0  0  0  0  0  0  0  0  0
   61.0430   34.5230   47.9200 N   0  0  0  0  0  0  0  0  0  0  0  0
   62.3530   33.9450   47.8850 C   0  0  0  0  0  0  0  0  0  0  0  0
   62.9260   33.7430   46.7810 O   0  0  0  0  0  0  0  0  0  0  0  0
   63.0200   33.5690   49.1740 C   0  0  0  0  0  0  0  0  0  0  0  0
   63.7963   34.3151   49.3992 H   0  0  0  0  0  0  0  0  0  0  0  0
   62.2443   33.5409   49.9535 H   0  0  0  0  0  0  0  0  0  0  0  0
   63.7990   31.9150   49.1100 S   0  0  0  0  0  0  0  0  0  0  0  0
   62.2540   30.9990   49.0290 C   0  0  0  0  0  0  0  0  0  0  0  0
   61.7500   30.3710   50.1760 C   0  0  0  0  0  0  0  0  0  0  0  0
   62.3071   30.4280   51.1228 H   0  0  0  0  0  0  0  0  0  0  0  0
   60.5400   29.6720   50.1190 C   0  0  0  0  0  0  0  0  0  0  0  0
   60.1515   29.1704   51.0176 H   0  0  0  0  0  0  0  0  0  0  0  0
   59.8240   29.6110   48.9190 C   0  0  0  0  0  0  0  0  0  0  0  0
   58.8735   29.0592   48.8732 H   0  0  0  0  0  0  0  0  0  0  0  0
   60.3160   30.2510   47.7780 C   0  0  0  0  0  0  0  0  0  0  0  0
   59.7475   30.2103   46.8372 H   0  0  0  0  0  0  0  0  0  0  0  0
   61.5300   30.9430   47.8310 C   0  0  0  0  0  0  0  0  0  0  0  0
   61.9168   31.4438   46.9312 H   0  0  0  0  0  0  0  0  0  0  0  0
   58.9590   33.4420   48.3400 N   0  0  0  0  0  0  0  0  0  0  0  0
   59.0390   33.0580   49.7220 C   0  0  0  0  0  0  0  0  0  0  0  0
   60.0350   33.5950   50.5550 C   0  0  0  0  0  0  0  0  0  0  0  0
   60.7365   34.3438   50.1586 H   0  0  0  0  0  0  0  0  0  0  0  0
   60.1370   33.1800   51.8870 C   0  0  0  0  0  0  0  0  0  0  0  0
   60.9052   33.6171   52.5419 H   0  0  0  0  0  0  0  0  0  0  0  0
   59.2630   32.2100   52.3860 C   0  0  0  0  0  0  0  0  0  0  0  0
   59.3468   31.8809   53.4323 H   0  0  0  0  0  0  0  0  0  0  0  0
   58.2830   31.6580   51.5570 C   0  0  0  0  0  0  0  0  0  0  0  0
   57.5951   30.8957   51.9515 H   0  0  0  0  0  0  0  0  0  0  0  0
   58.1760   32.0740   50.2260 C   0  0  0  0  0  0  0  0  0  0  0  0
   57.4122   31.6278   49.5721 H   0  0  0  0  0  0  0  0  0  0  0  0
   57.9590   33.0560   47.5630 N   0  0  0  0  0  0  0  0  0  0  0  0
   57.0870   32.5930   47.9080 H   0  0  0  0  0  0  0  0  0  0  0  0
   56.7190   29.3640   44.7880 C   0  0  0  0  0  0  0  0  0  0  0  0
   55.2870   29.3550   44.7490 N   0  0  0  0  0  0  0  0  0  0  0  0
   54.7670   28.4840   44.5050 H   0  0  0  0  0  0  0  0  0  0  0  0
   54.7290   30.2120   44.9630 H   0  0  0  0  0  0  0  0  0  0  0  0
   57.4230   28.1540   44.7300 C   0  0  0  0  0  0  0  0  0  0  0  0
   56.8737   27.2039   44.6557 H   0  0  0  0  0  0  0  0  0  0  0  0
   58.8170   28.1490   44.7660 C   0  0  0  0  0  0  0  0  0  0  0  0
   59.3710   27.1997   44.7231 H   0  0  0  0  0  0  0  0  0  0  0  0
  1  2  1  0
  2  3  1  0
  3  4  1  0
  4  5  2  0
  5  6  1  0
  6  7  2  0
  6  8  1  0
  8  9  2  0
  9 10  1  0
  9 11  1  0
 11 12  2  3
 12 13  1  0
 13 14  2  0
 13 15  1  0
 15 16  1  0
 15 17  1  0
 15 18  1  0
 18 19  1  0
 19 20  2  0
 20 21  1  0
 20 22  1  0
 22 23  1  0
 22 24  2  0
 24 25  1  0
 24 26  1  0
 26 27  1  0
 26 28  2  0
 28 29  1  0
 11 30  1  0
 30 31  1  0
 31 32  2  0
 32 33  1  0
 32 34  1  0
 34 35  1  0
 34 36  2  0
 36 37  1  0
 36 38  1  0
 38 39  1  0
 38 40  2  0
 40 41  1  0
 30 42  1  0
 42 43  1  0
  4 44  1  0
 44 45  1  0
 45 46  1  0
 45 47  1  0
 44 48  2  0
 48 49  1  0
 48 50  1  0
 50 51  1  0
 50  2  2  0
 42  8  1  0
 28 19  1  0
 40 31  1  0
M  CHG  1   3  -1
M  END
>  <UniqueID>  (24) 
23

>  <SMILES>  (24) 
Nc1ccc[n-]/c1=N\C(=O)c1cc(=NC(=O)CSc2ccccc2)n(-c2ccccc2)[nH]1

>  <Energy>  (24) 
103.69489235650559

>  <Genealogy>  (24) 
Nc1ccc[n-]c1=NC(=O)c1cc(=NC(=O)CSc2ccccc2)n(-c2ccccc2)[nH]1 (protonated)
Nc1ccc[n-]/c1=N\C(=O)c1cc(=NC(=O)CSc2ccccc2)n(-c2ccccc2)[nH]1 (cis-trans isomerization)
Nc1ccc[n-]/c1=N\C(=O)c1cc(=NC(=O)CSc2ccccc2)n(-c2ccccc2)[nH]1 (3D coordinates assigned)
Nc1ccc[n-]/c1=N\C(=O)c1cc(=NC(=O)CSc2ccccc2)n(-c2ccccc2)[nH]1 (optimized conformer: 103.69489235650559 kcal/mol)

>  <smiles>  (24) 
Nc1ccc[nH]c1=NC(=O)c1cc(=NC(=O)CSc2ccccc2)n(-c2ccccc2)[nH]1

>  <score_type>  (24) 
oracle

>  <origin>  (24) 
adg

>  <m_score__min__energy>  (24) 
-10.630000000000001

>  <m_primary>  (24) 
energy

$$$$
24:0
     RDKit          3D

 32 33  0  0  0  0  0  0  0  0999 V2000
   56.9860   29.5360   51.7790 O   0  0  0  0  0  0  0  0  0  0  0  0
   56.1730   30.4390   52.1050 C   0  0  0  0  0  0  0  0  0  0  0  0
   56.5880   31.8800   51.9450 C   0  0  0  0  0  0  0  0  0  0  0  0
   57.8940   32.1090   52.4700 O   0  0  0  0  0  0  0  0  0  0  0  0
   58.7710   33.0790   51.9690 C   0  0  0  0  0  0  0  0  0  0  0  0
   59.0880   34.0660   52.6880 O   0  0  0  0  0  0  0  0  0  0  0  0
   59.2950   32.9680   50.5840 C   0  0  0  0  0  0  0  0  0  0  0  0
   59.6500   34.1350   49.8800 C   0  0  0  0  0  0  0  0  0  0  0  0
   60.1070   34.0620   48.5620 C   0  0  0  0  0  0  0  0  0  0  0  0
   60.2170   32.8250   47.9270 C   0  0  0  0  0  0  0  0  0  0  0  0
   59.8760   31.6580   48.6100 C   0  0  0  0  0  0  0  0  0  0  0  0
   59.4210   31.7160   49.9360 C   0  0  0  0  0  0  0  0  0  0  0  0
   59.1000   30.5320   50.6000 O   0  0  0  0  0  0  0  0  0  0  0  0
   54.9000   30.0590   52.6490 N   0  0  0  0  0  0  0  0  0  0  0  0
   53.6580   30.7470   52.4600 C   0  0  0  0  0  0  0  0  0  0  0  0
   52.7740   30.8680   53.5400 C   0  0  0  0  0  0  0  0  0  0  0  0
   51.5620   31.5490   53.3880 C   0  0  0  0  0  0  0  0  0  0  0  0
   51.2150   32.0910   52.1470 C   0  0  0  0  0  0  0  0  0  0  0  0
   50.0140   32.7710   51.9970 O   0  0  0  0  0  0  0  0  0  0  0  0
   52.0780   31.9460   51.0560 C   0  0  0  0  0  0  0  0  0  0  0  0
   53.2940   31.2720   51.2090 C   0  0  0  0  0  0  0  0  0  0  0  0
   56.5826   32.1369   50.8754 H   0  0  0  0  0  0  0  0  0  0  0  0
   55.8770   32.5079   52.5021 H   0  0  0  0  0  0  0  0  0  0  0  0
   59.5665   35.1146   50.3734 H   0  0  0  0  0  0  0  0  0  0  0  0
   60.3806   34.9816   48.0240 H   0  0  0  0  0  0  0  0  0  0  0  0
   60.5727   32.7700   46.8876 H   0  0  0  0  0  0  0  0  0  0  0  0
   59.9644   30.6846   48.1054 H   0  0  0  0  0  0  0  0  0  0  0  0
   58.4890   30.5230   51.4090 H   0  0  0  0  0  0  0  0  0  0  0  0
   53.0345   30.4251   54.5126 H   0  0  0  0  0  0  0  0  0  0  0  0
   50.8815   31.6582   54.2453 H   0  0  0  0  0  0  0  0  0  0  0  0
   51.8001   32.3625   50.0765 H   0  0  0  0  0  0  0  0  0  0  0  0
   53.9672   31.1527   50.3472 H   0  0  0  0  0  0  0  0  0  0  0  0
  1  2  2  0
  2  3  1  0
  3  4  1  0
  4  5  1  0
  5  6  2  0
  5  7  1  0
  7  8  2  0
  8  9  1  0
  9 10  2  0
 10 11  1  0
 11 12  2  0
 12 13  1  0
  2 14  1  0
 14 15  1  0
 15 16  2  0
 16 17  1  0
 17 18  2  0
 18 19  1  0
 18 20  1  0
 20 21  2  0
 12  7  1  0
 21 15  1  0
  3 22  1  0
  3 23  1  0
  8 24  1  0
  9 25  1  0
 10 26  1  0
 11 27  1  0
 13 28  1  0
 16 29  1  0
 17 30  1  0
 20 31  1  0
 21 32  1  0
M  CHG  2  14  -1  19  -1
M  END
>  <UniqueID>  (25) 
24

>  <SMILES>  (25) 
O=C(COC(=O)c1ccccc1O)[N-]c1ccc([O-])cc1

>  <Energy>  (25) 
35.172082346124355

>  <Genealogy>  (25) 
O=C(COC(=O)c1ccccc1O)[N-]c1ccc([O-])cc1 (protonated)
O=C(COC(=O)c1ccccc1O)[N-]c1ccc([O-])cc1 (3D coordinates assigned)
O=C(COC(=O)c1ccccc1O)[N-]c1ccc([O-])cc1 (optimized conformer: 35.172082346124355 kcal/mol)

>  <smiles>  (25) 
O=C(COC(=O)c1ccccc1O)Nc1ccc(O)cc1

>  <score_type>  (25) 
oracle

>  <origin>  (25) 
adg

>  <m_score__min__energy>  (25) 
-10.449999999999999

>  <m_primary>  (25) 
energy

$$$$
25:0
     RDKit          3D

 65 68  0  0  0  0  0  0  0  0999 V2000
   57.7570   31.8640   42.6150 C   0  0  0  0  0  0  0  0  0  0  0  0
   58.0530   30.9450   43.7970 C   0  0  0  0  0  0  0  0  0  0  0  0
   57.1910   29.7550   43.7560 N   0  0  0  0  0  0  0  0  0  0  0  0
   55.7670   29.8860   43.9220 C   0  0  0  0  0  0  0  0  0  0  0  0
   55.1770   29.3550   44.9000 O   0  0  0  0  0  0  0  0  0  0  0  0
   57.7640   28.4270   43.4890 C   0  0  0  0  0  0  0  0  0  0  0  0
   58.0780   27.7120   44.7890 C   0  0  0  0  0  0  0  0  0  0  0  0
   57.0960   26.8620   45.3220 C   0  0  0  0  0  0  0  0  0  0  0  0
   57.2890   26.2260   46.5430 C   0  0  0  0  0  0  0  0  0  0  0  0
   58.4550   26.4430   47.2680 C   0  0  0  0  0  0  0  0  0  0  0  0
   59.4610   27.2920   46.7690 C   0  0  0  0  0  0  0  0  0  0  0  0
   60.6280   27.5530   47.5110 O   0  0  0  0  0  0  0  0  0  0  0  0
   60.6630   28.0070   48.8660 C   0  0  0  0  0  0  0  0  0  0  0  0
   60.2680   29.4500   48.9470 C   0  0  0  0  0  0  0  0  0  0  0  0
   59.8970   30.1920   47.8810 N   0  0  0  0  0  0  0  0  0  0  0  0
   59.5380   31.4620   48.2170 C   0  0  0  0  0  0  0  0  0  0  0  0
   59.0840   32.4180   47.1920 C   0  0  0  0  0  0  0  0  0  0  0  0
   57.7550   32.8700   47.1710 C   0  0  0  0  0  0  0  0  0  0  0  0
   57.3380   33.7790   46.1930 C   0  0  0  0  0  0  0  0  0  0  0  0
   58.2470   34.2510   45.2410 C   0  0  0  0  0  0  0  0  0  0  0  0
   59.5770   33.8180   45.2700 C   0  0  0  0  0  0  0  0  0  0  0  0
   59.9950   32.9070   46.2440 C   0  0  0  0  0  0  0  0  0  0  0  0
   59.6260   31.7400   49.5920 C   0  0  0  0  0  0  0  0  0  0  0  0
   59.1790   32.9490   50.3090 C   0  0  0  0  0  0  0  0  0  0  0  0
   58.1560   32.8900   51.0450 O   0  0  0  0  0  0  0  0  0  0  0  0
   59.8630   34.1930   50.1340 N   0  0  0  0  0  0  0  0  0  0  0  0
   60.5780   34.5600   48.9170 C   0  0  0  0  0  0  0  0  0  0  0  0
   61.9570   33.9610   48.9300 C   0  0  0  0  0  0  0  0  0  0  0  0
   62.5830   33.6680   50.1540 C   0  0  0  0  0  0  0  0  0  0  0  0
   63.8490   33.0770   50.1730 C   0  0  0  0  0  0  0  0  0  0  0  0
   64.5000   32.7750   48.9740 C   0  0  0  0  0  0  0  0  0  0  0  0
   63.8850   33.0650   47.7530 C   0  0  0  0  0  0  0  0  0  0  0  0
   62.6180   33.6560   47.7290 C   0  0  0  0  0  0  0  0  0  0  0  0
   60.1790   30.3470   50.3650 S   0  0  0  0  0  0  0  0  0  0  0  0
   59.2930   27.9060   45.5040 C   0  0  0  0  0  0  0  0  0  0  0  0
   60.4050   28.7560   44.9330 C   0  0  0  0  0  0  0  0  0  0  0  0
   57.4396   32.8493   42.9871 H   0  0  0  0  0  0  0  0  0  0  0  0
   58.6639   31.9779   42.0030 H   0  0  0  0  0  0  0  0  0  0  0  0
   56.9541   31.4272   42.0030 H   0  0  0  0  0  0  0  0  0  0  0  0
   59.1061   30.6301   43.7552 H   0  0  0  0  0  0  0  0  0  0  0  0
   57.8564   31.4932   44.7302 H   0  0  0  0  0  0  0  0  0  0  0  0
   55.1857   30.4582   43.1840 H   0  0  0  0  0  0  0  0  0  0  0  0
   57.0413   27.8302   42.9132 H   0  0  0  0  0  0  0  0  0  0  0  0
   58.6956   28.5503   42.9172 H   0  0  0  0  0  0  0  0  0  0  0  0
   56.1613   26.6970   44.7660 H   0  0  0  0  0  0  0  0  0  0  0  0
   56.5166   25.5489   46.9367 H   0  0  0  0  0  0  0  0  0  0  0  0
   58.5928   25.9470   48.2401 H   0  0  0  0  0  0  0  0  0  0  0  0
   59.9645   27.4063   49.4671 H   0  0  0  0  0  0  0  0  0  0  0  0
   61.6873   27.8967   49.2515 H   0  0  0  0  0  0  0  0  0  0  0  0
   59.8800   29.8260   46.9010 H   0  0  0  0  0  0  0  0  0  0  0  0
   57.0403   32.5086   47.9251 H   0  0  0  0  0  0  0  0  0  0  0  0
   56.2934   34.1231   46.1728 H   0  0  0  0  0  0  0  0  0  0  0  0
   57.9165   34.9623   44.4698 H   0  0  0  0  0  0  0  0  0  0  0  0
   60.2941   34.1947   44.5258 H   0  0  0  0  0  0  0  0  0  0  0  0
   61.0425   32.5721   46.2673 H   0  0  0  0  0  0  0  0  0  0  0  0
   60.0259   34.1843   48.0429 H   0  0  0  0  0  0  0  0  0  0  0  0
   60.6608   35.6556   48.8635 H   0  0  0  0  0  0  0  0  0  0  0  0
   62.0744   33.9048   51.1002 H   0  0  0  0  0  0  0  0  0  0  0  0
   64.3341   32.8490   51.1336 H   0  0  0  0  0  0  0  0  0  0  0  0
   65.4963   32.3091   48.9912 H   0  0  0  0  0  0  0  0  0  0  0  0
   64.3984   32.8280   46.8095 H   0  0  0  0  0  0  0  0  0  0  0  0
   62.1373   33.8829   46.7660 H   0  0  0  0  0  0  0  0  0  0  0  0
   60.9860   29.2001   45.7548 H   0  0  0  0  0  0  0  0  0  0  0  0
   61.0645   28.1297   44.3144 H   0  0  0  0  0  0  0  0  0  0  0  0
   59.9737   29.5568   44.3144 H   0  0  0  0  0  0  0  0  0  0  0  0
  1  2  1  0
  2  3  1  0
  3  4  1  0
  4  5  2  0
  3  6  1  0
  6  7  1  0
  7  8  2  0
  8  9  1  0
  9 10  2  0
 10 11  1  0
 11 12  1  0
 12 13  1  0
 13 14  1  0
 14 15  2  0
 15 16  1  0
 16 17  1  0
 17 18  2  0
 18 19  1  0
 19 20  2  0
 20 21  1  0
 21 22  2  0
 16 23  2  0
 23 24  1  0
 24 25  2  0
 24 26  1  0
 26 27  1  0
 27 28  1  0
 28 29  2  0
 29 30  1  0
 30 31  2  0
 31 32  1  0
 32 33  2  0
 23 34  1  0
 11 35  2  0
 35 36  1  0
 35  7  1  0
 34 14  1  0
 22 17  1  0
 33 28  1  0
  1 37  1  0
  1 38  1  0
  1 39  1  0
  2 40  1  0
  2 41  1  0
  4 42  1  0
  6 43  1  0
  6 44  1  0
  8 45  1  0
  9 46  1  0
 10 47  1  0
 13 48  1  0
 13 49  1  0
 15 50  1  0
 18 51  1  0
 19 52  1  0
 20 53  1  0
 21 54  1  0
 22 55  1  0
 27 56  1  0
 27 57  1  0
 29 58  1  0
 30 59  1  0
 31 60  1  0
 32 61  1  0
 33 62  1  0
 36 63  1  0
 36 64  1  0
 36 65  1  0
M  CHG  2  15   1  26  -1
M  END
>  <UniqueID>  (26) 
25

>  <SMILES>  (26) 
CCN(C=O)Cc1cccc(OCc2[nH+]c(-c3ccccc3)c(C(=O)[N-]Cc3ccccc3)s2)c1C

>  <Energy>  (26) 
96.57291657678422

>  <Genealogy>  (26) 
CCN(C=O)Cc1cccc(OCc2[nH+]c(-c3ccccc3)c(C(=O)[N-]Cc3ccccc3)s2)c1C (protonated)
CCN(C=O)Cc1cccc(OCc2[nH+]c(-c3ccccc3)c(C(=O)[N-]Cc3ccccc3)s2)c1C (3D coordinates assigned)
CCN(C=O)Cc1cccc(OCc2[nH+]c(-c3ccccc3)c(C(=O)[N-]Cc3ccccc3)s2)c1C (optimized conformer: 96.57291657678422 kcal/mol)

>  <smiles>  (26) 
CCN(C=O)Cc1cccc(OCc2nc(-c3ccccc3)c(C(=O)NCc3ccccc3)s2)c1C

>  <score_type>  (26) 
oracle

>  <origin>  (26) 
adg

>  <m_score__min__energy>  (26) 
-9.0800000000000001

>  <m_primary>  (26) 
energy

$$$$
26:0
     RDKit          3D

 36 37  0  0  1  0  0  0  0  0999 V2000
   59.5590   32.6100   48.1380 C   0  0  0  0  0  0  0  0  0  0  0  0
   58.2950   33.1310   47.4930 C   0  0  0  0  0  0  0  0  0  0  0  0
   58.3620   33.2190   46.0890 N   0  0  0  0  0  0  0  0  0  0  0  0
   59.4830   33.8230   45.4870 C   0  0  0  0  0  0  0  0  0  0  0  0
   59.6210   35.2450   45.9460 C   0  0  0  0  0  0  0  0  0  0  0  0
   57.1650   33.1080   45.3460 C   0  0  0  0  0  0  0  0  0  0  0  0
   57.3880   32.1030   44.2280 C   0  0  0  0  0  0  0  0  0  0  0  0
   56.6590   30.9220   44.5450 N   0  0  0  0  0  0  0  0  0  0  0  0
   57.0730   29.9110   45.1820 C   0  0  0  0  0  0  0  0  0  0  0  0
   58.0000   30.1330   46.1510 N   0  0  0  0  0  0  0  0  0  0  0  0
   58.4270   29.0360   46.8270 C   0  0  0  0  0  0  0  0  0  0  0  0
   59.2900   29.2470   47.7260 O   0  0  0  0  0  0  0  0  0  0  0  0
   57.9430   27.7640   46.5440 C   0  0  0  0  0  0  0  0  0  0  0  0
   58.2290   26.5500   47.0920 N   0  0  0  0  0  0  0  0  0  0  0  0
   57.4540   25.6560   46.4210 C   0  0  0  0  0  0  0  0  0  0  0  0
   56.7320   26.3010   45.5070 N   0  0  0  0  0  0  0  0  0  0  0  0
   57.0060   27.6190   45.5490 C   0  0  0  0  0  0  0  0  0  0  0  0
   56.5890   28.7080   44.8840 N   0  0  0  0  0  0  0  0  0  0  0  0
   59.4565   32.6523   49.2324 H   0  0  0  0  0  0  0  0  0  0  0  0
   59.7279   31.5689   47.8255 H   0  0  0  0  0  0  0  0  0  0  0  0
   60.4124   33.2297   47.8255 H   0  0  0  0  0  0  0  0  0  0  0  0
   57.4679   32.4559   47.7581 H   0  0  0  0  0  0  0  0  0  0  0  0
   58.1445   34.1538   47.8689 H   0  0  0  0  0  0  0  0  0  0  0  0
   60.3886   33.2633   45.7639 H   0  0  0  0  0  0  0  0  0  0  0  0
   59.3507   33.8119   44.3950 H   0  0  0  0  0  0  0  0  0  0  0  0
   59.6241   35.2767   47.0455 H   0  0  0  0  0  0  0  0  0  0  0  0
   60.5640   35.6636   45.5645 H   0  0  0  0  0  0  0  0  0  0  0  0
   58.7761   35.8371   45.5645 H   0  0  0  0  0  0  0  0  0  0  0  0
   56.3518   32.7615   46.0007 H   0  0  0  0  0  0  0  0  0  0  0  0
   56.8878   34.0862   44.9262 H   0  0  0  0  0  0  0  0  0  0  0  0
   57.0285   32.5189   43.2752 H   0  0  0  0  0  0  0  0  0  0  0  0
   58.4594   31.8749   44.1278 H   0  0  0  0  0  0  0  0  0  0  0  0
   58.3590   31.0730   46.3590 H   0  0  0  0  0  0  0  0  0  0  0  0
   57.4279   24.5717   46.6045 H   0  0  0  0  0  0  0  0  0  0  0  0
   56.0470   25.8710   44.8460 H   0  0  0  0  0  0  0  0  0  0  0  0
   55.8840   28.6020   44.1300 H   0  0  0  0  0  0  0  0  0  0  0  0
  1  2  1  0
  2  3  1  0
  3  4  1  0
  4  5  1  0
  3  6  1  0
  6  7  1  0
  7  8  1  0
  8  9  2  0
  9 10  1  0
 10 11  1  0
 11 12  2  0
 11 13  1  0
 13 14  1  0
 14 15  2  0
 15 16  1  0
 16 17  1  0
 17 18  1  0
 18  9  1  0
 17 13  2  0
  1 19  1  0
  1 20  1  0
  1 21  1  0
  2 22  1  0
  2 23  1  0
  4 24  1  0
  4 25  1  0
  5 26  1  0
  5 27  1  0
  5 28  1  0
  6 29  1  0
  6 30  1  0
  7 31  1  0
  7 32  1  0
 10 33  1  0
 15 34  1  0
 16 35  1  0
 18 36  1  0
M  END
>  <smiles>  (27) 
CCN(CC)CCN=c1[nH]c(=O)c2nc[nH]c2[nH]1

>  <score_type>  (27) 
oracle

>  <origin>  (27) 
adg

>  <m_score__min__energy>  (27) 
-5.5800000000000001

>  <m_primary>  (27) 
energy

$$$$
27:0
     RDKit          3D

 30 32  0  0  0  0  0  0  0  0999 V2000
   56.0050   30.0020   42.8930 O   0  0  0  0  0  0  0  0  0  0  0  0
   56.9070   30.1430   43.7630 C   0  0  0  0  0  0  0  0  0  0  0  0
   57.1880   31.4130   44.2660 C   0  0  0  0  0  0  0  0  0  0  0  0
   58.1970   31.5650   45.2380 C   0  0  0  0  0  0  0  0  0  0  0  0
   58.5260   32.8580   45.7900 N   0  0  0  0  0  0  0  0  0  0  0  0
   58.3260   33.0870   47.2280 C   0  0  0  0  0  0  0  0  0  0  0  0
   59.2640   34.1860   47.7290 C   0  0  0  0  0  0  0  0  0  0  0  0
   59.1610   35.3410   46.9210 O   0  0  0  0  0  0  0  0  0  0  0  0
   59.6400   35.0510   45.6230 C   0  0  0  0  0  0  0  0  0  0  0  0
   58.7430   34.0260   44.9250 C   0  0  0  0  0  0  0  0  0  0  0  0
   58.8580   30.4890   45.6670 O   0  0  0  0  0  0  0  0  0  0  0  0
   58.6210   29.2630   45.2140 C   0  0  0  0  0  0  0  0  0  0  0  0
   59.3530   28.1790   45.7040 C   0  0  0  0  0  0  0  0  0  0  0  0
   59.0980   26.8960   45.2210 C   0  0  0  0  0  0  0  0  0  0  0  0
   58.1100   26.7090   44.2500 C   0  0  0  0  0  0  0  0  0  0  0  0
   57.3990   27.7700   43.7790 N   0  0  0  0  0  0  0  0  0  0  0  0
   57.6310   29.0390   44.2350 C   0  0  0  0  0  0  0  0  0  0  0  0
   56.6269   32.2885   43.9072 H   0  0  0  0  0  0  0  0  0  0  0  0
   57.2839   33.3916   47.4049 H   0  0  0  0  0  0  0  0  0  0  0  0
   58.5454   32.1560   47.7712 H   0  0  0  0  0  0  0  0  0  0  0  0
   58.9958   34.4449   48.7639 H   0  0  0  0  0  0  0  0  0  0  0  0
   60.2984   33.8146   47.6828 H   0  0  0  0  0  0  0  0  0  0  0  0
   59.6568   35.9774   45.0302 H   0  0  0  0  0  0  0  0  0  0  0  0
   60.6529   34.6305   45.7085 H   0  0  0  0  0  0  0  0  0  0  0  0
   57.7731   34.4911   44.6948 H   0  0  0  0  0  0  0  0  0  0  0  0
   59.2348   33.6957   43.9982 H   0  0  0  0  0  0  0  0  0  0  0  0
   60.1281   28.3369   46.4684 H   0  0  0  0  0  0  0  0  0  0  0  0
   59.6703   26.0371   45.6014 H   0  0  0  0  0  0  0  0  0  0  0  0
   57.9060   25.6992   43.8645 H   0  0  0  0  0  0  0  0  0  0  0  0
   56.6680   27.5920   43.0530 H   0  0  0  0  0  0  0  0  0  0  0  0
  1  2  2  0
  2  3  1  0
  3  4  2  0
  4  5  1  0
  5  6  1  0
  6  7  1  0
  7  8  1  0
  8  9  1  0
  9 10  1  0
  4 11  1  0
 11 12  1  0
 12 13  2  0
 13 14  1  0
 14 15  2  0
 15 16  1  0
 16 17  2  0
 17  2  1  0
 10  5  1  0
 17 12  1  0
  3 18  1  0
  6 19  1  0
  6 20  1  0
  7 21  1  0
  7 22  1  0
  9 23  1  0
  9 24  1  0
 10 25  1  0
 10 26  1  0
 13 27  1  0
 14 28  1  0
 15 29  1  0
 16 30  1  0
M  CHG  1  16   1
M  END
>  <UniqueID>  (28) 
26

>  <SMILES>  (28) 
O=c1cc(N2CCOCC2)oc2ccc[nH+]c12

>  <Energy>  (28) 
40.165018148004165

>  <Genealogy>  (28) 
O=c1cc(N2CCOCC2)oc2ccc[nH+]c12 (protonated)
O=c1cc(N2CCOCC2)oc2ccc[nH+]c12 (3D coordinates assigned)
O=c1cc(N2CCOCC2)oc2ccc[nH+]c12 (nonaromatic ring conformer: 40.165018148004165 kcal/mol)

>  <smiles>  (28) 
O=c1cc(N2CCOCC2)oc2cccnc12

>  <score_type>  (28) 
oracle

>  <origin>  (28) 
adg

>  <m_score__min__energy>  (28) 
-4.6900000000000004

>  <m_primary>  (28) 
energy

$$$$
28:0
     RDKit          3D

 51 53  0  0  1  0  0  0  0  0999 V2000
   64.9740   32.7150   49.4360 C   0  0  0  0  0  0  0  0  0  0  0  0
   64.0910   32.3730   48.3980 O   0  0  0  0  0  0  0  0  0  0  0  0
   62.8370   32.9560   48.3570 C   0  0  0  0  0  0  0  0  0  0  0  0
   62.2860   33.2360   47.1130 C   0  0  0  0  0  0  0  0  0  0  0  0
   61.0460   33.8140   46.9670 C   0  0  0  0  0  0  0  0  0  0  0  0
   60.5050   34.0810   45.8290 N   0  0  0  0  0  0  0  0  0  0  0  0
   58.7860   34.1420   45.7150 S   0  0  0  0  0  0  0  0  0  0  0  0
   58.1510   34.5980   46.9930 O   0  0  0  0  0  0  0  0  0  0  0  0
   58.3200   34.9500   44.5200 O   0  0  0  0  0  0  0  0  0  0  0  0
   58.2620   32.4870   45.3590 C   0  0  0  0  0  0  0  0  0  0  0  0
   58.1990   31.5160   46.3190 C   0  0  0  0  0  0  0  0  0  0  0  0
   57.7950   30.2270   46.0420 C   0  0  0  0  0  0  0  0  0  0  0  0
   57.4360   29.8840   44.7520 C   0  0  0  0  0  0  0  0  0  0  0  0
   57.0240   28.5410   44.5180 N   0  0  0  0  0  0  0  0  0  0  0  0
   57.7590   27.4210   45.0100 C   0  0  0  0  0  0  0  0  0  0  0  0
   59.1060   27.6430   45.8750 S   0  0  0  0  0  0  0  0  0  0  0  0
   57.2760   26.0970   44.7270 N   0  0  0  0  0  0  0  0  0  0  0  0
   57.9740   24.9580   45.2060 C   0  0  0  0  0  0  0  0  0  0  0  0
   59.0390   25.1210   45.8920 O   0  0  0  0  0  0  0  0  0  0  0  0
   57.5420   23.5870   44.9600 C   0  0  0  0  0  0  0  0  0  0  0  0
   57.7300   22.9450   43.7510 C   0  0  0  0  0  0  0  0  0  0  0  0
   57.3270   21.6540   43.5040 C   0  0  0  0  0  0  0  0  0  0  0  0
   56.6990   20.9920   44.5540 C   0  0  0  0  0  0  0  0  0  0  0  0
   56.5060   21.6200   45.7610 C   0  0  0  0  0  0  0  0  0  0  0  0
   56.9140   22.9230   46.0070 C   0  0  0  0  0  0  0  0  0  0  0  0
   56.6500   23.7910   47.6750 Br  0  0  0  0  0  0  0  0  0  0  0  0
   57.4870   30.8350   43.7580 C   0  0  0  0  0  0  0  0  0  0  0  0
   57.8970   32.1250   44.0640 C   0  0  0  0  0  0  0  0  0  0  0  0
   60.3700   34.1070   48.1030 N   0  0  0  0  0  0  0  0  0  0  0  0
   60.8840   33.8460   49.3270 C   0  0  0  0  0  0  0  0  0  0  0  0
   60.1080   34.1850   50.4200 O   0  0  0  0  0  0  0  0  0  0  0  0
   59.2440   33.1620   50.9400 C   0  0  0  0  0  0  0  0  0  0  0  0
   62.1140   33.2720   49.4440 N   0  0  0  0  0  0  0  0  0  0  0  0
   64.4900   32.5275   50.4058 H   0  0  0  0  0  0  0  0  0  0  0  0
   65.8861   32.1051   49.3574 H   0  0  0  0  0  0  0  0  0  0  0  0
   65.2373   33.7801   49.3574 H   0  0  0  0  0  0  0  0  0  0  0  0
   62.8629   32.9861   46.2104 H   0  0  0  0  0  0  0  0  0  0  0  0
   58.4811   31.7724   47.3509 H   0  0  0  0  0  0  0  0  0  0  0  0
   57.7586   29.4751   46.8440 H   0  0  0  0  0  0  0  0  0  0  0  0
   56.1500   28.3980   43.9620 H   0  0  0  0  0  0  0  0  0  0  0  0
   56.4110   25.9240   44.1720 H   0  0  0  0  0  0  0  0  0  0  0  0
   58.2297   23.4973   42.9415 H   0  0  0  0  0  0  0  0  0  0  0  0
   57.4921   21.1710   42.5296 H   0  0  0  0  0  0  0  0  0  0  0  0
   56.3538   19.9566   44.4169 H   0  0  0  0  0  0  0  0  0  0  0  0
   56.0057   21.0648   46.5681 H   0  0  0  0  0  0  0  0  0  0  0  0
   57.2045   30.5740   42.7274 H   0  0  0  0  0  0  0  0  0  0  0  0
   57.9347   32.8800   43.2649 H   0  0  0  0  0  0  0  0  0  0  0  0
   59.4130   34.5530   48.0290 H   0  0  0  0  0  0  0  0  0  0  0  0
   59.2657   33.1877   52.0395 H   0  0  0  0  0  0  0  0  0  0  0  0
   58.2162   33.3370   50.5894 H   0  0  0  0  0  0  0  0  0  0  0  0
   59.5885   32.1779   50.5894 H   0  0  0  0  0  0  0  0  0  0  0  0
  1  2  1  0
  2  3  1  0
  3  4  2  0
  4  5  1  0
  5  6  2  0
  6  7  1  0
  7  8  2  0
  7  9  2  0
  7 10  1  0
 10 11  2  0
 11 12  1  0
 12 13  2  0
 13 14  1  0
 14 15  1  0
 15 16  2  0
 15 17  1  0
 17 18  1  0
 18 19  2  0
 18 20  1  0
 20 21  2  0
 21 22  1  0
 22 23  2  0
 23 24  1  0
 24 25  2  0
 25 26  1  0
 13 27  1  0
 27 28  2  0
  5 29  1  0
 29 30  1  0
 30 31  1  0
 31 32  1  0
 30 33  2  0
 33  3  1  0
 28 10  1  0
 25 20  1  0
  1 34  1  0
  1 35  1  0
  1 36  1  0
  4 37  1  0
 11 38  1  0
 12 39  1  0
 14 40  1  0
 17 41  1  0
 21 42  1  0
 22 43  1  0
 23 44  1  0
 24 45  1  0
 27 46  1  0
 28 47  1  0
 29 48  1  0
 32 49  1  0
 32 50  1  0
 32 51  1  0
M  END
>  <smiles>  (29) 
COc1cc(=NS(=O)(=O)c2ccc(NC(=S)NC(=O)c3ccccc3Br)cc2)[nH]c(OC)n1

>  <score_type>  (29) 
oracle

>  <origin>  (29) 
adg

>  <m_score__min__energy>  (29) 
-8.9399999999999995

>  <m_primary>  (29) 
energy

$$$$
29:0
     RDKit          3D

 44 46  0  0  0  0  0  0  0  0999 V2000
   59.9510   28.0010   46.4120 O   0  0  0  0  0  0  0  0  0  0  0  0
   58.8820   27.3690   46.6320 C   0  0  0  0  0  0  0  0  0  0  0  0
   58.9460   26.0160   47.2710 C   0  0  0  0  0  0  0  0  0  0  0  0
   59.2680   24.7210   46.0260 S   0  0  0  0  0  0  0  0  0  0  0  0
   57.5540   24.5580   45.5320 C   0  0  0  0  0  0  0  0  0  0  0  0
   57.1680   23.5080   44.7600 N   0  0  0  0  0  0  0  0  0  0  0  0
   55.8720   23.3560   44.3850 C   0  0  0  0  0  0  0  0  0  0  0  0
   55.5350   22.3730   43.6760 O   0  0  0  0  0  0  0  0  0  0  0  0
   54.9180   24.2910   44.7900 C   0  0  0  0  0  0  0  0  0  0  0  0
   55.3340   25.3660   45.5770 C   0  0  0  0  0  0  0  0  0  0  0  0
   54.4160   26.3200   45.9960 O   0  0  0  0  0  0  0  0  0  0  0  0
   56.6390   25.4800   45.9330 N   0  0  0  0  0  0  0  0  0  0  0  0
   57.6090   27.9480   46.3030 N   0  0  0  0  0  0  0  0  0  0  0  0
   57.4400   29.0750   45.4260 C   0  0  0  0  0  0  0  0  0  0  0  0
   57.0090   28.9140   44.0970 C   0  0  0  0  0  0  0  0  0  0  0  0
   56.8310   30.0280   43.2740 C   0  0  0  0  0  0  0  0  0  0  0  0
   57.0670   31.3110   43.7680 C   0  0  0  0  0  0  0  0  0  0  0  0
   57.4720   31.4900   45.0970 C   0  0  0  0  0  0  0  0  0  0  0  0
   57.7730   33.1160   45.7030 S   0  0  0  0  0  0  0  0  0  0  0  0
   56.8650   34.0700   44.9780 O   0  0  0  0  0  0  0  0  0  0  0  0
   57.4610   33.1800   47.1730 O   0  0  0  0  0  0  0  0  0  0  0  0
   59.4470   33.5340   45.4110 N   0  0  0  0  0  0  0  0  0  0  0  0
   60.3580   32.8860   46.3820 C   0  0  0  0  0  0  0  0  0  0  0  0
   60.7960   33.8360   47.5120 C   0  0  0  0  0  0  0  0  0  0  0  0
   59.7600   34.7410   47.8180 O   0  0  0  0  0  0  0  0  0  0  0  0
   59.5740   35.6530   46.7490 C   0  0  0  0  0  0  0  0  0  0  0  0
   59.6400   34.9940   45.3490 C   0  0  0  0  0  0  0  0  0  0  0  0
   57.6520   30.3710   45.9230 C   0  0  0  0  0  0  0  0  0  0  0  0
   59.7549   26.0078   48.0164 H   0  0  0  0  0  0  0  0  0  0  0  0
   57.9783   25.8085   47.7512 H   0  0  0  0  0  0  0  0  0  0  0  0
   53.8635   24.1832   44.4959 H   0  0  0  0  0  0  0  0  0  0  0  0
   56.7630   27.5590   46.7770 H   0  0  0  0  0  0  0  0  0  0  0  0
   56.8112   27.9058   43.7040 H   0  0  0  0  0  0  0  0  0  0  0  0
   56.5036   29.8933   42.2325 H   0  0  0  0  0  0  0  0  0  0  0  0
   56.9348   32.1843   43.1124 H   0  0  0  0  0  0  0  0  0  0  0  0
   59.8410   32.0236   46.8280 H   0  0  0  0  0  0  0  0  0  0  0  0
   61.2626   32.5804   45.8358 H   0  0  0  0  0  0  0  0  0  0  0  0
   61.0394   33.2463   48.4081 H   0  0  0  0  0  0  0  0  0  0  0  0
   61.6799   34.4016   47.1821 H   0  0  0  0  0  0  0  0  0  0  0  0
   58.5876   36.1260   46.8639 H   0  0  0  0  0  0  0  0  0  0  0  0
   60.3973   36.3806   46.8006 H   0  0  0  0  0  0  0  0  0  0  0  0
   58.8529   35.4288   44.7154 H   0  0  0  0  0  0  0  0  0  0  0  0
   60.6401   35.1850   44.9328 H   0  0  0  0  0  0  0  0  0  0  0  0
   57.9619   30.5098   46.9693 H   0  0  0  0  0  0  0  0  0  0  0  0
  1  2  2  0
  2  3  1  0
  3  4  1  0
  4  5  1  0
  5  6  2  0
  6  7  1  0
  7  8  2  0
  7  9  1  0
  9 10  2  0
 10 11  1  0
 10 12  1  0
  2 13  1  0
 13 14  1  0
 14 15  2  0
 15 16  1  0
 16 17  2  0
 17 18  1  0
 18 19  1  0
 19 20  2  0
 19 21  2  0
 19 22  1  0
 22 23  1  0
 23 24  1  0
 24 25  1  0
 25 26  1  0
 26 27  1  0
 18 28  2  0
 12  5  1  0
 28 14  1  0
 27 22  1  0
  3 29  1  0
  3 30  1  0
  9 31  1  0
 13 32  1  0
 15 33  1  0
 16 34  1  0
 17 35  1  0
 23 36  1  0
 23 37  1  0
 24 38  1  0
 24 39  1  0
 26 40  1  0
 26 41  1  0
 27 42  1  0
 27 43  1  0
 28 44  1  0
M  CHG  2  11  -1  12  -1
M  END
>  <UniqueID>  (30) 
27

>  <SMILES>  (30) 
O=C(CSc1nc(=O)cc([O-])[n-]1)Nc1cccc(S(=O)(=O)N2CCOCC2)c1

>  <Energy>  (30) 
55.16502372047648

>  <Genealogy>  (30) 
O=C(CSc1nc(=O)cc([O-])[n-]1)Nc1cccc(S(=O)(=O)N2CCOCC2)c1 (protonated)
O=C(CSc1nc(=O)cc([O-])[n-]1)Nc1cccc(S(=O)(=O)N2CCOCC2)c1 (3D coordinates assigned)
O=C(CSc1nc(=O)cc([O-])[n-]1)Nc1cccc(S(=O)(=O)N2CCOCC2)c1 (nonaromatic ring conformer: 55.16502372047648 kcal/mol)

>  <smiles>  (30) 
O=C(CSc1nc(=O)cc(O)[nH]1)Nc1cccc(S(=O)(=O)N2CCOCC2)c1

>  <score_type>  (30) 
oracle

>  <origin>  (30) 
adg

>  <m_score__min__energy>  (30) 
-15.6

>  <m_primary>  (30) 
energy

$$$$
30:0
     RDKit          3D

 76 81  0  0  0  0  0  0  0  0999 V2000
   58.0667   25.7123   47.0536 H   0  0  0  0  0  0  0  0  0  0  0  0
   57.9800   25.9100   45.9750 C   0  0  0  0  0  0  0  0  0  0  0  0
   57.4530   24.9280   45.2070 C   0  0  0  0  0  0  0  0  0  0  0  0
   57.3000   25.0390   43.7340 C   0  0  0  0  0  0  0  0  0  0  0  0
   57.4010   26.1510   43.1470 O   0  0  0  0  0  0  0  0  0  0  0  0
   56.9570   23.8850   42.9680 N   0  0  0  0  0  0  0  0  0  0  0  0
   56.9260   23.9510   41.9240 H   0  0  0  0  0  0  0  0  0  0  0  0
   56.5900   22.6570   43.5990 C   0  0  0  0  0  0  0  0  0  0  0  0
   56.3250   21.6550   42.8800 O   0  0  0  0  0  0  0  0  0  0  0  0
   56.5170   22.5650   45.0360 N   0  0  0  0  0  0  0  0  0  0  0  0
   55.9790   21.3460   45.6650 C   0  0  0  0  0  0  0  0  0  0  0  0
   56.8042   20.7833   46.1259 H   0  0  0  0  0  0  0  0  0  0  0  0
   55.4865   20.7374   44.8923 H   0  0  0  0  0  0  0  0  0  0  0  0
   54.9620   21.6970   46.7290 C   0  0  0  0  0  0  0  0  0  0  0  0
   55.2290   21.3820   48.0710 C   0  0  0  0  0  0  0  0  0  0  0  0
   56.1844   20.9072   48.3390 H   0  0  0  0  0  0  0  0  0  0  0  0
   54.2950   21.6650   49.0680 C   0  0  0  0  0  0  0  0  0  0  0  0
   54.5210   21.4120   50.1144 H   0  0  0  0  0  0  0  0  0  0  0  0
   53.0750   22.2670   48.7490 C   0  0  0  0  0  0  0  0  0  0  0  0
   52.1700   22.5260   49.7890 O   0  0  0  0  0  0  0  0  0  0  0  0
   52.5330   23.0570   51.0610 C   0  0  0  0  0  0  0  0  0  0  0  0
   52.1041   22.4296   51.8562 H   0  0  0  0  0  0  0  0  0  0  0  0
   53.6290   23.0687   51.1542 H   0  0  0  0  0  0  0  0  0  0  0  0
   52.1461   24.0825   51.1542 H   0  0  0  0  0  0  0  0  0  0  0  0
   52.7980   22.5900   47.4070 C   0  0  0  0  0  0  0  0  0  0  0  0
   51.8398   23.0638   47.1475 H   0  0  0  0  0  0  0  0  0  0  0  0
   53.7370   22.3120   46.3920 C   0  0  0  0  0  0  0  0  0  0  0  0
   53.4870   22.6370   45.0500 O   0  0  0  0  0  0  0  0  0  0  0  0
   53.0450   23.9110   44.5890 C   0  0  0  0  0  0  0  0  0  0  0  0
   52.8213   24.5557   45.4517 H   0  0  0  0  0  0  0  0  0  0  0  0
   53.8348   24.3747   43.9797 H   0  0  0  0  0  0  0  0  0  0  0  0
   52.1377   23.7859   43.9797 H   0  0  0  0  0  0  0  0  0  0  0  0
   56.9600   23.6790   45.8440 C   0  0  0  0  0  0  0  0  0  0  0  0
   56.9730   23.5740   47.1040 O   0  0  0  0  0  0  0  0  0  0  0  0
   58.4480   27.2220   45.4910 C   0  0  0  0  0  0  0  0  0  0  0  0
   57.8670   28.3570   45.8050 O   0  0  0  0  0  0  0  0  0  0  0  0
   58.5660   29.3480   45.2970 C   0  0  0  0  0  0  0  0  0  0  0  0
   58.2080   30.7760   45.4950 C   0  0  0  0  0  0  0  0  0  0  0  0
   57.7870   31.5120   44.3710 C   0  0  0  0  0  0  0  0  0  0  0  0
   57.7675   31.0299   43.3825 H   0  0  0  0  0  0  0  0  0  0  0  0
   57.3940   32.8460   44.4950 C   0  0  0  0  0  0  0  0  0  0  0  0
   57.0597   33.4052   43.6087 H   0  0  0  0  0  0  0  0  0  0  0  0
   57.4250   33.4690   45.7400 C   0  0  0  0  0  0  0  0  0  0  0  0
   57.1052   34.5169   45.8379 H   0  0  0  0  0  0  0  0  0  0  0  0
   57.8610   32.7660   46.8630 C   0  0  0  0  0  0  0  0  0  0  0  0
   57.8921   33.2674   47.8416 H   0  0  0  0  0  0  0  0  0  0  0  0
   58.2610   31.4230   46.7560 C   0  0  0  0  0  0  0  0  0  0  0  0
   58.7840   30.7570   47.9170 N   0  0  0  0  0  0  0  0  0  0  0  0
   58.7510   31.3870   49.2270 C   0  0  0  0  0  0  0  0  0  0  0  0
   57.9934   32.1845   49.2247 H   0  0  0  0  0  0  0  0  0  0  0  0
   58.5014   30.6240   49.9790 H   0  0  0  0  0  0  0  0  0  0  0  0
   60.1170   31.9920   49.5750 C   0  0  0  0  0  0  0  0  0  0  0  0
   60.1034   33.0510   49.2779 H   0  0  0  0  0  0  0  0  0  0  0  0
   60.2488   31.8341   50.6556 H   0  0  0  0  0  0  0  0  0  0  0  0
   61.2900   31.3500   48.9250 N   0  0  0  0  0  0  0  0  0  0  0  0
   62.6210   31.8950   49.2000 C   0  0  0  0  0  0  0  0  0  0  0  0
   63.3900   31.4420   50.3040 C   0  0  0  0  0  0  0  0  0  0  0  0
   62.9814   30.6630   50.9644 H   0  0  0  0  0  0  0  0  0  0  0  0
   64.6590   31.9700   50.5660 C   0  0  0  0  0  0  0  0  0  0  0  0
   65.2364   31.6067   51.4289 H   0  0  0  0  0  0  0  0  0  0  0  0
   65.1940   32.9550   49.7370 C   0  0  0  0  0  0  0  0  0  0  0  0
   66.1907   33.3700   49.9474 H   0  0  0  0  0  0  0  0  0  0  0  0
   64.4650   33.4130   48.6420 C   0  0  0  0  0  0  0  0  0  0  0  0
   64.8906   34.1869   47.9863 H   0  0  0  0  0  0  0  0  0  0  0  0
   63.1950   32.8940   48.3720 C   0  0  0  0  0  0  0  0  0  0  0  0
   62.6318   33.2663   47.5036 H   0  0  0  0  0  0  0  0  0  0  0  0
   61.1630   30.2590   47.9230 C   0  0  0  0  0  0  0  0  0  0  0  0
   61.4788   30.6534   46.9459 H   0  0  0  0  0  0  0  0  0  0  0  0
   61.7946   29.4334   48.2828 H   0  0  0  0  0  0  0  0  0  0  0  0
   59.7540   29.6880   47.7720 C   0  0  0  0  0  0  0  0  0  0  0  0
   59.6485   29.2287   46.7781 H   0  0  0  0  0  0  0  0  0  0  0  0
   59.5807   28.9264   48.5465 H   0  0  0  0  0  0  0  0  0  0  0  0
   59.6730   28.8370   44.6340 C   0  0  0  0  0  0  0  0  0  0  0  0
   60.4554   29.4094   44.1142 H   0  0  0  0  0  0  0  0  0  0  0  0
   59.5930   27.4680   44.7590 C   0  0  0  0  0  0  0  0  0  0  0  0
   60.2965   26.7234   44.3582 H   0  0  0  0  0  0  0  0  0  0  0  0
  1  2  1  0
  2  3  2  0
  3  4  1  0
  4  5  2  0
  4  6  1  0
  6  7  1  0
  6  8  1  0
  8  9  2  0
  8 10  1  0
 10 11  1  0
 11 12  1  0
 11 13  1  0
 11 14  1  0
 14 15  2  0
 15 16  1  0
 15 17  1  0
 17 18  1  0
 17 19  2  0
 19 20  1  0
 20 21  1  0
 21 22  1  0
 21 23  1  0
 21 24  1  0
 19 25  1  0
 25 26  1  0
 25 27  2  0
 27 28  1  0
 28 29  1  0
 29 30  1  0
 29 31  1  0
 29 32  1  0
 10 33  1  0
 33 34  2  0
  2 35  1  0
 35 36  1  0
 36 37  1  0
 37 38  1  0
 38 39  2  0
 39 40  1  0
 39 41  1  0
 41 42  1  0
 41 43  2  0
 43 44  1  0
 43 45  1  0
 45 46  1  0
 45 47  2  0
 47 48  1  0
 48 49  1  0
 49 50  1  0
 49 51  1  0
 49 52  1  0
 52 53  1  0
 52 54  1  0
 52 55  1  0
 55 56  1  0
 56 57  2  0
 57 58  1  0
 57 59  1  0
 59 60  1  0
 59 61  2  0
 61 62  1  0
 61 63  1  0
 63 64  1  0
 63 65  2  0
 65 66  1  0
 55 67  1  0
 67 68  1  0
 67 69  1  0
 67 70  1  0
 70 71  1  0
 70 72  1  0
 37 73  2  0
 73 74  1  0
 73 75  1  0
 75 76  1  0
 33  3  1  0
 75 35  2  0
 27 14  1  0
 47 38  1  0
 70 48  1  0
 65 56  1  0
M  END
>  <UniqueID>  (31) 
28

>  <SMILES>  (31) 
COc1ccc(CN2C(=O)NC(=O)/C(=C\c3ccc(-c4ccccc4N4CCN(c5ccccc5)CC4)o3)C2=O)c(OC)c1

>  <Energy>  (31) 
134.85073371020553

>  <Genealogy>  (31) 
COc1ccc(CN2C(=O)NC(=O)/C(=C\c3ccc(-c4ccccc4N4CCN(c5ccccc5)CC4)o3)C2=O)c(OC)c1 (cis-trans isomerization)
COc1ccc(CN2C(=O)NC(=O)/C(=C\c3ccc(-c4ccccc4N4CCN(c5ccccc5)CC4)o3)C2=O)c(OC)c1 (3D coordinates assigned)
COc1ccc(CN2C(=O)NC(=O)/C(=C\c3ccc(-c4ccccc4N4CCN(c5ccccc5)CC4)o3)C2=O)c(OC)c1 (nonaromatic ring conformer: 134.85073371020553 kcal/mol)

>  <smiles>  (31) 
COc1ccc(CN2C(=O)NC(=O)C(=Cc3ccc(-c4ccccc4N4CCN(c5ccccc5)CC4)o3)C2=O)c(OC)c1

>  <score_type>  (31) 
oracle

>  <origin>  (31) 
adg

>  <m_score__min__energy>  (31) 
-10.08

>  <m_primary>  (31) 
energy

$$$$
31:0
     RDKit          3D

 60 63  0  0  0  0  0  0  0  0999 V2000
   58.1190   32.3300   42.0150 C   0  0  0  0  0  0  0  0  0  0  0  0
   57.6260   32.4280   43.4620 C   0  0  2  0  0  0  0  0  0  0  0  0
   58.5900   33.1710   44.2790 N   0  0  0  0  0  0  0  0  0  0  0  0
   58.4520   33.2820   45.7080 C   0  0  0  0  0  0  0  0  0  0  0  0
   57.3230   33.1210   46.2450 O   0  0  0  0  0  0  0  0  0  0  0  0
   59.6170   33.6100   46.5570 C   0  0  0  0  0  0  0  0  0  0  0  0
   60.9020   33.7260   46.0010 C   0  0  0  0  0  0  0  0  0  0  0  0
   62.0030   34.0040   46.8170 C   0  0  0  0  0  0  0  0  0  0  0  0
   61.8440   34.1650   48.1980 C   0  0  0  0  0  0  0  0  0  0  0  0
   62.9900   34.4280   48.9670 O   0  0  0  0  0  0  0  0  0  0  0  0
   63.8290   33.4520   49.5910 C   0  0  0  0  0  0  0  0  0  0  0  0
   63.6480   33.4940   51.1190 C   0  0  0  0  0  0  0  0  0  0  0  0
   62.2180   33.0960   51.4980 C   0  0  0  0  0  0  0  0  0  0  0  0
   61.8000   31.8540   50.8270 N   0  0  0  0  0  0  0  0  0  0  0  0
   60.4780   31.3080   51.0640 C   0  0  0  0  0  0  0  0  0  0  0  0
   60.1670   30.1850   50.5840 O   0  0  0  0  0  0  0  0  0  0  0  0
   59.4680   32.0520   51.9070 C   0  0  0  0  0  0  0  0  0  0  0  0
   58.1790   31.3640   51.9270 N   0  0  0  0  0  0  0  0  0  0  0  0
   56.9810   31.8920   51.6270 C   0  0  0  0  0  0  0  0  0  0  0  0
   56.0460   30.8840   51.7030 C   0  0  0  0  0  0  0  0  0  0  0  0
   56.6530   29.7270   52.0400 N   0  0  0  0  0  0  0  0  0  0  0  0
   57.9550   30.0560   52.1640 C   0  0  0  0  0  0  0  0  0  0  0  0
   62.7720   31.1170   50.0020 C   0  0  0  0  0  0  0  0  0  0  0  0
   63.4840   32.0580   49.0130 C   0  0  0  0  0  0  0  0  0  0  0  0
   60.5550   34.0550   48.7570 C   0  0  0  0  0  0  0  0  0  0  0  0
   59.4540   33.7710   47.9430 C   0  0  0  0  0  0  0  0  0  0  0  0
   57.4030   31.0540   44.0570 C   0  0  0  0  0  0  0  0  0  0  0  0
   56.1090   30.5120   44.1480 C   0  0  0  0  0  0  0  0  0  0  0  0
   55.9090   29.2440   44.7070 C   0  0  0  0  0  0  0  0  0  0  0  0
   57.0000   28.5070   45.1730 C   0  0  0  0  0  0  0  0  0  0  0  0
   58.2920   29.0300   45.0710 C   0  0  0  0  0  0  0  0  0  0  0  0
   58.4920   30.2950   44.5150 C   0  0  0  0  0  0  0  0  0  0  0  0
   59.1979   32.1155   42.0089 H   0  0  0  0  0  0  0  0  0  0  0  0
   57.5815   31.5211   41.4985 H   0  0  0  0  0  0  0  0  0  0  0  0
   57.9317   33.2830   41.4985 H   0  0  0  0  0  0  0  0  0  0  0  0
   56.6656   32.9644   43.4554 H   0  0  0  0  0  0  0  0  0  0  0  0
   59.4740   33.5020   43.8290 H   0  0  0  0  0  0  0  0  0  0  0  0
   61.0428   33.5974   44.9177 H   0  0  0  0  0  0  0  0  0  0  0  0
   63.0034   34.0970   46.3692 H   0  0  0  0  0  0  0  0  0  0  0  0
   64.8868   33.6698   49.3821 H   0  0  0  0  0  0  0  0  0  0  0  0
   64.3554   32.7938   51.5873 H   0  0  0  0  0  0  0  0  0  0  0  0
   63.8395   34.5177   51.4732 H   0  0  0  0  0  0  0  0  0  0  0  0
   62.1665   32.9472   52.5867 H   0  0  0  0  0  0  0  0  0  0  0  0
   61.5422   33.9023   51.1767 H   0  0  0  0  0  0  0  0  0  0  0  0
   59.8484   32.1290   52.9362 H   0  0  0  0  0  0  0  0  0  0  0  0
   59.3205   33.0503   51.4693 H   0  0  0  0  0  0  0  0  0  0  0  0
   56.7823   32.9422   51.3670 H   0  0  0  0  0  0  0  0  0  0  0  0
   54.9684   31.0037   51.5173 H   0  0  0  0  0  0  0  0  0  0  0  0
   58.7451   29.3379   52.4287 H   0  0  0  0  0  0  0  0  0  0  0  0
   63.5218   30.6521   50.6590 H   0  0  0  0  0  0  0  0  0  0  0  0
   62.2326   30.3492   49.4279 H   0  0  0  0  0  0  0  0  0  0  0  0
   64.4202   31.5768   48.6938 H   0  0  0  0  0  0  0  0  0  0  0  0
   62.7836   32.2277   48.1820 H   0  0  0  0  0  0  0  0  0  0  0  0
   60.4142   34.1933   49.8392 H   0  0  0  0  0  0  0  0  0  0  0  0
   58.4540   33.6731   48.3908 H   0  0  0  0  0  0  0  0  0  0  0  0
   55.2481   31.0879   43.7776 H   0  0  0  0  0  0  0  0  0  0  0  0
   54.8931   28.8285   44.7791 H   0  0  0  0  0  0  0  0  0  0  0  0
   56.8423   27.5146   45.6205 H   0  0  0  0  0  0  0  0  0  0  0  0
   59.1518   28.4447   45.4290 H   0  0  0  0  0  0  0  0  0  0  0  0
   59.5114   30.7005   44.4350 H   0  0  0  0  0  0  0  0  0  0  0  0
  1  2  1  0
  2  3  1  0
  3  4  1  0
  4  5  2  0
  4  6  1  0
  6  7  2  0
  7  8  1  0
  8  9  2  0
  9 10  1  0
 10 11  1  0
 11 12  1  0
 12 13  1  0
 13 14  1  0
 14 15  1  0
 15 16  2  0
 15 17  1  0
 17 18  1  0
 18 19  1  0
 19 20  2  0
 20 21  1  0
 21 22  2  0
 14 23  1  0
 23 24  1  0
  9 25  1  0
 25 26  2  0
  2 27  1  0
 27 28  2  0
 28 29  1  0
 29 30  2  0
 30 31  1  0
 31 32  2  0
 26  6  1  0
 32 27  1  0
 24 11  1  0
 22 18  1  0
  1 33  1  0
  1 34  1  0
  1 35  1  0
  2 36  1  6
  3 37  1  0
  7 38  1  0
  8 39  1  0
 11 40  1  0
 12 41  1  0
 12 42  1  0
 13 43  1  0
 13 44  1  0
 17 45  1  0
 17 46  1  0
 19 47  1  0
 20 48  1  0
 22 49  1  0
 23 50  1  0
 23 51  1  0
 24 52  1  0
 24 53  1  0
 25 54  1  0
 26 55  1  0
 28 56  1  0
 29 57  1  0
 30 58  1  0
 31 59  1  0
 32 60  1  0
M  END
>  <UniqueID>  (32) 
29

>  <SMILES>  (32) 
C[C@H](NC(=O)c1ccc(OC2CCN(C(=O)Cn3ccnc3)CC2)cc1)c1ccccc1

>  <Energy>  (32) 
94.6828715092688

>  <Genealogy>  (32) 
C[C@H](NC(=O)c1ccc(OC2CCN(C(=O)Cn3ccnc3)CC2)cc1)c1ccccc1 (chirality)
C[C@H](NC(=O)c1ccc(OC2CCN(C(=O)Cn3ccnc3)CC2)cc1)c1ccccc1 (3D coordinates assigned)
C[C@H](NC(=O)c1ccc(OC2CCN(C(=O)Cn3ccnc3)CC2)cc1)c1ccccc1 (nonaromatic ring conformer: 94.6828715092688 kcal/mol)

>  <smiles>  (32) 
CC(NC(=O)c1ccc(OC2CCN(C(=O)Cn3ccnc3)CC2)cc1)c1ccccc1

>  <score_type>  (32) 
oracle

>  <origin>  (32) 
adg

>  <m_score__min__energy>  (32) 
-9.1999999999999993

>  <m_primary>  (32) 
energy

$$$$
32:0
     RDKit          3D

 56 59  0  0  0  0  0  0  0  0999 V2000
   58.8690   23.7840   45.6760 C   0  0  0  0  0  0  0  0  0  0  0  0
   58.2860   25.1560   45.6190 C   0  0  0  0  0  0  0  0  0  0  0  0
   56.9570   25.3390   45.8430 N   0  0  0  0  0  0  0  0  0  0  0  0
   56.3880   26.5700   45.7650 C   0  0  0  0  0  0  0  0  0  0  0  0
   55.1540   26.6950   45.9870 O   0  0  0  0  0  0  0  0  0  0  0  0
   57.1800   27.6830   45.4360 C   0  0  0  0  0  0  0  0  0  0  0  0
   56.6540   28.9820   45.3380 C   0  0  0  0  0  0  0  0  0  0  0  0
   57.4850   30.0590   44.9780 C   0  0  0  0  0  0  0  0  0  0  0  0
   56.9790   31.3980   44.8700 N   0  0  0  0  0  0  0  0  0  0  0  0
   57.7200   32.6050   45.0980 C   0  0  0  0  0  0  0  0  0  0  0  0
   57.8780   33.4030   44.1370 O   0  0  0  0  0  0  0  0  0  0  0  0
   58.2570   32.9600   46.4330 C   0  0  0  0  0  0  0  0  0  0  0  0
   58.8900   34.1930   46.6460 C   0  0  0  0  0  0  0  0  0  0  0  0
   59.3870   34.5270   47.9070 C   0  0  0  0  0  0  0  0  0  0  0  0
   59.2740   33.6220   48.9790 C   0  0  0  0  0  0  0  0  0  0  0  0
   59.7540   33.9090   50.2690 O   0  0  0  0  0  0  0  0  0  0  0  0
   59.0070   33.8270   51.4830 C   0  0  0  0  0  0  0  0  0  0  0  0
   59.8510   33.2250   52.6060 C   0  0  0  0  0  0  0  0  0  0  0  0
   59.5690   33.8740   53.7930 F   0  0  0  0  0  0  0  0  0  0  0  0
   61.1990   33.3640   52.3290 F   0  0  0  0  0  0  0  0  0  0  0  0
   59.5530   31.8800   52.7450 F   0  0  0  0  0  0  0  0  0  0  0  0
   58.6570   32.3800   48.7710 C   0  0  0  0  0  0  0  0  0  0  0  0
   58.5710   31.4980   49.8570 O   0  0  0  0  0  0  0  0  0  0  0  0
   58.7260   30.0840   49.7750 C   0  0  0  0  0  0  0  0  0  0  0  0
   60.1870   29.7120   50.0230 C   0  0  0  0  0  0  0  0  0  0  0  0
   61.1110   30.6180   49.2500 C   0  0  0  0  0  0  0  0  0  0  0  0
   61.1560   30.5560   47.8480 C   0  0  0  0  0  0  0  0  0  0  0  0
   61.9730   31.4340   47.1290 C   0  0  0  0  0  0  0  0  0  0  0  0
   62.7420   32.3890   47.8040 C   0  0  0  0  0  0  0  0  0  0  0  0
   63.7590   33.4960   46.9000 Cl  0  0  0  0  0  0  0  0  0  0  0  0
   62.6920   32.4640   49.2000 C   0  0  0  0  0  0  0  0  0  0  0  0
   61.8790   31.5860   49.9210 C   0  0  0  0  0  0  0  0  0  0  0  0
   58.1560   32.0500   47.4980 C   0  0  0  0  0  0  0  0  0  0  0  0
   58.8510   29.8340   44.7630 C   0  0  0  0  0  0  0  0  0  0  0  0
   59.3820   28.5450   44.8630 C   0  0  0  0  0  0  0  0  0  0  0  0
   58.5530   27.4680   45.1940 C   0  0  0  0  0  0  0  0  0  0  0  0
   59.0700   26.2150   45.2860 N   0  0  0  0  0  0  0  0  0  0  0  0
   58.9968   23.4833   46.7263 H   0  0  0  0  0  0  0  0  0  0  0  0
   58.1934   23.0773   45.1718 H   0  0  0  0  0  0  0  0  0  0  0  0
   59.8467   23.7798   45.1718 H   0  0  0  0  0  0  0  0  0  0  0  0
   55.5878   29.1580   45.5436 H   0  0  0  0  0  0  0  0  0  0  0  0
   58.9958   34.9030   45.8125 H   0  0  0  0  0  0  0  0  0  0  0  0
   59.8697   35.5030   48.0637 H   0  0  0  0  0  0  0  0  0  0  0  0
   58.6857   34.8372   51.7765 H   0  0  0  0  0  0  0  0  0  0  0  0
   58.1344   33.1787   51.3144 H   0  0  0  0  0  0  0  0  0  0  0  0
   58.0919   29.6018   50.5336 H   0  0  0  0  0  0  0  0  0  0  0  0
   58.4275   29.7418   48.7731 H   0  0  0  0  0  0  0  0  0  0  0  0
   60.4054   29.8063   51.0970 H   0  0  0  0  0  0  0  0  0  0  0  0
   60.3480   28.6768   49.6878 H   0  0  0  0  0  0  0  0  0  0  0  0
   60.5459   29.8135   47.3129 H   0  0  0  0  0  0  0  0  0  0  0  0
   62.0114   31.3740   46.0313 H   0  0  0  0  0  0  0  0  0  0  0  0
   63.2941   33.2159   49.7311 H   0  0  0  0  0  0  0  0  0  0  0  0
   61.8395   31.6522   51.0183 H   0  0  0  0  0  0  0  0  0  0  0  0
   57.6813   31.0711   47.3357 H   0  0  0  0  0  0  0  0  0  0  0  0
   59.5106   30.6782   44.5136 H   0  0  0  0  0  0  0  0  0  0  0  0
   60.4538   28.3771   44.6811 H   0  0  0  0  0  0  0  0  0  0  0  0
  1  2  1  0
  2  3  2  0
  3  4  1  0
  4  5  2  0
  4  6  1  0
  6  7  2  0
  7  8  1  0
  8  9  1  0
  9 10  1  0
 10 11  2  0
 10 12  1  0
 12 13  2  0
 13 14  1  0
 14 15  2  0
 15 16  1  0
 16 17  1  0
 17 18  1  0
 18 19  1  0
 18 20  1  0
 18 21  1  0
 15 22  1  0
 22 23  1  0
 23 24  1  0
 24 25  1  0
 25 26  1  0
 26 27  2  0
 27 28  1  0
 28 29  2  0
 29 30  1  0
 29 31  1  0
 31 32  2  0
 22 33  2  0
  8 34  2  0
 34 35  1  0
 35 36  2  0
 36 37  1  0
 37  2  1  0
 36  6  1  0
 33 12  1  0
 32 26  1  0
  1 38  1  0
  1 39  1  0
  1 40  1  0
  7 41  1  0
 13 42  1  0
 14 43  1  0
 17 44  1  0
 17 45  1  0
 24 46  1  0
 24 47  1  0
 25 48  1  0
 25 49  1  0
 27 50  1  0
 28 51  1  0
 31 52  1  0
 32 53  1  0
 33 54  1  0
 34 55  1  0
 35 56  1  0
M  CHG  2   9  -1  37  -1
M  END
>  <UniqueID>  (33) 
30

>  <SMILES>  (33) 
Cc1nc(=O)c2cc([N-]C(=O)c3ccc(OCC(F)(F)F)c(OCCc4ccc(Cl)cc4)c3)ccc2[n-]1

>  <Energy>  (33) 
65.15602820445139

>  <Genealogy>  (33) 
Cc1nc(=O)c2cc([N-]C(=O)c3ccc(OCC(F)(F)F)c(OCCc4ccc(Cl)cc4)c3)ccc2[n-]1 (protonated)
Cc1nc(=O)c2cc([N-]C(=O)c3ccc(OCC(F)(F)F)c(OCCc4ccc(Cl)cc4)c3)ccc2[n-]1 (3D coordinates assigned)
Cc1nc(=O)c2cc([N-]C(=O)c3ccc(OCC(F)(F)F)c(OCCc4ccc(Cl)cc4)c3)ccc2[n-]1 (optimized conformer: 65.15602820445139 kcal/mol)

>  <smiles>  (33) 
Cc1nc(=O)c2cc(NC(=O)c3ccc(OCC(F)(F)F)c(OCCc4ccc(Cl)cc4)c3)ccc2[nH]1

>  <score_type>  (33) 
oracle

>  <origin>  (33) 
adg

>  <m_score__min__energy>  (33) 
-11.220000000000001

>  <m_primary>  (33) 
energy

$$$$
33:0
     RDKit          3D

 42 44  0  0  0  0  0  0  0  0999 V2000
   62.0880   31.7800   47.2360 C   0  0  0  0  0  0  0  0  0  0  0  0
   61.0100   31.2130   48.1170 C   0  0  0  0  0  0  0  0  0  0  0  0
   60.7400   29.8370   48.0600 C   0  0  0  0  0  0  0  0  0  0  0  0
   59.7360   29.2800   48.8500 C   0  0  0  0  0  0  0  0  0  0  0  0
   58.9830   30.0880   49.7020 C   0  0  0  0  0  0  0  0  0  0  0  0
   59.2330   31.4670   49.7760 C   0  0  0  0  0  0  0  0  0  0  0  0
   58.4330   32.3050   50.7350 C   0  0  0  0  0  0  0  0  0  0  0  0
   60.2800   32.0280   49.0140 C   0  0  0  0  0  0  0  0  0  0  0  0
   60.5700   33.3930   49.1410 O   0  0  0  0  0  0  0  0  0  0  0  0
   59.6360   34.4140   48.7880 C   0  0  0  0  0  0  0  0  0  0  0  0
   59.2780   34.3090   47.3390 C   0  0  0  0  0  0  0  0  0  0  0  0
   59.8700   35.0940   46.3520 C   0  0  0  0  0  0  0  0  0  0  0  0
   59.2620   34.5960   44.8660 S   0  0  0  0  0  0  0  0  0  0  0  0
   58.2830   33.3990   45.5430 C   0  0  0  0  0  0  0  0  0  0  0  0
   57.5010   32.5770   44.9070 N   0  0  0  0  0  0  0  0  0  0  0  0
   57.3400   31.1620   45.1090 C   0  0  0  0  0  0  0  0  0  0  0  0
   58.2930   30.4750   45.8690 C   0  0  0  0  0  0  0  0  0  0  0  0
   58.1500   29.1010   46.0750 C   0  0  0  0  0  0  0  0  0  0  0  0
   57.0630   28.4210   45.5180 C   0  0  0  0  0  0  0  0  0  0  0  0
   56.8590   26.6920   45.7780 S   0  0  0  0  0  0  0  0  0  0  0  0
   55.1780   26.3300   45.9600 N   0  0  0  0  0  0  0  0  0  0  0  0
   57.5960   26.2730   47.0190 O   0  0  0  0  0  0  0  0  0  0  0  0
   57.4140   25.9310   44.6070 O   0  0  0  0  0  0  0  0  0  0  0  0
   56.1250   29.1420   44.7700 C   0  0  0  0  0  0  0  0  0  0  0  0
   56.2850   30.4800   44.5840 N   0  0  0  0  0  0  0  0  0  0  0  0
   58.4080   33.3650   46.8870 N   0  0  0  0  0  0  0  0  0  0  0  0
   62.8889   32.2012   47.8614 H   0  0  0  0  0  0  0  0  0  0  0  0
   62.5001   30.9819   46.6009 H   0  0  0  0  0  0  0  0  0  0  0  0
   61.6639   32.5717   46.6009 H   0  0  0  0  0  0  0  0  0  0  0  0
   61.3252   29.1933   47.3868 H   0  0  0  0  0  0  0  0  0  0  0  0
   59.5366   28.1993   48.8015 H   0  0  0  0  0  0  0  0  0  0  0  0
   58.1891   29.6420   50.3191 H   0  0  0  0  0  0  0  0  0  0  0  0
   58.6946   32.0310   51.7677 H   0  0  0  0  0  0  0  0  0  0  0  0
   58.6593   33.3687   50.5694 H   0  0  0  0  0  0  0  0  0  0  0  0
   57.3600   32.1283   50.5694 H   0  0  0  0  0  0  0  0  0  0  0  0
   58.7264   34.3003   49.3961 H   0  0  0  0  0  0  0  0  0  0  0  0
   60.0921   35.3975   48.9744 H   0  0  0  0  0  0  0  0  0  0  0  0
   60.6043   35.8965   46.5158 H   0  0  0  0  0  0  0  0  0  0  0  0
   59.1492   31.0135   46.3014 H   0  0  0  0  0  0  0  0  0  0  0  0
   58.8922   28.5543   46.6752 H   0  0  0  0  0  0  0  0  0  0  0  0
   54.7630   27.0930   46.5400 H   0  0  0  0  0  0  0  0  0  0  0  0
   55.2577   28.6262   44.3322 H   0  0  0  0  0  0  0  0  0  0  0  0
  1  2  1  0
  2  3  2  0
  3  4  1  0
  4  5  2  0
  5  6  1  0
  6  7  1  0
  6  8  2  0
  8  9  1  0
  9 10  1  0
 10 11  1  0
 11 12  2  0
 12 13  1  0
 13 14  1  0
 14 15  2  3
 15 16  1  0
 16 17  2  0
 17 18  1  0
 18 19  2  0
 19 20  1  0
 20 21  1  0
 20 22  2  0
 20 23  2  0
 19 24  1  0
 24 25  2  0
 14 26  1  0
  8  2  1  0
 26 11  1  0
 25 16  1  0
  1 27  1  0
  1 28  1  0
  1 29  1  0
  3 30  1  0
  4 31  1  0
  5 32  1  0
  7 33  1  0
  7 34  1  0
  7 35  1  0
 10 36  1  0
 10 37  1  0
 12 38  1  0
 17 39  1  0
 18 40  1  0
 21 41  1  0
 24 42  1  0
M  CHG  2  21  -1  26  -1
M  END
>  <UniqueID>  (34) 
31

>  <SMILES>  (34) 
Cc1cccc(C)c1OCc1csc(=Nc2ccc(S([NH-])(=O)=O)cn2)[n-]1

>  <Energy>  (34) 
82.13826006931828

>  <Genealogy>  (34) 
Cc1cccc(C)c1OCc1csc(=Nc2ccc(S([NH-])(=O)=O)cn2)[n-]1 (protonated)
Cc1cccc(C)c1OCc1csc(=Nc2ccc(S([NH-])(=O)=O)cn2)[n-]1 (3D coordinates assigned)
Cc1cccc(C)c1OCc1csc(=Nc2ccc(S([NH-])(=O)=O)cn2)[n-]1 (optimized conformer: 82.13826006931828 kcal/mol)

>  <smiles>  (34) 
Cc1cccc(C)c1OCc1csc(=Nc2ccc(S(N)(=O)=O)cn2)[nH]1

>  <score_type>  (34) 
oracle

>  <origin>  (34) 
adg

>  <m_score__min__energy>  (34) 
-12.56

>  <m_primary>  (34) 
energy

$$$$
34:0
     RDKit          3D

 79 84  0  0  0  0  0  0  0  0999 V2000
   59.3490   26.0440   47.5230 C   0  0  0  0  0  0  0  0  0  0  0  0
   58.4860   27.0400   46.8830 N   0  0  0  0  0  0  0  0  0  0  0  0
   57.2230   26.8550   46.4120 C   0  0  0  0  0  0  0  0  0  0  0  0
   56.4320   25.6110   46.5390 C   0  0  0  0  0  0  0  0  0  0  0  0
   56.7040   24.7050   47.5750 C   0  0  0  0  0  0  0  0  0  0  0  0
   55.9630   23.5240   47.6930 C   0  0  0  0  0  0  0  0  0  0  0  0
   54.9470   23.2350   46.7700 C   0  0  0  0  0  0  0  0  0  0  0  0
   54.1920   22.0700   46.8860 O   0  0  0  0  0  0  0  0  0  0  0  0
   54.6870   24.1270   45.7240 C   0  0  0  0  0  0  0  0  0  0  0  0
   55.4270   25.3070   45.6050 C   0  0  0  0  0  0  0  0  0  0  0  0
   56.7680   28.0230   45.8140 C   0  0  0  0  0  0  0  0  0  0  0  0
   55.5220   28.2170   45.2310 O   0  0  0  0  0  0  0  0  0  0  0  0
   57.7850   28.9500   45.9440 C   0  0  0  0  0  0  0  0  0  0  0  0
   58.8020   28.3300   46.6030 C   0  0  0  0  0  0  0  0  0  0  0  0
   59.9630   29.0400   46.8990 C   0  0  0  0  0  0  0  0  0  0  0  0
   60.9000   28.4920   47.5420 O   0  0  0  0  0  0  0  0  0  0  0  0
   60.0610   30.3520   46.4920 N   0  0  0  0  0  0  0  0  0  0  0  0
   61.3050   31.1050   46.7700 C   0  0  0  0  0  0  0  0  0  0  0  0
   61.3810   31.5640   48.2490 C   0  0  1  0  0  0  0  0  0  0  0  0
   61.3210   33.0980   48.3950 C   0  0  0  0  0  0  0  0  0  0  0  0
   59.9210   33.6660   48.1060 C   0  0  0  0  0  0  0  0  0  0  0  0
   58.7960   32.7190   48.5500 C   0  0  0  0  0  0  0  0  0  0  0  0
   59.2650   31.8230   49.6240 N   0  0  0  0  0  0  0  0  0  0  0  0
   58.1350   31.2030   50.3720 C   0  0  0  0  0  0  0  0  0  0  0  0
   58.5150   29.9010   51.1280 C   0  0  0  0  0  0  0  0  0  0  0  0
   57.5160   29.6280   52.2530 C   0  0  0  0  0  0  0  0  0  0  0  0
   57.5770   30.6960   53.2760 N   0  0  0  0  0  0  0  0  0  0  0  0
   56.5530   30.5650   54.3360 C   0  0  0  0  0  0  0  0  0  0  0  0
   55.2080   30.0880   53.8280 C   0  0  0  0  0  0  0  0  0  0  0  0
   54.5580   30.7520   52.7720 C   0  0  0  0  0  0  0  0  0  0  0  0
   53.3050   30.3160   52.3270 C   0  0  0  0  0  0  0  0  0  0  0  0
   52.6890   29.2180   52.9330 C   0  0  0  0  0  0  0  0  0  0  0  0
   53.3200   28.5590   53.9910 C   0  0  0  0  0  0  0  0  0  0  0  0
   54.5700   28.9940   54.4410 C   0  0  0  0  0  0  0  0  0  0  0  0
   57.7660   32.0750   52.7600 C   0  0  0  0  0  0  0  0  0  0  0  0
   57.3900   32.2240   51.2770 C   0  0  0  0  0  0  0  0  0  0  0  0
   60.2900   30.8720   49.1240 C   0  0  0  0  0  0  0  0  0  0  0  0
   59.0030   30.9560   45.8290 C   0  0  0  0  0  0  0  0  0  0  0  0
   59.0940   32.1670   45.4840 O   0  0  0  0  0  0  0  0  0  0  0  0
   57.8510   30.2520   45.5460 N   0  0  0  0  0  0  0  0  0  0  0  0
   56.7210   30.8680   44.8340 C   0  0  0  0  0  0  0  0  0  0  0  0
   59.2683   26.1371   48.6161 H   0  0  0  0  0  0  0  0  0  0  0  0
   59.0345   25.0354   47.2167 H   0  0  0  0  0  0  0  0  0  0  0  0
   60.3921   26.2117   47.2167 H   0  0  0  0  0  0  0  0  0  0  0  0
   57.5036   24.9241   48.2980 H   0  0  0  0  0  0  0  0  0  0  0  0
   56.1776   22.8208   48.5112 H   0  0  0  0  0  0  0  0  0  0  0  0
   53.9590   21.6790   47.7920 H   0  0  0  0  0  0  0  0  0  0  0  0
   53.8976   23.8990   44.9927 H   0  0  0  0  0  0  0  0  0  0  0  0
   55.2217   26.0008   44.7764 H   0  0  0  0  0  0  0  0  0  0  0  0
   62.1685   30.4591   46.5527 H   0  0  0  0  0  0  0  0  0  0  0  0
   61.3121   32.0015   46.1326 H   0  0  0  0  0  0  0  0  0  0  0  0
   62.3653   31.2448   48.6222 H   0  0  0  0  0  0  0  0  0  0  0  0
   61.6040   33.3652   49.4238 H   0  0  0  0  0  0  0  0  0  0  0  0
   62.0141   33.5299   47.6581 H   0  0  0  0  0  0  0  0  0  0  0  0
   59.8104   34.6202   48.6421 H   0  0  0  0  0  0  0  0  0  0  0  0
   59.8339   33.7996   47.0176 H   0  0  0  0  0  0  0  0  0  0  0  0
   57.9478   33.3137   48.9200 H   0  0  0  0  0  0  0  0  0  0  0  0
   58.4860   32.1085   47.6891 H   0  0  0  0  0  0  0  0  0  0  0  0
   57.4209   30.8835   49.5987 H   0  0  0  0  0  0  0  0  0  0  0  0
   58.5067   29.0567   50.4229 H   0  0  0  0  0  0  0  0  0  0  0  0
   59.5185   30.0202   51.5625 H   0  0  0  0  0  0  0  0  0  0  0  0
   56.5003   29.5881   51.8325 H   0  0  0  0  0  0  0  0  0  0  0  0
   57.7701   28.6685   52.7272 H   0  0  0  0  0  0  0  0  0  0  0  0
   56.9172   29.8448   55.0835 H   0  0  0  0  0  0  0  0  0  0  0  0
   56.3990   31.5683   54.7599 H   0  0  0  0  0  0  0  0  0  0  0  0
   55.0373   31.6187   52.2934 H   0  0  0  0  0  0  0  0  0  0  0  0
   52.8041   30.8386   51.4987 H   0  0  0  0  0  0  0  0  0  0  0  0
   51.7072   28.8725   52.5770 H   0  0  0  0  0  0  0  0  0  0  0  0
   52.8328   27.6971   54.4703 H   0  0  0  0  0  0  0  0  0  0  0  0
   55.0583   28.4773   55.2804 H   0  0  0  0  0  0  0  0  0  0  0  0
   57.1376   32.7582   53.3502 H   0  0  0  0  0  0  0  0  0  0  0  0
   58.8358   32.3142   52.8514 H   0  0  0  0  0  0  0  0  0  0  0  0
   56.3066   32.0667   51.1696 H   0  0  0  0  0  0  0  0  0  0  0  0
   57.6841   33.2342   50.9560 H   0  0  0  0  0  0  0  0  0  0  0  0
   60.7802   30.3978   49.9870 H   0  0  0  0  0  0  0  0  0  0  0  0
   59.7762   30.1341   48.4904 H   0  0  0  0  0  0  0  0  0  0  0  0
   55.9985   31.2619   45.5640 H   0  0  0  0  0  0  0  0  0  0  0  0
   57.0896   31.6900   44.2028 H   0  0  0  0  0  0  0  0  0  0  0  0
   56.2298   30.1128   44.2028 H   0  0  0  0  0  0  0  0  0  0  0  0
  1  2  1  0
  2  3  1  0
  3  4  1  0
  4  5  2  0
  5  6  1  0
  6  7  2  0
  7  8  1  0
  7  9  1  0
  9 10  2  0
  3 11  2  0
 11 12  1  0
 11 13  1  0
 13 14  2  0
 14 15  1  0
 15 16  2  0
 15 17  1  0
 17 18  1  0
 18 19  1  0
 19 20  1  0
 20 21  1  0
 21 22  1  0
 22 23  1  0
 23 24  1  0
 24 25  1  0
 25 26  1  0
 26 27  1  0
 27 28  1  0
 28 29  1  0
 29 30  2  0
 30 31  1  0
 31 32  2  0
 32 33  1  0
 33 34  2  0
 27 35  1  0
 35 36  1  0
 23 37  1  0
 17 38  1  0
 38 39  2  0
 38 40  1  0
 40 41  1  0
 14  2  1  0
 37 19  1  0
 10  4  1  0
 40 13  1  0
 36 24  1  0
 34 29  1  0
  1 42  1  0
  1 43  1  0
  1 44  1  0
  5 45  1  0
  6 46  1  0
  8 47  1  0
  9 48  1  0
 10 49  1  0
 18 50  1  0
 18 51  1  0
 19 52  1  1
 20 53  1  0
 20 54  1  0
 21 55  1  0
 21 56  1  0
 22 57  1  0
 22 58  1  0
 24 59  1  0
 25 60  1  0
 25 61  1  0
 26 62  1  0
 26 63  1  0
 28 64  1  0
 28 65  1  0
 30 66  1  0
 31 67  1  0
 32 68  1  0
 33 69  1  0
 34 70  1  0
 35 71  1  0
 35 72  1  0
 36 73  1  0
 36 74  1  0
 37 75  1  0
 37 76  1  0
 41 77  1  0
 41 78  1  0
 41 79  1  0
M  CHG  1  12  -1
M  END
>  <UniqueID>  (35) 
32

>  <SMILES>  (35) 
Cn1c(-c2ccc(O)cc2)c([O-])c2c1c(=O)n(C[C@H]1CCCN(C3CCN(Cc4ccccc4)CC3)C1)c(=O)n2C

>  <Energy>  (35) 
159.6132245830682

>  <Genealogy>  (35) 
Cn1c(-c2ccc(O)cc2)c([O-])c2c1c(=O)n(CC1CCCN(C3CCN(Cc4ccccc4)CC3)C1)c(=O)n2C (protonated)
Cn1c(-c2ccc(O)cc2)c([O-])c2c1c(=O)n(C[C@H]1CCCN(C3CCN(Cc4ccccc4)CC3)C1)c(=O)n2C (chirality)
Cn1c(-c2ccc(O)cc2)c([O-])c2c1c(=O)n(C[C@H]1CCCN(C3CCN(Cc4ccccc4)CC3)C1)c(=O)n2C (3D coordinates assigned)
Cn1c(-c2ccc(O)cc2)c([O-])c2c1c(=O)n(C[C@H]1CCCN(C3CCN(Cc4ccccc4)CC3)C1)c(=O)n2C (nonaromatic ring conformer: 159.6132245830682 kcal/mol)

>  <smiles>  (35) 
Cn1c(-c2ccc(O)cc2)c(O)c2c1c(=O)n(CC1CCCN(C3CCN(Cc4ccccc4)CC3)C1)c(=O)n2C

>  <score_type>  (35) 
oracle

>  <origin>  (35) 
adg

>  <m_score__min__energy>  (35) 
-11.859999999999999

>  <m_primary>  (35) 
energy

$$$$
35:0
     RDKit          3D

 62 66  0  0  0  0  0  0  0  0999 V2000
   56.2510   33.1050   45.2580 H   0  0  0  0  0  0  0  0  0  0  0  0
   56.7260   33.9140   45.5830 O   0  0  0  0  0  0  0  0  0  0  0  0
   58.0310   33.8470   45.0760 C   0  0  0  0  0  0  0  0  0  0  0  0
   58.5771   34.7599   45.3559 H   0  0  0  0  0  0  0  0  0  0  0  0
   57.9870   33.7575   43.9805 H   0  0  0  0  0  0  0  0  0  0  0  0
   58.7460   32.6460   45.6400 C   0  0  0  0  0  0  0  0  0  0  0  0
   58.3950   31.3210   45.4330 C   0  0  0  0  0  0  0  0  0  0  0  0
   57.2800   30.8440   44.5980 C   0  0  0  0  0  0  0  0  0  0  0  0
   56.1010   31.1970   44.8700 O   0  0  0  0  0  0  0  0  0  0  0  0
   57.5320   29.9440   43.5130 N   0  0  0  0  0  0  0  0  0  0  0  0
   58.5170   29.6830   43.2810 H   0  0  0  0  0  0  0  0  0  0  0  0
   56.4520   29.4010   42.7000 C   0  0  0  0  0  0  0  0  0  0  0  0
   55.6631   29.0043   43.3559 H   0  0  0  0  0  0  0  0  0  0  0  0
   56.0353   30.1968   42.0651 H   0  0  0  0  0  0  0  0  0  0  0  0
   56.8422   28.5919   42.0651 H   0  0  0  0  0  0  0  0  0  0  0  0
   59.3540   30.6010   46.1470 C   0  0  0  0  0  0  0  0  0  0  0  0
   59.4400   29.3140   46.3210 N   0  0  0  0  0  0  0  0  0  0  0  0
   58.6580   28.4900   47.2360 C   0  0  0  0  0  0  0  0  0  0  0  0
   59.2584   28.2578   48.1280 H   0  0  0  0  0  0  0  0  0  0  0  0
   57.7514   29.0325   47.5423 H   0  0  0  0  0  0  0  0  0  0  0  0
   58.2760   27.2160   46.5410 C   0  0  0  0  0  0  0  0  0  0  0  0
   56.9400   26.9780   46.1830 C   0  0  0  0  0  0  0  0  0  0  0  0
   56.1758   27.7438   46.3819 H   0  0  0  0  0  0  0  0  0  0  0  0
   56.5750   25.7730   45.5750 C   0  0  0  0  0  0  0  0  0  0  0  0
   55.5287   25.6023   45.2814 H   0  0  0  0  0  0  0  0  0  0  0  0
   57.5380   24.7810   45.3380 C   0  0  0  0  0  0  0  0  0  0  0  0
   57.1520   23.5100   44.6880 C   0  0  0  0  0  0  0  0  0  0  0  0
   56.9640   23.5130   43.2950 C   0  0  0  0  0  0  0  0  0  0  0  0
   57.0439   24.4575   42.7369 H   0  0  0  0  0  0  0  0  0  0  0  0
   56.6770   22.3300   42.6130 C   0  0  0  0  0  0  0  0  0  0  0  0
   56.5313   22.3454   41.5228 H   0  0  0  0  0  0  0  0  0  0  0  0
   56.5750   21.1300   43.3120 C   0  0  0  0  0  0  0  0  0  0  0  0
   56.3614   20.1965   42.7707 H   0  0  0  0  0  0  0  0  0  0  0  0
   56.7430   21.1080   44.6980 C   0  0  0  0  0  0  0  0  0  0  0  0
   56.6596   20.1548   45.2407 H   0  0  0  0  0  0  0  0  0  0  0  0
   57.0180   22.2920   45.4090 C   0  0  0  0  0  0  0  0  0  0  0  0
   57.1090   22.2200   46.8890 C   0  0  0  0  0  0  0  0  0  0  0  0
   57.3440   21.0990   47.5960 N   0  0  0  0  0  0  0  0  0  0  0  0
   57.3870   21.4930   48.8580 N   0  0  0  0  0  0  0  0  0  0  0  0
   57.1970   22.8010   48.9230 N   0  0  0  0  0  0  0  0  0  0  0  0
   57.0240   23.2880   47.7050 N   0  0  0  0  0  0  0  0  0  0  0  0
   58.8750   25.0170   45.6970 C   0  0  0  0  0  0  0  0  0  0  0  0
   59.6385   24.2498   45.5009 H   0  0  0  0  0  0  0  0  0  0  0  0
   59.2390   26.2220   46.3020 C   0  0  0  0  0  0  0  0  0  0  0  0
   60.2859   26.3935   46.5930 H   0  0  0  0  0  0  0  0  0  0  0  0
   60.2120   31.4520   46.7370 N   0  0  0  0  0  0  0  0  0  0  0  0
   59.8360   32.6880   46.4440 N   0  0  0  0  0  0  0  0  0  0  0  0
   60.5740   33.8920   46.8650 C   0  0  0  0  0  0  0  0  0  0  0  0
   60.0924   34.7635   46.3974 H   0  0  0  0  0  0  0  0  0  0  0  0
   60.5020   34.0970   48.3920 C   0  0  0  0  0  0  0  0  0  0  0  0
   60.7931   35.1325   48.6224 H   0  0  0  0  0  0  0  0  0  0  0  0
   59.4698   33.8854   48.7079 H   0  0  0  0  0  0  0  0  0  0  0  0
   61.4350   33.1360   49.1670 C   0  0  0  0  0  0  0  0  0  0  0  0
   62.0345   33.7273   49.8748 H   0  0  0  0  0  0  0  0  0  0  0  0
   60.7940   32.4020   49.6773 H   0  0  0  0  0  0  0  0  0  0  0  0
   62.3170   32.4100   48.3280 O   0  0  0  0  0  0  0  0  0  0  0  0
   62.9920   33.2930   47.4580 C   0  0  0  0  0  0  0  0  0  0  0  0
   63.3904   34.1378   48.0391 H   0  0  0  0  0  0  0  0  0  0  0  0
   63.8108   32.7472   46.9665 H   0  0  0  0  0  0  0  0  0  0  0  0
   62.0380   33.8290   46.3780 C   0  0  0  0  0  0  0  0  0  0  0  0
   62.3596   34.8417   46.0935 H   0  0  0  0  0  0  0  0  0  0  0  0
   62.0777   33.1385   45.5226 H   0  0  0  0  0  0  0  0  0  0  0  0
  1  2  1  0
  2  3  1  0
  3  4  1  0
  3  5  1  0
  3  6  1  0
  6  7  2  0
  7  8  1  0
  8  9  2  0
  8 10  1  0
 10 11  1  0
 10 12  1  0
 12 13  1  0
 12 14  1  0
 12 15  1  0
  7 16  1  0
 16 17  2  0
 17 18  1  0
 18 19  1  0
 18 20  1  0
 18 21  1  0
 21 22  2  0
 22 23  1  0
 22 24  1  0
 24 25  1  0
 24 26  2  0
 26 27  1  0
 27 28  2  0
 28 29  1  0
 28 30  1  0
 30 31  1  0
 30 32  2  0
 32 33  1  0
 32 34  1  0
 34 35  1  0
 34 36  2  0
 36 37  1  0
 37 38  1  0
 38 39  2  0
 39 40  1  0
 40 41  1  0
 26 42  1  0
 42 43  1  0
 42 44  2  0
 44 45  1  0
 16 46  1  0
 46 47  1  0
 47 48  1  0
 48 49  1  0
 48 50  1  0
 50 51  1  0
 50 52  1  0
 50 53  1  0
 53 54  1  0
 53 55  1  0
 53 56  1  0
 56 57  1  0
 57 58  1  0
 57 59  1  0
 57 60  1  0
 60 61  1  0
 60 62  1  0
 47  6  1  0
 60 48  1  0
 44 21  1  0
 36 27  1  0
 41 37  2  0
M  CHG  2  40  -1  46  -1
M  END
>  <UniqueID>  (36) 
33

>  <SMILES>  (36) 
CNC(=O)c1c(CO)n(C2CCOCC2)[n-]/c1=N/Cc1ccc(-c2ccccc2-c2nn[n-]n2)cc1

>  <Energy>  (36) 
158.6901104806729

>  <Genealogy>  (36) 
CNC(=O)c1c(CO)n(C2CCOCC2)[n-]c1=NCc1ccc(-c2ccccc2-c2nn[n-]n2)cc1 (protonated)
CNC(=O)c1c(CO)n(C2CCOCC2)[n-]/c1=N/Cc1ccc(-c2ccccc2-c2nn[n-]n2)cc1 (cis-trans isomerization)
CNC(=O)c1c(CO)n(C2CCOCC2)[n-]/c1=N/Cc1ccc(-c2ccccc2-c2nn[n-]n2)cc1 (3D coordinates assigned)
CNC(=O)c1c(CO)n(C2CCOCC2)[n-]/c1=N/Cc1ccc(-c2ccccc2-c2nn[n-]n2)cc1 (nonaromatic ring conformer: 158.6901104806729 kcal/mol)

>  <smiles>  (36) 
CNC(=O)c1c(CO)n(C2CCOCC2)[nH]c1=NCc1ccc(-c2ccccc2-c2nn[nH]n2)cc1

>  <score_type>  (36) 
oracle

>  <origin>  (36) 
adg

>  <m_score__min__energy>  (36) 
-13.380000000000001

>  <m_primary>  (36) 
energy

$$$$
36:0
     RDKit          3D

 58 61  0  0  0  0  0  0  0  0999 V2000
   55.6140   27.7930   54.6900 C   0  0  0  0  0  0  0  0  0  0  0  0
   54.8880   27.7240   53.4670 O   0  0  0  0  0  0  0  0  0  0  0  0
   54.2580   28.8170   52.8520 C   0  0  0  0  0  0  0  0  0  0  0  0
   52.8550   28.9230   52.7740 C   0  0  0  0  0  0  0  0  0  0  0  0
   52.2650   30.0180   52.1410 C   0  0  0  0  0  0  0  0  0  0  0  0
   53.0640   31.0100   51.5700 C   0  0  0  0  0  0  0  0  0  0  0  0
   54.4550   30.9150   51.6400 C   0  0  0  0  0  0  0  0  0  0  0  0
   55.0610   29.8310   52.3010 C   0  0  0  0  0  0  0  0  0  0  0  0
   56.4870   29.6880   52.3790 N   0  0  0  0  0  0  0  0  0  0  0  0
   57.4860   30.3920   51.6300 C   0  0  0  0  0  0  0  0  0  0  0  0
   58.1290   29.8180   50.7100 O   0  0  0  0  0  0  0  0  0  0  0  0
   57.6810   31.8590   51.8590 C   0  0  0  0  0  0  0  0  0  0  0  0
   58.3860   32.4580   50.7280 N   0  0  0  0  0  0  0  0  0  0  0  0
   58.0280   32.3140   49.4630 N   0  0  0  0  0  0  0  0  0  0  0  0
   58.8540   33.1220   48.7610 C   0  0  0  0  0  0  0  0  0  0  0  0
   58.8020   33.2880   47.2960 C   0  0  0  0  0  0  0  0  0  0  0  0
   59.3210   34.4480   46.6980 C   0  0  0  0  0  0  0  0  0  0  0  0
   59.2700   34.6080   45.3110 C   0  0  0  0  0  0  0  0  0  0  0  0
   58.6970   33.6180   44.5100 C   0  0  0  0  0  0  0  0  0  0  0  0
   58.1660   32.4600   45.0940 C   0  0  0  0  0  0  0  0  0  0  0  0
   57.4540   31.2150   44.0710 S   0  0  0  0  0  0  0  0  0  0  0  0
   57.3470   31.7460   42.6690 O   0  0  0  0  0  0  0  0  0  0  0  0
   56.0740   30.8730   44.5600 O   0  0  0  0  0  0  0  0  0  0  0  0
   58.4660   29.7910   44.0930 N   0  0  0  0  0  0  0  0  0  0  0  0
   59.2170   29.6860   45.3670 C   0  0  0  0  0  0  0  0  0  0  0  0
   58.6190   28.6380   46.3160 C   0  0  0  0  0  0  0  0  0  0  0  0
   58.6170   27.2940   45.6960 N   0  0  0  0  0  0  0  0  0  0  0  0
   57.6710   26.4100   46.3940 C   0  0  0  0  0  0  0  0  0  0  0  0
   58.3630   27.3120   44.2320 C   0  0  0  0  0  0  0  0  0  0  0  0
   57.6560   28.5960   43.7790 C   0  0  0  0  0  0  0  0  0  0  0  0
   58.2250   32.2960   46.4860 C   0  0  0  0  0  0  0  0  0  0  0  0
   59.6980   33.7570   49.5520 O   0  0  0  0  0  0  0  0  0  0  0  0
   59.3930   33.3470   50.7580 C   0  0  0  0  0  0  0  0  0  0  0  0
   59.9610   33.7490   51.8080 O   0  0  0  0  0  0  0  0  0  0  0  0
   54.9142   27.7265   55.5361 H   0  0  0  0  0  0  0  0  0  0  0  0
   56.3293   26.9588   54.7394 H   0  0  0  0  0  0  0  0  0  0  0  0
   56.1593   28.7470   54.7394 H   0  0  0  0  0  0  0  0  0  0  0  0
   52.2216   28.1388   53.2142 H   0  0  0  0  0  0  0  0  0  0  0  0
   51.1691   30.0994   52.0920 H   0  0  0  0  0  0  0  0  0  0  0  0
   52.5969   31.8678   51.0641 H   0  0  0  0  0  0  0  0  0  0  0  0
   55.0805   31.6918   51.1759 H   0  0  0  0  0  0  0  0  0  0  0  0
   56.6995   32.3425   51.9724 H   0  0  0  0  0  0  0  0  0  0  0  0
   58.2788   32.0031   52.7711 H   0  0  0  0  0  0  0  0  0  0  0  0
   59.7693   35.2335   47.3240 H   0  0  0  0  0  0  0  0  0  0  0  0
   59.6825   35.5168   44.8484 H   0  0  0  0  0  0  0  0  0  0  0  0
   58.6623   33.7474   43.4182 H   0  0  0  0  0  0  0  0  0  0  0  0
   60.2566   29.4059   45.1418 H   0  0  0  0  0  0  0  0  0  0  0  0
   59.1617   30.6629   45.8696 H   0  0  0  0  0  0  0  0  0  0  0  0
   59.2170   28.6066   47.2387 H   0  0  0  0  0  0  0  0  0  0  0  0
   57.5794   28.9212   46.5372 H   0  0  0  0  0  0  0  0  0  0  0  0
   57.7948   26.5257   47.4809 H   0  0  0  0  0  0  0  0  0  0  0  0
   56.6422   26.6779   46.1116 H   0  0  0  0  0  0  0  0  0  0  0  0
   57.8686   25.3654   46.1116 H   0  0  0  0  0  0  0  0  0  0  0  0
   59.3254   27.2335   43.7051 H   0  0  0  0  0  0  0  0  0  0  0  0
   57.7043   26.4637   43.9945 H   0  0  0  0  0  0  0  0  0  0  0  0
   57.4903   28.5502   42.6925 H   0  0  0  0  0  0  0  0  0  0  0  0
   56.6983   28.6738   44.3144 H   0  0  0  0  0  0  0  0  0  0  0  0
   57.8166   31.3843   46.9464 H   0  0  0  0  0  0  0  0  0  0  0  0
  1  2  1  0
  2  3  1  0
  3  4  2  0
  4  5  1  0
  5  6  2  0
  6  7  1  0
  7  8  2  0
  8  9  1  0
  9 10  1  0
 10 11  2  0
 10 12  1  0
 12 13  1  0
 13 14  1  0
 14 15  2  0
 15 16  1  0
 16 17  2  0
 17 18  1  0
 18 19  2  0
 19 20  1  0
 20 21  1  0
 21 22  2  0
 21 23  2  0
 21 24  1  0
 24 25  1  0
 25 26  1  0
 26 27  1  0
 27 28  1  0
 27 29  1  0
 29 30  1  0
 20 31  2  0
 15 32  1  0
 32 33  1  0
 33 34  2  0
  8  3  1  0
 33 13  1  0
 31 16  1  0
 30 24  1  0
  1 35  1  0
  1 36  1  0
  1 37  1  0
  4 38  1  0
  5 39  1  0
  6 40  1  0
  7 41  1  0
 12 42  1  0
 12 43  1  0
 17 44  1  0
 18 45  1  0
 19 46  1  0
 25 47  1  0
 25 48  1  0
 26 49  1  0
 26 50  1  0
 28 51  1  0
 28 52  1  0
 28 53  1  0
 29 54  1  0
 29 55  1  0
 30 56  1  0
 30 57  1  0
 31 58  1  0
M  CHG  1   9  -1
M  END
>  <UniqueID>  (37) 
34

>  <SMILES>  (37) 
COc1ccccc1[N-]C(=O)Cn1nc(-c2cccc(S(=O)(=O)N3CCN(C)CC3)c2)oc1=O

>  <Energy>  (37) 
109.45779590149344

>  <Genealogy>  (37) 
COc1ccccc1[N-]C(=O)Cn1nc(-c2cccc(S(=O)(=O)N3CCN(C)CC3)c2)oc1=O (protonated)
COc1ccccc1[N-]C(=O)Cn1nc(-c2cccc(S(=O)(=O)N3CCN(C)CC3)c2)oc1=O (3D coordinates assigned)
COc1ccccc1[N-]C(=O)Cn1nc(-c2cccc(S(=O)(=O)N3CCN(C)CC3)c2)oc1=O (nonaromatic ring conformer: 109.45779590149344 kcal/mol)

>  <smiles>  (37) 
COc1ccccc1NC(=O)Cn1nc(-c2cccc(S(=O)(=O)N3CCN(C)CC3)c2)oc1=O

>  <score_type>  (37) 
oracle

>  <origin>  (37) 
adg

>  <m_score__min__energy>  (37) 
-12.119999999999999

>  <m_primary>  (37) 
energy

$$$$
37:0
     RDKit          3D

 50 53  0  0  0  0  0  0  0  0999 V2000
   55.1540   26.4230   46.0040 O   0  0  0  0  0  0  0  0  0  0  0  0
   56.3330   25.9770   46.0450 C   0  0  0  0  0  0  0  0  0  0  0  0
   57.4470   26.8100   45.6990 N   0  0  0  0  0  0  0  0  0  0  0  0
   57.4420   28.2020   45.3440 C   0  0  0  0  0  0  0  0  0  0  0  0
   58.5820   28.9640   45.6380 C   0  0  0  0  0  0  0  0  0  0  0  0
   58.6330   30.3220   45.3140 C   0  0  0  0  0  0  0  0  0  0  0  0
   57.5470   30.9410   44.6870 C   0  0  0  0  0  0  0  0  0  0  0  0
   57.6340   32.3070   44.3780 O   0  0  0  0  0  0  0  0  0  0  0  0
   58.3030   33.2730   45.1430 C   0  0  0  0  0  0  0  0  0  0  0  0
   58.8710   34.3700   44.4910 C   0  0  0  0  0  0  0  0  0  0  0  0
   59.5290   35.3510   45.2350 C   0  0  0  0  0  0  0  0  0  0  0  0
   59.6010   35.2450   46.5890 N   0  0  0  0  0  0  0  0  0  0  0  0
   59.0400   34.2000   47.2620 C   0  0  0  0  0  0  0  0  0  0  0  0
   59.1100   34.1120   48.5600 N   0  0  0  0  0  0  0  0  0  0  0  0
   60.2770   33.8230   49.3490 C   0  0  0  0  0  0  0  0  0  0  0  0
   60.2800   34.0320   50.5930 O   0  0  0  0  0  0  0  0  0  0  0  0
   61.4840   33.2610   48.6980 C   0  0  0  0  0  0  0  0  0  0  0  0
   62.7140   33.9470   48.7510 C   0  0  0  0  0  0  0  0  0  0  0  0
   63.8540   33.4090   48.1440 C   0  0  0  0  0  0  0  0  0  0  0  0
   63.7790   32.1850   47.4760 C   0  0  0  0  0  0  0  0  0  0  0  0
   62.5650   31.4960   47.4140 C   0  0  0  0  0  0  0  0  0  0  0  0
   61.4240   32.0280   48.0220 C   0  0  0  0  0  0  0  0  0  0  0  0
   58.3790   33.1950   46.5450 C   0  0  0  0  0  0  0  0  0  0  0  0
   56.3830   30.1940   44.4340 C   0  0  0  0  0  0  0  0  0  0  0  0
   56.3290   28.8370   44.7640 C   0  0  0  0  0  0  0  0  0  0  0  0
   56.5750   24.6180   46.4270 N   0  0  0  0  0  0  0  0  0  0  0  0
   55.5210   23.6890   46.7270 C   0  0  0  0  0  0  0  0  0  0  0  0
   55.3030   23.3160   48.0630 C   0  0  0  0  0  0  0  0  0  0  0  0
   54.2780   22.4210   48.3880 C   0  0  0  0  0  0  0  0  0  0  0  0
   53.4690   21.8870   47.3830 C   0  0  0  0  0  0  0  0  0  0  0  0
   53.6940   22.2320   46.0490 C   0  0  0  0  0  0  0  0  0  0  0  0
   54.7220   23.1210   45.7100 C   0  0  0  0  0  0  0  0  0  0  0  0
   55.0400   23.4150   44.0030 Cl  0  0  0  0  0  0  0  0  0  0  0  0
   59.4440   28.4880   46.1283 H   0  0  0  0  0  0  0  0  0  0  0  0
   59.5327   30.9078   45.5535 H   0  0  0  0  0  0  0  0  0  0  0  0
   58.8002   34.4604   43.3970 H   0  0  0  0  0  0  0  0  0  0  0  0
   59.9896   36.2104   44.7257 H   0  0  0  0  0  0  0  0  0  0  0  0
   62.7782   34.9128   49.2736 H   0  0  0  0  0  0  0  0  0  0  0  0
   64.8102   33.9506   48.1930 H   0  0  0  0  0  0  0  0  0  0  0  0
   64.6757   31.7632   46.9986 H   0  0  0  0  0  0  0  0  0  0  0  0
   62.5069   30.5329   46.8857 H   0  0  0  0  0  0  0  0  0  0  0  0
   60.4722   31.4788   47.9717 H   0  0  0  0  0  0  0  0  0  0  0  0
   57.9210   32.3478   47.0765 H   0  0  0  0  0  0  0  0  0  0  0  0
   55.5102   30.6802   43.9739 H   0  0  0  0  0  0  0  0  0  0  0  0
   55.4113   28.2626   44.5691 H   0  0  0  0  0  0  0  0  0  0  0  0
   57.5500   24.3600   46.7000 H   0  0  0  0  0  0  0  0  0  0  0  0
   55.9412   23.7295   48.8579 H   0  0  0  0  0  0  0  0  0  0  0  0
   54.1091   22.1374   49.4373 H   0  0  0  0  0  0  0  0  0  0  0  0
   52.6545   21.1946   47.6423 H   0  0  0  0  0  0  0  0  0  0  0  0
   53.0599   21.8029   45.2591 H   0  0  0  0  0  0  0  0  0  0  0  0
  1  2  2  0
  2  3  1  0
  3  4  1  0
  4  5  2  0
  5  6  1  0
  6  7  2  0
  7  8  1  0
  8  9  1  0
  9 10  1  0
 10 11  2  0
 11 12  1  0
 12 13  1  0
 13 14  2  3
 14 15  1  0
 15 16  2  0
 15 17  1  0
 17 18  2  0
 18 19  1  0
 19 20  2  0
 20 21  1  0
 21 22  2  0
 13 23  1  0
  7 24  1  0
 24 25  2  0
  2 26  1  0
 26 27  1  0
 27 28  2  0
 28 29  1  0
 29 30  2  0
 30 31  1  0
 31 32  2  0
 32 33  1  0
 25  4  1  0
 32 27  1  0
 23  9  2  0
 22 17  1  0
  5 34  1  0
  6 35  1  0
 10 36  1  0
 11 37  1  0
 18 38  1  0
 19 39  1  0
 20 40  1  0
 21 41  1  0
 22 42  1  0
 23 43  1  0
 24 44  1  0
 25 45  1  0
 26 46  1  0
 28 47  1  0
 29 48  1  0
 30 49  1  0
 31 50  1  0
M  CHG  2   3  -1  12  -1
M  END
>  <UniqueID>  (38) 
35

>  <SMILES>  (38) 
O=C([N-]c1ccc(Oc2cc[n-]c(=NC(=O)c3ccccc3)c2)cc1)Nc1ccccc1Cl

>  <Energy>  (38) 
75.52636506264575

>  <Genealogy>  (38) 
O=C([N-]c1ccc(Oc2cc[n-]c(=NC(=O)c3ccccc3)c2)cc1)Nc1ccccc1Cl (protonated)
O=C([N-]c1ccc(Oc2cc[n-]c(=NC(=O)c3ccccc3)c2)cc1)Nc1ccccc1Cl (3D coordinates assigned)
O=C([N-]c1ccc(Oc2cc[n-]c(=NC(=O)c3ccccc3)c2)cc1)Nc1ccccc1Cl (optimized conformer: 75.52636506264575 kcal/mol)

>  <smiles>  (38) 
O=C(Nc1ccc(Oc2cc[nH]c(=NC(=O)c3ccccc3)c2)cc1)Nc1ccccc1Cl

>  <score_type>  (38) 
oracle

>  <origin>  (38) 
adg

>  <m_score__min__energy>  (38) 
-11.27

>  <m_primary>  (38) 
energy

$$$$
38:0
     RDKit          3D

 36 38  0  0  0  0  0  0  0  0999 V2000
   60.1970   29.5460   48.1230 O   0  0  0  0  0  0  0  0  0  0  0  0
   59.6920   28.8630   47.1940 C   0  0  0  0  0  0  0  0  0  0  0  0
   59.3410   27.5000   47.4540 N   0  0  0  0  0  0  0  0  0  0  0  0
   58.4060   26.7210   46.6940 C   0  0  0  0  0  0  0  0  0  0  0  0
   58.8140   25.6240   45.9150 C   0  0  0  0  0  0  0  0  0  0  0  0
   57.8720   24.8860   45.1910 C   0  0  0  0  0  0  0  0  0  0  0  0
   56.5220   25.2460   45.2270 C   0  0  0  0  0  0  0  0  0  0  0  0
   56.1140   26.3510   45.9790 C   0  0  0  0  0  0  0  0  0  0  0  0
   54.7720   26.7120   46.0090 O   0  0  0  0  0  0  0  0  0  0  0  0
   57.0550   27.0920   46.7020 C   0  0  0  0  0  0  0  0  0  0  0  0
   59.5740   29.3950   45.8680 N   0  0  0  0  0  0  0  0  0  0  0  0
   58.3990   29.5650   45.0620 C   0  0  0  0  0  0  0  0  0  0  0  0
   58.1270   28.7420   43.9540 C   0  0  0  0  0  0  0  0  0  0  0  0
   57.0020   28.9830   43.1640 C   0  0  0  0  0  0  0  0  0  0  0  0
   56.1680   30.0560   43.4680 C   0  0  0  0  0  0  0  0  0  0  0  0
   56.4520   30.8580   44.5260 N   0  0  0  0  0  0  0  0  0  0  0  0
   57.5270   30.6440   45.3320 C   0  0  0  0  0  0  0  0  0  0  0  0
   57.7560   31.5450   46.3850 O   0  0  0  0  0  0  0  0  0  0  0  0
   58.3960   32.7890   46.2700 C   0  0  0  0  0  0  0  0  0  0  0  0
   59.0020   33.4160   47.3740 C   0  0  0  0  0  0  0  0  0  0  0  0
   59.6520   34.6440   47.2140 C   0  0  0  0  0  0  0  0  0  0  0  0
   59.6840   35.2620   45.9600 C   0  0  0  0  0  0  0  0  0  0  0  0
   59.0570   34.6570   44.8680 C   0  0  0  0  0  0  0  0  0  0  0  0
   58.4090   33.4280   45.0230 C   0  0  0  0  0  0  0  0  0  0  0  0
   59.8773   25.3453   45.8748 H   0  0  0  0  0  0  0  0  0  0  0  0
   58.1941   24.0211   44.5925 H   0  0  0  0  0  0  0  0  0  0  0  0
   55.7810   24.6598   44.6637 H   0  0  0  0  0  0  0  0  0  0  0  0
   56.7324   27.9706   47.2799 H   0  0  0  0  0  0  0  0  0  0  0  0
   58.8015   27.9080   43.7101 H   0  0  0  0  0  0  0  0  0  0  0  0
   56.7758   28.3304   42.3078 H   0  0  0  0  0  0  0  0  0  0  0  0
   55.2791   30.2538   42.8509 H   0  0  0  0  0  0  0  0  0  0  0  0
   58.9645   32.9396   48.3648 H   0  0  0  0  0  0  0  0  0  0  0  0
   60.1387   35.1243   48.0757 H   0  0  0  0  0  0  0  0  0  0  0  0
   60.2025   36.2238   45.8335 H   0  0  0  0  0  0  0  0  0  0  0  0
   59.0732   35.1487   43.8841 H   0  0  0  0  0  0  0  0  0  0  0  0
   57.9074   32.9608   44.1627 H   0  0  0  0  0  0  0  0  0  0  0  0
  1  2  2  0
  2  3  1  0
  3  4  1  0
  4  5  2  0
  5  6  1  0
  6  7  2  0
  7  8  1  0
  8  9  1  0
  8 10  2  0
  2 11  1  0
 11 12  1  0
 12 13  2  0
 13 14  1  0
 14 15  2  0
 15 16  1  0
 16 17  2  0
 17 18  1  0
 18 19  1  0
 19 20  2  0
 20 21  1  0
 21 22  2  0
 22 23  1  0
 23 24  2  0
 10  4  1  0
 17 12  1  0
 24 19  1  0
  5 25  1  0
  6 26  1  0
  7 27  1  0
 10 28  1  0
 13 29  1  0
 14 30  1  0
 15 31  1  0
 20 32  1  0
 21 33  1  0
 22 34  1  0
 23 35  1  0
 24 36  1  0
M  CHG  3   3  -1   9  -1  11  -1
M  END
>  <UniqueID>  (39) 
36

>  <SMILES>  (39) 
O=C([N-]c1cccc([O-])c1)[N-]c1cccnc1Oc1ccccc1

>  <Energy>  (39) 
51.37297057907798

>  <Genealogy>  (39) 
O=C([N-]c1cccc([O-])c1)[N-]c1cccnc1Oc1ccccc1 (protonated)
O=C([N-]c1cccc([O-])c1)[N-]c1cccnc1Oc1ccccc1 (3D coordinates assigned)
O=C([N-]c1cccc([O-])c1)[N-]c1cccnc1Oc1ccccc1 (optimized conformer: 51.37297057907798 kcal/mol)

>  <smiles>  (39) 
O=C(Nc1cccc(O)c1)Nc1cccnc1Oc1ccccc1

>  <score_type>  (39) 
oracle

>  <origin>  (39) 
adg

>  <m_score__min__energy>  (39) 
-13.65

>  <m_primary>  (39) 
energy

$$$$
39:0
     RDKit          3D

 46 49  0  0  0  0  0  0  0  0999 V2000
   62.0580   31.4320   49.4840 O   0  0  0  0  0  0  0  0  0  0  0  0
   61.4120   31.7810   48.4590 C   0  0  0  0  0  0  0  0  0  0  0  0
   61.5710   33.1050   47.9340 N   0  0  0  0  0  0  0  0  0  0  0  0
   60.6000   34.1770   48.1260 C   0  0  0  0  0  0  0  0  0  0  0  0
   59.4980   34.0800   47.1030 C   0  0  0  0  0  0  0  0  0  0  0  0
   59.6580   34.6990   45.8500 C   0  0  0  0  0  0  0  0  0  0  0  0
   58.6500   34.6080   44.8850 C   0  0  0  0  0  0  0  0  0  0  0  0
   57.4800   33.8940   45.1570 C   0  0  0  0  0  0  0  0  0  0  0  0
   57.3130   33.2740   46.3980 C   0  0  0  0  0  0  0  0  0  0  0  0
   58.3160   33.3610   47.3700 C   0  0  0  0  0  0  0  0  0  0  0  0
   58.1300   32.7480   48.5670 F   0  0  0  0  0  0  0  0  0  0  0  0
   60.5000   30.8220   47.7950 C   0  0  0  0  0  0  0  0  0  0  0  0
   59.7730   29.8870   48.5540 C   0  0  0  0  0  0  0  0  0  0  0  0
   58.9150   28.9780   47.9270 C   0  0  0  0  0  0  0  0  0  0  0  0
   58.7570   28.9910   46.5350 C   0  0  0  0  0  0  0  0  0  0  0  0
   57.8900   28.0260   45.9150 N   0  0  0  0  0  0  0  0  0  0  0  0
   57.6950   26.6870   46.4000 C   0  0  0  0  0  0  0  0  0  0  0  0
   58.5470   26.1580   47.1630 O   0  0  0  0  0  0  0  0  0  0  0  0
   56.5690   25.8670   45.9080 C   0  0  0  0  0  0  0  0  0  0  0  0
   55.3140   26.3700   46.0500 N   0  0  0  0  0  0  0  0  0  0  0  0
   54.2290   25.6870   45.6900 N   0  0  0  0  0  0  0  0  0  0  0  0
   54.3120   24.4420   45.1590 C   0  0  0  0  0  0  0  0  0  0  0  0
   53.2530   23.8340   44.8440 O   0  0  0  0  0  0  0  0  0  0  0  0
   55.5730   23.8560   44.9620 C   0  0  0  0  0  0  0  0  0  0  0  0
   55.7020   22.5720   44.3980 C   0  0  0  0  0  0  0  0  0  0  0  0
   56.9660   22.0220   44.1800 C   0  0  0  0  0  0  0  0  0  0  0  0
   58.1110   22.7490   44.5050 C   0  0  0  0  0  0  0  0  0  0  0  0
   58.0010   24.0240   45.0650 C   0  0  0  0  0  0  0  0  0  0  0  0
   56.7330   24.5850   45.3280 C   0  0  0  0  0  0  0  0  0  0  0  0
   59.5000   29.9080   45.7720 C   0  0  0  0  0  0  0  0  0  0  0  0
   60.3560   30.8200   46.3970 C   0  0  0  0  0  0  0  0  0  0  0  0
   60.1665   34.0966   49.1338 H   0  0  0  0  0  0  0  0  0  0  0  0
   61.1102   35.1445   48.0088 H   0  0  0  0  0  0  0  0  0  0  0  0
   60.5798   35.2569   45.6284 H   0  0  0  0  0  0  0  0  0  0  0  0
   58.7784   35.0997   43.9094 H   0  0  0  0  0  0  0  0  0  0  0  0
   56.6907   33.8201   44.3944 H   0  0  0  0  0  0  0  0  0  0  0  0
   56.3898   32.7155   46.6117 H   0  0  0  0  0  0  0  0  0  0  0  0
   59.8802   29.8708   49.6486 H   0  0  0  0  0  0  0  0  0  0  0  0
   58.3593   28.2464   48.5320 H   0  0  0  0  0  0  0  0  0  0  0  0
   57.4250   28.2860   45.0160 H   0  0  0  0  0  0  0  0  0  0  0  0
   54.8021   21.9999   44.1280 H   0  0  0  0  0  0  0  0  0  0  0  0
   57.0594   21.0134   43.7511 H   0  0  0  0  0  0  0  0  0  0  0  0
   59.1052   22.3164   44.3195 H   0  0  0  0  0  0  0  0  0  0  0  0
   58.9103   24.5955   45.3030 H   0  0  0  0  0  0  0  0  0  0  0  0
   59.4075   29.9083   44.6759 H   0  0  0  0  0  0  0  0  0  0  0  0
   60.9214   31.5419   45.7894 H   0  0  0  0  0  0  0  0  0  0  0  0
  1  2  2  0
  2  3  1  0
  3  4  1  0
  4  5  1  0
  5  6  2  0
  6  7  1  0
  7  8  2  0
  8  9  1  0
  9 10  2  0
 10 11  1  0
  2 12  1  0
 12 13  2  0
 13 14  1  0
 14 15  2  0
 15 16  1  0
 16 17  1  0
 17 18  2  0
 17 19  1  0
 19 20  2  0
 20 21  1  0
 21 22  1  0
 22 23  2  0
 22 24  1  0
 24 25  2  0
 25 26  1  0
 26 27  2  0
 27 28  1  0
 28 29  2  0
 15 30  1  0
 30 31  2  0
 10  5  1  0
 31 12  1  0
 29 19  1  0
 29 24  1  0
  4 32  1  0
  4 33  1  0
  6 34  1  0
  7 35  1  0
  8 36  1  0
  9 37  1  0
 13 38  1  0
 14 39  1  0
 16 40  1  0
 25 41  1  0
 26 42  1  0
 27 43  1  0
 28 44  1  0
 30 45  1  0
 31 46  1  0
M  CHG  2   3  -1  21  -1
M  END
>  <UniqueID>  (40) 
37

>  <SMILES>  (40) 
O=C([N-]Cc1ccccc1F)c1ccc(NC(=O)c2n[n-]c(=O)c3ccccc23)cc1

>  <Energy>  (40) 
65.71161115472

>  <Genealogy>  (40) 
O=C([N-]Cc1ccccc1F)c1ccc(NC(=O)c2n[n-]c(=O)c3ccccc23)cc1 (protonated)
O=C([N-]Cc1ccccc1F)c1ccc(NC(=O)c2n[n-]c(=O)c3ccccc23)cc1 (3D coordinates assigned)
O=C([N-]Cc1ccccc1F)c1ccc(NC(=O)c2n[n-]c(=O)c3ccccc23)cc1 (optimized conformer: 65.71161115472 kcal/mol)

>  <smiles>  (40) 
O=C(NCc1ccccc1F)c1ccc(NC(=O)c2n[nH]c(=O)c3ccccc23)cc1

>  <score_type>  (40) 
oracle

>  <origin>  (40) 
adg

>  <m_score__min__energy>  (40) 
-12.93

>  <m_primary>  (40) 
energy

$$$$
40:0
     RDKit          3D

 31 32  0  0  0  0  0  0  0  0999 V2000
   60.3700   27.4660   48.0380 C   0  0  0  0  0  0  0  0  0  0  0  0
   60.0200   26.9980   46.3580 S   0  0  0  0  0  0  0  0  0  0  0  0
   60.6870   27.9730   45.4280 O   0  0  0  0  0  0  0  0  0  0  0  0
   60.5580   25.6220   46.0860 O   0  0  0  0  0  0  0  0  0  0  0  0
   58.2840   27.0230   46.0830 C   0  0  0  0  0  0  0  0  0  0  0  0
   57.7090   28.1480   45.5830 N   0  0  0  0  0  0  0  0  0  0  0  0
   56.3710   28.2170   45.3460 C   0  0  0  0  0  0  0  0  0  0  0  0
   55.8320   29.2950   44.8590 N   0  0  0  0  0  0  0  0  0  0  0  0
   56.4460   30.1490   43.8420 C   0  0  0  0  0  0  0  0  0  0  0  0
   57.2480   31.2500   44.4840 C   0  0  0  0  0  0  0  0  0  0  0  0
   57.4350   32.4760   43.8250 C   0  0  0  0  0  0  0  0  0  0  0  0
   58.1580   33.5040   44.4390 C   0  0  0  0  0  0  0  0  0  0  0  0
   58.7000   33.3150   45.7150 C   0  0  0  0  0  0  0  0  0  0  0  0
   59.6050   34.6040   46.4840 Cl  0  0  0  0  0  0  0  0  0  0  0  0
   58.5180   32.0950   46.3760 C   0  0  0  0  0  0  0  0  0  0  0  0
   57.7940   31.0660   45.7640 C   0  0  0  0  0  0  0  0  0  0  0  0
   55.5840   27.1440   45.6200 N   0  0  0  0  0  0  0  0  0  0  0  0
   56.1080   25.9980   46.1270 C   0  0  0  0  0  0  0  0  0  0  0  0
   55.3490   25.0230   46.3690 O   0  0  0  0  0  0  0  0  0  0  0  0
   57.4860   25.9080   46.3720 C   0  0  0  0  0  0  0  0  0  0  0  0
   58.0580   24.7450   46.8910 O   0  0  0  0  0  0  0  0  0  0  0  0
   59.8555   26.7781   48.7250 H   0  0  0  0  0  0  0  0  0  0  0  0
   61.4547   27.4168   48.2139 H   0  0  0  0  0  0  0  0  0  0  0  0
   60.0162   28.4926   48.2139 H   0  0  0  0  0  0  0  0  0  0  0  0
   57.1099   29.5393   43.2116 H   0  0  0  0  0  0  0  0  0  0  0  0
   55.6497   30.6012   43.2326 H   0  0  0  0  0  0  0  0  0  0  0  0
   57.0110   32.6285   42.8215 H   0  0  0  0  0  0  0  0  0  0  0  0
   58.3006   34.4622   43.9180 H   0  0  0  0  0  0  0  0  0  0  0  0
   58.9449   31.9448   47.3786 H   0  0  0  0  0  0  0  0  0  0  0  0
   57.6521   30.1092   46.2879 H   0  0  0  0  0  0  0  0  0  0  0  0
   58.8920   24.3310   46.4920 H   0  0  0  0  0  0  0  0  0  0  0  0
  1  2  1  0
  2  3  2  0
  2  4  2  0
  2  5  1  0
  5  6  1  0
  6  7  1  0
  7  8  2  3
  8  9  1  0
  9 10  1  0
 10 11  2  0
 11 12  1  0
 12 13  2  0
 13 14  1  0
 13 15  1  0
 15 16  2  0
  7 17  1  0
 17 18  1  0
 18 19  2  0
 18 20  1  0
 20 21  1  0
 20  5  2  0
 16 10  1  0
  1 22  1  0
  1 23  1  0
  1 24  1  0
  9 25  1  0
  9 26  1  0
 11 27  1  0
 12 28  1  0
 15 29  1  0
 16 30  1  0
 21 31  1  0
M  CHG  2   6  -1  17  -1
M  END
>  <UniqueID>  (41) 
38

>  <SMILES>  (41) 
CS(=O)(=O)c1[n-]c(=NCc2ccc(Cl)cc2)[n-]c(=O)c1O

>  <Energy>  (41) 
28.608829333111274

>  <Genealogy>  (41) 
CS(=O)(=O)c1[n-]c(=NCc2ccc(Cl)cc2)[n-]c(=O)c1O (protonated)
CS(=O)(=O)c1[n-]c(=NCc2ccc(Cl)cc2)[n-]c(=O)c1O (3D coordinates assigned)
CS(=O)(=O)c1[n-]c(=NCc2ccc(Cl)cc2)[n-]c(=O)c1O (optimized conformer: 28.608829333111274 kcal/mol)

>  <smiles>  (41) 
CS(=O)(=O)c1[nH]c(=NCc2ccc(Cl)cc2)[nH]c(=O)c1O

>  <score_type>  (41) 
oracle

>  <origin>  (41) 
adg

>  <m_score__min__energy>  (41) 
-10.76

>  <m_primary>  (41) 
energy

$$$$
41:0
     RDKit          3D

 49 51  0  0  0  0  0  0  0  0999 V2000
   63.3070   33.4660   47.1150 C   0  0  0  0  0  0  0  0  0  0  0  0
   62.0240   33.9250   46.7030 O   0  0  0  0  0  0  0  0  0  0  0  0
   60.8540   33.1490   46.7340 C   0  0  0  0  0  0  0  0  0  0  0  0
   60.8650   31.7900   47.1100 C   0  0  0  0  0  0  0  0  0  0  0  0
   59.6720   31.0470   47.1400 C   0  0  0  0  0  0  0  0  0  0  0  0
   59.6930   29.6180   47.5260 C   0  0  0  0  0  0  0  0  0  0  0  0
   60.3970   29.2500   48.5050 O   0  0  0  0  0  0  0  0  0  0  0  0
   58.9660   28.6280   46.7830 N   0  0  0  0  0  0  0  0  0  0  0  0
   57.8840   28.0290   47.2560 N   0  0  0  0  0  0  0  0  0  0  0  0
   57.4360   27.1890   46.3020 C   0  0  0  0  0  0  0  0  0  0  0  0
   56.2480   26.3400   46.4520 C   0  0  0  0  0  0  0  0  0  0  0  0
   55.1430   26.7220   45.9820 O   0  0  0  0  0  0  0  0  0  0  0  0
   56.3500   25.0840   47.1280 N   0  0  0  0  0  0  0  0  0  0  0  0
   57.5120   24.2150   47.0110 C   0  0  0  0  0  0  0  0  0  0  0  0
   57.3060   23.2580   45.8680 C   0  0  0  0  0  0  0  0  0  0  0  0
   57.1630   23.7540   44.5620 C   0  0  0  0  0  0  0  0  0  0  0  0
   56.9440   22.8810   43.4940 C   0  0  0  0  0  0  0  0  0  0  0  0
   56.8570   21.5080   43.7200 C   0  0  0  0  0  0  0  0  0  0  0  0
   56.9820   21.0010   45.0170 C   0  0  0  0  0  0  0  0  0  0  0  0
   57.2020   21.8710   46.1050 C   0  0  0  0  0  0  0  0  0  0  0  0
   57.3170   21.3940   47.4210 O   0  0  0  0  0  0  0  0  0  0  0  0
   56.2210   20.9770   48.2290 C   0  0  0  0  0  0  0  0  0  0  0  0
   58.2450   27.2660   45.1820 C   0  0  0  0  0  0  0  0  0  0  0  0
   59.1980   28.2050   45.5190 C   0  0  0  0  0  0  0  0  0  0  0  0
   60.2860   28.6910   44.6100 C   0  0  0  0  0  0  0  0  0  0  0  0
   58.4690   31.6670   46.7680 C   0  0  0  0  0  0  0  0  0  0  0  0
   58.4540   33.0120   46.3950 C   0  0  0  0  0  0  0  0  0  0  0  0
   59.6410   33.7540   46.3800 C   0  0  0  0  0  0  0  0  0  0  0  0
   59.6240   35.0980   46.0090 O   0  0  0  0  0  0  0  0  0  0  0  0
   63.3548   33.4489   48.2138 H   0  0  0  0  0  0  0  0  0  0  0  0
   63.4762   32.4516   46.7248 H   0  0  0  0  0  0  0  0  0  0  0  0
   64.0813   34.1429   46.7248 H   0  0  0  0  0  0  0  0  0  0  0  0
   61.8152   31.3072   47.3821 H   0  0  0  0  0  0  0  0  0  0  0  0
   58.4085   24.8240   46.8230 H   0  0  0  0  0  0  0  0  0  0  0  0
   57.6440   23.6494   47.9452 H   0  0  0  0  0  0  0  0  0  0  0  0
   57.2239   24.8370   44.3790 H   0  0  0  0  0  0  0  0  0  0  0  0
   56.8400   23.2773   42.4731 H   0  0  0  0  0  0  0  0  0  0  0  0
   56.6897   20.8223   42.8763 H   0  0  0  0  0  0  0  0  0  0  0  0
   56.9083   19.9172   45.1898 H   0  0  0  0  0  0  0  0  0  0  0  0
   56.4888   21.0789   49.2910 H   0  0  0  0  0  0  0  0  0  0  0  0
   55.3444   21.6044   48.0100 H   0  0  0  0  0  0  0  0  0  0  0  0
   55.9832   19.9256   48.0100 H   0  0  0  0  0  0  0  0  0  0  0  0
   58.1501   26.7069   44.2394 H   0  0  0  0  0  0  0  0  0  0  0  0
   61.1265   29.0664   45.2122 H   0  0  0  0  0  0  0  0  0  0  0  0
   60.6313   27.8616   43.9753 H   0  0  0  0  0  0  0  0  0  0  0  0
   59.8987   29.5017   43.9753 H   0  0  0  0  0  0  0  0  0  0  0  0
   57.5327   31.0897   46.7704 H   0  0  0  0  0  0  0  0  0  0  0  0
   57.5052   33.4910   46.1116 H   0  0  0  0  0  0  0  0  0  0  0  0
   60.4700   35.6540   45.9910 H   0  0  0  0  0  0  0  0  0  0  0  0
  1  2  1  0
  2  3  1  0
  3  4  2  0
  4  5  1  0
  5  6  1  0
  6  7  2  0
  6  8  1  0
  8  9  1  0
  9 10  2  0
 10 11  1  0
 11 12  2  0
 11 13  1  0
 13 14  1  0
 14 15  1  0
 15 16  2  0
 16 17  1  0
 17 18  2  0
 18 19  1  0
 19 20  2  0
 20 21  1  0
 21 22  1  0
 10 23  1  0
 23 24  2  0
 24 25  1  0
  5 26  2  0
 26 27  1  0
 27 28  2  0
 28 29  1  0
 28  3  1  0
 24  8  1  0
 20 15  1  0
  1 30  1  0
  1 31  1  0
  1 32  1  0
  4 33  1  0
 14 34  1  0
 14 35  1  0
 16 36  1  0
 17 37  1  0
 18 38  1  0
 19 39  1  0
 22 40  1  0
 22 41  1  0
 22 42  1  0
 23 43  1  0
 25 44  1  0
 25 45  1  0
 25 46  1  0
 26 47  1  0
 27 48  1  0
 29 49  1  0
M  CHG  1  13  -1
M  END
>  <UniqueID>  (42) 
39

>  <SMILES>  (42) 
COc1cc(C(=O)n2nc(C(=O)[N-]Cc3ccccc3OC)cc2C)ccc1O

>  <Energy>  (42) 
81.8109249704486

>  <Genealogy>  (42) 
COc1cc(C(=O)n2nc(C(=O)[N-]Cc3ccccc3OC)cc2C)ccc1O (protonated)
COc1cc(C(=O)n2nc(C(=O)[N-]Cc3ccccc3OC)cc2C)ccc1O (3D coordinates assigned)
COc1cc(C(=O)n2nc(C(=O)[N-]Cc3ccccc3OC)cc2C)ccc1O (optimized conformer: 81.8109249704486 kcal/mol)

>  <smiles>  (42) 
COc1cc(C(=O)n2nc(C(=O)NCc3ccccc3OC)cc2C)ccc1O

>  <score_type>  (42) 
oracle

>  <origin>  (42) 
adg

>  <m_score__min__energy>  (42) 
-10.06

>  <m_primary>  (42) 
energy

$$$$
42:0
     RDKit          3D

 33 34  0  0  0  0  0  0  0  0999 V2000
   55.5140   28.9790   45.1250 O   0  0  0  0  0  0  0  0  0  0  0  0
   56.5050   29.6740   44.7740 C   0  0  0  0  0  0  0  0  0  0  0  0
   57.7340   28.9990   44.2560 C   0  0  0  0  0  0  0  0  0  0  0  0
   58.4390   28.3700   45.3230 O   0  0  0  0  0  0  0  0  0  0  0  0
   57.8180   27.5560   46.2800 C   0  0  0  0  0  0  0  0  0  0  0  0
   58.0270   27.7460   47.5110 O   0  0  0  0  0  0  0  0  0  0  0  0
   56.9180   26.4720   45.8560 C   0  0  0  0  0  0  0  0  0  0  0  0
   57.3360   25.4930   44.9450 C   0  0  0  0  0  0  0  0  0  0  0  0
   56.4470   24.4860   44.5700 C   0  0  0  0  0  0  0  0  0  0  0  0
   55.1620   24.4790   45.1120 C   0  0  0  0  0  0  0  0  0  0  0  0
   54.3390   23.5830   44.7890 O   0  0  0  0  0  0  0  0  0  0  0  0
   54.8010   25.4500   45.9920 N   0  0  0  0  0  0  0  0  0  0  0  0
   55.6510   26.4140   46.3510 N   0  0  0  0  0  0  0  0  0  0  0  0
   56.4640   31.1040   44.8510 N   0  0  0  0  0  0  0  0  0  0  0  0
   57.5720   31.9750   45.1170 C   0  0  0  0  0  0  0  0  0  0  0  0
   57.8250   33.0720   44.2690 C   0  0  0  0  0  0  0  0  0  0  0  0
   58.8900   33.9370   44.5200 C   0  0  0  0  0  0  0  0  0  0  0  0
   59.7100   33.7290   45.6280 C   0  0  0  0  0  0  0  0  0  0  0  0
   59.4580   32.6650   46.4930 C   0  0  0  0  0  0  0  0  0  0  0  0
   58.3900   31.7850   46.2650 C   0  0  0  0  0  0  0  0  0  0  0  0
   58.2220   30.7520   47.2080 O   0  0  0  0  0  0  0  0  0  0  0  0
   58.9350   30.5680   48.4260 C   0  0  0  0  0  0  0  0  0  0  0  0
   58.3580   29.5510   49.1650 F   0  0  0  0  0  0  0  0  0  0  0  0
   58.8720   31.7370   49.1590 F   0  0  0  0  0  0  0  0  0  0  0  0
   57.4458   28.2398   43.5140 H   0  0  0  0  0  0  0  0  0  0  0  0
   58.3868   29.7519   43.7902 H   0  0  0  0  0  0  0  0  0  0  0  0
   58.3544   25.5184   44.5300 H   0  0  0  0  0  0  0  0  0  0  0  0
   56.7552   23.7077   43.8563 H   0  0  0  0  0  0  0  0  0  0  0  0
   57.1750   33.2480   43.3992 H   0  0  0  0  0  0  0  0  0  0  0  0
   59.0828   34.7830   43.8439 H   0  0  0  0  0  0  0  0  0  0  0  0
   60.5564   34.4048   45.8200 H   0  0  0  0  0  0  0  0  0  0  0  0
   60.1070   32.5133   47.3681 H   0  0  0  0  0  0  0  0  0  0  0  0
   59.9794   30.3075   48.1993 H   0  0  0  0  0  0  0  0  0  0  0  0
  1  2  2  0
  2  3  1  0
  3  4  1  0
  4  5  1  0
  5  6  2  0
  5  7  1  0
  7  8  1  0
  8  9  2  0
  9 10  1  0
 10 11  2  0
 10 12  1  0
 12 13  1  0
  2 14  1  0
 14 15  1  0
 15 16  2  0
 16 17  1  0
 17 18  2  0
 18 19  1  0
 19 20  2  0
 20 21  1  0
 21 22  1  0
 22 23  1  0
 22 24  1  0
 13  7  2  0
 20 15  1  0
  3 25  1  0
  3 26  1  0
  8 27  1  0
  9 28  1  0
 16 29  1  0
 17 30  1  0
 18 31  1  0
 19 32  1  0
 22 33  1  0
M  CHG  2  12  -1  14  -1
M  END
>  <UniqueID>  (43) 
40

>  <SMILES>  (43) 
O=C(COC(=O)c1ccc(=O)[n-]n1)[N-]c1ccccc1OC(F)F

>  <Energy>  (43) 
39.011986211673594

>  <Genealogy>  (43) 
O=C(COC(=O)c1ccc(=O)[n-]n1)[N-]c1ccccc1OC(F)F (protonated)
O=C(COC(=O)c1ccc(=O)[n-]n1)[N-]c1ccccc1OC(F)F (3D coordinates assigned)
O=C(COC(=O)c1ccc(=O)[n-]n1)[N-]c1ccccc1OC(F)F (optimized conformer: 39.011986211673594 kcal/mol)

>  <smiles>  (43) 
O=C(COC(=O)c1ccc(=O)[nH]n1)Nc1ccccc1OC(F)F

>  <score_type>  (43) 
oracle

>  <origin>  (43) 
adg

>  <m_score__min__energy>  (43) 
-10.800000000000001

>  <m_primary>  (43) 
energy

$$$$
43:0
     RDKit          3D

 48 50  0  0  0  0  0  0  0  0999 V2000
   60.0823   35.7597   47.3367 H   0  0  0  0  0  0  0  0  0  0  0  0
   59.6530   34.8140   47.6990 C   0  0  0  0  0  0  0  0  0  0  0  0
   60.0380   34.0430   49.1430 S   0  0  0  0  0  0  0  0  0  0  0  0
   58.9770   32.7610   48.8650 C   0  0  0  0  0  0  0  0  0  0  0  0
   58.7730   31.7360   49.6400 N   0  0  0  0  0  0  0  0  0  0  0  0
   58.8350   30.3450   49.2890 C   0  0  0  0  0  0  0  0  0  0  0  0
   58.6680   29.4470   50.1590 O   0  0  0  0  0  0  0  0  0  0  0  0
   59.1410   29.9880   47.9330 N   0  0  0  0  0  0  0  0  0  0  0  0
   59.5240   30.7380   47.3160 H   0  0  0  0  0  0  0  0  0  0  0  0
   59.0640   28.6510   47.4100 C   0  0  0  0  0  0  0  0  0  0  0  0
   60.1190   27.7580   47.6510 C   0  0  0  0  0  0  0  0  0  0  0  0
   60.9847   28.0829   48.2468 H   0  0  0  0  0  0  0  0  0  0  0  0
   60.0770   26.4610   47.1400 C   0  0  0  0  0  0  0  0  0  0  0  0
   60.9038   25.7643   47.3426 H   0  0  0  0  0  0  0  0  0  0  0  0
   58.9880   26.0450   46.3720 C   0  0  0  0  0  0  0  0  0  0  0  0
   58.9577   25.0180   45.9791 H   0  0  0  0  0  0  0  0  0  0  0  0
   57.9340   26.9250   46.0980 C   0  0  0  0  0  0  0  0  0  0  0  0
   56.8420   26.4550   45.2970 N   0  0  0  0  0  0  0  0  0  0  0  0
   55.6490   25.2940   45.7850 S   0  0  0  0  0  0  0  0  0  0  0  0
   55.9480   24.8590   47.1910 O   0  0  0  0  0  0  0  0  0  0  0  0
   54.2810   25.9160   45.7540 O   0  0  0  0  0  0  0  0  0  0  0  0
   55.7080   23.8690   44.7190 C   0  0  0  0  0  0  0  0  0  0  0  0
   55.7458   22.9552   45.3302 H   0  0  0  0  0  0  0  0  0  0  0  0
   54.8099   23.8486   44.0841 H   0  0  0  0  0  0  0  0  0  0  0  0
   56.6047   23.9229   44.0841 H   0  0  0  0  0  0  0  0  0  0  0  0
   57.9820   28.2350   46.6110 C   0  0  0  0  0  0  0  0  0  0  0  0
   57.1676   28.9393   46.3858 H   0  0  0  0  0  0  0  0  0  0  0  0
   58.3320   32.9030   47.6890 N   0  0  0  0  0  0  0  0  0  0  0  0
   58.6950   34.0450   47.0420 C   0  0  0  0  0  0  0  0  0  0  0  0
   58.1770   34.3950   45.6650 C   0  0  2  0  0  0  0  0  0  0  0  0
   58.4013   35.4599   45.5047 H   0  0  0  0  0  0  0  0  0  0  0  0
   56.7220   34.2270   45.5710 N   0  0  0  0  0  0  0  0  0  0  0  0
   56.3890   33.5640   46.3070 H   0  0  0  0  0  0  0  0  0  0  0  0
   56.2690   35.1510   45.7610 H   0  0  0  0  0  0  0  0  0  0  0  0
   58.8970   33.5950   44.5600 C   0  0  0  0  0  0  0  0  0  0  0  0
   59.0886   34.2684   43.7116 H   0  0  0  0  0  0  0  0  0  0  0  0
   59.8256   33.2014   44.9991 H   0  0  0  0  0  0  0  0  0  0  0  0
   58.1060   32.4100   44.0600 C   0  0  0  0  0  0  0  0  0  0  0  0
   57.7630   32.3080   42.7000 C   0  0  0  0  0  0  0  0  0  0  0  0
   58.0547   33.1052   42.0005 H   0  0  0  0  0  0  0  0  0  0  0  0
   57.0530   31.1980   42.2330 C   0  0  0  0  0  0  0  0  0  0  0  0
   56.7893   31.1228   41.1677 H   0  0  0  0  0  0  0  0  0  0  0  0
   56.6780   30.1840   43.1180 C   0  0  0  0  0  0  0  0  0  0  0  0
   56.1194   29.3112   42.7490 H   0  0  0  0  0  0  0  0  0  0  0  0
   57.0120   30.2780   44.4710 C   0  0  0  0  0  0  0  0  0  0  0  0
   56.7144   29.4798   45.1669 H   0  0  0  0  0  0  0  0  0  0  0  0
   57.7240   31.3850   44.9420 C   0  0  0  0  0  0  0  0  0  0  0  0
   57.9864   31.4540   46.0080 H   0  0  0  0  0  0  0  0  0  0  0  0
  1  2  1  0
  2  3  1  0
  3  4  1  0
  4  5  2  0
  5  6  1  0
  6  7  2  0
  6  8  1  0
  8  9  1  0
  8 10  1  0
 10 11  2  0
 11 12  1  0
 11 13  1  0
 13 14  1  0
 13 15  2  0
 15 16  1  0
 15 17  1  0
 17 18  1  0
 18 19  1  0
 19 20  2  0
 19 21  2  0
 19 22  1  0
 22 23  1  0
 22 24  1  0
 22 25  1  0
 17 26  2  0
 26 27  1  0
  4 28  1  0
 28 29  1  0
 29 30  1  0
 30 31  1  6
 30 32  1  0
 32 33  1  0
 32 34  1  0
 30 35  1  0
 35 36  1  0
 35 37  1  0
 35 38  1  0
 38 39  2  0
 39 40  1  0
 39 41  1  0
 41 42  1  0
 41 43  2  0
 43 44  1  0
 43 45  1  0
 45 46  1  0
 45 47  2  0
 47 48  1  0
 29  2  2  0
 47 38  1  0
 26 10  1  0
M  CHG  2  18  -1  28  -1
M  END
>  <UniqueID>  (44) 
41

>  <SMILES>  (44) 
CS(=O)(=O)[N-]c1cccc(NC(=O)/N=c2/[n-]c([C@H](N)Cc3ccccc3)cs2)c1

>  <Energy>  (44) 
82.84878399616589

>  <Genealogy>  (44) 
CS(=O)(=O)[N-]c1cccc(NC(=O)N=c2[n-]c(C(N)Cc3ccccc3)cs2)c1 (protonated)
CS(=O)(=O)[N-]c1cccc(NC(=O)N=c2[n-]c([C@H](N)Cc3ccccc3)cs2)c1 (chirality)
CS(=O)(=O)[N-]c1cccc(NC(=O)/N=c2/[n-]c([C@H](N)Cc3ccccc3)cs2)c1 (cis-trans isomerization)
CS(=O)(=O)[N-]c1cccc(NC(=O)/N=c2/[n-]c([C@H](N)Cc3ccccc3)cs2)c1 (3D coordinates assigned)
CS(=O)(=O)[N-]c1cccc(NC(=O)/N=c2/[n-]c([C@H](N)Cc3ccccc3)cs2)c1 (optimized conformer: 82.84878399616589 kcal/mol)

>  <smiles>  (44) 
CS(=O)(=O)Nc1cccc(NC(=O)N=c2[nH]c(C(N)Cc3ccccc3)cs2)c1

>  <score_type>  (44) 
oracle

>  <origin>  (44) 
adg

>  <m_score__min__energy>  (44) 
-12.390000000000001

>  <m_primary>  (44) 
energy

$$$$
44:0
     RDKit          3D

 48 50  0  0  0  0  0  0  0  0999 V2000
   57.8510   31.6920   44.0760 C   0  0  0  0  0  0  0  0  0  0  0  0
   57.5930   30.3500   44.6320 N   0  0  0  0  0  0  0  0  0  0  0  0
   58.5980   29.6680   45.2830 C   0  0  0  0  0  0  0  0  0  0  0  0
   59.9010   30.2610   45.4490 N   0  0  0  0  0  0  0  0  0  0  0  0
   58.3410   28.3870   45.8190 C   0  0  0  0  0  0  0  0  0  0  0  0
   59.4020   27.6050   46.4890 C   0  0  0  0  0  0  0  0  0  0  0  0
   60.5170   27.4640   45.9170 O   0  0  0  0  0  0  0  0  0  0  0  0
   59.1980   27.0720   47.8820 C   0  0  0  0  0  0  0  0  0  0  0  0
   59.7570   27.9960   48.8910 N   0  0  0  0  0  0  0  0  0  0  0  0
   60.7300   27.5700   49.7550 C   0  0  0  0  0  0  0  0  0  0  0  0
   61.1520   26.3810   49.6880 O   0  0  0  0  0  0  0  0  0  0  0  0
   61.2410   28.4210   50.6950 N   0  0  0  0  0  0  0  0  0  0  0  0
   62.2800   27.9520   51.6300 C   0  0  0  0  0  0  0  0  0  0  0  0
   60.7230   29.6800   50.8190 C   0  0  0  0  0  0  0  0  0  0  0  0
   61.1550   30.4470   51.7250 O   0  0  0  0  0  0  0  0  0  0  0  0
   59.7370   30.1120   49.9730 N   0  0  0  0  0  0  0  0  0  0  0  0
   59.1510   31.4610   50.1290 C   0  0  0  0  0  0  0  0  0  0  0  0
   59.1980   32.2090   48.8210 C   0  0  0  0  0  0  0  0  0  0  0  0
   58.0140   32.6690   48.2200 C   0  0  0  0  0  0  0  0  0  0  0  0
   58.0640   33.3950   47.0270 C   0  0  0  0  0  0  0  0  0  0  0  0
   59.2960   33.6720   46.4250 C   0  0  0  0  0  0  0  0  0  0  0  0
   59.3570   34.5870   44.9290 Cl  0  0  0  0  0  0  0  0  0  0  0  0
   60.4780   33.2190   47.0170 C   0  0  0  0  0  0  0  0  0  0  0  0
   60.4320   32.4920   48.2110 C   0  0  0  0  0  0  0  0  0  0  0  0
   59.2590   29.2650   49.0100 C   0  0  0  0  0  0  0  0  0  0  0  0
   58.3470   29.6540   48.2280 O   0  0  0  0  0  0  0  0  0  0  0  0
   57.0610   27.8440   45.6640 C   0  0  0  0  0  0  0  0  0  0  0  0
   56.7930   26.6920   46.1050 O   0  0  0  0  0  0  0  0  0  0  0  0
   56.0990   28.5470   45.0200 N   0  0  0  0  0  0  0  0  0  0  0  0
   56.3490   29.7780   44.5020 C   0  0  0  0  0  0  0  0  0  0  0  0
   55.4190   30.3830   43.9010 O   0  0  0  0  0  0  0  0  0  0  0  0
   57.9889   32.4093   44.8984 H   0  0  0  0  0  0  0  0  0  0  0  0
   58.7602   31.6641   43.4575 H   0  0  0  0  0  0  0  0  0  0  0  0
   56.9962   32.0032   43.4575 H   0  0  0  0  0  0  0  0  0  0  0  0
   60.7530   29.6780   45.6080 H   0  0  0  0  0  0  0  0  0  0  0  0
   60.0550   31.2920   45.4360 H   0  0  0  0  0  0  0  0  0  0  0  0
   58.1205   26.9485   48.0655 H   0  0  0  0  0  0  0  0  0  0  0  0
   59.7171   26.1059   47.9665 H   0  0  0  0  0  0  0  0  0  0  0  0
   61.9389   28.1060   52.6644 H   0  0  0  0  0  0  0  0  0  0  0  0
   62.4686   26.8815   51.4616 H   0  0  0  0  0  0  0  0  0  0  0  0
   63.2076   28.5187   51.4616 H   0  0  0  0  0  0  0  0  0  0  0  0
   58.1047   31.3661   50.4549 H   0  0  0  0  0  0  0  0  0  0  0  0
   59.7317   32.0176   50.8793 H   0  0  0  0  0  0  0  0  0  0  0  0
   57.0429   32.4565   48.6910 H   0  0  0  0  0  0  0  0  0  0  0  0
   57.1330   33.7493   46.5605 H   0  0  0  0  0  0  0  0  0  0  0  0
   61.4469   33.4347   46.5429 H   0  0  0  0  0  0  0  0  0  0  0  0
   61.3655   32.1403   48.6745 H   0  0  0  0  0  0  0  0  0  0  0  0
   55.1470   28.1300   44.9080 H   0  0  0  0  0  0  0  0  0  0  0  0
  1  2  1  0
  2  3  1  0
  3  4  1  0
  3  5  2  0
  5  6  1  0
  6  7  2  0
  6  8  1  0
  8  9  1  0
  9 10  1  0
 10 11  2  0
 10 12  1  0
 12 13  1  0
 12 14  1  0
 14 15  2  0
 14 16  1  0
 16 17  1  0
 17 18  1  0
 18 19  2  0
 19 20  1  0
 20 21  2  0
 21 22  1  0
 21 23  1  0
 23 24  2  0
 16 25  1  0
 25 26  2  0
  5 27  1  0
 27 28  2  0
 27 29  1  0
 29 30  1  0
 30 31  2  0
 30  2  1  0
 25  9  1  0
 24 18  1  0
  1 32  1  0
  1 33  1  0
  1 34  1  0
  4 35  1  0
  4 36  1  0
  8 37  1  0
  8 38  1  0
 13 39  1  0
 13 40  1  0
 13 41  1  0
 17 42  1  0
 17 43  1  0
 19 44  1  0
 20 45  1  0
 23 46  1  0
 24 47  1  0
 29 48  1  0
M  END
>  <UniqueID>  (45) 
42

>  <SMILES>  (45) 
Cn1c(N)c(C(=O)Cn2c(=O)n(C)c(=O)n(Cc3ccc(Cl)cc3)c2=O)c(=O)[nH]c1=O

>  <Energy>  (45) 
73.86936446427342

>  <Genealogy>  (45) 
Cn1c(N)c(C(=O)Cn2c(=O)n(C)c(=O)n(Cc3ccc(Cl)cc3)c2=O)c(=O)[nH]c1=O (3D coordinates assigned)
Cn1c(N)c(C(=O)Cn2c(=O)n(C)c(=O)n(Cc3ccc(Cl)cc3)c2=O)c(=O)[nH]c1=O (optimized conformer: 73.86936446427342 kcal/mol)

>  <smiles>  (45) 
Cn1c(N)c(C(=O)Cn2c(=O)n(C)c(=O)n(Cc3ccc(Cl)cc3)c2=O)c(=O)[nH]c1=O

>  <score_type>  (45) 
oracle

>  <origin>  (45) 
adg

>  <m_score__min__energy>  (45) 
-8.0600000000000005

>  <m_primary>  (45) 
energy

$$$$
45:0
     RDKit          3D

 53 55  0  0  0  0  0  0  0  0999 V2000
   57.5640   25.9510   47.1910 C   0  0  0  0  0  0  0  0  0  0  0  0
   58.6080   25.8930   46.0780 C   0  0  0  0  0  0  0  0  0  0  0  0
   59.6020   26.9640   46.2520 N   0  0  0  0  0  0  0  0  0  0  0  0
   59.9510   27.8210   45.1020 C   0  0  0  0  0  0  0  0  0  0  0  0
   58.8410   28.7960   44.7950 C   0  0  0  0  0  0  0  0  0  0  0  0
   59.1320   30.0770   44.2860 C   0  0  0  0  0  0  0  0  0  0  0  0
   58.0960   30.9780   44.0050 C   0  0  0  0  0  0  0  0  0  0  0  0
   56.7660   30.6100   44.2200 C   0  0  0  0  0  0  0  0  0  0  0  0
   56.4670   29.3340   44.7170 C   0  0  0  0  0  0  0  0  0  0  0  0
   55.1450   28.9660   44.9310 O   0  0  0  0  0  0  0  0  0  0  0  0
   57.5010   28.4270   44.9990 C   0  0  0  0  0  0  0  0  0  0  0  0
   60.1620   27.2090   47.5660 C   0  0  0  0  0  0  0  0  0  0  0  0
   60.7810   26.2910   48.1720 O   0  0  0  0  0  0  0  0  0  0  0  0
   59.9980   28.5040   48.2460 C   0  0  0  0  0  0  0  0  0  0  0  0
   58.9230   29.3390   47.9070 C   0  0  0  0  0  0  0  0  0  0  0  0
   58.8020   30.6040   48.4900 C   0  0  0  0  0  0  0  0  0  0  0  0
   59.7420   31.0420   49.4310 C   0  0  0  0  0  0  0  0  0  0  0  0
   59.6290   32.6760   50.0760 S   0  0  0  0  0  0  0  0  0  0  0  0
   58.2550   32.8800   50.6520 O   0  0  0  0  0  0  0  0  0  0  0  0
   60.6440   32.9050   51.1670 O   0  0  0  0  0  0  0  0  0  0  0  0
   59.8770   33.8080   48.7840 N   0  0  0  0  0  0  0  0  0  0  0  0
   59.1500   33.8290   47.5470 C   0  0  0  0  0  0  0  0  0  0  0  0
   57.7880   33.4800   47.4850 C   0  0  0  0  0  0  0  0  0  0  0  0
   57.1110   33.4770   46.2620 C   0  0  0  0  0  0  0  0  0  0  0  0
   57.7840   33.8310   45.0910 C   0  0  0  0  0  0  0  0  0  0  0  0
   59.1330   34.1970   45.1400 C   0  0  0  0  0  0  0  0  0  0  0  0
   59.8270   34.1940   46.3680 C   0  0  0  0  0  0  0  0  0  0  0  0
   61.1820   34.5590   46.4580 O   0  0  0  0  0  0  0  0  0  0  0  0
   62.2370   33.6650   46.7920 C   0  0  0  0  0  0  0  0  0  0  0  0
   60.7950   30.1930   49.8000 C   0  0  0  0  0  0  0  0  0  0  0  0
   60.9230   28.9270   49.2100 C   0  0  0  0  0  0  0  0  0  0  0  0
   58.0680   25.9230   48.1683 H   0  0  0  0  0  0  0  0  0  0  0  0
   56.9858   26.8827   47.1032 H   0  0  0  0  0  0  0  0  0  0  0  0
   56.8862   25.0891   47.1032 H   0  0  0  0  0  0  0  0  0  0  0  0
   59.1164   24.9180   46.1082 H   0  0  0  0  0  0  0  0  0  0  0  0
   58.1049   26.0266   45.1090 H   0  0  0  0  0  0  0  0  0  0  0  0
   60.8674   28.3822   45.3371 H   0  0  0  0  0  0  0  0  0  0  0  0
   60.1059   27.1793   44.2221 H   0  0  0  0  0  0  0  0  0  0  0  0
   60.1769   30.3713   44.1084 H   0  0  0  0  0  0  0  0  0  0  0  0
   58.3312   31.9788   43.6137 H   0  0  0  0  0  0  0  0  0  0  0  0
   55.9551   31.3199   43.9998 H   0  0  0  0  0  0  0  0  0  0  0  0
   57.2609   27.4238   45.3811 H   0  0  0  0  0  0  0  0  0  0  0  0
   58.1721   28.9971   47.1795 H   0  0  0  0  0  0  0  0  0  0  0  0
   57.9641   31.2586   48.2081 H   0  0  0  0  0  0  0  0  0  0  0  0
   57.2520   33.2075   48.4061 H   0  0  0  0  0  0  0  0  0  0  0  0
   56.0483   33.1958   46.2222 H   0  0  0  0  0  0  0  0  0  0  0  0
   57.2522   33.8220   44.1281 H   0  0  0  0  0  0  0  0  0  0  0  0
   59.6551   34.4885   44.2167 H   0  0  0  0  0  0  0  0  0  0  0  0
   62.3232   33.5920   47.8862 H   0  0  0  0  0  0  0  0  0  0  0  0
   62.0212   32.6707   46.3740 H   0  0  0  0  0  0  0  0  0  0  0  0
   63.1824   34.0411   46.3740 H   0  0  0  0  0  0  0  0  0  0  0  0
   61.5240   30.5212   50.5556 H   0  0  0  0  0  0  0  0  0  0  0  0
   61.7508   28.2651   49.5044 H   0  0  0  0  0  0  0  0  0  0  0  0
  1  2  1  0
  2  3  1  0
  3  4  1  0
  4  5  1  0
  5  6  2  0
  6  7  1  0
  7  8  2  0
  8  9  1  0
  9 10  1  0
  9 11  2  0
  3 12  1  0
 12 13  2  0
 12 14  1  0
 14 15  2  0
 15 16  1  0
 16 17  2  0
 17 18  1  0
 18 19  2  0
 18 20  2  0
 18 21  1  0
 21 22  1  0
 22 23  2  0
 23 24  1  0
 24 25  2  0
 25 26  1  0
 26 27  2  0
 27 28  1  0
 28 29  1  0
 17 30  1  0
 30 31  2  0
 11  5  1  0
 31 14  1  0
 27 22  1  0
  1 32  1  0
  1 33  1  0
  1 34  1  0
  2 35  1  0
  2 36  1  0
  4 37  1  0
  4 38  1  0
  6 39  1  0
  7 40  1  0
  8 41  1  0
 11 42  1  0
 15 43  1  0
 16 44  1  0
 23 45  1  0
 24 46  1  0
 25 47  1  0
 26 48  1  0
 29 49  1  0
 29 50  1  0
 29 51  1  0
 30 52  1  0
 31 53  1  0
M  CHG  2  10  -1  21  -1
M  END
>  <UniqueID>  (46) 
43

>  <SMILES>  (46) 
CCN(Cc1cccc([O-])c1)C(=O)c1ccc(S(=O)(=O)[N-]c2ccccc2OC)cc1

>  <Energy>  (46) 
55.796772547708855

>  <Genealogy>  (46) 
CCN(Cc1cccc([O-])c1)C(=O)c1ccc(S(=O)(=O)[N-]c2ccccc2OC)cc1 (protonated)
CCN(Cc1cccc([O-])c1)C(=O)c1ccc(S(=O)(=O)[N-]c2ccccc2OC)cc1 (3D coordinates assigned)
CCN(Cc1cccc([O-])c1)C(=O)c1ccc(S(=O)(=O)[N-]c2ccccc2OC)cc1 (optimized conformer: 55.796772547708855 kcal/mol)

>  <smiles>  (46) 
CCN(Cc1cccc(O)c1)C(=O)c1ccc(S(=O)(=O)Nc2ccccc2OC)cc1

>  <score_type>  (46) 
oracle

>  <origin>  (46) 
adg

>  <m_score__min__energy>  (46) 
-13.140000000000001

>  <m_primary>  (46) 
energy

$$$$
46:0
     RDKit          3D

 71 75  0  0  0  0  0  0  0  0999 V2000
   57.6820   28.5280   52.5610 H   0  0  0  0  0  0  0  0  0  0  0  0
   56.7220   28.7020   52.7420 O   0  0  0  0  0  0  0  0  0  0  0  0
   56.6510   30.0120   53.2350 C   0  0  0  0  0  0  0  0  0  0  0  0
   57.3891   30.1385   54.0408 H   0  0  0  0  0  0  0  0  0  0  0  0
   55.6388   30.1972   53.6239 H   0  0  0  0  0  0  0  0  0  0  0  0
   56.9500   31.0140   52.1090 C   0  0  1  0  0  0  0  0  0  0  0  0
   55.9973   31.4428   51.7649 H   0  0  0  0  0  0  0  0  0  0  0  0
   57.8240   32.1440   52.6120 C   0  0  0  0  0  0  0  0  0  0  0  0
   58.1850   32.2260   53.9700 C   0  0  0  0  0  0  0  0  0  0  0  0
   57.8406   31.4550   54.6750 H   0  0  0  0  0  0  0  0  0  0  0  0
   58.9790   33.2820   54.4280 C   0  0  0  0  0  0  0  0  0  0  0  0
   59.2622   33.3369   55.4895 H   0  0  0  0  0  0  0  0  0  0  0  0
   59.4130   34.2680   53.5370 C   0  0  0  0  0  0  0  0  0  0  0  0
   60.0380   35.0982   53.8979 H   0  0  0  0  0  0  0  0  0  0  0  0
   59.0540   34.2000   52.1900 C   0  0  0  0  0  0  0  0  0  0  0  0
   59.3960   34.9774   51.4909 H   0  0  0  0  0  0  0  0  0  0  0  0
   58.2600   33.1450   51.7270 C   0  0  0  0  0  0  0  0  0  0  0  0
   57.9757   33.0988   50.6654 H   0  0  0  0  0  0  0  0  0  0  0  0
   57.5980   30.3320   50.9840 N   0  0  0  0  0  0  0  0  0  0  0  0
   57.0380   30.1330   50.1240 H   0  0  0  0  0  0  0  0  0  0  0  0
   58.9290   29.7990   51.0800 C   0  0  0  0  0  0  0  0  0  0  0  0
   59.4780   29.6800   52.2090 O   0  0  0  0  0  0  0  0  0  0  0  0
   59.6330   29.3400   49.9170 N   0  0  0  0  0  0  0  0  0  0  0  0
   59.2150   29.4390   48.6910 C   0  0  0  0  0  0  0  0  0  0  0  0
   58.9620   28.3840   47.8860 N   0  0  0  0  0  0  0  0  0  0  0  0
   58.5120   28.7720   46.6610 C   0  0  0  0  0  0  0  0  0  0  0  0
   58.2380   27.7680   45.6100 C   0  0  0  0  0  0  0  0  0  0  0  0
   57.6740   26.5170   45.9220 C   0  0  0  0  0  0  0  0  0  0  0  0
   57.4178   26.2763   46.9643 H   0  0  0  0  0  0  0  0  0  0  0  0
   57.4380   25.5790   44.9130 C   0  0  0  0  0  0  0  0  0  0  0  0
   57.0076   24.5986   45.1652 H   0  0  0  0  0  0  0  0  0  0  0  0
   57.7470   25.8830   43.5860 C   0  0  0  0  0  0  0  0  0  0  0  0
   57.5685   25.1392   42.7954 H   0  0  0  0  0  0  0  0  0  0  0  0
   58.2830   27.1320   43.2620 C   0  0  0  0  0  0  0  0  0  0  0  0
   58.5177   27.3746   42.2151 H   0  0  0  0  0  0  0  0  0  0  0  0
   58.5210   28.0730   44.2670 C   0  0  0  0  0  0  0  0  0  0  0  0
   58.9326   29.0591   44.0057 H   0  0  0  0  0  0  0  0  0  0  0  0
   58.3730   30.1630   46.5130 C   0  0  0  0  0  0  0  0  0  0  0  0
   57.8740   30.9060   45.3430 C   0  0  0  0  0  0  0  0  0  0  0  0
   56.7600   30.5900   44.8510 O   0  0  0  0  0  0  0  0  0  0  0  0
   58.6100   31.9840   44.7560 N   0  0  0  0  0  0  0  0  0  0  0  0
   58.0720   33.3210   44.4920 C   0  0  0  0  0  0  0  0  0  0  0  0
   57.5889   33.3354   43.5039 H   0  0  0  0  0  0  0  0  0  0  0  0
   59.2200   34.3500   44.4950 C   0  0  0  0  0  0  0  0  0  0  0  0
   60.1069   33.8875   44.0374 H   0  0  0  0  0  0  0  0  0  0  0  0
   58.8772   35.2281   43.9281 H   0  0  0  0  0  0  0  0  0  0  0  0
   59.5920   34.8310   45.9120 C   0  0  0  0  0  0  0  0  0  0  0  0
   60.6859   34.9164   45.9895 H   0  0  0  0  0  0  0  0  0  0  0  0
   59.1212   35.8090   46.0903 H   0  0  0  0  0  0  0  0  0  0  0  0
   59.1070   33.8770   46.9260 N   0  0  0  0  0  0  0  0  0  0  0  0
   59.7190   34.0680   48.2590 C   0  0  0  0  0  0  0  0  0  0  0  0
   59.6155   35.1269   48.5385 H   0  0  0  0  0  0  0  0  0  0  0  0
   59.1923   33.3937   48.9503 H   0  0  0  0  0  0  0  0  0  0  0  0
   61.1880   33.7000   48.3220 C   0  0  0  0  0  0  0  0  0  0  0  0
   61.7610   32.8870   47.3290 C   0  0  0  0  0  0  0  0  0  0  0  0
   61.1409   32.5179   46.4988 H   0  0  0  0  0  0  0  0  0  0  0  0
   63.1150   32.5450   47.3910 C   0  0  0  0  0  0  0  0  0  0  0  0
   63.5583   31.9134   46.6070 H   0  0  0  0  0  0  0  0  0  0  0  0
   63.9060   33.0040   48.4470 C   0  0  0  0  0  0  0  0  0  0  0  0
   64.9716   32.7350   48.4937 H   0  0  0  0  0  0  0  0  0  0  0  0
   63.3430   33.8050   49.4440 C   0  0  0  0  0  0  0  0  0  0  0  0
   63.9660   34.1655   50.2758 H   0  0  0  0  0  0  0  0  0  0  0  0
   61.9890   34.1490   49.3860 C   0  0  0  0  0  0  0  0  0  0  0  0
   61.5486   34.7740   50.1769 H   0  0  0  0  0  0  0  0  0  0  0  0
   57.6290   33.8330   46.9640 C   0  0  0  0  0  0  0  0  0  0  0  0
   57.3147   32.9794   47.5826 H   0  0  0  0  0  0  0  0  0  0  0  0
   57.2710   34.7833   47.3869 H   0  0  0  0  0  0  0  0  0  0  0  0
   57.0190   33.6780   45.5520 C   0  0  0  0  0  0  0  0  0  0  0  0
   56.2624   32.8801   45.5803 H   0  0  0  0  0  0  0  0  0  0  0  0
   56.5767   34.6452   45.2711 H   0  0  0  0  0  0  0  0  0  0  0  0
   58.8710   30.9010   47.9440 S   0  0  0  0  0  0  0  0  0  0  0  0
  1  2  1  0
  2  3  1  0
  3  4  1  0
  3  5  1  0
  3  6  1  0
  6  7  1  6
  6  8  1  0
  8  9  2  0
  9 10  1  0
  9 11  1  0
 11 12  1  0
 11 13  2  0
 13 14  1  0
 13 15  1  0
 15 16  1  0
 15 17  2  0
 17 18  1  0
  6 19  1  0
 19 20  1  0
 19 21  1  0
 21 22  2  0
 21 23  1  0
 23 24  2  0
 24 25  1  0
 25 26  1  0
 26 27  1  0
 27 28  2  0
 28 29  1  0
 28 30  1  0
 30 31  1  0
 30 32  2  0
 32 33  1  0
 32 34  1  0
 34 35  1  0
 34 36  2  0
 36 37  1  0
 26 38  2  0
 38 39  1  0
 39 40  2  0
 39 41  1  0
 41 42  1  0
 42 43  1  0
 42 44  1  0
 44 45  1  0
 44 46  1  0
 44 47  1  0
 47 48  1  0
 47 49  1  0
 47 50  1  0
 50 51  1  0
 51 52  1  0
 51 53  1  0
 51 54  1  0
 54 55  2  0
 55 56  1  0
 55 57  1  0
 57 58  1  0
 57 59  2  0
 59 60  1  0
 59 61  1  0
 61 62  1  0
 61 63  2  0
 63 64  1  0
 50 65  1  0
 65 66  1  0
 65 67  1  0
 65 68  1  0
 68 69  1  0
 68 70  1  0
 38 71  1  0
 17  8  1  0
 71 24  1  0
 36 27  1  0
 68 42  1  0
 63 54  1  0
M  CHG  2  25  -1  41  -1
M  END
>  <UniqueID>  (47) 
44

>  <SMILES>  (47) 
O=C(/N=c1\[n-]c(-c2ccccc2)c(C(=O)[N-]C2CCN(Cc3ccccc3)CC2)s1)N[C@@H](CO)c1ccccc1

>  <Energy>  (47) 
122.4275203717877

>  <Genealogy>  (47) 
O=C(N=c1[n-]c(-c2ccccc2)c(C(=O)[N-]C2CCN(Cc3ccccc3)CC2)s1)NC(CO)c1ccccc1 (protonated)
O=C(N=c1[n-]c(-c2ccccc2)c(C(=O)[N-]C2CCN(Cc3ccccc3)CC2)s1)N[C@@H](CO)c1ccccc1 (chirality)
O=C(/N=c1\[n-]c(-c2ccccc2)c(C(=O)[N-]C2CCN(Cc3ccccc3)CC2)s1)N[C@@H](CO)c1ccccc1 (cis-trans isomerization)
O=C(/N=c1\[n-]c(-c2ccccc2)c(C(=O)[N-]C2CCN(Cc3ccccc3)CC2)s1)N[C@@H](CO)c1ccccc1 (3D coordinates assigned)
O=C(/N=c1\[n-]c(-c2ccccc2)c(C(=O)[N-]C2CCN(Cc3ccccc3)CC2)s1)N[C@@H](CO)c1ccccc1 (nonaromatic ring conformer: 122.4275203717877 kcal/mol)

>  <smiles>  (47) 
O=C(N=c1[nH]c(-c2ccccc2)c(C(=O)NC2CCN(Cc3ccccc3)CC2)s1)NC(CO)c1ccccc1

>  <score_type>  (47) 
oracle

>  <origin>  (47) 
adg

>  <m_score__min__energy>  (47) 
-13.27

>  <m_primary>  (47) 
energy

$$$$
47:0
     RDKit          3D

 47 49  0  0  0  0  0  0  0  0999 V2000
   55.8600   26.4160   45.9930 C   0  0  0  0  0  0  0  0  0  0  0  0
   56.9010   27.4490   45.6620 C   0  0  0  0  0  0  0  0  0  0  0  0
   58.2610   27.1580   45.8390 C   0  0  0  0  0  0  0  0  0  0  0  0
   59.2280   28.1130   45.5340 C   0  0  0  0  0  0  0  0  0  0  0  0
   58.8510   29.3680   45.0550 C   0  0  0  0  0  0  0  0  0  0  0  0
   57.4930   29.6900   44.8680 C   0  0  0  0  0  0  0  0  0  0  0  0
   57.1290   31.0520   44.3890 C   0  0  0  0  0  0  0  0  0  0  0  0
   57.0360   31.2760   43.1510 O   0  0  0  0  0  0  0  0  0  0  0  0
   56.9590   32.1280   45.3210 N   0  0  0  0  0  0  0  0  0  0  0  0
   57.8840   33.1940   45.5840 C   0  0  0  0  0  0  0  0  0  0  0  0
   58.1800   34.1550   44.6030 C   0  0  0  0  0  0  0  0  0  0  0  0
   59.0820   35.1840   44.8720 C   0  0  0  0  0  0  0  0  0  0  0  0
   59.6890   35.2730   46.1240 C   0  0  0  0  0  0  0  0  0  0  0  0
   59.3920   34.3380   47.1240 C   0  0  0  0  0  0  0  0  0  0  0  0
   60.0000   34.4490   48.3740 O   0  0  0  0  0  0  0  0  0  0  0  0
   58.4820   33.2910   46.8620 C   0  0  0  0  0  0  0  0  0  0  0  0
   58.1370   32.2790   47.9400 C   0  0  0  0  0  0  0  0  0  0  0  0
   59.3580   31.6480   48.4840 N   0  0  0  0  0  0  0  0  0  0  0  0
   60.3050   31.3030   47.4070 C   0  0  0  0  0  0  0  0  0  0  0  0
   61.6750   30.9250   48.0000 C   0  0  0  0  0  0  0  0  0  0  0  0
   61.5740   30.4580   49.4610 C   0  0  0  0  0  0  0  0  0  0  0  0
   60.2940   29.6470   49.6870 C   0  0  0  0  0  0  0  0  0  0  0  0
   59.0330   30.4510   49.2980 C   0  0  0  0  0  0  0  0  0  0  0  0
   56.5150   28.7090   45.1690 C   0  0  0  0  0  0  0  0  0  0  0  0
   55.1610   28.9720   44.9810 O   0  0  0  0  0  0  0  0  0  0  0  0
   55.7682   26.3249   47.0854 H   0  0  0  0  0  0  0  0  0  0  0  0
   54.8924   26.7212   45.5679 H   0  0  0  0  0  0  0  0  0  0  0  0
   56.1577   25.4461   45.5679 H   0  0  0  0  0  0  0  0  0  0  0  0
   58.5654   26.1721   46.2201 H   0  0  0  0  0  0  0  0  0  0  0  0
   60.2935   27.8767   45.6714 H   0  0  0  0  0  0  0  0  0  0  0  0
   59.6238   30.1148   44.8206 H   0  0  0  0  0  0  0  0  0  0  0  0
   57.6972   34.0955   43.6164 H   0  0  0  0  0  0  0  0  0  0  0  0
   59.3150   35.9269   44.0949 H   0  0  0  0  0  0  0  0  0  0  0  0
   60.4055   36.0824   46.3278 H   0  0  0  0  0  0  0  0  0  0  0  0
   60.0850   33.6540   48.9980 H   0  0  0  0  0  0  0  0  0  0  0  0
   57.6022   32.7893   48.7546 H   0  0  0  0  0  0  0  0  0  0  0  0
   57.5054   31.4954   47.4961 H   0  0  0  0  0  0  0  0  0  0  0  0
   59.9094   30.4505   46.8354 H   0  0  0  0  0  0  0  0  0  0  0  0
   60.4291   32.1744   46.7472 H   0  0  0  0  0  0  0  0  0  0  0  0
   62.1077   30.1119   47.3986 H   0  0  0  0  0  0  0  0  0  0  0  0
   62.3085   31.8240   47.9789 H   0  0  0  0  0  0  0  0  0  0  0  0
   62.4452   29.8303   49.6998 H   0  0  0  0  0  0  0  0  0  0  0  0
   61.5493   31.3437   50.1128 H   0  0  0  0  0  0  0  0  0  0  0  0
   60.3376   28.7339   49.0752 H   0  0  0  0  0  0  0  0  0  0  0  0
   60.2278   29.4011   50.7571 H   0  0  0  0  0  0  0  0  0  0  0  0
   58.3631   29.7996   48.7175 H   0  0  0  0  0  0  0  0  0  0  0  0
   58.5534   30.7951   50.2262 H   0  0  0  0  0  0  0  0  0  0  0  0
  1  2  1  0
  2  3  2  0
  3  4  1  0
  4  5  2  0
  5  6  1  0
  6  7  1  0
  7  8  2  0
  7  9  1  0
  9 10  1  0
 10 11  2  0
 11 12  1  0
 12 13  2  0
 13 14  1  0
 14 15  1  0
 14 16  2  0
 16 17  1  0
 17 18  1  0
 18 19  1  0
 19 20  1  0
 20 21  1  0
 21 22  1  0
 22 23  1  0
  6 24  2  0
 24 25  1  0
 24  2  1  0
 16 10  1  0
 23 18  1  0
  1 26  1  0
  1 27  1  0
  1 28  1  0
  3 29  1  0
  4 30  1  0
  5 31  1  0
 11 32  1  0
 12 33  1  0
 13 34  1  0
 15 35  1  0
 17 36  1  0
 17 37  1  0
 19 38  1  0
 19 39  1  0
 20 40  1  0
 20 41  1  0
 21 42  1  0
 21 43  1  0
 22 44  1  0
 22 45  1  0
 23 46  1  0
 23 47  1  0
M  CHG  2   9  -1  25  -1
M  END
>  <UniqueID>  (48) 
45

>  <SMILES>  (48) 
Cc1cccc(C(=O)[N-]c2cccc(O)c2CN2CCCCC2)c1[O-]

>  <Energy>  (48) 
58.5427875818064

>  <Genealogy>  (48) 
Cc1cccc(C(=O)[N-]c2cccc(O)c2CN2CCCCC2)c1[O-] (protonated)
Cc1cccc(C(=O)[N-]c2cccc(O)c2CN2CCCCC2)c1[O-] (3D coordinates assigned)
Cc1cccc(C(=O)[N-]c2cccc(O)c2CN2CCCCC2)c1[O-] (nonaromatic ring conformer: 58.5427875818064 kcal/mol)

>  <smiles>  (48) 
Cc1cccc(C(=O)Nc2cccc(O)c2CN2CCCCC2)c1O

>  <score_type>  (48) 
oracle

>  <origin>  (48) 
adg

>  <m_score__min__energy>  (48) 
-13.5

>  <m_primary>  (48) 
energy

$$$$
48:0
     RDKit          3D

 35 36  0  0  1  0  0  0  0  0999 V2000
   57.7700   32.3420   41.3750 C   0  0  0  0  0  0  0  0  0  0  0  0
   57.5170   31.8660   42.7730 C   0  0  0  0  0  0  0  0  0  0  0  0
   56.6660   30.7970   43.0240 C   0  0  0  0  0  0  0  0  0  0  0  0
   56.4290   30.3520   44.3130 C   0  0  0  0  0  0  0  0  0  0  0  0
   55.6720   29.3980   44.5630 O   0  0  0  0  0  0  0  0  0  0  0  0
   57.0300   30.9630   45.3510 N   0  0  0  0  0  0  0  0  0  0  0  0
   57.8480   31.9950   45.0850 C   0  0  0  0  0  0  0  0  0  0  0  0
   58.5210   32.6810   46.2190 C   0  0  2  0  0  0  0  0  0  0  0  0
   58.1280   34.1400   46.1240 C   0  0  0  0  0  0  0  0  0  0  0  0
   58.8980   34.9620   47.1170 C   0  0  0  0  0  0  0  0  0  0  0  0
   60.3490   34.6680   47.2040 C   0  0  0  0  0  0  0  0  0  0  0  0
   60.7950   33.4210   46.7520 N   0  0  0  0  0  0  0  0  0  0  0  0
   62.2430   32.8450   47.3950 S   0  0  0  0  0  0  0  0  0  0  0  0
   62.3810   33.4100   49.0770 C   0  0  0  0  0  0  0  0  0  0  0  0
   62.3600   31.3730   47.2580 O   0  0  0  0  0  0  0  0  0  0  0  0
   63.3580   33.4930   46.5860 O   0  0  0  0  0  0  0  0  0  0  0  0
   60.0060   32.5640   46.0020 C   0  0  0  0  0  0  0  0  0  0  0  0
   58.0950   32.4460   43.8430 N   0  0  0  0  0  0  0  0  0  0  0  0
   58.2861   33.3129   41.4060 H   0  0  0  0  0  0  0  0  0  0  0  0
   58.3979   31.6097   40.8463 H   0  0  0  0  0  0  0  0  0  0  0  0
   56.8118   32.4528   40.8463 H   0  0  0  0  0  0  0  0  0  0  0  0
   56.1702   30.2938   42.1808 H   0  0  0  0  0  0  0  0  0  0  0  0
   58.2452   32.2540   47.1945 H   0  0  0  0  0  0  0  0  0  0  0  0
   58.3415   34.5063   45.1090 H   0  0  0  0  0  0  0  0  0  0  0  0
   57.0543   34.2325   46.3447 H   0  0  0  0  0  0  0  0  0  0  0  0
   58.7831   36.0207   46.8415 H   0  0  0  0  0  0  0  0  0  0  0  0
   58.4805   34.7114   48.1033 H   0  0  0  0  0  0  0  0  0  0  0  0
   60.8741   35.4357   46.6167 H   0  0  0  0  0  0  0  0  0  0  0  0
   60.5639   34.6621   48.2828 H   0  0  0  0  0  0  0  0  0  0  0  0
   62.1769   32.5742   49.7624 H   0  0  0  0  0  0  0  0  0  0  0  0
   63.3982   33.7894   49.2541 H   0  0  0  0  0  0  0  0  0  0  0  0
   61.6532   34.2156   49.2541 H   0  0  0  0  0  0  0  0  0  0  0  0
   60.2083   32.7625   44.9391 H   0  0  0  0  0  0  0  0  0  0  0  0
   60.2760   31.5484   46.3272 H   0  0  0  0  0  0  0  0  0  0  0  0
   58.7380   33.2500   43.6800 H   0  0  0  0  0  0  0  0  0  0  0  0
  1  2  1  0
  2  3  2  0
  3  4  1  0
  4  5  2  0
  4  6  1  0
  6  7  2  0
  7  8  1  0
  8  9  1  0
  9 10  1  0
 10 11  1  0
 11 12  1  0
 12 13  1  0
 13 14  1  0
 13 15  2  0
 13 16  2  0
 12 17  1  0
  7 18  1  0
 18  2  1  0
 17  8  1  0
  1 19  1  0
  1 20  1  0
  1 21  1  0
  3 22  1  0
  8 23  1  1
  9 24  1  0
  9 25  1  0
 10 26  1  0
 10 27  1  0
 11 28  1  0
 11 29  1  0
 14 30  1  0
 14 31  1  0
 14 32  1  0
 17 33  1  0
 17 34  1  0
 18 35  1  0
M  END
>  <smiles>  (49) 
Cc1cc(=O)nc(C2CCCN(S(C)(=O)=O)C2)[nH]1

>  <score_type>  (49) 
oracle

>  <origin>  (49) 
adg

>  <m_score__min__energy>  (49) 
-7.71

>  <m_primary>  (49) 
energy

$$$$
49:0
     RDKit          3D

 31 33  0  0  0  0  0  0  0  0999 V2000
   59.5110   33.7500   44.8700 N   0  0  0  0  0  0  0  0  0  0  0  0
   58.6610   32.6070   45.0470 C   0  0  0  0  0  0  0  0  0  0  0  0
   57.5720   32.5110   44.3360 N   0  0  0  0  0  0  0  0  0  0  0  0
   56.5700   31.4530   44.4910 C   0  0  0  0  0  0  0  0  0  0  0  0
   57.0800   30.2480   45.2390 C   0  0  0  0  0  0  0  0  0  0  0  0
   58.2610   30.3380   45.9980 C   0  0  0  0  0  0  0  0  0  0  0  0
   58.6860   29.2190   46.7420 C   0  0  0  0  0  0  0  0  0  0  0  0
   57.9440   28.0360   46.7320 C   0  0  0  0  0  0  0  0  0  0  0  0
   56.7670   27.9540   45.9870 C   0  0  0  0  0  0  0  0  0  0  0  0
   56.0320   26.7740   45.9890 O   0  0  0  0  0  0  0  0  0  0  0  0
   56.3290   29.0560   45.2470 C   0  0  0  0  0  0  0  0  0  0  0  0
   55.1440   28.9650   44.5230 O   0  0  0  0  0  0  0  0  0  0  0  0
   59.0170   31.5660   45.9810 N   0  0  0  0  0  0  0  0  0  0  0  0
   60.1200   31.7580   46.8780 C   0  0  0  0  0  0  0  0  0  0  0  0
   60.0600   32.7510   47.8680 C   0  0  0  0  0  0  0  0  0  0  0  0
   61.1380   32.9400   48.7380 C   0  0  0  0  0  0  0  0  0  0  0  0
   62.2790   32.1390   48.6220 C   0  0  0  0  0  0  0  0  0  0  0  0
   62.3420   31.1490   47.6360 C   0  0  0  0  0  0  0  0  0  0  0  0
   61.2650   30.9580   46.7650 C   0  0  0  0  0  0  0  0  0  0  0  0
   59.2570   34.5030   44.1930 H   0  0  0  0  0  0  0  0  0  0  0  0
   60.4020   33.8630   45.4010 H   0  0  0  0  0  0  0  0  0  0  0  0
   57.3350   33.2790   43.6650 H   0  0  0  0  0  0  0  0  0  0  0  0
   55.7102   31.8652   45.0394 H   0  0  0  0  0  0  0  0  0  0  0  0
   56.2967   31.1152   43.4805 H   0  0  0  0  0  0  0  0  0  0  0  0
   59.6102   29.2780   47.3357 H   0  0  0  0  0  0  0  0  0  0  0  0
   58.2880   27.1672   47.3125 H   0  0  0  0  0  0  0  0  0  0  0  0
   59.1634   33.3816   47.9596 H   0  0  0  0  0  0  0  0  0  0  0  0
   61.0890   33.7185   49.5136 H   0  0  0  0  0  0  0  0  0  0  0  0
   63.1271   32.2878   49.3066 H   0  0  0  0  0  0  0  0  0  0  0  0
   63.2398   30.5199   47.5457 H   0  0  0  0  0  0  0  0  0  0  0  0
   61.3165   30.1789   45.9902 H   0  0  0  0  0  0  0  0  0  0  0  0
  1  2  1  0
  2  3  2  0
  3  4  1  0
  4  5  1  0
  5  6  2  0
  6  7  1  0
  7  8  2  0
  8  9  1  0
  9 10  1  0
  9 11  2  0
 11 12  1  0
  6 13  1  0
 13 14  1  0
 14 15  2  0
 15 16  1  0
 16 17  2  0
 17 18  1  0
 18 19  2  0
 13  2  1  0
 19 14  1  0
 11  5  1  0
  1 20  1  0
  1 21  1  0
  3 22  1  0
  4 23  1  0
  4 24  1  0
  7 25  1  0
  8 26  1  0
 15 27  1  0
 16 28  1  0
 17 29  1  0
 18 30  1  0
 19 31  1  0
M  CHG  3   3   1  10  -1  12  -1
M  END
>  <UniqueID>  (50) 
46

>  <SMILES>  (50) 
NC1=[NH+]Cc2c(ccc([O-])c2[O-])N1c1ccccc1

>  <Energy>  (50) 
45.71181685800257

>  <Genealogy>  (50) 
NC1=[NH+]Cc2c(ccc([O-])c2[O-])N1c1ccccc1 (protonated)
NC1=[NH+]Cc2c(ccc([O-])c2[O-])N1c1ccccc1 (3D coordinates assigned)
NC1=[NH+]Cc2c(ccc([O-])c2[O-])N1c1ccccc1 (nonaromatic ring conformer: 45.71181685800257 kcal/mol)

>  <smiles>  (50) 
NC1=NCc2c(ccc(O)c2O)N1c1ccccc1

>  <score_type>  (50) 
oracle

>  <origin>  (50) 
adg

>  <m_score__min__energy>  (50) 
-9.0800000000000001

>  <m_primary>  (50) 
energy

$$$$
50:0
     RDKit          3D

 55 59  0  0  0  0  0  0  0  0999 V2000
   55.8100   23.2670   44.1090 C   0  0  0  0  0  0  0  0  0  0  0  0
   56.2240   24.5700   44.7130 C   0  0  0  0  0  0  0  0  0  0  0  0
   55.4200   25.2000   45.6700 C   0  0  0  0  0  0  0  0  0  0  0  0
   55.8280   26.3770   46.2140 N   0  0  0  0  0  0  0  0  0  0  0  0
   57.0070   26.9610   45.8530 C   0  0  0  0  0  0  0  0  0  0  0  0
   57.4000   28.0870   46.3750 N   0  0  0  0  0  0  0  0  0  0  0  0
   57.3460   29.3890   45.7670 C   0  0  0  0  0  0  0  0  0  0  0  0
   56.4960   29.6440   44.8700 O   0  0  0  0  0  0  0  0  0  0  0  0
   58.2990   30.4410   46.1960 C   0  0  0  0  0  0  0  0  0  0  0  0
   59.6080   30.0990   46.6040 C   0  0  0  0  0  0  0  0  0  0  0  0
   60.5130   31.0910   47.0090 C   0  0  0  0  0  0  0  0  0  0  0  0
   60.1010   32.4280   47.0210 C   0  0  0  0  0  0  0  0  0  0  0  0
   58.8380   32.7680   46.5930 C   0  0  0  0  0  0  0  0  0  0  0  0
   57.9180   31.8000   46.1870 C   0  0  0  0  0  0  0  0  0  0  0  0
   58.6270   34.2330   46.5880 C   0  0  0  0  0  0  0  0  0  0  0  0
   60.0510   34.7820   46.7580 C   0  0  0  0  0  0  0  0  0  0  0  0
   60.8920   33.6370   47.4240 C   0  0  2  0  0  0  0  0  0  0  0  0
   62.2980   33.5980   46.8450 C   0  0  0  0  0  0  0  0  0  0  0  0
   62.4890   33.8420   45.6240 O   0  0  0  0  0  0  0  0  0  0  0  0
   63.4160   33.2150   47.6330 N   0  0  0  0  0  0  0  0  0  0  0  0
   63.2210   32.5250   49.1940 S   0  0  0  0  0  0  0  0  0  0  0  0
   64.3300   33.0230   50.0790 O   0  0  0  0  0  0  0  0  0  0  0  0
   63.3260   31.0300   49.0790 O   0  0  0  0  0  0  0  0  0  0  0  0
   61.6900   33.0150   49.8800 N   0  0  2  0  0  0  0  0  0  0  0  0
   60.9200   31.8750   50.4290 C   0  0  0  0  0  0  0  0  0  0  0  0
   59.6510   32.3280   51.1210 C   0  0  0  0  0  0  0  0  0  0  0  0
   58.4360   31.6640   50.8720 C   0  0  0  0  0  0  0  0  0  0  0  0
   57.2640   32.0730   51.5130 C   0  0  0  0  0  0  0  0  0  0  0  0
   57.2940   33.1420   52.4130 C   0  0  0  0  0  0  0  0  0  0  0  0
   58.5000   33.8000   52.6780 C   0  0  0  0  0  0  0  0  0  0  0  0
   59.6760   33.3910   52.0410 C   0  0  0  0  0  0  0  0  0  0  0  0
   60.8690   33.7900   48.9610 C   0  0  0  0  0  0  0  0  0  0  0  0
   60.0470   34.5510   49.4580 O   0  0  0  0  0  0  0  0  0  0  0  0
   57.8100   26.3250   44.8990 C   0  0  0  0  0  0  0  0  0  0  0  0
   57.4010   25.1490   44.3530 N   0  0  0  0  0  0  0  0  0  0  0  0
   55.5815   22.5479   44.9095 H   0  0  0  0  0  0  0  0  0  0  0  0
   54.9159   23.4190   43.4865 H   0  0  0  0  0  0  0  0  0  0  0  0
   56.6279   22.8751   43.4865 H   0  0  0  0  0  0  0  0  0  0  0  0
   54.4666   24.7467   45.9791 H   0  0  0  0  0  0  0  0  0  0  0  0
   59.9203   29.0443   46.6040 H   0  0  0  0  0  0  0  0  0  0  0  0
   61.5349   30.8210   47.3137 H   0  0  0  0  0  0  0  0  0  0  0  0
   56.9081   32.0928   45.8639 H   0  0  0  0  0  0  0  0  0  0  0  0
   58.1846   34.5664   45.6377 H   0  0  0  0  0  0  0  0  0  0  0  0
   57.9319   34.5757   47.3686 H   0  0  0  0  0  0  0  0  0  0  0  0
   60.4763   35.0456   45.7784 H   0  0  0  0  0  0  0  0  0  0  0  0
   60.0560   35.6914   47.3768 H   0  0  0  0  0  0  0  0  0  0  0  0
   61.9310   33.6620   50.6660 H   0  0  0  0  0  0  0  0  0  0  0  0
   60.6525   31.1973   49.6048 H   0  0  0  0  0  0  0  0  0  0  0  0
   61.5501   31.3666   51.1737 H   0  0  0  0  0  0  0  0  0  0  0  0
   58.4086   30.8184   50.1690 H   0  0  0  0  0  0  0  0  0  0  0  0
   56.3163   31.5531   51.3091 H   0  0  0  0  0  0  0  0  0  0  0  0
   56.3693   33.4660   52.9130 H   0  0  0  0  0  0  0  0  0  0  0  0
   58.5232   34.6398   53.3880 H   0  0  0  0  0  0  0  0  0  0  0  0
   60.6244   33.9031   52.2607 H   0  0  0  0  0  0  0  0  0  0  0  0
   58.7664   26.7741   44.5929 H   0  0  0  0  0  0  0  0  0  0  0  0
  1  2  1  0
  2  3  2  0
  3  4  1  0
  4  5  1  0
  5  6  2  3
  6  7  1  0
  7  8  2  0
  7  9  1  0
  9 10  2  0
 10 11  1  0
 11 12  2  0
 12 13  1  0
 13 14  2  0
 13 15  1  0
 15 16  1  0
 17 16  1  6
 17 18  1  0
 18 19  2  0
 18 20  1  0
 20 21  1  0
 21 22  2  0
 21 23  2  0
 21 24  1  0
 24 25  1  0
 25 26  1  0
 26 27  2  0
 27 28  1  0
 28 29  2  0
 29 30  1  0
 30 31  2  0
 24 32  1  0
 32 33  2  0
  5 34  1  0
 34 35  2  0
 35  2  1  0
 14  9  1  0
 32 17  1  0
 17 12  1  0
 31 26  1  0
  1 36  1  0
  1 37  1  0
  1 38  1  0
  3 39  1  0
 10 40  1  0
 11 41  1  0
 14 42  1  0
 15 43  1  0
 15 44  1  0
 16 45  1  0
 16 46  1  0
 24 47  1  1
 25 48  1  0
 25 49  1  0
 27 50  1  0
 28 51  1  0
 29 52  1  0
 30 53  1  0
 31 54  1  0
 34 55  1  0
M  CHG  3   4  -1  20  -1  24   1
M  END
>  <UniqueID>  (51) 
47

>  <SMILES>  (51) 
Cc1c[n-]c(=NC(=O)c2ccc3c(c2)CC[C@]32C(=O)[N-]S(=O)(=O)[N@H+](Cc3ccccc3)C2=O)cn1

>  <Energy>  (51) 
87.5775415538189

>  <Genealogy>  (51) 
Cc1c[n-]c(=NC(=O)c2ccc3c(c2)CCC32C(=O)[N-]S(=O)(=O)[NH+](Cc3ccccc3)C2=O)cn1 (protonated)
Cc1c[n-]c(=NC(=O)c2ccc3c(c2)CC[C@]32C(=O)[N-]S(=O)(=O)[N@H+](Cc3ccccc3)C2=O)cn1 (chirality)
Cc1c[n-]c(=NC(=O)c2ccc3c(c2)CC[C@]32C(=O)[N-]S(=O)(=O)[N@H+](Cc3ccccc3)C2=O)cn1 (3D coordinates assigned)
Cc1c[n-]c(=NC(=O)c2ccc3c(c2)CC[C@]32C(=O)[N-]S(=O)(=O)[N@H+](Cc3ccccc3)C2=O)cn1 (nonaromatic ring conformer: 87.5775415538189 kcal/mol)

>  <smiles>  (51) 
Cc1c[nH]c(=NC(=O)c2ccc3c(c2)CCC32C(=O)NS(=O)(=O)N(Cc3ccccc3)C2=O)cn1

>  <score_type>  (51) 
oracle

>  <origin>  (51) 
adg

>  <m_score__min__energy>  (51) 
-11.33

>  <m_primary>  (51) 
energy

$$$$
51:0
     RDKit          3D

 34 36  0  0  0  0  0  0  0  0999 V2000
   60.1477   22.2761   44.6252 H   0  0  0  0  0  0  0  0  0  0  0  0
   59.0710   22.4800   44.7210 C   0  0  0  0  0  0  0  0  0  0  0  0
   58.1640   21.8600   43.8580 C   0  0  0  0  0  0  0  0  0  0  0  0
   58.5267   21.1654   43.0860 H   0  0  0  0  0  0  0  0  0  0  0  0
   56.7950   22.1220   43.9750 C   0  0  0  0  0  0  0  0  0  0  0  0
   55.8950   21.5100   43.1120 O   0  0  0  0  0  0  0  0  0  0  0  0
   56.3330   23.0010   44.9610 C   0  0  0  0  0  0  0  0  0  0  0  0
   55.2566   23.2104   45.0472 H   0  0  0  0  0  0  0  0  0  0  0  0
   57.2380   23.6170   45.8410 C   0  0  0  0  0  0  0  0  0  0  0  0
   56.7480   24.5950   46.8730 C   0  0  0  0  0  0  0  0  0  0  0  0
   57.3988   24.5462   47.7585 H   0  0  0  0  0  0  0  0  0  0  0  0
   55.7159   24.3367   47.1525 H   0  0  0  0  0  0  0  0  0  0  0  0
   56.7720   25.9840   46.3170 C   0  0  0  0  0  0  0  0  0  0  0  0
   57.8970   26.6710   46.0530 N   0  0  0  0  0  0  0  0  0  0  0  0
   57.4440   27.8170   45.4980 C   0  0  0  0  0  0  0  0  0  0  0  0
   58.2510   28.7660   45.1240 N   0  0  0  0  0  0  0  0  0  0  0  0
   58.1310   30.1520   45.4780 C   0  0  0  0  0  0  0  0  0  0  0  0
   57.0230   30.7250   45.2960 O   0  0  0  0  0  0  0  0  0  0  0  0
   59.2430   30.9100   46.1010 C   0  0  0  0  0  0  0  0  0  0  0  0
   60.3730   30.2310   46.5870 C   0  0  0  0  0  0  0  0  0  0  0  0
   60.4262   29.1347   46.5135 H   0  0  0  0  0  0  0  0  0  0  0  0
   61.4310   30.9420   47.1640 C   0  0  0  0  0  0  0  0  0  0  0  0
   62.3084   30.4029   47.5506 H   0  0  0  0  0  0  0  0  0  0  0  0
   61.3750   32.3360   47.2500 C   0  0  0  0  0  0  0  0  0  0  0  0
   62.8200   33.3030   48.0390 Br  0  0  0  0  0  0  0  0  0  0  0  0
   60.2620   33.0210   46.7540 C   0  0  0  0  0  0  0  0  0  0  0  0
   60.2191   34.1183   46.8185 H   0  0  0  0  0  0  0  0  0  0  0  0
   59.2030   32.3140   46.1760 C   0  0  0  0  0  0  0  0  0  0  0  0
   58.3342   32.8587   45.7779 H   0  0  0  0  0  0  0  0  0  0  0  0
   56.0960   27.8940   45.3930 N   0  0  0  0  0  0  0  0  0  0  0  0
   55.6890   26.7230   45.9060 C   0  0  0  0  0  0  0  0  0  0  0  0
   54.3590   26.3360   45.9910 O   0  0  0  0  0  0  0  0  0  0  0  0
   58.6120   23.3590   45.7060 C   0  0  0  0  0  0  0  0  0  0  0  0
   59.3301   23.8509   46.3785 H   0  0  0  0  0  0  0  0  0  0  0  0
  1  2  1  0
  2  3  2  0
  3  4  1  0
  3  5  1  0
  5  6  1  0
  5  7  2  0
  7  8  1  0
  7  9  1  0
  9 10  1  0
 10 11  1  0
 10 12  1  0
 10 13  1  0
 13 14  1  0
 14 15  1  0
 15 16  2  0
 16 17  1  0
 17 18  2  0
 17 19  1  0
 19 20  2  0
 20 21  1  0
 20 22  1  0
 22 23  1  0
 22 24  2  0
 24 25  1  0
 24 26  1  0
 26 27  1  0
 26 28  2  0
 28 29  1  0
 15 30  1  0
 30 31  1  0
 31 32  1  0
  9 33  2  0
 33 34  1  0
 33  2  1  0
 31 13  2  0
 28 19  1  0
M  CHG  4   6  -1  14  -1  30  -1  32  -1
M  END
>  <UniqueID>  (52) 
48

>  <SMILES>  (52) 
O=C(/N=c1\[n-]c([O-])c(Cc2cccc([O-])c2)[n-]1)c1ccc(Br)cc1

>  <Energy>  (52) 
71.46446214001331

>  <Genealogy>  (52) 
O=C(N=c1[n-]c([O-])c(Cc2cccc([O-])c2)[n-]1)c1ccc(Br)cc1 (protonated)
O=C(/N=c1\[n-]c([O-])c(Cc2cccc([O-])c2)[n-]1)c1ccc(Br)cc1 (cis-trans isomerization)
O=C(/N=c1\[n-]c([O-])c(Cc2cccc([O-])c2)[n-]1)c1ccc(Br)cc1 (3D coordinates assigned)
O=C(/N=c1\[n-]c([O-])c(Cc2cccc([O-])c2)[n-]1)c1ccc(Br)cc1 (optimized conformer: 71.46446214001331 kcal/mol)

>  <smiles>  (52) 
O=C(N=c1[nH]c(O)c(Cc2cccc(O)c2)[nH]1)c1ccc(Br)cc1

>  <score_type>  (52) 
oracle

>  <origin>  (52) 
adg

>  <m_score__min__energy>  (52) 
-16.52

>  <m_primary>  (52) 
energy

$$$$
52:0
     RDKit          3D

 40 41  0  0  0  0  0  0  0  0999 V2000
   55.1480   28.1980   44.9730 H   0  0  0  0  0  0  0  0  0  0  0  0
   55.2300   29.1990   45.1010 O   0  0  0  0  0  0  0  0  0  0  0  0
   56.1210   29.9760   44.3600 C   0  0  0  0  0  0  0  0  0  0  0  0
   55.8800   30.1620   42.9940 C   0  0  0  0  0  0  0  0  0  0  0  0
   54.9962   29.7024   42.5274 H   0  0  0  0  0  0  0  0  0  0  0  0
   56.7540   30.9270   42.2200 C   0  0  0  0  0  0  0  0  0  0  0  0
   56.5535   31.0761   41.1488 H   0  0  0  0  0  0  0  0  0  0  0  0
   57.8830   31.5030   42.8060 C   0  0  0  0  0  0  0  0  0  0  0  0
   58.5755   32.0991   42.1935 H   0  0  0  0  0  0  0  0  0  0  0  0
   58.1350   31.3240   44.1680 C   0  0  0  0  0  0  0  0  0  0  0  0
   59.0331   31.7683   44.6218 H   0  0  0  0  0  0  0  0  0  0  0  0
   57.2440   30.5770   44.9630 C   0  0  0  0  0  0  0  0  0  0  0  0
   57.5070   30.3540   46.3570 N   0  0  0  0  0  0  0  0  0  0  0  0
   58.2790   29.2840   46.9180 C   0  0  0  0  0  0  0  0  0  0  0  0
   58.1720   29.0430   48.1490 O   0  0  0  0  0  0  0  0  0  0  0  0
   59.2300   28.4700   46.0840 C   0  0  0  0  0  0  0  0  0  0  0  0
   60.2202   28.9490   46.0953 H   0  0  0  0  0  0  0  0  0  0  0  0
   58.8414   28.4178   45.0563 H   0  0  0  0  0  0  0  0  0  0  0  0
   59.3790   26.7700   46.7410 S   0  0  0  0  0  0  0  0  0  0  0  0
   57.6720   26.3230   46.4290 C   0  0  0  0  0  0  0  0  0  0  0  0
   56.7280   27.2110   46.0470 N   0  0  0  0  0  0  0  0  0  0  0  0
   55.5300   26.6560   45.8640 N   0  0  0  0  0  0  0  0  0  0  0  0
   55.5230   25.3250   46.0860 C   0  0  0  0  0  0  0  0  0  0  0  0
   54.4370   24.6160   45.9990 N   0  0  0  0  0  0  0  0  0  0  0  0
   54.2940   23.3930   45.2670 C   0  0  0  0  0  0  0  0  0  0  0  0
   53.1450   23.0300   44.9030 O   0  0  0  0  0  0  0  0  0  0  0  0
   55.4970   22.6070   44.8050 C   0  0  0  0  0  0  0  0  0  0  0  0
   55.2426   21.5370   44.8224 H   0  0  0  0  0  0  0  0  0  0  0  0
   56.3251   22.8473   45.4880 H   0  0  0  0  0  0  0  0  0  0  0  0
   55.9580   22.9780   43.3790 C   0  0  0  0  0  0  0  0  0  0  0  0
   55.0458   23.2354   42.8207 H   0  0  0  0  0  0  0  0  0  0  0  0
   56.8710   24.2120   43.3640 C   0  0  0  0  0  0  0  0  0  0  0  0
   57.0951   24.5149   44.3975 H   0  0  0  0  0  0  0  0  0  0  0  0
   57.8081   23.9685   42.8419 H   0  0  0  0  0  0  0  0  0  0  0  0
   56.3640   25.0369   42.8419 H   0  0  0  0  0  0  0  0  0  0  0  0
   56.6270   21.7960   42.6640 C   0  0  0  0  0  0  0  0  0  0  0  0
   57.0248   21.0932   43.4109 H   0  0  0  0  0  0  0  0  0  0  0  0
   55.8862   21.2815   42.0343 H   0  0  0  0  0  0  0  0  0  0  0  0
   57.4495   22.1662   42.0343 H   0  0  0  0  0  0  0  0  0  0  0  0
   57.0480   24.7650   46.5550 S   0  0  0  0  0  0  0  0  0  0  0  0
  1  2  1  0
  2  3  1  0
  3  4  2  0
  4  5  1  0
  4  6  1  0
  6  7  1  0
  6  8  2  0
  8  9  1  0
  8 10  1  0
 10 11  1  0
 10 12  2  0
 12 13  1  0
 13 14  1  0
 14 15  2  0
 14 16  1  0
 16 17  1  0
 16 18  1  0
 16 19  1  0
 19 20  1  0
 20 21  2  0
 21 22  1  0
 22 23  1  0
 23 24  2  0
 24 25  1  0
 25 26  2  0
 25 27  1  0
 27 28  1  0
 27 29  1  0
 27 30  1  0
 30 31  1  0
 30 32  1  0
 32 33  1  0
 32 34  1  0
 32 35  1  0
 30 36  1  0
 36 37  1  0
 36 38  1  0
 36 39  1  0
 23 40  1  0
 12  3  1  0
 40 20  1  0
M  CHG  2  13  -1  22  -1
M  END
>  <UniqueID>  (53) 
49

>  <SMILES>  (53) 
CC(C)CC(=O)/N=c1/[n-]nc(SCC(=O)[N-]c2ccccc2O)s1

>  <Energy>  (53) 
78.98377331424862

>  <Genealogy>  (53) 
CC(C)CC(=O)N=c1[n-]nc(SCC(=O)[N-]c2ccccc2O)s1 (protonated)
CC(C)CC(=O)/N=c1/[n-]nc(SCC(=O)[N-]c2ccccc2O)s1 (cis-trans isomerization)
CC(C)CC(=O)/N=c1/[n-]nc(SCC(=O)[N-]c2ccccc2O)s1 (3D coordinates assigned)
CC(C)CC(=O)/N=c1/[n-]nc(SCC(=O)[N-]c2ccccc2O)s1 (optimized conformer: 78.98377331424862 kcal/mol)

>  <smiles>  (53) 
CC(C)CC(=O)N=c1[nH]nc(SCC(=O)Nc2ccccc2O)s1

>  <score_type>  (53) 
oracle

>  <origin>  (53) 
adg

>  <m_score__min__energy>  (53) 
-12.26

>  <m_primary>  (53) 
energy

$$$$
53:0
     RDKit          3D

 49 50  0  0  0  0  0  0  0  0999 V2000
   58.4320   30.8740   45.0980 C   0  0  0  0  0  0  0  0  0  0  0  0
   58.9240   30.2750   46.4090 C   0  0  0  0  0  0  0  0  0  0  0  0
   60.4370   29.3470   46.1610 S   0  0  0  0  0  0  0  0  0  0  0  0
   61.6080   30.2660   46.3760 O   0  0  0  0  0  0  0  0  0  0  0  0
   60.4810   28.8620   44.7380 O   0  0  0  0  0  0  0  0  0  0  0  0
   60.5680   27.9800   47.2600 N   0  0  0  0  0  0  0  0  0  0  0  0
   59.7220   28.1730   48.4540 C   0  0  0  0  0  0  0  0  0  0  0  0
   59.9100   29.5430   49.0390 C   0  0  0  0  0  0  0  0  0  0  0  0
   58.9530   30.0900   49.6520 O   0  0  0  0  0  0  0  0  0  0  0  0
   61.1660   30.2200   48.9080 N   0  0  0  0  0  0  0  0  0  0  0  0
   61.4200   31.4910   49.5830 C   0  0  0  0  0  0  0  0  0  0  0  0
   60.9190   32.6470   48.7470 C   0  0  0  0  0  0  0  0  0  0  0  0
   61.4890   32.8650   47.4800 C   0  0  0  0  0  0  0  0  0  0  0  0
   61.0700   33.9360   46.6880 C   0  0  0  0  0  0  0  0  0  0  0  0
   60.0840   34.8060   47.1520 C   0  0  0  0  0  0  0  0  0  0  0  0
   59.5190   34.6150   48.4150 C   0  0  0  0  0  0  0  0  0  0  0  0
   59.9360   33.5470   49.2300 C   0  0  0  0  0  0  0  0  0  0  0  0
   59.3090   33.3750   50.5880 C   0  0  0  0  0  0  0  0  0  0  0  0
   60.2090   26.7240   46.5700 C   0  0  0  0  0  0  0  0  0  0  0  0
   58.7160   26.6200   46.3970 C   0  0  0  0  0  0  0  0  0  0  0  0
   57.9930   25.6360   47.0930 C   0  0  0  0  0  0  0  0  0  0  0  0
   56.6070   25.5440   46.9460 C   0  0  0  0  0  0  0  0  0  0  0  0
   55.9290   26.4360   46.1090 C   0  0  0  0  0  0  0  0  0  0  0  0
   54.5510   26.3420   45.9620 O   0  0  0  0  0  0  0  0  0  0  0  0
   56.6400   27.4240   45.4210 C   0  0  0  0  0  0  0  0  0  0  0  0
   58.0280   27.5200   45.5660 C   0  0  0  0  0  0  0  0  0  0  0  0
   57.7469   31.7081   45.3102 H   0  0  0  0  0  0  0  0  0  0  0  0
   59.2909   31.2434   44.5185 H   0  0  0  0  0  0  0  0  0  0  0  0
   57.9028   30.1032   44.5185 H   0  0  0  0  0  0  0  0  0  0  0  0
   59.1130   31.0865   47.1271 H   0  0  0  0  0  0  0  0  0  0  0  0
   58.1525   29.5923   46.7946 H   0  0  0  0  0  0  0  0  0  0  0  0
   58.6669   28.0461   48.1701 H   0  0  0  0  0  0  0  0  0  0  0  0
   60.0132   27.4292   49.2102 H   0  0  0  0  0  0  0  0  0  0  0  0
   61.9200   29.7770   48.3340 H   0  0  0  0  0  0  0  0  0  0  0  0
   60.9015   31.4950   50.5531 H   0  0  0  0  0  0  0  0  0  0  0  0
   62.5042   31.6037   49.7305 H   0  0  0  0  0  0  0  0  0  0  0  0
   62.2714   32.1862   47.1098 H   0  0  0  0  0  0  0  0  0  0  0  0
   61.5186   34.0937   45.6961 H   0  0  0  0  0  0  0  0  0  0  0  0
   59.7506   35.6441   46.5223 H   0  0  0  0  0  0  0  0  0  0  0  0
   58.7419   35.3052   48.7752 H   0  0  0  0  0  0  0  0  0  0  0  0
   60.0584   33.5806   51.3666 H   0  0  0  0  0  0  0  0  0  0  0  0
   58.4677   34.0755   50.6948 H   0  0  0  0  0  0  0  0  0  0  0  0
   58.9429   32.3432   50.6948 H   0  0  0  0  0  0  0  0  0  0  0  0
   60.6894   26.7054   45.5806 H   0  0  0  0  0  0  0  0  0  0  0  0
   60.5548   25.8750   47.1779 H   0  0  0  0  0  0  0  0  0  0  0  0
   58.5210   24.9352   47.7564 H   0  0  0  0  0  0  0  0  0  0  0  0
   56.0476   24.7684   47.4897 H   0  0  0  0  0  0  0  0  0  0  0  0
   56.1068   28.1272   44.7644 H   0  0  0  0  0  0  0  0  0  0  0  0
   58.5826   28.3027   45.0277 H   0  0  0  0  0  0  0  0  0  0  0  0
  1  2  1  0
  2  3  1  0
  3  4  2  0
  3  5  2  0
  3  6  1  0
  6  7  1  0
  7  8  1  0
  8  9  2  0
  8 10  1  0
 10 11  1  0
 11 12  1  0
 12 13  2  0
 13 14  1  0
 14 15  2  0
 15 16  1  0
 16 17  2  0
 17 18  1  0
  6 19  1  0
 19 20  1  0
 20 21  2  0
 21 22  1  0
 22 23  2  0
 23 24  1  0
 23 25  1  0
 25 26  2  0
 17 12  1  0
 26 20  1  0
  1 27  1  0
  1 28  1  0
  1 29  1  0
  2 30  1  0
  2 31  1  0
  7 32  1  0
  7 33  1  0
 10 34  1  0
 11 35  1  0
 11 36  1  0
 13 37  1  0
 14 38  1  0
 15 39  1  0
 16 40  1  0
 18 41  1  0
 18 42  1  0
 18 43  1  0
 19 44  1  0
 19 45  1  0
 21 46  1  0
 22 47  1  0
 25 48  1  0
 26 49  1  0
M  CHG  1  24  -1
M  END
>  <UniqueID>  (54) 
50

>  <SMILES>  (54) 
CCS(=O)(=O)N(CC(=O)NCc1ccccc1C)Cc1ccc([O-])cc1

>  <Energy>  (54) 
38.83976143372562

>  <Genealogy>  (54) 
CCS(=O)(=O)N(CC(=O)NCc1ccccc1C)Cc1ccc([O-])cc1 (protonated)
CCS(=O)(=O)N(CC(=O)NCc1ccccc1C)Cc1ccc([O-])cc1 (3D coordinates assigned)
CCS(=O)(=O)N(CC(=O)NCc1ccccc1C)Cc1ccc([O-])cc1 (optimized conformer: 38.83976143372562 kcal/mol)

>  <smiles>  (54) 
CCS(=O)(=O)N(CC(=O)NCc1ccccc1C)Cc1ccc(O)cc1

>  <score_type>  (54) 
oracle

>  <origin>  (54) 
adg

>  <m_score__min__energy>  (54) 
-10.359999999999999

>  <m_primary>  (54) 
energy

$$$$
54:0
     RDKit          3D

 37 39  0  0  0  0  0  0  0  0999 V2000
   55.3440   26.7210   45.9390 O   0  0  0  0  0  0  0  0  0  0  0  0
   56.5620   27.0250   46.0610 C   0  0  0  0  0  0  0  0  0  0  0  0
   57.5200   26.0130   46.4050 N   0  0  0  0  0  0  0  0  0  0  0  0
   57.8270   24.8330   45.6470 C   0  0  0  0  0  0  0  0  0  0  0  0
   58.9970   24.1260   45.9520 C   0  0  0  0  0  0  0  0  0  0  0  0
   59.3230   22.9610   45.2520 C   0  0  0  0  0  0  0  0  0  0  0  0
   58.4720   22.4840   44.2520 C   0  0  0  0  0  0  0  0  0  0  0  0
   57.2880   23.1680   43.9560 C   0  0  0  0  0  0  0  0  0  0  0  0
   56.2070   22.5530   42.7200 Cl  0  0  0  0  0  0  0  0  0  0  0  0
   56.9610   24.3350   44.6560 C   0  0  0  0  0  0  0  0  0  0  0  0
   57.0170   28.4170   45.8000 C   0  0  0  0  0  0  0  0  0  0  0  0
   58.2330   28.8740   46.3340 C   0  0  0  0  0  0  0  0  0  0  0  0
   58.6540   30.1430   46.0990 N   0  0  0  0  0  0  0  0  0  0  0  0
   57.9170   31.0010   45.3490 C   0  0  0  0  0  0  0  0  0  0  0  0
   58.3540   32.2070   45.1480 N   0  0  0  0  0  0  0  0  0  0  0  0
   58.4840   33.2150   46.1950 C   0  0  0  0  0  0  0  0  0  0  0  0
   59.8680   33.1570   46.7730 C   0  0  0  0  0  0  0  0  0  0  0  0
   60.1140   32.4390   47.9540 C   0  0  0  0  0  0  0  0  0  0  0  0
   61.3970   32.4150   48.5100 C   0  0  0  0  0  0  0  0  0  0  0  0
   62.4400   33.1170   47.8980 C   0  0  0  0  0  0  0  0  0  0  0  0
   64.0480   33.0870   48.5970 Cl  0  0  0  0  0  0  0  0  0  0  0  0
   62.1980   33.8480   46.7290 C   0  0  0  0  0  0  0  0  0  0  0  0
   60.9170   33.8740   46.1710 C   0  0  0  0  0  0  0  0  0  0  0  0
   56.7350   30.5860   44.8190 N   0  0  0  0  0  0  0  0  0  0  0  0
   56.2690   29.3270   45.0240 C   0  0  0  0  0  0  0  0  0  0  0  0
   55.1660   28.9950   44.5120 O   0  0  0  0  0  0  0  0  0  0  0  0
   59.6637   24.4900   46.7477 H   0  0  0  0  0  0  0  0  0  0  0  0
   60.2506   22.4192   45.4887 H   0  0  0  0  0  0  0  0  0  0  0  0
   58.7329   21.5706   43.6973 H   0  0  0  0  0  0  0  0  0  0  0  0
   56.0237   24.8648   44.4307 H   0  0  0  0  0  0  0  0  0  0  0  0
   58.8485   28.1990   46.9469 H   0  0  0  0  0  0  0  0  0  0  0  0
   58.3061   34.2130   45.7679 H   0  0  0  0  0  0  0  0  0  0  0  0
   57.7462   33.0196   46.9872 H   0  0  0  0  0  0  0  0  0  0  0  0
   59.2943   31.8931   48.4440 H   0  0  0  0  0  0  0  0  0  0  0  0
   61.5860   31.8429   49.4303 H   0  0  0  0  0  0  0  0  0  0  0  0
   63.0175   34.4029   46.2488 H   0  0  0  0  0  0  0  0  0  0  0  0
   60.7287   34.4574   45.2577 H   0  0  0  0  0  0  0  0  0  0  0  0
  1  2  2  0
  2  3  1  0
  3  4  1  0
  4  5  2  0
  5  6  1  0
  6  7  2  0
  7  8  1  0
  8  9  1  0
  8 10  2  0
  2 11  1  0
 11 12  2  0
 12 13  1  0
 13 14  1  0
 14 15  2  3
 15 16  1  0
 16 17  1  0
 17 18  2  0
 18 19  1  0
 19 20  2  0
 20 21  1  0
 20 22  1  0
 22 23  2  0
 14 24  1  0
 24 25  1  0
 25 26  2  0
 10  4  1  0
 25 11  1  0
 23 17  1  0
  5 27  1  0
  6 28  1  0
  7 29  1  0
 10 30  1  0
 12 31  1  0
 16 32  1  0
 16 33  1  0
 18 34  1  0
 19 35  1  0
 22 36  1  0
 23 37  1  0
M  CHG  3   3  -1  13  -1  24  -1
M  END
>  <UniqueID>  (55) 
51

>  <SMILES>  (55) 
O=C([N-]c1cccc(Cl)c1)c1c[n-]c(=NCc2ccc(Cl)cc2)[n-]c1=O

>  <Energy>  (55) 
45.646359759129645

>  <Genealogy>  (55) 
O=C([N-]c1cccc(Cl)c1)c1c[n-]c(=NCc2ccc(Cl)cc2)[n-]c1=O (protonated)
O=C([N-]c1cccc(Cl)c1)c1c[n-]c(=NCc2ccc(Cl)cc2)[n-]c1=O (3D coordinates assigned)
O=C([N-]c1cccc(Cl)c1)c1c[n-]c(=NCc2ccc(Cl)cc2)[n-]c1=O (optimized conformer: 45.646359759129645 kcal/mol)

>  <smiles>  (55) 
O=C(Nc1cccc(Cl)c1)c1c[nH]c(=NCc2ccc(Cl)cc2)[nH]c1=O

>  <score_type>  (55) 
oracle

>  <origin>  (55) 
adg

>  <m_score__min__energy>  (55) 
-12.94

>  <m_primary>  (55) 
energy

$$$$
55:0
     RDKit          3D

 41 43  0  0  0  0  0  0  0  0999 V2000
   56.6275   19.1936   48.1969 H   0  0  0  0  0  0  0  0  0  0  0  0
   56.8870   19.9060   47.4000 C   0  0  0  0  0  0  0  0  0  0  0  0
   57.0060   21.2300   47.6780 N   0  0  0  0  0  0  0  0  0  0  0  0
   57.3340   22.1390   46.7210 C   0  0  0  0  0  0  0  0  0  0  0  0
   57.4210   23.3940   47.0660 N   0  0  0  0  0  0  0  0  0  0  0  0
   56.6660   24.5210   46.5890 C   0  0  0  0  0  0  0  0  0  0  0  0
   55.4310   24.4110   46.3540 O   0  0  0  0  0  0  0  0  0  0  0  0
   57.3580   25.7960   46.2840 C   0  0  0  0  0  0  0  0  0  0  0  0
   57.9580   26.5490   47.3100 C   0  0  0  0  0  0  0  0  0  0  0  0
   57.9160   26.1870   48.3479 H   0  0  0  0  0  0  0  0  0  0  0  0
   58.6070   27.7530   47.0220 C   0  0  0  0  0  0  0  0  0  0  0  0
   59.0761   28.3295   47.8329 H   0  0  0  0  0  0  0  0  0  0  0  0
   58.6630   28.2300   45.7030 C   0  0  0  0  0  0  0  0  0  0  0  0
   59.3450   29.5360   45.3910 C   0  0  0  0  0  0  0  0  0  0  0  0
   59.0956   30.2669   46.1743 H   0  0  0  0  0  0  0  0  0  0  0  0
   60.4304   29.3615   45.3540 H   0  0  0  0  0  0  0  0  0  0  0  0
   58.9160   30.0620   44.0930 N   0  0  0  0  0  0  0  0  0  0  0  0
   57.6790   31.2740   44.2670 S   0  0  0  0  0  0  0  0  0  0  0  0
   57.3590   31.8440   42.9150 O   0  0  0  0  0  0  0  0  0  0  0  0
   56.4320   30.6410   44.8210 O   0  0  0  0  0  0  0  0  0  0  0  0
   58.2160   32.5840   45.3170 C   0  0  0  0  0  0  0  0  0  0  0  0
   58.1680   32.4500   46.7140 C   0  0  0  0  0  0  0  0  0  0  0  0
   57.7783   31.5250   47.1640 H   0  0  0  0  0  0  0  0  0  0  0  0
   58.6150   33.4910   47.5340 C   0  0  0  0  0  0  0  0  0  0  0  0
   58.5777   33.3833   48.6281 H   0  0  0  0  0  0  0  0  0  0  0  0
   59.1090   34.6680   46.9650 C   0  0  0  0  0  0  0  0  0  0  0  0
   59.4587   35.4864   47.6115 H   0  0  0  0  0  0  0  0  0  0  0  0
   59.1590   34.8060   45.5740 C   0  0  0  0  0  0  0  0  0  0  0  0
   59.6410   35.9470   45.0230 F   0  0  0  0  0  0  0  0  0  0  0  0
   58.7140   33.7660   44.7520 C   0  0  0  0  0  0  0  0  0  0  0  0
   58.7549   33.8759   43.6583 H   0  0  0  0  0  0  0  0  0  0  0  0
   58.0700   27.4830   44.6770 C   0  0  0  0  0  0  0  0  0  0  0  0
   58.1142   27.8468   43.6398 H   0  0  0  0  0  0  0  0  0  0  0  0
   57.4220   26.2770   44.9640 C   0  0  0  0  0  0  0  0  0  0  0  0
   56.9585   25.6999   44.1503 H   0  0  0  0  0  0  0  0  0  0  0  0
   57.5260   21.6810   45.3980 C   0  0  0  0  0  0  0  0  0  0  0  0
   57.7706   22.3924   44.5955 H   0  0  0  0  0  0  0  0  0  0  0  0
   57.4060   20.3530   45.1240 N   0  0  0  0  0  0  0  0  0  0  0  0
   57.5450   20.0170   44.1460 H   0  0  0  0  0  0  0  0  0  0  0  0
   57.0960   19.4570   46.0980 C   0  0  0  0  0  0  0  0  0  0  0  0
   57.0109   18.3864   45.8601 H   0  0  0  0  0  0  0  0  0  0  0  0
  1  2  1  0
  2  3  1  0
  3  4  1  0
  4  5  2  0
  5  6  1  0
  6  7  2  0
  6  8  1  0
  8  9  2  0
  9 10  1  0
  9 11  1  0
 11 12  1  0
 11 13  2  0
 13 14  1  0
 14 15  1  0
 14 16  1  0
 14 17  1  0
 17 18  1  0
 18 19  2  0
 18 20  2  0
 18 21  1  0
 21 22  2  0
 22 23  1  0
 22 24  1  0
 24 25  1  0
 24 26  2  0
 26 27  1  0
 26 28  1  0
 28 29  1  0
 28 30  2  0
 30 31  1  0
 13 32  1  0
 32 33  1  0
 32 34  2  0
 34 35  1  0
  4 36  1  0
 36 37  1  0
 36 38  2  0
 38 39  1  0
 38 40  1  0
 40 41  1  0
 40  2  2  0
 34  8  1  0
 30 21  1  0
M  CHG  3   3  -1  17  -1  38   1
M  END
>  <UniqueID>  (56) 
52

>  <SMILES>  (56) 
O=C(/N=c1\c[nH+]cc[n-]1)c1ccc(C[N-]S(=O)(=O)c2cccc(F)c2)cc1

>  <Energy>  (56) 
51.78607233580552

>  <Genealogy>  (56) 
O=C(N=c1c[nH+]cc[n-]1)c1ccc(C[N-]S(=O)(=O)c2cccc(F)c2)cc1 (protonated)
O=C(/N=c1\c[nH+]cc[n-]1)c1ccc(C[N-]S(=O)(=O)c2cccc(F)c2)cc1 (cis-trans isomerization)
O=C(/N=c1\c[nH+]cc[n-]1)c1ccc(C[N-]S(=O)(=O)c2cccc(F)c2)cc1 (3D coordinates assigned)
O=C(/N=c1\c[nH+]cc[n-]1)c1ccc(C[N-]S(=O)(=O)c2cccc(F)c2)cc1 (optimized conformer: 51.78607233580552 kcal/mol)

>  <smiles>  (56) 
O=C(N=c1cncc[nH]1)c1ccc(CNS(=O)(=O)c2cccc(F)c2)cc1

>  <score_type>  (56) 
oracle

>  <origin>  (56) 
adg

>  <m_score__min__energy>  (56) 
-10.02

>  <m_primary>  (56) 
energy

$$$$
56:0
     RDKit          3D

 87 91  0  0  0  0  0  0  0  0999 V2000
   60.0800   31.7210   50.8060 H   0  0  0  0  0  0  0  0  0  0  0  0
   59.0930   31.8340   50.6010 O   0  0  0  0  0  0  0  0  0  0  0  0
   58.1040   31.1370   51.2980 C   0  0  0  0  0  0  0  0  0  0  0  0
   57.1270   31.8580   52.0020 C   0  0  0  0  0  0  0  0  0  0  0  0
   57.2200   33.2640   52.0180 O   0  0  0  0  0  0  0  0  0  0  0  0
   58.2110   34.0170   52.7190 C   0  0  0  0  0  0  0  0  0  0  0  0
   57.7962   35.0015   52.9812 H   0  0  0  0  0  0  0  0  0  0  0  0
   58.4943   33.4643   53.6269 H   0  0  0  0  0  0  0  0  0  0  0  0
   59.4630   34.2140   51.8560 C   0  0  0  0  0  0  0  0  0  0  0  0
   59.2523   33.8699   50.8327 H   0  0  0  0  0  0  0  0  0  0  0  0
   59.7249   35.2824   51.8570 H   0  0  0  0  0  0  0  0  0  0  0  0
   60.6480   33.4200   52.4180 C   0  0  0  0  0  0  0  0  0  0  0  0
   61.2049   34.0596   53.1186 H   0  0  0  0  0  0  0  0  0  0  0  0
   60.2519   32.5283   52.9260 H   0  0  0  0  0  0  0  0  0  0  0  0
   61.5530   32.9760   51.3620 N   0  0  0  0  0  0  0  0  0  0  0  0
   61.8090   33.6520   50.1200 C   0  0  0  0  0  0  0  0  0  0  0  0
   62.7620   34.4800   50.0720 O   0  0  0  0  0  0  0  0  0  0  0  0
   61.0160   33.3410   48.8780 C   0  0  0  0  0  0  0  0  0  0  0  0
   61.6917   33.3949   48.0117 H   0  0  0  0  0  0  0  0  0  0  0  0
   60.5869   32.3372   49.0129 H   0  0  0  0  0  0  0  0  0  0  0  0
   59.8430   34.3030   48.6390 C   0  0  0  0  0  0  0  0  0  0  0  0
   59.1002   34.1810   49.4411 H   0  0  0  0  0  0  0  0  0  0  0  0
   60.2145   35.3384   48.6355 H   0  0  0  0  0  0  0  0  0  0  0  0
   59.2010   33.9970   47.3100 C   0  0  0  0  0  0  0  0  0  0  0  0
   59.5950   34.6910   46.1550 C   0  0  0  0  0  0  0  0  0  0  0  0
   60.4414   35.3923   46.1984 H   0  0  0  0  0  0  0  0  0  0  0  0
   58.9170   34.4940   44.9540 C   0  0  0  0  0  0  0  0  0  0  0  0
   59.2304   35.0358   44.0494 H   0  0  0  0  0  0  0  0  0  0  0  0
   57.8380   33.6070   44.9000 C   0  0  0  0  0  0  0  0  0  0  0  0
   57.2984   33.4598   43.9528 H   0  0  0  0  0  0  0  0  0  0  0  0
   57.4410   32.9070   46.0400 C   0  0  0  0  0  0  0  0  0  0  0  0
   56.5938   32.2070   45.9917 H   0  0  0  0  0  0  0  0  0  0  0  0
   58.1230   33.0990   47.2400 C   0  0  0  0  0  0  0  0  0  0  0  0
   57.8152   32.5437   48.1383 H   0  0  0  0  0  0  0  0  0  0  0  0
   56.1140   31.1600   52.6820 C   0  0  0  0  0  0  0  0  0  0  0  0
   55.3371   31.7111   53.2321 H   0  0  0  0  0  0  0  0  0  0  0  0
   56.0980   29.7540   52.6560 C   0  0  0  0  0  0  0  0  0  0  0  0
   55.0880   28.9490   53.3760 C   0  0  0  0  0  0  0  0  0  0  0  0
   55.3812   28.4756   54.3247 H   0  0  0  0  0  0  0  0  0  0  0  0
   53.8350   28.7640   52.9370 C   0  0  0  0  0  0  0  0  0  0  0  0
   53.4492   27.7352   52.8855 H   0  0  0  0  0  0  0  0  0  0  0  0
   52.9380   29.8720   52.5160 C   0  0  0  0  0  0  0  0  0  0  0  0
   52.9930   30.4470   51.2270 C   0  0  0  0  0  0  0  0  0  0  0  0
   53.7124   30.0656   50.4874 H   0  0  0  0  0  0  0  0  0  0  0  0
   52.1360   31.5000   50.8870 C   0  0  0  0  0  0  0  0  0  0  0  0
   52.1754   31.9353   49.8776 H   0  0  0  0  0  0  0  0  0  0  0  0
   51.2300   32.0000   51.8270 C   0  0  0  0  0  0  0  0  0  0  0  0
   50.5550   32.8248   51.5549 H   0  0  0  0  0  0  0  0  0  0  0  0
   51.1810   31.4530   53.1120 C   0  0  0  0  0  0  0  0  0  0  0  0
   50.4735   31.8522   53.8537 H   0  0  0  0  0  0  0  0  0  0  0  0
   52.0320   30.3980   53.4540 C   0  0  0  0  0  0  0  0  0  0  0  0
   51.9925   29.9745   54.4684 H   0  0  0  0  0  0  0  0  0  0  0  0
   57.0790   29.0930   51.9920 N   0  0  0  0  0  0  0  0  0  0  0  0
   58.0750   29.7300   51.3180 C   0  0  0  0  0  0  0  0  0  0  0  0
   58.9860   29.0480   50.6800 N   0  0  0  0  0  0  0  0  0  0  0  0
   60.2640   29.5480   50.2520 C   0  0  0  0  0  0  0  0  0  0  0  0
   61.1580   29.8420   51.0890 O   0  0  0  0  0  0  0  0  0  0  0  0
   60.5450   29.7190   48.7910 C   0  0  0  0  0  0  0  0  0  0  0  0
   60.4502   30.7824   48.5262 H   0  0  0  0  0  0  0  0  0  0  0  0
   61.5653   29.3654   48.5812 H   0  0  0  0  0  0  0  0  0  0  0  0
   59.5710   28.9140   47.9680 C   0  0  0  0  0  0  0  0  0  0  0  0
   58.6700   29.5580   47.0990 C   0  0  0  0  0  0  0  0  0  0  0  0
   58.6645   30.6562   47.0361 H   0  0  0  0  0  0  0  0  0  0  0  0
   57.7830   28.8160   46.3160 C   0  0  0  0  0  0  0  0  0  0  0  0
   57.0992   29.3316   45.6257 H   0  0  0  0  0  0  0  0  0  0  0  0
   57.7600   27.4130   46.4060 C   0  0  0  0  0  0  0  0  0  0  0  0
   56.8530   26.6140   45.5480 C   0  0  0  0  0  0  0  0  0  0  0  0
   57.2480   26.2010   44.4250 O   0  0  0  0  0  0  0  0  0  0  0  0
   55.5230   26.3110   45.9910 N   0  0  0  0  0  0  0  0  0  0  0  0
   54.8020   25.1000   45.6210 C   0  0  0  0  0  0  0  0  0  0  0  0
   54.2797   24.7020   46.5035 H   0  0  0  0  0  0  0  0  0  0  0  0
   54.0714   25.3386   44.8340 H   0  0  0  0  0  0  0  0  0  0  0  0
   55.7670   24.0700   45.1060 C   0  0  0  0  0  0  0  0  0  0  0  0
   56.6730   23.4610   45.9900 C   0  0  0  0  0  0  0  0  0  0  0  0
   56.6899   23.7577   47.0491 H   0  0  0  0  0  0  0  0  0  0  0  0
   57.5530   22.4790   45.5270 C   0  0  0  0  0  0  0  0  0  0  0  0
   58.2635   22.0076   46.2220 H   0  0  0  0  0  0  0  0  0  0  0  0
   57.5330   22.0940   44.1830 C   0  0  0  0  0  0  0  0  0  0  0  0
   58.2344   21.3288   43.8189 H   0  0  0  0  0  0  0  0  0  0  0  0
   56.6200   22.6830   43.3020 C   0  0  0  0  0  0  0  0  0  0  0  0
   56.5983   22.3748   42.2463 H   0  0  0  0  0  0  0  0  0  0  0  0
   55.7340   23.6640   43.7620 C   0  0  0  0  0  0  0  0  0  0  0  0
   55.0102   24.1180   43.0692 H   0  0  0  0  0  0  0  0  0  0  0  0
   58.6320   26.7720   47.3080 C   0  0  0  0  0  0  0  0  0  0  0  0
   58.6090   25.6764   47.4031 H   0  0  0  0  0  0  0  0  0  0  0  0
   59.5260   27.5160   48.0830 C   0  0  0  0  0  0  0  0  0  0  0  0
   60.1979   27.0031   48.7869 H   0  0  0  0  0  0  0  0  0  0  0  0
  1  2  1  0
  2  3  1  0
  3  4  2  0
  4  5  1  0
  5  6  1  0
  6  7  1  0
  6  8  1  0
  6  9  1  0
  9 10  1  0
  9 11  1  0
  9 12  1  0
 12 13  1  0
 12 14  1  0
 12 15  1  0
 15 16  1  0
 16 17  2  0
 16 18  1  0
 18 19  1  0
 18 20  1  0
 18 21  1  0
 21 22  1  0
 21 23  1  0
 21 24  1  0
 24 25  2  0
 25 26  1  0
 25 27  1  0
 27 28  1  0
 27 29  2  0
 29 30  1  0
 29 31  1  0
 31 32  1  0
 31 33  2  0
 33 34  1  0
  4 35  1  0
 35 36  1  0
 35 37  2  0
 37 38  1  0
 38 39  1  0
 38 40  2  3
 40 41  1  0
 40 42  1  0
 42 43  2  0
 43 44  1  0
 43 45  1  0
 45 46  1  0
 45 47  2  0
 47 48  1  0
 47 49  1  0
 49 50  1  0
 49 51  2  0
 51 52  1  0
 37 53  1  0
 53 54  1  0
 54 55  2  0
 55 56  1  0
 56 57  2  0
 56 58  1  0
 58 59  1  0
 58 60  1  0
 58 61  1  0
 61 62  2  0
 62 63  1  0
 62 64  1  0
 64 65  1  0
 64 66  2  0
 66 67  1  0
 67 68  2  0
 67 69  1  0
 69 70  1  0
 70 71  1  0
 70 72  1  0
 70 73  1  0
 73 74  2  0
 74 75  1  0
 74 76  1  0
 76 77  1  0
 76 78  2  0
 78 79  1  0
 78 80  1  0
 80 81  1  0
 80 82  2  0
 82 83  1  0
 66 84  1  0
 84 85  1  0
 84 86  2  0
 86 87  1  0
 54  3  1  0
 86 61  1  0
 33 24  1  0
 51 42  1  0
 82 73  1  0
M  CHG  3  15  -1  53  -1  69  -1
M  END
>  <UniqueID>  (57) 
53

>  <SMILES>  (57) 
O=C(Cc1ccc(C(=O)[N-]Cc2ccccc2)cc1)/N=c1\[n-]c(C=Cc2ccccc2)cc(OCCC[N-]C(=O)CCc2ccccc2)c1O

>  <Energy>  (57) 
89.80613772679081

>  <Genealogy>  (57) 
O=C(Cc1ccc(C(=O)[N-]Cc2ccccc2)cc1)N=c1[n-]c(C=Cc2ccccc2)cc(OCCC[N-]C(=O)CCc2ccccc2)c1O (protonated)
O=C(Cc1ccc(C(=O)[N-]Cc2ccccc2)cc1)/N=c1\[n-]c(C=Cc2ccccc2)cc(OCCC[N-]C(=O)CCc2ccccc2)c1O (cis-trans isomerization)
O=C(Cc1ccc(C(=O)[N-]Cc2ccccc2)cc1)/N=c1\[n-]c(C=Cc2ccccc2)cc(OCCC[N-]C(=O)CCc2ccccc2)c1O (3D coordinates assigned)
O=C(Cc1ccc(C(=O)[N-]Cc2ccccc2)cc1)/N=c1\[n-]c(C=Cc2ccccc2)cc(OCCC[N-]C(=O)CCc2ccccc2)c1O (optimized conformer: 89.80613772679081 kcal/mol)

>  <smiles>  (57) 
O=C(Cc1ccc(C(=O)NCc2ccccc2)cc1)N=c1[nH]c(C=Cc2ccccc2)cc(OCCCNC(=O)CCc2ccccc2)c1O

>  <score_type>  (57) 
oracle

>  <origin>  (57) 
adg

>  <m_score__min__energy>  (57) 
-15.039999999999999

>  <m_primary>  (57) 
energy

$$$$
57:0
     RDKit          3D

 68 72  0  0  0  0  0  0  0  0999 V2000
   59.0590   27.5290   47.2260 C   0  0  0  0  0  0  0  0  0  0  0  0
   58.5360   28.2390   46.2130 C   0  0  0  0  0  0  0  0  0  0  0  0
   57.7510   27.7600   45.1480 C   0  0  0  0  0  0  0  0  0  0  0  0
   57.3800   26.5110   44.8020 C   0  0  0  0  0  0  0  0  0  0  0  0
   57.0670   25.4050   45.7280 C   0  0  0  0  0  0  0  0  0  0  0  0
   55.7970   25.2850   46.3170 C   0  0  0  0  0  0  0  0  0  0  0  0
   54.7850   26.1910   46.0060 O   0  0  0  0  0  0  0  0  0  0  0  0
   55.5550   24.2880   47.2080 N   0  0  0  0  0  0  0  0  0  0  0  0
   56.5300   23.4120   47.5590 C   0  0  0  0  0  0  0  0  0  0  0  0
   56.2110   22.2210   48.6290 S   0  0  0  0  0  0  0  0  0  0  0  0
   57.7760   23.5360   47.0380 N   0  0  0  0  0  0  0  0  0  0  0  0
   58.0680   24.5140   46.1410 C   0  0  0  0  0  0  0  0  0  0  0  0
   59.2390   24.6110   45.6900 O   0  0  0  0  0  0  0  0  0  0  0  0
   57.3790   28.8720   44.4120 C   0  0  0  0  0  0  0  0  0  0  0  0
   57.9530   29.9680   45.0190 C   0  0  0  0  0  0  0  0  0  0  0  0
   57.7920   31.3830   44.5480 C   0  0  0  0  0  0  0  0  0  0  0  0
   58.6620   29.5890   46.1050 N   0  0  0  0  0  0  0  0  0  0  0  0
   59.3580   30.4770   47.0000 C   0  0  0  0  0  0  0  0  0  0  0  0
   58.8590   30.7110   48.2900 C   0  0  0  0  0  0  0  0  0  0  0  0
   59.5270   31.5790   49.1580 C   0  0  0  0  0  0  0  0  0  0  0  0
   60.6870   32.2450   48.7350 C   0  0  0  0  0  0  0  0  0  0  0  0
   61.3660   33.1940   49.6360 C   0  0  0  0  0  0  0  0  0  0  0  0
   60.7690   34.2600   49.9560 O   0  0  0  0  0  0  0  0  0  0  0  0
   62.6810   32.9180   50.1600 N   0  0  0  0  0  0  0  0  0  0  0  0
   63.1440   33.6540   51.3460 C   0  0  0  0  0  0  0  0  0  0  0  0
   64.2090   32.8870   52.1680 C   0  0  0  0  0  0  0  0  0  0  0  0
   64.8460   31.6690   51.4440 C   0  0  0  0  0  0  0  0  0  0  0  0
   66.1600   31.2540   52.0240 N   0  0  0  0  0  0  0  0  0  0  0  0
   67.0800   30.6720   50.9970 C   0  0  0  0  0  0  0  0  0  0  0  0
   67.4390   29.1900   51.2220 C   0  0  0  0  0  0  0  0  0  0  0  0
   66.2020   28.4000   51.6480 C   0  0  0  0  0  0  0  0  0  0  0  0
   65.5690   28.9840   52.9240 C   0  0  0  0  0  0  0  0  0  0  0  0
   66.0760   30.4020   53.2390 C   0  0  0  0  0  0  0  0  0  0  0  0
   65.0090   32.0600   49.9610 C   0  0  0  0  0  0  0  0  0  0  0  0
   63.6320   32.1820   49.3100 C   0  0  0  0  0  0  0  0  0  0  0  0
   61.2010   31.9930   47.4550 C   0  0  0  0  0  0  0  0  0  0  0  0
   60.5470   31.1060   46.5970 C   0  0  0  0  0  0  0  0  0  0  0  0
   59.6585   28.0326   47.9987 H   0  0  0  0  0  0  0  0  0  0  0  0
   58.8879   26.4439   47.2830 H   0  0  0  0  0  0  0  0  0  0  0  0
   57.3031   26.2953   43.7261 H   0  0  0  0  0  0  0  0  0  0  0  0
   54.3160   26.7200   46.7340 H   0  0  0  0  0  0  0  0  0  0  0  0
   56.7453   28.8793   43.5129 H   0  0  0  0  0  0  0  0  0  0  0  0
   57.7158   32.0524   45.4175 H   0  0  0  0  0  0  0  0  0  0  0  0
   58.6634   31.6686   43.9405 H   0  0  0  0  0  0  0  0  0  0  0  0
   56.8787   31.4656   43.9405 H   0  0  0  0  0  0  0  0  0  0  0  0
   57.9376   30.2089   48.6199 H   0  0  0  0  0  0  0  0  0  0  0  0
   59.1421   31.7405   50.1758 H   0  0  0  0  0  0  0  0  0  0  0  0
   63.5792   34.6089   51.0161 H   0  0  0  0  0  0  0  0  0  0  0  0
   62.2713   33.7990   51.9997 H   0  0  0  0  0  0  0  0  0  0  0  0
   65.0144   33.5911   52.4242 H   0  0  0  0  0  0  0  0  0  0  0  0
   63.6860   32.4827   53.0472 H   0  0  0  0  0  0  0  0  0  0  0  0
   64.1868   30.7971   51.5674 H   0  0  0  0  0  0  0  0  0  0  0  0
   66.5965   30.7622   50.0131 H   0  0  0  0  0  0  0  0  0  0  0  0
   68.0223   31.2349   51.0685 H   0  0  0  0  0  0  0  0  0  0  0  0
   67.8347   28.7671   50.2868 H   0  0  0  0  0  0  0  0  0  0  0  0
   68.1959   29.1234   52.0174 H   0  0  0  0  0  0  0  0  0  0  0  0
   65.4612   28.4311   50.8355 H   0  0  0  0  0  0  0  0  0  0  0  0
   66.5101   27.3653   51.8590 H   0  0  0  0  0  0  0  0  0  0  0  0
   64.4777   29.0213   52.7909 H   0  0  0  0  0  0  0  0  0  0  0  0
   65.8526   28.3338   53.7648 H   0  0  0  0  0  0  0  0  0  0  0  0
   65.3863   30.8734   53.9546 H   0  0  0  0  0  0  0  0  0  0  0  0
   67.0893   30.3118   53.6574 H   0  0  0  0  0  0  0  0  0  0  0  0
   65.5336   33.0244   49.8920 H   0  0  0  0  0  0  0  0  0  0  0  0
   65.5924   31.2861   49.4406 H   0  0  0  0  0  0  0  0  0  0  0  0
   63.7379   32.7141   48.3531 H   0  0  0  0  0  0  0  0  0  0  0  0
   63.2368   31.1664   49.1602 H   0  0  0  0  0  0  0  0  0  0  0  0
   62.1223   32.4956   47.1255 H   0  0  0  0  0  0  0  0  0  0  0  0
   60.9653   30.8992   45.6009 H   0  0  0  0  0  0  0  0  0  0  0  0
  1  2  2  0
  2  3  1  0
  3  4  2  3
  4  5  1  0
  5  6  2  0
  6  7  1  0
  6  8  1  0
  8  9  1  0
  9 10  2  0
  9 11  1  0
 11 12  1  0
 12 13  2  0
  3 14  1  0
 14 15  2  0
 15 16  1  0
 15 17  1  0
 17 18  1  0
 18 19  2  0
 19 20  1  0
 20 21  2  0
 21 22  1  0
 22 23  2  0
 22 24  1  0
 24 25  1  0
 25 26  1  0
 26 27  1  0
 27 28  1  0
 28 29  1  0
 29 30  1  0
 30 31  1  0
 31 32  1  0
 32 33  1  0
 27 34  1  0
 34 35  1  0
 21 36  1  0
 36 37  2  0
 17  2  1  0
 37 18  1  0
 12  5  1  0
 35 24  1  0
 33 28  1  0
  1 38  1  0
  1 39  1  0
  4 40  1  0
  7 41  1  0
 14 42  1  0
 16 43  1  0
 16 44  1  0
 16 45  1  0
 19 46  1  0
 20 47  1  0
 25 48  1  0
 25 49  1  0
 26 50  1  0
 26 51  1  0
 27 52  1  0
 29 53  1  0
 29 54  1  0
 30 55  1  0
 30 56  1  0
 31 57  1  0
 31 58  1  0
 32 59  1  0
 32 60  1  0
 33 61  1  0
 33 62  1  0
 34 63  1  0
 34 64  1  0
 35 65  1  0
 35 66  1  0
 36 67  1  0
 37 68  1  0
M  CHG  2   8  -1  11  -1
M  END
>  <UniqueID>  (58) 
54

>  <SMILES>  (58) 
C=c1c(=Cc2c(O)[n-]c(=S)[n-]c2=O)cc(C)n1-c1ccc(C(=O)N2CCC(N3CCCCC3)CC2)cc1

>  <Energy>  (58) 
144.14650914817145

>  <Genealogy>  (58) 
C=c1c(=Cc2c(O)[n-]c(=S)[n-]c2=O)cc(C)n1-c1ccc(C(=O)N2CCC(N3CCCCC3)CC2)cc1 (protonated)
C=c1c(=Cc2c(O)[n-]c(=S)[n-]c2=O)cc(C)n1-c1ccc(C(=O)N2CCC(N3CCCCC3)CC2)cc1 (3D coordinates assigned)
C=c1c(=Cc2c(O)[n-]c(=S)[n-]c2=O)cc(C)n1-c1ccc(C(=O)N2CCC(N3CCCCC3)CC2)cc1 (nonaromatic ring conformer: 144.14650914817145 kcal/mol)

>  <smiles>  (58) 
C=c1c(=Cc2c(O)[nH]c(=S)[nH]c2=O)cc(C)n1-c1ccc(C(=O)N2CCC(N3CCCCC3)CC2)cc1

>  <score_type>  (58) 
oracle

>  <origin>  (58) 
adg

>  <m_score__min__energy>  (58) 
-14.550000000000001

>  <m_primary>  (58) 
energy

$$$$
58:0
     RDKit          3D

 52 54  0  0  0  0  0  0  0  0999 V2000
   59.8450   33.7470   50.5400 C   0  0  0  0  0  0  0  0  0  0  0  0
   59.7190   33.5230   49.0280 C   0  0  2  0  0  0  0  0  0  0  0  0
   58.6410   32.4750   48.6700 C   0  0  0  0  0  0  0  0  0  0  0  0
   59.1450   31.2460   47.4570 S   0  0  0  0  0  0  0  0  0  0  0  0
   60.6340   31.0720   47.5390 O   0  0  0  0  0  0  0  0  0  0  0  0
   58.5130   29.9310   47.8150 O   0  0  0  0  0  0  0  0  0  0  0  0
   58.7040   31.6860   45.7920 C   0  0  0  0  0  0  0  0  0  0  0  0
   58.8020   33.0350   45.4080 C   0  0  0  0  0  0  0  0  0  0  0  0
   58.5230   33.4270   44.0980 C   0  0  0  0  0  0  0  0  0  0  0  0
   58.1430   32.4800   43.1510 C   0  0  0  0  0  0  0  0  0  0  0  0
   58.0290   31.1380   43.5120 C   0  0  0  0  0  0  0  0  0  0  0  0
   58.2940   30.7260   44.8280 C   0  0  0  0  0  0  0  0  0  0  0  0
   58.1330   29.2940   45.1490 C   0  0  0  0  0  0  0  0  0  0  0  0
   59.2540   28.4550   45.1950 C   0  0  0  0  0  0  0  0  0  0  0  0
   59.1060   27.0960   45.4850 C   0  0  0  0  0  0  0  0  0  0  0  0
   57.8310   26.5500   45.7160 C   0  0  0  0  0  0  0  0  0  0  0  0
   57.6900   25.1080   46.0360 C   0  0  0  0  0  0  0  0  0  0  0  0
   57.8300   24.1250   45.0460 C   0  0  0  0  0  0  0  0  0  0  0  0
   57.6870   22.8130   45.3620 N   0  0  0  0  0  0  0  0  0  0  0  0
   57.4060   22.4250   46.6350 C   0  0  0  0  0  0  0  0  0  0  0  0
   57.2740   21.1710   46.9210 N   0  0  0  0  0  0  0  0  0  0  0  0
   57.2600   23.3580   47.6100 N   0  0  0  0  0  0  0  0  0  0  0  0
   57.3920   24.6820   47.3380 C   0  0  0  0  0  0  0  0  0  0  0  0
   56.7030   27.3880   45.6270 C   0  0  0  0  0  0  0  0  0  0  0  0
   55.4500   26.8860   45.7760 F   0  0  0  0  0  0  0  0  0  0  0  0
   56.8560   28.7470   45.3350 C   0  0  0  0  0  0  0  0  0  0  0  0
   61.0200   33.1750   48.4470 N   0  0  0  0  0  0  0  0  0  0  0  0
   61.5410   33.8290   47.2810 C   0  0  0  0  0  0  0  0  0  0  0  0
   60.8720   34.7230   46.6970 O   0  0  0  0  0  0  0  0  0  0  0  0
   62.8790   33.4290   46.7260 C   0  0  0  0  0  0  0  0  0  0  0  0
   63.4460   32.3130   47.4790 N   0  0  0  0  0  0  0  0  0  0  0  0
   59.3739   32.9094   51.0753 H   0  0  0  0  0  0  0  0  0  0  0  0
   60.9086   33.8058   50.8146 H   0  0  0  0  0  0  0  0  0  0  0  0
   59.3429   34.6864   50.8146 H   0  0  0  0  0  0  0  0  0  0  0  0
   59.3836   34.4728   48.5859 H   0  0  0  0  0  0  0  0  0  0  0  0
   58.3590   31.9472   49.5930 H   0  0  0  0  0  0  0  0  0  0  0  0
   57.8104   33.0334   48.2136 H   0  0  0  0  0  0  0  0  0  0  0  0
   59.1022   33.7905   46.1490 H   0  0  0  0  0  0  0  0  0  0  0  0
   58.6035   34.4864   43.8131 H   0  0  0  0  0  0  0  0  0  0  0  0
   57.9325   32.7907   42.1170 H   0  0  0  0  0  0  0  0  0  0  0  0
   57.7286   30.3949   42.7586 H   0  0  0  0  0  0  0  0  0  0  0  0
   60.2552   28.8678   45.0020 H   0  0  0  0  0  0  0  0  0  0  0  0
   59.9939   26.4484   45.5329 H   0  0  0  0  0  0  0  0  0  0  0  0
   58.0564   24.4181   44.0102 H   0  0  0  0  0  0  0  0  0  0  0  0
   57.0630   20.8520   47.8930 H   0  0  0  0  0  0  0  0  0  0  0  0
   57.2647   25.4223   48.1416 H   0  0  0  0  0  0  0  0  0  0  0  0
   55.9682   29.3910   45.2507 H   0  0  0  0  0  0  0  0  0  0  0  0
   61.6200   32.4610   48.9200 H   0  0  0  0  0  0  0  0  0  0  0  0
   62.7571   33.1286   45.6748 H   0  0  0  0  0  0  0  0  0  0  0  0
   63.5619   34.2877   46.8049 H   0  0  0  0  0  0  0  0  0  0  0  0
   62.7530   31.5290   47.4930 H   0  0  0  0  0  0  0  0  0  0  0  0
   64.3030   31.9720   46.9850 H   0  0  0  0  0  0  0  0  0  0  0  0
  1  2  1  0
  2  3  1  0
  3  4  1  0
  4  5  2  0
  4  6  2  0
  4  7  1  0
  7  8  2  0
  8  9  1  0
  9 10  2  0
 10 11  1  0
 11 12  2  0
 12 13  1  0
 13 14  2  0
 14 15  1  0
 15 16  2  0
 16 17  1  0
 17 18  1  0
 18 19  2  0
 19 20  1  0
 20 21  2  3
 20 22  1  0
 22 23  1  0
 16 24  1  0
 24 25  1  0
 24 26  2  0
  2 27  1  0
 27 28  1  0
 28 29  2  0
 28 30  1  0
 30 31  1  0
 12  7  1  0
 26 13  1  0
 23 17  2  0
  1 32  1  0
  1 33  1  0
  1 34  1  0
  2 35  1  6
  3 36  1  0
  3 37  1  0
  8 38  1  0
  9 39  1  0
 10 40  1  0
 11 41  1  0
 14 42  1  0
 15 43  1  0
 18 44  1  0
 21 45  1  0
 23 46  1  0
 26 47  1  0
 27 48  1  0
 30 49  1  0
 30 50  1  0
 31 51  1  0
 31 52  1  0
M  CHG  1  22  -1
M  END
>  <UniqueID>  (59) 
55

>  <SMILES>  (59) 
C[C@H](CS(=O)(=O)c1ccccc1-c1ccc(-c2cnc(=N)[n-]c2)c(F)c1)NC(=O)CN

>  <Energy>  (59) 
60.70438890487512

>  <Genealogy>  (59) 
CC(CS(=O)(=O)c1ccccc1-c1ccc(-c2cnc(=N)[n-]c2)c(F)c1)NC(=O)CN (protonated)
C[C@H](CS(=O)(=O)c1ccccc1-c1ccc(-c2cnc(=N)[n-]c2)c(F)c1)NC(=O)CN (chirality)
C[C@H](CS(=O)(=O)c1ccccc1-c1ccc(-c2cnc(=N)[n-]c2)c(F)c1)NC(=O)CN (3D coordinates assigned)
C[C@H](CS(=O)(=O)c1ccccc1-c1ccc(-c2cnc(=N)[n-]c2)c(F)c1)NC(=O)CN (optimized conformer: 60.70438890487512 kcal/mol)

>  <smiles>  (59) 
CC(CS(=O)(=O)c1ccccc1-c1ccc(-c2cnc(=N)[nH]c2)c(F)c1)NC(=O)CN

>  <score_type>  (59) 
oracle

>  <origin>  (59) 
adg

>  <m_score__min__energy>  (59) 
-11.31

>  <m_primary>  (59) 
energy

$$$$
59:0
     RDKit          3D

 61 65  0  0  0  0  0  0  0  0999 V2000
   56.6560   27.7150   44.8560 N   0  0  0  0  0  0  0  0  0  0  0  0
   58.0200   27.3830   45.1910 C   0  0  0  0  0  0  0  0  0  0  0  0
   58.3340   26.0560   45.5540 C   0  0  0  0  0  0  0  0  0  0  0  0
   57.3070   25.0550   45.6780 N   0  0  0  0  0  0  0  0  0  0  0  0
   56.3010   25.2120   46.7030 C   0  0  0  0  0  0  0  0  0  0  0  0
   56.0150   26.3670   47.1240 O   0  0  0  0  0  0  0  0  0  0  0  0
   55.5960   24.0230   47.2990 C   0  0  0  0  0  0  0  0  0  0  0  0
   54.3330   23.7710   46.6000 N   0  0  0  0  0  0  0  0  0  0  0  0
   53.6270   24.6590   45.8640 C   0  0  0  0  0  0  0  0  0  0  0  0
   54.0340   25.9660   45.6140 O   0  0  0  0  0  0  0  0  0  0  0  0
   52.4560   24.0810   45.4080 C   0  0  0  0  0  0  0  0  0  0  0  0
   52.4580   22.7790   45.8610 C   0  0  0  0  0  0  0  0  0  0  0  0
   53.6070   22.6300   46.6140 C   0  0  0  0  0  0  0  0  0  0  0  0
   53.9710   21.4780   47.3050 O   0  0  0  0  0  0  0  0  0  0  0  0
   51.3210   21.8210   45.6620 C   0  0  0  0  0  0  0  0  0  0  0  0
   50.4330   22.2860   44.4880 C   0  0  0  0  0  0  0  0  0  0  0  0
   50.1200   23.8010   44.5670 C   0  0  0  0  0  0  0  0  0  0  0  0
   51.3970   24.6620   44.5170 C   0  0  0  0  0  0  0  0  0  0  0  0
   57.2950   23.9410   44.7580 C   0  0  0  0  0  0  0  0  0  0  0  0
   58.1630   22.8460   44.9490 C   0  0  0  0  0  0  0  0  0  0  0  0
   58.1530   21.7710   44.0530 C   0  0  0  0  0  0  0  0  0  0  0  0
   57.2790   21.7750   42.9630 C   0  0  0  0  0  0  0  0  0  0  0  0
   56.4050   22.8510   42.7710 C   0  0  0  0  0  0  0  0  0  0  0  0
   56.4070   23.9260   43.6660 C   0  0  0  0  0  0  0  0  0  0  0  0
   59.6670   25.7230   45.8040 C   0  0  0  0  0  0  0  0  0  0  0  0
   59.9870   24.5460   46.1180 O   0  0  0  0  0  0  0  0  0  0  0  0
   60.6220   26.6750   45.7220 N   0  0  0  0  0  0  0  0  0  0  0  0
   60.3230   27.9590   45.4060 C   0  0  0  0  0  0  0  0  0  0  0  0
   61.2620   28.8000   45.3680 O   0  0  0  0  0  0  0  0  0  0  0  0
   59.0220   28.3330   45.1420 N   0  0  0  0  0  0  0  0  0  0  0  0
   58.7080   29.7540   44.8670 C   0  0  0  0  0  0  0  0  0  0  0  0
   58.7200   30.5650   46.1420 C   0  0  0  0  0  0  0  0  0  0  0  0
   58.9130   29.9380   47.3880 C   0  0  0  0  0  0  0  0  0  0  0  0
   58.9350   30.7030   48.5630 C   0  0  0  0  0  0  0  0  0  0  0  0
   58.7530   32.0920   48.5040 C   0  0  0  0  0  0  0  0  0  0  0  0
   58.5460   32.7220   47.2710 C   0  0  0  0  0  0  0  0  0  0  0  0
   58.5210   31.9610   46.0940 C   0  0  0  0  0  0  0  0  0  0  0  0
   55.8670   27.0760   45.0970 H   0  0  0  0  0  0  0  0  0  0  0  0
   56.4020   28.5330   44.2590 H   0  0  0  0  0  0  0  0  0  0  0  0
   56.2420   23.1371   47.2098 H   0  0  0  0  0  0  0  0  0  0  0  0
   55.3811   24.2310   48.3576 H   0  0  0  0  0  0  0  0  0  0  0  0
   51.7225   20.8212   45.4403 H   0  0  0  0  0  0  0  0  0  0  0  0
   50.7151   21.7868   46.5794 H   0  0  0  0  0  0  0  0  0  0  0  0
   50.9561   22.0795   43.5426 H   0  0  0  0  0  0  0  0  0  0  0  0
   49.4811   21.7374   44.5418 H   0  0  0  0  0  0  0  0  0  0  0  0
   49.4750   24.0743   43.7189 H   0  0  0  0  0  0  0  0  0  0  0  0
   49.6203   23.9932   45.5279 H   0  0  0  0  0  0  0  0  0  0  0  0
   51.7714   24.6950   43.4832 H   0  0  0  0  0  0  0  0  0  0  0  0
   51.1562   25.6774   44.8649 H   0  0  0  0  0  0  0  0  0  0  0  0
   58.8515   22.8368   45.8068 H   0  0  0  0  0  0  0  0  0  0  0  0
   58.8345   20.9214   44.2072 H   0  0  0  0  0  0  0  0  0  0  0  0
   57.2779   20.9325   42.2558 H   0  0  0  0  0  0  0  0  0  0  0  0
   55.7149   22.8514   41.9144 H   0  0  0  0  0  0  0  0  0  0  0  0
   55.7108   24.7643   43.5156 H   0  0  0  0  0  0  0  0  0  0  0  0
   59.4589   30.1612   44.1740 H   0  0  0  0  0  0  0  0  0  0  0  0
   57.7035   29.8125   44.4225 H   0  0  0  0  0  0  0  0  0  0  0  0
   59.0466   28.8474   47.4396 H   0  0  0  0  0  0  0  0  0  0  0  0
   59.0956   30.2118   49.5341 H   0  0  0  0  0  0  0  0  0  0  0  0
   58.7729   32.6879   49.4284 H   0  0  0  0  0  0  0  0  0  0  0  0
   58.4033   33.8118   47.2259 H   0  0  0  0  0  0  0  0  0  0  0  0
   58.3452   32.4552   45.1271 H   0  0  0  0  0  0  0  0  0  0  0  0
  1  2  1  0
  2  3  2  0
  3  4  1  0
  4  5  1  0
  5  6  2  0
  5  7  1  0
  7  8  1  0
  8  9  1  0
  9 10  1  0
  9 11  2  0
 11 12  1  0
 12 13  2  0
 13 14  1  0
 12 15  1  0
 15 16  1  0
 16 17  1  0
 17 18  1  0
  4 19  1  0
 19 20  2  0
 20 21  1  0
 21 22  2  0
 22 23  1  0
 23 24  2  0
  3 25  1  0
 25 26  2  0
 25 27  1  0
 27 28  1  0
 28 29  2  0
 28 30  1  0
 30 31  1  0
 31 32  1  0
 32 33  2  0
 33 34  1  0
 34 35  2  0
 35 36  1  0
 36 37  2  0
 30  2  1  0
 37 32  1  0
 13  8  1  0
 24 19  1  0
 18 11  1  0
  1 38  1  0
  1 39  1  0
  7 40  1  0
  7 41  1  0
 15 42  1  0
 15 43  1  0
 16 44  1  0
 16 45  1  0
 17 46  1  0
 17 47  1  0
 18 48  1  0
 18 49  1  0
 20 50  1  0
 21 51  1  0
 22 52  1  0
 23 53  1  0
 24 54  1  0
 31 55  1  0
 31 56  1  0
 33 57  1  0
 34 58  1  0
 35 59  1  0
 36 60  1  0
 37 61  1  0
M  CHG  3  10  -1  14  -1  27  -1
M  END
>  <UniqueID>  (60) 
56

>  <SMILES>  (60) 
Nc1c(N(C(=O)Cn2c([O-])c3c(c2[O-])CCCC3)c2ccccc2)c(=O)[n-]c(=O)n1Cc1ccccc1

>  <Energy>  (60) 
113.91558455038893

>  <Genealogy>  (60) 
Nc1c(N(C(=O)Cn2c([O-])c3c(c2[O-])CCCC3)c2ccccc2)c(=O)[n-]c(=O)n1Cc1ccccc1 (protonated)
Nc1c(N(C(=O)Cn2c([O-])c3c(c2[O-])CCCC3)c2ccccc2)c(=O)[n-]c(=O)n1Cc1ccccc1 (3D coordinates assigned)
Nc1c(N(C(=O)Cn2c([O-])c3c(c2[O-])CCCC3)c2ccccc2)c(=O)[n-]c(=O)n1Cc1ccccc1 (nonaromatic ring conformer: 113.91558455038893 kcal/mol)

>  <smiles>  (60) 
Nc1c(N(C(=O)Cn2c(O)c3c(c2O)CCCC3)c2ccccc2)c(=O)[nH]c(=O)n1Cc1ccccc1

>  <score_type>  (60) 
oracle

>  <origin>  (60) 
adg

>  <m_score__min__energy>  (60) 
-14.35

>  <m_primary>  (60) 
energy

$$$$
60:0
     RDKit          3D

 47 50  0  0  1  0  0  0  0  0999 V2000
   57.4490   29.3820   43.8970 C   0  0  0  0  0  0  0  0  0  0  0  0
   57.8220   29.1090   45.1300 C   0  0  0  0  0  0  0  0  0  0  0  0
   62.0070   33.5850   47.3550 C   0  0  0  0  0  0  0  0  0  0  0  0
   57.7270   26.7030   45.0410 C   0  0  0  0  0  0  0  0  0  0  0  0
   57.2290   25.5030   45.7070 C   0  0  0  0  0  0  0  0  0  0  0  0
   57.8820   24.3680   46.0350 N   0  0  0  0  0  0  0  0  0  0  0  0
   56.9740   23.5660   46.6450 C   0  0  0  0  0  0  0  0  0  0  0  0
   57.2990   22.4180   47.0730 O   0  0  0  0  0  0  0  0  0  0  0  0
   55.7800   24.1920   46.6930 N   0  0  0  0  0  0  0  0  0  0  0  0
   55.8910   25.4060   46.1180 C   0  0  0  0  0  0  0  0  0  0  0  0
   54.9050   26.3790   45.9540 O   0  0  0  0  0  0  0  0  0  0  0  0
   62.1540   32.2780   47.8400 C   0  0  0  0  0  0  0  0  0  0  0  0
   58.5290   29.3210   47.1820 C   0  0  0  0  0  0  0  0  0  0  0  0
   58.9840   29.8970   48.4650 C   0  0  0  0  0  0  0  0  0  0  0  0
   58.1700   30.0210   46.0820 N   0  0  0  0  0  0  0  0  0  0  0  0
   58.1540   31.4070   45.8720 C   0  0  0  0  0  0  0  0  0  0  0  0
   57.0850   31.9540   45.1680 C   0  0  0  0  0  0  0  0  0  0  0  0
   56.9840   33.3050   44.9090 C   0  0  0  0  0  0  0  0  0  0  0  0
   57.9550   34.1820   45.3450 C   0  0  0  0  0  0  0  0  0  0  0  0
   59.0330   33.6600   46.0490 C   0  0  0  0  0  0  0  0  0  0  0  0
   60.0430   34.5980   46.4860 C   0  0  0  0  0  0  0  0  0  0  0  0
   60.0930   35.7110   45.8980 O   0  0  0  0  0  0  0  0  0  0  0  0
   60.9810   34.3680   47.5190 N   0  0  0  0  0  0  0  0  0  0  0  0
   57.9730   27.8430   45.6630 C   0  0  0  0  0  0  0  0  0  0  0  0
   58.4180   27.9670   46.9560 C   0  0  0  0  0  0  0  0  0  0  0  0
   63.3960   31.7880   47.4540 C   0  0  0  0  0  0  0  0  0  0  0  0
   63.9610   32.7840   46.7620 N   0  0  0  0  0  0  0  0  0  0  0  0
   63.1560   33.8270   46.7040 N   0  0  0  0  0  0  0  0  0  0  0  0
   59.1300   32.2860   46.3110 C   0  0  0  0  0  0  0  0  0  0  0  0
   57.3583   30.4279   43.5686 H   0  0  0  0  0  0  0  0  0  0  0  0
   57.2281   28.5641   43.1954 H   0  0  0  0  0  0  0  0  0  0  0  0
   57.9083   26.6555   43.9571 H   0  0  0  0  0  0  0  0  0  0  0  0
   58.8880   24.1590   45.8490 H   0  0  0  0  0  0  0  0  0  0  0  0
   54.9130   23.7840   47.1150 H   0  0  0  0  0  0  0  0  0  0  0  0
   54.3980   26.7310   46.7800 H   0  0  0  0  0  0  0  0  0  0  0  0
   61.4065   31.7285   48.4311 H   0  0  0  0  0  0  0  0  0  0  0  0
   58.5389   29.3335   49.2983 H   0  0  0  0  0  0  0  0  0  0  0  0
   60.0806   29.8363   48.5258 H   0  0  0  0  0  0  0  0  0  0  0  0
   58.6711   30.9498   48.5258 H   0  0  0  0  0  0  0  0  0  0  0  0
   56.2916   31.2842   44.8049 H   0  0  0  0  0  0  0  0  0  0  0  0
   56.1186   33.6875   44.3480 H   0  0  0  0  0  0  0  0  0  0  0  0
   57.8784   35.2604   45.1418 H   0  0  0  0  0  0  0  0  0  0  0  0
   58.6396   27.1545   47.6636 H   0  0  0  0  0  0  0  0  0  0  0  0
   63.8218   30.7971   47.6703 H   0  0  0  0  0  0  0  0  0  0  0  0
   64.9190   32.7200   46.3320 H   0  0  0  0  0  0  0  0  0  0  0  0
   63.4060   34.7120   46.2080 H   0  0  0  0  0  0  0  0  0  0  0  0
   59.9935   31.9008   46.8732 H   0  0  0  0  0  0  0  0  0  0  0  0
  1  2  2  0
  2  3  1  0
  3  4  2  0
  4  5  1  0
  5  6  1  0
  6  7  1  0
  7  8  2  0
  7  9  1  0
  9 10  1  0
 10 11  1  0
  3 12  1  0
 12 13  2  0
 13 14  1  0
 13 15  1  0
 15 16  1  0
 16 17  2  0
 17 18  1  0
 18 19  2  0
 19 20  1  0
 20 21  1  0
 21 22  2  0
 21 23  1  0
 23 24  2  0
 24 25  1  0
 25 26  2  0
 26 27  1  0
 27 28  1  0
 20 29  2  0
 15  2  1  0
 29 16  1  0
 10  5  2  0
 28 24  1  0
  1 30  1  0
  1 31  1  0
  4 32  1  0
  6 33  1  0
  9 34  1  0
 11 35  1  0
 12 36  1  0
 14 37  1  0
 14 38  1  0
 14 39  1  0
 17 40  1  0
 18 41  1  0
 19 42  1  0
 25 43  1  0
 26 44  1  0
 27 45  1  0
 28 46  1  0
 29 47  1  0
M  END
>  <smiles>  (61) 
C=c1c(=Cc2[nH]c(=O)[nH]c2O)cc(C)n1-c1cccc(C(=O)N=c2cc[nH][nH]2)c1

>  <score_type>  (61) 
oracle

>  <origin>  (61) 
adg

>  <m_score__min__energy>  (61) 
-10.18

>  <m_primary>  (61) 
energy

$$$$
61:0
     RDKit          3D

 42 44  0  0  0  0  0  0  0  0999 V2000
   56.6270   29.6710   43.0130 C   0  0  0  0  0  0  0  0  0  0  0  0
   55.9790   30.1070   44.2840 C   0  0  0  0  0  0  0  0  0  0  0  0
   55.1630   29.3430   44.8650 O   0  0  0  0  0  0  0  0  0  0  0  0
   56.3340   31.3670   44.8630 N   0  0  0  0  0  0  0  0  0  0  0  0
   57.3880   32.2270   44.3400 C   0  0  0  0  0  0  0  0  0  0  0  0
   58.1860   32.8230   45.4680 C   0  0  0  0  0  0  0  0  0  0  0  0
   57.7690   32.6640   46.7990 C   0  0  0  0  0  0  0  0  0  0  0  0
   58.5060   33.2330   47.8410 C   0  0  0  0  0  0  0  0  0  0  0  0
   59.6760   33.9610   47.5680 C   0  0  0  0  0  0  0  0  0  0  0  0
   60.5020   34.5290   48.6930 C   0  0  0  0  0  0  0  0  0  0  0  0
   61.6750   33.6950   48.9590 N   0  0  0  0  0  0  0  0  0  0  0  0
   61.6460   32.3410   49.4330 C   0  0  0  0  0  0  0  0  0  0  0  0
   62.3990   32.0120   50.3870 O   0  0  0  0  0  0  0  0  0  0  0  0
   60.8040   31.3120   48.7970 C   0  0  0  0  0  0  0  0  0  0  0  0
   59.8010   30.6880   49.5510 C   0  0  0  0  0  0  0  0  0  0  0  0
   59.0560   29.6890   49.0090 N   0  0  0  0  0  0  0  0  0  0  0  0
   59.2400   29.2690   47.7310 C   0  0  0  0  0  0  0  0  0  0  0  0
   58.4570   28.2270   47.2210 C   0  0  0  0  0  0  0  0  0  0  0  0
   58.6400   27.7890   45.9060 C   0  0  0  0  0  0  0  0  0  0  0  0
   57.8800   26.7800   45.4160 F   0  0  0  0  0  0  0  0  0  0  0  0
   59.6070   28.3910   45.0950 C   0  0  0  0  0  0  0  0  0  0  0  0
   60.3960   29.4330   45.5940 C   0  0  0  0  0  0  0  0  0  0  0  0
   60.2230   29.8810   46.9170 C   0  0  0  0  0  0  0  0  0  0  0  0
   61.0020   30.9200   47.4610 C   0  0  0  0  0  0  0  0  0  0  0  0
   61.8710   31.5040   46.7550 O   0  0  0  0  0  0  0  0  0  0  0  0
   60.0810   34.1360   46.2350 C   0  0  0  0  0  0  0  0  0  0  0  0
   59.3400   33.5720   45.1930 C   0  0  0  0  0  0  0  0  0  0  0  0
   57.5194   29.0706   43.2436 H   0  0  0  0  0  0  0  0  0  0  0  0
   55.9183   29.0653   42.4291 H   0  0  0  0  0  0  0  0  0  0  0  0
   56.9211   30.5556   42.4291 H   0  0  0  0  0  0  0  0  0  0  0  0
   58.0553   31.6332   43.6980 H   0  0  0  0  0  0  0  0  0  0  0  0
   56.9295   33.0403   43.7583 H   0  0  0  0  0  0  0  0  0  0  0  0
   56.8583   32.0891   47.0226 H   0  0  0  0  0  0  0  0  0  0  0  0
   58.1682   33.1102   48.8806 H   0  0  0  0  0  0  0  0  0  0  0  0
   60.8354   35.5407   48.4186 H   0  0  0  0  0  0  0  0  0  0  0  0
   59.8818   34.5591   49.6010 H   0  0  0  0  0  0  0  0  0  0  0  0
   59.6158   31.0085   50.5869 H   0  0  0  0  0  0  0  0  0  0  0  0
   57.6955   27.7514   47.8566 H   0  0  0  0  0  0  0  0  0  0  0  0
   59.7479   28.0440   44.0607 H   0  0  0  0  0  0  0  0  0  0  0  0
   61.1539   29.9036   44.9504 H   0  0  0  0  0  0  0  0  0  0  0  0
   60.9857   34.7197   46.0099 H   0  0  0  0  0  0  0  0  0  0  0  0
   59.6633   33.7161   44.1515 H   0  0  0  0  0  0  0  0  0  0  0  0
  1  2  1  0
  2  3  2  0
  2  4  1  0
  4  5  1  0
  5  6  1  0
  6  7  2  0
  7  8  1  0
  8  9  2  0
  9 10  1  0
 10 11  1  0
 11 12  1  0
 12 13  2  0
 12 14  1  0
 14 15  2  0
 15 16  1  0
 16 17  1  0
 17 18  2  0
 18 19  1  0
 19 20  1  0
 19 21  2  0
 21 22  1  0
 22 23  2  0
 23 24  1  0
 24 25  2  0
  9 26  1  0
 26 27  2  0
 27  6  1  0
 24 14  1  0
 23 17  1  0
  1 28  1  0
  1 29  1  0
  1 30  1  0
  5 31  1  0
  5 32  1  0
  7 33  1  0
  8 34  1  0
 10 35  1  0
 10 36  1  0
 15 37  1  0
 18 38  1  0
 21 39  1  0
 22 40  1  0
 26 41  1  0
 27 42  1  0
M  CHG  3   4  -1  11  -1  16  -1
M  END
>  <UniqueID>  (62) 
57

>  <SMILES>  (62) 
CC(=O)[N-]Cc1ccc(C[N-]C(=O)c2c[n-]c3cc(F)ccc3c2=O)cc1

>  <Energy>  (62) 
48.043753498170744

>  <Genealogy>  (62) 
CC(=O)[N-]Cc1ccc(C[N-]C(=O)c2c[n-]c3cc(F)ccc3c2=O)cc1 (protonated)
CC(=O)[N-]Cc1ccc(C[N-]C(=O)c2c[n-]c3cc(F)ccc3c2=O)cc1 (3D coordinates assigned)
CC(=O)[N-]Cc1ccc(C[N-]C(=O)c2c[n-]c3cc(F)ccc3c2=O)cc1 (optimized conformer: 48.043753498170744 kcal/mol)

>  <smiles>  (62) 
CC(=O)NCc1ccc(CNC(=O)c2c[nH]c3cc(F)ccc3c2=O)cc1

>  <score_type>  (62) 
oracle

>  <origin>  (62) 
adg

>  <m_score__min__energy>  (62) 
-12.140000000000001

>  <m_primary>  (62) 
energy

$$$$
62:0
     RDKit          3D

 48 49  0  0  0  0  0  0  0  0999 V2000
   57.7870   27.4150   43.0050 C   0  0  0  0  0  0  0  0  0  0  0  0
   57.7090   28.6910   43.8080 C   0  0  0  0  0  0  0  0  0  0  0  0
   56.5680   29.4940   43.6780 C   0  0  0  0  0  0  0  0  0  0  0  0
   56.4680   30.6470   44.3780 N   0  0  0  0  0  0  0  0  0  0  0  0
   57.4530   31.0550   45.2190 C   0  0  0  0  0  0  0  0  0  0  0  0
   57.3390   32.1660   45.8880 N   0  0  0  0  0  0  0  0  0  0  0  0
   57.2520   33.5000   45.2930 C   0  0  0  0  0  0  0  0  0  0  0  0
   58.6510   34.0480   44.9940 C   0  0  0  0  0  0  0  0  0  0  0  0
   59.4960   34.0480   46.2390 C   0  0  0  0  0  0  0  0  0  0  0  0
   58.9170   34.3310   47.4880 C   0  0  0  0  0  0  0  0  0  0  0  0
   59.7090   34.3610   48.6400 C   0  0  0  0  0  0  0  0  0  0  0  0
   61.0840   34.1220   48.5520 C   0  0  0  0  0  0  0  0  0  0  0  0
   61.6680   33.8510   47.3110 C   0  0  0  0  0  0  0  0  0  0  0  0
   60.8800   33.8160   46.1570 C   0  0  0  0  0  0  0  0  0  0  0  0
   58.6060   30.2670   45.3550 C   0  0  0  0  0  0  0  0  0  0  0  0
   59.5180   30.6390   46.1460 O   0  0  0  0  0  0  0  0  0  0  0  0
   58.7350   29.1010   44.6350 N   0  0  0  0  0  0  0  0  0  0  0  0
   59.9550   28.2800   44.7930 C   0  0  0  0  0  0  0  0  0  0  0  0
   59.8470   27.3860   45.9950 C   0  0  0  0  0  0  0  0  0  0  0  0
   60.8650   27.1750   46.7110 O   0  0  0  0  0  0  0  0  0  0  0  0
   58.6070   26.7370   46.2970 N   0  0  0  0  0  0  0  0  0  0  0  0
   58.4510   25.9050   47.4910 C   0  0  0  0  0  0  0  0  0  0  0  0
   57.1890   25.0370   47.4150 C   0  0  0  0  0  0  0  0  0  0  0  0
   56.2270   25.3900   45.9460 S   0  0  0  0  0  0  0  0  0  0  0  0
   55.7250   27.0430   45.9790 N   0  0  0  0  0  0  0  0  0  0  0  0
   55.0100   24.5080   45.9130 O   0  0  0  0  0  0  0  0  0  0  0  0
   57.0500   25.1480   44.7120 O   0  0  0  0  0  0  0  0  0  0  0  0
   57.8396   26.5545   43.6882 H   0  0  0  0  0  0  0  0  0  0  0  0
   56.8926   27.3256   42.3709 H   0  0  0  0  0  0  0  0  0  0  0  0
   58.6856   27.4352   42.3709 H   0  0  0  0  0  0  0  0  0  0  0  0
   55.7531   29.1864   43.0062 H   0  0  0  0  0  0  0  0  0  0  0  0
   56.6786   33.4415   44.3561 H   0  0  0  0  0  0  0  0  0  0  0  0
   56.7510   34.1738   46.0036 H   0  0  0  0  0  0  0  0  0  0  0  0
   59.1310   33.4174   44.2311 H   0  0  0  0  0  0  0  0  0  0  0  0
   58.5569   35.0813   44.6288 H   0  0  0  0  0  0  0  0  0  0  0  0
   57.8374   34.5295   47.5595 H   0  0  0  0  0  0  0  0  0  0  0  0
   59.2498   34.5729   49.6168 H   0  0  0  0  0  0  0  0  0  0  0  0
   61.7059   34.1472   49.4589 H   0  0  0  0  0  0  0  0  0  0  0  0
   62.7500   33.6649   47.2426 H   0  0  0  0  0  0  0  0  0  0  0  0
   61.3442   33.6063   45.1820 H   0  0  0  0  0  0  0  0  0  0  0  0
   60.0911   27.6604   43.8943 H   0  0  0  0  0  0  0  0  0  0  0  0
   60.8153   28.9515   44.9304 H   0  0  0  0  0  0  0  0  0  0  0  0
   57.7920   26.8930   45.6600 H   0  0  0  0  0  0  0  0  0  0  0  0
   59.3294   25.2498   47.5865 H   0  0  0  0  0  0  0  0  0  0  0  0
   58.3589   26.5693   48.3629 H   0  0  0  0  0  0  0  0  0  0  0  0
   57.4856   23.9778   47.4005 H   0  0  0  0  0  0  0  0  0  0  0  0
   56.5663   25.2610   48.2937 H   0  0  0  0  0  0  0  0  0  0  0  0
   54.7770   27.0680   46.4170 H   0  0  0  0  0  0  0  0  0  0  0  0
  1  2  1  0
  2  3  2  0
  3  4  1  0
  4  5  1  0
  5  6  2  3
  6  7  1  0
  7  8  1  0
  8  9  1  0
  9 10  2  0
 10 11  1  0
 11 12  2  0
 12 13  1  0
 13 14  2  0
  5 15  1  0
 15 16  2  0
 15 17  1  0
 17 18  1  0
 18 19  1  0
 19 20  2  0
 19 21  1  0
 21 22  1  0
 22 23  1  0
 23 24  1  0
 24 25  1  0
 24 26  2  0
 24 27  2  0
 17  2  1  0
 14  9  1  0
  1 28  1  0
  1 29  1  0
  1 30  1  0
  3 31  1  0
  7 32  1  0
  7 33  1  0
  8 34  1  0
  8 35  1  0
 10 36  1  0
 11 37  1  0
 12 38  1  0
 13 39  1  0
 14 40  1  0
 18 41  1  0
 18 42  1  0
 21 43  1  0
 22 44  1  0
 22 45  1  0
 23 46  1  0
 23 47  1  0
 25 48  1  0
M  CHG  2   4  -1  25  -1
M  END
>  <UniqueID>  (63) 
58

>  <SMILES>  (63) 
Cc1c[n-]c(=NCCc2ccccc2)c(=O)n1CC(=O)NCCS([NH-])(=O)=O

>  <Energy>  (63) 
41.85261123269216

>  <Genealogy>  (63) 
Cc1c[n-]c(=NCCc2ccccc2)c(=O)n1CC(=O)NCCS([NH-])(=O)=O (protonated)
Cc1c[n-]c(=NCCc2ccccc2)c(=O)n1CC(=O)NCCS([NH-])(=O)=O (3D coordinates assigned)
Cc1c[n-]c(=NCCc2ccccc2)c(=O)n1CC(=O)NCCS([NH-])(=O)=O (optimized conformer: 41.85261123269216 kcal/mol)

>  <smiles>  (63) 
Cc1c[nH]c(=NCCc2ccccc2)c(=O)n1CC(=O)NCCS(N)(=O)=O

>  <score_type>  (63) 
oracle

>  <origin>  (63) 
adg

>  <m_score__min__energy>  (63) 
-12.33

>  <m_primary>  (63) 
energy

$$$$
63:0
     RDKit          3D

 56 59  0  0  0  0  0  0  0  0999 V2000
   56.6430   22.2480   42.9700 C   0  0  0  0  0  0  0  0  0  0  0  0
   56.3940   23.7100   43.3320 C   0  0  0  0  0  0  0  0  0  0  0  0
   57.4600   24.2680   44.2850 C   0  0  0  0  0  0  0  0  0  0  0  0
   57.2170   25.6910   44.5970 N   0  0  0  0  0  0  0  0  0  0  0  0
   56.4190   26.0510   45.6740 C   0  0  0  0  0  0  0  0  0  0  0  0
   55.9040   25.1710   46.4160 O   0  0  0  0  0  0  0  0  0  0  0  0
   56.1720   27.3670   45.9510 N   0  0  0  0  0  0  0  0  0  0  0  0
   56.7240   28.3100   45.1560 C   0  0  0  0  0  0  0  0  0  0  0  0
   56.5890   29.6370   45.2760 N   0  0  0  0  0  0  0  0  0  0  0  0
   57.3450   30.0870   44.2390 C   0  0  0  0  0  0  0  0  0  0  0  0
   57.4870   31.5400   43.9160 C   0  0  0  0  0  0  0  0  0  0  0  0
   58.0460   32.2790   45.1000 C   0  0  0  0  0  0  0  0  0  0  0  0
   57.3530   33.3730   45.6420 C   0  0  0  0  0  0  0  0  0  0  0  0
   57.8610   34.0460   46.7550 C   0  0  0  0  0  0  0  0  0  0  0  0
   59.0730   33.6450   47.3340 C   0  0  0  0  0  0  0  0  0  0  0  0
   59.5920   34.3360   48.4740 N   0  0  0  0  0  0  0  0  0  0  0  0
   59.9960   33.5400   49.9590 S   0  0  0  0  0  0  0  0  0  0  0  0
   59.2660   34.2160   51.0860 O   0  0  0  0  0  0  0  0  0  0  0  0
   59.5500   32.1080   49.8910 O   0  0  0  0  0  0  0  0  0  0  0  0
   61.7280   33.6010   50.2790 C   0  0  0  0  0  0  0  0  0  0  0  0
   62.6390   33.5670   49.2140 C   0  0  0  0  0  0  0  0  0  0  0  0
   64.0120   33.6580   49.4580 C   0  0  0  0  0  0  0  0  0  0  0  0
   64.4920   33.7730   50.7760 C   0  0  0  0  0  0  0  0  0  0  0  0
   65.8570   33.8850   51.0750 O   0  0  0  0  0  0  0  0  0  0  0  0
   66.8740   33.0750   50.5530 C   0  0  0  0  0  0  0  0  0  0  0  0
   66.6640   31.6010   50.4830 C   0  0  0  0  0  0  0  0  0  0  0  0
   67.9200   33.5780   50.0610 O   0  0  0  0  0  0  0  0  0  0  0  0
   63.5750   33.8240   51.8340 C   0  0  0  0  0  0  0  0  0  0  0  0
   62.2020   33.7380   51.5890 C   0  0  0  0  0  0  0  0  0  0  0  0
   59.7490   32.5220   46.8220 C   0  0  0  0  0  0  0  0  0  0  0  0
   60.9370   32.0660   47.3940 O   0  0  0  0  0  0  0  0  0  0  0  0
   59.2340   31.8480   45.7090 C   0  0  0  0  0  0  0  0  0  0  0  0
   57.9210   29.1100   43.4860 N   0  0  0  0  0  0  0  0  0  0  0  0
   57.5060   27.9970   44.1060 C   0  0  0  0  0  0  0  0  0  0  0  0
   57.7700   26.6710   43.8000 C   0  0  0  0  0  0  0  0  0  0  0  0
   58.5000   26.3820   42.8110 O   0  0  0  0  0  0  0  0  0  0  0  0
   56.7441   21.6544   43.8906 H   0  0  0  0  0  0  0  0  0  0  0  0
   55.7968   21.8673   42.3793 H   0  0  0  0  0  0  0  0  0  0  0  0
   57.5676   22.1689   42.3793 H   0  0  0  0  0  0  0  0  0  0  0  0
   56.3982   24.3079   42.4087 H   0  0  0  0  0  0  0  0  0  0  0  0
   55.4229   23.7670   43.8456 H   0  0  0  0  0  0  0  0  0  0  0  0
   57.4415   23.6890   45.2201 H   0  0  0  0  0  0  0  0  0  0  0  0
   58.4400   24.1857   43.7922 H   0  0  0  0  0  0  0  0  0  0  0  0
   58.1668   31.6577   43.0593 H   0  0  0  0  0  0  0  0  0  0  0  0
   56.4980   31.9525   43.6677 H   0  0  0  0  0  0  0  0  0  0  0  0
   56.4063   33.7013   45.1882 H   0  0  0  0  0  0  0  0  0  0  0  0
   57.3068   34.8959   47.1800 H   0  0  0  0  0  0  0  0  0  0  0  0
   62.2715   33.4683   48.1819 H   0  0  0  0  0  0  0  0  0  0  0  0
   64.7203   33.6397   48.6166 H   0  0  0  0  0  0  0  0  0  0  0  0
   66.6055   31.1902   51.5017 H   0  0  0  0  0  0  0  0  0  0  0  0
   65.7266   31.3892   49.9478 H   0  0  0  0  0  0  0  0  0  0  0  0
   67.5049   31.1358   49.9478 H   0  0  0  0  0  0  0  0  0  0  0  0
   63.9390   33.9327   52.8663 H   0  0  0  0  0  0  0  0  0  0  0  0
   61.4916   33.7781   52.4279 H   0  0  0  0  0  0  0  0  0  0  0  0
   61.0820   32.0440   48.3970 H   0  0  0  0  0  0  0  0  0  0  0  0
   59.7655   30.9724   45.3080 H   0  0  0  0  0  0  0  0  0  0  0  0
  1  2  1  0
  2  3  1  0
  3  4  1  0
  4  5  1  0
  5  6  2  0
  5  7  1  0
  7  8  1  0
  8  9  1  0
  9 10  1  0
 10 11  1  0
 11 12  1  0
 12 13  2  0
 13 14  1  0
 14 15  2  0
 15 16  1  0
 16 17  1  0
 17 18  2  0
 17 19  2  0
 17 20  1  0
 20 21  2  0
 21 22  1  0
 22 23  2  0
 23 24  1  0
 24 25  1  0
 25 26  1  0
 25 27  2  0
 23 28  1  0
 28 29  2  0
 15 30  1  0
 30 31  1  0
 30 32  2  0
 10 33  2  0
 33 34  1  0
 34 35  1  0
 35 36  2  0
 35  4  1  0
 34  8  2  0
 32 12  1  0
 29 20  1  0
  1 37  1  0
  1 38  1  0
  1 39  1  0
  2 40  1  0
  2 41  1  0
  3 42  1  0
  3 43  1  0
 11 44  1  0
 11 45  1  0
 13 46  1  0
 14 47  1  0
 21 48  1  0
 22 49  1  0
 26 50  1  0
 26 51  1  0
 26 52  1  0
 28 53  1  0
 29 54  1  0
 31 55  1  0
 32 56  1  0
M  CHG  3   7  -1   9  -1  16  -1
M  END
>  <UniqueID>  (64) 
59

>  <SMILES>  (64) 
CCCn1c(=O)[n-]c2[n-]c(Cc3ccc([N-]S(=O)(=O)c4ccc(OC(C)=O)cc4)c(O)c3)nc2c1=O

>  <Energy>  (64) 
106.5527503146375

>  <Genealogy>  (64) 
CCCn1c(=O)[n-]c2[n-]c(Cc3ccc([N-]S(=O)(=O)c4ccc(OC(C)=O)cc4)c(O)c3)nc2c1=O (protonated)
CCCn1c(=O)[n-]c2[n-]c(Cc3ccc([N-]S(=O)(=O)c4ccc(OC(C)=O)cc4)c(O)c3)nc2c1=O (3D coordinates assigned)
CCCn1c(=O)[n-]c2[n-]c(Cc3ccc([N-]S(=O)(=O)c4ccc(OC(C)=O)cc4)c(O)c3)nc2c1=O (optimized conformer: 106.5527503146375 kcal/mol)

>  <smiles>  (64) 
CCCn1c(=O)[nH]c2[nH]c(Cc3ccc(NS(=O)(=O)c4ccc(OC(C)=O)cc4)c(O)c3)nc2c1=O

>  <score_type>  (64) 
oracle

>  <origin>  (64) 
adg

>  <m_score__min__energy>  (64) 
-13.539999999999999

>  <m_primary>  (64) 
energy

$$$$
64:0
     RDKit          3D

 62 66  0  0  0  0  0  0  0  0999 V2000
   55.2762   30.1864   55.3217 H   0  0  0  0  0  0  0  0  0  0  0  0
   55.5700   30.2120   54.2620 C   0  0  0  0  0  0  0  0  0  0  0  0
   56.8800   30.3070   53.9890 C   0  0  0  0  0  0  0  0  0  0  0  0
   57.5776   30.2849   54.8392 H   0  0  0  0  0  0  0  0  0  0  0  0
   57.4600   30.4390   52.6360 C   0  0  0  0  0  0  0  0  0  0  0  0
   57.4310   29.4860   51.6730 N   0  0  0  0  0  0  0  0  0  0  0  0
   57.9780   29.9720   50.5620 N   0  0  0  0  0  0  0  0  0  0  0  0
   58.3440   31.2390   50.8190 C   0  0  0  0  0  0  0  0  0  0  0  0
   58.9510   32.1420   49.9510 C   0  0  0  0  0  0  0  0  0  0  0  0
   59.2085   31.8520   48.9216 H   0  0  0  0  0  0  0  0  0  0  0  0
   59.2270   33.4430   50.4310 C   0  0  0  0  0  0  0  0  0  0  0  0
   59.8730   34.3890   49.5620 N   0  0  0  0  0  0  0  0  0  0  0  0
   59.5820   35.3920   49.6270 H   0  0  0  0  0  0  0  0  0  0  0  0
   60.9150   34.0460   48.6310 C   0  0  0  0  0  0  0  0  0  0  0  0
   62.2550   34.0030   49.0560 C   0  0  0  0  0  0  0  0  0  0  0  0
   62.4994   34.1971   50.1108 H   0  0  0  0  0  0  0  0  0  0  0  0
   63.2770   33.7160   48.1500 C   0  0  0  0  0  0  0  0  0  0  0  0
   64.3215   33.6805   48.4931 H   0  0  0  0  0  0  0  0  0  0  0  0
   62.9750   33.4740   46.8090 C   0  0  0  0  0  0  0  0  0  0  0  0
   63.7811   33.2412   46.0976 H   0  0  0  0  0  0  0  0  0  0  0  0
   61.6520   33.5270   46.3700 C   0  0  0  0  0  0  0  0  0  0  0  0
   61.4198   33.3298   45.3130 H   0  0  0  0  0  0  0  0  0  0  0  0
   60.6140   33.8300   47.2660 C   0  0  0  0  0  0  0  0  0  0  0  0
   59.2180   33.8430   46.7820 C   0  0  0  0  0  0  0  0  0  0  0  0
   58.2790   33.7450   47.6150 O   0  0  0  0  0  0  0  0  0  0  0  0
   58.9000   33.9810   45.3930 N   0  0  0  0  0  0  0  0  0  0  0  0
   57.6450   33.5490   44.7870 C   0  0  0  0  0  0  0  0  0  0  0  0
   57.4164   34.1919   43.9242 H   0  0  0  0  0  0  0  0  0  0  0  0
   56.8386   33.6247   45.5314 H   0  0  0  0  0  0  0  0  0  0  0  0
   57.7640   32.1030   44.3220 C   0  0  0  0  0  0  0  0  0  0  0  0
   58.6502   31.6428   44.7834 H   0  0  0  0  0  0  0  0  0  0  0  0
   57.8625   32.0808   43.2266 H   0  0  0  0  0  0  0  0  0  0  0  0
   56.6010   31.3760   44.7040 O   0  0  0  0  0  0  0  0  0  0  0  0
   56.5970   29.9880   44.8650 C   0  0  0  0  0  0  0  0  0  0  0  0
   55.5120   29.3460   44.8330 O   0  0  0  0  0  0  0  0  0  0  0  0
   57.8460   29.3050   45.0120 N   0  0  0  0  0  0  0  0  0  0  0  0
   58.7330   29.3750   46.1390 C   0  0  0  0  0  0  0  0  0  0  0  0
   59.7300   30.3620   46.2490 C   0  0  0  0  0  0  0  0  0  0  0  0
   59.8365   31.1232   45.4620 H   0  0  0  0  0  0  0  0  0  0  0  0
   60.5860   30.3790   47.3550 C   0  0  0  0  0  0  0  0  0  0  0  0
   61.3562   31.1596   47.4415 H   0  0  0  0  0  0  0  0  0  0  0  0
   60.4640   29.4050   48.3510 C   0  0  0  0  0  0  0  0  0  0  0  0
   61.1330   29.4234   49.2240 H   0  0  0  0  0  0  0  0  0  0  0  0
   59.4910   28.4080   48.2360 C   0  0  0  0  0  0  0  0  0  0  0  0
   59.3991   27.6379   49.0160 H   0  0  0  0  0  0  0  0  0  0  0  0
   58.6350   28.3880   47.1320 C   0  0  0  0  0  0  0  0  0  0  0  0
   57.8795   27.5937   47.0405 H   0  0  0  0  0  0  0  0  0  0  0  0
   58.9120   33.7750   51.7780 C   0  0  0  0  0  0  0  0  0  0  0  0
   59.1511   34.7782   52.1606 H   0  0  0  0  0  0  0  0  0  0  0  0
   58.2980   32.8350   52.6270 C   0  0  0  0  0  0  0  0  0  0  0  0
   58.0402   33.0875   53.6661 H   0  0  0  0  0  0  0  0  0  0  0  0
   58.0290   31.5730   52.1020 C   0  0  0  0  0  0  0  0  0  0  0  0
   54.4910   30.1390   53.2590 C   0  0  0  0  0  0  0  0  0  0  0  0
   53.5540   29.1570   53.3720 N   0  0  0  0  0  0  0  0  0  0  0  0
   52.5610   29.0020   52.4560 C   0  0  0  0  0  0  0  0  0  0  0  0
   51.8124   28.2067   52.5870 H   0  0  0  0  0  0  0  0  0  0  0  0
   52.4900   29.8510   51.3490 C   0  0  0  0  0  0  0  0  0  0  0  0
   51.6834   29.7360   50.6100 H   0  0  0  0  0  0  0  0  0  0  0  0
   53.4550   30.8470   51.1920 C   0  0  0  0  0  0  0  0  0  0  0  0
   53.4167   31.5190   50.3220 H   0  0  0  0  0  0  0  0  0  0  0  0
   54.4690   30.9890   52.1410 C   0  0  0  0  0  0  0  0  0  0  0  0
   55.2437   31.7596   52.0143 H   0  0  0  0  0  0  0  0  0  0  0  0
  1  2  1  0
  2  3  2  0
  3  4  1  0
  3  5  1  0
  5  6  1  0
  6  7  1  0
  7  8  2  0
  8  9  1  0
  9 10  1  0
  9 11  2  0
 11 12  1  0
 12 13  1  0
 12 14  1  0
 14 15  2  0
 15 16  1  0
 15 17  1  0
 17 18  1  0
 17 19  2  0
 19 20  1  0
 19 21  1  0
 21 22  1  0
 21 23  2  0
 23 24  1  0
 24 25  2  0
 24 26  1  0
 26 27  1  0
 27 28  1  0
 27 29  1  0
 27 30  1  0
 30 31  1  0
 30 32  1  0
 30 33  1  0
 33 34  1  0
 34 35  2  0
 34 36  1  0
 36 37  1  0
 37 38  2  0
 38 39  1  0
 38 40  1  0
 40 41  1  0
 40 42  2  0
 42 43  1  0
 42 44  1  0
 44 45  1  0
 44 46  2  0
 46 47  1  0
 11 48  1  0
 48 49  1  0
 48 50  2  0
 50 51  1  0
 50 52  1  0
  2 53  1  0
 53 54  2  0
 54 55  1  0
 55 56  1  0
 55 57  2  0
 57 58  1  0
 57 59  1  0
 59 60  1  0
 59 61  2  0
 61 62  1  0
 52  5  2  0
 61 53  1  0
 52  8  1  0
 23 14  1  0
 46 37  1  0
M  CHG  3   6  -1  26  -1  36  -1
M  END
>  <UniqueID>  (65) 
60

>  <SMILES>  (65) 
O=C([N-]c1ccccc1)OCC[N-]C(=O)c1ccccc1Nc1ccc2c(/C=C\c3ccccn3)[n-]nc2c1

>  <Energy>  (65) 
124.43905643223155

>  <Genealogy>  (65) 
O=C([N-]c1ccccc1)OCC[N-]C(=O)c1ccccc1Nc1ccc2c(C=Cc3ccccn3)[n-]nc2c1 (protonated)
O=C([N-]c1ccccc1)OCC[N-]C(=O)c1ccccc1Nc1ccc2c(/C=C\c3ccccn3)[n-]nc2c1 (cis-trans isomerization)
O=C([N-]c1ccccc1)OCC[N-]C(=O)c1ccccc1Nc1ccc2c(/C=C\c3ccccn3)[n-]nc2c1 (3D coordinates assigned)
O=C([N-]c1ccccc1)OCC[N-]C(=O)c1ccccc1Nc1ccc2c(/C=C\c3ccccn3)[n-]nc2c1 (optimized conformer: 124.43905643223155 kcal/mol)

>  <smiles>  (65) 
O=C(Nc1ccccc1)OCCNC(=O)c1ccccc1Nc1ccc2c(C=Cc3ccccn3)[nH]nc2c1

>  <score_type>  (65) 
oracle

>  <origin>  (65) 
adg

>  <m_score__min__energy>  (65) 
-14.25

>  <m_primary>  (65) 
energy

$$$$
65:0
     RDKit          3D

 49 51  0  0  0  0  0  0  0  0999 V2000
   50.2590   32.9170   52.2560 O   0  0  0  0  0  0  0  0  0  0  0  0
   51.1190   32.3050   51.5690 C   0  0  0  0  0  0  0  0  0  0  0  0
   51.3990   32.7330   50.2770 O   0  0  0  0  0  0  0  0  0  0  0  0
   51.8720   31.1540   52.1570 C   0  0  0  0  0  0  0  0  0  0  0  0
   53.1030   30.8300   51.3080 C   0  0  0  0  0  0  0  0  0  0  0  0
   54.2830   31.5080   51.8400 N   0  0  0  0  0  0  0  0  0  0  0  0
   55.4340   30.7910   52.3160 C   0  0  0  0  0  0  0  0  0  0  0  0
   55.5240   29.5500   52.1250 O   0  0  0  0  0  0  0  0  0  0  0  0
   56.5260   31.4720   52.9540 N   0  0  0  0  0  0  0  0  0  0  0  0
   57.6780   31.7560   52.4220 C   0  0  0  0  0  0  0  0  0  0  0  0
   57.7190   32.3610   51.1600 C   0  0  0  0  0  0  0  0  0  0  0  0
   58.9510   32.6620   50.5710 C   0  0  0  0  0  0  0  0  0  0  0  0
   58.9650   33.2610   49.3030 O   0  0  0  0  0  0  0  0  0  0  0  0
   58.6030   32.6310   48.1020 C   0  0  0  0  0  0  0  0  0  0  0  0
   58.8250   31.2560   47.9700 C   0  0  0  0  0  0  0  0  0  0  0  0
   58.4650   30.5910   46.7950 C   0  0  0  0  0  0  0  0  0  0  0  0
   57.8810   31.2900   45.7330 C   0  0  0  0  0  0  0  0  0  0  0  0
   57.5080   30.5620   44.5540 N   0  0  0  0  0  0  0  0  0  0  0  0
   56.2810   29.8490   44.3390 C   0  0  0  0  0  0  0  0  0  0  0  0
   55.5380   30.1300   43.3640 O   0  0  0  0  0  0  0  0  0  0  0  0
   55.8850   28.8070   45.2370 N   0  0  0  0  0  0  0  0  0  0  0  0
   56.6830   27.6720   45.5950 C   0  0  0  0  0  0  0  0  0  0  0  0
   58.0740   27.8270   45.6750 C   0  0  0  0  0  0  0  0  0  0  0  0
   58.8860   26.7450   46.0320 C   0  0  0  0  0  0  0  0  0  0  0  0
   60.2320   26.8990   46.0900 F   0  0  0  0  0  0  0  0  0  0  0  0
   58.3110   25.5080   46.3310 C   0  0  0  0  0  0  0  0  0  0  0  0
   56.9240   25.3540   46.2880 C   0  0  0  0  0  0  0  0  0  0  0  0
   56.1060   26.4320   45.9300 C   0  0  0  0  0  0  0  0  0  0  0  0
   54.7590   26.2760   45.9710 F   0  0  0  0  0  0  0  0  0  0  0  0
   57.6180   32.6640   45.8770 C   0  0  0  0  0  0  0  0  0  0  0  0
   57.9770   33.3290   47.0540 C   0  0  0  0  0  0  0  0  0  0  0  0
   60.1340   32.3130   51.2420 C   0  0  0  0  0  0  0  0  0  0  0  0
   60.0570   31.7000   52.4930 C   0  0  0  0  0  0  0  0  0  0  0  0
   58.8460   31.4350   53.0490 N   0  0  0  0  0  0  0  0  0  0  0  0
   52.1934   31.4144   53.1763 H   0  0  0  0  0  0  0  0  0  0  0  0
   51.2139   30.2729   52.1807 H   0  0  0  0  0  0  0  0  0  0  0  0
   53.2742   29.7435   51.3181 H   0  0  0  0  0  0  0  0  0  0  0  0
   52.9271   31.1760   50.2788 H   0  0  0  0  0  0  0  0  0  0  0  0
   54.2970   32.5520   51.8170 H   0  0  0  0  0  0  0  0  0  0  0  0
   56.7835   32.5992   50.6327 H   0  0  0  0  0  0  0  0  0  0  0  0
   59.2858   30.6949   48.7963 H   0  0  0  0  0  0  0  0  0  0  0  0
   58.6422   29.5092   46.7042 H   0  0  0  0  0  0  0  0  0  0  0  0
   58.5293   28.8041   45.4560 H   0  0  0  0  0  0  0  0  0  0  0  0
   58.9509   24.6548   46.6004 H   0  0  0  0  0  0  0  0  0  0  0  0
   56.4725   24.3822   46.5363 H   0  0  0  0  0  0  0  0  0  0  0  0
   57.1287   33.2172   45.0618 H   0  0  0  0  0  0  0  0  0  0  0  0
   57.7685   34.4038   47.1604 H   0  0  0  0  0  0  0  0  0  0  0  0
   61.1129   32.5210   50.7854 H   0  0  0  0  0  0  0  0  0  0  0  0
   60.9784   31.4308   53.0301 H   0  0  0  0  0  0  0  0  0  0  0  0
  1  2  2  0
  2  3  1  0
  2  4  1  0
  4  5  1  0
  5  6  1  0
  6  7  1  0
  7  8  2  0
  7  9  1  0
  9 10  2  3
 10 11  1  0
 11 12  2  0
 12 13  1  0
 13 14  1  0
 14 15  2  0
 15 16  1  0
 16 17  2  0
 17 18  1  0
 18 19  1  0
 19 20  2  0
 19 21  1  0
 21 22  1  0
 22 23  2  0
 23 24  1  0
 24 25  1  0
 24 26  2  0
 26 27  1  0
 27 28  2  0
 28 29  1  0
 17 30  1  0
 30 31  2  0
 12 32  1  0
 32 33  2  0
 33 34  1  0
 34 10  1  0
 31 14  1  0
 28 22  1  0
  4 35  1  0
  4 36  1  0
  5 37  1  0
  5 38  1  0
  6 39  1  0
 11 40  1  0
 15 41  1  0
 16 42  1  0
 23 43  1  0
 26 44  1  0
 27 45  1  0
 30 46  1  0
 31 47  1  0
 32 48  1  0
 33 49  1  0
M  CHG  4   3  -1  18  -1  21  -1  34  -1
M  END
>  <UniqueID>  (66) 
61

>  <SMILES>  (66) 
O=C([O-])CCNC(=O)N=c1cc(Oc2ccc([N-]C(=O)[N-]c3cc(F)ccc3F)cc2)cc[n-]1

>  <Energy>  (66) 
67.04848752579767

>  <Genealogy>  (66) 
O=C([O-])CCNC(=O)N=c1cc(Oc2ccc([N-]C(=O)[N-]c3cc(F)ccc3F)cc2)cc[n-]1 (protonated)
O=C([O-])CCNC(=O)N=c1cc(Oc2ccc([N-]C(=O)[N-]c3cc(F)ccc3F)cc2)cc[n-]1 (3D coordinates assigned)
O=C([O-])CCNC(=O)N=c1cc(Oc2ccc([N-]C(=O)[N-]c3cc(F)ccc3F)cc2)cc[n-]1 (optimized conformer: 67.04848752579767 kcal/mol)

>  <smiles>  (66) 
O=C(O)CCNC(=O)N=c1cc(Oc2ccc(NC(=O)Nc3cc(F)ccc3F)cc2)cc[nH]1

>  <score_type>  (66) 
oracle

>  <origin>  (66) 
adg

>  <m_score__min__energy>  (66) 
-16.949999999999999

>  <m_primary>  (66) 
energy

$$$$
66:0
     RDKit          3D

 46 49  0  0  0  0  0  0  0  0999 V2000
   51.4260   32.7090   50.0680 O   0  0  0  0  0  0  0  0  0  0  0  0
   51.3810   32.2240   51.2280 C   0  0  0  0  0  0  0  0  0  0  0  0
   50.3350   32.5830   52.0700 O   0  0  0  0  0  0  0  0  0  0  0  0
   52.4280   31.2840   51.6890 C   0  0  0  0  0  0  0  0  0  0  0  0
   52.0710   30.0150   52.1670 C   0  0  0  0  0  0  0  0  0  0  0  0
   53.0640   29.1400   52.5990 C   0  0  0  0  0  0  0  0  0  0  0  0
   54.4020   29.5250   52.5540 C   0  0  0  0  0  0  0  0  0  0  0  0
   54.7420   30.7990   52.0680 C   0  0  0  0  0  0  0  0  0  0  0  0
   56.1560   31.2470   52.0170 C   0  0  0  0  0  0  0  0  0  0  0  0
   56.6790   32.3090   52.7620 C   0  0  0  0  0  0  0  0  0  0  0  0
   58.3250   32.4200   52.4260 S   0  0  0  0  0  0  0  0  0  0  0  0
   58.3070   31.1270   51.3540 C   0  0  0  0  0  0  0  0  0  0  0  0
   59.5000   30.5910   50.6280 C   0  0  0  0  0  0  0  0  0  0  0  0
   59.1240   30.2640   49.2090 C   0  0  0  0  0  0  0  0  0  0  0  0
   58.9390   31.2930   48.2710 C   0  0  0  0  0  0  0  0  0  0  0  0
   58.4550   31.0030   46.9920 C   0  0  0  0  0  0  0  0  0  0  0  0
   58.1410   29.6840   46.6410 C   0  0  0  0  0  0  0  0  0  0  0  0
   57.4230   29.3190   45.0750 S   0  0  0  0  0  0  0  0  0  0  0  0
   58.5100   28.8940   44.1300 O   0  0  0  0  0  0  0  0  0  0  0  0
   56.7270   30.5260   44.5080 O   0  0  0  0  0  0  0  0  0  0  0  0
   56.2740   28.0250   45.2420 N   0  0  0  0  0  0  0  0  0  0  0  0
   56.5350   26.7940   45.5800 C   0  0  0  0  0  0  0  0  0  0  0  0
   57.8350   26.2470   45.5250 C   0  0  0  0  0  0  0  0  0  0  0  0
   58.0320   24.9090   45.8750 C   0  0  0  0  0  0  0  0  0  0  0  0
   56.9500   24.1290   46.2820 C   0  0  0  0  0  0  0  0  0  0  0  0
   55.6800   24.7020   46.3370 C   0  0  0  0  0  0  0  0  0  0  0  0
   55.5030   26.0050   45.9880 N   0  0  0  0  0  0  0  0  0  0  0  0
   58.3420   28.6520   47.5680 C   0  0  0  0  0  0  0  0  0  0  0  0
   58.8250   28.9400   48.8470 C   0  0  0  0  0  0  0  0  0  0  0  0
   57.0680   30.6030   51.2380 N   0  0  0  0  0  0  0  0  0  0  0  0
   53.7480   31.6420   51.6530 N   0  0  0  0  0  0  0  0  0  0  0  0
   51.0138   29.7130   52.2004 H   0  0  0  0  0  0  0  0  0  0  0  0
   52.7916   28.1433   52.9764 H   0  0  0  0  0  0  0  0  0  0  0  0
   55.1878   28.8358   52.8969 H   0  0  0  0  0  0  0  0  0  0  0  0
   56.1139   32.9579   53.4473 H   0  0  0  0  0  0  0  0  0  0  0  0
   60.2993   31.3467   50.6298 H   0  0  0  0  0  0  0  0  0  0  0  0
   59.8535   29.6789   51.1310 H   0  0  0  0  0  0  0  0  0  0  0  0
   59.1761   32.3319   48.5441 H   0  0  0  0  0  0  0  0  0  0  0  0
   58.3205   31.8126   46.2596 H   0  0  0  0  0  0  0  0  0  0  0  0
   58.6856   26.8689   45.2093 H   0  0  0  0  0  0  0  0  0  0  0  0
   59.0400   24.4710   45.8296 H   0  0  0  0  0  0  0  0  0  0  0  0
   57.0967   23.0739   46.5565 H   0  0  0  0  0  0  0  0  0  0  0  0
   54.8195   24.0993   46.6632 H   0  0  0  0  0  0  0  0  0  0  0  0
   58.1187   27.6120   47.2876 H   0  0  0  0  0  0  0  0  0  0  0  0
   58.9717   28.1269   49.5732 H   0  0  0  0  0  0  0  0  0  0  0  0
   54.0060   32.5860   51.2860 H   0  0  0  0  0  0  0  0  0  0  0  0
  1  2  2  0
  2  3  1  0
  2  4  1  0
  4  5  2  0
  5  6  1  0
  6  7  2  0
  7  8  1  0
  8  9  1  0
  9 10  2  0
 10 11  1  0
 11 12  1  0
 12 13  1  0
 13 14  1  0
 14 15  2  0
 15 16  1  0
 16 17  2  0
 17 18  1  0
 18 19  2  0
 18 20  2  0
 18 21  1  0
 21 22  2  3
 22 23  1  0
 23 24  2  0
 24 25  1  0
 25 26  2  0
 26 27  1  0
 17 28  1  0
 28 29  2  0
 12 30  2  0
  8 31  2  0
 31  4  1  0
 30  9  1  0
 29 14  1  0
 27 22  1  0
  5 32  1  0
  6 33  1  0
  7 34  1  0
 10 35  1  0
 13 36  1  0
 13 37  1  0
 15 38  1  0
 16 39  1  0
 23 40  1  0
 24 41  1  0
 25 42  1  0
 26 43  1  0
 28 44  1  0
 29 45  1  0
 31 46  1  0
M  CHG  3   3  -1  27  -1  31   1
M  END
>  <UniqueID>  (67) 
62

>  <SMILES>  (67) 
O=C([O-])c1cccc(-c2csc(Cc3ccc(S(=O)(=O)N=c4cccc[n-]4)cc3)n2)[nH+]1

>  <Energy>  (67) 
85.89131220331724

>  <Genealogy>  (67) 
O=C([O-])c1cccc(-c2csc(Cc3ccc(S(=O)(=O)N=c4cccc[n-]4)cc3)n2)[nH+]1 (protonated)
O=C([O-])c1cccc(-c2csc(Cc3ccc(S(=O)(=O)N=c4cccc[n-]4)cc3)n2)[nH+]1 (3D coordinates assigned)
O=C([O-])c1cccc(-c2csc(Cc3ccc(S(=O)(=O)N=c4cccc[n-]4)cc3)n2)[nH+]1 (optimized conformer: 85.89131220331724 kcal/mol)

>  <smiles>  (67) 
O=C(O)c1cccc(-c2csc(Cc3ccc(S(=O)(=O)N=c4cccc[nH]4)cc3)n2)n1

>  <score_type>  (67) 
oracle

>  <origin>  (67) 
adg

>  <m_score__min__energy>  (67) 
-13.85

>  <m_primary>  (67) 
energy

$$$$
67:0
     RDKit          3D

 44 46  0  0  0  0  0  0  0  0999 V2000
   59.0730   25.8889   48.2631 H   0  0  0  0  0  0  0  0  0  0  0  0
   58.7130   26.4710   47.4020 C   0  0  0  0  0  0  0  0  0  0  0  0
   57.3660   26.4220   47.0430 C   0  0  0  0  0  0  0  0  0  0  0  0
   56.6641   25.8095   47.6279 H   0  0  0  0  0  0  0  0  0  0  0  0
   56.9060   27.1500   45.9410 C   0  0  0  0  0  0  0  0  0  0  0  0
   55.5870   27.0970   45.6260 F   0  0  0  0  0  0  0  0  0  0  0  0
   57.7980   27.9330   45.1810 C   0  0  0  0  0  0  0  0  0  0  0  0
   57.2800   28.7400   44.0130 C   0  0  0  0  0  0  0  0  0  0  0  0
   56.7891   28.0659   43.2956 H   0  0  0  0  0  0  0  0  0  0  0  0
   58.1246   29.2537   43.5306 H   0  0  0  0  0  0  0  0  0  0  0  0
   56.2940   29.7620   44.4840 C   0  0  0  0  0  0  0  0  0  0  0  0
   55.1840   29.3810   44.9460 O   0  0  0  0  0  0  0  0  0  0  0  0
   56.6400   31.1540   44.4170 N   0  0  0  0  0  0  0  0  0  0  0  0
   57.5220   31.7880   45.1350 C   0  0  0  0  0  0  0  0  0  0  0  0
   58.4370   31.1510   46.4010 S   0  0  0  0  0  0  0  0  0  0  0  0
   59.2490   32.5990   46.6950 C   0  0  0  0  0  0  0  0  0  0  0  0
   60.2710   32.7720   47.7420 C   0  0  0  0  0  0  0  0  0  0  0  0
   60.2360   33.7660   48.5150 O   0  0  0  0  0  0  0  0  0  0  0  0
   61.3300   31.8160   47.8550 N   0  0  0  0  0  0  0  0  0  0  0  0
   62.4850   31.9900   48.6890 C   0  0  0  0  0  0  0  0  0  0  0  0
   63.5000   32.8660   48.2680 C   0  0  0  0  0  0  0  0  0  0  0  0
   63.3560   33.7500   46.7540 Cl  0  0  0  0  0  0  0  0  0  0  0  0
   64.6330   33.0640   49.0630 C   0  0  0  0  0  0  0  0  0  0  0  0
   65.4204   33.7574   48.7325 H   0  0  0  0  0  0  0  0  0  0  0  0
   64.7680   32.3850   50.2740 C   0  0  0  0  0  0  0  0  0  0  0  0
   65.6539   32.5554   50.9034 H   0  0  0  0  0  0  0  0  0  0  0  0
   63.7810   31.4900   50.6880 C   0  0  0  0  0  0  0  0  0  0  0  0
   63.8934   30.9584   51.6444 H   0  0  0  0  0  0  0  0  0  0  0  0
   62.6450   31.2620   49.8940 C   0  0  0  0  0  0  0  0  0  0  0  0
   61.6300   30.2480   50.3510 C   0  0  0  0  0  0  0  0  0  0  0  0
   61.6055   30.2235   51.4505 H   0  0  0  0  0  0  0  0  0  0  0  0
   60.6367   30.5252   49.9682 H   0  0  0  0  0  0  0  0  0  0  0  0
   61.9063   29.2544   49.9682 H   0  0  0  0  0  0  0  0  0  0  0  0
   58.7750   33.5530   45.7830 C   0  0  0  0  0  0  0  0  0  0  0  0
   59.2510   34.9740   45.7240 C   0  0  0  0  0  0  0  0  0  0  0  0
   59.3803   35.3601   46.7459 H   0  0  0  0  0  0  0  0  0  0  0  0
   60.2125   35.0168   45.1914 H   0  0  0  0  0  0  0  0  0  0  0  0
   58.5093   35.5873   45.1914 H   0  0  0  0  0  0  0  0  0  0  0  0
   57.8220   33.0880   44.9270 N   0  0  0  0  0  0  0  0  0  0  0  0
   57.3680   33.6700   44.1880 H   0  0  0  0  0  0  0  0  0  0  0  0
   59.1580   27.9920   45.5660 C   0  0  0  0  0  0  0  0  0  0  0  0
   60.3300   28.9830   44.7010 Cl  0  0  0  0  0  0  0  0  0  0  0  0
   59.6050   27.2570   46.6710 C   0  0  0  0  0  0  0  0  0  0  0  0
   60.6643   27.2994   46.9643 H   0  0  0  0  0  0  0  0  0  0  0  0
  1  2  1  0
  2  3  2  0
  3  4  1  0
  3  5  1  0
  5  6  1  0
  5  7  2  0
  7  8  1  0
  8  9  1  0
  8 10  1  0
  8 11  1  0
 11 12  2  0
 11 13  1  0
 13 14  2  0
 14 15  1  0
 15 16  1  0
 16 17  1  0
 17 18  2  0
 17 19  1  0
 19 20  1  0
 20 21  2  0
 21 22  1  0
 21 23  1  0
 23 24  1  0
 23 25  2  0
 25 26  1  0
 25 27  1  0
 27 28  1  0
 27 29  2  0
 29 30  1  0
 30 31  1  0
 30 32  1  0
 30 33  1  0
 16 34  2  0
 34 35  1  0
 35 36  1  0
 35 37  1  0
 35 38  1  0
 34 39  1  0
 39 40  1  0
  7 41  1  0
 41 42  1  0
 41 43  2  0
 43 44  1  0
 43  2  1  0
 39 14  1  0
 29 20  1  0
M  CHG  1  19  -1
M  END
>  <UniqueID>  (68) 
63

>  <SMILES>  (68) 
Cc1cccc(Cl)c1[N-]C(=O)c1s/c(=N\C(=O)Cc2c(F)cccc2Cl)[nH]c1C

>  <Energy>  (68) 
86.06996992039309

>  <Genealogy>  (68) 
Cc1cccc(Cl)c1[N-]C(=O)c1sc(=NC(=O)Cc2c(F)cccc2Cl)[nH]c1C (protonated)
Cc1cccc(Cl)c1[N-]C(=O)c1s/c(=N\C(=O)Cc2c(F)cccc2Cl)[nH]c1C (cis-trans isomerization)
Cc1cccc(Cl)c1[N-]C(=O)c1s/c(=N\C(=O)Cc2c(F)cccc2Cl)[nH]c1C (3D coordinates assigned)
Cc1cccc(Cl)c1[N-]C(=O)c1s/c(=N\C(=O)Cc2c(F)cccc2Cl)[nH]c1C (optimized conformer: 86.06996992039309 kcal/mol)

>  <smiles>  (68) 
Cc1cccc(Cl)c1NC(=O)c1sc(=NC(=O)Cc2c(F)cccc2Cl)[nH]c1C

>  <score_type>  (68) 
oracle

>  <origin>  (68) 
adg

>  <m_score__min__energy>  (68) 
-10.33

>  <m_primary>  (68) 
energy

$$$$
68:0
     RDKit          3D

 50 53  0  0  0  0  0  0  0  0999 V2000
   59.9291   36.3022   46.7344 H   0  0  0  0  0  0  0  0  0  0  0  0
   59.4950   35.3300   46.4580 C   0  0  0  0  0  0  0  0  0  0  0  0
   59.2850   35.0150   45.1120 C   0  0  0  0  0  0  0  0  0  0  0  0
   59.5572   35.7391   44.3300 H   0  0  0  0  0  0  0  0  0  0  0  0
   58.7300   33.7820   44.7580 C   0  0  0  0  0  0  0  0  0  0  0  0
   58.5796   33.5327   43.6972 H   0  0  0  0  0  0  0  0  0  0  0  0
   58.3640   32.8610   45.7520 C   0  0  0  0  0  0  0  0  0  0  0  0
   57.7650   31.5670   45.3720 C   0  0  0  0  0  0  0  0  0  0  0  0
   56.5240   31.4540   44.8560 N   0  0  0  0  0  0  0  0  0  0  0  0
   56.3280   30.1950   44.5920 O   0  0  0  0  0  0  0  0  0  0  0  0
   57.3760   29.4720   44.9140 C   0  0  0  0  0  0  0  0  0  0  0  0
   57.4510   27.9900   44.7520 C   0  0  0  0  0  0  0  0  0  0  0  0
   57.4751   27.5136   45.7432 H   0  0  0  0  0  0  0  0  0  0  0  0
   56.5696   27.6368   44.1967 H   0  0  0  0  0  0  0  0  0  0  0  0
   58.3636   27.7276   44.1967 H   0  0  0  0  0  0  0  0  0  0  0  0
   58.3480   30.3090   45.4340 C   0  0  0  0  0  0  0  0  0  0  0  0
   59.6460   29.9150   46.0280 C   0  0  0  0  0  0  0  0  0  0  0  0
   60.5170   29.3630   45.3070 O   0  0  0  0  0  0  0  0  0  0  0  0
   59.9650   30.2110   47.3950 N   0  0  0  0  0  0  0  0  0  0  0  0
   60.9780   30.9090   47.8330 C   0  0  0  0  0  0  0  0  0  0  0  0
   60.9310   31.4530   49.1400 C   0  0  0  0  0  0  0  0  0  0  0  0
   59.7570   31.2630   50.0310 C   0  0  0  0  0  0  0  0  0  0  0  0
   58.9310   32.3530   50.3550 C   0  0  0  0  0  0  0  0  0  0  0  0
   59.1450   33.3451   49.9309 H   0  0  0  0  0  0  0  0  0  0  0  0
   57.8410   32.1860   51.2110 C   0  0  0  0  0  0  0  0  0  0  0  0
   57.2089   33.0488   51.4679 H   0  0  0  0  0  0  0  0  0  0  0  0
   57.5490   30.9240   51.7440 C   0  0  0  0  0  0  0  0  0  0  0  0
   56.1920   30.7230   52.8470 S   0  0  0  0  0  0  0  0  0  0  0  0
   55.0190   31.5290   52.3660 O   0  0  0  0  0  0  0  0  0  0  0  0
   56.5770   31.1990   54.2190 O   0  0  0  0  0  0  0  0  0  0  0  0
   55.7440   29.0040   52.9170 C   0  0  0  0  0  0  0  0  0  0  0  0
   55.6619   28.6890   53.9677 H   0  0  0  0  0  0  0  0  0  0  0  0
   54.7773   28.8562   52.4133 H   0  0  0  0  0  0  0  0  0  0  0  0
   56.5156   28.4032   52.4133 H   0  0  0  0  0  0  0  0  0  0  0  0
   58.3600   29.8310   51.4160 C   0  0  0  0  0  0  0  0  0  0  0  0
   58.1362   28.8380   51.8329 H   0  0  0  0  0  0  0  0  0  0  0  0
   59.4540   29.9970   50.5600 C   0  0  0  0  0  0  0  0  0  0  0  0
   60.0807   29.1313   50.2995 H   0  0  0  0  0  0  0  0  0  0  0  0
   62.0540   32.1430   49.6220 C   0  0  0  0  0  0  0  0  0  0  0  0
   62.0456   32.5566   50.6413 H   0  0  0  0  0  0  0  0  0  0  0  0
   63.1770   32.3070   48.8190 C   0  0  0  0  0  0  0  0  0  0  0  0
   64.0580   32.8441   49.2003 H   0  0  0  0  0  0  0  0  0  0  0  0
   63.1770   31.7860   47.5290 C   0  0  0  0  0  0  0  0  0  0  0  0
   64.0583   31.9200   46.8846 H   0  0  0  0  0  0  0  0  0  0  0  0
   62.0930   31.1120   47.0610 N   0  0  0  0  0  0  0  0  0  0  0  0
   62.1370   30.7750   46.0750 H   0  0  0  0  0  0  0  0  0  0  0  0
   58.5930   33.1770   47.1030 C   0  0  0  0  0  0  0  0  0  0  0  0
   58.3305   32.4521   47.8877 H   0  0  0  0  0  0  0  0  0  0  0  0
   59.1530   34.4090   47.4520 C   0  0  0  0  0  0  0  0  0  0  0  0
   59.3248   34.6541   48.5105 H   0  0  0  0  0  0  0  0  0  0  0  0
  1  2  1  0
  2  3  2  0
  3  4  1  0
  3  5  1  0
  5  6  1  0
  5  7  2  0
  7  8  1  0
  8  9  2  0
  9 10  1  0
 10 11  1  0
 11 12  1  0
 12 13  1  0
 12 14  1  0
 12 15  1  0
 11 16  2  0
 16 17  1  0
 17 18  2  0
 17 19  1  0
 19 20  2  0
 20 21  1  0
 21 22  1  0
 22 23  2  0
 23 24  1  0
 23 25  1  0
 25 26  1  0
 25 27  2  0
 27 28  1  0
 28 29  2  0
 28 30  2  0
 28 31  1  0
 31 32  1  0
 31 33  1  0
 31 34  1  0
 27 35  1  0
 35 36  1  0
 35 37  2  0
 37 38  1  0
 21 39  2  0
 39 40  1  0
 39 41  1  0
 41 42  1  0
 41 43  2  0
 43 44  1  0
 43 45  1  0
 45 46  1  0
  7 47  1  0
 47 48  1  0
 47 49  2  0
 49 50  1  0
 49  2  1  0
 16  8  1  0
 45 20  1  0
 37 22  1  0
M  END
>  <UniqueID>  (69) 
64

>  <SMILES>  (69) 
Cc1onc(-c2ccccc2)c1C(=O)/N=c1\[nH]cccc1-c1ccc(S(C)(=O)=O)cc1

>  <Energy>  (69) 
98.9609335023648

>  <Genealogy>  (69) 
Cc1onc(-c2ccccc2)c1C(=O)/N=c1\[nH]cccc1-c1ccc(S(C)(=O)=O)cc1 (cis-trans isomerization)
Cc1onc(-c2ccccc2)c1C(=O)/N=c1\[nH]cccc1-c1ccc(S(C)(=O)=O)cc1 (3D coordinates assigned)
Cc1onc(-c2ccccc2)c1C(=O)/N=c1\[nH]cccc1-c1ccc(S(C)(=O)=O)cc1 (optimized conformer: 98.9609335023648 kcal/mol)

>  <smiles>  (69) 
Cc1onc(-c2ccccc2)c1C(=O)N=c1[nH]cccc1-c1ccc(S(C)(=O)=O)cc1

>  <score_type>  (69) 
oracle

>  <origin>  (69) 
adg

>  <m_score__min__energy>  (69) 
-9.6600000000000001

>  <m_primary>  (69) 
energy

$$$$
69:0
     RDKit          3D

 49 51  0  0  1  0  0  0  0  0999 V2000
   57.6640   31.9720   42.0510 C   0  0  0  0  0  0  0  0  0  0  0  0
   57.2170   31.8170   43.3850 O   0  0  0  0  0  0  0  0  0  0  0  0
   57.7810   32.6370   44.3530 C   0  0  0  0  0  0  0  0  0  0  0  0
   58.8570   33.4690   44.1040 C   0  0  0  0  0  0  0  0  0  0  0  0
   59.4080   34.2820   45.0860 C   0  0  0  0  0  0  0  0  0  0  0  0
   58.8230   34.2160   46.3340 C   0  0  0  0  0  0  0  0  0  0  0  0
   59.3230   35.0430   47.4880 C   0  0  0  0  0  0  0  0  0  0  0  0
   60.9210   29.9310   46.8740 N   0  0  0  0  0  0  0  0  0  0  0  0
   61.2380   31.0760   47.3250 C   0  0  0  0  0  0  0  0  0  0  0  0
   62.0610   33.5060   48.2870 N   0  0  0  0  0  0  0  0  0  0  0  0
   63.0000   32.5830   47.9750 C   0  0  0  0  0  0  0  0  0  0  0  0
   62.5710   31.3780   47.4970 C   0  0  0  0  0  0  0  0  0  0  0  0
   60.7630   33.2140   48.1200 C   0  0  0  0  0  0  0  0  0  0  0  0
   59.8990   34.1000   48.4220 N   0  0  0  0  0  0  0  0  0  0  0  0
   60.3490   29.6230   45.5930 C   0  0  0  0  0  0  0  0  0  0  0  0
   59.1170   28.7800   45.7210 C   0  0  0  0  0  0  0  0  0  0  0  0
   59.1340   27.5230   46.2870 C   0  0  0  0  0  0  0  0  0  0  0  0
   58.0050   26.7340   46.4120 C   0  0  0  0  0  0  0  0  0  0  0  0
   56.7970   27.2150   45.9530 C   0  0  0  0  0  0  0  0  0  0  0  0
   55.6090   26.5000   46.0330 O   0  0  0  0  0  0  0  0  0  0  0  0
   55.5000   25.1250   45.7100 C   0  0  0  0  0  0  0  0  0  0  0  0
   56.7330   28.4670   45.3780 C   0  0  0  0  0  0  0  0  0  0  0  0
   55.5150   28.9760   44.9040 O   0  0  0  0  0  0  0  0  0  0  0  0
   57.8790   29.2270   45.2700 C   0  0  0  0  0  0  0  0  0  0  0  0
   60.3480   32.0370   47.6530 N   0  0  0  0  0  0  0  0  0  0  0  0
   57.7510   33.3940   46.6050 C   0  0  0  0  0  0  0  0  0  0  0  0
   57.2180   32.5910   45.6110 C   0  0  0  0  0  0  0  0  0  0  0  0
   58.7033   32.3324   42.0521 H   0  0  0  0  0  0  0  0  0  0  0  0
   57.6123   31.0035   41.5321 H   0  0  0  0  0  0  0  0  0  0  0  0
   57.0238   32.7006   41.5321 H   0  0  0  0  0  0  0  0  0  0  0  0
   59.2914   33.4876   43.0936 H   0  0  0  0  0  0  0  0  0  0  0  0
   60.2635   34.9421   44.8803 H   0  0  0  0  0  0  0  0  0  0  0  0
   60.0851   35.7586   47.1458 H   0  0  0  0  0  0  0  0  0  0  0  0
   58.5145   35.6297   47.9486 H   0  0  0  0  0  0  0  0  0  0  0  0
   62.3420   34.4590   48.6630 H   0  0  0  0  0  0  0  0  0  0  0  0
   64.0717   32.7960   48.1020 H   0  0  0  0  0  0  0  0  0  0  0  0
   63.3214   30.6164   47.2384 H   0  0  0  0  0  0  0  0  0  0  0  0
   60.0860   30.5628   45.0854 H   0  0  0  0  0  0  0  0  0  0  0  0
   61.0927   29.0553   45.0145 H   0  0  0  0  0  0  0  0  0  0  0  0
   60.0918   27.1285   46.6571 H   0  0  0  0  0  0  0  0  0  0  0  0
   58.0698   25.7366   46.8712 H   0  0  0  0  0  0  0  0  0  0  0  0
   55.4531   24.5334   46.6362 H   0  0  0  0  0  0  0  0  0  0  0  0
   54.5858   24.9579   45.1215 H   0  0  0  0  0  0  0  0  0  0  0  0
   56.3765   24.8160   45.1215 H   0  0  0  0  0  0  0  0  0  0  0  0
   54.7510   28.9550   45.5650 H   0  0  0  0  0  0  0  0  0  0  0  0
   57.8116   30.2239   44.8100 H   0  0  0  0  0  0  0  0  0  0  0  0
   59.3470   31.8430   47.5360 H   0  0  0  0  0  0  0  0  0  0  0  0
   57.3167   33.3756   47.6155 H   0  0  0  0  0  0  0  0  0  0  0  0
   56.3637   31.9304   45.8203 H   0  0  0  0  0  0  0  0  0  0  0  0
  1  2  1  0
  2  3  1  0
  3  4  2  0
  4  5  1  0
  5  6  2  0
  6  7  1  0
  7  8  1  0
  8  9  2  0
  9 10  1  0
 10 11  1  0
 11 12  2  0
 12 13  1  0
 13 14  2  0
 14 15  1  0
 15 16  1  0
 16 17  2  0
 17 18  1  0
 18 19  2  0
 19 20  1  0
 20 21  1  0
 19 22  1  0
 22 23  1  0
 22 24  2  0
 13 25  1  0
  6 26  1  0
 26 27  2  0
 27  3  1  0
 25  9  1  0
 24 16  1  0
  1 28  1  0
  1 29  1  0
  1 30  1  0
  4 31  1  0
  5 32  1  0
  7 33  1  0
  7 34  1  0
 10 35  1  0
 11 36  1  0
 12 37  1  0
 15 38  1  0
 15 39  1  0
 17 40  1  0
 18 41  1  0
 21 42  1  0
 21 43  1  0
 21 44  1  0
 23 45  1  0
 24 46  1  0
 25 47  1  0
 26 48  1  0
 27 49  1  0
M  END
>  <smiles>  (70) 
COc1ccc(CN=c2[nH]ccc(=NCc3ccc(OC)c(O)c3)[nH]2)cc1

>  <score_type>  (70) 
oracle

>  <origin>  (70) 
adg

>  <m_score__min__energy>  (70) 
-8.4100000000000001

>  <m_primary>  (70) 
energy

$$$$
70:0
     RDKit          3D

 33 34  0  0  0  0  0  0  0  0999 V2000
   56.1190   23.5250   48.0670 C   0  0  0  0  0  0  0  0  0  0  0  0
   55.8870   24.2020   46.8360 O   0  0  0  0  0  0  0  0  0  0  0  0
   56.5350   25.3850   46.4470 C   0  0  0  0  0  0  0  0  0  0  0  0
   57.9320   25.5210   46.4840 C   0  0  0  0  0  0  0  0  0  0  0  0
   58.5380   26.7130   46.0830 C   0  0  0  0  0  0  0  0  0  0  0  0
   57.7640   27.8020   45.6390 C   0  0  0  0  0  0  0  0  0  0  0  0
   58.4170   29.0660   45.1930 C   0  0  0  0  0  0  0  0  0  0  0  0
   59.4650   29.4620   45.7710 O   0  0  0  0  0  0  0  0  0  0  0  0
   57.8710   29.9010   44.0660 C   0  0  0  0  0  0  0  0  0  0  0  0
   57.1380   31.1080   44.5920 C   0  0  0  0  0  0  0  0  0  0  0  0
   55.8780   31.1000   44.5470 O   0  0  0  0  0  0  0  0  0  0  0  0
   57.8420   32.3030   45.1400 C   0  0  0  0  0  0  0  0  0  0  0  0
   58.1610   32.3590   46.5110 C   0  0  0  0  0  0  0  0  0  0  0  0
   58.8380   33.4600   47.0430 C   0  0  0  0  0  0  0  0  0  0  0  0
   59.2050   34.5230   46.2160 C   0  0  0  0  0  0  0  0  0  0  0  0
   59.8840   35.6130   46.7450 O   0  0  0  0  0  0  0  0  0  0  0  0
   58.8890   34.4880   44.8560 C   0  0  0  0  0  0  0  0  0  0  0  0
   58.2140   33.3880   44.3200 C   0  0  0  0  0  0  0  0  0  0  0  0
   56.3580   27.6640   45.6140 C   0  0  0  0  0  0  0  0  0  0  0  0
   55.5440   28.7190   45.2130 O   0  0  0  0  0  0  0  0  0  0  0  0
   55.7550   26.4620   46.0110 C   0  0  0  0  0  0  0  0  0  0  0  0
   54.3720   26.3410   45.9750 O   0  0  0  0  0  0  0  0  0  0  0  0
   55.8881   24.1988   48.9052 H   0  0  0  0  0  0  0  0  0  0  0  0
   55.4744   22.6354   48.1234 H   0  0  0  0  0  0  0  0  0  0  0  0
   57.1737   23.2177   48.1234 H   0  0  0  0  0  0  0  0  0  0  0  0
   58.5533   24.6824   46.8314 H   0  0  0  0  0  0  0  0  0  0  0  0
   59.6339   26.8025   46.1143 H   0  0  0  0  0  0  0  0  0  0  0  0
   58.7040   30.2353   43.4301 H   0  0  0  0  0  0  0  0  0  0  0  0
   57.1648   29.2879   43.4868 H   0  0  0  0  0  0  0  0  0  0  0  0
   57.8740   31.5267   47.1704 H   0  0  0  0  0  0  0  0  0  0  0  0
   59.0820   33.4889   48.1152 H   0  0  0  0  0  0  0  0  0  0  0  0
   59.1721   35.3284   44.2052 H   0  0  0  0  0  0  0  0  0  0  0  0
   57.9704   33.3684   43.2475 H   0  0  0  0  0  0  0  0  0  0  0  0
  1  2  1  0
  2  3  1  0
  3  4  2  0
  4  5  1  0
  5  6  2  0
  6  7  1  0
  7  8  2  0
  7  9  1  0
  9 10  1  0
 10 11  2  0
 10 12  1  0
 12 13  2  0
 13 14  1  0
 14 15  2  0
 15 16  1  0
 15 17  1  0
 17 18  2  0
  6 19  1  0
 19 20  1  0
 19 21  2  0
 21 22  1  0
 21  3  1  0
 18 12  1  0
  1 23  1  0
  1 24  1  0
  1 25  1  0
  4 26  1  0
  5 27  1  0
  9 28  1  0
  9 29  1  0
 13 30  1  0
 14 31  1  0
 17 32  1  0
 18 33  1  0
M  CHG  3  16  -1  20  -1  22  -1
M  END
>  <UniqueID>  (71) 
65

>  <SMILES>  (71) 
COc1ccc(C(=O)CC(=O)c2ccc([O-])cc2)c([O-])c1[O-]

>  <Energy>  (71) 
38.208142999101256

>  <Genealogy>  (71) 
COc1ccc(C(=O)CC(=O)c2ccc([O-])cc2)c([O-])c1[O-] (protonated)
COc1ccc(C(=O)CC(=O)c2ccc([O-])cc2)c([O-])c1[O-] (3D coordinates assigned)
COc1ccc(C(=O)CC(=O)c2ccc([O-])cc2)c([O-])c1[O-] (optimized conformer: 38.208142999101256 kcal/mol)

>  <smiles>  (71) 
COc1ccc(C(=O)CC(=O)c2ccc(O)cc2)c(O)c1O

>  <score_type>  (71) 
oracle

>  <origin>  (71) 
adg

>  <m_score__min__energy>  (71) 
-15.91

>  <m_primary>  (71) 
energy

$$$$
71:0
     RDKit          3D

 51 54  0  0  0  0  0  0  0  0999 V2000
   65.9350   33.1150   48.4810 H   0  0  0  0  0  0  0  0  0  0  0  0
   65.6100   33.1140   49.4370 O   0  0  0  0  0  0  0  0  0  0  0  0
   65.2750   31.9590   50.1480 C   0  0  0  0  0  0  0  0  0  0  0  0
   66.3190   31.0980   50.5100 C   0  0  0  0  0  0  0  0  0  0  0  0
   67.3470   31.3249   50.1910 H   0  0  0  0  0  0  0  0  0  0  0  0
   66.0690   29.9570   51.2700 C   0  0  0  0  0  0  0  0  0  0  0  0
   66.8970   29.2866   51.5438 H   0  0  0  0  0  0  0  0  0  0  0  0
   64.7720   29.6650   51.6830 C   0  0  0  0  0  0  0  0  0  0  0  0
   64.5787   28.7720   52.2955 H   0  0  0  0  0  0  0  0  0  0  0  0
   63.7160   30.5040   51.3210 C   0  0  0  0  0  0  0  0  0  0  0  0
   62.6969   30.2719   51.6639 H   0  0  0  0  0  0  0  0  0  0  0  0
   63.9380   31.6460   50.5210 C   0  0  0  0  0  0  0  0  0  0  0  0
   62.7750   32.5560   50.1300 C   0  0  1  0  0  0  0  0  0  0  0  0
   62.5748   33.2391   50.9687 H   0  0  0  0  0  0  0  0  0  0  0  0
   63.1190   33.3870   48.9730 N   0  0  0  0  0  0  0  0  0  0  0  0
   63.7830   34.1820   49.1080 H   0  0  0  0  0  0  0  0  0  0  0  0
   62.7490   33.0000   47.6480 C   0  0  0  0  0  0  0  0  0  0  0  0
   63.3570   33.7910   46.3540 S   0  0  0  0  0  0  0  0  0  0  0  0
   61.8120   31.9450   47.4540 N   0  0  0  0  0  0  0  0  0  0  0  0
   61.2530   31.3240   48.4480 C   0  0  0  0  0  0  0  0  0  0  0  0
   60.1000   30.4400   48.2200 C   0  0  0  0  0  0  0  0  0  0  0  0
   60.0400   29.6440   47.1350 C   0  0  0  0  0  0  0  0  0  0  0  0
   60.9502   29.5415   46.5259 H   0  0  0  0  0  0  0  0  0  0  0  0
   58.8380   28.8980   46.7040 C   0  0  0  0  0  0  0  0  0  0  0  0
   58.6550   27.5830   47.1550 C   0  0  0  0  0  0  0  0  0  0  0  0
   59.4127   27.1147   47.8004 H   0  0  0  0  0  0  0  0  0  0  0  0
   57.5150   26.8660   46.7880 C   0  0  0  0  0  0  0  0  0  0  0  0
   57.3848   25.8299   47.1337 H   0  0  0  0  0  0  0  0  0  0  0  0
   56.5380   27.4590   45.9830 C   0  0  0  0  0  0  0  0  0  0  0  0
   55.4100   26.7310   45.6210 O   0  0  0  0  0  0  0  0  0  0  0  0
   56.6890   28.7820   45.5470 C   0  0  0  0  0  0  0  0  0  0  0  0
   55.6800   29.3450   44.7490 O   0  0  0  0  0  0  0  0  0  0  0  0
   55.9110   30.0280   43.5210 C   0  0  0  0  0  0  0  0  0  0  0  0
   56.2570   31.0511   43.7299 H   0  0  0  0  0  0  0  0  0  0  0  0
   56.6780   29.4925   42.9423 H   0  0  0  0  0  0  0  0  0  0  0  0
   54.9764   30.0680   42.9423 H   0  0  0  0  0  0  0  0  0  0  0  0
   57.8400   29.5040   45.9220 C   0  0  0  0  0  0  0  0  0  0  0  0
   57.9579   30.5493   45.6002 H   0  0  0  0  0  0  0  0  0  0  0  0
   59.0150   30.5340   49.2730 C   0  0  0  0  0  0  0  0  0  0  0  0
   58.0483   30.2536   48.8293 H   0  0  0  0  0  0  0  0  0  0  0  0
   59.2495   29.8512   50.1029 H   0  0  0  0  0  0  0  0  0  0  0  0
   58.9400   31.9240   49.7830 N   0  0  0  0  0  0  0  0  0  0  0  0
   57.8000   32.0780   50.6970 C   0  0  0  0  0  0  0  0  0  0  0  0
   58.1549   32.0301   51.7371 H   0  0  0  0  0  0  0  0  0  0  0  0
   57.3161   33.0497   50.5191 H   0  0  0  0  0  0  0  0  0  0  0  0
   57.0756   31.2696   50.5191 H   0  0  0  0  0  0  0  0  0  0  0  0
   60.1970   32.4160   50.4180 C   0  0  0  0  0  0  0  0  0  0  0  0
   60.2818   33.4962   50.2282 H   0  0  0  0  0  0  0  0  0  0  0  0
   60.1276   32.1816   51.4905 H   0  0  0  0  0  0  0  0  0  0  0  0
   61.4780   31.7240   49.8860 C   0  0  2  0  0  0  0  0  0  0  0  0
   61.6627   30.8081   50.4666 H   0  0  0  0  0  0  0  0  0  0  0  0
  1  2  1  0
  2  3  1  0
  3  4  2  0
  4  5  1  0
  4  6  1  0
  6  7  1  0
  6  8  2  0
  8  9  1  0
  8 10  1  0
 10 11  1  0
 10 12  2  0
 12 13  1  0
 13 14  1  1
 13 15  1  0
 15 16  1  0
 15 17  1  0
 17 18  2  0
 17 19  1  0
 19 20  2  0
 20 21  1  0
 21 22  2  0
 22 23  1  0
 22 24  1  0
 24 25  2  0
 25 26  1  0
 25 27  1  0
 27 28  1  0
 27 29  2  0
 29 30  1  0
 29 31  1  0
 31 32  1  0
 32 33  1  0
 33 34  1  0
 33 35  1  0
 33 36  1  0
 31 37  2  0
 37 38  1  0
 21 39  1  0
 39 40  1  0
 39 41  1  0
 39 42  1  0
 42 43  1  0
 43 44  1  0
 43 45  1  0
 43 46  1  0
 42 47  1  0
 47 48  1  0
 47 49  1  0
 47 50  1  0
 50 51  1  1
 12  3  1  0
 50 13  1  0
 50 20  1  0
 37 24  1  0
M  CHG  1  30  -1
M  END
>  <UniqueID>  (72) 
66

>  <SMILES>  (72) 
COc1cc(/C=C2\CN(C)C[C@H]3C2=NC(=S)N[C@@H]3c2ccccc2O)ccc1[O-]

>  <Energy>  (72) 
77.93430719367323

>  <Genealogy>  (72) 
COc1cc(C=C2CN(C)CC3C2=NC(=S)NC3c2ccccc2O)ccc1[O-] (protonated)
COc1cc(C=C2CN(C)C[C@H]3C2=NC(=S)N[C@@H]3c2ccccc2O)ccc1[O-] (chirality)
COc1cc(/C=C2\CN(C)C[C@H]3C2=NC(=S)N[C@@H]3c2ccccc2O)ccc1[O-] (cis-trans isomerization)
COc1cc(/C=C2\CN(C)C[C@H]3C2=NC(=S)N[C@@H]3c2ccccc2O)ccc1[O-] (3D coordinates assigned)
COc1cc(/C=C2\CN(C)C[C@H]3C2=NC(=S)N[C@@H]3c2ccccc2O)ccc1[O-] (nonaromatic ring conformer: 77.93430719367323 kcal/mol)

>  <smiles>  (72) 
COc1cc(C=C2CN(C)CC3C2=NC(=S)NC3c2ccccc2O)ccc1O

>  <score_type>  (72) 
oracle

>  <origin>  (72) 
adg

>  <m_score__min__energy>  (72) 
-11.17

>  <m_primary>  (72) 
energy

$$$$
72:0
     RDKit          3D

 34 36  0  0  0  0  0  0  0  0999 V2000
   58.0640   32.3630   41.5130 C   0  0  0  0  0  0  0  0  0  0  0  0
   57.5830   31.8480   42.8450 C   0  0  0  0  0  0  0  0  0  0  0  0
   56.7240   30.7410   42.8820 C   0  0  0  0  0  0  0  0  0  0  0  0
   56.2750   30.2610   44.1150 C   0  0  0  0  0  0  0  0  0  0  0  0
   55.5040   29.2670   44.1580 O   0  0  0  0  0  0  0  0  0  0  0  0
   56.6560   30.8460   45.2440 O   0  0  0  0  0  0  0  0  0  0  0  0
   57.4690   31.8980   45.2690 C   0  0  0  0  0  0  0  0  0  0  0  0
   57.8260   32.4580   46.4990 C   0  0  0  0  0  0  0  0  0  0  0  0
   58.6850   33.5610   46.5600 C   0  0  0  0  0  0  0  0  0  0  0  0
   59.0110   34.0730   47.8270 O   0  0  0  0  0  0  0  0  0  0  0  0
   60.1990   34.7970   48.1500 C   0  0  0  0  0  0  0  0  0  0  0  0
   61.1450   33.9540   49.0110 C   0  0  0  0  0  0  0  0  0  0  0  0
   62.1250   33.2670   48.1740 N   0  0  0  0  0  0  0  0  0  0  0  0
   62.9390   33.8230   47.2620 C   0  0  0  0  0  0  0  0  0  0  0  0
   63.7460   32.8270   46.7570 C   0  0  0  0  0  0  0  0  0  0  0  0
   63.4490   31.6550   47.3570 N   0  0  0  0  0  0  0  0  0  0  0  0
   62.4560   31.9620   48.2190 C   0  0  0  0  0  0  0  0  0  0  0  0
   59.1790   34.1140   45.3650 C   0  0  0  0  0  0  0  0  0  0  0  0
   58.8270   33.5620   44.1290 C   0  0  0  0  0  0  0  0  0  0  0  0
   57.9700   32.4460   44.0650 C   0  0  0  0  0  0  0  0  0  0  0  0
   58.8068   33.1583   41.6739 H   0  0  0  0  0  0  0  0  0  0  0  0
   58.5246   31.5403   40.9464 H   0  0  0  0  0  0  0  0  0  0  0  0
   57.2118   32.7664   40.9464 H   0  0  0  0  0  0  0  0  0  0  0  0
   56.4060   30.2542   41.9482 H   0  0  0  0  0  0  0  0  0  0  0  0
   57.4273   32.0269   47.4292 H   0  0  0  0  0  0  0  0  0  0  0  0
   60.7138   35.0754   47.2186 H   0  0  0  0  0  0  0  0  0  0  0  0
   59.9159   35.6942   48.7200 H   0  0  0  0  0  0  0  0  0  0  0  0
   61.6713   34.6107   49.7194 H   0  0  0  0  0  0  0  0  0  0  0  0
   60.5546   33.2028   49.5561 H   0  0  0  0  0  0  0  0  0  0  0  0
   62.9580   34.8835   46.9704 H   0  0  0  0  0  0  0  0  0  0  0  0
   64.5151   32.9658   45.9829 H   0  0  0  0  0  0  0  0  0  0  0  0
   61.9724   31.2298   48.8824 H   0  0  0  0  0  0  0  0  0  0  0  0
   59.8471   34.9870   45.4027 H   0  0  0  0  0  0  0  0  0  0  0  0
   59.2218   34.0020   43.2014 H   0  0  0  0  0  0  0  0  0  0  0  0
  1  2  1  0
  2  3  2  0
  3  4  1  0
  4  5  2  0
  4  6  1  0
  6  7  1  0
  7  8  2  0
  8  9  1  0
  9 10  1  0
 10 11  1  0
 11 12  1  0
 12 13  1  0
 13 14  1  0
 14 15  2  0
 15 16  1  0
 16 17  2  0
  9 18  2  0
 18 19  1  0
 19 20  2  0
 20  2  1  0
 20  7  1  0
 17 13  1  0
  1 21  1  0
  1 22  1  0
  1 23  1  0
  3 24  1  0
  8 25  1  0
 11 26  1  0
 11 27  1  0
 12 28  1  0
 12 29  1  0
 14 30  1  0
 15 31  1  0
 17 32  1  0
 18 33  1  0
 19 34  1  0
M  END
>  <UniqueID>  (73) 
67

>  <SMILES>  (73) 
Cc1cc(=O)oc2cc(OCCn3ccnc3)ccc12

>  <Energy>  (73) 
67.78343618219893

>  <Genealogy>  (73) 
Cc1cc(=O)oc2cc(OCCn3ccnc3)ccc12 (3D coordinates assigned)
Cc1cc(=O)oc2cc(OCCn3ccnc3)ccc12 (optimized conformer: 67.78343618219893 kcal/mol)

>  <smiles>  (73) 
Cc1cc(=O)oc2cc(OCCn3ccnc3)ccc12

>  <score_type>  (73) 
oracle

>  <origin>  (73) 
adg

>  <m_score__min__energy>  (73) 
-7.3600000000000003

>  <m_primary>  (73) 
energy

$$$$
73:0
     RDKit          3D

 22 22  0  0  0  0  0  0  0  0999 V2000
   60.8570   29.6890   46.1190 C   0  0  0  0  0  0  0  0  0  0  0  0
   60.4600   28.6920   45.0330 C   0  0  0  0  0  0  0  0  0  0  0  0
   59.1230   28.1310   45.3070 N   0  0  0  0  0  0  0  0  0  0  0  0
   59.0690   26.8770   45.8550 C   0  0  0  0  0  0  0  0  0  0  0  0
   57.8500   26.2710   46.1440 C   0  0  0  0  0  0  0  0  0  0  0  0
   56.6670   26.9450   45.8710 C   0  0  0  0  0  0  0  0  0  0  0  0
   55.5630   26.3990   46.1420 O   0  0  0  0  0  0  0  0  0  0  0  0
   56.7080   28.2230   45.2970 C   0  0  0  0  0  0  0  0  0  0  0  0
   55.5240   28.9140   45.0290 O   0  0  0  0  0  0  0  0  0  0  0  0
   57.9600   28.8080   44.9950 C   0  0  0  0  0  0  0  0  0  0  0  0
   57.9970   30.1920   44.3840 C   0  0  0  0  0  0  0  0  0  0  0  0
   60.6794   29.2431   47.1088 H   0  0  0  0  0  0  0  0  0  0  0  0
   61.9232   29.9389   46.0153 H   0  0  0  0  0  0  0  0  0  0  0  0
   60.2544   30.6034   46.0153 H   0  0  0  0  0  0  0  0  0  0  0  0
   60.4445   29.2045   44.0598 H   0  0  0  0  0  0  0  0  0  0  0  0
   61.1929   27.8718   45.0194 H   0  0  0  0  0  0  0  0  0  0  0  0
   60.0046   26.3400   46.0702 H   0  0  0  0  0  0  0  0  0  0  0  0
   57.8237   25.2641   46.5861 H   0  0  0  0  0  0  0  0  0  0  0  0
   54.7670   28.5070   44.4940 H   0  0  0  0  0  0  0  0  0  0  0  0
   58.0172   30.9459   45.1848 H   0  0  0  0  0  0  0  0  0  0  0  0
   58.8982   30.2940   43.7616 H   0  0  0  0  0  0  0  0  0  0  0  0
   57.1025   30.3421   43.7616 H   0  0  0  0  0  0  0  0  0  0  0  0
  1  2  1  0
  2  3  1  0
  3  4  1  0
  4  5  2  0
  5  6  1  0
  6  7  2  0
  6  8  1  0
  8  9  1  0
  8 10  2  0
 10 11  1  0
 10  3  1  0
  1 12  1  0
  1 13  1  0
  1 14  1  0
  2 15  1  0
  2 16  1  0
  4 17  1  0
  5 18  1  0
  9 19  1  0
 11 20  1  0
 11 21  1  0
 11 22  1  0
M  END
>  <UniqueID>  (74) 
68

>  <SMILES>  (74) 
CCn1ccc(=O)c(O)c1C

>  <Energy>  (74) 
22.19251772101795

>  <Genealogy>  (74) 
CCn1ccc(=O)c(O)c1C (3D coordinates assigned)
CCn1ccc(=O)c(O)c1C (optimized conformer: 22.19251772101795 kcal/mol)

>  <smiles>  (74) 
CCn1ccc(=O)c(O)c1C

>  <score_type>  (74) 
oracle

>  <origin>  (74) 
adg

>  <m_score__min__energy>  (74) 
-5.4000000000000004

>  <m_primary>  (74) 
energy

$$$$
74:0
     RDKit          3D

 39 41  0  0  0  0  0  0  0  0999 V2000
   59.9420   31.0550   47.6590 O   0  0  0  0  0  0  0  0  0  0  0  0
   61.1000   30.8560   47.2310 C   0  0  0  0  0  0  0  0  0  0  0  0
   61.2770   29.9120   46.1980 N   0  0  0  0  0  0  0  0  0  0  0  0
   60.1150   29.2460   45.7110 C   0  0  0  0  0  0  0  0  0  0  0  0
   60.1730   27.8500   45.7220 C   0  0  0  0  0  0  0  0  0  0  0  0
   59.0890   27.1330   45.2680 C   0  0  0  0  0  0  0  0  0  0  0  0
   57.9750   27.8040   44.8140 C   0  0  0  0  0  0  0  0  0  0  0  0
   57.8800   29.1850   44.7880 C   0  0  0  0  0  0  0  0  0  0  0  0
   56.4480   29.9970   44.2250 S   0  0  0  0  0  0  0  0  0  0  0  0
   55.2180   29.3250   44.8080 O   0  0  0  0  0  0  0  0  0  0  0  0
   56.3850   29.7370   42.7140 O   0  0  0  0  0  0  0  0  0  0  0  0
   56.3560   31.6280   44.5230 N   0  0  0  0  0  0  0  0  0  0  0  0
   57.1710   32.5050   44.9240 C   0  0  0  0  0  0  0  0  0  0  0  0
   57.3740   32.5260   46.2810 N   0  0  0  0  0  0  0  0  0  0  0  0
   58.2070   33.4020   46.8230 C   0  0  0  0  0  0  0  0  0  0  0  0
   58.9170   34.3360   46.0900 C   0  0  0  0  0  0  0  0  0  0  0  0
   58.7050   34.3080   44.7200 C   0  0  0  0  0  0  0  0  0  0  0  0
   57.8440   33.3930   44.2170 N   0  0  0  0  0  0  0  0  0  0  0  0
   59.0000   29.8830   45.2570 C   0  0  0  0  0  0  0  0  0  0  0  0
   62.1890   31.6170   47.8320 C   0  0  0  0  0  0  0  0  0  0  0  0
   62.7040   32.6820   47.1200 C   0  0  0  0  0  0  0  0  0  0  0  0
   63.7400   33.4170   47.6730 C   0  0  0  0  0  0  0  0  0  0  0  0
   64.2720   33.1340   48.8920 C   0  0  0  0  0  0  0  0  0  0  0  0
   63.7590   32.0720   49.6030 C   0  0  0  0  0  0  0  0  0  0  0  0
   64.2460   31.7250   50.8410 F   0  0  0  0  0  0  0  0  0  0  0  0
   62.7240   31.3230   49.0680 C   0  0  0  0  0  0  0  0  0  0  0  0
   62.2360   29.7280   45.8240 H   0  0  0  0  0  0  0  0  0  0  0  0
   61.0715   27.3316   46.0880 H   0  0  0  0  0  0  0  0  0  0  0  0
   59.1123   26.0332   45.2678 H   0  0  0  0  0  0  0  0  0  0  0  0
   57.1191   27.2139   44.4546 H   0  0  0  0  0  0  0  0  0  0  0  0
   58.3413   33.3858   47.9146 H   0  0  0  0  0  0  0  0  0  0  0  0
   59.6041   35.0533   46.5626 H   0  0  0  0  0  0  0  0  0  0  0  0
   59.2254   35.0142   44.0563 H   0  0  0  0  0  0  0  0  0  0  0  0
   57.7210   33.4120   43.1910 H   0  0  0  0  0  0  0  0  0  0  0  0
   58.9784   30.9828   45.2588 H   0  0  0  0  0  0  0  0  0  0  0  0
   62.2988   32.9423   46.1310 H   0  0  0  0  0  0  0  0  0  0  0  0
   64.1489   34.2641   47.1027 H   0  0  0  0  0  0  0  0  0  0  0  0
   65.0939   33.7399   49.3011 H   0  0  0  0  0  0  0  0  0  0  0  0
   62.3204   30.4756   49.6416 H   0  0  0  0  0  0  0  0  0  0  0  0
  1  2  2  0
  2  3  1  0
  3  4  1  0
  4  5  2  0
  5  6  1  0
  6  7  2  0
  7  8  1  0
  8  9  1  0
  9 10  2  0
  9 11  2  0
  9 12  1  0
 12 13  2  3
 13 14  1  0
 14 15  2  0
 15 16  1  0
 16 17  2  0
 17 18  1  0
  8 19  2  0
  2 20  1  0
 20 21  2  0
 21 22  1  0
 22 23  2  0
 23 24  1  0
 24 25  1  0
 24 26  2  0
 19  4  1  0
 26 20  1  0
 18 13  1  0
  3 27  1  0
  5 28  1  0
  6 29  1  0
  7 30  1  0
 15 31  1  0
 16 32  1  0
 17 33  1  0
 18 34  1  0
 19 35  1  0
 21 36  1  0
 22 37  1  0
 23 38  1  0
 26 39  1  0
M  END
>  <smiles>  (75) 
O=C(Nc1cccc(S(=O)(=O)N=c2nccc[nH]2)c1)c1cccc(F)c1

>  <score_type>  (75) 
oracle

>  <origin>  (75) 
adg

>  <m_score__min__energy>  (75) 
-8.5

>  <m_primary>  (75) 
energy

$$$$
75:0
     RDKit          3D

 48 49  0  0  0  0  0  0  0  0999 V2000
   57.1040   32.6770   40.5150 C   0  0  0  0  0  0  0  0  0  0  0  0
   58.1050   32.0970   41.3210 O   0  0  0  0  0  0  0  0  0  0  0  0
   57.7650   32.2600   42.6820 C   0  0  0  0  0  0  0  0  0  0  0  0
   56.9880   31.0380   43.1570 C   0  0  0  0  0  0  0  0  0  0  0  0
   57.2300   30.8080   44.5750 N   0  0  0  0  0  0  0  0  0  0  0  0
   56.9410   29.5580   45.2090 C   0  0  0  0  0  0  0  0  0  0  0  0
   55.7690   29.0930   45.1790 O   0  0  0  0  0  0  0  0  0  0  0  0
   58.0090   28.8180   45.9270 C   0  0  0  0  0  0  0  0  0  0  0  0
   58.6570   29.4430   47.0220 C   0  0  0  0  0  0  0  0  0  0  0  0
   58.3300   30.7410   47.4470 O   0  0  0  0  0  0  0  0  0  0  0  0
   59.0870   31.8900   47.1750 C   0  0  0  0  0  0  0  0  0  0  0  0
   60.2720   32.1910   47.8680 C   0  0  0  0  0  0  0  0  0  0  0  0
   60.9760   33.3720   47.5920 C   0  0  0  0  0  0  0  0  0  0  0  0
   62.1980   33.7210   48.3890 C   0  0  0  0  0  0  0  0  0  0  0  0
   60.4850   34.2590   46.6210 C   0  0  0  0  0  0  0  0  0  0  0  0
   59.3270   33.9460   45.8950 C   0  0  0  0  0  0  0  0  0  0  0  0
   58.7800   34.9210   44.8950 C   0  0  0  0  0  0  0  0  0  0  0  0
   58.6360   32.7590   46.1760 C   0  0  0  0  0  0  0  0  0  0  0  0
   59.6630   28.7600   47.7010 C   0  0  0  0  0  0  0  0  0  0  0  0
   60.2750   29.3150   48.6530 O   0  0  0  0  0  0  0  0  0  0  0  0
   59.9750   27.4550   47.3490 C   0  0  0  0  0  0  0  0  0  0  0  0
   59.3000   26.8320   46.2930 C   0  0  0  0  0  0  0  0  0  0  0  0
   59.6500   25.3940   45.9860 C   0  0  0  0  0  0  0  0  0  0  0  0
   58.3760   27.5390   45.5480 N   0  0  0  0  0  0  0  0  0  0  0  0
   57.7650   26.9170   44.3540 C   0  0  0  0  0  0  0  0  0  0  0  0
   56.3307   33.1250   41.1563 H   0  0  0  0  0  0  0  0  0  0  0  0
   57.5504   33.4563   39.8799 H   0  0  0  0  0  0  0  0  0  0  0  0
   56.6499   31.9021   39.8799 H   0  0  0  0  0  0  0  0  0  0  0  0
   58.6823   32.3673   43.2796 H   0  0  0  0  0  0  0  0  0  0  0  0
   57.1446   33.1604   42.8015 H   0  0  0  0  0  0  0  0  0  0  0  0
   55.9130   31.2051   42.9943 H   0  0  0  0  0  0  0  0  0  0  0  0
   57.3214   30.1573   42.5885 H   0  0  0  0  0  0  0  0  0  0  0  0
   60.6498   31.4956   48.6320 H   0  0  0  0  0  0  0  0  0  0  0  0
   61.9669   33.6550   49.4624 H   0  0  0  0  0  0  0  0  0  0  0  0
   63.0083   33.0183   48.1445 H   0  0  0  0  0  0  0  0  0  0  0  0
   62.5150   34.7456   48.1445 H   0  0  0  0  0  0  0  0  0  0  0  0
   61.0119   35.2052   46.4285 H   0  0  0  0  0  0  0  0  0  0  0  0
   58.3080   35.7623   45.4235 H   0  0  0  0  0  0  0  0  0  0  0  0
   59.5987   35.2973   44.2641 H   0  0  0  0  0  0  0  0  0  0  0  0
   58.0321   34.4184   44.2641 H   0  0  0  0  0  0  0  0  0  0  0  0
   57.7298   32.5084   45.6050 H   0  0  0  0  0  0  0  0  0  0  0  0
   60.7543   26.9089   47.9008 H   0  0  0  0  0  0  0  0  0  0  0  0
   59.7847   24.8405   46.9270 H   0  0  0  0  0  0  0  0  0  0  0  0
   58.8373   24.9351   45.4038 H   0  0  0  0  0  0  0  0  0  0  0  0
   60.5827   25.3599   45.4038 H   0  0  0  0  0  0  0  0  0  0  0  0
   57.0265   26.1652   44.6695 H   0  0  0  0  0  0  0  0  0  0  0  0
   57.2662   27.6909   43.7521 H   0  0  0  0  0  0  0  0  0  0  0  0
   58.5477   26.4321   43.7521 H   0  0  0  0  0  0  0  0  0  0  0  0
  1  2  1  0
  2  3  1  0
  3  4  1  0
  4  5  1  0
  5  6  1  0
  6  7  2  0
  6  8  1  0
  8  9  2  0
  9 10  1  0
 10 11  1  0
 11 12  2  0
 12 13  1  0
 13 14  1  0
 13 15  2  0
 15 16  1  0
 16 17  1  0
 16 18  2  0
  9 19  1  0
 19 20  2  0
 19 21  1  0
 21 22  2  0
 22 23  1  0
 22 24  1  0
 24 25  1  0
 24  8  1  0
 18 11  1  0
  1 26  1  0
  1 27  1  0
  1 28  1  0
  3 29  1  0
  3 30  1  0
  4 31  1  0
  4 32  1  0
 12 33  1  0
 14 34  1  0
 14 35  1  0
 14 36  1  0
 15 37  1  0
 17 38  1  0
 17 39  1  0
 17 40  1  0
 18 41  1  0
 21 42  1  0
 23 43  1  0
 23 44  1  0
 23 45  1  0
 25 46  1  0
 25 47  1  0
 25 48  1  0
M  CHG  1   5  -1
M  END
>  <UniqueID>  (76) 
69

>  <SMILES>  (76) 
COCC[N-]C(=O)c1c(Oc2cc(C)cc(C)c2)c(=O)cc(C)n1C

>  <Energy>  (76) 
59.4928447198603

>  <Genealogy>  (76) 
COCC[N-]C(=O)c1c(Oc2cc(C)cc(C)c2)c(=O)cc(C)n1C (protonated)
COCC[N-]C(=O)c1c(Oc2cc(C)cc(C)c2)c(=O)cc(C)n1C (3D coordinates assigned)
COCC[N-]C(=O)c1c(Oc2cc(C)cc(C)c2)c(=O)cc(C)n1C (optimized conformer: 59.4928447198603 kcal/mol)

>  <smiles>  (76) 
COCCNC(=O)c1c(Oc2cc(C)cc(C)c2)c(=O)cc(C)n1C

>  <score_type>  (76) 
oracle

>  <origin>  (76) 
adg

>  <m_score__min__energy>  (76) 
-8.9800000000000004

>  <m_primary>  (76) 
energy

$$$$
76:0
     RDKit          3D

 56 59  0  0  0  0  0  0  0  0999 V2000
   57.0960   34.2830   44.6220 H   0  0  0  0  0  0  0  0  0  0  0  0
   56.6450   33.6320   45.2530 O   0  0  0  0  0  0  0  0  0  0  0  0
   57.1270   32.3440   45.4900 C   0  0  0  0  0  0  0  0  0  0  0  0
   56.6910   31.3350   44.6990 N   0  0  0  0  0  0  0  0  0  0  0  0
   57.1240   30.0610   44.8580 C   0  0  0  0  0  0  0  0  0  0  0  0
   56.7000   29.1690   44.0740 O   0  0  0  0  0  0  0  0  0  0  0  0
   58.0190   29.7530   45.8490 N   0  0  0  0  0  0  0  0  0  0  0  0
   58.4810   28.3960   46.0150 C   0  0  0  0  0  0  0  0  0  0  0  0
   59.8450   28.0900   45.8720 C   0  0  0  0  0  0  0  0  0  0  0  0
   60.5625   28.8870   45.6270 H   0  0  0  0  0  0  0  0  0  0  0  0
   60.2940   26.7760   46.0400 C   0  0  0  0  0  0  0  0  0  0  0  0
   61.3628   26.5417   45.9274 H   0  0  0  0  0  0  0  0  0  0  0  0
   59.3850   25.7600   46.3510 C   0  0  0  0  0  0  0  0  0  0  0  0
   59.7389   24.7268   46.4823 H   0  0  0  0  0  0  0  0  0  0  0  0
   58.0270   26.0570   46.4950 C   0  0  0  0  0  0  0  0  0  0  0  0
   57.3130   25.2567   46.7393 H   0  0  0  0  0  0  0  0  0  0  0  0
   57.5740   27.3700   46.3290 C   0  0  0  0  0  0  0  0  0  0  0  0
   56.5045   27.5999   46.4446 H   0  0  0  0  0  0  0  0  0  0  0  0
   58.4750   30.7400   46.6850 C   0  0  0  0  0  0  0  0  0  0  0  0
   59.2530   30.4510   47.6400 O   0  0  0  0  0  0  0  0  0  0  0  0
   58.0590   32.0740   46.5060 C   0  0  0  0  0  0  0  0  0  0  0  0
   61.2520   33.9950   48.5870 C   0  0  0  0  0  0  0  0  0  0  0  0
   60.5117   35.8164   47.8595 H   0  0  0  0  0  0  0  0  0  0  0  0
   60.4040   34.7220   47.8330 C   0  0  0  0  0  0  0  0  0  0  0  0
   59.2480   34.5850   45.5950 C   0  0  0  0  0  0  0  0  0  0  0  0
   59.1740   34.9250   44.4920 N   0  0  0  0  0  0  0  0  0  0  0  0
   59.3390   34.1610   46.9720 C   0  0  0  0  0  0  0  0  0  0  0  0
   58.2501   33.1383   48.4505 H   0  0  0  0  0  0  0  0  0  0  0  0
   58.5490   33.1570   47.3920 C   0  0  0  0  0  0  0  0  0  0  0  0
   61.2100   33.8970   50.0240 N   0  0  0  0  0  0  0  0  0  0  0  0
   59.9970   33.7390   50.8300 C   0  0  0  0  0  0  0  0  0  0  0  0
   60.2592   33.7732   51.8977 H   0  0  0  0  0  0  0  0  0  0  0  0
   59.2945   34.5532   50.5987 H   0  0  0  0  0  0  0  0  0  0  0  0
   59.5265   32.7720   50.5987 H   0  0  0  0  0  0  0  0  0  0  0  0
   62.4100   33.2160   50.3700 C   0  0  0  0  0  0  0  0  0  0  0  0
   62.8450   32.9140   51.6640 C   0  0  0  0  0  0  0  0  0  0  0  0
   62.2591   33.2279   52.5405 H   0  0  0  0  0  0  0  0  0  0  0  0
   64.0430   32.2030   51.8220 C   0  0  0  0  0  0  0  0  0  0  0  0
   64.4120   31.9727   52.8324 H   0  0  0  0  0  0  0  0  0  0  0  0
   64.7800   31.7800   50.6930 C   0  0  0  0  0  0  0  0  0  0  0  0
   66.0780   31.0500   50.8720 C   0  0  0  0  0  0  0  0  0  0  0  0
   66.2874   30.9322   51.9454 H   0  0  0  0  0  0  0  0  0  0  0  0
   66.0090   30.0584   50.4009 H   0  0  0  0  0  0  0  0  0  0  0  0
   66.8895   31.6240   50.4009 H   0  0  0  0  0  0  0  0  0  0  0  0
   64.3240   32.1030   49.4010 C   0  0  0  0  0  0  0  0  0  0  0  0
   64.8967   31.7969   48.5131 H   0  0  0  0  0  0  0  0  0  0  0  0
   63.1300   32.8200   49.2650 C   0  0  0  0  0  0  0  0  0  0  0  0
   62.4400   33.2480   48.0020 C   0  0  0  0  0  0  0  0  0  0  0  0
   63.3530   34.1760   47.1790 C   0  0  0  0  0  0  0  0  0  0  0  0
   63.9590   34.7920   47.8597 H   0  0  0  0  0  0  0  0  0  0  0  0
   64.0163   33.5695   46.5448 H   0  0  0  0  0  0  0  0  0  0  0  0
   62.7358   34.8293   46.5448 H   0  0  0  0  0  0  0  0  0  0  0  0
   61.9840   32.0300   47.1860 C   0  0  0  0  0  0  0  0  0  0  0  0
   61.6818   31.2229   47.8696 H   0  0  0  0  0  0  0  0  0  0  0  0
   61.1306   32.3121   46.5519 H   0  0  0  0  0  0  0  0  0  0  0  0
   62.8129   31.6823   46.5519 H   0  0  0  0  0  0  0  0  0  0  0  0
  1  2  1  0
  2  3  1  0
  3  4  1  0
  4  5  1  0
  5  6  2  0
  5  7  1  0
  7  8  1  0
  8  9  2  0
  9 10  1  0
  9 11  1  0
 11 12  1  0
 11 13  2  0
 13 14  1  0
 13 15  1  0
 15 16  1  0
 15 17  2  0
 17 18  1  0
  7 19  1  0
 19 20  2  0
 19 21  1  0
 21 22  1  0
 22 23  1  0
 22 24  2  0
 24 25  1  0
 25 26  3  0
 24 27  1  0
 27 28  1  0
 27 29  2  0
 29 30  1  0
 30 31  1  0
 31 32  1  0
 31 33  1  0
 31 34  1  0
 30 35  1  0
 35 36  2  0
 36 37  1  0
 36 38  1  0
 38 39  1  0
 38 40  2  0
 40 41  1  0
 41 42  1  0
 41 43  1  0
 41 44  1  0
 40 45  1  0
 45 46  1  0
 45 47  2  0
 47 48  1  0
 48 49  1  0
 49 50  1  0
 49 51  1  0
 49 52  1  0
 48 53  1  0
 53 54  1  0
 53 55  1  0
 53 56  1  0
 21  3  2  0
 48 29  1  0
 17  8  1  0
 47 35  1  0
M  CHG  1   4  -1
M  END
>  <UniqueID>  (77) 
70

>  <SMILES>  (77) 
Cc1ccc2c(c1)C(C)(C)/C(=C/C(C#N)=Cc1c(O)[n-]c(=O)n(-c3ccccc3)c1=O)N2C

>  <Energy>  (77) 
100.1795539996175

>  <Genealogy>  (77) 
Cc1ccc2c(c1)C(C)(C)C(=CC(C#N)=Cc1c(O)[n-]c(=O)n(-c3ccccc3)c1=O)N2C (protonated)
Cc1ccc2c(c1)C(C)(C)/C(=C/C(C#N)=Cc1c(O)[n-]c(=O)n(-c3ccccc3)c1=O)N2C (cis-trans isomerization)
Cc1ccc2c(c1)C(C)(C)/C(=C/C(C#N)=Cc1c(O)[n-]c(=O)n(-c3ccccc3)c1=O)N2C (3D coordinates assigned)
Cc1ccc2c(c1)C(C)(C)/C(=C/C(C#N)=Cc1c(O)[n-]c(=O)n(-c3ccccc3)c1=O)N2C (nonaromatic ring conformer: 100.1795539996175 kcal/mol)

>  <smiles>  (77) 
Cc1ccc2c(c1)C(C)(C)C(=CC(C#N)=Cc1c(O)[nH]c(=O)n(-c3ccccc3)c1=O)N2C

>  <score_type>  (77) 
oracle

>  <origin>  (77) 
adg

>  <m_score__min__energy>  (77) 
-10.970000000000001

>  <m_primary>  (77) 
energy

$$$$
77:0
     RDKit          3D

 39 41  0  0  0  0  0  0  0  0999 V2000
   59.6190   33.4240   50.5680 C   0  0  0  0  0  0  0  0  0  0  0  0
   59.7200   34.3080   49.4550 O   0  0  0  0  0  0  0  0  0  0  0  0
   59.2670   34.0080   48.1630 C   0  0  0  0  0  0  0  0  0  0  0  0
   59.3490   34.9280   47.0990 C   0  0  0  0  0  0  0  0  0  0  0  0
   58.8830   34.5790   45.8290 C   0  0  0  0  0  0  0  0  0  0  0  0
   58.3210   33.3140   45.6010 C   0  0  0  0  0  0  0  0  0  0  0  0
   57.8630   32.9240   44.2230 C   0  0  0  0  0  0  0  0  0  0  0  0
   57.0900   31.6480   44.2900 C   0  0  0  0  0  0  0  0  0  0  0  0
   55.9680   31.6230   44.8610 O   0  0  0  0  0  0  0  0  0  0  0  0
   57.6400   30.4580   43.7130 N   0  0  0  0  0  0  0  0  0  0  0  0
   57.7980   29.2070   44.3950 C   0  0  0  0  0  0  0  0  0  0  0  0
   59.0840   28.6140   44.4270 C   0  0  0  0  0  0  0  0  0  0  0  0
   59.3010   27.3950   45.0930 C   0  0  0  0  0  0  0  0  0  0  0  0
   58.2150   26.8070   45.7290 C   0  0  0  0  0  0  0  0  0  0  0  0
   58.0940   25.6520   46.4640 C   0  0  0  0  0  0  0  0  0  0  0  0
   56.8070   25.5770   46.8730 N   0  0  0  0  0  0  0  0  0  0  0  0
   56.2470   24.5220   47.7050 C   0  0  0  0  0  0  0  0  0  0  0  0
   56.1130   26.6260   46.4410 N   0  0  0  0  0  0  0  0  0  0  0  0
   56.9720   27.3810   45.7330 C   0  0  0  0  0  0  0  0  0  0  0  0
   56.7210   28.5950   45.0890 C   0  0  0  0  0  0  0  0  0  0  0  0
   55.4660   29.1980   45.1560 O   0  0  0  0  0  0  0  0  0  0  0  0
   58.2510   32.3930   46.6570 C   0  0  0  0  0  0  0  0  0  0  0  0
   58.7170   32.7420   47.9280 C   0  0  0  0  0  0  0  0  0  0  0  0
   59.6850   34.0014   51.5020 H   0  0  0  0  0  0  0  0  0  0  0  0
   58.6547   32.8961   50.5306 H   0  0  0  0  0  0  0  0  0  0  0  0
   60.4394   32.6922   50.5306 H   0  0  0  0  0  0  0  0  0  0  0  0
   59.7816   35.9250   47.2689 H   0  0  0  0  0  0  0  0  0  0  0  0
   58.9573   35.3009   45.0023 H   0  0  0  0  0  0  0  0  0  0  0  0
   57.2221   33.7183   43.8126 H   0  0  0  0  0  0  0  0  0  0  0  0
   58.7403   32.7840   43.5744 H   0  0  0  0  0  0  0  0  0  0  0  0
   59.9246   29.1142   43.9238 H   0  0  0  0  0  0  0  0  0  0  0  0
   60.2949   26.9239   45.1098 H   0  0  0  0  0  0  0  0  0  0  0  0
   58.8923   24.9264   46.6788 H   0  0  0  0  0  0  0  0  0  0  0  0
   56.3839   24.7798   48.7656 H   0  0  0  0  0  0  0  0  0  0  0  0
   55.1737   24.4155   47.4891 H   0  0  0  0  0  0  0  0  0  0  0  0
   56.7603   23.5734   47.4891 H   0  0  0  0  0  0  0  0  0  0  0  0
   55.3250   30.0850   45.6220 H   0  0  0  0  0  0  0  0  0  0  0  0
   57.8278   31.3925   46.4842 H   0  0  0  0  0  0  0  0  0  0  0  0
   58.6510   32.0153   48.7511 H   0  0  0  0  0  0  0  0  0  0  0  0
  1  2  1  0
  2  3  1  0
  3  4  2  0
  4  5  1  0
  5  6  2  0
  6  7  1  0
  7  8  1  0
  8  9  2  0
  8 10  1  0
 10 11  1  0
 11 12  1  0
 12 13  2  0
 13 14  1  0
 14 15  2  0
 15 16  1  0
 16 17  1  0
 16 18  1  0
 18 19  2  0
 19 20  1  0
 20 21  1  0
  6 22  1  0
 22 23  2  0
 23  3  1  0
 20 11  2  0
 19 14  1  0
  1 24  1  0
  1 25  1  0
  1 26  1  0
  4 27  1  0
  5 28  1  0
  7 29  1  0
  7 30  1  0
 12 31  1  0
 13 32  1  0
 15 33  1  0
 17 34  1  0
 17 35  1  0
 17 36  1  0
 21 37  1  0
 22 38  1  0
 23 39  1  0
M  CHG  1  10  -1
M  END
>  <UniqueID>  (78) 
71

>  <SMILES>  (78) 
COc1ccc(CC(=O)[N-]c2ccc3cn(C)nc3c2O)cc1

>  <Energy>  (78) 
80.20357743397307

>  <Genealogy>  (78) 
COc1ccc(CC(=O)[N-]c2ccc3cn(C)nc3c2O)cc1 (protonated)
COc1ccc(CC(=O)[N-]c2ccc3cn(C)nc3c2O)cc1 (3D coordinates assigned)
COc1ccc(CC(=O)[N-]c2ccc3cn(C)nc3c2O)cc1 (optimized conformer: 80.20357743397307 kcal/mol)

>  <smiles>  (78) 
COc1ccc(CC(=O)Nc2ccc3cn(C)nc3c2O)cc1

>  <score_type>  (78) 
oracle

>  <origin>  (78) 
adg

>  <m_score__min__energy>  (78) 
-9.9100000000000001

>  <m_primary>  (78) 
energy

$$$$
78:0
     RDKit          3D

 30 31  0  0  0  0  0  0  0  0999 V2000
   56.3030   21.7010   44.1380 C   0  0  0  0  0  0  0  0  0  0  0  0
   56.5080   23.0500   44.7810 C   0  0  0  0  0  0  0  0  0  0  0  0
   57.8170   23.4460   45.0960 C   0  0  0  0  0  0  0  0  0  0  0  0
   58.0650   24.6800   45.6860 C   0  0  0  0  0  0  0  0  0  0  0  0
   57.0140   25.5610   45.9640 C   0  0  0  0  0  0  0  0  0  0  0  0
   57.3050   26.8640   46.6020 C   0  0  0  0  0  0  0  0  0  0  0  0
   57.8890   26.8850   47.7180 O   0  0  0  0  0  0  0  0  0  0  0  0
   56.9780   28.1490   45.9520 C   0  0  0  0  0  0  0  0  0  0  0  0
   55.8490   28.3400   45.2450 N   0  0  0  0  0  0  0  0  0  0  0  0
   55.9570   29.6130   44.8150 C   0  0  0  0  0  0  0  0  0  0  0  0
   55.0730   30.1700   44.1140 O   0  0  0  0  0  0  0  0  0  0  0  0
   57.0900   30.2400   45.1900 N   0  0  0  0  0  0  0  0  0  0  0  0
   57.7430   29.3050   45.9020 C   0  0  0  0  0  0  0  0  0  0  0  0
   59.0970   29.5320   46.4970 C   0  0  0  0  0  0  0  0  0  0  0  0
   55.6900   25.1830   45.6660 C   0  0  0  0  0  0  0  0  0  0  0  0
   54.6590   26.0880   45.9450 O   0  0  0  0  0  0  0  0  0  0  0  0
   55.4240   23.9180   45.0790 C   0  0  0  0  0  0  0  0  0  0  0  0
   53.9930   23.5320   44.7740 C   0  0  0  0  0  0  0  0  0  0  0  0
   56.1868   20.9360   44.9198 H   0  0  0  0  0  0  0  0  0  0  0  0
   55.3984   21.7266   43.5126 H   0  0  0  0  0  0  0  0  0  0  0  0
   57.1743   21.4567   43.5126 H   0  0  0  0  0  0  0  0  0  0  0  0
   58.6570   22.7717   44.8733 H   0  0  0  0  0  0  0  0  0  0  0  0
   59.0970   24.9666   45.9367 H   0  0  0  0  0  0  0  0  0  0  0  0
   59.0221   29.5194   47.5944 H   0  0  0  0  0  0  0  0  0  0  0  0
   59.7807   28.7359   46.1670 H   0  0  0  0  0  0  0  0  0  0  0  0
   59.4837   30.5075   46.1670 H   0  0  0  0  0  0  0  0  0  0  0  0
   54.7820   27.0910   45.9710 H   0  0  0  0  0  0  0  0  0  0  0  0
   53.4444   23.3840   45.7159 H   0  0  0  0  0  0  0  0  0  0  0  0
   53.5133   24.3328   44.1922 H   0  0  0  0  0  0  0  0  0  0  0  0
   53.9811   22.5985   44.1922 H   0  0  0  0  0  0  0  0  0  0  0  0
  1  2  1  0
  2  3  2  0
  3  4  1  0
  4  5  2  0
  5  6  1  0
  6  7  2  0
  6  8  1  0
  8  9  1  0
  9 10  1  0
 10 11  2  0
 10 12  1  0
 12 13  1  0
 13 14  1  0
  5 15  1  0
 15 16  1  0
 15 17  2  0
 17 18  1  0
 17  2  1  0
 13  8  2  0
  1 19  1  0
  1 20  1  0
  1 21  1  0
  3 22  1  0
  4 23  1  0
 14 24  1  0
 14 25  1  0
 14 26  1  0
 16 27  1  0
 18 28  1  0
 18 29  1  0
 18 30  1  0
M  CHG  2   9  -1  12  -1
M  END
>  <UniqueID>  (79) 
72

>  <SMILES>  (79) 
Cc1ccc(C(=O)c2[n-]c(=O)[n-]c2C)c(O)c1C

>  <Energy>  (79) 
67.4710127010831

>  <Genealogy>  (79) 
Cc1ccc(C(=O)c2[n-]c(=O)[n-]c2C)c(O)c1C (protonated)
Cc1ccc(C(=O)c2[n-]c(=O)[n-]c2C)c(O)c1C (3D coordinates assigned)
Cc1ccc(C(=O)c2[n-]c(=O)[n-]c2C)c(O)c1C (optimized conformer: 67.4710127010831 kcal/mol)

>  <smiles>  (79) 
Cc1ccc(C(=O)c2[nH]c(=O)[nH]c2C)c(O)c1C

>  <score_type>  (79) 
oracle

>  <origin>  (79) 
adg

>  <m_score__min__energy>  (79) 
-11.109999999999999

>  <m_primary>  (79) 
energy

$$$$
79:0
     RDKit          3D

 39 41  0  0  0  0  0  0  0  0999 V2000
   59.5680   30.4010   48.9800 C   0  0  0  0  0  0  0  0  0  0  0  0
   59.5860   31.4110   47.9080 N   0  0  0  0  0  0  0  0  0  0  0  0
   58.4570   31.5690   47.1550 C   0  0  0  0  0  0  0  0  0  0  0  0
   58.3960   32.5010   46.1130 C   0  0  0  0  0  0  0  0  0  0  0  0
   57.1130   32.6390   45.3270 C   0  0  0  0  0  0  0  0  0  0  0  0
   57.0300   31.5970   44.3070 N   0  0  0  0  0  0  0  0  0  0  0  0
   56.5520   30.2710   44.5610 C   0  0  0  0  0  0  0  0  0  0  0  0
   55.3190   30.0250   44.5010 O   0  0  0  0  0  0  0  0  0  0  0  0
   57.5200   29.2120   44.9040 C   0  0  0  0  0  0  0  0  0  0  0  0
   59.1750   29.3850   44.8340 S   0  0  0  0  0  0  0  0  0  0  0  0
   59.6700   27.8960   45.3680 N   0  0  0  0  0  0  0  0  0  0  0  0
   58.5290   27.1970   45.6130 C   0  0  0  0  0  0  0  0  0  0  0  0
   58.6180   25.7870   46.0540 C   0  0  0  0  0  0  0  0  0  0  0  0
   59.8700   25.0990   46.0130 N   0  0  0  0  0  0  0  0  0  0  0  0
   57.5880   25.1630   46.4190 O   0  0  0  0  0  0  0  0  0  0  0  0
   57.3110   27.9060   45.3760 C   0  0  0  0  0  0  0  0  0  0  0  0
   56.0110   27.3550   45.6260 N   0  0  0  0  0  0  0  0  0  0  0  0
   59.5180   33.2970   45.8450 C   0  0  0  0  0  0  0  0  0  0  0  0
   59.4800   34.1460   44.9110 O   0  0  0  0  0  0  0  0  0  0  0  0
   60.6820   33.1470   46.6190 C   0  0  0  0  0  0  0  0  0  0  0  0
   61.8220   33.9350   46.3690 C   0  0  0  0  0  0  0  0  0  0  0  0
   62.9730   33.7820   47.1420 C   0  0  0  0  0  0  0  0  0  0  0  0
   63.0030   32.8480   48.1750 C   0  0  0  0  0  0  0  0  0  0  0  0
   64.4530   32.6670   49.1470 Cl  0  0  0  0  0  0  0  0  0  0  0  0
   61.8820   32.0560   48.4390 C   0  0  0  0  0  0  0  0  0  0  0  0
   60.7030   32.1860   47.6670 C   0  0  0  0  0  0  0  0  0  0  0  0
   59.5770   30.9042   49.9581 H   0  0  0  0  0  0  0  0  0  0  0  0
   58.6588   29.7882   48.8912 H   0  0  0  0  0  0  0  0  0  0  0  0
   60.4548   29.7562   48.8912 H   0  0  0  0  0  0  0  0  0  0  0  0
   57.5750   30.9488   47.3730 H   0  0  0  0  0  0  0  0  0  0  0  0
   56.2565   32.5466   46.0110 H   0  0  0  0  0  0  0  0  0  0  0  0
   57.0979   33.6231   44.8358 H   0  0  0  0  0  0  0  0  0  0  0  0
   60.7460   25.5860   45.7180 H   0  0  0  0  0  0  0  0  0  0  0  0
   59.9270   24.1000   46.3080 H   0  0  0  0  0  0  0  0  0  0  0  0
   55.1450   27.8050   45.2650 H   0  0  0  0  0  0  0  0  0  0  0  0
   55.8760   26.5420   46.2620 H   0  0  0  0  0  0  0  0  0  0  0  0
   61.8047   34.6773   45.5574 H   0  0  0  0  0  0  0  0  0  0  0  0
   63.8590   34.4003   46.9354 H   0  0  0  0  0  0  0  0  0  0  0  0
   61.9166   31.3220   49.2576 H   0  0  0  0  0  0  0  0  0  0  0  0
  1  2  1  0
  2  3  1  0
  3  4  2  0
  4  5  1  0
  5  6  1  0
  6  7  1  0
  7  8  2  0
  7  9  1  0
  9 10  1  0
 10 11  1  0
 11 12  2  0
 12 13  1  0
 13 14  1  0
 13 15  2  0
 12 16  1  0
 16 17  1  0
  4 18  1  0
 18 19  2  0
 18 20  1  0
 20 21  2  0
 21 22  1  0
 22 23  2  0
 23 24  1  0
 23 25  1  0
 25 26  2  0
 26  2  1  0
 16  9  2  0
 26 20  1  0
  1 27  1  0
  1 28  1  0
  1 29  1  0
  3 30  1  0
  5 31  1  0
  5 32  1  0
 14 33  1  0
 14 34  1  0
 17 35  1  0
 17 36  1  0
 21 37  1  0
 22 38  1  0
 25 39  1  0
M  CHG  1   6  -1
M  END
>  <UniqueID>  (80) 
73

>  <SMILES>  (80) 
Cn1cc(C[N-]C(=O)c2snc(C(N)=O)c2N)c(=O)c2ccc(Cl)cc21

>  <Energy>  (80) 
83.8212358016903

>  <Genealogy>  (80) 
Cn1cc(C[N-]C(=O)c2snc(C(N)=O)c2N)c(=O)c2ccc(Cl)cc21 (protonated)
Cn1cc(C[N-]C(=O)c2snc(C(N)=O)c2N)c(=O)c2ccc(Cl)cc21 (3D coordinates assigned)
Cn1cc(C[N-]C(=O)c2snc(C(N)=O)c2N)c(=O)c2ccc(Cl)cc21 (optimized conformer: 83.8212358016903 kcal/mol)

>  <smiles>  (80) 
Cn1cc(CNC(=O)c2snc(C(N)=O)c2N)c(=O)c2ccc(Cl)cc21

>  <score_type>  (80) 
oracle

>  <origin>  (80) 
adg

>  <m_score__min__energy>  (80) 
-11.06

>  <m_primary>  (80) 
energy

$$$$
80:0
     RDKit          3D

 55 57  0  0  0  0  0  0  0  0999 V2000
   59.9980   34.1900   48.2260 C   0  0  0  0  0  0  0  0  0  0  0  0
   60.3990   33.4870   46.9950 N   0  0  0  0  0  0  0  0  0  0  0  0
   61.8230   33.7540   46.7260 C   0  0  0  0  0  0  0  0  0  0  0  0
   59.5700   33.9110   45.8460 C   0  0  0  0  0  0  0  0  0  0  0  0
   58.0910   33.9820   46.2490 C   0  0  0  0  0  0  0  0  0  0  0  0
   57.2070   33.0120   45.4530 C   0  0  0  0  0  0  0  0  0  0  0  0
   57.5310   31.6510   45.7490 O   0  0  0  0  0  0  0  0  0  0  0  0
   57.4630   30.5580   44.8650 C   0  0  0  0  0  0  0  0  0  0  0  0
   56.4610   30.4430   43.8770 C   0  0  0  0  0  0  0  0  0  0  0  0
   56.4330   29.3390   43.0230 C   0  0  0  0  0  0  0  0  0  0  0  0
   57.3930   28.3340   43.1440 C   0  0  0  0  0  0  0  0  0  0  0  0
   58.3870   28.4310   44.1190 C   0  0  0  0  0  0  0  0  0  0  0  0
   58.4320   29.5380   44.9810 C   0  0  0  0  0  0  0  0  0  0  0  0
   59.5050   29.6180   46.0380 C   0  0  0  0  0  0  0  0  0  0  0  0
   59.9350   28.2790   46.4230 N   0  0  0  0  0  0  0  0  0  0  0  0
   59.2180   27.4560   47.3480 C   0  0  0  0  0  0  0  0  0  0  0  0
   59.8150   26.9170   48.3180 O   0  0  0  0  0  0  0  0  0  0  0  0
   57.7470   27.2540   47.1740 C   0  0  0  0  0  0  0  0  0  0  0  0
   57.4950   26.2340   46.1580 N   0  0  0  0  0  0  0  0  0  0  0  0
   58.3780   25.3240   45.6780 C   0  0  0  0  0  0  0  0  0  0  0  0
   59.7190   25.2490   46.0460 O   0  0  0  0  0  0  0  0  0  0  0  0
   57.7010   24.4540   44.8500 C   0  0  0  0  0  0  0  0  0  0  0  0
   56.4260   24.7830   44.8380 N   0  0  0  0  0  0  0  0  0  0  0  0
   56.2960   25.8350   45.6650 C   0  0  0  0  0  0  0  0  0  0  0  0
   55.1880   26.3390   45.9940 O   0  0  0  0  0  0  0  0  0  0  0  0
   55.5580   23.7230   44.3870 C   0  0  0  0  0  0  0  0  0  0  0  0
   56.5530   22.6240   43.9310 C   0  0  0  0  0  0  0  0  0  0  0  0
   57.9720   23.0900   44.3590 C   0  0  0  0  0  0  0  0  0  0  0  0
   60.3276   33.6122   49.1021 H   0  0  0  0  0  0  0  0  0  0  0  0
   60.4637   35.1863   48.2475 H   0  0  0  0  0  0  0  0  0  0  0  0
   58.9034   34.2963   48.2475 H   0  0  0  0  0  0  0  0  0  0  0  0
   62.3634   33.8553   47.6787 H   0  0  0  0  0  0  0  0  0  0  0  0
   62.2498   32.9202   46.1492 H   0  0  0  0  0  0  0  0  0  0  0  0
   61.9188   34.6858   46.1492 H   0  0  0  0  0  0  0  0  0  0  0  0
   59.9012   34.9038   45.5072 H   0  0  0  0  0  0  0  0  0  0  0  0
   59.6833   33.1768   45.0348 H   0  0  0  0  0  0  0  0  0  0  0  0
   58.0065   33.7369   47.3180 H   0  0  0  0  0  0  0  0  0  0  0  0
   57.7390   35.0016   46.0333 H   0  0  0  0  0  0  0  0  0  0  0  0
   56.1532   33.1937   45.7111 H   0  0  0  0  0  0  0  0  0  0  0  0
   57.3806   33.1847   44.3806 H   0  0  0  0  0  0  0  0  0  0  0  0
   55.6972   31.2286   43.7795 H   0  0  0  0  0  0  0  0  0  0  0  0
   55.6518   29.2613   42.2525 H   0  0  0  0  0  0  0  0  0  0  0  0
   57.3665   27.4646   42.4706 H   0  0  0  0  0  0  0  0  0  0  0  0
   59.1401   27.6347   44.2126 H   0  0  0  0  0  0  0  0  0  0  0  0
   60.3658   30.1755   45.6402 H   0  0  0  0  0  0  0  0  0  0  0  0
   59.0998   30.1323   46.9219 H   0  0  0  0  0  0  0  0  0  0  0  0
   57.3089   26.9310   48.1299 H   0  0  0  0  0  0  0  0  0  0  0  0
   57.2898   28.2015   46.8529 H   0  0  0  0  0  0  0  0  0  0  0  0
   60.2290   26.0800   46.3180 H   0  0  0  0  0  0  0  0  0  0  0  0
   54.9181   23.3614   45.2054 H   0  0  0  0  0  0  0  0  0  0  0  0
   54.8675   24.0386   43.5910 H   0  0  0  0  0  0  0  0  0  0  0  0
   56.3074   21.6675   44.4155 H   0  0  0  0  0  0  0  0  0  0  0  0
   56.5007   22.4743   42.8425 H   0  0  0  0  0  0  0  0  0  0  0  0
   58.3812   22.4508   45.1552 H   0  0  0  0  0  0  0  0  0  0  0  0
   58.7196   23.0448   43.5534 H   0  0  0  0  0  0  0  0  0  0  0  0
  1  2  1  0
  2  3  1  0
  2  4  1  0
  4  5  1  0
  5  6  1  0
  6  7  1  0
  7  8  1  0
  8  9  2  0
  9 10  1  0
 10 11  2  0
 11 12  1  0
 12 13  2  0
 13 14  1  0
 14 15  1  0
 15 16  1  0
 16 17  2  0
 16 18  1  0
 18 19  1  0
 19 20  1  0
 20 21  1  0
 20 22  2  0
 22 23  1  0
 23 24  1  0
 24 25  2  0
 23 26  1  0
 26 27  1  0
 27 28  1  0
 13  8  1  0
 24 19  1  0
 28 22  1  0
  1 29  1  0
  1 30  1  0
  1 31  1  0
  3 32  1  0
  3 33  1  0
  3 34  1  0
  4 35  1  0
  4 36  1  0
  5 37  1  0
  5 38  1  0
  6 39  1  0
  6 40  1  0
  9 41  1  0
 10 42  1  0
 11 43  1  0
 12 44  1  0
 14 45  1  0
 14 46  1  0
 18 47  1  0
 18 48  1  0
 21 49  1  0
 26 50  1  0
 26 51  1  0
 27 52  1  0
 27 53  1  0
 28 54  1  0
 28 55  1  0
M  CHG  1  15  -1
M  END
>  <UniqueID>  (81) 
74

>  <SMILES>  (81) 
CN(C)CCCOc1ccccc1C[N-]C(=O)Cn1c(O)c2n(c1=O)CCC2

>  <Energy>  (81) 
106.1393481100768

>  <Genealogy>  (81) 
CN(C)CCCOc1ccccc1C[N-]C(=O)Cn1c(O)c2n(c1=O)CCC2 (protonated)
CN(C)CCCOc1ccccc1C[N-]C(=O)Cn1c(O)c2n(c1=O)CCC2 (3D coordinates assigned)
CN(C)CCCOc1ccccc1C[N-]C(=O)Cn1c(O)c2n(c1=O)CCC2 (nonaromatic ring conformer: 106.1393481100768 kcal/mol)

>  <smiles>  (81) 
CN(C)CCCOc1ccccc1CNC(=O)Cn1c(O)c2n(c1=O)CCC2

>  <score_type>  (81) 
oracle

>  <origin>  (81) 
adg

>  <m_score__min__energy>  (81) 
-9.3900000000000006

>  <m_primary>  (81) 
energy

$$$$
81:0
     RDKit          3D

 31 32  0  0  0  0  0  0  0  0999 V2000
   57.5074   30.8137   46.1318 H   0  0  0  0  0  0  0  0  0  0  0  0
   57.4820   31.4840   45.2600 C   0  0  0  0  0  0  0  0  0  0  0  0
   56.9170   31.0160   44.1320 C   0  0  0  0  0  0  0  0  0  0  0  0
   57.3580   31.5560   42.8690 C   0  0  0  0  0  0  0  0  0  0  0  0
   57.7120   31.9890   41.8560 N   0  0  0  0  0  0  0  0  0  0  0  0
   55.9230   29.9240   44.1050 C   0  0  0  0  0  0  0  0  0  0  0  0
   55.2590   29.7140   43.0540 O   0  0  0  0  0  0  0  0  0  0  0  0
   55.7690   29.0570   45.2360 N   0  0  0  0  0  0  0  0  0  0  0  0
   56.6460   27.9260   45.5160 C   0  0  0  0  0  0  0  0  0  0  0  0
   56.3456   27.4589   46.4655 H   0  0  0  0  0  0  0  0  0  0  0  0
   56.5644   27.1956   44.6976 H   0  0  0  0  0  0  0  0  0  0  0  0
   58.0720   28.3920   45.6200 C   0  0  0  0  0  0  0  0  0  0  0  0
   58.9340   28.3060   44.5160 C   0  0  0  0  0  0  0  0  0  0  0  0
   58.5576   27.9270   43.5544 H   0  0  0  0  0  0  0  0  0  0  0  0
   60.2710   28.7010   44.6350 C   0  0  0  0  0  0  0  0  0  0  0  0
   60.9421   28.6357   43.7659 H   0  0  0  0  0  0  0  0  0  0  0  0
   60.7550   29.1780   45.8550 C   0  0  0  0  0  0  0  0  0  0  0  0
   61.8064   29.4884   45.9460 H   0  0  0  0  0  0  0  0  0  0  0  0
   59.9040   29.2610   46.9600 C   0  0  0  0  0  0  0  0  0  0  0  0
   60.2864   29.6358   47.9209 H   0  0  0  0  0  0  0  0  0  0  0  0
   58.5660   28.8680   46.8460 C   0  0  0  0  0  0  0  0  0  0  0  0
   57.8992   28.9319   47.7185 H   0  0  0  0  0  0  0  0  0  0  0  0
   58.0700   32.8280   45.4160 C   0  0  0  0  0  0  0  0  0  0  0  0
   58.3640   33.4170   46.6290 C   0  0  0  0  0  0  0  0  0  0  0  0
   58.1396   33.0161   47.6285 H   0  0  0  0  0  0  0  0  0  0  0  0
   58.9960   34.6100   46.3380 C   0  0  0  0  0  0  0  0  0  0  0  0
   59.3598   35.3549   47.0611 H   0  0  0  0  0  0  0  0  0  0  0  0
   59.0820   34.6850   44.9620 C   0  0  0  0  0  0  0  0  0  0  0  0
   59.5393   35.5150   44.4035 H   0  0  0  0  0  0  0  0  0  0  0  0
   58.5250   33.5950   44.4040 N   0  0  0  0  0  0  0  0  0  0  0  0
   58.5010   33.3750   43.3840 H   0  0  0  0  0  0  0  0  0  0  0  0
  1  2  1  0
  2  3  2  0
  3  4  1  0
  4  5  3  0
  3  6  1  0
  6  7  2  0
  6  8  1  0
  8  9  1  0
  9 10  1  0
  9 11  1  0
  9 12  1  0
 12 13  2  0
 13 14  1  0
 13 15  1  0
 15 16  1  0
 15 17  2  0
 17 18  1  0
 17 19  1  0
 19 20  1  0
 19 21  2  0
 21 22  1  0
  2 23  1  0
 23 24  2  0
 24 25  1  0
 24 26  1  0
 26 27  1  0
 26 28  2  0
 28 29  1  0
 28 30  1  0
 30 31  1  0
 21 12  1  0
 30 23  1  0
M  CHG  1   8  -1
M  END
>  <UniqueID>  (82) 
75

>  <SMILES>  (82) 
N#C/C(=C/c1ccc[nH]1)C(=O)[N-]Cc1ccccc1

>  <Energy>  (82) 
58.27254040683215

>  <Genealogy>  (82) 
N#CC(=Cc1ccc[nH]1)C(=O)[N-]Cc1ccccc1 (protonated)
N#C/C(=C/c1ccc[nH]1)C(=O)[N-]Cc1ccccc1 (cis-trans isomerization)
N#C/C(=C/c1ccc[nH]1)C(=O)[N-]Cc1ccccc1 (3D coordinates assigned)
N#C/C(=C/c1ccc[nH]1)C(=O)[N-]Cc1ccccc1 (optimized conformer: 58.27254040683215 kcal/mol)

>  <smiles>  (82) 
N#CC(=Cc1ccc[nH]1)C(=O)NCc1ccccc1

>  <score_type>  (82) 
oracle

>  <origin>  (82) 
adg

>  <m_score__min__energy>  (82) 
-8.4800000000000004

>  <m_primary>  (82) 
energy

$$$$
82:0
     RDKit          3D

 48 50  0  0  0  0  0  0  0  0999 V2000
   57.7520   23.3230   44.5600 N   0  0  0  0  0  0  0  0  0  0  0  0
   58.9550   23.4100   45.3230 C   0  0  0  0  0  0  0  0  0  0  0  0
   59.8830   22.5810   45.1230 O   0  0  0  0  0  0  0  0  0  0  0  0
   59.1440   24.5060   46.3280 C   0  0  0  0  0  0  0  0  0  0  0  0
   58.3020   25.6620   45.9820 N   0  0  0  0  0  0  0  0  0  0  0  0
   58.8870   26.7490   45.3920 C   0  0  0  0  0  0  0  0  0  0  0  0
   58.1280   27.8600   45.0260 C   0  0  0  0  0  0  0  0  0  0  0  0
   56.7490   27.8700   45.2740 C   0  0  0  0  0  0  0  0  0  0  0  0
   55.9290   28.9920   44.9120 N   0  0  0  0  0  0  0  0  0  0  0  0
   56.3760   30.1880   44.2580 C   0  0  0  0  0  0  0  0  0  0  0  0
   56.0170   30.3950   43.0670 O   0  0  0  0  0  0  0  0  0  0  0  0
   57.2050   31.1980   44.9520 C   0  0  0  0  0  0  0  0  0  0  0  0
   57.1060   32.5550   44.6030 C   0  0  0  0  0  0  0  0  0  0  0  0
   57.9160   33.5070   45.2280 C   0  0  0  0  0  0  0  0  0  0  0  0
   58.8290   33.1180   46.2180 C   0  0  0  0  0  0  0  0  0  0  0  0
   59.8910   34.3090   46.9700 S   0  0  0  0  0  0  0  0  0  0  0  0
   60.1730   35.4140   45.9890 O   0  0  0  0  0  0  0  0  0  0  0  0
   59.1930   34.9090   48.1590 O   0  0  0  0  0  0  0  0  0  0  0  0
   61.3980   33.5940   47.4880 N   0  0  0  0  0  0  0  0  0  0  0  0
   62.4600   33.8630   46.5090 C   0  0  0  0  0  0  0  0  0  0  0  0
   63.7760   33.1980   46.9670 C   0  0  0  0  0  0  0  0  0  0  0  0
   63.6880   32.6790   48.2830 O   0  0  0  0  0  0  0  0  0  0  0  0
   63.2260   33.6840   49.1640 C   0  0  0  0  0  0  0  0  0  0  0  0
   61.7850   34.1080   48.8130 C   0  0  0  0  0  0  0  0  0  0  0  0
   58.9060   31.7710   46.5950 C   0  0  0  0  0  0  0  0  0  0  0  0
   58.0980   30.8180   45.9690 C   0  0  0  0  0  0  0  0  0  0  0  0
   56.1540   26.7400   45.8410 C   0  0  0  0  0  0  0  0  0  0  0  0
   54.7800   26.7130   46.0610 O   0  0  0  0  0  0  0  0  0  0  0  0
   56.9450   25.6380   46.1930 C   0  0  0  0  0  0  0  0  0  0  0  0
   56.3930   24.6270   46.7060 O   0  0  0  0  0  0  0  0  0  0  0  0
   56.9750   24.0050   44.7060 H   0  0  0  0  0  0  0  0  0  0  0  0
   57.6350   22.5690   43.8460 H   0  0  0  0  0  0  0  0  0  0  0  0
   58.8629   24.1371   47.3254 H   0  0  0  0  0  0  0  0  0  0  0  0
   60.1992   24.8167   46.3267 H   0  0  0  0  0  0  0  0  0  0  0  0
   59.9708   26.7465   45.2038 H   0  0  0  0  0  0  0  0  0  0  0  0
   58.6094   28.7242   44.5450 H   0  0  0  0  0  0  0  0  0  0  0  0
   56.3865   32.8703   43.8330 H   0  0  0  0  0  0  0  0  0  0  0  0
   57.8368   34.5662   44.9418 H   0  0  0  0  0  0  0  0  0  0  0  0
   62.1662   33.4551   45.5306 H   0  0  0  0  0  0  0  0  0  0  0  0
   62.6118   34.9495   46.4279 H   0  0  0  0  0  0  0  0  0  0  0  0
   64.0148   32.3748   46.2775 H   0  0  0  0  0  0  0  0  0  0  0  0
   64.5614   33.9681   46.9613 H   0  0  0  0  0  0  0  0  0  0  0  0
   63.2463   33.2969   50.1934 H   0  0  0  0  0  0  0  0  0  0  0  0
   63.8822   34.5617   49.0690 H   0  0  0  0  0  0  0  0  0  0  0  0
   61.0961   33.7070   49.5710 H   0  0  0  0  0  0  0  0  0  0  0  0
   61.7348   35.2067   48.7940 H   0  0  0  0  0  0  0  0  0  0  0  0
   59.6048   31.4624   47.3865 H   0  0  0  0  0  0  0  0  0  0  0  0
   58.1612   29.7631   46.2742 H   0  0  0  0  0  0  0  0  0  0  0  0
  1  2  1  0
  2  3  2  0
  2  4  1  0
  4  5  1  0
  5  6  1  0
  6  7  2  0
  7  8  1  0
  8  9  1  0
  9 10  1  0
 10 11  2  0
 10 12  1  0
 12 13  2  0
 13 14  1  0
 14 15  2  0
 15 16  1  0
 16 17  2  0
 16 18  2  0
 16 19  1  0
 19 20  1  0
 20 21  1  0
 21 22  1  0
 22 23  1  0
 23 24  1  0
 15 25  1  0
 25 26  2  0
  8 27  2  0
 27 28  1  0
 27 29  1  0
 29 30  2  0
 29  5  1  0
 26 12  1  0
 24 19  1  0
  1 31  1  0
  1 32  1  0
  4 33  1  0
  4 34  1  0
  6 35  1  0
  7 36  1  0
 13 37  1  0
 14 38  1  0
 20 39  1  0
 20 40  1  0
 21 41  1  0
 21 42  1  0
 23 43  1  0
 23 44  1  0
 24 45  1  0
 24 46  1  0
 25 47  1  0
 26 48  1  0
M  CHG  2   9  -1  28  -1
M  END
>  <UniqueID>  (83) 
76

>  <SMILES>  (83) 
NC(=O)Cn1ccc([N-]C(=O)c2ccc(S(=O)(=O)N3CCOCC3)cc2)c([O-])c1=O

>  <Energy>  (83) 
63.17095508377741

>  <Genealogy>  (83) 
NC(=O)Cn1ccc([N-]C(=O)c2ccc(S(=O)(=O)N3CCOCC3)cc2)c([O-])c1=O (protonated)
NC(=O)Cn1ccc([N-]C(=O)c2ccc(S(=O)(=O)N3CCOCC3)cc2)c([O-])c1=O (3D coordinates assigned)
NC(=O)Cn1ccc([N-]C(=O)c2ccc(S(=O)(=O)N3CCOCC3)cc2)c([O-])c1=O (nonaromatic ring conformer: 63.17095508377741 kcal/mol)

>  <smiles>  (83) 
NC(=O)Cn1ccc(NC(=O)c2ccc(S(=O)(=O)N3CCOCC3)cc2)c(O)c1=O

>  <score_type>  (83) 
oracle

>  <origin>  (83) 
adg

>  <m_score__min__energy>  (83) 
-14.75

>  <m_primary>  (83) 
energy

$$$$
83:0
     RDKit          3D

 17 17  0  0  0  0  0  0  0  0999 V2000
   55.1390   26.1960   45.9420 N   0  0  0  0  0  0  0  0  0  0  0  0
   56.8510   26.0170   46.1120 S   0  0  0  0  0  0  0  0  0  0  0  0
   57.1400   25.4100   47.4560 O   0  0  0  0  0  0  0  0  0  0  0  0
   57.3480   25.1030   45.0270 O   0  0  0  0  0  0  0  0  0  0  0  0
   57.6670   27.5810   45.9810 C   0  0  0  0  0  0  0  0  0  0  0  0
   59.0260   27.6780   46.3250 C   0  0  0  0  0  0  0  0  0  0  0  0
   59.6980   28.8980   46.2280 C   0  0  0  0  0  0  0  0  0  0  0  0
   59.0230   30.0350   45.7860 C   0  0  0  0  0  0  0  0  0  0  0  0
   57.6700   29.9570   45.4440 C   0  0  0  0  0  0  0  0  0  0  0  0
   57.0080   31.1000   45.0070 O   0  0  0  0  0  0  0  0  0  0  0  0
   56.9830   28.7390   45.5390 C   0  0  0  0  0  0  0  0  0  0  0  0
   55.6300   28.7160   45.1920 O   0  0  0  0  0  0  0  0  0  0  0  0
   54.8720   27.0780   46.4340 H   0  0  0  0  0  0  0  0  0  0  0  0
   59.5651   26.7849   46.6738 H   0  0  0  0  0  0  0  0  0  0  0  0
   60.7617   28.9622   46.5008 H   0  0  0  0  0  0  0  0  0  0  0  0
   59.5556   30.9942   45.7064 H   0  0  0  0  0  0  0  0  0  0  0  0
   55.1400   27.8780   44.9070 H   0  0  0  0  0  0  0  0  0  0  0  0
  1  2  1  0
  2  3  2  0
  2  4  2  0
  2  5  1  0
  5  6  2  0
  6  7  1  0
  7  8  2  0
  8  9  1  0
  9 10  1  0
  9 11  2  0
 11 12  1  0
 11  5  1  0
  1 13  1  0
  6 14  1  0
  7 15  1  0
  8 16  1  0
 12 17  1  0
M  CHG  2   1  -1  10  -1
M  END
>  <UniqueID>  (84) 
77

>  <SMILES>  (84) 
[NH-]S(=O)(=O)c1cccc([O-])c1O

>  <Energy>  (84) 
17.706210757792693

>  <Genealogy>  (84) 
[NH-]S(=O)(=O)c1cccc([O-])c1O (protonated)
[NH-]S(=O)(=O)c1cccc([O-])c1O (3D coordinates assigned)
[NH-]S(=O)(=O)c1cccc([O-])c1O (optimized conformer: 17.706210757792693 kcal/mol)

>  <smiles>  (84) 
NS(=O)(=O)c1cccc(O)c1O

>  <score_type>  (84) 
oracle

>  <origin>  (84) 
adg

>  <m_score__min__energy>  (84) 
-10.609999999999999

>  <m_primary>  (84) 
energy

$$$$
84:0
     RDKit          3D

 52 54  0  0  0  0  0  0  0  0999 V2000
   59.0090   31.2970   52.5630 C   0  0  0  0  0  0  0  0  0  0  0  0
   58.0310   30.8280   51.1490 S   0  0  0  0  0  0  0  0  0  0  0  0
   56.7410   30.2290   51.6350 O   0  0  0  0  0  0  0  0  0  0  0  0
   57.7150   32.0330   50.3100 O   0  0  0  0  0  0  0  0  0  0  0  0
   58.8770   29.6430   50.2040 N   0  0  0  0  0  0  0  0  0  0  0  0
   59.3640   29.8530   48.8660 C   0  0  0  0  0  0  0  0  0  0  0  0
   60.6140   30.4440   48.6080 C   0  0  0  0  0  0  0  0  0  0  0  0
   61.0550   30.6370   47.2900 C   0  0  0  0  0  0  0  0  0  0  0  0
   62.3890   31.2800   47.0170 C   0  0  0  0  0  0  0  0  0  0  0  0
   62.7380   32.2540   48.1100 C   0  0  0  0  0  0  0  0  0  0  0  0
   61.9840   33.4270   48.2890 C   0  0  0  0  0  0  0  0  0  0  0  0
   62.3130   34.3280   49.3050 C   0  0  0  0  0  0  0  0  0  0  0  0
   63.3840   34.0580   50.1600 C   0  0  0  0  0  0  0  0  0  0  0  0
   64.1310   32.8890   49.9970 C   0  0  0  0  0  0  0  0  0  0  0  0
   63.8110   31.9890   48.9740 C   0  0  0  0  0  0  0  0  0  0  0  0
   60.2260   30.2670   46.2220 C   0  0  0  0  0  0  0  0  0  0  0  0
   58.9690   29.6960   46.4610 C   0  0  0  0  0  0  0  0  0  0  0  0
   58.1430   29.3300   45.3440 N   0  0  0  0  0  0  0  0  0  0  0  0
   57.0510   30.1240   44.8550 C   0  0  0  0  0  0  0  0  0  0  0  0
   55.6360   29.3820   44.5000 S   0  0  0  0  0  0  0  0  0  0  0  0
   57.2230   31.5070   44.4980 N   0  0  0  0  0  0  0  0  0  0  0  0
   58.5200   32.1760   44.3600 C   0  0  0  0  0  0  0  0  0  0  0  0
   58.7740   33.1400   45.4900 C   0  0  0  0  0  0  0  0  0  0  0  0
   58.3140   32.8480   46.7860 C   0  0  0  0  0  0  0  0  0  0  0  0
   58.5340   33.7510   47.8290 C   0  0  0  0  0  0  0  0  0  0  0  0
   59.2120   34.9490   47.5890 C   0  0  0  0  0  0  0  0  0  0  0  0
   59.6600   35.2530   46.3000 C   0  0  0  0  0  0  0  0  0  0  0  0
   59.4370   34.3560   45.2510 C   0  0  0  0  0  0  0  0  0  0  0  0
   58.5590   29.4660   47.7840 C   0  0  0  0  0  0  0  0  0  0  0  0
   58.4682   31.0377   53.4851 H   0  0  0  0  0  0  0  0  0  0  0  0
   59.9696   30.7616   52.5383 H   0  0  0  0  0  0  0  0  0  0  0  0
   59.1929   32.3812   52.5383 H   0  0  0  0  0  0  0  0  0  0  0  0
   59.0330   28.7130   50.6570 H   0  0  0  0  0  0  0  0  0  0  0  0
   61.2519   30.7579   49.4474 H   0  0  0  0  0  0  0  0  0  0  0  0
   63.1631   30.5002   46.9662 H   0  0  0  0  0  0  0  0  0  0  0  0
   62.3338   31.8222   46.0615 H   0  0  0  0  0  0  0  0  0  0  0  0
   61.1313   33.6364   47.6263 H   0  0  0  0  0  0  0  0  0  0  0  0
   61.7280   35.2509   49.4316 H   0  0  0  0  0  0  0  0  0  0  0  0
   63.6393   34.7662   50.9620 H   0  0  0  0  0  0  0  0  0  0  0  0
   64.9717   32.6755   50.6734 H   0  0  0  0  0  0  0  0  0  0  0  0
   64.4030   31.0706   48.8470 H   0  0  0  0  0  0  0  0  0  0  0  0
   60.5651   30.4262   45.1877 H   0  0  0  0  0  0  0  0  0  0  0  0
   58.2890   28.3900   44.9080 H   0  0  0  0  0  0  0  0  0  0  0  0
   56.3760   32.0480   44.2080 H   0  0  0  0  0  0  0  0  0  0  0  0
   59.3146   31.4153   44.3552 H   0  0  0  0  0  0  0  0  0  0  0  0
   58.5132   32.7455   43.4190 H   0  0  0  0  0  0  0  0  0  0  0  0
   57.7795   31.9062   46.9793 H   0  0  0  0  0  0  0  0  0  0  0  0
   58.1726   33.5184   48.8416 H   0  0  0  0  0  0  0  0  0  0  0  0
   59.3933   35.6531   48.4145 H   0  0  0  0  0  0  0  0  0  0  0  0
   60.1885   36.1990   46.1109 H   0  0  0  0  0  0  0  0  0  0  0  0
   59.7814   34.6027   44.2358 H   0  0  0  0  0  0  0  0  0  0  0  0
   57.5931   28.9755   47.9749 H   0  0  0  0  0  0  0  0  0  0  0  0
  1  2  1  0
  2  3  2  0
  2  4  2  0
  2  5  1  0
  5  6  1  0
  6  7  2  0
  7  8  1  0
  8  9  1  0
  9 10  1  0
 10 11  2  0
 11 12  1  0
 12 13  2  0
 13 14  1  0
 14 15  2  0
  8 16  2  0
 16 17  1  0
 17 18  1  0
 18 19  1  0
 19 20  2  0
 19 21  1  0
 21 22  1  0
 22 23  1  0
 23 24  2  0
 24 25  1  0
 25 26  2  0
 26 27  1  0
 27 28  2  0
 17 29  2  0
 29  6  1  0
 15 10  1  0
 28 23  1  0
  1 30  1  0
  1 31  1  0
  1 32  1  0
  5 33  1  0
  7 34  1  0
  9 35  1  0
  9 36  1  0
 11 37  1  0
 12 38  1  0
 13 39  1  0
 14 40  1  0
 15 41  1  0
 16 42  1  0
 18 43  1  0
 21 44  1  0
 22 45  1  0
 22 46  1  0
 24 47  1  0
 25 48  1  0
 26 49  1  0
 27 50  1  0
 28 51  1  0
 29 52  1  0
M  END
>  <UniqueID>  (85) 
78

>  <SMILES>  (85) 
CS(=O)(=O)Nc1cc(Cc2ccccc2)cc(NC(=S)NCc2ccccc2)c1

>  <Energy>  (85) 
51.46538833377348

>  <Genealogy>  (85) 
CS(=O)(=O)Nc1cc(Cc2ccccc2)cc(NC(=S)NCc2ccccc2)c1 (3D coordinates assigned)
CS(=O)(=O)Nc1cc(Cc2ccccc2)cc(NC(=S)NCc2ccccc2)c1 (optimized conformer: 51.46538833377348 kcal/mol)

>  <smiles>  (85) 
CS(=O)(=O)Nc1cc(Cc2ccccc2)cc(NC(=S)NCc2ccccc2)c1

>  <score_type>  (85) 
oracle

>  <origin>  (85) 
adg

>  <m_score__min__energy>  (85) 
-8.9399999999999995

>  <m_primary>  (85) 
energy

$$$$
85:0
     RDKit          3D

 33 34  0  0  1  0  0  0  0  0999 V2000
   57.3130   27.4460   45.4840 C   0  0  0  0  0  0  0  0  0  0  0  0
   56.3080   28.4900   45.2580 N   0  0  0  0  0  0  0  0  0  0  0  0
   56.6780   29.5460   44.6110 C   0  0  0  0  0  0  0  0  0  0  0  0
   57.2410   30.6150   45.2410 N   0  0  0  0  0  0  0  0  0  0  0  0
   57.6240   31.7120   44.5590 C   0  0  0  0  0  0  0  0  0  0  0  0
   58.2020   32.7820   45.2990 N   0  0  0  0  0  0  0  0  0  0  0  0
   57.7640   34.1370   45.2700 C   0  0  0  0  0  0  0  0  0  0  0  0
   56.6490   34.5880   44.8430 O   0  0  0  0  0  0  0  0  0  0  0  0
   58.7740   34.9290   45.7980 O   0  0  0  0  0  0  0  0  0  0  0  0
   59.9260   34.1220   45.8900 C   0  0  0  0  0  0  0  0  0  0  0  0
   59.3230   32.7660   46.2210 C   0  0  1  0  0  0  0  0  0  0  0  0
   58.8190   32.6880   47.6200 C   0  0  0  0  0  0  0  0  0  0  0  0
   59.5020   33.6970   48.5150 C   0  0  0  0  0  0  0  0  0  0  0  0
   58.9010   31.3500   48.2610 C   0  0  0  0  0  0  0  0  0  0  0  0
   57.4600   31.7980   43.1920 C   0  0  0  0  0  0  0  0  0  0  0  0
   56.8870   30.7040   42.5690 C   0  0  0  0  0  0  0  0  0  0  0  0
   56.5020   29.5990   43.2590 N   0  0  0  0  0  0  0  0  0  0  0  0
   57.4534   27.3001   46.5652 H   0  0  0  0  0  0  0  0  0  0  0  0
   56.9726   26.5045   45.0282 H   0  0  0  0  0  0  0  0  0  0  0  0
   58.2667   27.7503   45.0282 H   0  0  0  0  0  0  0  0  0  0  0  0
   60.4748   34.0955   44.9371 H   0  0  0  0  0  0  0  0  0  0  0  0
   60.6630   34.4759   46.6259 H   0  0  0  0  0  0  0  0  0  0  0  0
   60.0282   31.9262   46.1354 H   0  0  0  0  0  0  0  0  0  0  0  0
   57.7483   32.9168   47.5138 H   0  0  0  0  0  0  0  0  0  0  0  0
   59.3235   33.4333   49.5679 H   0  0  0  0  0  0  0  0  0  0  0  0
   60.5835   33.6925   48.3142 H   0  0  0  0  0  0  0  0  0  0  0  0
   59.0960   34.6994   48.3142 H   0  0  0  0  0  0  0  0  0  0  0  0
   58.8939   31.4664   49.3548 H   0  0  0  0  0  0  0  0  0  0  0  0
   58.0385   30.7416   47.9514 H   0  0  0  0  0  0  0  0  0  0  0  0
   59.8314   30.8515   47.9514 H   0  0  0  0  0  0  0  0  0  0  0  0
   57.7687   32.6899   42.6270 H   0  0  0  0  0  0  0  0  0  0  0  0
   56.7382   30.7296   41.4794 H   0  0  0  0  0  0  0  0  0  0  0  0
   56.0710   28.7910   42.7520 H   0  0  0  0  0  0  0  0  0  0  0  0
  1  2  1  0
  2  3  2  0
  3  4  1  0
  4  5  2  0
  5  6  1  0
  6  7  1  0
  7  8  2  0
  7  9  1  0
  9 10  1  0
 10 11  1  0
 11 12  1  0
 12 13  1  0
 12 14  1  0
  5 15  1  0
 15 16  2  0
 16 17  1  0
 17  3  1  0
 11  6  1  0
  1 18  1  0
  1 19  1  0
  1 20  1  0
 10 21  1  0
 10 22  1  0
 11 23  1  6
 12 24  1  0
 13 25  1  0
 13 26  1  0
 13 27  1  0
 14 28  1  0
 14 29  1  0
 14 30  1  0
 15 31  1  0
 16 32  1  0
 17 33  1  0
M  END
>  <smiles>  (86) 
CN=c1nc(N2C(=O)OCC2C(C)C)cc[nH]1

>  <score_type>  (86) 
oracle

>  <origin>  (86) 
adg

>  <m_score__min__energy>  (86) 
-6.2300000000000004

>  <m_primary>  (86) 
energy

$$$$
86:0
     RDKit          3D

 53 55  0  0  1  0  0  0  0  0999 V2000
   66.1720   34.1350   51.7800 C   0  0  0  0  0  0  0  0  0  0  0  0
   65.6170   32.9420   51.2670 O   0  0  0  0  0  0  0  0  0  0  0  0
   64.5570   32.9570   50.3990 C   0  0  0  0  0  0  0  0  0  0  0  0
   64.7710   33.0920   49.0450 C   0  0  0  0  0  0  0  0  0  0  0  0
   63.7440   33.1130   48.1330 C   0  0  0  0  0  0  0  0  0  0  0  0
   62.4080   32.9980   48.5330 C   0  0  0  0  0  0  0  0  0  0  0  0
   61.3940   33.0300   47.5120 C   0  0  0  0  0  0  0  0  0  0  0  0
   61.7530   33.2850   46.3110 O   0  0  0  0  0  0  0  0  0  0  0  0
   60.0120   32.8060   47.6910 N   0  0  0  0  0  0  0  0  0  0  0  0
   59.1210   32.8700   46.5850 C   0  0  0  0  0  0  0  0  0  0  0  0
   58.7850   34.1330   46.1070 C   0  0  0  0  0  0  0  0  0  0  0  0
   57.9280   34.2600   45.0410 C   0  0  0  0  0  0  0  0  0  0  0  0
   57.3910   33.1490   44.4310 C   0  0  0  0  0  0  0  0  0  0  0  0
   57.7170   31.8860   44.8960 C   0  0  0  0  0  0  0  0  0  0  0  0
   57.0340   30.4460   44.1220 S   0  0  0  0  0  0  0  0  0  0  0  0
   56.3300   30.7890   42.8520 O   0  0  0  0  0  0  0  0  0  0  0  0
   56.0890   29.8270   45.1400 O   0  0  0  0  0  0  0  0  0  0  0  0
   58.3720   29.4030   43.8020 N   0  0  0  0  0  0  0  0  0  0  0  0
   58.4670   28.3090   44.4800 C   0  0  0  0  0  0  0  0  0  0  0  0
   59.3500   28.2810   45.5610 C   0  0  0  0  0  0  0  0  0  0  0  0
   59.4640   27.1120   46.3020 C   0  0  0  0  0  0  0  0  0  0  0  0
   60.3880   27.0110   47.4700 C   0  0  0  0  0  0  0  0  0  0  0  0
   58.7260   26.0110   45.9770 N   0  0  0  0  0  0  0  0  0  0  0  0
   57.8710   26.0630   44.9170 C   0  0  0  0  0  0  0  0  0  0  0  0
   57.0500   24.8570   44.5470 C   0  0  0  0  0  0  0  0  0  0  0  0
   57.7650   27.1990   44.2030 N   0  0  0  0  0  0  0  0  0  0  0  0
   58.5810   31.7740   45.9720 C   0  0  0  0  0  0  0  0  0  0  0  0
   62.2040   32.8640   49.8800 C   0  0  0  0  0  0  0  0  0  0  0  0
   60.9310   32.7430   50.3770 O   0  0  0  0  0  0  0  0  0  0  0  0
   60.4030   33.4920   51.4260 C   0  0  0  0  0  0  0  0  0  0  0  0
   63.2440   32.8420   50.8090 C   0  0  0  0  0  0  0  0  0  0  0  0
   66.1572   34.1032   52.8794 H   0  0  0  0  0  0  0  0  0  0  0  0
   67.2099   34.2367   51.4301 H   0  0  0  0  0  0  0  0  0  0  0  0
   65.5812   34.9944   51.4301 H   0  0  0  0  0  0  0  0  0  0  0  0
   65.8043   33.1867   48.6799 H   0  0  0  0  0  0  0  0  0  0  0  0
   63.9772   33.2227   47.0636 H   0  0  0  0  0  0  0  0  0  0  0  0
   59.6140   32.5930   48.6110 H   0  0  0  0  0  0  0  0  0  0  0  0
   59.2061   35.0306   46.5833 H   0  0  0  0  0  0  0  0  0  0  0  0
   57.6675   35.2623   44.6701 H   0  0  0  0  0  0  0  0  0  0  0  0
   56.7060   33.2639   43.5780 H   0  0  0  0  0  0  0  0  0  0  0  0
   59.9448   29.1690   45.8212 H   0  0  0  0  0  0  0  0  0  0  0  0
   59.8083   27.0744   48.4027 H   0  0  0  0  0  0  0  0  0  0  0  0
   60.9207   26.0493   47.4340 H   0  0  0  0  0  0  0  0  0  0  0  0
   61.1159   27.8349   47.4340 H   0  0  0  0  0  0  0  0  0  0  0  0
   56.7065   24.3525   45.4621 H   0  0  0  0  0  0  0  0  0  0  0  0
   56.1793   25.1740   43.9542 H   0  0  0  0  0  0  0  0  0  0  0  0
   57.6642   24.1632   43.9542 H   0  0  0  0  0  0  0  0  0  0  0  0
   57.1010   27.1930   43.4040 H   0  0  0  0  0  0  0  0  0  0  0  0
   58.8409   30.7724   46.3450 H   0  0  0  0  0  0  0  0  0  0  0  0
   60.7140   33.0508   52.3844 H   0  0  0  0  0  0  0  0  0  0  0  0
   60.7731   34.5258   51.3610 H   0  0  0  0  0  0  0  0  0  0  0  0
   59.3049   33.4909   51.3610 H   0  0  0  0  0  0  0  0  0  0  0  0
   63.0156   32.7319   51.8794 H   0  0  0  0  0  0  0  0  0  0  0  0
  1  2  1  0
  2  3  1  0
  3  4  2  0
  4  5  1  0
  5  6  2  0
  6  7  1  0
  7  8  2  0
  7  9  1  0
  9 10  1  0
 10 11  2  0
 11 12  1  0
 12 13  2  0
 13 14  1  0
 14 15  1  0
 15 16  2  0
 15 17  2  0
 15 18  1  0
 18 19  2  0
 19 20  1  0
 20 21  2  0
 21 22  1  0
 21 23  1  0
 23 24  2  0
 24 25  1  0
 24 26  1  0
 14 27  2  0
  6 28  1  0
 28 29  1  0
 29 30  1  0
 28 31  2  0
 31  3  1  0
 27 10  1  0
 26 19  1  0
  1 32  1  0
  1 33  1  0
  1 34  1  0
  4 35  1  0
  5 36  1  0
  9 37  1  0
 11 38  1  0
 12 39  1  0
 13 40  1  0
 20 41  1  0
 22 42  1  0
 22 43  1  0
 22 44  1  0
 25 45  1  0
 25 46  1  0
 25 47  1  0
 26 48  1  0
 27 49  1  0
 30 50  1  0
 30 51  1  0
 30 52  1  0
 31 53  1  0
M  END
>  <smiles>  (87) 
COc1ccc(C(=O)Nc2cccc(S(=O)(=O)N=c3cc(C)nc(C)[nH]3)c2)c(OC)c1

>  <score_type>  (87) 
oracle

>  <origin>  (87) 
adg

>  <m_score__min__energy>  (87) 
-9.0399999999999991

>  <m_primary>  (87) 
energy

$$$$
87:0
     RDKit          3D

 34 36  0  0  0  0  0  0  0  0999 V2000
   55.1440   29.3540   44.8170 N   0  0  0  0  0  0  0  0  0  0  0  0
   56.0600   29.8900   43.8650 C   0  0  0  0  0  0  0  0  0  0  0  0
   55.9950   29.5080   42.6670 O   0  0  0  0  0  0  0  0  0  0  0  0
   57.0810   30.8800   44.2700 C   0  0  0  0  0  0  0  0  0  0  0  0
   57.3750   32.0230   43.5030 C   0  0  0  0  0  0  0  0  0  0  0  0
   58.3500   32.8410   44.0600 C   0  0  0  0  0  0  0  0  0  0  0  0
   58.8520   32.1570   45.5100 S   0  0  0  0  0  0  0  0  0  0  0  0
   57.8560   30.8020   45.4290 C   0  0  0  0  0  0  0  0  0  0  0  0
   57.7080   29.8050   46.4490 N   0  0  0  0  0  0  0  0  0  0  0  0
   58.3410   28.5200   46.4930 C   0  0  0  0  0  0  0  0  0  0  0  0
   59.4270   28.3610   45.8740 O   0  0  0  0  0  0  0  0  0  0  0  0
   57.7510   27.3680   47.2600 C   0  0  0  0  0  0  0  0  0  0  0  0
   57.4470   26.2490   46.3660 N   0  0  0  0  0  0  0  0  0  0  0  0
   58.2860   25.2600   45.9860 C   0  0  0  0  0  0  0  0  0  0  0  0
   59.6220   25.1800   46.3610 O   0  0  0  0  0  0  0  0  0  0  0  0
   57.6210   24.3470   45.1920 C   0  0  0  0  0  0  0  0  0  0  0  0
   56.3240   24.7840   45.0930 C   0  0  0  0  0  0  0  0  0  0  0  0
   56.2430   25.9480   45.8300 C   0  0  0  0  0  0  0  0  0  0  0  0
   55.0930   26.7060   46.0160 O   0  0  0  0  0  0  0  0  0  0  0  0
   55.2490   24.0590   44.3500 C   0  0  0  0  0  0  0  0  0  0  0  0
   55.7860   22.8290   43.6460 C   0  0  0  0  0  0  0  0  0  0  0  0
   57.0640   22.3980   43.7430 C   0  0  0  0  0  0  0  0  0  0  0  0
   58.1310   23.0880   44.5700 C   0  0  0  0  0  0  0  0  0  0  0  0
   55.4830   28.8230   45.6500 H   0  0  0  0  0  0  0  0  0  0  0  0
   56.8774   32.2483   42.5482 H   0  0  0  0  0  0  0  0  0  0  0  0
   58.7290   33.7777   43.6253 H   0  0  0  0  0  0  0  0  0  0  0  0
   58.4714   27.0354   48.0219 H   0  0  0  0  0  0  0  0  0  0  0  0
   56.8174   27.7027   47.7358 H   0  0  0  0  0  0  0  0  0  0  0  0
   54.4694   23.7504   45.0620 H   0  0  0  0  0  0  0  0  0  0  0  0
   54.8401   24.7391   43.5882 H   0  0  0  0  0  0  0  0  0  0  0  0
   55.0930   22.2509   43.0170 H   0  0  0  0  0  0  0  0  0  0  0  0
   57.3467   21.4914   43.1880 H   0  0  0  0  0  0  0  0  0  0  0  0
   58.4612   22.4053   45.3668 H   0  0  0  0  0  0  0  0  0  0  0  0
   58.9658   23.3492   43.9030 H   0  0  0  0  0  0  0  0  0  0  0  0
  1  2  1  0
  2  3  2  0
  2  4  1  0
  4  5  1  0
  5  6  2  0
  6  7  1  0
  7  8  1  0
  8  9  1  0
  9 10  1  0
 10 11  2  0
 10 12  1  0
 12 13  1  0
 13 14  1  0
 14 15  1  0
 14 16  2  0
 16 17  1  0
 17 18  2  0
 18 19  1  0
 17 20  1  0
 20 21  1  0
 21 22  2  0
 22 23  1  0
  8  4  2  0
 18 13  1  0
 23 16  1  0
  1 24  1  0
  5 25  1  0
  6 26  1  0
 12 27  1  0
 12 28  1  0
 20 29  1  0
 20 30  1  0
 21 31  1  0
 22 32  1  0
 23 33  1  0
 23 34  1  0
M  CHG  4   1  -1   9  -1  15  -1  19  -1
M  END
>  <UniqueID>  (88) 
79

>  <SMILES>  (88) 
[NH-]C(=O)c1ccsc1[N-]C(=O)Cn1c([O-])c2c(c1[O-])CC=CC2

>  <Energy>  (88) 
97.33378248384604

>  <Genealogy>  (88) 
[NH-]C(=O)c1ccsc1[N-]C(=O)Cn1c([O-])c2c(c1[O-])CC=CC2 (protonated)
[NH-]C(=O)c1ccsc1[N-]C(=O)Cn1c([O-])c2c(c1[O-])CC=CC2 (3D coordinates assigned)
[NH-]C(=O)c1ccsc1[N-]C(=O)Cn1c([O-])c2c(c1[O-])CC=CC2 (nonaromatic ring conformer: 97.33378248384604 kcal/mol)

>  <smiles>  (88) 
NC(=O)c1ccsc1NC(=O)Cn1c(O)c2c(c1O)CC=CC2

>  <score_type>  (88) 
oracle

>  <origin>  (88) 
adg

>  <m_score__min__energy>  (88) 
-16.079999999999998

>  <m_primary>  (88) 
energy

$$$$
88:0
     RDKit          3D

 32 33  0  0  0  0  0  0  0  0999 V2000
   63.4830   32.0360   48.1580 C   0  0  0  0  0  0  0  0  0  0  0  0
   62.6780   33.5210   47.6010 S   0  0  0  0  0  0  0  0  0  0  0  0
   63.5350   34.2020   46.5710 O   0  0  0  0  0  0  0  0  0  0  0  0
   62.4870   34.4560   48.7620 O   0  0  0  0  0  0  0  0  0  0  0  0
   61.1160   33.1110   46.9010 C   0  0  0  0  0  0  0  0  0  0  0  0
   60.6830   31.7790   46.8760 C   0  0  0  0  0  0  0  0  0  0  0  0
   59.4370   31.4550   46.3320 C   0  0  0  0  0  0  0  0  0  0  0  0
   58.6050   32.4610   45.8150 C   0  0  0  0  0  0  0  0  0  0  0  0
   57.2760   32.1020   45.2100 C   0  0  0  0  0  0  0  0  0  0  0  0
   57.3330   30.7690   44.6180 N   0  0  0  0  0  0  0  0  0  0  0  0
   56.3600   29.7480   44.8670 C   0  0  0  0  0  0  0  0  0  0  0  0
   55.1570   29.9300   44.5380 O   0  0  0  0  0  0  0  0  0  0  0  0
   56.7540   28.4820   45.5100 C   0  0  0  0  0  0  0  0  0  0  0  0
   58.0500   28.2890   46.0090 C   0  0  0  0  0  0  0  0  0  0  0  0
   58.3630   27.0650   46.6060 C   0  0  0  0  0  0  0  0  0  0  0  0
   59.5170   26.8590   47.0630 O   0  0  0  0  0  0  0  0  0  0  0  0
   57.4180   26.0930   46.6920 N   0  0  0  0  0  0  0  0  0  0  0  0
   56.1660   26.2920   46.2060 C   0  0  0  0  0  0  0  0  0  0  0  0
   55.3040   25.3810   46.2950 O   0  0  0  0  0  0  0  0  0  0  0  0
   55.8440   27.4760   45.6210 N   0  0  0  0  0  0  0  0  0  0  0  0
   59.0400   33.7960   45.8440 C   0  0  0  0  0  0  0  0  0  0  0  0
   60.2870   34.1190   46.3890 C   0  0  0  0  0  0  0  0  0  0  0  0
   63.4942   32.0154   49.2578 H   0  0  0  0  0  0  0  0  0  0  0  0
   62.9368   31.1591   47.7804 H   0  0  0  0  0  0  0  0  0  0  0  0
   64.5159   32.0151   47.7804 H   0  0  0  0  0  0  0  0  0  0  0  0
   61.3255   30.9857   47.2857 H   0  0  0  0  0  0  0  0  0  0  0  0
   59.1063   30.4061   46.3088 H   0  0  0  0  0  0  0  0  0  0  0  0
   56.5042   32.1185   45.9936 H   0  0  0  0  0  0  0  0  0  0  0  0
   57.0311   32.8323   44.4248 H   0  0  0  0  0  0  0  0  0  0  0  0
   58.8052   29.0851   45.9321 H   0  0  0  0  0  0  0  0  0  0  0  0
   58.3976   34.5906   45.4366 H   0  0  0  0  0  0  0  0  0  0  0  0
   60.6184   35.1675   46.4160 H   0  0  0  0  0  0  0  0  0  0  0  0
  1  2  1  0
  2  3  2  0
  2  4  2  0
  2  5  1  0
  5  6  2  0
  6  7  1  0
  7  8  2  0
  8  9  1  0
  9 10  1  0
 10 11  1  0
 11 12  2  0
 11 13  1  0
 13 14  2  0
 14 15  1  0
 15 16  2  0
 15 17  1  0
 17 18  1  0
 18 19  2  0
 18 20  1  0
  8 21  1  0
 21 22  2  0
 22  5  1  0
 20 13  1  0
  1 23  1  0
  1 24  1  0
  1 25  1  0
  6 26  1  0
  7 27  1  0
  9 28  1  0
  9 29  1  0
 14 30  1  0
 21 31  1  0
 22 32  1  0
M  CHG  3  10  -1  17  -1  20  -1
M  END
>  <UniqueID>  (89) 
80

>  <SMILES>  (89) 
CS(=O)(=O)c1ccc(C[N-]C(=O)c2cc(=O)[n-]c(=O)[n-]2)cc1

>  <Energy>  (89) 
28.539866479042594

>  <Genealogy>  (89) 
CS(=O)(=O)c1ccc(C[N-]C(=O)c2cc(=O)[n-]c(=O)[n-]2)cc1 (protonated)
CS(=O)(=O)c1ccc(C[N-]C(=O)c2cc(=O)[n-]c(=O)[n-]2)cc1 (3D coordinates assigned)
CS(=O)(=O)c1ccc(C[N-]C(=O)c2cc(=O)[n-]c(=O)[n-]2)cc1 (optimized conformer: 28.539866479042594 kcal/mol)

>  <smiles>  (89) 
CS(=O)(=O)c1ccc(CNC(=O)c2cc(=O)[nH]c(=O)[nH]2)cc1

>  <score_type>  (89) 
oracle

>  <origin>  (89) 
adg

>  <m_score__min__energy>  (89) 
-13.35

>  <m_primary>  (89) 
energy

$$$$
89:0
     RDKit          3D

 72 75  0  0  0  0  0  0  0  0999 V2000
   53.1090   23.1030   45.9760 C   0  0  0  0  0  0  0  0  0  0  0  0
   53.9890   24.0500   45.6450 C   0  0  0  0  0  0  0  0  0  0  0  0
   55.4580   23.9080   45.9460 C   0  0  0  0  0  0  0  0  0  0  0  0
   56.2660   24.7960   45.0830 N   0  0  0  0  0  0  0  0  0  0  0  0
   56.5960   26.0750   45.4870 C   0  0  0  0  0  0  0  0  0  0  0  0
   56.0980   26.6170   46.7260 N   0  0  0  0  0  0  0  0  0  0  0  0
   57.4050   26.8850   44.6600 C   0  0  0  0  0  0  0  0  0  0  0  0
   57.8670   28.1810   45.0980 N   0  0  0  0  0  0  0  0  0  0  0  0
   59.2900   28.3550   45.4210 C   0  0  0  0  0  0  0  0  0  0  0  0
   59.6200   27.7920   46.7730 C   0  0  0  0  0  0  0  0  0  0  0  0
   60.6190   27.0360   46.9260 O   0  0  0  0  0  0  0  0  0  0  0  0
   58.8260   28.1760   47.8990 N   0  0  0  0  0  0  0  0  0  0  0  0
   58.7470   29.5370   48.4230 C   0  0  0  0  0  0  0  0  0  0  0  0
   59.0550   29.5790   49.9320 C   0  0  1  0  0  0  0  0  0  0  0  0
   60.0430   30.6730   50.3220 C   0  0  0  0  0  0  0  0  0  0  0  0
   59.1800   31.7290   50.9400 C   0  0  0  0  0  0  0  0  0  0  0  0
   57.9310   30.9760   51.3540 C   0  0  0  0  0  0  0  0  0  0  0  0
   57.8590   29.7490   50.6620 O   0  0  0  0  0  0  0  0  0  0  0  0
   56.9890   29.3310   45.0510 C   0  0  0  0  0  0  0  0  0  0  0  0
   55.7490   29.1740   45.2160 O   0  0  0  0  0  0  0  0  0  0  0  0
   57.5170   30.6990   44.8420 C   0  0  0  0  0  0  0  0  0  0  0  0
   58.1030   31.3960   45.9090 C   0  0  0  0  0  0  0  0  0  0  0  0
   58.5720   32.7050   45.7370 C   0  0  0  0  0  0  0  0  0  0  0  0
   59.3020   33.5700   47.0900 S   0  0  0  0  0  0  0  0  0  0  0  0
   58.5130   33.2930   48.3410 O   0  0  0  0  0  0  0  0  0  0  0  0
   59.2430   35.0480   46.8220 O   0  0  0  0  0  0  0  0  0  0  0  0
   60.9640   33.0890   47.3310 N   0  0  0  0  0  0  0  0  0  0  0  0
   61.3740   33.3450   48.7210 C   0  0  0  0  0  0  0  0  0  0  0  0
   62.7460   32.7040   49.0030 C   0  0  0  0  0  0  0  0  0  0  0  0
   63.5760   32.5030   47.7220 C   0  0  0  0  0  0  0  0  0  0  0  0
   63.3410   33.6440   46.7290 C   0  0  0  0  0  0  0  0  0  0  0  0
   61.8420   33.8020   46.3800 C   0  0  0  0  0  0  0  0  0  0  0  0
   58.4700   33.3160   44.4800 C   0  0  0  0  0  0  0  0  0  0  0  0
   57.9120   32.6210   43.4060 C   0  0  0  0  0  0  0  0  0  0  0  0
   57.4350   31.3180   43.5790 C   0  0  0  0  0  0  0  0  0  0  0  0
   56.8640   30.6540   42.4990 O   0  0  0  0  0  0  0  0  0  0  0  0
   57.7930   26.3860   43.4120 C   0  0  0  0  0  0  0  0  0  0  0  0
   58.4990   27.0780   42.6340 O   0  0  0  0  0  0  0  0  0  0  0  0
   57.4220   25.1430   43.0400 N   0  0  0  0  0  0  0  0  0  0  0  0
   56.6780   24.3490   43.8490 C   0  0  0  0  0  0  0  0  0  0  0  0
   56.3730   23.1960   43.4410 O   0  0  0  0  0  0  0  0  0  0  0  0
   52.0426   23.2372   45.7421 H   0  0  0  0  0  0  0  0  0  0  0  0
   53.4500   22.1882   46.4828 H   0  0  0  0  0  0  0  0  0  0  0  0
   53.6319   24.9589   45.1386 H   0  0  0  0  0  0  0  0  0  0  0  0
   55.6361   24.1711   46.9991 H   0  0  0  0  0  0  0  0  0  0  0  0
   55.7555   22.8669   45.7522 H   0  0  0  0  0  0  0  0  0  0  0  0
   55.1680   26.3690   47.1270 H   0  0  0  0  0  0  0  0  0  0  0  0
   56.6170   27.3650   47.2360 H   0  0  0  0  0  0  0  0  0  0  0  0
   59.8948   27.8382   44.6613 H   0  0  0  0  0  0  0  0  0  0  0  0
   59.5122   29.4323   45.4321 H   0  0  0  0  0  0  0  0  0  0  0  0
   59.4752   30.1675   47.8917 H   0  0  0  0  0  0  0  0  0  0  0  0
   57.7228   29.9076   48.2690 H   0  0  0  0  0  0  0  0  0  0  0  0
   59.5289   28.6170   50.1770 H   0  0  0  0  0  0  0  0  0  0  0  0
   60.7799   30.2956   51.0462 H   0  0  0  0  0  0  0  0  0  0  0  0
   60.6249   31.0459   49.4662 H   0  0  0  0  0  0  0  0  0  0  0  0
   59.6749   32.1782   51.8137 H   0  0  0  0  0  0  0  0  0  0  0  0
   58.9677   32.5616   50.2532 H   0  0  0  0  0  0  0  0  0  0  0  0
   57.9634   30.7830   52.4364 H   0  0  0  0  0  0  0  0  0  0  0  0
   57.0455   31.5816   51.1108 H   0  0  0  0  0  0  0  0  0  0  0  0
   58.1953   30.9096   46.8913 H   0  0  0  0  0  0  0  0  0  0  0  0
   61.4406   34.4306   48.8851 H   0  0  0  0  0  0  0  0  0  0  0  0
   60.6284   32.9051   49.3997 H   0  0  0  0  0  0  0  0  0  0  0  0
   63.3066   33.3571   49.6880 H   0  0  0  0  0  0  0  0  0  0  0  0
   62.5678   31.7128   49.4454 H   0  0  0  0  0  0  0  0  0  0  0  0
   64.6432   32.4710   47.9866 H   0  0  0  0  0  0  0  0  0  0  0  0
   63.2666   31.5591   47.2495 H   0  0  0  0  0  0  0  0  0  0  0  0
   63.7042   34.5827   47.1727 H   0  0  0  0  0  0  0  0  0  0  0  0
   63.8849   33.4084   45.8024 H   0  0  0  0  0  0  0  0  0  0  0  0
   61.5862   34.8717   46.3969 H   0  0  0  0  0  0  0  0  0  0  0  0
   61.6818   33.3650   45.3833 H   0  0  0  0  0  0  0  0  0  0  0  0
   58.8305   34.3457   44.3395 H   0  0  0  0  0  0  0  0  0  0  0  0
   57.8471   33.1008   42.4183 H   0  0  0  0  0  0  0  0  0  0  0  0
  1  2  2  0
  2  3  1  0
  3  4  1  0
  4  5  1  0
  5  6  1  0
  5  7  2  0
  7  8  1  0
  8  9  1  0
  9 10  1  0
 10 11  2  0
 10 12  1  0
 12 13  1  0
 13 14  1  0
 14 15  1  0
 15 16  1  0
 16 17  1  0
 17 18  1  0
  8 19  1  0
 19 20  2  0
 19 21  1  0
 21 22  2  0
 22 23  1  0
 23 24  1  0
 24 25  2  0
 24 26  2  0
 24 27  1  0
 27 28  1  0
 28 29  1  0
 29 30  1  0
 30 31  1  0
 31 32  1  0
 23 33  2  0
 33 34  1  0
 34 35  2  0
 35 36  1  0
  7 37  1  0
 37 38  2  0
 37 39  1  0
 39 40  1  0
 40 41  2  0
 40  4  1  0
 18 14  1  0
 35 21  1  0
 32 27  1  0
  1 42  1  0
  1 43  1  0
  2 44  1  0
  3 45  1  0
  3 46  1  0
  6 47  1  0
  6 48  1  0
  9 49  1  0
  9 50  1  0
 13 51  1  0
 13 52  1  0
 14 53  1  1
 15 54  1  0
 15 55  1  0
 16 56  1  0
 16 57  1  0
 17 58  1  0
 17 59  1  0
 22 60  1  0
 28 61  1  0
 28 62  1  0
 29 63  1  0
 29 64  1  0
 30 65  1  0
 30 66  1  0
 31 67  1  0
 31 68  1  0
 32 69  1  0
 32 70  1  0
 33 71  1  0
 34 72  1  0
M  CHG  3  12  -1  36  -1  39  -1
M  END
>  <UniqueID>  (90) 
81

>  <SMILES>  (90) 
C=CCn1c(N)c(N(CC(=O)[N-]C[C@H]2CCCO2)C(=O)c2cc(S(=O)(=O)N3CCCCC3)ccc2[O-])c(=O)[n-]c1=O

>  <Energy>  (90) 
87.6974389775549

>  <Genealogy>  (90) 
C=CCn1c(N)c(N(CC(=O)[N-]CC2CCCO2)C(=O)c2cc(S(=O)(=O)N3CCCCC3)ccc2[O-])c(=O)[n-]c1=O (protonated)
C=CCn1c(N)c(N(CC(=O)[N-]C[C@H]2CCCO2)C(=O)c2cc(S(=O)(=O)N3CCCCC3)ccc2[O-])c(=O)[n-]c1=O (chirality)
C=CCn1c(N)c(N(CC(=O)[N-]C[C@H]2CCCO2)C(=O)c2cc(S(=O)(=O)N3CCCCC3)ccc2[O-])c(=O)[n-]c1=O (3D coordinates assigned)
C=CCn1c(N)c(N(CC(=O)[N-]C[C@H]2CCCO2)C(=O)c2cc(S(=O)(=O)N3CCCCC3)ccc2[O-])c(=O)[n-]c1=O (nonaromatic ring conformer: 87.6974389775549 kcal/mol)

>  <smiles>  (90) 
C=CCn1c(N)c(N(CC(=O)NCC2CCCO2)C(=O)c2cc(S(=O)(=O)N3CCCCC3)ccc2O)c(=O)[nH]c1=O

>  <score_type>  (90) 
oracle

>  <origin>  (90) 
adg

>  <m_score__min__energy>  (90) 
-13.59

>  <m_primary>  (90) 
energy

$$$$
90:0
     RDKit          3D

 40 41  0  0  0  0  0  0  0  0999 V2000
   55.0180   26.3330   46.7570 H   0  0  0  0  0  0  0  0  0  0  0  0
   55.4350   26.7160   45.9160 O   0  0  0  0  0  0  0  0  0  0  0  0
   56.6400   27.4150   45.9540 C   0  0  0  0  0  0  0  0  0  0  0  0
   57.6080   27.0640   46.8960 C   0  0  0  0  0  0  0  0  0  0  0  0
   57.4130   26.2450   47.6040 H   0  0  0  0  0  0  0  0  0  0  0  0
   58.8220   27.7490   46.9420 C   0  0  0  0  0  0  0  0  0  0  0  0
   59.5829   27.4583   47.6812 H   0  0  0  0  0  0  0  0  0  0  0  0
   59.0840   28.8070   46.0540 C   0  0  0  0  0  0  0  0  0  0  0  0
   60.3960   29.4940   46.1240 C   0  0  0  0  0  0  0  0  0  0  0  0
   61.2170   29.3440   45.1800 O   0  0  0  0  0  0  0  0  0  0  0  0
   60.7980   30.3220   47.2810 C   0  0  0  0  0  0  0  0  0  0  0  0
   61.7612   30.1136   47.7697 H   0  0  0  0  0  0  0  0  0  0  0  0
   60.0360   31.3170   47.7590 C   0  0  0  0  0  0  0  0  0  0  0  0
   59.6977   31.2596   48.8041 H   0  0  0  0  0  0  0  0  0  0  0  0
   59.6260   32.4920   46.9490 C   0  0  0  0  0  0  0  0  0  0  0  0
   58.3800   32.5220   46.2900 C   0  0  0  0  0  0  0  0  0  0  0  0
   57.7145   31.6476   46.3407 H   0  0  0  0  0  0  0  0  0  0  0  0
   57.9840   33.6540   45.5730 C   0  0  0  0  0  0  0  0  0  0  0  0
   57.0137   33.6628   45.0548 H   0  0  0  0  0  0  0  0  0  0  0  0
   58.8140   34.7720   45.5120 C   0  0  0  0  0  0  0  0  0  0  0  0
   58.4980   35.6611   44.9466 H   0  0  0  0  0  0  0  0  0  0  0  0
   60.0460   34.7640   46.1680 C   0  0  0  0  0  0  0  0  0  0  0  0
   60.6954   35.6506   46.1214 H   0  0  0  0  0  0  0  0  0  0  0  0
   60.4620   33.6320   46.8870 C   0  0  0  0  0  0  0  0  0  0  0  0
   61.7480   33.6390   47.5340 N   0  0  0  0  0  0  0  0  0  0  0  0
   61.8720   34.1670   48.8910 C   0  0  0  0  0  0  0  0  0  0  0  0
   61.6829   33.3620   49.6164 H   0  0  0  0  0  0  0  0  0  0  0  0
   62.8876   34.5629   49.0390 H   0  0  0  0  0  0  0  0  0  0  0  0
   61.1388   34.9736   49.0390 H   0  0  0  0  0  0  0  0  0  0  0  0
   62.9580   33.5060   46.7230 C   0  0  0  0  0  0  0  0  0  0  0  0
   63.8329   33.4098   47.3828 H   0  0  0  0  0  0  0  0  0  0  0  0
   62.8774   32.6113   46.0882 H   0  0  0  0  0  0  0  0  0  0  0  0
   63.0737   34.3968   46.0882 H   0  0  0  0  0  0  0  0  0  0  0  0
   58.1000   29.1710   45.1010 C   0  0  0  0  0  0  0  0  0  0  0  0
   58.3250   30.2980   44.1280 C   0  0  0  0  0  0  0  0  0  0  0  0
   58.5110   31.2296   44.6826 H   0  0  0  0  0  0  0  0  0  0  0  0
   59.1950   30.0680   43.4953 H   0  0  0  0  0  0  0  0  0  0  0  0
   57.4334   30.4197   43.4953 H   0  0  0  0  0  0  0  0  0  0  0  0
   56.8880   28.4600   45.0560 C   0  0  0  0  0  0  0  0  0  0  0  0
   56.1272   28.7274   44.3079 H   0  0  0  0  0  0  0  0  0  0  0  0
  1  2  1  0
  2  3  1  0
  3  4  2  0
  4  5  1  0
  4  6  1  0
  6  7  1  0
  6  8  2  0
  8  9  1  0
  9 10  2  0
  9 11  1  0
 11 12  1  0
 11 13  2  0
 13 14  1  0
 13 15  1  0
 15 16  2  0
 16 17  1  0
 16 18  1  0
 18 19  1  0
 18 20  2  0
 20 21  1  0
 20 22  1  0
 22 23  1  0
 22 24  2  0
 24 25  1  0
 25 26  1  0
 26 27  1  0
 26 28  1  0
 26 29  1  0
 25 30  1  0
 30 31  1  0
 30 32  1  0
 30 33  1  0
  8 34  1  0
 34 35  1  0
 35 36  1  0
 35 37  1  0
 35 38  1  0
 34 39  2  0
 39 40  1  0
 39  3  1  0
 24 15  1  0
M  END
>  <UniqueID>  (91) 
82

>  <SMILES>  (91) 
Cc1cc(O)ccc1C(=O)/C=C/c1ccccc1N(C)C

>  <Energy>  (91) 
52.004023619123345

>  <Genealogy>  (91) 
Cc1cc(O)ccc1C(=O)/C=C/c1ccccc1N(C)C (cis-trans isomerization)
Cc1cc(O)ccc1C(=O)/C=C/c1ccccc1N(C)C (3D coordinates assigned)
Cc1cc(O)ccc1C(=O)/C=C/c1ccccc1N(C)C (optimized conformer: 52.004023619123345 kcal/mol)

>  <smiles>  (91) 
Cc1cc(O)ccc1C(=O)C=Cc1ccccc1N(C)C

>  <score_type>  (91) 
oracle

>  <origin>  (91) 
adg

>  <m_score__min__energy>  (91) 
-7.9900000000000002

>  <m_primary>  (91) 
energy

$$$$
91:0
     RDKit          3D

 51 53  0  0  0  0  0  0  0  0999 V2000
   55.7400   26.9620   46.0110 O   0  0  0  0  0  0  0  0  0  0  0  0
   56.2790   27.8130   45.2490 C   0  0  0  0  0  0  0  0  0  0  0  0
   57.6950   27.6170   44.7990 C   0  0  0  0  0  0  0  0  0  0  0  0
   58.6280   28.4080   45.6810 C   0  0  0  0  0  0  0  0  0  0  0  0
   58.3050   28.6330   47.0300 C   0  0  0  0  0  0  0  0  0  0  0  0
   59.1900   29.3310   47.8600 C   0  0  0  0  0  0  0  0  0  0  0  0
   60.4100   29.7920   47.3530 C   0  0  0  0  0  0  0  0  0  0  0  0
   61.2740   30.4520   48.1620 F   0  0  0  0  0  0  0  0  0  0  0  0
   60.7410   29.5640   46.0140 C   0  0  0  0  0  0  0  0  0  0  0  0
   59.8560   28.8730   45.1790 C   0  0  0  0  0  0  0  0  0  0  0  0
   55.5640   28.9850   44.8430 N   0  0  0  0  0  0  0  0  0  0  0  0
   55.8260   29.7040   43.6020 C   0  0  0  0  0  0  0  0  0  0  0  0
   56.7530   30.8500   43.8650 C   0  0  0  0  0  0  0  0  0  0  0  0
   57.3250   31.4100   42.8920 O   0  0  0  0  0  0  0  0  0  0  0  0
   57.0440   31.2520   45.2120 N   0  0  0  0  0  0  0  0  0  0  0  0
   57.8480   32.3960   45.5480 C   0  0  0  0  0  0  0  0  0  0  0  0
   58.0100   33.4260   44.6070 C   0  0  0  0  0  0  0  0  0  0  0  0
   58.8000   34.5410   44.9080 C   0  0  0  0  0  0  0  0  0  0  0  0
   59.4450   34.6310   46.1440 C   0  0  0  0  0  0  0  0  0  0  0  0
   59.3060   33.6030   47.0870 C   0  0  0  0  0  0  0  0  0  0  0  0
   60.1580   33.7020   48.6280 S   0  0  0  0  0  0  0  0  0  0  0  0
   59.7780   32.5310   49.4930 O   0  0  0  0  0  0  0  0  0  0  0  0
   59.7480   34.9670   49.3280 O   0  0  0  0  0  0  0  0  0  0  0  0
   61.8820   33.7170   48.3570 N   0  0  0  0  0  0  0  0  0  0  0  0
   62.1810   33.3290   46.9670 C   0  0  0  0  0  0  0  0  0  0  0  0
   63.6850   33.0430   46.7860 C   0  0  0  0  0  0  0  0  0  0  0  0
   64.4300   33.5200   47.8900 O   0  0  0  0  0  0  0  0  0  0  0  0
   64.0690   32.8030   49.0570 C   0  0  0  0  0  0  0  0  0  0  0  0
   62.5420   32.7960   49.2940 C   0  0  0  0  0  0  0  0  0  0  0  0
   58.5200   32.4800   46.7810 C   0  0  0  0  0  0  0  0  0  0  0  0
   57.9527   26.5494   44.8603 H   0  0  0  0  0  0  0  0  0  0  0  0
   57.7964   27.9650   43.7604 H   0  0  0  0  0  0  0  0  0  0  0  0
   57.3531   28.2592   47.4352 H   0  0  0  0  0  0  0  0  0  0  0  0
   58.9262   29.5172   48.9115 H   0  0  0  0  0  0  0  0  0  0  0  0
   61.6994   29.9287   45.6159 H   0  0  0  0  0  0  0  0  0  0  0  0
   60.1219   28.6931   44.1269 H   0  0  0  0  0  0  0  0  0  0  0  0
   56.2880   29.0203   42.8746 H   0  0  0  0  0  0  0  0  0  0  0  0
   54.8779   30.0893   43.1987 H   0  0  0  0  0  0  0  0  0  0  0  0
   56.7400   30.6250   45.9910 H   0  0  0  0  0  0  0  0  0  0  0  0
   57.5132   33.3558   43.6281 H   0  0  0  0  0  0  0  0  0  0  0  0
   58.9135   35.3485   44.1697 H   0  0  0  0  0  0  0  0  0  0  0  0
   60.0632   35.5103   46.3777 H   0  0  0  0  0  0  0  0  0  0  0  0
   61.6095   32.4234   46.7152 H   0  0  0  0  0  0  0  0  0  0  0  0
   61.8991   34.1590   46.3025 H   0  0  0  0  0  0  0  0  0  0  0  0
   63.8357   31.9574   46.6929 H   0  0  0  0  0  0  0  0  0  0  0  0
   64.0327   33.5604   45.8797 H   0  0  0  0  0  0  0  0  0  0  0  0
   64.4156   31.7640   48.9549 H   0  0  0  0  0  0  0  0  0  0  0  0
   64.5400   33.3018   49.9168 H   0  0  0  0  0  0  0  0  0  0  0  0
   62.1541   31.7785   49.1383 H   0  0  0  0  0  0  0  0  0  0  0  0
   62.3357   33.1210   50.3244 H   0  0  0  0  0  0  0  0  0  0  0  0
   58.4293   31.6612   47.5099 H   0  0  0  0  0  0  0  0  0  0  0  0
  1  2  2  0
  2  3  1  0
  3  4  1  0
  4  5  2  0
  5  6  1  0
  6  7  2  0
  7  8  1  0
  7  9  1  0
  9 10  2  0
  2 11  1  0
 11 12  1  0
 12 13  1  0
 13 14  2  0
 13 15  1  0
 15 16  1  0
 16 17  2  0
 17 18  1  0
 18 19  2  0
 19 20  1  0
 20 21  1  0
 21 22  2  0
 21 23  2  0
 21 24  1  0
 24 25  1  0
 25 26  1  0
 26 27  1  0
 27 28  1  0
 28 29  1  0
 20 30  2  0
 10  4  1  0
 30 16  1  0
 29 24  1  0
  3 31  1  0
  3 32  1  0
  5 33  1  0
  6 34  1  0
  9 35  1  0
 10 36  1  0
 12 37  1  0
 12 38  1  0
 15 39  1  0
 17 40  1  0
 18 41  1  0
 19 42  1  0
 25 43  1  0
 25 44  1  0
 26 45  1  0
 26 46  1  0
 28 47  1  0
 28 48  1  0
 29 49  1  0
 29 50  1  0
 30 51  1  0
M  CHG  1  11  -1
M  END
>  <UniqueID>  (92) 
83

>  <SMILES>  (92) 
O=C(Cc1ccc(F)cc1)[N-]CC(=O)Nc1cccc(S(=O)(=O)N2CCOCC2)c1

>  <Energy>  (92) 
57.35328067438958

>  <Genealogy>  (92) 
O=C(Cc1ccc(F)cc1)[N-]CC(=O)Nc1cccc(S(=O)(=O)N2CCOCC2)c1 (protonated)
O=C(Cc1ccc(F)cc1)[N-]CC(=O)Nc1cccc(S(=O)(=O)N2CCOCC2)c1 (3D coordinates assigned)
O=C(Cc1ccc(F)cc1)[N-]CC(=O)Nc1cccc(S(=O)(=O)N2CCOCC2)c1 (nonaromatic ring conformer: 57.35328067438958 kcal/mol)

>  <smiles>  (92) 
O=C(Cc1ccc(F)cc1)NCC(=O)Nc1cccc(S(=O)(=O)N2CCOCC2)c1

>  <score_type>  (92) 
oracle

>  <origin>  (92) 
adg

>  <m_score__min__energy>  (92) 
-11.18

>  <m_primary>  (92) 
energy

$$$$
92:0
     RDKit          3D

 64 68  0  0  0  0  0  0  0  0999 V2000
   57.8923   32.4154   48.2142 H   0  0  0  0  0  0  0  0  0  0  0  0
   58.2260   33.0500   47.3800 C   0  0  0  0  0  0  0  0  0  0  0  0
   59.3630   33.7470   47.4810 C   0  0  0  0  0  0  0  0  0  0  0  0
   60.1480   33.7100   48.7280 C   0  0  0  0  0  0  0  0  0  0  0  0
   59.6340   33.7650   50.0210 C   0  0  0  0  0  0  0  0  0  0  0  0
   58.5651   33.8378   50.2702 H   0  0  0  0  0  0  0  0  0  0  0  0
   60.6380   33.7160   50.9270 N   0  0  0  0  0  0  0  0  0  0  0  0
   60.5020   33.8380   52.3740 C   0  0  0  0  0  0  0  0  0  0  0  0
   61.2337   33.1816   52.8677 H   0  0  0  0  0  0  0  0  0  0  0  0
   60.6846   34.8808   52.6728 H   0  0  0  0  0  0  0  0  0  0  0  0
   59.4851   33.5436   52.6728 H   0  0  0  0  0  0  0  0  0  0  0  0
   61.7840   33.6370   50.2200 C   0  0  0  0  0  0  0  0  0  0  0  0
   63.0900   33.5720   50.7110 C   0  0  0  0  0  0  0  0  0  0  0  0
   63.2916   33.5982   51.7921 H   0  0  0  0  0  0  0  0  0  0  0  0
   64.1390   33.4720   49.7800 C   0  0  0  0  0  0  0  0  0  0  0  0
   65.1802   33.4317   50.1325 H   0  0  0  0  0  0  0  0  0  0  0  0
   63.8650   33.4230   48.3960 C   0  0  0  0  0  0  0  0  0  0  0  0
   64.6932   33.3294   47.6782 H   0  0  0  0  0  0  0  0  0  0  0  0
   62.5410   33.4930   47.9290 C   0  0  0  0  0  0  0  0  0  0  0  0
   62.3166   33.4505   46.8530 H   0  0  0  0  0  0  0  0  0  0  0  0
   61.5200   33.6180   48.8720 C   0  0  0  0  0  0  0  0  0  0  0  0
   59.7500   34.6710   46.3520 C   0  0  0  0  0  0  0  0  0  0  0  0
   60.8110   34.9420   46.4560 H   0  0  0  0  0  0  0  0  0  0  0  0
   59.1174   35.5696   46.4007 H   0  0  0  0  0  0  0  0  0  0  0  0
   59.5350   33.9920   44.9890 C   0  0  0  0  0  0  0  0  0  0  0  0
   60.3845   33.3224   44.7890 H   0  0  0  0  0  0  0  0  0  0  0  0
   59.4592   34.7816   44.2269 H   0  0  0  0  0  0  0  0  0  0  0  0
   58.2900   33.2040   44.9490 N   0  0  0  0  0  0  0  0  0  0  0  0
   57.8840   32.6010   43.7090 C   0  0  0  0  0  0  0  0  0  0  0  0
   58.2730   33.0970   42.6210 O   0  0  0  0  0  0  0  0  0  0  0  0
   56.9880   31.4800   43.6770 N   0  0  0  0  0  0  0  0  0  0  0  0
   57.1960   30.2880   44.1640 C   0  0  0  0  0  0  0  0  0  0  0  0
   56.1460   29.6230   44.7190 N   0  0  0  0  0  0  0  0  0  0  0  0
   56.2670   28.3770   45.2460 C   0  0  0  0  0  0  0  0  0  0  0  0
   55.3896   27.8818   45.6874 H   0  0  0  0  0  0  0  0  0  0  0  0
   57.5070   27.7180   45.2300 C   0  0  0  0  0  0  0  0  0  0  0  0
   57.6670   26.3590   45.7910 C   0  0  0  0  0  0  0  0  0  0  0  0
   58.6640   25.6660   45.4470 O   0  0  0  0  0  0  0  0  0  0  0  0
   56.7260   25.8350   46.7450 N   0  0  0  0  0  0  0  0  0  0  0  0
   55.9760   26.4580   47.1190 H   0  0  0  0  0  0  0  0  0  0  0  0
   56.9440   24.5630   47.4400 C   0  0  0  0  0  0  0  0  0  0  0  0
   57.9583   24.2002   47.2175 H   0  0  0  0  0  0  0  0  0  0  0  0
   56.8236   24.7278   48.5209 H   0  0  0  0  0  0  0  0  0  0  0  0
   55.9220   23.5090   46.9870 C   0  0  0  0  0  0  0  0  0  0  0  0
   56.0236   22.6173   47.6230 H   0  0  0  0  0  0  0  0  0  0  0  0
   54.9161   23.9449   47.0778 H   0  0  0  0  0  0  0  0  0  0  0  0
   56.1340   23.1100   45.5480 C   0  0  0  0  0  0  0  0  0  0  0  0
   55.3100   23.6360   44.5390 C   0  0  0  0  0  0  0  0  0  0  0  0
   54.4698   24.2941   44.8053 H   0  0  0  0  0  0  0  0  0  0  0  0
   55.5540   23.3260   43.1970 C   0  0  0  0  0  0  0  0  0  0  0  0
   54.9051   23.7402   42.4112 H   0  0  0  0  0  0  0  0  0  0  0  0
   56.6220   22.4900   42.8520 C   0  0  0  0  0  0  0  0  0  0  0  0
   56.8122   22.2467   41.7962 H   0  0  0  0  0  0  0  0  0  0  0  0
   57.4460   21.9650   43.8500 C   0  0  0  0  0  0  0  0  0  0  0  0
   58.2849   21.3070   43.5792 H   0  0  0  0  0  0  0  0  0  0  0  0
   57.2070   22.2740   45.1930 C   0  0  0  0  0  0  0  0  0  0  0  0
   57.8614   21.8611   45.9748 H   0  0  0  0  0  0  0  0  0  0  0  0
   58.5990   28.3700   44.6410 C   0  0  0  0  0  0  0  0  0  0  0  0
   59.5780   27.8700   44.6006 H   0  0  0  0  0  0  0  0  0  0  0  0
   58.4510   29.6490   44.1060 C   0  0  0  0  0  0  0  0  0  0  0  0
   59.3090   30.1566   43.6412 H   0  0  0  0  0  0  0  0  0  0  0  0
   57.4070   33.1360   46.1260 C   0  0  0  0  0  0  0  0  0  0  0  0
   56.7654   32.2459   46.0486 H   0  0  0  0  0  0  0  0  0  0  0  0
   56.7856   34.0429   46.1631 H   0  0  0  0  0  0  0  0  0  0  0  0
  1  2  1  0
  2  3  2  0
  3  4  1  0
  4  5  2  0
  5  6  1  0
  5  7  1  0
  7  8  1  0
  8  9  1  0
  8 10  1  0
  8 11  1  0
  7 12  1  0
 12 13  2  0
 13 14  1  0
 13 15  1  0
 15 16  1  0
 15 17  2  0
 17 18  1  0
 17 19  1  0
 19 20  1  0
 19 21  2  0
  3 22  1  0
 22 23  1  0
 22 24  1  0
 22 25  1  0
 25 26  1  0
 25 27  1  0
 25 28  1  0
 28 29  1  0
 29 30  2  0
 29 31  1  0
 31 32  2  0
 32 33  1  0
 33 34  1  0
 34 35  1  0
 34 36  2  0
 36 37  1  0
 37 38  2  0
 37 39  1  0
 39 40  1  0
 39 41  1  0
 41 42  1  0
 41 43  1  0
 41 44  1  0
 44 45  1  0
 44 46  1  0
 44 47  1  0
 47 48  2  0
 48 49  1  0
 48 50  1  0
 50 51  1  0
 50 52  2  0
 52 53  1  0
 52 54  1  0
 54 55  1  0
 54 56  2  0
 56 57  1  0
 36 58  1  0
 58 59  1  0
 58 60  2  0
 60 61  1  0
 28 62  1  0
 62 63  1  0
 62 64  1  0
 62  2  1  0
 21  4  1  0
 60 32  1  0
 21 12  1  0
 56 47  1  0
M  CHG  1  33  -1
M  END
>  <UniqueID>  (93) 
84

>  <SMILES>  (93) 
Cn1cc(C2=CCN(C(=O)/N=c3\ccc(C(=O)NCCc4ccccc4)c[n-]3)CC2)c2ccccc21

>  <Energy>  (93) 
114.37921920140217

>  <Genealogy>  (93) 
Cn1cc(C2=CCN(C(=O)N=c3ccc(C(=O)NCCc4ccccc4)c[n-]3)CC2)c2ccccc21 (protonated)
Cn1cc(C2=CCN(C(=O)/N=c3\ccc(C(=O)NCCc4ccccc4)c[n-]3)CC2)c2ccccc21 (cis-trans isomerization)
Cn1cc(C2=CCN(C(=O)/N=c3\ccc(C(=O)NCCc4ccccc4)c[n-]3)CC2)c2ccccc21 (3D coordinates assigned)
Cn1cc(C2=CCN(C(=O)/N=c3\ccc(C(=O)NCCc4ccccc4)c[n-]3)CC2)c2ccccc21 (nonaromatic ring conformer: 114.37921920140217 kcal/mol)

>  <smiles>  (93) 
Cn1cc(C2=CCN(C(=O)N=c3ccc(C(=O)NCCc4ccccc4)c[nH]3)CC2)c2ccccc21

>  <score_type>  (93) 
oracle

>  <origin>  (93) 
adg

>  <m_score__min__energy>  (93) 
-11.92

>  <m_primary>  (93) 
energy

$$$$
93:0
     RDKit          3D

 38 40  0  0  0  0  0  0  0  0999 V2000
   56.2140   25.1830   47.1270 O   0  0  0  0  0  0  0  0  0  0  0  0
   56.6080   26.1790   46.4670 C   0  0  0  0  0  0  0  0  0  0  0  0
   55.7060   27.0680   45.9790 N   0  0  0  0  0  0  0  0  0  0  0  0
   56.1050   28.1510   45.2630 C   0  0  0  0  0  0  0  0  0  0  0  0
   55.1440   29.0330   44.7820 O   0  0  0  0  0  0  0  0  0  0  0  0
   57.4730   28.3700   45.0210 C   0  0  0  0  0  0  0  0  0  0  0  0
   57.9460   29.5470   44.1980 C   0  0  0  0  0  0  0  0  0  0  0  0
   57.8140   30.8280   44.9800 C   0  0  0  0  0  0  0  0  0  0  0  0
   57.1200   31.9220   44.4430 C   0  0  0  0  0  0  0  0  0  0  0  0
   56.9920   33.1020   45.1780 C   0  0  0  0  0  0  0  0  0  0  0  0
   57.5480   33.1980   46.4550 C   0  0  0  0  0  0  0  0  0  0  0  0
   58.2370   32.1110   47.0170 C   0  0  0  0  0  0  0  0  0  0  0  0
   58.7970   32.2430   48.3360 N   0  0  0  0  0  0  0  0  0  0  0  0
   59.7980   33.5700   48.8390 S   0  0  0  0  0  0  0  0  0  0  0  0
   59.2090   34.8550   48.3270 O   0  0  0  0  0  0  0  0  0  0  0  0
   59.8280   33.6100   50.3420 O   0  0  0  0  0  0  0  0  0  0  0  0
   61.4260   33.3880   48.1820 C   0  0  0  0  0  0  0  0  0  0  0  0
   62.4330   32.8210   48.9770 C   0  0  0  0  0  0  0  0  0  0  0  0
   63.7330   32.6910   48.4800 C   0  0  0  0  0  0  0  0  0  0  0  0
   64.0330   33.1230   47.1850 C   0  0  0  0  0  0  0  0  0  0  0  0
   63.0330   33.6800   46.3840 C   0  0  0  0  0  0  0  0  0  0  0  0
   61.7300   33.8120   46.8780 C   0  0  0  0  0  0  0  0  0  0  0  0
   60.7730   34.3490   46.0800 F   0  0  0  0  0  0  0  0  0  0  0  0
   58.3630   30.9250   46.2690 C   0  0  0  0  0  0  0  0  0  0  0  0
   58.3850   27.4280   45.5320 C   0  0  0  0  0  0  0  0  0  0  0  0
   59.6230   27.5590   45.3400 O   0  0  0  0  0  0  0  0  0  0  0  0
   57.9330   26.3610   46.2410 N   0  0  0  0  0  0  0  0  0  0  0  0
   59.0011   29.3969   43.9255 H   0  0  0  0  0  0  0  0  0  0  0  0
   57.3256   29.6187   43.2925 H   0  0  0  0  0  0  0  0  0  0  0  0
   56.6751   31.8501   43.4395 H   0  0  0  0  0  0  0  0  0  0  0  0
   56.4513   33.9588   44.7496 H   0  0  0  0  0  0  0  0  0  0  0  0
   57.4455   34.1328   47.0257 H   0  0  0  0  0  0  0  0  0  0  0  0
   58.6080   31.4990   49.0450 H   0  0  0  0  0  0  0  0  0  0  0  0
   62.1988   32.4774   49.9954 H   0  0  0  0  0  0  0  0  0  0  0  0
   64.5202   32.2486   49.1082 H   0  0  0  0  0  0  0  0  0  0  0  0
   65.0573   33.0243   46.7962 H   0  0  0  0  0  0  0  0  0  0  0  0
   63.2700   34.0153   45.3635 H   0  0  0  0  0  0  0  0  0  0  0  0
   58.8973   30.0649   46.6989 H   0  0  0  0  0  0  0  0  0  0  0  0
  1  2  2  0
  2  3  1  0
  3  4  1  0
  4  5  1  0
  4  6  2  0
  6  7  1  0
  7  8  1  0
  8  9  2  0
  9 10  1  0
 10 11  2  0
 11 12  1  0
 12 13  1  0
 13 14  1  0
 14 15  2  0
 14 16  2  0
 14 17  1  0
 17 18  2  0
 18 19  1  0
 19 20  2  0
 20 21  1  0
 21 22  2  0
 22 23  1  0
 12 24  2  0
  6 25  1  0
 25 26  2  0
 25 27  1  0
 27  2  1  0
 24  8  1  0
 22 17  1  0
  7 28  1  0
  7 29  1  0
  9 30  1  0
 10 31  1  0
 11 32  1  0
 13 33  1  0
 18 34  1  0
 19 35  1  0
 20 36  1  0
 21 37  1  0
 24 38  1  0
M  CHG  3   3  -1   5  -1  27  -1
M  END
>  <UniqueID>  (94) 
85

>  <SMILES>  (94) 
O=c1[n-]c([O-])c(Cc2cccc(NS(=O)(=O)c3ccccc3F)c2)c(=O)[n-]1

>  <Energy>  (94) 
45.24750229650189

>  <Genealogy>  (94) 
O=c1[n-]c([O-])c(Cc2cccc(NS(=O)(=O)c3ccccc3F)c2)c(=O)[n-]1 (protonated)
O=c1[n-]c([O-])c(Cc2cccc(NS(=O)(=O)c3ccccc3F)c2)c(=O)[n-]1 (3D coordinates assigned)
O=c1[n-]c([O-])c(Cc2cccc(NS(=O)(=O)c3ccccc3F)c2)c(=O)[n-]1 (optimized conformer: 45.24750229650189 kcal/mol)

>  <smiles>  (94) 
O=c1[nH]c(O)c(Cc2cccc(NS(=O)(=O)c3ccccc3F)c2)c(=O)[nH]1

>  <score_type>  (94) 
oracle

>  <origin>  (94) 
adg

>  <m_score__min__energy>  (94) 
-16.309999999999999

>  <m_primary>  (94) 
energy

$$$$
94:0
     RDKit          3D

 80 86  0  0  0  0  0  0  0  0999 V2000
   53.2270   23.1850   51.7690 O   0  0  0  0  0  0  0  0  0  0  0  0
   52.3190   23.0230   50.9070 C   0  0  0  0  0  0  0  0  0  0  0  0
   52.5240   22.0350   49.7840 C   0  0  0  0  0  0  0  0  0  0  0  0
   53.4340   22.5130   48.7180 N   0  0  0  0  0  0  0  0  0  0  0  0
   54.8650   22.4070   49.0590 C   0  0  0  0  0  0  0  0  0  0  0  0
   55.7000   23.3130   48.1320 C   0  0  0  0  0  0  0  0  0  0  0  0
   54.9690   23.6170   46.8050 C   0  0  0  0  0  0  0  0  0  0  0  0
   55.9150   24.0820   45.7820 N   0  0  0  0  0  0  0  0  0  0  0  0
   56.9020   23.2680   45.0730 C   0  0  0  0  0  0  0  0  0  0  0  0
   57.7990   24.2650   44.2920 C   0  0  0  0  0  0  0  0  0  0  0  0
   57.3030   25.5910   44.6360 N   0  0  0  0  0  0  0  0  0  0  0  0
   57.7840   26.8480   44.0680 C   0  0  0  0  0  0  0  0  0  0  0  0
   58.1660   27.8080   45.1670 C   0  0  0  0  0  0  0  0  0  0  0  0
   57.7740   29.1520   45.0740 C   0  0  0  0  0  0  0  0  0  0  0  0
   58.1210   30.0650   46.0740 C   0  0  0  0  0  0  0  0  0  0  0  0
   58.8610   29.6450   47.1890 C   0  0  0  0  0  0  0  0  0  0  0  0
   59.1900   30.5990   48.2700 C   0  0  0  0  0  0  0  0  0  0  0  0
   59.2100   31.9940   48.1990 C   0  0  0  0  0  0  0  0  0  0  0  0
   58.8090   32.8410   47.0550 C   0  0  0  0  0  0  0  0  0  0  0  0
   57.4530   33.0930   46.7760 C   0  0  0  0  0  0  0  0  0  0  0  0
   57.0950   33.8870   45.6800 C   0  0  0  0  0  0  0  0  0  0  0  0
   58.0850   34.4430   44.8660 C   0  0  0  0  0  0  0  0  0  0  0  0
   59.4350   34.2190   45.1530 C   0  0  0  0  0  0  0  0  0  0  0  0
   59.7960   33.4260   46.2460 C   0  0  0  0  0  0  0  0  0  0  0  0
   59.6630   32.5080   49.3670 N   0  0  0  0  0  0  0  0  0  0  0  0
   59.9010   31.4180   50.1250 C   0  0  0  0  0  0  0  0  0  0  0  0
   60.4050   31.4320   51.4230 C   0  0  0  0  0  0  0  0  0  0  0  0
   60.6340   30.1970   52.0470 C   0  0  0  0  0  0  0  0  0  0  0  0
   60.3650   28.9940   51.3660 C   0  0  0  0  0  0  0  0  0  0  0  0
   60.6670   27.4510   52.1440 Cl  0  0  0  0  0  0  0  0  0  0  0  0
   59.8600   29.0410   50.0590 C   0  0  0  0  0  0  0  0  0  0  0  0
   59.6310   30.2600   49.4970 N   0  0  0  0  0  0  0  0  0  0  0  0
   59.2630   28.3050   47.2800 C   0  0  0  0  0  0  0  0  0  0  0  0
   58.9250   27.3900   46.2770 C   0  0  0  0  0  0  0  0  0  0  0  0
   59.3440   26.0680   46.3990 O   0  0  0  0  0  0  0  0  0  0  0  0
   56.2060   25.4380   45.5090 C   0  0  0  0  0  0  0  0  0  0  0  0
   55.5490   26.4030   45.9840 O   0  0  0  0  0  0  0  0  0  0  0  0
   54.1780   22.3880   46.3240 C   0  0  0  0  0  0  0  0  0  0  0  0
   53.1410   21.9410   47.3850 C   0  0  0  0  0  0  0  0  0  0  0  0
   51.0870   23.7630   50.9940 N   0  0  0  0  0  0  0  0  0  0  0  0
   50.8810   24.8940   51.8570 C   0  0  0  0  0  0  0  0  0  0  0  0
   50.2420   26.0630   51.4010 C   0  0  0  0  0  0  0  0  0  0  0  0
   50.0230   27.1350   52.2740 C   0  0  0  0  0  0  0  0  0  0  0  0
   50.4270   27.0460   53.6070 C   0  0  0  0  0  0  0  0  0  0  0  0
   50.2050   28.0880   54.4490 F   0  0  0  0  0  0  0  0  0  0  0  0
   51.0470   25.8830   54.0750 C   0  0  0  0  0  0  0  0  0  0  0  0
   51.4310   25.7900   55.3710 F   0  0  0  0  0  0  0  0  0  0  0  0
   51.2680   24.8100   53.2050 C   0  0  0  0  0  0  0  0  0  0  0  0
   52.9442   21.1114   50.2087 H   0  0  0  0  0  0  0  0  0  0  0  0
   51.5411   21.8779   49.3158 H   0  0  0  0  0  0  0  0  0  0  0  0
   55.0141   22.7191   50.1032 H   0  0  0  0  0  0  0  0  0  0  0  0
   55.1892   21.3638   48.9297 H   0  0  0  0  0  0  0  0  0  0  0  0
   55.9023   24.2615   48.6510 H   0  0  0  0  0  0  0  0  0  0  0  0
   56.6335   22.7833   47.8912 H   0  0  0  0  0  0  0  0  0  0  0  0
   54.2483   24.4284   46.9846 H   0  0  0  0  0  0  0  0  0  0  0  0
   57.5059   22.6906   45.7885 H   0  0  0  0  0  0  0  0  0  0  0  0
   56.4185   22.5472   44.3972 H   0  0  0  0  0  0  0  0  0  0  0  0
   58.8500   24.1569   44.5981 H   0  0  0  0  0  0  0  0  0  0  0  0
   57.7595   24.0845   43.2076 H   0  0  0  0  0  0  0  0  0  0  0  0
   58.6639   26.6484   43.4387 H   0  0  0  0  0  0  0  0  0  0  0  0
   56.9820   27.2972   43.4638 H   0  0  0  0  0  0  0  0  0  0  0  0
   57.1884   29.4902   44.2064 H   0  0  0  0  0  0  0  0  0  0  0  0
   57.8124   31.1172   45.9861 H   0  0  0  0  0  0  0  0  0  0  0  0
   56.6718   32.6647   47.4212 H   0  0  0  0  0  0  0  0  0  0  0  0
   56.0335   34.0732   45.4596 H   0  0  0  0  0  0  0  0  0  0  0  0
   57.8022   35.0575   43.9986 H   0  0  0  0  0  0  0  0  0  0  0  0
   60.2135   34.6672   44.5182 H   0  0  0  0  0  0  0  0  0  0  0  0
   60.8592   33.2594   46.4735 H   0  0  0  0  0  0  0  0  0  0  0  0
   60.6163   32.3791   51.9411 H   0  0  0  0  0  0  0  0  0  0  0  0
   61.0260   30.1678   53.0744 H   0  0  0  0  0  0  0  0  0  0  0  0
   59.6538   28.1157   49.5011 H   0  0  0  0  0  0  0  0  0  0  0  0
   59.8496   27.9699   48.1481 H   0  0  0  0  0  0  0  0  0  0  0  0
   53.6517   22.6419   45.3920 H   0  0  0  0  0  0  0  0  0  0  0  0
   54.8845   21.5617   46.1566 H   0  0  0  0  0  0  0  0  0  0  0  0
   52.1415   22.2730   47.0674 H   0  0  0  0  0  0  0  0  0  0  0  0
   53.1874   20.8450   47.4666 H   0  0  0  0  0  0  0  0  0  0  0  0
   50.2720   23.4260   50.4320 H   0  0  0  0  0  0  0  0  0  0  0  0
   49.9133   26.1341   50.3537 H   0  0  0  0  0  0  0  0  0  0  0  0
   49.5317   28.0490   51.9089 H   0  0  0  0  0  0  0  0  0  0  0  0
   51.7483   23.8938   53.5791 H   0  0  0  0  0  0  0  0  0  0  0  0
  1  2  2  0
  2  3  1  0
  3  4  1  0
  4  5  1  0
  5  6  1  0
  6  7  1  0
  7  8  1  0
  8  9  1  0
  9 10  1  0
 10 11  1  0
 11 12  1  0
 12 13  1  0
 13 14  2  0
 14 15  1  0
 15 16  2  0
 16 17  1  0
 17 18  2  0
 18 19  1  0
 19 20  2  0
 20 21  1  0
 21 22  2  0
 22 23  1  0
 23 24  2  0
 18 25  1  0
 25 26  2  0
 26 27  1  0
 27 28  2  0
 28 29  1  0
 29 30  1  0
 29 31  2  0
 31 32  1  0
 16 33  1  0
 33 34  2  0
 34 35  1  0
 11 36  1  0
 36 37  2  0
  7 38  1  0
 38 39  1  0
  2 40  1  0
 40 41  1  0
 41 42  2  0
 42 43  1  0
 43 44  2  0
 44 45  1  0
 44 46  1  0
 46 47  1  0
 46 48  2  0
 39  4  1  0
 48 41  1  0
 36  8  1  0
 34 13  1  0
 32 17  1  0
 24 19  1  0
 32 26  1  0
  3 49  1  0
  3 50  1  0
  5 51  1  0
  5 52  1  0
  6 53  1  0
  6 54  1  0
  7 55  1  0
  9 56  1  0
  9 57  1  0
 10 58  1  0
 10 59  1  0
 12 60  1  0
 12 61  1  0
 14 62  1  0
 15 63  1  0
 20 64  1  0
 21 65  1  0
 22 66  1  0
 23 67  1  0
 24 68  1  0
 27 69  1  0
 28 70  1  0
 31 71  1  0
 33 72  1  0
 38 73  1  0
 38 74  1  0
 39 75  1  0
 39 76  1  0
 40 77  1  0
 42 78  1  0
 43 79  1  0
 48 80  1  0
M  CHG  1  35  -1
M  END
>  <UniqueID>  (95) 
86

>  <SMILES>  (95) 
O=C(CN1CCC(N2CCN(Cc3ccc(-c4c(-c5ccccc5)nc5ccc(Cl)cn45)cc3[O-])C2=O)CC1)Nc1ccc(F)c(F)c1

>  <Energy>  (95) 
155.94825822183697

>  <Genealogy>  (95) 
O=C(CN1CCC(N2CCN(Cc3ccc(-c4c(-c5ccccc5)nc5ccc(Cl)cn45)cc3[O-])C2=O)CC1)Nc1ccc(F)c(F)c1 (protonated)
O=C(CN1CCC(N2CCN(Cc3ccc(-c4c(-c5ccccc5)nc5ccc(Cl)cn45)cc3[O-])C2=O)CC1)Nc1ccc(F)c(F)c1 (3D coordinates assigned)
O=C(CN1CCC(N2CCN(Cc3ccc(-c4c(-c5ccccc5)nc5ccc(Cl)cn45)cc3[O-])C2=O)CC1)Nc1ccc(F)c(F)c1 (nonaromatic ring conformer: 155.94825822183697 kcal/mol)

>  <smiles>  (95) 
O=C(CN1CCC(N2CCN(Cc3ccc(-c4c(-c5ccccc5)nc5ccc(Cl)cn45)cc3O)C2=O)CC1)Nc1ccc(F)c(F)c1

>  <score_type>  (95) 
oracle

>  <origin>  (95) 
adg

>  <m_score__min__energy>  (95) 
-11.81

>  <m_primary>  (95) 
energy

$$$$
95:0
     RDKit          3D

 35 36  0  0  0  0  0  0  0  0999 V2000
   58.0590   28.0020   44.5770 O   0  0  0  0  0  0  0  0  0  0  0  0
   57.0530   28.1600   45.3200 C   0  0  0  0  0  0  0  0  0  0  0  0
   56.6670   27.0850   46.2850 C   0  0  0  0  0  0  0  0  0  0  0  0
   55.3390   26.5630   45.9710 N   0  0  0  0  0  0  0  0  0  0  0  0
   55.0270   25.1900   45.6980 C   0  0  0  0  0  0  0  0  0  0  0  0
   53.8190   24.8390   45.6460 O   0  0  0  0  0  0  0  0  0  0  0  0
   56.0770   24.1700   45.5190 C   0  0  0  0  0  0  0  0  0  0  0  0
   55.9960   22.9690   46.2390 C   0  0  0  0  0  0  0  0  0  0  0  0
   56.9870   21.9940   46.0990 C   0  0  0  0  0  0  0  0  0  0  0  0
   58.0590   22.2060   45.2310 C   0  0  0  0  0  0  0  0  0  0  0  0
   58.1340   23.3880   44.4870 C   0  0  0  0  0  0  0  0  0  0  0  0
   57.1390   24.3680   44.6160 C   0  0  0  0  0  0  0  0  0  0  0  0
   57.1920   25.5220   43.8340 O   0  0  0  0  0  0  0  0  0  0  0  0
   56.2770   29.3600   45.2470 N   0  0  0  0  0  0  0  0  0  0  0  0
   56.5220   30.4190   44.2760 C   0  0  0  0  0  0  0  0  0  0  0  0
   57.3670   31.5040   44.8870 C   0  0  0  0  0  0  0  0  0  0  0  0
   57.4230   32.7720   44.2870 C   0  0  0  0  0  0  0  0  0  0  0  0
   58.1930   33.7890   44.8600 C   0  0  0  0  0  0  0  0  0  0  0  0
   58.9050   33.5500   46.0400 C   0  0  0  0  0  0  0  0  0  0  0  0
   59.8550   34.8310   46.7680 Cl  0  0  0  0  0  0  0  0  0  0  0  0
   58.8480   32.2900   46.6460 C   0  0  0  0  0  0  0  0  0  0  0  0
   58.0800   31.2710   46.0740 C   0  0  0  0  0  0  0  0  0  0  0  0
   57.3999   26.2668   46.2265 H   0  0  0  0  0  0  0  0  0  0  0  0
   56.6498   27.5095   47.2996 H   0  0  0  0  0  0  0  0  0  0  0  0
   55.1480   22.7938   46.9173 H   0  0  0  0  0  0  0  0  0  0  0  0
   56.9221   21.0583   46.6736 H   0  0  0  0  0  0  0  0  0  0  0  0
   58.8453   21.4432   45.1319 H   0  0  0  0  0  0  0  0  0  0  0  0
   58.9763   23.5496   43.7983 H   0  0  0  0  0  0  0  0  0  0  0  0
   56.7000   26.3670   44.1000 H   0  0  0  0  0  0  0  0  0  0  0  0
   57.0460   29.9984   43.4051 H   0  0  0  0  0  0  0  0  0  0  0  0
   55.5583   30.8489   43.9653 H   0  0  0  0  0  0  0  0  0  0  0  0
   56.8591   32.9662   43.3627 H   0  0  0  0  0  0  0  0  0  0  0  0
   58.2388   34.7786   44.3819 H   0  0  0  0  0  0  0  0  0  0  0  0
   59.4081   32.1008   47.5736 H   0  0  0  0  0  0  0  0  0  0  0  0
   58.0342   30.2832   46.5557 H   0  0  0  0  0  0  0  0  0  0  0  0
  1  2  2  0
  2  3  1  0
  3  4  1  0
  4  5  1  0
  5  6  2  0
  5  7  1  0
  7  8  2  0
  8  9  1  0
  9 10  2  0
 10 11  1  0
 11 12  2  0
 12 13  1  0
  2 14  1  0
 14 15  1  0
 15 16  1  0
 16 17  2  0
 17 18  1  0
 18 19  2  0
 19 20  1  0
 19 21  1  0
 21 22  2  0
 12  7  1  0
 22 16  1  0
  3 23  1  0
  3 24  1  0
  8 25  1  0
  9 26  1  0
 10 27  1  0
 11 28  1  0
 13 29  1  0
 15 30  1  0
 15 31  1  0
 17 32  1  0
 18 33  1  0
 21 34  1  0
 22 35  1  0
M  CHG  2   4  -1  14  -1
M  END
>  <UniqueID>  (96) 
87

>  <SMILES>  (96) 
O=C(C[N-]C(=O)c1ccccc1O)[N-]Cc1ccc(Cl)cc1

>  <Energy>  (96) 
32.86205897894373

>  <Genealogy>  (96) 
O=C(C[N-]C(=O)c1ccccc1O)[N-]Cc1ccc(Cl)cc1 (protonated)
O=C(C[N-]C(=O)c1ccccc1O)[N-]Cc1ccc(Cl)cc1 (3D coordinates assigned)
O=C(C[N-]C(=O)c1ccccc1O)[N-]Cc1ccc(Cl)cc1 (optimized conformer: 32.86205897894373 kcal/mol)

>  <smiles>  (96) 
O=C(CNC(=O)c1ccccc1O)NCc1ccc(Cl)cc1

>  <score_type>  (96) 
oracle

>  <origin>  (96) 
adg

>  <m_score__min__energy>  (96) 
-11.859999999999999

>  <m_primary>  (96) 
energy

$$$$
