0:0
     RDKit          3D

 44 46  0  0  0  0  0  0  0  0999 V2000
   54.4480   23.7620   44.6650 C   0  0  0  0  0  0  0  0  0  0  0  0
   54.5030   24.5760   45.9530 C   0  0  0  0  0  0  0  0  0  0  0  0
   55.7650   25.4140   46.0060 C   0  0  0  0  0  0  0  0  0  0  0  0
   55.6830   26.7140   45.5990 N   0  0  0  0  0  0  0  0  0  0  0  0
   56.7640   27.5410   45.6190 C   0  0  0  0  0  0  0  0  0  0  0  0
   56.6380   28.9410   45.1650 C   0  0  0  0  0  0  0  0  0  0  0  0
   57.6720   29.8070   45.0970 N   0  0  0  0  0  0  0  0  0  0  0  0
   57.0980   30.9400   44.6510 C   0  0  0  0  0  0  0  0  0  0  0  0
   57.8460   32.1780   44.3730 C   0  0  0  0  0  0  0  0  0  0  0  0
   58.4410   32.2920   43.2680 O   0  0  0  0  0  0  0  0  0  0  0  0
   57.9230   33.2460   45.3340 N   0  0  0  0  0  0  0  0  0  0  0  0
   58.2700   32.9460   46.7340 C   0  0  0  0  0  0  0  0  0  0  0  0
   58.8720   34.1700   47.4410 C   0  0  0  0  0  0  0  0  0  0  0  0
   59.8840   34.8710   46.5270 C   0  0  0  0  0  0  0  0  0  0  0  0
   59.2700   35.3080   45.1780 C   0  0  0  0  0  0  0  0  0  0  0  0
   57.9200   34.6420   44.8770 C   0  0  0  0  0  0  0  0  0  0  0  0
   55.7530   30.7200   44.4440 C   0  0  0  0  0  0  0  0  0  0  0  0
   55.5020   29.4790   44.7780 O   0  0  0  0  0  0  0  0  0  0  0  0
   57.9880   27.0470   46.0660 C   0  0  0  0  0  0  0  0  0  0  0  0
   58.0710   25.7250   46.4950 C   0  0  0  0  0  0  0  0  0  0  0  0
   59.1890   25.2890   46.8860 O   0  0  0  0  0  0  0  0  0  0  0  0
   56.9600   24.9170   46.4880 N   0  0  0  0  0  0  0  0  0  0  0  0
   57.0680   23.5170   46.9400 C   0  0  0  0  0  0  0  0  0  0  0  0
   54.3757   22.6921   44.9102 H   0  0  0  0  0  0  0  0  0  0  0  0
   53.5682   24.0638   44.0778 H   0  0  0  0  0  0  0  0  0  0  0  0
   55.3604   23.9428   44.0778 H   0  0  0  0  0  0  0  0  0  0  0  0
   53.6270   25.2398   45.9979 H   0  0  0  0  0  0  0  0  0  0  0  0
   54.5028   23.8840   46.8080 H   0  0  0  0  0  0  0  0  0  0  0  0
   54.7660   27.0840   45.2620 H   0  0  0  0  0  0  0  0  0  0  0  0
   57.3602   32.6361   47.2690 H   0  0  0  0  0  0  0  0  0  0  0  0
   59.0206   32.1419   46.7382 H   0  0  0  0  0  0  0  0  0  0  0  0
   58.0661   34.8737   47.6965 H   0  0  0  0  0  0  0  0  0  0  0  0
   59.3868   33.8372   48.3544 H   0  0  0  0  0  0  0  0  0  0  0  0
   60.2661   35.7632   47.0447 H   0  0  0  0  0  0  0  0  0  0  0  0
   60.6866   34.1513   46.3080 H   0  0  0  0  0  0  0  0  0  0  0  0
   59.1239   36.3981   45.1985 H   0  0  0  0  0  0  0  0  0  0  0  0
   59.9687   34.9963   44.3876 H   0  0  0  0  0  0  0  0  0  0  0  0
   57.1212   35.1915   45.3966 H   0  0  0  0  0  0  0  0  0  0  0  0
   57.7478   34.6608   43.7907 H   0  0  0  0  0  0  0  0  0  0  0  0
   55.0241   31.4527   44.0673 H   0  0  0  0  0  0  0  0  0  0  0  0
   58.8778   27.6936   46.0797 H   0  0  0  0  0  0  0  0  0  0  0  0
   57.0704   23.4858   48.0396 H   0  0  0  0  0  0  0  0  0  0  0  0
   56.2116   22.9415   46.5587 H   0  0  0  0  0  0  0  0  0  0  0  0
   58.0026   23.0797   46.5587 H   0  0  0  0  0  0  0  0  0  0  0  0
  1  2  1  0
  2  3  1  0
  3  4  2  0
  4  5  1  0
  5  6  1  0
  6  7  2  0
  7  8  1  0
  8  9  1  0
  9 10  2  0
  9 11  1  0
 11 12  1  0
 12 13  1  0
 13 14  1  0
 14 15  1  0
 15 16  1  0
  8 17  2  0
 17 18  1  0
  5 19  2  0
 19 20  1  0
 20 21  2  0
 20 22  1  0
 22 23  1  0
 22  3  1  0
 18  6  1  0
 16 11  1  0
  1 24  1  0
  1 25  1  0
  1 26  1  0
  2 27  1  0
  2 28  1  0
  4 29  1  0
 12 30  1  0
 12 31  1  0
 13 32  1  0
 13 33  1  0
 14 34  1  0
 14 35  1  0
 15 36  1  0
 15 37  1  0
 16 38  1  0
 16 39  1  0
 17 40  1  0
 19 41  1  0
 23 42  1  0
 23 43  1  0
 23 44  1  0
M  CHG  1   4   1
M  END
>  <UniqueID>  (1) 
1

>  <SMILES>  (1) 
CCc1[nH+]c(-c2nc(C(=O)N3CCCCC3)co2)cc(=O)n1C

>  <Energy>  (1) 
81.29441487132559

>  <Genealogy>  (1) 
CCc1[nH+]c(-c2nc(C(=O)N3CCCCC3)co2)cc(=O)n1C (protonated)
CCc1[nH+]c(-c2nc(C(=O)N3CCCCC3)co2)cc(=O)n1C (3D coordinates assigned)
CCc1[nH+]c(-c2nc(C(=O)N3CCCCC3)co2)cc(=O)n1C (nonaromatic ring conformer: 81.29441487132559 kcal/mol)

>  <smiles>  (1) 
CCc1nc(-c2nc(C(=O)N3CCCCC3)co2)cc(=O)n1C

>  <score_type>  (1) 
oracle

>  <origin>  (1) 
adg

>  <m_score__min__energy>  (1) 
-5.5599999999999996

>  <m_primary>  (1) 
energy

$$$$
1:0
     RDKit          3D

 75 79  0  0  0  0  0  0  0  0999 V2000
   56.9900   31.5320   52.7260 C   0  0  0  0  0  0  0  0  0  0  0  0
   58.1150   32.2500   52.8030 C   0  0  0  0  0  0  0  0  0  0  0  0
   58.5530   33.1450   51.6770 C   0  0  0  0  0  0  0  0  0  0  0  0
   60.0040   33.0100   51.4320 N   0  0  0  0  0  0  0  0  0  0  0  0
   60.4280   33.6060   50.1420 C   0  0  0  0  0  0  0  0  0  0  0  0
   59.2550   33.6540   49.1520 C   0  0  0  0  0  0  0  0  0  0  0  0
   59.6810   33.1580   47.7530 C   0  0  0  0  0  0  0  0  0  0  0  0
   61.1420   33.0310   47.5670 N   0  0  0  0  0  0  0  0  0  0  0  0
   61.7210   34.0700   46.6960 C   0  0  0  0  0  0  0  0  0  0  0  0
   63.2090   33.7840   46.3910 C   0  0  0  0  0  0  0  0  0  0  0  0
   63.8250   32.8710   47.3810 N   0  0  0  0  0  0  0  0  0  0  0  0
   63.9690   33.4800   48.7260 C   0  0  0  0  0  0  0  0  0  0  0  0
   64.6510   32.5360   49.6830 C   0  0  0  0  0  0  0  0  0  0  0  0
   66.0470   32.5650   49.8390 C   0  0  0  0  0  0  0  0  0  0  0  0
   66.6730   31.6970   50.7420 C   0  0  0  0  0  0  0  0  0  0  0  0
   65.9110   30.7930   51.4880 C   0  0  0  0  0  0  0  0  0  0  0  0
   64.5230   30.7510   51.3300 C   0  0  0  0  0  0  0  0  0  0  0  0
   63.8940   31.6180   50.4300 C   0  0  0  0  0  0  0  0  0  0  0  0
   63.1190   31.5650   47.4300 C   0  0  0  0  0  0  0  0  0  0  0  0
   61.5970   31.6820   47.1990 C   0  0  0  0  0  0  0  0  0  0  0  0
   60.5000   31.6260   51.6440 C   0  0  0  0  0  0  0  0  0  0  0  0
   60.1430   30.6600   50.5280 C   0  0  0  0  0  0  0  0  0  0  0  0
   58.8500   30.6540   49.9780 C   0  0  0  0  0  0  0  0  0  0  0  0
   58.5220   29.7700   48.9460 C   0  0  0  0  0  0  0  0  0  0  0  0
   59.4950   28.9060   48.4190 C   0  0  0  0  0  0  0  0  0  0  0  0
   59.1670   27.9400   47.3530 C   0  0  0  0  0  0  0  0  0  0  0  0
   58.0480   27.9820   46.6130 C   0  0  0  0  0  0  0  0  0  0  0  0
   56.9690   26.9910   46.4730 C   0  0  0  0  0  0  0  0  0  0  0  0
   56.9060   25.8830   47.0680 O   0  0  0  0  0  0  0  0  0  0  0  0
   55.9330   27.4570   45.6090 N   0  0  0  0  0  0  0  0  0  0  0  0
   56.3750   28.7600   45.2320 C   0  0  0  0  0  0  0  0  0  0  0  0
   55.6930   29.6410   44.3940 C   0  0  0  0  0  0  0  0  0  0  0  0
   56.2670   30.8950   44.1310 C   0  0  0  0  0  0  0  0  0  0  0  0
   57.5050   31.2480   44.7070 C   0  0  0  0  0  0  0  0  0  0  0  0
   58.2700   32.9600   44.3440 Br  0  0  0  0  0  0  0  0  0  0  0  0
   58.1790   30.3460   45.5490 C   0  0  0  0  0  0  0  0  0  0  0  0
   57.5890   29.1030   45.7970 C   0  0  0  0  0  0  0  0  0  0  0  0
   60.7820   28.9030   48.9710 C   0  0  0  0  0  0  0  0  0  0  0  0
   61.1090   29.7840   50.0060 C   0  0  0  0  0  0  0  0  0  0  0  0
   56.6921   30.8848   53.5641 H   0  0  0  0  0  0  0  0  0  0  0  0
   56.3622   31.5884   51.8245 H   0  0  0  0  0  0  0  0  0  0  0  0
   58.7339   32.1846   53.7100 H   0  0  0  0  0  0  0  0  0  0  0  0
   58.0060   32.8689   50.7635 H   0  0  0  0  0  0  0  0  0  0  0  0
   58.3379   34.1881   51.9522 H   0  0  0  0  0  0  0  0  0  0  0  0
   60.7922   34.6287   50.3196 H   0  0  0  0  0  0  0  0  0  0  0  0
   61.2272   32.9843   49.7120 H   0  0  0  0  0  0  0  0  0  0  0  0
   58.4430   33.0138   49.5272 H   0  0  0  0  0  0  0  0  0  0  0  0
   58.9183   34.6974   49.0628 H   0  0  0  0  0  0  0  0  0  0  0  0
   59.2260   32.1707   47.5851 H   0  0  0  0  0  0  0  0  0  0  0  0
   59.3386   33.9168   47.0340 H   0  0  0  0  0  0  0  0  0  0  0  0
   61.1604   34.0974   45.7500 H   0  0  0  0  0  0  0  0  0  0  0  0
   61.6536   35.0363   47.2172 H   0  0  0  0  0  0  0  0  0  0  0  0
   63.2830   33.3252   45.3940 H   0  0  0  0  0  0  0  0  0  0  0  0
   63.7497   34.7409   46.4367 H   0  0  0  0  0  0  0  0  0  0  0  0
   64.5675   34.3990   48.6413 H   0  0  0  0  0  0  0  0  0  0  0  0
   62.9650   33.7047   49.1153 H   0  0  0  0  0  0  0  0  0  0  0  0
   66.6500   33.2717   49.2500 H   0  0  0  0  0  0  0  0  0  0  0  0
   67.7658   31.7265   50.8645 H   0  0  0  0  0  0  0  0  0  0  0  0
   66.4041   30.1145   52.1996 H   0  0  0  0  0  0  0  0  0  0  0  0
   63.9247   30.0358   51.9136 H   0  0  0  0  0  0  0  0  0  0  0  0
   62.8016   31.5807   50.3067 H   0  0  0  0  0  0  0  0  0  0  0  0
   63.5405   30.9113   46.6522 H   0  0  0  0  0  0  0  0  0  0  0  0
   63.2636   31.1553   48.4405 H   0  0  0  0  0  0  0  0  0  0  0  0
   61.3730   31.4973   46.1380 H   0  0  0  0  0  0  0  0  0  0  0  0
   61.0760   30.9395   47.8213 H   0  0  0  0  0  0  0  0  0  0  0  0
   61.5959   31.6618   51.7321 H   0  0  0  0  0  0  0  0  0  0  0  0
   60.0117   31.2509   52.5555 H   0  0  0  0  0  0  0  0  0  0  0  0
   58.0901   31.3502   50.3625 H   0  0  0  0  0  0  0  0  0  0  0  0
   57.4977   29.7513   48.5453 H   0  0  0  0  0  0  0  0  0  0  0  0
   59.8865   27.1327   47.1516 H   0  0  0  0  0  0  0  0  0  0  0  0
   54.7271   29.3600   43.9490 H   0  0  0  0  0  0  0  0  0  0  0  0
   55.7480   31.6064   43.4718 H   0  0  0  0  0  0  0  0  0  0  0  0
   59.1460   30.6116   46.0011 H   0  0  0  0  0  0  0  0  0  0  0  0
   61.5398   28.2036   48.5881 H   0  0  0  0  0  0  0  0  0  0  0  0
   62.1303   29.7913   50.4146 H   0  0  0  0  0  0  0  0  0  0  0  0
  1  2  2  0
  2  3  1  0
  3  4  1  0
  4  5  1  0
  5  6  1  0
  6  7  1  0
  7  8  1  0
  8  9  1  0
  9 10  1  0
 10 11  1  0
 11 12  1  0
 12 13  1  0
 13 14  2  0
 14 15  1  0
 15 16  2  0
 16 17  1  0
 17 18  2  0
 11 19  1  0
 19 20  1  0
  4 21  1  0
 21 22  1  0
 22 23  2  0
 23 24  1  0
 24 25  2  0
 25 26  1  0
 26 27  2  3
 27 28  1  0
 28 29  2  0
 28 30  1  0
 30 31  1  0
 31 32  2  0
 32 33  1  0
 33 34  2  0
 34 35  1  0
 34 36  1  0
 36 37  2  0
 25 38  1  0
 38 39  2  0
 20  8  1  0
 39 22  1  0
 18 13  1  0
 37 27  1  0
 37 31  1  0
  1 40  1  0
  1 41  1  0
  2 42  1  0
  3 43  1  0
  3 44  1  0
  5 45  1  0
  5 46  1  0
  6 47  1  0
  6 48  1  0
  7 49  1  0
  7 50  1  0
  9 51  1  0
  9 52  1  0
 10 53  1  0
 10 54  1  0
 12 55  1  0
 12 56  1  0
 14 57  1  0
 15 58  1  0
 16 59  1  0
 17 60  1  0
 18 61  1  0
 19 62  1  0
 19 63  1  0
 20 64  1  0
 20 65  1  0
 21 66  1  0
 21 67  1  0
 23 68  1  0
 24 69  1  0
 26 70  1  0
 32 71  1  0
 33 72  1  0
 36 73  1  0
 38 74  1  0
 39 75  1  0
M  CHG  1  30  -1
M  END
>  <UniqueID>  (2) 
2

>  <SMILES>  (2) 
C=CCN(CCCN1CCN(Cc2ccccc2)CC1)Cc1ccc(C=C2C(=O)[N-]c3ccc(Br)cc32)cc1

>  <Energy>  (2) 
129.1261431357818

>  <Genealogy>  (2) 
C=CCN(CCCN1CCN(Cc2ccccc2)CC1)Cc1ccc(C=C2C(=O)[N-]c3ccc(Br)cc32)cc1 (protonated)
C=CCN(CCCN1CCN(Cc2ccccc2)CC1)Cc1ccc(C=C2C(=O)[N-]c3ccc(Br)cc32)cc1 (3D coordinates assigned)
C=CCN(CCCN1CCN(Cc2ccccc2)CC1)Cc1ccc(C=C2C(=O)[N-]c3ccc(Br)cc32)cc1 (nonaromatic ring conformer: 129.1261431357818 kcal/mol)

>  <smiles>  (2) 
C=CCN(CCCN1CCN(Cc2ccccc2)CC1)Cc1ccc(C=C2C(=O)Nc3ccc(Br)cc32)cc1

>  <score_type>  (2) 
oracle

>  <origin>  (2) 
adg

>  <m_score__min__energy>  (2) 
-12.300000000000001

>  <m_primary>  (2) 
energy

$$$$
2:0
     RDKit          3D

 35 36  0  0  0  0  0  0  0  0999 V2000
   57.6070   33.2300   45.2070 C   0  0  0  0  0  0  0  0  0  0  0  0
   57.7700   31.7600   44.8540 C   0  0  0  0  0  0  0  0  0  0  0  0
   56.5030   31.2100   44.5100 O   0  0  0  0  0  0  0  0  0  0  0  0
   56.2620   29.8330   44.4860 C   0  0  0  0  0  0  0  0  0  0  0  0
   55.1400   29.3690   44.8260 O   0  0  0  0  0  0  0  0  0  0  0  0
   57.3650   28.9030   44.1010 C   0  0  0  0  0  0  0  0  0  0  0  0
   57.8200   28.1300   45.2980 C   0  0  0  0  0  0  0  0  0  0  0  0
   57.5430   26.7760   45.4800 C   0  0  0  0  0  0  0  0  0  0  0  0
   58.1810   26.3130   46.9660 S   0  0  0  0  0  0  0  0  0  0  0  0
   58.7580   27.8590   47.3200 C   0  0  0  0  0  0  0  0  0  0  0  0
   59.4300   28.2090   48.3760 N   0  0  0  0  0  0  0  0  0  0  0  0
   60.4360   29.2290   48.4500 C   0  0  0  0  0  0  0  0  0  0  0  0
   61.1870   29.2660   49.4610 O   0  0  0  0  0  0  0  0  0  0  0  0
   60.6700   30.1210   47.3490 N   0  0  0  0  0  0  0  0  0  0  0  0
   61.3460   31.3850   47.4760 C   0  0  0  0  0  0  0  0  0  0  0  0
   62.7510   31.4650   47.4550 C   0  0  0  0  0  0  0  0  0  0  0  0
   63.3920   32.6990   47.6050 C   0  0  0  0  0  0  0  0  0  0  0  0
   62.6390   33.8610   47.7880 C   0  0  0  0  0  0  0  0  0  0  0  0
   61.2440   33.7910   47.8300 C   0  0  0  0  0  0  0  0  0  0  0  0
   60.5980   32.5580   47.6810 C   0  0  0  0  0  0  0  0  0  0  0  0
   59.2430   32.5120   47.7220 F   0  0  0  0  0  0  0  0  0  0  0  0
   58.4910   28.7270   46.3220 N   0  0  0  0  0  0  0  0  0  0  0  0
   57.5942   33.3452   46.3009 H   0  0  0  0  0  0  0  0  0  0  0  0
   58.4471   33.8031   44.7877 H   0  0  0  0  0  0  0  0  0  0  0  0
   56.6618   33.6051   44.7877 H   0  0  0  0  0  0  0  0  0  0  0  0
   58.4561   31.6622   43.9997 H   0  0  0  0  0  0  0  0  0  0  0  0
   58.1812   31.2192   45.7191 H   0  0  0  0  0  0  0  0  0  0  0  0
   57.0019   28.2049   43.3324 H   0  0  0  0  0  0  0  0  0  0  0  0
   58.2089   29.4865   43.7044 H   0  0  0  0  0  0  0  0  0  0  0  0
   57.0028   26.1255   44.7764 H   0  0  0  0  0  0  0  0  0  0  0  0
   60.4210   29.7840   46.3920 H   0  0  0  0  0  0  0  0  0  0  0  0
   63.3486   30.5514   47.3198 H   0  0  0  0  0  0  0  0  0  0  0  0
   64.4903   32.7544   47.5788 H   0  0  0  0  0  0  0  0  0  0  0  0
   63.1443   34.8317   47.8991 H   0  0  0  0  0  0  0  0  0  0  0  0
   60.6525   34.7062   47.9804 H   0  0  0  0  0  0  0  0  0  0  0  0
  1  2  1  0
  2  3  1  0
  3  4  1  0
  4  5  2  0
  4  6  1  0
  6  7  1  0
  7  8  2  0
  8  9  1  0
  9 10  1  0
 10 11  2  3
 11 12  1  0
 12 13  2  0
 12 14  1  0
 14 15  1  0
 15 16  2  0
 16 17  1  0
 17 18  2  0
 18 19  1  0
 19 20  2  0
 20 21  1  0
 10 22  1  0
 22  7  1  0
 20 15  1  0
  1 23  1  0
  1 24  1  0
  1 25  1  0
  2 26  1  0
  2 27  1  0
  6 28  1  0
  6 29  1  0
  8 30  1  0
 14 31  1  0
 16 32  1  0
 17 33  1  0
 18 34  1  0
 19 35  1  0
M  CHG  1  22  -1
M  END
>  <UniqueID>  (3) 
3

>  <SMILES>  (3) 
CCOC(=O)Cc1csc(=NC(=O)Nc2ccccc2F)[n-]1

>  <Energy>  (3) 
65.99820347123568

>  <Genealogy>  (3) 
CCOC(=O)Cc1csc(=NC(=O)Nc2ccccc2F)[n-]1 (protonated)
CCOC(=O)Cc1csc(=NC(=O)Nc2ccccc2F)[n-]1 (3D coordinates assigned)
CCOC(=O)Cc1csc(=NC(=O)Nc2ccccc2F)[n-]1 (optimized conformer: 65.99820347123568 kcal/mol)

>  <smiles>  (3) 
CCOC(=O)Cc1csc(=NC(=O)Nc2ccccc2F)[nH]1

>  <score_type>  (3) 
oracle

>  <origin>  (3) 
adg

>  <m_score__min__energy>  (3) 
-8.6500000000000004

>  <m_primary>  (3) 
energy

$$$$
3:0
     RDKit          3D

 43 45  0  0  0  0  0  0  0  0999 V2000
   59.3820   33.7810   48.5170 C   0  0  0  0  0  0  0  0  0  0  0  0
   60.0790   34.5190   47.6490 C   0  0  0  0  0  0  0  0  0  0  0  0
   60.3870   34.0260   46.2620 C   0  0  0  0  0  0  0  0  0  0  0  0
   59.2670   33.1600   45.7410 C   0  0  0  0  0  0  0  0  0  0  0  0
   59.3150   31.7690   45.9000 C   0  0  0  0  0  0  0  0  0  0  0  0
   58.2860   30.9760   45.4720 N   0  0  0  0  0  0  0  0  0  0  0  0
   58.3960   29.5120   45.6450 C   0  0  2  0  0  0  0  0  0  0  0  0
   58.9290   28.8460   44.3850 C   0  0  0  0  0  0  0  0  0  0  0  0
   58.2830   27.4890   44.4480 C   0  0  2  0  0  0  0  0  0  0  0  0
   58.0330   26.9510   43.1720 O   0  0  0  0  0  0  0  0  0  0  0  0
   56.9970   27.7540   45.2430 C   0  0  1  0  0  0  0  0  0  0  0  0
   56.6360   26.5970   46.1820 C   0  0  0  0  0  0  0  0  0  0  0  0
   55.2050   26.3180   46.1210 N   0  0  0  0  0  0  0  0  0  0  0  0
   54.5730   25.1300   45.6240 C   0  0  0  0  0  0  0  0  0  0  0  0
   53.3170   25.1240   45.5400 O   0  0  0  0  0  0  0  0  0  0  0  0
   55.3130   23.9190   45.1930 C   0  0  0  0  0  0  0  0  0  0  0  0
   55.5420   22.8050   46.0030 C   0  0  0  0  0  0  0  0  0  0  0  0
   56.3030   21.8050   45.3860 C   0  0  0  0  0  0  0  0  0  0  0  0
   56.6870   22.1320   44.0940 C   0  0  0  0  0  0  0  0  0  0  0  0
   57.6460   21.1300   43.0240 Cl  0  0  0  0  0  0  0  0  0  0  0  0
   56.0870   23.6520   43.7180 S   0  0  0  0  0  0  0  0  0  0  0  0
   57.1450   28.9500   45.9810 O   0  0  0  0  0  0  0  0  0  0  0  0
   57.1970   31.5530   44.8660 C   0  0  0  0  0  0  0  0  0  0  0  0
   56.2420   30.8460   44.4420 O   0  0  0  0  0  0  0  0  0  0  0  0
   57.1330   32.8990   44.7120 N   0  0  0  0  0  0  0  0  0  0  0  0
   58.1300   33.7120   45.1370 C   0  0  0  0  0  0  0  0  0  0  0  0
   58.0230   34.9580   44.9830 O   0  0  0  0  0  0  0  0  0  0  0  0
   59.1725   34.1688   49.5248 H   0  0  0  0  0  0  0  0  0  0  0  0
   59.0175   32.7853   48.2241 H   0  0  0  0  0  0  0  0  0  0  0  0
   60.4369   35.5127   47.9564 H   0  0  0  0  0  0  0  0  0  0  0  0
   60.5167   34.8893   45.5928 H   0  0  0  0  0  0  0  0  0  0  0  0
   61.3091   33.4272   46.2970 H   0  0  0  0  0  0  0  0  0  0  0  0
   60.1929   31.3078   46.3760 H   0  0  0  0  0  0  0  0  0  0  0  0
   59.1049   29.3323   46.4667 H   0  0  0  0  0  0  0  0  0  0  0  0
   58.6199   29.3938   43.4826 H   0  0  0  0  0  0  0  0  0  0  0  0
   60.0273   28.8112   44.3337 H   0  0  0  0  0  0  0  0  0  0  0  0
   58.9249   26.7305   44.9198 H   0  0  0  0  0  0  0  0  0  0  0  0
   57.0590   26.7750   43.0910 H   0  0  0  0  0  0  0  0  0  0  0  0
   56.1711   27.8485   44.5226 H   0  0  0  0  0  0  0  0  0  0  0  0
   57.1934   25.6981   45.8800 H   0  0  0  0  0  0  0  0  0  0  0  0
   56.9004   26.8784   47.2120 H   0  0  0  0  0  0  0  0  0  0  0  0
   55.1597   22.7209   47.0310 H   0  0  0  0  0  0  0  0  0  0  0  0
   56.5692   20.8568   45.8759 H   0  0  0  0  0  0  0  0  0  0  0  0
  1  2  2  0
  2  3  1  0
  3  4  1  0
  4  5  2  0
  5  6  1  0
  6  7  1  0
  7  8  1  0
  8  9  1  0
  9 10  1  0
  9 11  1  0
 11 12  1  0
 12 13  1  0
 13 14  1  0
 14 15  2  0
 14 16  1  0
 16 17  2  0
 17 18  1  0
 18 19  2  0
 19 20  1  0
 19 21  1  0
 11 22  1  0
  6 23  1  0
 23 24  2  0
 23 25  1  0
 25 26  1  0
 26 27  2  0
 26  4  1  0
 22  7  1  0
 21 16  1  0
  1 28  1  0
  1 29  1  0
  2 30  1  0
  3 31  1  0
  3 32  1  0
  5 33  1  0
  7 34  1  1
  8 35  1  0
  8 36  1  0
  9 37  1  1
 10 38  1  0
 11 39  1  6
 12 40  1  0
 12 41  1  0
 17 42  1  0
 18 43  1  0
M  CHG  2  13  -1  25  -1
M  END
>  <UniqueID>  (4) 
4

>  <SMILES>  (4) 
C=CCc1cn([C@@H]2C[C@H](O)C(C[N-]C(=O)c3ccc(Cl)s3)O2)c(=O)[n-]c1=O

>  <Energy>  (4) 
74.63982032758722

>  <Genealogy>  (4) 
C=CCc1cn(C2CC(O)C(C[N-]C(=O)c3ccc(Cl)s3)O2)c(=O)[n-]c1=O (protonated)
C=CCc1cn([C@@H]2C[C@H](O)C(C[N-]C(=O)c3ccc(Cl)s3)O2)c(=O)[n-]c1=O (chirality)
C=CCc1cn([C@@H]2C[C@H](O)C(C[N-]C(=O)c3ccc(Cl)s3)O2)c(=O)[n-]c1=O (3D coordinates assigned)
C=CCc1cn([C@@H]2C[C@H](O)C(C[N-]C(=O)c3ccc(Cl)s3)O2)c(=O)[n-]c1=O (nonaromatic ring conformer: 74.63982032758722 kcal/mol)

>  <smiles>  (4) 
C=CCc1cn(C2CC(O)C(CNC(=O)c3ccc(Cl)s3)O2)c(=O)[nH]c1=O

>  <score_type>  (4) 
oracle

>  <origin>  (4) 
adg

>  <m_score__min__energy>  (4) 
-12.32

>  <m_primary>  (4) 
energy

$$$$
4:0
     RDKit          3D

 54 56  0  0  0  0  0  0  0  0999 V2000
   55.1610   25.5320   46.3660 O   0  0  0  0  0  0  0  0  0  0  0  0
   56.1460   26.1870   45.9250 C   0  0  0  0  0  0  0  0  0  0  0  0
   57.4770   25.5230   45.7890 C   0  0  0  0  0  0  0  0  0  0  0  0
   58.2700   25.7570   46.9980 N   0  0  0  0  0  0  0  0  0  0  0  0
   59.7450   26.6060   46.6290 S   0  0  0  0  0  0  0  0  0  0  0  0
   60.8430   25.6060   46.3890 O   0  0  0  0  0  0  0  0  0  0  0  0
   59.5720   27.4310   45.3840 O   0  0  0  0  0  0  0  0  0  0  0  0
   60.1860   27.6340   47.9890 C   0  0  0  0  0  0  0  0  0  0  0  0
   60.3460   29.0130   47.7940 C   0  0  0  0  0  0  0  0  0  0  0  0
   60.7280   29.8340   48.8620 C   0  0  0  0  0  0  0  0  0  0  0  0
   60.9550   29.2810   50.1260 C   0  0  0  0  0  0  0  0  0  0  0  0
   60.7970   27.9060   50.3260 C   0  0  0  0  0  0  0  0  0  0  0  0
   60.4150   27.0830   49.2610 C   0  0  0  0  0  0  0  0  0  0  0  0
   56.0090   27.5730   45.5950 N   0  0  0  0  0  0  0  0  0  0  0  0
   57.0060   28.5850   45.9270 C   0  0  0  0  0  0  0  0  0  0  0  0
   57.0980   29.6280   44.8090 C   0  0  0  0  0  0  0  0  0  0  0  0
   57.7610   30.8840   45.3060 C   0  0  0  0  0  0  0  0  0  0  0  0
   58.2430   30.9580   46.6230 C   0  0  0  0  0  0  0  0  0  0  0  0
   58.8740   32.1180   47.0780 C   0  0  0  0  0  0  0  0  0  0  0  0
   59.0340   33.2180   46.2250 C   0  0  0  0  0  0  0  0  0  0  0  0
   59.8040   34.6960   46.8110 S   0  0  0  0  0  0  0  0  0  0  0  0
   58.9200   35.3400   47.8430 O   0  0  0  0  0  0  0  0  0  0  0  0
   59.9590   35.6600   45.6660 O   0  0  0  0  0  0  0  0  0  0  0  0
   61.3720   34.3720   47.5140 N   0  0  0  0  0  0  0  0  0  0  0  0
   61.2240   33.7970   48.8630 C   0  0  0  0  0  0  0  0  0  0  0  0
   62.5090   33.0640   49.2810 C   0  0  0  0  0  0  0  0  0  0  0  0
   62.8670   31.9860   48.4240 O   0  0  0  0  0  0  0  0  0  0  0  0
   62.3330   32.0940   47.1120 C   0  0  0  0  0  0  0  0  0  0  0  0
   62.2150   33.5480   46.6180 C   0  0  0  0  0  0  0  0  0  0  0  0
   58.5760   33.1380   44.9030 C   0  0  0  0  0  0  0  0  0  0  0  0
   57.9470   31.9760   44.4440 C   0  0  0  0  0  0  0  0  0  0  0  0
   57.3337   24.4414   45.6491 H   0  0  0  0  0  0  0  0  0  0  0  0
   58.0058   25.9405   44.9195 H   0  0  0  0  0  0  0  0  0  0  0  0
   60.1711   29.4509   46.8002 H   0  0  0  0  0  0  0  0  0  0  0  0
   60.8497   30.9161   48.7063 H   0  0  0  0  0  0  0  0  0  0  0  0
   61.2578   29.9274   50.9629 H   0  0  0  0  0  0  0  0  0  0  0  0
   60.9731   27.4713   51.3210 H   0  0  0  0  0  0  0  0  0  0  0  0
   60.2936   26.0013   49.4200 H   0  0  0  0  0  0  0  0  0  0  0  0
   56.7192   29.0829   46.8650 H   0  0  0  0  0  0  0  0  0  0  0  0
   57.9853   28.0977   46.0430 H   0  0  0  0  0  0  0  0  0  0  0  0
   57.6864   29.2142   43.9768 H   0  0  0  0  0  0  0  0  0  0  0  0
   56.0806   29.8751   44.4716 H   0  0  0  0  0  0  0  0  0  0  0  0
   58.1231   30.0987   47.2991 H   0  0  0  0  0  0  0  0  0  0  0  0
   59.2473   32.1683   48.1115 H   0  0  0  0  0  0  0  0  0  0  0  0
   61.0189   34.6053   49.5803 H   0  0  0  0  0  0  0  0  0  0  0  0
   60.3918   33.0777   48.8533 H   0  0  0  0  0  0  0  0  0  0  0  0
   63.3351   33.7903   49.2862 H   0  0  0  0  0  0  0  0  0  0  0  0
   62.3186   32.6306   50.2739 H   0  0  0  0  0  0  0  0  0  0  0  0
   62.9892   31.5434   46.4219 H   0  0  0  0  0  0  0  0  0  0  0  0
   61.3156   31.6767   47.1399 H   0  0  0  0  0  0  0  0  0  0  0  0
   63.2212   33.9900   46.5715 H   0  0  0  0  0  0  0  0  0  0  0  0
   61.7410   33.5320   45.6255 H   0  0  0  0  0  0  0  0  0  0  0  0
   58.7117   33.9924   44.2236 H   0  0  0  0  0  0  0  0  0  0  0  0
   57.5966   31.9177   43.4029 H   0  0  0  0  0  0  0  0  0  0  0  0
  1  2  2  0
  2  3  1  0
  3  4  1  0
  4  5  1  0
  5  6  2  0
  5  7  2  0
  5  8  1  0
  8  9  2  0
  9 10  1  0
 10 11  2  0
 11 12  1  0
 12 13  2  0
  2 14  1  0
 14 15  1  0
 15 16  1  0
 16 17  1  0
 17 18  2  0
 18 19  1  0
 19 20  2  0
 20 21  1  0
 21 22  2  0
 21 23  2  0
 21 24  1  0
 24 25  1  0
 25 26  1  0
 26 27  1  0
 27 28  1  0
 28 29  1  0
 20 30  1  0
 30 31  2  0
 13  8  1  0
 31 17  1  0
 29 24  1  0
  3 32  1  0
  3 33  1  0
  9 34  1  0
 10 35  1  0
 11 36  1  0
 12 37  1  0
 13 38  1  0
 15 39  1  0
 15 40  1  0
 16 41  1  0
 16 42  1  0
 18 43  1  0
 19 44  1  0
 25 45  1  0
 25 46  1  0
 26 47  1  0
 26 48  1  0
 28 49  1  0
 28 50  1  0
 29 51  1  0
 29 52  1  0
 30 53  1  0
 31 54  1  0
M  CHG  2   4  -1  14  -1
M  END
>  <UniqueID>  (5) 
5

>  <SMILES>  (5) 
O=C(C[N-]S(=O)(=O)c1ccccc1)[N-]CCc1ccc(S(=O)(=O)N2CCOCC2)cc1

>  <Energy>  (5) 
61.44526832205137

>  <Genealogy>  (5) 
O=C(C[N-]S(=O)(=O)c1ccccc1)[N-]CCc1ccc(S(=O)(=O)N2CCOCC2)cc1 (protonated)
O=C(C[N-]S(=O)(=O)c1ccccc1)[N-]CCc1ccc(S(=O)(=O)N2CCOCC2)cc1 (3D coordinates assigned)
O=C(C[N-]S(=O)(=O)c1ccccc1)[N-]CCc1ccc(S(=O)(=O)N2CCOCC2)cc1 (nonaromatic ring conformer: 61.44526832205137 kcal/mol)

>  <smiles>  (5) 
O=C(CNS(=O)(=O)c1ccccc1)NCCc1ccc(S(=O)(=O)N2CCOCC2)cc1

>  <score_type>  (5) 
oracle

>  <origin>  (5) 
adg

>  <m_score__min__energy>  (5) 
-13.23

>  <m_primary>  (5) 
energy

$$$$
5:0
     RDKit          3D

 31 32  0  0  0  0  0  0  0  0999 V2000
   54.3410   27.0910   46.3620 H   0  0  0  0  0  0  0  0  0  0  0  0
   55.1820   26.5540   46.1870 O   0  0  0  0  0  0  0  0  0  0  0  0
   56.3480   27.1430   45.6980 C   0  0  0  0  0  0  0  0  0  0  0  0
   57.5340   26.4010   45.6950 C   0  0  0  0  0  0  0  0  0  0  0  0
   57.5387   25.3732   46.0869 H   0  0  0  0  0  0  0  0  0  0  0  0
   58.7120   26.9610   45.1960 C   0  0  0  0  0  0  0  0  0  0  0  0
   59.6387   26.3685   45.1841 H   0  0  0  0  0  0  0  0  0  0  0  0
   58.7170   28.2710   44.7120 C   0  0  0  0  0  0  0  0  0  0  0  0
   59.6452   28.7029   44.3096 H   0  0  0  0  0  0  0  0  0  0  0  0
   57.5430   29.0380   44.7370 C   0  0  0  0  0  0  0  0  0  0  0  0
   57.5740   30.4140   44.2000 C   0  0  0  0  0  0  0  0  0  0  0  0
   57.6245   30.5428   43.1087 H   0  0  0  0  0  0  0  0  0  0  0  0
   57.5450   31.4840   44.9430 N   0  0  0  0  0  0  0  0  0  0  0  0
   58.1480   31.6550   46.2350 C   0  0  0  0  0  0  0  0  0  0  0  0
   57.6990   32.5020   47.0540 O   0  0  0  0  0  0  0  0  0  0  0  0
   59.3260   30.8160   46.6120 C   0  0  0  0  0  0  0  0  0  0  0  0
   59.0605   30.1758   47.4662 H   0  0  0  0  0  0  0  0  0  0  0  0
   59.6152   30.1887   45.7559 H   0  0  0  0  0  0  0  0  0  0  0  0
   60.4810   31.7040   46.9920 C   0  0  0  0  0  0  0  0  0  0  0  0
   60.5970   32.9820   46.4180 C   0  0  0  0  0  0  0  0  0  0  0  0
   59.8659   33.3115   45.6650 H   0  0  0  0  0  0  0  0  0  0  0  0
   61.6350   33.8360   46.7980 C   0  0  0  0  0  0  0  0  0  0  0  0
   61.7233   34.8312   46.3378 H   0  0  0  0  0  0  0  0  0  0  0  0
   62.5610   33.4290   47.7610 C   0  0  0  0  0  0  0  0  0  0  0  0
   63.3793   34.1022   48.0564 H   0  0  0  0  0  0  0  0  0  0  0  0
   62.4480   32.1670   48.3490 C   0  0  0  0  0  0  0  0  0  0  0  0
   63.1768   31.8492   49.1092 H   0  0  0  0  0  0  0  0  0  0  0  0
   61.4100   31.3050   47.9740 C   0  0  0  0  0  0  0  0  0  0  0  0
   61.3060   30.0610   48.5860 O   0  0  0  0  0  0  0  0  0  0  0  0
   56.3450   28.4600   45.2050 C   0  0  0  0  0  0  0  0  0  0  0  0
   55.1560   29.1830   45.1670 O   0  0  0  0  0  0  0  0  0  0  0  0
  1  2  1  0
  2  3  1  0
  3  4  2  0
  4  5  1  0
  4  6  1  0
  6  7  1  0
  6  8  2  0
  8  9  1  0
  8 10  1  0
 10 11  1  0
 11 12  1  0
 11 13  2  0
 13 14  1  0
 14 15  2  0
 14 16  1  0
 16 17  1  0
 16 18  1  0
 16 19  1  0
 19 20  2  0
 20 21  1  0
 20 22  1  0
 22 23  1  0
 22 24  2  0
 24 25  1  0
 24 26  1  0
 26 27  1  0
 26 28  2  0
 28 29  1  0
 10 30  2  0
 30 31  1  0
 30  3  1  0
 28 19  1  0
M  CHG  2  29  -1  31  -1
M  END
>  <UniqueID>  (6) 
6

>  <SMILES>  (6) 
O=C(Cc1ccccc1[O-])/N=C\c1cccc(O)c1[O-]

>  <Energy>  (6) 
40.35093271793721

>  <Genealogy>  (6) 
O=C(Cc1ccccc1[O-])N=Cc1cccc(O)c1[O-] (protonated)
O=C(Cc1ccccc1[O-])/N=C\c1cccc(O)c1[O-] (cis-trans isomerization)
O=C(Cc1ccccc1[O-])/N=C\c1cccc(O)c1[O-] (3D coordinates assigned)
O=C(Cc1ccccc1[O-])/N=C\c1cccc(O)c1[O-] (optimized conformer: 40.35093271793721 kcal/mol)

>  <smiles>  (6) 
O=C(Cc1ccccc1O)N=Cc1cccc(O)c1O

>  <score_type>  (6) 
oracle

>  <origin>  (6) 
adg

>  <m_score__min__energy>  (6) 
-13.380000000000001

>  <m_primary>  (6) 
energy

$$$$
6:0
     RDKit          3D

 56 60  0  0  0  0  0  0  0  0999 V2000
   56.0040   23.8800   47.2700 C   0  0  0  0  0  0  0  0  0  0  0  0
   55.7330   25.1350   46.6520 O   0  0  0  0  0  0  0  0  0  0  0  0
   56.5480   25.7290   45.6760 C   0  0  0  0  0  0  0  0  0  0  0  0
   56.9680   25.0400   44.5220 C   0  0  0  0  0  0  0  0  0  0  0  0
   57.7700   25.6820   43.5750 C   0  0  0  0  0  0  0  0  0  0  0  0
   58.1690   27.0050   43.7710 C   0  0  0  0  0  0  0  0  0  0  0  0
   57.7770   27.6980   44.9290 C   0  0  0  0  0  0  0  0  0  0  0  0
   58.1490   29.0700   45.1450 N   0  0  0  0  0  0  0  0  0  0  0  0
   57.2430   30.1800   44.9980 C   0  0  0  0  0  0  0  0  0  0  0  0
   56.0570   29.9800   44.6170 O   0  0  0  0  0  0  0  0  0  0  0  0
   57.6810   31.5690   45.2770 C   0  0  0  0  0  0  0  0  0  0  0  0
   57.0490   32.6430   44.6280 C   0  0  0  0  0  0  0  0  0  0  0  0
   57.4540   33.9560   44.8740 C   0  0  0  0  0  0  0  0  0  0  0  0
   58.4970   34.2150   45.7650 C   0  0  0  0  0  0  0  0  0  0  0  0
   59.1530   33.1580   46.4180 C   0  0  0  0  0  0  0  0  0  0  0  0
   60.2700   33.4250   47.3580 C   0  0  0  0  0  0  0  0  0  0  0  0
   60.1760   34.0980   48.5660 C   0  0  0  0  0  0  0  0  0  0  0  0
   61.4430   34.1030   49.1130 C   0  0  0  0  0  0  0  0  0  0  0  0
   62.2600   33.4480   48.2120 C   0  0  0  0  0  0  0  0  0  0  0  0
   63.6960   33.1810   48.4100 C   0  0  0  0  0  0  0  0  0  0  0  0
   64.5100   33.5540   47.5240 O   0  0  0  0  0  0  0  0  0  0  0  0
   64.1820   32.4920   49.5760 N   0  0  0  0  0  0  0  0  0  0  0  0
   63.4060   31.4960   50.3240 C   0  0  0  0  0  0  0  0  0  0  0  0
   64.4240   30.8570   51.1910 C   0  0  0  0  0  0  0  0  0  0  0  0
   64.2360   29.8370   52.1260 C   0  0  0  0  0  0  0  0  0  0  0  0
   65.3470   29.3820   52.8540 C   0  0  0  0  0  0  0  0  0  0  0  0
   66.6180   29.9510   52.6390 C   0  0  0  0  0  0  0  0  0  0  0  0
   66.7830   30.9780   51.6950 C   0  0  0  0  0  0  0  0  0  0  0  0
   65.6640   31.4140   50.9840 C   0  0  0  0  0  0  0  0  0  0  0  0
   65.6000   32.4690   49.9440 C   0  0  0  0  0  0  0  0  0  0  0  0
   61.5420   33.0240   47.1540 N   0  0  0  0  0  0  0  0  0  0  0  0
   58.7430   31.8360   46.1610 C   0  0  0  0  0  0  0  0  0  0  0  0
   56.9500   27.0570   45.8640 C   0  0  0  0  0  0  0  0  0  0  0  0
   55.9788   23.9967   48.3635 H   0  0  0  0  0  0  0  0  0  0  0  0
   55.2433   23.1477   46.9618 H   0  0  0  0  0  0  0  0  0  0  0  0
   56.9991   23.5268   46.9618 H   0  0  0  0  0  0  0  0  0  0  0  0
   56.6641   23.9944   44.3658 H   0  0  0  0  0  0  0  0  0  0  0  0
   58.0884   25.1423   42.6709 H   0  0  0  0  0  0  0  0  0  0  0  0
   58.7924   27.5070   43.0165 H   0  0  0  0  0  0  0  0  0  0  0  0
   59.1510   29.2560   45.3680 H   0  0  0  0  0  0  0  0  0  0  0  0
   56.2292   32.4478   43.9210 H   0  0  0  0  0  0  0  0  0  0  0  0
   56.9494   34.7897   44.3639 H   0  0  0  0  0  0  0  0  0  0  0  0
   58.8071   35.2528   45.9570 H   0  0  0  0  0  0  0  0  0  0  0  0
   59.2691   34.5413   49.0031 H   0  0  0  0  0  0  0  0  0  0  0  0
   61.7430   34.5418   50.0760 H   0  0  0  0  0  0  0  0  0  0  0  0
   62.6213   31.9778   50.9258 H   0  0  0  0  0  0  0  0  0  0  0  0
   62.8814   30.7802   49.6741 H   0  0  0  0  0  0  0  0  0  0  0  0
   63.2398   29.3998   52.2885 H   0  0  0  0  0  0  0  0  0  0  0  0
   65.2247   28.5783   53.5950 H   0  0  0  0  0  0  0  0  0  0  0  0
   67.4843   29.5896   53.2126 H   0  0  0  0  0  0  0  0  0  0  0  0
   67.7713   31.4282   51.5202 H   0  0  0  0  0  0  0  0  0  0  0  0
   65.9182   33.4412   50.3485 H   0  0  0  0  0  0  0  0  0  0  0  0
   66.2640   32.2725   49.0893 H   0  0  0  0  0  0  0  0  0  0  0  0
   61.8880   32.4260   46.3720 H   0  0  0  0  0  0  0  0  0  0  0  0
   59.2593   31.0011   46.6574 H   0  0  0  0  0  0  0  0  0  0  0  0
   56.6131   27.6050   46.7563 H   0  0  0  0  0  0  0  0  0  0  0  0
  1  2  1  0
  2  3  1  0
  3  4  2  0
  4  5  1  0
  5  6  2  0
  6  7  1  0
  7  8  1  0
  8  9  1  0
  9 10  2  0
  9 11  1  0
 11 12  2  0
 12 13  1  0
 13 14  2  0
 14 15  1  0
 15 16  1  0
 16 17  2  0
 17 18  1  0
 18 19  2  0
 19 20  1  0
 20 21  2  0
 20 22  1  0
 22 23  1  0
 23 24  1  0
 24 25  2  0
 25 26  1  0
 26 27  2  0
 27 28  1  0
 28 29  2  0
 29 30  1  0
 19 31  1  0
 15 32  2  0
  7 33  2  0
 33  3  1  0
 32 11  1  0
 31 16  1  0
 30 22  1  0
 29 24  1  0
  1 34  1  0
  1 35  1  0
  1 36  1  0
  4 37  1  0
  5 38  1  0
  6 39  1  0
  8 40  1  0
 12 41  1  0
 13 42  1  0
 14 43  1  0
 17 44  1  0
 18 45  1  0
 23 46  1  0
 23 47  1  0
 25 48  1  0
 26 49  1  0
 27 50  1  0
 28 51  1  0
 30 52  1  0
 30 53  1  0
 31 54  1  0
 32 55  1  0
 33 56  1  0
M  END
>  <UniqueID>  (7) 
7

>  <SMILES>  (7) 
COc1cccc(NC(=O)c2cccc(-c3ccc(C(=O)N4Cc5ccccc5C4)[nH]3)c2)c1

>  <Energy>  (7) 
109.0910122513924

>  <Genealogy>  (7) 
COc1cccc(NC(=O)c2cccc(-c3ccc(C(=O)N4Cc5ccccc5C4)[nH]3)c2)c1 (3D coordinates assigned)
COc1cccc(NC(=O)c2cccc(-c3ccc(C(=O)N4Cc5ccccc5C4)[nH]3)c2)c1 (nonaromatic ring conformer: 109.0910122513924 kcal/mol)

>  <smiles>  (7) 
COc1cccc(NC(=O)c2cccc(-c3ccc(C(=O)N4Cc5ccccc5C4)[nH]3)c2)c1

>  <score_type>  (7) 
oracle

>  <origin>  (7) 
adg

>  <m_score__min__energy>  (7) 
-10

>  <m_primary>  (7) 
energy

$$$$
7:0
     RDKit          3D

 44 47  0  0  0  0  0  0  0  0999 V2000
   55.2500   30.0790   43.1820 O   0  0  0  0  0  0  0  0  0  0  0  0
   56.2330   30.0460   43.9720 C   0  0  0  0  0  0  0  0  0  0  0  0
   57.4530   30.8710   43.6610 C   0  0  0  0  0  0  0  0  0  0  0  0
   57.7870   31.7720   44.8200 C   0  0  0  0  0  0  0  0  0  0  0  0
   57.2170   33.0530   44.9040 C   0  0  0  0  0  0  0  0  0  0  0  0
   57.5560   33.9100   45.9540 C   0  0  0  0  0  0  0  0  0  0  0  0
   58.4850   33.5050   46.9310 C   0  0  0  0  0  0  0  0  0  0  0  0
   58.8550   34.3320   48.0020 O   0  0  0  0  0  0  0  0  0  0  0  0
   59.9840   34.1470   48.8160 C   0  0  0  0  0  0  0  0  0  0  0  0
   61.1920   34.4630   48.4370 N   0  0  0  0  0  0  0  0  0  0  0  0
   62.3330   34.0860   49.6790 S   0  0  0  0  0  0  0  0  0  0  0  0
   63.3140   33.0380   49.2330 O   0  0  0  0  0  0  0  0  0  0  0  0
   63.0080   35.3230   50.2070 O   0  0  0  0  0  0  0  0  0  0  0  0
   61.1360   33.4620   50.7580 C   0  0  0  0  0  0  0  0  0  0  0  0
   61.3020   32.9340   52.0360 C   0  0  0  0  0  0  0  0  0  0  0  0
   60.1600   32.4730   52.7150 C   0  0  0  0  0  0  0  0  0  0  0  0
   58.8900   32.5450   52.1050 C   0  0  0  0  0  0  0  0  0  0  0  0
   58.7520   33.0860   50.8150 C   0  0  0  0  0  0  0  0  0  0  0  0
   59.8970   33.5450   50.1560 C   0  0  0  0  0  0  0  0  0  0  0  0
   59.0320   32.2190   46.8580 C   0  0  0  0  0  0  0  0  0  0  0  0
   58.6910   31.3580   45.8100 C   0  0  0  0  0  0  0  0  0  0  0  0
   56.1810   29.1730   45.1090 N   0  0  0  0  0  0  0  0  0  0  0  0
   57.0460   28.0490   45.3090 C   0  0  0  0  0  0  0  0  0  0  0  0
   58.3710   28.1240   44.8570 C   0  0  0  0  0  0  0  0  0  0  0  0
   59.2480   27.0530   45.0560 C   0  0  0  0  0  0  0  0  0  0  0  0
   58.8020   25.8920   45.6920 C   0  0  0  0  0  0  0  0  0  0  0  0
   57.4710   25.7920   46.1130 C   0  0  0  0  0  0  0  0  0  0  0  0
   56.5830   26.8550   45.9110 C   0  0  0  0  0  0  0  0  0  0  0  0
   55.2500   26.6930   46.2940 O   0  0  0  0  0  0  0  0  0  0  0  0
   58.3034   30.2011   43.4659 H   0  0  0  0  0  0  0  0  0  0  0  0
   57.2485   31.4903   42.7752 H   0  0  0  0  0  0  0  0  0  0  0  0
   56.4994   33.3834   44.1385 H   0  0  0  0  0  0  0  0  0  0  0  0
   57.0945   34.9065   46.0176 H   0  0  0  0  0  0  0  0  0  0  0  0
   62.2975   32.8791   52.5008 H   0  0  0  0  0  0  0  0  0  0  0  0
   60.2575   32.0539   53.7274 H   0  0  0  0  0  0  0  0  0  0  0  0
   58.0034   32.1760   52.6415 H   0  0  0  0  0  0  0  0  0  0  0  0
   57.7646   33.1470   50.3341 H   0  0  0  0  0  0  0  0  0  0  0  0
   59.7369   31.8821   47.6323 H   0  0  0  0  0  0  0  0  0  0  0  0
   59.1334   30.3520   45.7616 H   0  0  0  0  0  0  0  0  0  0  0  0
   58.7228   29.0306   44.3428 H   0  0  0  0  0  0  0  0  0  0  0  0
   60.2901   27.1249   44.7113 H   0  0  0  0  0  0  0  0  0  0  0  0
   59.4969   25.0564   45.8619 H   0  0  0  0  0  0  0  0  0  0  0  0
   57.1207   24.8728   46.6054 H   0  0  0  0  0  0  0  0  0  0  0  0
   54.6060   27.4720   46.3780 H   0  0  0  0  0  0  0  0  0  0  0  0
  1  2  2  0
  2  3  1  0
  3  4  1  0
  4  5  2  0
  5  6  1  0
  6  7  2  0
  7  8  1  0
  8  9  1  0
  9 10  2  0
 10 11  1  0
 11 12  2  0
 11 13  2  0
 11 14  1  0
 14 15  2  0
 15 16  1  0
 16 17  2  0
 17 18  1  0
 18 19  2  0
  7 20  1  0
 20 21  2  0
  2 22  1  0
 22 23  1  0
 23 24  2  0
 24 25  1  0
 25 26  2  0
 26 27  1  0
 27 28  2  0
 28 29  1  0
 21  4  1  0
 28 23  1  0
 19  9  1  0
 19 14  1  0
  3 30  1  0
  3 31  1  0
  5 32  1  0
  6 33  1  0
 15 34  1  0
 16 35  1  0
 17 36  1  0
 18 37  1  0
 20 38  1  0
 21 39  1  0
 24 40  1  0
 25 41  1  0
 26 42  1  0
 27 43  1  0
 29 44  1  0
M  CHG  1  22  -1
M  END
>  <UniqueID>  (8) 
8

>  <SMILES>  (8) 
O=C(Cc1ccc(OC2=NS(=O)(=O)c3ccccc32)cc1)[N-]c1ccccc1O

>  <Energy>  (8) 
82.37751981184351

>  <Genealogy>  (8) 
O=C(Cc1ccc(OC2=NS(=O)(=O)c3ccccc32)cc1)[N-]c1ccccc1O (protonated)
O=C(Cc1ccc(OC2=NS(=O)(=O)c3ccccc32)cc1)[N-]c1ccccc1O (3D coordinates assigned)
O=C(Cc1ccc(OC2=NS(=O)(=O)c3ccccc32)cc1)[N-]c1ccccc1O (nonaromatic ring conformer: 82.37751981184351 kcal/mol)

>  <smiles>  (8) 
O=C(Cc1ccc(OC2=NS(=O)(=O)c3ccccc32)cc1)Nc1ccccc1O

>  <score_type>  (8) 
oracle

>  <origin>  (8) 
adg

>  <m_score__min__energy>  (8) 
-12.32

>  <m_primary>  (8) 
energy

$$$$
8:0
     RDKit          3D

 50 53  0  0  0  0  0  0  0  0999 V2000
   56.9390   30.2680   44.8970 O   0  0  0  0  0  0  0  0  0  0  0  0
   57.6250   29.5180   45.6390 C   0  0  0  0  0  0  0  0  0  0  0  0
   58.8020   30.0530   46.2630 N   0  0  0  0  0  0  0  0  0  0  0  0
   58.8470   31.0610   47.2840 C   0  0  0  0  0  0  0  0  0  0  0  0
   59.1580   32.3760   46.9260 C   0  0  0  0  0  0  0  0  0  0  0  0
   59.2000   33.3810   47.8960 C   0  0  0  0  0  0  0  0  0  0  0  0
   58.9320   33.0770   49.2340 C   0  0  0  0  0  0  0  0  0  0  0  0
   58.6420   31.7570   49.6160 C   0  0  0  0  0  0  0  0  0  0  0  0
   58.3030   31.4490   50.9840 N   0  0  0  0  0  0  0  0  0  0  0  0
   58.4200   30.0740   51.4870 C   0  0  0  0  0  0  0  0  0  0  0  0
   57.5470   29.8720   52.7370 C   0  0  0  0  0  0  0  0  0  0  0  0
   56.3480   30.7390   52.7260 N   0  0  0  0  0  0  0  0  0  0  0  0
   55.4060   30.4560   51.6180 C   0  0  0  0  0  0  0  0  0  0  0  0
   53.9730   30.6160   52.0490 C   0  0  0  0  0  0  0  0  0  0  0  0
   53.4440   29.7900   53.0550 C   0  0  0  0  0  0  0  0  0  0  0  0
   52.1140   29.9370   53.4600 C   0  0  0  0  0  0  0  0  0  0  0  0
   51.3030   30.9070   52.8640 C   0  0  0  0  0  0  0  0  0  0  0  0
   51.8200   31.7300   51.8590 C   0  0  0  0  0  0  0  0  0  0  0  0
   51.0140   32.6940   51.2670 O   0  0  0  0  0  0  0  0  0  0  0  0
   53.1500   31.5840   51.4500 C   0  0  0  0  0  0  0  0  0  0  0  0
   56.7250   32.1710   52.7740 C   0  0  0  0  0  0  0  0  0  0  0  0
   57.9700   32.5250   51.9250 C   0  0  0  0  0  0  0  0  0  0  0  0
   58.6290   30.7500   48.6370 C   0  0  0  0  0  0  0  0  0  0  0  0
   57.1660   28.1350   45.8710 C   0  0  0  0  0  0  0  0  0  0  0  0
   57.9240   27.1020   46.4020 C   0  0  0  0  0  0  0  0  0  0  0  0
   57.1050   25.9970   46.4270 C   0  0  0  0  0  0  0  0  0  0  0  0
   55.8930   26.4180   45.9230 C   0  0  0  0  0  0  0  0  0  0  0  0
   54.7720   25.6110   45.7630 O   0  0  0  0  0  0  0  0  0  0  0  0
   55.9140   27.7210   45.5880 N   0  0  0  0  0  0  0  0  0  0  0  0
   59.3708   32.6210   45.8750 H   0  0  0  0  0  0  0  0  0  0  0  0
   59.4445   34.4136   47.6062 H   0  0  0  0  0  0  0  0  0  0  0  0
   58.9483   33.8751   49.9908 H   0  0  0  0  0  0  0  0  0  0  0  0
   58.0942   29.3745   50.7030 H   0  0  0  0  0  0  0  0  0  0  0  0
   59.4697   29.8860   51.7567 H   0  0  0  0  0  0  0  0  0  0  0  0
   57.2242   28.8212   52.7779 H   0  0  0  0  0  0  0  0  0  0  0  0
   58.1498   30.1396   53.6174 H   0  0  0  0  0  0  0  0  0  0  0  0
   55.6091   31.1525   50.7911 H   0  0  0  0  0  0  0  0  0  0  0  0
   55.5537   29.4130   51.3013 H   0  0  0  0  0  0  0  0  0  0  0  0
   54.0787   29.0248   53.5257 H   0  0  0  0  0  0  0  0  0  0  0  0
   51.7052   29.2884   54.2488 H   0  0  0  0  0  0  0  0  0  0  0  0
   50.2575   31.0229   53.1858 H   0  0  0  0  0  0  0  0  0  0  0  0
   53.5529   32.2300   50.6560 H   0  0  0  0  0  0  0  0  0  0  0  0
   55.8753   32.7645   52.4055 H   0  0  0  0  0  0  0  0  0  0  0  0
   56.9792   32.3974   53.8200 H   0  0  0  0  0  0  0  0  0  0  0  0
   57.7661   33.4453   51.3580 H   0  0  0  0  0  0  0  0  0  0  0  0
   58.8231   32.6650   52.6051 H   0  0  0  0  0  0  0  0  0  0  0  0
   58.4462   29.7064   48.9326 H   0  0  0  0  0  0  0  0  0  0  0  0
   58.9706   27.1556   46.7363 H   0  0  0  0  0  0  0  0  0  0  0  0
   57.3637   24.9867   46.7767 H   0  0  0  0  0  0  0  0  0  0  0  0
   54.6260   25.0870   44.9090 H   0  0  0  0  0  0  0  0  0  0  0  0
  1  2  2  0
  2  3  1  0
  3  4  1  0
  4  5  2  0
  5  6  1  0
  6  7  2  0
  7  8  1  0
  8  9  1  0
  9 10  1  0
 10 11  1  0
 11 12  1  0
 12 13  1  0
 13 14  1  0
 14 15  2  0
 15 16  1  0
 16 17  2  0
 17 18  1  0
 18 19  1  0
 18 20  2  0
 12 21  1  0
 21 22  1  0
  8 23  2  0
  2 24  1  0
 24 25  2  0
 25 26  1  0
 26 27  2  0
 27 28  1  0
 27 29  1  0
 23  4  1  0
 29 24  1  0
 22  9  1  0
 20 14  1  0
  5 30  1  0
  6 31  1  0
  7 32  1  0
 10 33  1  0
 10 34  1  0
 11 35  1  0
 11 36  1  0
 13 37  1  0
 13 38  1  0
 15 39  1  0
 16 40  1  0
 17 41  1  0
 20 42  1  0
 21 43  1  0
 21 44  1  0
 22 45  1  0
 22 46  1  0
 23 47  1  0
 25 48  1  0
 26 49  1  0
 28 50  1  0
M  CHG  3   3  -1  19  -1  29  -1
M  END
>  <UniqueID>  (9) 
9

>  <SMILES>  (9) 
O=C([N-]c1cccc(N2CCN(Cc3cccc([O-])c3)CC2)c1)c1ccc(O)[n-]1

>  <Energy>  (9) 
92.29397727683416

>  <Genealogy>  (9) 
O=C([N-]c1cccc(N2CCN(Cc3cccc([O-])c3)CC2)c1)c1ccc(O)[n-]1 (protonated)
O=C([N-]c1cccc(N2CCN(Cc3cccc([O-])c3)CC2)c1)c1ccc(O)[n-]1 (3D coordinates assigned)
O=C([N-]c1cccc(N2CCN(Cc3cccc([O-])c3)CC2)c1)c1ccc(O)[n-]1 (nonaromatic ring conformer: 92.29397727683416 kcal/mol)

>  <smiles>  (9) 
O=C(Nc1cccc(N2CCN(Cc3cccc(O)c3)CC2)c1)c1ccc(O)[nH]1

>  <score_type>  (9) 
oracle

>  <origin>  (9) 
adg

>  <m_score__min__energy>  (9) 
-16.68

>  <m_primary>  (9) 
energy

$$$$
9:0
     RDKit          3D

 48 50  0  0  0  0  0  0  0  0999 V2000
   52.1530   28.3700   54.0490 C   0  0  0  0  0  0  0  0  0  0  0  0
   53.3510   28.8040   53.6080 C   0  0  0  0  0  0  0  0  0  0  0  0
   54.4550   27.9550   53.8160 C   0  0  0  0  0  0  0  0  0  0  0  0
   55.7430   28.3390   53.4600 C   0  0  0  0  0  0  0  0  0  0  0  0
   55.9790   29.5850   52.8660 C   0  0  0  0  0  0  0  0  0  0  0  0
   57.3550   30.0160   52.4770 C   0  0  0  0  0  0  0  0  0  0  0  0
   58.2410   29.1440   52.2650 O   0  0  0  0  0  0  0  0  0  0  0  0
   57.7320   31.4610   52.2870 C   0  0  0  0  0  0  0  0  0  0  0  0
   57.3900   31.9300   50.8690 C   0  0  0  0  0  0  0  0  0  0  0  0
   58.6110   32.4840   50.1870 C   0  0  0  0  0  0  0  0  0  0  0  0
   58.6170   32.6920   48.8000 C   0  0  0  0  0  0  0  0  0  0  0  0
   59.7630   33.1760   48.1610 C   0  0  0  0  0  0  0  0  0  0  0  0
   60.9290   33.4540   48.9010 C   0  0  0  0  0  0  0  0  0  0  0  0
   62.1300   33.9510   48.2830 N   0  0  0  0  0  0  0  0  0  0  0  0
   63.5090   32.9770   47.8740 S   0  0  0  0  0  0  0  0  0  0  0  0
   64.7310   33.0720   49.1640 C   0  0  0  0  0  0  0  0  0  0  0  0
   63.0680   31.5470   47.7370 O   0  0  0  0  0  0  0  0  0  0  0  0
   64.0890   33.4290   46.5640 O   0  0  0  0  0  0  0  0  0  0  0  0
   60.9190   33.2310   50.2870 C   0  0  0  0  0  0  0  0  0  0  0  0
   59.7740   32.7470   50.9250 C   0  0  0  0  0  0  0  0  0  0  0  0
   54.8860   30.4360   52.6280 C   0  0  0  0  0  0  0  0  0  0  0  0
   53.5610   30.0800   52.9870 C   0  0  0  0  0  0  0  0  0  0  0  0
   52.5320   30.9180   52.6860 C   0  0  0  0  0  0  0  0  0  0  0  0
   52.0000   31.1670   51.3310 C   0  0  0  0  0  0  0  0  0  0  0  0
   51.9940   30.2390   50.3560 N   0  0  0  0  0  0  0  0  0  0  0  0
   51.3310   30.8470   49.3490 C   0  0  0  0  0  0  0  0  0  0  0  0
   51.1280   30.2900   48.2390 O   0  0  0  0  0  0  0  0  0  0  0  0
   50.8870   32.0910   49.6300 N   0  0  0  0  0  0  0  0  0  0  0  0
   51.3070   32.2750   50.8920 C   0  0  0  0  0  0  0  0  0  0  0  0
   51.0280   33.4140   51.6370 O   0  0  0  0  0  0  0  0  0  0  0  0
   51.2575   28.9940   53.9121 H   0  0  0  0  0  0  0  0  0  0  0  0
   52.0711   27.3919   54.5457 H   0  0  0  0  0  0  0  0  0  0  0  0
   54.2949   26.9660   54.2702 H   0  0  0  0  0  0  0  0  0  0  0  0
   56.5855   27.6569   53.6469 H   0  0  0  0  0  0  0  0  0  0  0  0
   57.1806   32.0762   53.0133 H   0  0  0  0  0  0  0  0  0  0  0  0
   58.8160   31.5661   52.4416 H   0  0  0  0  0  0  0  0  0  0  0  0
   57.0069   31.0777   50.2886 H   0  0  0  0  0  0  0  0  0  0  0  0
   56.6280   32.7209   50.9306 H   0  0  0  0  0  0  0  0  0  0  0  0
   57.7143   32.4730   48.2108 H   0  0  0  0  0  0  0  0  0  0  0  0
   59.7538   33.3407   47.0734 H   0  0  0  0  0  0  0  0  0  0  0  0
   62.1820   34.9620   48.0290 H   0  0  0  0  0  0  0  0  0  0  0  0
   64.2332   33.0333   50.1442 H   0  0  0  0  0  0  0  0  0  0  0  0
   65.4272   32.2253   49.0726 H   0  0  0  0  0  0  0  0  0  0  0  0
   65.2880   34.0162   49.0726 H   0  0  0  0  0  0  0  0  0  0  0  0
   61.8232   33.4397   50.8777 H   0  0  0  0  0  0  0  0  0  0  0  0
   59.7849   32.5715   52.0109 H   0  0  0  0  0  0  0  0  0  0  0  0
   55.0641   31.4095   52.1478 H   0  0  0  0  0  0  0  0  0  0  0  0
   52.0572   31.4542   53.5209 H   0  0  0  0  0  0  0  0  0  0  0  0
  1  2  2  0
  2  3  1  0
  3  4  2  0
  4  5  1  0
  5  6  1  0
  6  7  2  0
  6  8  1  0
  8  9  1  0
  9 10  1  0
 10 11  2  0
 11 12  1  0
 12 13  2  0
 13 14  1  0
 14 15  1  0
 15 16  1  0
 15 17  2  0
 15 18  2  0
 13 19  1  0
 19 20  2  0
  5 21  2  0
 21 22  1  0
 22 23  2  3
 23 24  1  0
 24 25  1  0
 25 26  1  0
 26 27  2  0
 26 28  1  0
 28 29  1  0
 29 30  1  0
 22  2  1  0
 29 24  2  0
 20 10  1  0
  1 31  1  0
  1 32  1  0
  3 33  1  0
  4 34  1  0
  8 35  1  0
  8 36  1  0
  9 37  1  0
  9 38  1  0
 11 39  1  0
 12 40  1  0
 14 41  1  0
 16 42  1  0
 16 43  1  0
 16 44  1  0
 19 45  1  0
 20 46  1  0
 21 47  1  0
 23 48  1  0
M  CHG  3  25  -1  28  -1  30  -1
M  END
>  <UniqueID>  (10) 
10

>  <SMILES>  (10) 
C=c1ccc(C(=O)CCc2ccc(NS(C)(=O)=O)cc2)cc1=Cc1[n-]c(=O)[n-]c1[O-]

>  <Energy>  (10) 
94.0760113753547

>  <Genealogy>  (10) 
C=c1ccc(C(=O)CCc2ccc(NS(C)(=O)=O)cc2)cc1=Cc1[n-]c(=O)[n-]c1[O-] (protonated)
C=c1ccc(C(=O)CCc2ccc(NS(C)(=O)=O)cc2)cc1=Cc1[n-]c(=O)[n-]c1[O-] (3D coordinates assigned)
C=c1ccc(C(=O)CCc2ccc(NS(C)(=O)=O)cc2)cc1=Cc1[n-]c(=O)[n-]c1[O-] (optimized conformer: 94.0760113753547 kcal/mol)

>  <smiles>  (10) 
C=c1ccc(C(=O)CCc2ccc(NS(C)(=O)=O)cc2)cc1=Cc1[nH]c(=O)[nH]c1O

>  <score_type>  (10) 
oracle

>  <origin>  (10) 
adg

>  <m_score__min__energy>  (10) 
-18.91

>  <m_primary>  (10) 
energy

$$$$
10:0
     RDKit          3D

 48 50  0  0  0  0  0  0  0  0999 V2000
   57.7270   33.2910   45.6600 C   0  0  0  0  0  0  0  0  0  0  0  0
   58.8930   34.0500   46.1970 C   0  0  0  0  0  0  0  0  0  0  0  0
   59.3250   35.0510   45.5640 O   0  0  0  0  0  0  0  0  0  0  0  0
   59.5540   33.5730   47.3350 O   0  0  0  0  0  0  0  0  0  0  0  0
   59.7880   32.2220   47.6320 C   0  0  0  0  0  0  0  0  0  0  0  0
   60.8720   31.5090   47.0930 C   0  0  0  0  0  0  0  0  0  0  0  0
   61.0700   30.1670   47.4260 C   0  0  0  0  0  0  0  0  0  0  0  0
   60.1910   29.5110   48.3000 C   0  0  0  0  0  0  0  0  0  0  0  0
   60.4310   28.0880   48.6380 C   0  0  0  0  0  0  0  0  0  0  0  0
   60.3360   27.7270   49.8410 O   0  0  0  0  0  0  0  0  0  0  0  0
   60.7840   27.0700   47.6260 C   0  0  0  0  0  0  0  0  0  0  0  0
   60.3020   27.0970   46.3730 C   0  0  0  0  0  0  0  0  0  0  0  0
   58.9710   27.6370   45.9880 C   0  0  0  0  0  0  0  0  0  0  0  0
   58.7840   28.9260   45.4470 C   0  0  0  0  0  0  0  0  0  0  0  0
   57.5060   29.3650   45.0920 C   0  0  0  0  0  0  0  0  0  0  0  0
   56.3960   28.5390   45.2770 C   0  0  0  0  0  0  0  0  0  0  0  0
   55.1460   28.9790   44.8570 O   0  0  0  0  0  0  0  0  0  0  0  0
   56.5590   27.2650   45.8520 C   0  0  0  0  0  0  0  0  0  0  0  0
   55.4770   26.4010   46.0730 O   0  0  0  0  0  0  0  0  0  0  0  0
   55.5290   25.0100   45.9230 C   0  0  0  0  0  0  0  0  0  0  0  0
   55.5300   24.2500   46.9280 O   0  0  0  0  0  0  0  0  0  0  0  0
   55.6920   24.4300   44.5560 C   0  0  0  0  0  0  0  0  0  0  0  0
   56.8380   23.4700   44.5460 C   0  0  0  0  0  0  0  0  0  0  0  0
   58.0270   23.6140   45.2490 C   0  0  0  0  0  0  0  0  0  0  0  0
   58.9500   22.5950   44.9830 C   0  0  0  0  0  0  0  0  0  0  0  0
   58.4960   21.6580   44.0620 C   0  0  0  0  0  0  0  0  0  0  0  0
   56.9470   22.0990   43.5770 S   0  0  0  0  0  0  0  0  0  0  0  0
   57.8430   26.8180   46.1810 C   0  0  0  0  0  0  0  0  0  0  0  0
   59.1290   30.2350   48.8780 C   0  0  0  0  0  0  0  0  0  0  0  0
   58.2810   29.6270   49.8050 O   0  0  0  0  0  0  0  0  0  0  0  0
   58.9330   31.5810   48.5340 C   0  0  0  0  0  0  0  0  0  0  0  0
   57.1273   32.9007   46.4955 H   0  0  0  0  0  0  0  0  0  0  0  0
   57.1068   33.9590   45.0442 H   0  0  0  0  0  0  0  0  0  0  0  0
   58.0868   32.4535   45.0442 H   0  0  0  0  0  0  0  0  0  0  0  0
   61.5686   32.0104   46.4050 H   0  0  0  0  0  0  0  0  0  0  0  0
   61.9232   29.6197   46.9988 H   0  0  0  0  0  0  0  0  0  0  0  0
   61.4690   26.2578   47.9108 H   0  0  0  0  0  0  0  0  0  0  0  0
   60.9380   26.6900   45.5731 H   0  0  0  0  0  0  0  0  0  0  0  0
   59.6495   29.5896   45.3037 H   0  0  0  0  0  0  0  0  0  0  0  0
   57.3735   30.3694   44.6634 H   0  0  0  0  0  0  0  0  0  0  0  0
   54.7703   23.9013   44.2715 H   0  0  0  0  0  0  0  0  0  0  0  0
   55.8911   25.2403   43.8393 H   0  0  0  0  0  0  0  0  0  0  0  0
   58.2237   24.4438   45.9438 H   0  0  0  0  0  0  0  0  0  0  0  0
   59.9407   22.5411   45.4580 H   0  0  0  0  0  0  0  0  0  0  0  0
   59.0546   20.7781   43.7103 H   0  0  0  0  0  0  0  0  0  0  0  0
   57.9733   25.8085   46.5980 H   0  0  0  0  0  0  0  0  0  0  0  0
   58.6020   28.8780   50.4070 H   0  0  0  0  0  0  0  0  0  0  0  0
   58.0963   32.1391   48.9794 H   0  0  0  0  0  0  0  0  0  0  0  0
  1  2  1  0
  2  3  2  0
  2  4  1  0
  4  5  1  0
  5  6  2  0
  6  7  1  0
  7  8  2  0
  8  9  1  0
  9 10  2  0
  9 11  1  0
 11 12  2  3
 12 13  1  0
 13 14  2  0
 14 15  1  0
 15 16  2  0
 16 17  1  0
 16 18  1  0
 18 19  1  0
 19 20  1  0
 20 21  2  0
 20 22  1  0
 22 23  1  0
 23 24  2  0
 24 25  1  0
 25 26  2  0
 26 27  1  0
 18 28  2  0
  8 29  1  0
 29 30  1  0
 29 31  2  0
 31  5  1  0
 28 13  1  0
 27 23  1  0
  1 32  1  0
  1 33  1  0
  1 34  1  0
  6 35  1  0
  7 36  1  0
 11 37  1  0
 12 38  1  0
 14 39  1  0
 15 40  1  0
 22 41  1  0
 22 42  1  0
 24 43  1  0
 25 44  1  0
 26 45  1  0
 28 46  1  0
 30 47  1  0
 31 48  1  0
M  CHG  1  17  -1
M  END
>  <UniqueID>  (11) 
11

>  <SMILES>  (11) 
CC(=O)Oc1ccc(C(=O)C=Cc2ccc([O-])c(OC(=O)Cc3cccs3)c2)c(O)c1

>  <Energy>  (11) 
90.69249008281655

>  <Genealogy>  (11) 
CC(=O)Oc1ccc(C(=O)C=Cc2ccc([O-])c(OC(=O)Cc3cccs3)c2)c(O)c1 (protonated)
CC(=O)Oc1ccc(C(=O)C=Cc2ccc([O-])c(OC(=O)Cc3cccs3)c2)c(O)c1 (3D coordinates assigned)
CC(=O)Oc1ccc(C(=O)C=Cc2ccc([O-])c(OC(=O)Cc3cccs3)c2)c(O)c1 (optimized conformer: 90.69249008281655 kcal/mol)

>  <smiles>  (11) 
CC(=O)Oc1ccc(C(=O)C=Cc2ccc(O)c(OC(=O)Cc3cccs3)c2)c(O)c1

>  <score_type>  (11) 
oracle

>  <origin>  (11) 
adg

>  <m_score__min__energy>  (11) 
-11.93

>  <m_primary>  (11) 
energy

$$$$
11:0
     RDKit          3D

 62 66  0  0  0  0  0  0  0  0999 V2000
   60.2107   31.9230   50.3247 H   0  0  0  0  0  0  0  0  0  0  0  0
   60.6640   32.3120   49.4010 C   0  0  0  0  0  0  0  0  0  0  0  0
   60.1100   33.3800   48.7710 N   0  0  0  0  0  0  0  0  0  0  0  0
   60.6310   33.9020   47.6280 C   0  0  0  0  0  0  0  0  0  0  0  0
   60.0380   34.9310   47.0900 N   0  0  0  0  0  0  0  0  0  0  0  0
   58.7320   34.9540   46.4190 C   0  0  2  0  0  0  0  0  0  0  0  0
   58.1932   35.8425   46.7799 H   0  0  0  0  0  0  0  0  0  0  0  0
   57.9900   33.6510   46.7080 C   0  0  0  0  0  0  0  0  0  0  0  0
   56.9150   33.8428   46.8405 H   0  0  0  0  0  0  0  0  0  0  0  0
   58.3487   33.1753   47.6327 H   0  0  0  0  0  0  0  0  0  0  0  0
   58.2150   32.8060   45.5470 N   0  0  0  0  0  0  0  0  0  0  0  0
   57.6320   31.4960   45.4200 C   0  0  0  0  0  0  0  0  0  0  0  0
   56.6830   31.3150   44.6090 O   0  0  0  0  0  0  0  0  0  0  0  0
   58.1250   30.3500   46.2110 C   0  0  0  0  0  0  0  0  0  0  0  0
   58.7990   30.5550   47.4250 C   0  0  0  0  0  0  0  0  0  0  0  0
   58.9770   31.5787   47.7862 H   0  0  0  0  0  0  0  0  0  0  0  0
   59.2450   29.4650   48.1770 C   0  0  0  0  0  0  0  0  0  0  0  0
   59.7807   29.6331   49.1229 H   0  0  0  0  0  0  0  0  0  0  0  0
   59.0120   28.1630   47.7300 C   0  0  0  0  0  0  0  0  0  0  0  0
   59.3693   27.3080   48.3227 H   0  0  0  0  0  0  0  0  0  0  0  0
   58.3240   27.9410   46.5280 C   0  0  0  0  0  0  0  0  0  0  0  0
   58.0780   26.5960   46.0680 N   0  0  0  0  0  0  0  0  0  0  0  0
   59.1200   25.7220   45.9040 C   0  0  0  0  0  0  0  0  0  0  0  0
   60.3040   26.0770   46.1580 O   0  0  0  0  0  0  0  0  0  0  0  0
   58.8890   24.4550   45.4760 N   0  0  0  0  0  0  0  0  0  0  0  0
   57.6360   24.0070   45.2060 C   0  0  0  0  0  0  0  0  0  0  0  0
   57.4460   22.6550   44.7410 N   0  0  0  0  0  0  0  0  0  0  0  0
   57.7440   21.4990   45.5960 C   0  0  0  0  0  0  0  0  0  0  0  0
   58.7192   21.0791   45.3084 H   0  0  0  0  0  0  0  0  0  0  0  0
   57.7655   21.8309   46.6445 H   0  0  0  0  0  0  0  0  0  0  0  0
   56.6600   20.4130   45.4420 C   0  0  0  0  0  0  0  0  0  0  0  0
   57.1298   19.4311   45.6007 H   0  0  0  0  0  0  0  0  0  0  0  0
   55.8800   20.6360   46.1849 H   0  0  0  0  0  0  0  0  0  0  0  0
   56.0000   20.4030   44.1220 N   0  0  0  0  0  0  0  0  0  0  0  0
   55.1290   20.9830   44.1740 H   0  0  0  0  0  0  0  0  0  0  0  0
   56.8540   20.9450   43.0580 C   0  0  0  0  0  0  0  0  0  0  0  0
   57.7967   20.3790   43.0266 H   0  0  0  0  0  0  0  0  0  0  0  0
   56.3261   20.8552   42.0972 H   0  0  0  0  0  0  0  0  0  0  0  0
   57.1620   22.4250   43.3190 C   0  0  0  0  0  0  0  0  0  0  0  0
   58.0381   22.7216   42.7236 H   0  0  0  0  0  0  0  0  0  0  0  0
   56.2846   23.0237   43.0331 H   0  0  0  0  0  0  0  0  0  0  0  0
   56.5570   24.8860   45.3460 C   0  0  0  0  0  0  0  0  0  0  0  0
   55.5338   24.5562   45.1129 H   0  0  0  0  0  0  0  0  0  0  0  0
   56.7990   26.1880   45.7860 C   0  0  0  0  0  0  0  0  0  0  0  0
   55.8270   26.9850   45.9050 O   0  0  0  0  0  0  0  0  0  0  0  0
   57.8770   29.0380   45.7750 C   0  0  0  0  0  0  0  0  0  0  0  0
   57.3285   28.8690   44.8366 H   0  0  0  0  0  0  0  0  0  0  0  0
   58.8510   33.5210   44.4520 C   0  0  0  0  0  0  0  0  0  0  0  0
   58.2565   33.4224   43.5318 H   0  0  0  0  0  0  0  0  0  0  0  0
   59.8521   33.1222   44.2311 H   0  0  0  0  0  0  0  0  0  0  0  0
   58.9080   34.9760   44.8950 C   0  0  0  0  0  0  0  0  0  0  0  0
   58.0981   35.5523   44.4238 H   0  0  0  0  0  0  0  0  0  0  0  0
   59.8556   35.4522   44.6029 H   0  0  0  0  0  0  0  0  0  0  0  0
   61.7880   33.3160   47.0720 C   0  0  0  0  0  0  0  0  0  0  0  0
   62.2315   33.7304   46.1546 H   0  0  0  0  0  0  0  0  0  0  0  0
   62.3690   32.2030   47.6950 C   0  0  0  0  0  0  0  0  0  0  0  0
   63.6210   31.5910   47.1410 C   0  0  0  0  0  0  0  0  0  0  0  0
   64.2713   31.2731   47.9693 H   0  0  0  0  0  0  0  0  0  0  0  0
   63.3606   30.7186   46.5237 H   0  0  0  0  0  0  0  0  0  0  0  0
   64.1494   32.3324   46.5237 H   0  0  0  0  0  0  0  0  0  0  0  0
   61.8070   31.7080   48.8780 C   0  0  0  0  0  0  0  0  0  0  0  0
   62.2637   30.8489   49.3912 H   0  0  0  0  0  0  0  0  0  0  0  0
  1  2  1  0
  2  3  1  0
  3  4  1  0
  4  5  2  0
  5  6  1  0
  6  7  1  1
  6  8  1  0
  8  9  1  0
  8 10  1  0
  8 11  1  0
 11 12  1  0
 12 13  2  0
 12 14  1  0
 14 15  2  0
 15 16  1  0
 15 17  1  0
 17 18  1  0
 17 19  2  0
 19 20  1  0
 19 21  1  0
 21 22  1  0
 22 23  1  0
 23 24  2  0
 23 25  1  0
 25 26  1  0
 26 27  1  0
 27 28  1  0
 28 29  1  0
 28 30  1  0
 28 31  1  0
 31 32  1  0
 31 33  1  0
 31 34  1  0
 34 35  1  0
 34 36  1  0
 36 37  1  0
 36 38  1  0
 36 39  1  0
 39 40  1  0
 39 41  1  0
 26 42  2  0
 42 43  1  0
 42 44  1  0
 44 45  2  0
 21 46  2  0
 46 47  1  0
 11 48  1  0
 48 49  1  0
 48 50  1  0
 48 51  1  0
 51 52  1  0
 51 53  1  0
  4 54  1  0
 54 55  1  0
 54 56  2  0
 56 57  1  0
 57 58  1  0
 57 59  1  0
 57 60  1  0
 56 61  1  0
 61 62  1  0
 61  2  2  0
 51  6  1  0
 46 14  1  0
 44 22  1  0
 39 27  1  0
M  CHG  2   3  -1  25  -1
M  END
>  <UniqueID>  (12) 
12

>  <SMILES>  (12) 
Cc1cc[n-]/c(=N/[C@H]2CCN(C(=O)c3cccc(-n4c(=O)cc(N5CCNCC5)[n-]c4=O)c3)C2)c1

>  <Energy>  (12) 
91.53288358972428

>  <Genealogy>  (12) 
Cc1cc[n-]c(=NC2CCN(C(=O)c3cccc(-n4c(=O)cc(N5CCNCC5)[n-]c4=O)c3)C2)c1 (protonated)
Cc1cc[n-]c(=N[C@H]2CCN(C(=O)c3cccc(-n4c(=O)cc(N5CCNCC5)[n-]c4=O)c3)C2)c1 (chirality)
Cc1cc[n-]/c(=N/[C@H]2CCN(C(=O)c3cccc(-n4c(=O)cc(N5CCNCC5)[n-]c4=O)c3)C2)c1 (cis-trans isomerization)
Cc1cc[n-]/c(=N/[C@H]2CCN(C(=O)c3cccc(-n4c(=O)cc(N5CCNCC5)[n-]c4=O)c3)C2)c1 (3D coordinates assigned)
Cc1cc[n-]/c(=N/[C@H]2CCN(C(=O)c3cccc(-n4c(=O)cc(N5CCNCC5)[n-]c4=O)c3)C2)c1 (nonaromatic ring conformer: 91.53288358972428 kcal/mol)

>  <smiles>  (12) 
Cc1cc[nH]c(=NC2CCN(C(=O)c3cccc(-n4c(=O)cc(N5CCNCC5)[nH]c4=O)c3)C2)c1

>  <score_type>  (12) 
oracle

>  <origin>  (12) 
adg

>  <m_score__min__energy>  (12) 
-12.970000000000001

>  <m_primary>  (12) 
energy

$$$$
12:0
     RDKit          3D

 50 52  0  0  0  0  0  0  0  0999 V2000
   55.1470   29.3740   44.8580 N   0  0  0  0  0  0  0  0  0  0  0  0
   56.7650   29.5000   44.2650 S   0  0  0  0  0  0  0  0  0  0  0  0
   56.7480   29.4900   42.7620 O   0  0  0  0  0  0  0  0  0  0  0  0
   57.5690   28.3260   44.7450 O   0  0  0  0  0  0  0  0  0  0  0  0
   57.4890   30.9970   44.8440 C   0  0  0  0  0  0  0  0  0  0  0  0
   56.9210   32.2310   44.5010 C   0  0  0  0  0  0  0  0  0  0  0  0
   57.4960   33.4220   44.9550 C   0  0  0  0  0  0  0  0  0  0  0  0
   58.6540   33.3910   45.7470 C   0  0  0  0  0  0  0  0  0  0  0  0
   59.2490   34.6710   46.2700 C   0  0  0  0  0  0  0  0  0  0  0  0
   60.3810   34.3750   47.2590 C   0  0  0  0  0  0  0  0  0  0  0  0
   59.8730   34.2950   48.6280 N   0  0  0  0  0  0  0  0  0  0  0  0
   59.7130   33.0280   49.2880 C   0  0  0  0  0  0  0  0  0  0  0  0
   60.1750   31.9850   48.7490 O   0  0  0  0  0  0  0  0  0  0  0  0
   59.0310   32.9270   50.6010 C   0  0  0  0  0  0  0  0  0  0  0  0
   59.2590   33.8740   51.6160 C   0  0  0  0  0  0  0  0  0  0  0  0
   58.5980   33.7700   52.8430 C   0  0  0  0  0  0  0  0  0  0  0  0
   57.6950   32.7300   53.0680 C   0  0  0  0  0  0  0  0  0  0  0  0
   57.4420   31.7900   52.0620 C   0  0  0  0  0  0  0  0  0  0  0  0
   56.2800   30.4930   52.3320 S   0  0  0  0  0  0  0  0  0  0  0  0
   55.8310   30.4770   53.7660 O   0  0  0  0  0  0  0  0  0  0  0  0
   56.9310   29.1790   52.0050 O   0  0  0  0  0  0  0  0  0  0  0  0
   54.8950   30.7150   51.3110 N   0  0  0  0  0  0  0  0  0  0  0  0
   53.5370   30.7970   51.7650 C   0  0  0  0  0  0  0  0  0  0  0  0
   52.6920   31.8600   51.3990 C   0  0  0  0  0  0  0  0  0  0  0  0
   51.3700   31.8950   51.8530 C   0  0  0  0  0  0  0  0  0  0  0  0
   50.8830   30.8760   52.6720 C   0  0  0  0  0  0  0  0  0  0  0  0
   51.7190   29.8210   53.0470 C   0  0  0  0  0  0  0  0  0  0  0  0
   53.0420   29.7810   52.5950 C   0  0  0  0  0  0  0  0  0  0  0  0
   53.8400   28.7460   52.9590 F   0  0  0  0  0  0  0  0  0  0  0  0
   58.1110   31.8880   50.8350 C   0  0  0  0  0  0  0  0  0  0  0  0
   59.2190   32.1530   46.0930 C   0  0  0  0  0  0  0  0  0  0  0  0
   58.6430   30.9640   45.6370 C   0  0  0  0  0  0  0  0  0  0  0  0
   55.1520   28.6590   45.6180 H   0  0  0  0  0  0  0  0  0  0  0  0
   56.0191   32.2630   43.8720 H   0  0  0  0  0  0  0  0  0  0  0  0
   57.0389   34.3869   44.6903 H   0  0  0  0  0  0  0  0  0  0  0  0
   59.6484   35.2547   45.4275 H   0  0  0  0  0  0  0  0  0  0  0  0
   58.4643   35.2405   46.7894 H   0  0  0  0  0  0  0  0  0  0  0  0
   60.8499   33.4162   46.9927 H   0  0  0  0  0  0  0  0  0  0  0  0
   61.1161   35.1915   47.2050 H   0  0  0  0  0  0  0  0  0  0  0  0
   59.6590   35.1750   49.1470 H   0  0  0  0  0  0  0  0  0  0  0  0
   59.9623   34.7019   51.4428 H   0  0  0  0  0  0  0  0  0  0  0  0
   58.7901   34.5101   53.6338 H   0  0  0  0  0  0  0  0  0  0  0  0
   57.1813   32.6488   54.0373 H   0  0  0  0  0  0  0  0  0  0  0  0
   53.0721   32.6659   50.7540 H   0  0  0  0  0  0  0  0  0  0  0  0
   50.7124   32.7280   51.5637 H   0  0  0  0  0  0  0  0  0  0  0  0
   49.8407   30.9031   53.0226 H   0  0  0  0  0  0  0  0  0  0  0  0
   51.3363   29.0213   53.6982 H   0  0  0  0  0  0  0  0  0  0  0  0
   57.9154   31.1458   50.0470 H   0  0  0  0  0  0  0  0  0  0  0  0
   60.1184   32.1188   46.7254 H   0  0  0  0  0  0  0  0  0  0  0  0
   59.0979   29.9982   45.9020 H   0  0  0  0  0  0  0  0  0  0  0  0
  1  2  1  0
  2  3  2  0
  2  4  2  0
  2  5  1  0
  5  6  2  0
  6  7  1  0
  7  8  2  0
  8  9  1  0
  9 10  1  0
 10 11  1  0
 11 12  1  0
 12 13  2  0
 12 14  1  0
 14 15  2  0
 15 16  1  0
 16 17  2  0
 17 18  1  0
 18 19  1  0
 19 20  2  0
 19 21  2  0
 19 22  1  0
 22 23  1  0
 23 24  2  0
 24 25  1  0
 25 26  2  0
 26 27  1  0
 27 28  2  0
 28 29  1  0
 18 30  2  0
  8 31  1  0
 31 32  2  0
 32  5  1  0
 30 14  1  0
 28 23  1  0
  1 33  1  0
  6 34  1  0
  7 35  1  0
  9 36  1  0
  9 37  1  0
 10 38  1  0
 10 39  1  0
 11 40  1  0
 15 41  1  0
 16 42  1  0
 17 43  1  0
 24 44  1  0
 25 45  1  0
 26 46  1  0
 27 47  1  0
 30 48  1  0
 31 49  1  0
 32 50  1  0
M  CHG  2   1  -1  22  -1
M  END
>  <UniqueID>  (13) 
13

>  <SMILES>  (13) 
[NH-]S(=O)(=O)c1ccc(CCNC(=O)c2cccc(S(=O)(=O)[N-]c3ccccc3F)c2)cc1

>  <Energy>  (13) 
53.19065619127489

>  <Genealogy>  (13) 
[NH-]S(=O)(=O)c1ccc(CCNC(=O)c2cccc(S(=O)(=O)[N-]c3ccccc3F)c2)cc1 (protonated)
[NH-]S(=O)(=O)c1ccc(CCNC(=O)c2cccc(S(=O)(=O)[N-]c3ccccc3F)c2)cc1 (3D coordinates assigned)
[NH-]S(=O)(=O)c1ccc(CCNC(=O)c2cccc(S(=O)(=O)[N-]c3ccccc3F)c2)cc1 (optimized conformer: 53.19065619127489 kcal/mol)

>  <smiles>  (13) 
NS(=O)(=O)c1ccc(CCNC(=O)c2cccc(S(=O)(=O)Nc3ccccc3F)c2)cc1

>  <score_type>  (13) 
oracle

>  <origin>  (13) 
adg

>  <m_score__min__energy>  (13) 
-13.32

>  <m_primary>  (13) 
energy

$$$$
13:0
     RDKit          3D

 73 76  0  0  0  0  0  0  0  0999 V2000
   57.3620   28.2040   45.0620 C   0  0  0  0  0  0  0  0  0  0  0  0
   58.0200   28.1740   46.2360 C   0  0  0  0  0  0  0  0  0  0  0  0
   58.2970   29.4110   46.8540 C   0  0  0  0  0  0  0  0  0  0  0  0
   59.0620   29.4840   48.0110 C   0  0  0  0  0  0  0  0  0  0  0  0
   59.5770   28.3270   48.5910 C   0  0  0  0  0  0  0  0  0  0  0  0
   60.3870   28.4170   49.8260 C   0  0  0  0  0  0  0  0  0  0  0  0
   61.0260   27.3930   50.1940 O   0  0  0  0  0  0  0  0  0  0  0  0
   60.4550   29.6350   50.6110 N   0  0  0  0  0  0  0  0  0  0  0  0
   61.2640   30.7840   50.1630 C   0  0  0  0  0  0  0  0  0  0  0  0
   60.8580   32.0720   50.9020 C   0  0  1  0  0  0  0  0  0  0  0  0
   61.5320   33.3110   50.3180 C   0  0  0  0  0  0  0  0  0  0  0  0
   60.8070   34.0610   49.6020 O   0  0  0  0  0  0  0  0  0  0  0  0
   62.8980   33.7230   50.6000 N   0  0  0  0  0  0  0  0  0  0  0  0
   63.3560   34.1140   51.9350 C   0  0  0  0  0  0  0  0  0  0  0  0
   63.8930   33.7050   49.5120 C   0  0  0  0  0  0  0  0  0  0  0  0
   63.2900   33.1410   48.2540 C   0  0  0  0  0  0  0  0  0  0  0  0
   63.4610   31.9230   47.9890 O   0  0  0  0  0  0  0  0  0  0  0  0
   62.5050   33.9410   47.3550 N   0  0  0  0  0  0  0  0  0  0  0  0
   61.1870   33.6470   46.8660 C   0  0  0  0  0  0  0  0  0  0  0  0
   60.7100   32.3290   46.7640 C   0  0  0  0  0  0  0  0  0  0  0  0
   59.4280   32.0760   46.2650 C   0  0  0  0  0  0  0  0  0  0  0  0
   58.6170   33.1380   45.8170 C   0  0  0  0  0  0  0  0  0  0  0  0
   57.3300   32.9400   45.3020 O   0  0  0  0  0  0  0  0  0  0  0  0
   56.9560   31.8300   44.4900 C   0  0  0  0  0  0  0  0  0  0  0  0
   59.1120   34.4460   45.8840 C   0  0  0  0  0  0  0  0  0  0  0  0
   60.3900   34.6970   46.4010 C   0  0  0  0  0  0  0  0  0  0  0  0
   59.3240   32.1390   51.0540 C   0  0  0  0  0  0  0  0  0  0  0  0
   58.7690   30.9480   51.9080 C   0  0  0  0  0  0  0  0  0  0  0  0
   57.4090   30.5010   51.3330 C   0  0  0  0  0  0  0  0  0  0  0  0
   58.5550   31.4090   53.3670 C   0  0  0  0  0  0  0  0  0  0  0  0
   59.7460   29.7340   51.8990 C   0  0  0  0  0  0  0  0  0  0  0  0
   59.2670   27.0810   48.0330 C   0  0  0  0  0  0  0  0  0  0  0  0
   58.4880   26.9680   46.8520 C   0  0  0  0  0  0  0  0  0  0  0  0
   58.1670   25.7380   46.3740 C   0  0  0  0  0  0  0  0  0  0  0  0
   56.8070   25.1720   46.3970 C   0  0  0  0  0  0  0  0  0  0  0  0
   55.7740   25.6940   45.7130 N   0  0  0  0  0  0  0  0  0  0  0  0
   54.7630   24.8400   45.9860 C   0  0  0  0  0  0  0  0  0  0  0  0
   53.6000   25.0000   45.5310 O   0  0  0  0  0  0  0  0  0  0  0  0
   55.0930   23.8000   46.7810 N   0  0  0  0  0  0  0  0  0  0  0  0
   56.3950   24.0180   47.0300 C   0  0  0  0  0  0  0  0  0  0  0  0
   57.1870   23.1610   47.7910 O   0  0  0  0  0  0  0  0  0  0  0  0
   57.1229   27.2650   44.5413 H   0  0  0  0  0  0  0  0  0  0  0  0
   57.0634   29.1675   44.6233 H   0  0  0  0  0  0  0  0  0  0  0  0
   57.8995   30.3361   46.4111 H   0  0  0  0  0  0  0  0  0  0  0  0
   59.2625   30.4622   48.4724 H   0  0  0  0  0  0  0  0  0  0  0  0
   62.3254   30.5752   50.3625 H   0  0  0  0  0  0  0  0  0  0  0  0
   61.0937   30.9315   49.0863 H   0  0  0  0  0  0  0  0  0  0  0  0
   61.2470   32.0473   51.9306 H   0  0  0  0  0  0  0  0  0  0  0  0
   62.7517   33.5981   52.6957 H   0  0  0  0  0  0  0  0  0  0  0  0
   64.4133   33.8357   52.0560 H   0  0  0  0  0  0  0  0  0  0  0  0
   63.2470   35.2019   52.0560 H   0  0  0  0  0  0  0  0  0  0  0  0
   64.2371   34.7319   49.3194 H   0  0  0  0  0  0  0  0  0  0  0  0
   64.7395   33.0714   49.8152 H   0  0  0  0  0  0  0  0  0  0  0  0
   61.3491   31.4908   47.0787 H   0  0  0  0  0  0  0  0  0  0  0  0
   59.0511   31.0435   46.2220 H   0  0  0  0  0  0  0  0  0  0  0  0
   56.6711   30.9845   45.1334 H   0  0  0  0  0  0  0  0  0  0  0  0
   56.1030   32.1112   43.8549 H   0  0  0  0  0  0  0  0  0  0  0  0
   57.8052   31.5376   43.8549 H   0  0  0  0  0  0  0  0  0  0  0  0
   58.4930   35.2828   45.5281 H   0  0  0  0  0  0  0  0  0  0  0  0
   60.7692   35.7288   46.4413 H   0  0  0  0  0  0  0  0  0  0  0  0
   59.0565   33.0852   51.5471 H   0  0  0  0  0  0  0  0  0  0  0  0
   58.8788   32.0753   50.0501 H   0  0  0  0  0  0  0  0  0  0  0  0
   56.7186   30.2741   52.1587 H   0  0  0  0  0  0  0  0  0  0  0  0
   56.9889   31.3083   50.7152 H   0  0  0  0  0  0  0  0  0  0  0  0
   57.5498   29.6019   50.7152 H   0  0  0  0  0  0  0  0  0  0  0  0
   58.9166   30.6301   54.0544 H   0  0  0  0  0  0  0  0  0  0  0  0
   59.1127   32.3407   53.5427 H   0  0  0  0  0  0  0  0  0  0  0  0
   57.4834   31.5844   53.5427 H   0  0  0  0  0  0  0  0  0  0  0  0
   60.4827   29.8594   52.7062 H   0  0  0  0  0  0  0  0  0  0  0  0
   59.1622   28.8138   52.0488 H   0  0  0  0  0  0  0  0  0  0  0  0
   59.6362   26.1673   48.5218 H   0  0  0  0  0  0  0  0  0  0  0  0
   58.9729   25.1260   45.9427 H   0  0  0  0  0  0  0  0  0  0  0  0
   58.1450   22.9650   47.5330 H   0  0  0  0  0  0  0  0  0  0  0  0
  1  2  2  0
  2  3  1  0
  3  4  2  0
  4  5  1  0
  5  6  1  0
  6  7  2  0
  6  8  1  0
  8  9  1  0
  9 10  1  0
 10 11  1  0
 11 12  2  0
 11 13  1  0
 13 14  1  0
 13 15  1  0
 15 16  1  0
 16 17  2  0
 16 18  1  0
 18 19  1  0
 19 20  2  0
 20 21  1  0
 21 22  2  0
 22 23  1  0
 23 24  1  0
 22 25  1  0
 25 26  2  0
 10 27  1  0
 27 28  1  0
 28 29  1  0
 28 30  1  0
 28 31  1  0
  5 32  2  0
 32 33  1  0
 33 34  2  3
 34 35  1  0
 35 36  1  0
 36 37  1  0
 37 38  2  0
 37 39  1  0
 39 40  1  0
 40 41  1  0
 33  2  1  0
 40 35  2  0
 31  8  1  0
 26 19  1  0
  1 42  1  0
  1 43  1  0
  3 44  1  0
  4 45  1  0
  9 46  1  0
  9 47  1  0
 10 48  1  1
 14 49  1  0
 14 50  1  0
 14 51  1  0
 15 52  1  0
 15 53  1  0
 20 54  1  0
 21 55  1  0
 24 56  1  0
 24 57  1  0
 24 58  1  0
 25 59  1  0
 26 60  1  0
 27 61  1  0
 27 62  1  0
 29 63  1  0
 29 64  1  0
 29 65  1  0
 30 66  1  0
 30 67  1  0
 30 68  1  0
 31 69  1  0
 31 70  1  0
 32 71  1  0
 34 72  1  0
 41 73  1  0
M  CHG  3  18  -1  36  -1  39  -1
M  END
>  <UniqueID>  (14) 
14

>  <SMILES>  (14) 
C=c1ccc(C(=O)N2C[C@@H](C(=O)N(C)CC(=O)[N-]c3ccc(OC)cc3)CC(C)(C)C2)cc1=Cc1[n-]c(=O)[n-]c1O

>  <Energy>  (14) 
136.21861739666758

>  <Genealogy>  (14) 
C=c1ccc(C(=O)N2CC(C(=O)N(C)CC(=O)[N-]c3ccc(OC)cc3)CC(C)(C)C2)cc1=Cc1[n-]c(=O)[n-]c1O (protonated)
C=c1ccc(C(=O)N2C[C@@H](C(=O)N(C)CC(=O)[N-]c3ccc(OC)cc3)CC(C)(C)C2)cc1=Cc1[n-]c(=O)[n-]c1O (chirality)
C=c1ccc(C(=O)N2C[C@@H](C(=O)N(C)CC(=O)[N-]c3ccc(OC)cc3)CC(C)(C)C2)cc1=Cc1[n-]c(=O)[n-]c1O (3D coordinates assigned)
C=c1ccc(C(=O)N2C[C@@H](C(=O)N(C)CC(=O)[N-]c3ccc(OC)cc3)CC(C)(C)C2)cc1=Cc1[n-]c(=O)[n-]c1O (nonaromatic ring conformer: 136.21861739666758 kcal/mol)

>  <smiles>  (14) 
C=c1ccc(C(=O)N2CC(C(=O)N(C)CC(=O)Nc3ccc(OC)cc3)CC(C)(C)C2)cc1=Cc1[nH]c(=O)[nH]c1O

>  <score_type>  (14) 
oracle

>  <origin>  (14) 
adg

>  <m_score__min__energy>  (14) 
-17.789999999999999

>  <m_primary>  (14) 
energy

$$$$
14:0
     RDKit          3D

 60 63  0  0  0  0  0  0  0  0999 V2000
   56.2890   30.2220   42.9770 C   0  0  0  0  0  0  0  0  0  0  0  0
   56.2480   29.4930   44.2890 C   0  0  0  0  0  0  0  0  0  0  0  0
   55.1350   29.3680   44.8690 O   0  0  0  0  0  0  0  0  0  0  0  0
   57.4720   28.9180   44.9100 C   0  0  0  0  0  0  0  0  0  0  0  0
   58.4920   28.3930   44.0950 C   0  0  0  0  0  0  0  0  0  0  0  0
   59.6460   27.8520   44.6630 C   0  0  0  0  0  0  0  0  0  0  0  0
   59.7960   27.8200   46.0490 C   0  0  0  0  0  0  0  0  0  0  0  0
   58.8050   28.3440   46.8850 C   0  0  0  0  0  0  0  0  0  0  0  0
   58.9990   28.2640   48.2750 O   0  0  0  0  0  0  0  0  0  0  0  0
   59.3950   29.3440   49.1220 C   0  0  0  0  0  0  0  0  0  0  0  0
   59.6750   30.5710   48.2970 C   0  0  0  0  0  0  0  0  0  0  0  0
   60.8140   30.7080   47.7820 O   0  0  0  0  0  0  0  0  0  0  0  0
   58.6840   31.5770   48.0470 N   0  0  0  0  0  0  0  0  0  0  0  0
   58.6590   32.5500   46.9890 C   0  0  0  0  0  0  0  0  0  0  0  0
   57.8570   32.3560   45.8490 C   0  0  0  0  0  0  0  0  0  0  0  0
   57.7900   33.3320   44.8560 C   0  0  0  0  0  0  0  0  0  0  0  0
   58.4870   34.5300   45.0040 C   0  0  0  0  0  0  0  0  0  0  0  0
   59.2490   34.7570   46.1500 C   0  0  0  0  0  0  0  0  0  0  0  0
   59.3470   33.7720   47.1500 C   0  0  0  0  0  0  0  0  0  0  0  0
   60.1170   34.0720   48.3800 C   0  0  0  0  0  0  0  0  0  0  0  0
   59.6770   34.9410   49.1800 O   0  0  0  0  0  0  0  0  0  0  0  0
   61.3500   33.3980   48.6810 N   0  0  0  0  0  0  0  0  0  0  0  0
   62.3230   33.1390   47.6100 C   0  0  0  0  0  0  0  0  0  0  0  0
   63.6270   32.5960   48.1880 C   0  0  0  0  0  0  0  0  0  0  0  0
   64.0000   33.4340   49.3450 N   0  0  0  0  0  0  0  0  0  0  0  0
   65.4160   33.3610   49.7980 C   0  0  0  0  0  0  0  0  0  0  0  0
   65.8760   31.9430   50.1330 C   0  0  0  0  0  0  0  0  0  0  0  0
   66.1330   32.3720   51.5730 C   0  0  0  0  0  0  0  0  0  0  0  0
   65.7020   33.7970   51.2380 C   0  0  0  0  0  0  0  0  0  0  0  0
   63.0680   33.2640   50.4840 C   0  0  0  0  0  0  0  0  0  0  0  0
   61.6230   32.9310   50.0490 C   0  0  0  0  0  0  0  0  0  0  0  0
   57.6400   28.8900   46.3110 C   0  0  0  0  0  0  0  0  0  0  0  0
   56.3499   31.3048   43.1609 H   0  0  0  0  0  0  0  0  0  0  0  0
   57.1703   29.8972   42.4044 H   0  0  0  0  0  0  0  0  0  0  0  0
   55.3768   29.9981   42.4044 H   0  0  0  0  0  0  0  0  0  0  0  0
   58.3786   28.4092   43.0010 H   0  0  0  0  0  0  0  0  0  0  0  0
   60.4394   27.4498   44.0159 H   0  0  0  0  0  0  0  0  0  0  0  0
   60.7024   27.3784   46.4889 H   0  0  0  0  0  0  0  0  0  0  0  0
   58.5869   29.5619   49.8358 H   0  0  0  0  0  0  0  0  0  0  0  0
   60.3077   29.0594   49.6661 H   0  0  0  0  0  0  0  0  0  0  0  0
   57.2784   31.4268   45.7407 H   0  0  0  0  0  0  0  0  0  0  0  0
   57.1858   33.1564   43.9537 H   0  0  0  0  0  0  0  0  0  0  0  0
   58.4361   35.2966   44.2168 H   0  0  0  0  0  0  0  0  0  0  0  0
   59.7776   35.7138   46.2730 H   0  0  0  0  0  0  0  0  0  0  0  0
   61.9028   32.4013   46.9106 H   0  0  0  0  0  0  0  0  0  0  0  0
   62.5335   34.0832   47.0864 H   0  0  0  0  0  0  0  0  0  0  0  0
   63.4860   31.5543   48.5121 H   0  0  0  0  0  0  0  0  0  0  0  0
   64.4210   32.6217   47.4271 H   0  0  0  0  0  0  0  0  0  0  0  0
   65.8633   33.9345   48.9728 H   0  0  0  0  0  0  0  0  0  0  0  0
   65.0926   31.1785   50.0244 H   0  0  0  0  0  0  0  0  0  0  0  0
   66.6696   31.4596   49.5442 H   0  0  0  0  0  0  0  0  0  0  0  0
   65.4885   31.8715   52.3107 H   0  0  0  0  0  0  0  0  0  0  0  0
   67.1119   32.1857   52.0390 H   0  0  0  0  0  0  0  0  0  0  0  0
   64.8144   34.1407   51.7894 H   0  0  0  0  0  0  0  0  0  0  0  0
   66.3692   34.6470   51.4438 H   0  0  0  0  0  0  0  0  0  0  0  0
   63.4386   32.4457   51.1188 H   0  0  0  0  0  0  0  0  0  0  0  0
   63.0329   34.2232   51.0213 H   0  0  0  0  0  0  0  0  0  0  0  0
   61.4797   31.8411   50.0898 H   0  0  0  0  0  0  0  0  0  0  0  0
   60.9303   33.4432   50.7329 H   0  0  0  0  0  0  0  0  0  0  0  0
   56.8530   29.2988   46.9617 H   0  0  0  0  0  0  0  0  0  0  0  0
  1  2  1  0
  2  3  2  0
  2  4  1  0
  4  5  2  0
  5  6  1  0
  6  7  2  0
  7  8  1  0
  8  9  1  0
  9 10  1  0
 10 11  1  0
 11 12  2  0
 11 13  1  0
 13 14  1  0
 14 15  2  0
 15 16  1  0
 16 17  2  0
 17 18  1  0
 18 19  2  0
 19 20  1  0
 20 21  2  0
 20 22  1  0
 22 23  1  0
 23 24  1  0
 24 25  1  0
 25 26  1  0
 26 27  1  0
 27 28  1  0
 28 29  1  0
 25 30  1  0
 30 31  1  0
  8 32  2  0
 32  4  1  0
 19 14  1  0
 31 22  1  0
 29 26  1  0
  1 33  1  0
  1 34  1  0
  1 35  1  0
  5 36  1  0
  6 37  1  0
  7 38  1  0
 10 39  1  0
 10 40  1  0
 15 41  1  0
 16 42  1  0
 17 43  1  0
 18 44  1  0
 23 45  1  0
 23 46  1  0
 24 47  1  0
 24 48  1  0
 26 49  1  0
 27 50  1  0
 27 51  1  0
 28 52  1  0
 28 53  1  0
 29 54  1  0
 29 55  1  0
 30 56  1  0
 30 57  1  0
 31 58  1  0
 31 59  1  0
 32 60  1  0
M  CHG  1  13  -1
M  END
>  <UniqueID>  (15) 
15

>  <SMILES>  (15) 
CC(=O)c1cccc(OCC(=O)[N-]c2ccccc2C(=O)N2CCN(C3CCC3)CC2)c1

>  <Energy>  (15) 
142.3693021756337

>  <Genealogy>  (15) 
CC(=O)c1cccc(OCC(=O)[N-]c2ccccc2C(=O)N2CCN(C3CCC3)CC2)c1 (protonated)
CC(=O)c1cccc(OCC(=O)[N-]c2ccccc2C(=O)N2CCN(C3CCC3)CC2)c1 (3D coordinates assigned)
CC(=O)c1cccc(OCC(=O)[N-]c2ccccc2C(=O)N2CCN(C3CCC3)CC2)c1 (nonaromatic ring conformer: 142.3693021756337 kcal/mol)

>  <smiles>  (15) 
CC(=O)c1cccc(OCC(=O)Nc2ccccc2C(=O)N2CCN(C3CCC3)CC2)c1

>  <score_type>  (15) 
oracle

>  <origin>  (15) 
adg

>  <m_score__min__energy>  (15) 
-10.869999999999999

>  <m_primary>  (15) 
energy

$$$$
15:0
     RDKit          3D

 55 57  0  0  0  0  0  0  0  0999 V2000
   64.6280   31.9930   50.1170 C   0  0  0  0  0  0  0  0  0  0  0  0
   64.3520   33.3730   50.5220 N   0  0  0  0  0  0  0  0  0  0  0  0
   65.3800   34.0900   51.2740 C   0  0  0  0  0  0  0  0  0  0  0  0
   63.0020   33.8640   50.5110 C   0  0  0  0  0  0  0  0  0  0  0  0
   62.4760   34.2400   51.5950 O   0  0  0  0  0  0  0  0  0  0  0  0
   62.2350   33.9130   49.2880 N   0  0  0  0  0  0  0  0  0  0  0  0
   60.7820   34.1460   49.3660 C   0  0  0  0  0  0  0  0  0  0  0  0
   60.1470   34.2090   47.9730 C   0  0  0  0  0  0  0  0  0  0  0  0
   60.6690   33.1090   47.1460 N   0  0  0  0  0  0  0  0  0  0  0  0
   59.7720   32.1680   46.5140 C   0  0  0  0  0  0  0  0  0  0  0  0
   58.8310   32.6050   45.5630 C   0  0  0  0  0  0  0  0  0  0  0  0
   57.9690   31.6940   44.9460 C   0  0  0  0  0  0  0  0  0  0  0  0
   58.0150   30.3330   45.2870 C   0  0  0  0  0  0  0  0  0  0  0  0
   57.1120   29.3440   44.6040 C   0  0  0  0  0  0  0  0  0  0  0  0
   57.6630   27.9560   44.7400 C   0  0  0  0  0  0  0  0  0  0  0  0
   58.5820   27.5750   43.9640 O   0  0  0  0  0  0  0  0  0  0  0  0
   57.1970   27.0960   45.7900 N   0  0  0  0  0  0  0  0  0  0  0  0
   57.5700   25.7110   45.9010 C   0  0  0  0  0  0  0  0  0  0  0  0
   56.5880   24.6910   45.8660 C   0  0  0  0  0  0  0  0  0  0  0  0
   55.1340   24.9950   45.8520 C   0  0  0  0  0  0  0  0  0  0  0  0
   54.6810   26.3420   45.9820 N   0  0  0  0  0  0  0  0  0  0  0  0
   54.2850   24.0730   45.7020 O   0  0  0  0  0  0  0  0  0  0  0  0
   57.0010   23.3490   45.8860 C   0  0  0  0  0  0  0  0  0  0  0  0
   58.3590   23.0380   45.9530 C   0  0  0  0  0  0  0  0  0  0  0  0
   58.7690   21.7110   45.9920 O   0  0  0  0  0  0  0  0  0  0  0  0
   59.2820   24.0290   45.9770 N   0  0  0  0  0  0  0  0  0  0  0  0
   58.9290   25.3410   45.9430 C   0  0  0  0  0  0  0  0  0  0  0  0
   59.8350   26.2160   45.9190 O   0  0  0  0  0  0  0  0  0  0  0  0
   58.9460   29.8940   46.2420 C   0  0  0  0  0  0  0  0  0  0  0  0
   59.8140   30.8030   46.8530 C   0  0  0  0  0  0  0  0  0  0  0  0
   62.1240   32.9270   47.0350 C   0  0  0  0  0  0  0  0  0  0  0  0
   62.8860   33.8790   47.9700 C   0  0  0  0  0  0  0  0  0  0  0  0
   64.7534   31.3662   51.0122 H   0  0  0  0  0  0  0  0  0  0  0  0
   63.7883   31.6120   49.5173 H   0  0  0  0  0  0  0  0  0  0  0  0
   65.5497   31.9642   49.5173 H   0  0  0  0  0  0  0  0  0  0  0  0
   65.2002   33.9646   52.3519 H   0  0  0  0  0  0  0  0  0  0  0  0
   66.3705   33.6858   51.0180 H   0  0  0  0  0  0  0  0  0  0  0  0
   65.3429   35.1592   51.0180 H   0  0  0  0  0  0  0  0  0  0  0  0
   60.3185   33.3253   49.9332 H   0  0  0  0  0  0  0  0  0  0  0  0
   60.6140   35.1115   49.8655 H   0  0  0  0  0  0  0  0  0  0  0  0
   59.0549   34.1136   48.0632 H   0  0  0  0  0  0  0  0  0  0  0  0
   60.3931   35.1716   47.5009 H   0  0  0  0  0  0  0  0  0  0  0  0
   58.7735   33.6723   45.3032 H   0  0  0  0  0  0  0  0  0  0  0  0
   57.2514   32.0451   44.1899 H   0  0  0  0  0  0  0  0  0  0  0  0
   56.1141   29.3851   45.0650 H   0  0  0  0  0  0  0  0  0  0  0  0
   57.0445   29.5992   43.5361 H   0  0  0  0  0  0  0  0  0  0  0  0
   56.5700   27.4970   46.5240 H   0  0  0  0  0  0  0  0  0  0  0  0
   55.0030   26.9420   46.7730 H   0  0  0  0  0  0  0  0  0  0  0  0
   56.2534   22.5429   45.8488 H   0  0  0  0  0  0  0  0  0  0  0  0
   58.9924   28.8284   46.5108 H   0  0  0  0  0  0  0  0  0  0  0  0
   60.5352   30.4489   47.6043 H   0  0  0  0  0  0  0  0  0  0  0  0
   62.3752   31.8894   47.3000 H   0  0  0  0  0  0  0  0  0  0  0  0
   62.4208   33.1508   45.9997 H   0  0  0  0  0  0  0  0  0  0  0  0
   63.9219   33.5269   48.0838 H   0  0  0  0  0  0  0  0  0  0  0  0
   62.8826   34.8906   47.5381 H   0  0  0  0  0  0  0  0  0  0  0  0
  1  2  1  0
  2  3  1  0
  2  4  1  0
  4  5  2  0
  4  6  1  0
  6  7  1  0
  7  8  1  0
  8  9  1  0
  9 10  1  0
 10 11  2  0
 11 12  1  0
 12 13  2  0
 13 14  1  0
 14 15  1  0
 15 16  2  0
 15 17  1  0
 17 18  1  0
 18 19  2  0
 19 20  1  0
 20 21  1  0
 20 22  2  0
 19 23  1  0
 23 24  2  0
 24 25  1  0
 24 26  1  0
 26 27  1  0
 27 28  2  0
 13 29  1  0
 29 30  2  0
  9 31  1  0
 31 32  1  0
 32  6  1  0
 30 10  1  0
 27 18  1  0
  1 33  1  0
  1 34  1  0
  1 35  1  0
  3 36  1  0
  3 37  1  0
  3 38  1  0
  7 39  1  0
  7 40  1  0
  8 41  1  0
  8 42  1  0
 11 43  1  0
 12 44  1  0
 14 45  1  0
 14 46  1  0
 17 47  1  0
 21 48  1  0
 23 49  1  0
 29 50  1  0
 30 51  1  0
 31 52  1  0
 31 53  1  0
 32 54  1  0
 32 55  1  0
M  CHG  3  21  -1  25  -1  26  -1
M  END
>  <UniqueID>  (16) 
16

>  <SMILES>  (16) 
CN(C)C(=O)N1CCN(c2ccc(CC(=O)Nc3c(C([NH-])=O)cc([O-])[n-]c3=O)cc2)CC1

>  <Energy>  (16) 
71.60164616550274

>  <Genealogy>  (16) 
CN(C)C(=O)N1CCN(c2ccc(CC(=O)Nc3c(C([NH-])=O)cc([O-])[n-]c3=O)cc2)CC1 (protonated)
CN(C)C(=O)N1CCN(c2ccc(CC(=O)Nc3c(C([NH-])=O)cc([O-])[n-]c3=O)cc2)CC1 (3D coordinates assigned)
CN(C)C(=O)N1CCN(c2ccc(CC(=O)Nc3c(C([NH-])=O)cc([O-])[n-]c3=O)cc2)CC1 (nonaromatic ring conformer: 71.60164616550274 kcal/mol)

>  <smiles>  (16) 
CN(C)C(=O)N1CCN(c2ccc(CC(=O)Nc3c(C(N)=O)cc(O)[nH]c3=O)cc2)CC1

>  <score_type>  (16) 
oracle

>  <origin>  (16) 
adg

>  <m_score__min__energy>  (16) 
-14.039999999999999

>  <m_primary>  (16) 
energy

$$$$
16:0
     RDKit          3D

 37 39  0  0  0  0  0  0  0  0999 V2000
   60.7210   26.7600   47.7140 O   0  0  0  0  0  0  0  0  0  0  0  0
   59.8010   26.9670   46.8760 C   0  0  0  0  0  0  0  0  0  0  0  0
   59.2430   25.8020   46.0950 C   0  0  0  0  0  0  0  0  0  0  0  0
   57.7950   25.6810   46.2750 N   0  0  0  0  0  0  0  0  0  0  0  0
   56.8420   26.3650   45.6200 C   0  0  0  0  0  0  0  0  0  0  0  0
   55.6260   25.8890   46.0540 C   0  0  0  0  0  0  0  0  0  0  0  0
   54.3870   26.3400   45.6190 O   0  0  0  0  0  0  0  0  0  0  0  0
   55.7870   24.9090   46.9670 N   0  0  0  0  0  0  0  0  0  0  0  0
   57.1290   24.8130   47.0660 C   0  0  0  0  0  0  0  0  0  0  0  0
   57.7010   23.9830   47.8220 O   0  0  0  0  0  0  0  0  0  0  0  0
   59.3100   28.3120   46.6640 N   0  0  0  0  0  0  0  0  0  0  0  0
   59.0130   28.7790   45.2980 C   0  0  0  0  0  0  0  0  0  0  0  0
   58.5990   30.2560   45.2730 C   0  0  0  0  0  0  0  0  0  0  0  0
   59.5360   31.0630   46.1850 C   0  0  1  0  0  0  0  0  0  0  0  0
   59.3360   32.5490   46.0160 C   0  0  0  0  0  0  0  0  0  0  0  0
   59.9840   33.5650   46.7130 C   0  0  0  0  0  0  0  0  0  0  0  0
   59.6320   34.8480   46.2780 C   0  0  0  0  0  0  0  0  0  0  0  0
   58.7180   34.8510   45.2310 C   0  0  0  0  0  0  0  0  0  0  0  0
   58.3530   33.2560   44.8470 S   0  0  0  0  0  0  0  0  0  0  0  0
   59.4280   30.6050   47.6680 C   0  0  1  0  0  0  0  0  0  0  0  0
   58.5760   31.4580   48.3940 O   0  0  0  0  0  0  0  0  0  0  0  0
   58.9230   29.1500   47.8130 C   0  0  0  0  0  0  0  0  0  0  0  0
   59.4594   25.9510   45.0268 H   0  0  0  0  0  0  0  0  0  0  0  0
   59.7155   24.8800   46.4648 H   0  0  0  0  0  0  0  0  0  0  0  0
   57.0037   27.1582   44.8752 H   0  0  0  0  0  0  0  0  0  0  0  0
   59.9111   28.6513   44.6759 H   0  0  0  0  0  0  0  0  0  0  0  0
   58.1728   28.1840   44.9106 H   0  0  0  0  0  0  0  0  0  0  0  0
   58.6680   30.6393   44.2443 H   0  0  0  0  0  0  0  0  0  0  0  0
   57.5634   30.3539   45.6306 H   0  0  0  0  0  0  0  0  0  0  0  0
   60.5687   30.8528   45.8700 H   0  0  0  0  0  0  0  0  0  0  0  0
   60.7017   33.3780   47.5253 H   0  0  0  0  0  0  0  0  0  0  0  0
   60.0404   35.7674   46.7229 H   0  0  0  0  0  0  0  0  0  0  0  0
   58.3047   35.7435   44.7385 H   0  0  0  0  0  0  0  0  0  0  0  0
   60.4489   30.6524   48.0747 H   0  0  0  0  0  0  0  0  0  0  0  0
   58.4710   31.0590   49.2970 H   0  0  0  0  0  0  0  0  0  0  0  0
   59.3505   28.7157   48.7288 H   0  0  0  0  0  0  0  0  0  0  0  0
   57.8243   29.1757   47.8589 H   0  0  0  0  0  0  0  0  0  0  0  0
  1  2  2  0
  2  3  1  0
  3  4  1  0
  4  5  1  0
  5  6  2  0
  6  7  1  0
  6  8  1  0
  8  9  1  0
  9 10  2  0
  2 11  1  0
 11 12  1  0
 12 13  1  0
 13 14  1  0
 14 15  1  0
 15 16  2  0
 16 17  1  0
 17 18  2  0
 18 19  1  0
 14 20  1  0
 20 21  1  0
 20 22  1  0
  9  4  1  0
 22 11  1  0
 19 15  1  0
  3 23  1  0
  3 24  1  0
  5 25  1  0
 12 26  1  0
 12 27  1  0
 13 28  1  0
 13 29  1  0
 14 30  1  6
 16 31  1  0
 17 32  1  0
 18 33  1  0
 20 34  1  1
 21 35  1  0
 22 36  1  0
 22 37  1  0
M  CHG  2   7  -1   8  -1
M  END
>  <UniqueID>  (17) 
17

>  <SMILES>  (17) 
O=C(Cn1cc([O-])[n-]c1=O)N1CC[C@@H](c2cccs2)[C@@H](O)C1

>  <Energy>  (17) 
99.80397294325904

>  <Genealogy>  (17) 
O=C(Cn1cc([O-])[n-]c1=O)N1CCC(c2cccs2)C(O)C1 (protonated)
O=C(Cn1cc([O-])[n-]c1=O)N1CC[C@@H](c2cccs2)[C@@H](O)C1 (chirality)
O=C(Cn1cc([O-])[n-]c1=O)N1CC[C@@H](c2cccs2)[C@@H](O)C1 (3D coordinates assigned)
O=C(Cn1cc([O-])[n-]c1=O)N1CC[C@@H](c2cccs2)[C@@H](O)C1 (nonaromatic ring conformer: 99.80397294325904 kcal/mol)

>  <smiles>  (17) 
O=C(Cn1cc(O)[nH]c1=O)N1CCC(c2cccs2)C(O)C1

>  <score_type>  (17) 
oracle

>  <origin>  (17) 
adg

>  <m_score__min__energy>  (17) 
-12.630000000000001

>  <m_primary>  (17) 
energy

$$$$
17:0
     RDKit          3D

 53 56  0  0  0  0  0  0  0  0999 V2000
   56.9170   29.6500   43.8570 C   0  0  0  0  0  0  0  0  0  0  0  0
   56.9600   29.7470   45.2770 O   0  0  0  0  0  0  0  0  0  0  0  0
   58.0380   30.2750   46.0100 C   0  0  0  0  0  0  0  0  0  0  0  0
   58.1850   31.6620   46.2120 C   0  0  0  0  0  0  0  0  0  0  0  0
   59.2410   32.1700   46.9860 C   0  0  0  0  0  0  0  0  0  0  0  0
   59.3870   33.6310   47.1870 C   0  0  0  0  0  0  0  0  0  0  0  0
   58.3740   34.3760   47.0820 O   0  0  0  0  0  0  0  0  0  0  0  0
   60.6650   34.2170   47.4960 N   0  0  0  0  0  0  0  0  0  0  0  0
   61.7550   34.1950   46.5180 C   0  0  0  0  0  0  0  0  0  0  0  0
   62.7770   33.1400   46.9370 C   0  0  0  0  0  0  0  0  0  0  0  0
   63.1220   33.2330   48.4060 C   0  0  0  0  0  0  0  0  0  0  0  0
   64.2860   32.6020   48.8720 C   0  0  0  0  0  0  0  0  0  0  0  0
   64.6060   32.6180   50.2310 C   0  0  0  0  0  0  0  0  0  0  0  0
   63.7620   33.2570   51.1480 C   0  0  0  0  0  0  0  0  0  0  0  0
   64.0950   33.2790   52.5380 N   0  0  0  0  0  0  0  0  0  0  0  0
   62.5900   33.8770   50.6940 C   0  0  0  0  0  0  0  0  0  0  0  0
   62.2510   33.8560   49.3310 C   0  0  0  0  0  0  0  0  0  0  0  0
   61.0080   34.5810   48.8740 C   0  0  0  0  0  0  0  0  0  0  0  0
   60.1680   31.2780   47.5440 C   0  0  0  0  0  0  0  0  0  0  0  0
   60.0380   29.9040   47.3420 C   0  0  0  0  0  0  0  0  0  0  0  0
   58.9810   29.3900   46.5740 C   0  0  0  0  0  0  0  0  0  0  0  0
   58.8760   27.9240   46.3700 C   0  0  0  0  0  0  0  0  0  0  0  0
   60.0310   27.1420   46.1920 C   0  0  0  0  0  0  0  0  0  0  0  0
   59.9270   25.7610   46.0120 C   0  0  0  0  0  0  0  0  0  0  0  0
   58.6730   25.1460   46.0090 C   0  0  0  0  0  0  0  0  0  0  0  0
   57.5120   25.9120   46.1870 C   0  0  0  0  0  0  0  0  0  0  0  0
   55.9360   25.1290   46.2010 S   0  0  0  0  0  0  0  0  0  0  0  0
   54.7020   26.3210   45.9910 N   0  0  0  0  0  0  0  0  0  0  0  0
   55.7360   24.4200   47.5120 O   0  0  0  0  0  0  0  0  0  0  0  0
   55.8550   24.1210   45.0880 O   0  0  0  0  0  0  0  0  0  0  0  0
   57.6180   27.2970   46.3750 C   0  0  0  0  0  0  0  0  0  0  0  0
   56.4868   28.6795   43.5686 H   0  0  0  0  0  0  0  0  0  0  0  0
   56.2944   30.4617   43.4527 H   0  0  0  0  0  0  0  0  0  0  0  0
   57.9366   29.7338   43.4527 H   0  0  0  0  0  0  0  0  0  0  0  0
   57.4629   32.3561   45.7573 H   0  0  0  0  0  0  0  0  0  0  0  0
   61.3541   33.9461   45.5243 H   0  0  0  0  0  0  0  0  0  0  0  0
   62.2366   35.1831   46.4756 H   0  0  0  0  0  0  0  0  0  0  0  0
   62.3607   32.1424   46.7331 H   0  0  0  0  0  0  0  0  0  0  0  0
   63.6981   33.3139   46.3614 H   0  0  0  0  0  0  0  0  0  0  0  0
   64.9515   32.0908   48.1608 H   0  0  0  0  0  0  0  0  0  0  0  0
   65.5250   32.1266   50.5830 H   0  0  0  0  0  0  0  0  0  0  0  0
   64.4410   34.1540   52.9920 H   0  0  0  0  0  0  0  0  0  0  0  0
   64.0010   32.4190   53.1250 H   0  0  0  0  0  0  0  0  0  0  0  0
   61.9292   34.3849   51.4119 H   0  0  0  0  0  0  0  0  0  0  0  0
   60.1713   34.3130   49.5359 H   0  0  0  0  0  0  0  0  0  0  0  0
   61.1988   35.6636   48.9137 H   0  0  0  0  0  0  0  0  0  0  0  0
   61.0039   31.6647   48.1455 H   0  0  0  0  0  0  0  0  0  0  0  0
   60.7710   29.2162   47.7889 H   0  0  0  0  0  0  0  0  0  0  0  0
   61.0215   27.6204   46.1945 H   0  0  0  0  0  0  0  0  0  0  0  0
   60.8350   25.1561   45.8722 H   0  0  0  0  0  0  0  0  0  0  0  0
   58.5959   24.0580   45.8666 H   0  0  0  0  0  0  0  0  0  0  0  0
   55.1550   27.2540   46.1120 H   0  0  0  0  0  0  0  0  0  0  0  0
   56.7094   27.8980   46.5277 H   0  0  0  0  0  0  0  0  0  0  0  0
  1  2  1  0
  2  3  1  0
  3  4  2  0
  4  5  1  0
  5  6  1  0
  6  7  2  0
  6  8  1  0
  8  9  1  0
  9 10  1  0
 10 11  1  0
 11 12  2  0
 12 13  1  0
 13 14  2  0
 14 15  1  0
 14 16  1  0
 16 17  2  0
 17 18  1  0
  5 19  2  0
 19 20  1  0
 20 21  2  0
 21 22  1  0
 22 23  2  0
 23 24  1  0
 24 25  2  0
 25 26  1  0
 26 27  1  0
 27 28  1  0
 27 29  2  0
 27 30  2  0
 26 31  2  0
 21  3  1  0
 31 22  1  0
 18  8  1  0
 17 11  1  0
  1 32  1  0
  1 33  1  0
  1 34  1  0
  4 35  1  0
  9 36  1  0
  9 37  1  0
 10 38  1  0
 10 39  1  0
 12 40  1  0
 13 41  1  0
 15 42  1  0
 15 43  1  0
 16 44  1  0
 18 45  1  0
 18 46  1  0
 19 47  1  0
 20 48  1  0
 23 49  1  0
 24 50  1  0
 25 51  1  0
 28 52  1  0
 31 53  1  0
M  CHG  1  28  -1
M  END
>  <UniqueID>  (18) 
18

>  <SMILES>  (18) 
COc1cc(C(=O)N2CCc3ccc(N)cc3C2)ccc1-c1cccc(S([NH-])(=O)=O)c1

>  <Energy>  (18) 
69.13587058594987

>  <Genealogy>  (18) 
COc1cc(C(=O)N2CCc3ccc(N)cc3C2)ccc1-c1cccc(S([NH-])(=O)=O)c1 (protonated)
COc1cc(C(=O)N2CCc3ccc(N)cc3C2)ccc1-c1cccc(S([NH-])(=O)=O)c1 (3D coordinates assigned)
COc1cc(C(=O)N2CCc3ccc(N)cc3C2)ccc1-c1cccc(S([NH-])(=O)=O)c1 (nonaromatic ring conformer: 69.13587058594987 kcal/mol)

>  <smiles>  (18) 
COc1cc(C(=O)N2CCc3ccc(N)cc3C2)ccc1-c1cccc(S(N)(=O)=O)c1

>  <score_type>  (18) 
oracle

>  <origin>  (18) 
adg

>  <m_score__min__energy>  (18) 
-12.539999999999999

>  <m_primary>  (18) 
energy

$$$$
18:0
     RDKit          3D

 44 46  0  0  0  0  0  0  0  0999 V2000
   57.4140   25.2360   44.6930 C   0  0  0  0  0  0  0  0  0  0  0  0
   56.4780   25.9320   46.0370 S   0  0  0  0  0  0  0  0  0  0  0  0
   57.3260   26.0230   47.2740 O   0  0  0  0  0  0  0  0  0  0  0  0
   55.3050   25.0360   46.3210 O   0  0  0  0  0  0  0  0  0  0  0  0
   55.8870   27.5030   45.6020 N   0  0  0  0  0  0  0  0  0  0  0  0
   56.6960   28.6550   45.3210 C   0  0  0  0  0  0  0  0  0  0  0  0
   56.2520   29.7000   44.4930 C   0  0  0  0  0  0  0  0  0  0  0  0
   57.0680   30.8120   44.2680 C   0  0  0  0  0  0  0  0  0  0  0  0
   58.3340   30.8860   44.8550 C   0  0  0  0  0  0  0  0  0  0  0  0
   58.8000   29.8390   45.6660 C   0  0  0  0  0  0  0  0  0  0  0  0
   60.1330   29.9250   46.2970 C   0  0  0  0  0  0  0  0  0  0  0  0
   61.1510   29.6050   45.6270 O   0  0  0  0  0  0  0  0  0  0  0  0
   60.2810   30.3430   47.6650 N   0  0  0  0  0  0  0  0  0  0  0  0
   59.6320   29.7040   48.8020 C   0  0  0  0  0  0  0  0  0  0  0  0
   60.3410   30.3100   50.0230 C   0  0  0  0  0  0  0  0  0  0  0  0
   61.3280   31.2290   49.4730 N   0  0  0  0  0  0  0  0  0  0  0  0
   61.2860   31.1990   48.1870 C   0  0  0  0  0  0  0  0  0  0  0  0
   62.3520   32.2390   47.1830 S   0  0  0  0  0  0  0  0  0  0  0  0
   61.4940   33.8000   47.5950 C   0  0  0  0  0  0  0  0  0  0  0  0
   60.1290   33.8450   46.9590 C   0  0  0  0  0  0  0  0  0  0  0  0
   60.0000   34.2480   45.6200 C   0  0  0  0  0  0  0  0  0  0  0  0
   58.7430   34.2760   45.0090 C   0  0  0  0  0  0  0  0  0  0  0  0
   57.6050   33.9060   45.7290 C   0  0  0  0  0  0  0  0  0  0  0  0
   57.7230   33.5020   47.0610 C   0  0  0  0  0  0  0  0  0  0  0  0
   58.9790   33.4690   47.6790 C   0  0  0  0  0  0  0  0  0  0  0  0
   59.0690   33.0640   48.9720 F   0  0  0  0  0  0  0  0  0  0  0  0
   57.9660   28.7340   45.9050 C   0  0  0  0  0  0  0  0  0  0  0  0
   58.2354   24.6252   45.0958 H   0  0  0  0  0  0  0  0  0  0  0  0
   56.7567   24.6055   44.0762 H   0  0  0  0  0  0  0  0  0  0  0  0
   57.8285   26.0470   44.0762 H   0  0  0  0  0  0  0  0  0  0  0  0
   55.2601   29.6426   44.0210 H   0  0  0  0  0  0  0  0  0  0  0  0
   56.7125   31.6319   43.6266 H   0  0  0  0  0  0  0  0  0  0  0  0
   58.9679   31.7680   44.6810 H   0  0  0  0  0  0  0  0  0  0  0  0
   58.5568   29.9354   48.8194 H   0  0  0  0  0  0  0  0  0  0  0  0
   59.7062   28.6070   48.7704 H   0  0  0  0  0  0  0  0  0  0  0  0
   59.6228   30.8496   50.6578 H   0  0  0  0  0  0  0  0  0  0  0  0
   60.8045   29.5381   50.6548 H   0  0  0  0  0  0  0  0  0  0  0  0
   61.3855   33.8743   48.6871 H   0  0  0  0  0  0  0  0  0  0  0  0
   62.0895   34.6413   47.2109 H   0  0  0  0  0  0  0  0  0  0  0  0
   60.8926   34.5432   45.0490 H   0  0  0  0  0  0  0  0  0  0  0  0
   58.6500   34.5901   43.9589 H   0  0  0  0  0  0  0  0  0  0  0  0
   56.6163   33.9327   45.2475 H   0  0  0  0  0  0  0  0  0  0  0  0
   56.8261   33.2088   47.6263 H   0  0  0  0  0  0  0  0  0  0  0  0
   58.3150   27.9211   46.5588 H   0  0  0  0  0  0  0  0  0  0  0  0
  1  2  1  0
  2  3  2  0
  2  4  2  0
  2  5  1  0
  5  6  1  0
  6  7  2  0
  7  8  1  0
  8  9  2  0
  9 10  1  0
 10 11  1  0
 11 12  2  0
 11 13  1  0
 13 14  1  0
 14 15  1  0
 15 16  1  0
 16 17  2  0
 17 18  1  0
 18 19  1  0
 19 20  1  0
 20 21  2  0
 21 22  1  0
 22 23  2  0
 23 24  1  0
 24 25  2  0
 25 26  1  0
 10 27  2  0
 27  6  1  0
 17 13  1  0
 25 20  1  0
  1 28  1  0
  1 29  1  0
  1 30  1  0
  7 31  1  0
  8 32  1  0
  9 33  1  0
 14 34  1  0
 14 35  1  0
 15 36  1  0
 15 37  1  0
 19 38  1  0
 19 39  1  0
 21 40  1  0
 22 41  1  0
 23 42  1  0
 24 43  1  0
 27 44  1  0
M  CHG  1   5  -1
M  END
>  <UniqueID>  (19) 
19

>  <SMILES>  (19) 
CS(=O)(=O)[N-]c1cccc(C(=O)N2CCN=C2SCc2ccccc2F)c1

>  <Energy>  (19) 
58.40960950979668

>  <Genealogy>  (19) 
CS(=O)(=O)[N-]c1cccc(C(=O)N2CCN=C2SCc2ccccc2F)c1 (protonated)
CS(=O)(=O)[N-]c1cccc(C(=O)N2CCN=C2SCc2ccccc2F)c1 (3D coordinates assigned)
CS(=O)(=O)[N-]c1cccc(C(=O)N2CCN=C2SCc2ccccc2F)c1 (nonaromatic ring conformer: 58.40960950979668 kcal/mol)

>  <smiles>  (19) 
CS(=O)(=O)Nc1cccc(C(=O)N2CCN=C2SCc2ccccc2F)c1

>  <score_type>  (19) 
oracle

>  <origin>  (19) 
adg

>  <m_score__min__energy>  (19) 
-10.84

>  <m_primary>  (19) 
energy

$$$$
19:0
     RDKit          3D

 42 44  0  0  0  0  0  0  0  0999 V2000
   62.7070   32.1210   47.3650 C   0  0  0  0  0  0  0  0  0  0  0  0
   61.7450   31.4990   48.7780 S   0  0  0  0  0  0  0  0  0  0  0  0
   60.7650   30.3810   47.7740 C   0  0  0  0  0  0  0  0  0  0  0  0
   61.0610   30.2140   46.4170 C   0  0  0  0  0  0  0  0  0  0  0  0
   60.2990   29.3400   45.6340 C   0  0  0  0  0  0  0  0  0  0  0  0
   59.2390   28.6190   46.2070 C   0  0  0  0  0  0  0  0  0  0  0  0
   58.3900   27.7120   45.3620 C   0  0  0  0  0  0  0  0  0  0  0  0
   56.9870   28.0790   45.5090 N   0  0  0  0  0  0  0  0  0  0  0  0
   56.3960   29.2130   44.8680 C   0  0  0  0  0  0  0  0  0  0  0  0
   55.1430   29.3540   44.8530 O   0  0  0  0  0  0  0  0  0  0  0  0
   57.2810   30.2690   44.2730 C   0  0  0  0  0  0  0  0  0  0  0  0
   56.7140   31.6830   44.4490 C   0  0  0  0  0  0  0  0  0  0  0  0
   57.7940   32.6950   44.7170 C   0  0  0  0  0  0  0  0  0  0  0  0
   58.4690   33.4580   43.7680 C   0  0  0  0  0  0  0  0  0  0  0  0
   59.3840   34.2530   44.3650 N   0  0  0  0  0  0  0  0  0  0  0  0
   59.2920   34.0050   45.6820 C   0  0  0  0  0  0  0  0  0  0  0  0
   60.0520   34.5730   46.7040 C   0  0  0  0  0  0  0  0  0  0  0  0
   59.7870   34.1670   48.0250 C   0  0  0  0  0  0  0  0  0  0  0  0
   58.7850   33.2090   48.2910 C   0  0  0  0  0  0  0  0  0  0  0  0
   58.0430   32.6420   47.2390 C   0  0  0  0  0  0  0  0  0  0  0  0
   58.3260   33.0660   45.9390 C   0  0  0  0  0  0  0  0  0  0  0  0
   58.9410   28.7980   47.5680 C   0  0  0  0  0  0  0  0  0  0  0  0
   59.7070   29.6670   48.3490 C   0  0  0  0  0  0  0  0  0  0  0  0
   63.5774   32.6838   47.7333 H   0  0  0  0  0  0  0  0  0  0  0  0
   63.0503   31.2734   46.7536 H   0  0  0  0  0  0  0  0  0  0  0  0
   62.0750   32.7819   46.7536 H   0  0  0  0  0  0  0  0  0  0  0  0
   61.8947   30.7710   45.9646 H   0  0  0  0  0  0  0  0  0  0  0  0
   60.5311   29.2172   44.5658 H   0  0  0  0  0  0  0  0  0  0  0  0
   58.6859   27.8112   44.3072 H   0  0  0  0  0  0  0  0  0  0  0  0
   58.5315   26.6708   45.6875 H   0  0  0  0  0  0  0  0  0  0  0  0
   58.2649   30.2207   44.7626 H   0  0  0  0  0  0  0  0  0  0  0  0
   57.3544   30.0720   43.1933 H   0  0  0  0  0  0  0  0  0  0  0  0
   56.1803   31.9683   43.5304 H   0  0  0  0  0  0  0  0  0  0  0  0
   56.0370   31.6716   45.3159 H   0  0  0  0  0  0  0  0  0  0  0  0
   58.2835   33.4191   42.6845 H   0  0  0  0  0  0  0  0  0  0  0  0
   60.0340   34.9200   43.8920 H   0  0  0  0  0  0  0  0  0  0  0  0
   60.8339   35.3149   46.4845 H   0  0  0  0  0  0  0  0  0  0  0  0
   60.3644   34.5989   48.8557 H   0  0  0  0  0  0  0  0  0  0  0  0
   58.5830   32.9037   49.3283 H   0  0  0  0  0  0  0  0  0  0  0  0
   57.2651   31.8891   47.4341 H   0  0  0  0  0  0  0  0  0  0  0  0
   58.1007   28.2515   48.0209 H   0  0  0  0  0  0  0  0  0  0  0  0
   59.4783   29.7904   49.4179 H   0  0  0  0  0  0  0  0  0  0  0  0
  1  2  1  0
  2  3  1  0
  3  4  2  0
  4  5  1  0
  5  6  2  0
  6  7  1  0
  7  8  1  0
  8  9  1  0
  9 10  2  0
  9 11  1  0
 11 12  1  0
 12 13  1  0
 13 14  2  0
 14 15  1  0
 15 16  1  0
 16 17  2  0
 17 18  1  0
 18 19  2  0
 19 20  1  0
 20 21  2  0
  6 22  1  0
 22 23  2  0
 23  3  1  0
 21 13  1  0
 21 16  1  0
  1 24  1  0
  1 25  1  0
  1 26  1  0
  4 27  1  0
  5 28  1  0
  7 29  1  0
  7 30  1  0
 11 31  1  0
 11 32  1  0
 12 33  1  0
 12 34  1  0
 14 35  1  0
 15 36  1  0
 17 37  1  0
 18 38  1  0
 19 39  1  0
 20 40  1  0
 22 41  1  0
 23 42  1  0
M  CHG  1   8  -1
M  END
>  <UniqueID>  (20) 
20

>  <SMILES>  (20) 
CSc1ccc(C[N-]C(=O)CCc2c[nH]c3ccccc23)cc1

>  <Energy>  (20) 
63.21514524992204

>  <Genealogy>  (20) 
CSc1ccc(C[N-]C(=O)CCc2c[nH]c3ccccc23)cc1 (protonated)
CSc1ccc(C[N-]C(=O)CCc2c[nH]c3ccccc23)cc1 (3D coordinates assigned)
CSc1ccc(C[N-]C(=O)CCc2c[nH]c3ccccc23)cc1 (optimized conformer: 63.21514524992204 kcal/mol)

>  <smiles>  (20) 
CSc1ccc(CNC(=O)CCc2c[nH]c3ccccc23)cc1

>  <score_type>  (20) 
oracle

>  <origin>  (20) 
adg

>  <m_score__min__energy>  (20) 
-9.3200000000000003

>  <m_primary>  (20) 
energy

$$$$
20:0
     RDKit          3D

 29 30  0  0  0  0  0  0  0  0999 V2000
   57.4740   31.6460   53.1090 C   0  0  0  0  0  0  0  0  0  0  0  0
   56.7430   30.4040   52.0640 S   0  0  0  0  0  0  0  0  0  0  0  0
   55.6230   30.9920   51.2520 O   0  0  0  0  0  0  0  0  0  0  0  0
   57.7980   29.8880   51.1270 O   0  0  0  0  0  0  0  0  0  0  0  0
   56.1530   29.0830   53.0240 N   0  0  0  0  0  0  0  0  0  0  0  0
   54.8810   29.0690   53.6990 C   0  0  0  0  0  0  0  0  0  0  0  0
   54.5540   28.0920   54.6580 C   0  0  0  0  0  0  0  0  0  0  0  0
   53.3080   28.1090   55.2880 C   0  0  0  0  0  0  0  0  0  0  0  0
   52.3770   29.1020   54.9780 C   0  0  0  0  0  0  0  0  0  0  0  0
   52.6910   30.0960   54.0400 C   0  0  0  0  0  0  0  0  0  0  0  0
   51.6740   31.1440   53.6780 C   0  0  0  0  0  0  0  0  0  0  0  0
   51.4570   31.1620   52.1960 C   0  0  0  0  0  0  0  0  0  0  0  0
   51.8240   29.8960   51.1470 S   0  0  0  0  0  0  0  0  0  0  0  0
   51.3800   30.7840   49.7910 C   0  0  0  0  0  0  0  0  0  0  0  0
   51.4280   30.3470   48.6120 O   0  0  0  0  0  0  0  0  0  0  0  0
   50.9680   32.0310   50.0970 N   0  0  0  0  0  0  0  0  0  0  0  0
   51.0170   32.2450   51.4380 C   0  0  0  0  0  0  0  0  0  0  0  0
   50.6540   33.4640   51.9960 O   0  0  0  0  0  0  0  0  0  0  0  0
   53.9400   30.0690   53.4000 C   0  0  0  0  0  0  0  0  0  0  0  0
   57.3158   31.3771   54.1638 H   0  0  0  0  0  0  0  0  0  0  0  0
   58.5530   31.7086   52.9044 H   0  0  0  0  0  0  0  0  0  0  0  0
   57.0049   32.6197   52.9044 H   0  0  0  0  0  0  0  0  0  0  0  0
   56.8080   28.2820   53.1670 H   0  0  0  0  0  0  0  0  0  0  0  0
   55.2846   27.3102   54.9128 H   0  0  0  0  0  0  0  0  0  0  0  0
   53.0591   27.3372   56.0312 H   0  0  0  0  0  0  0  0  0  0  0  0
   51.3938   29.1047   55.4712 H   0  0  0  0  0  0  0  0  0  0  0  0
   50.7229   30.9172   54.1820 H   0  0  0  0  0  0  0  0  0  0  0  0
   52.0429   32.1292   53.9994 H   0  0  0  0  0  0  0  0  0  0  0  0
   54.1853   30.8403   52.6551 H   0  0  0  0  0  0  0  0  0  0  0  0
  1  2  1  0
  2  3  2  0
  2  4  2  0
  2  5  1  0
  5  6  1  0
  6  7  2  0
  7  8  1  0
  8  9  2  0
  9 10  1  0
 10 11  1  0
 11 12  1  0
 12 13  1  0
 13 14  1  0
 14 15  2  0
 14 16  1  0
 16 17  1  0
 17 18  1  0
 10 19  2  0
 19  6  1  0
 17 12  2  0
  1 20  1  0
  1 21  1  0
  1 22  1  0
  5 23  1  0
  7 24  1  0
  8 25  1  0
  9 26  1  0
 11 27  1  0
 11 28  1  0
 19 29  1  0
M  CHG  2  16  -1  18  -1
M  END
>  <UniqueID>  (21) 
21

>  <SMILES>  (21) 
CS(=O)(=O)Nc1cccc(Cc2sc(=O)[n-]c2[O-])c1

>  <Energy>  (21) 
57.12455910607919

>  <Genealogy>  (21) 
CS(=O)(=O)Nc1cccc(Cc2sc(=O)[n-]c2[O-])c1 (protonated)
CS(=O)(=O)Nc1cccc(Cc2sc(=O)[n-]c2[O-])c1 (3D coordinates assigned)
CS(=O)(=O)Nc1cccc(Cc2sc(=O)[n-]c2[O-])c1 (optimized conformer: 57.12455910607919 kcal/mol)

>  <smiles>  (21) 
CS(=O)(=O)Nc1cccc(Cc2sc(=O)[nH]c2O)c1

>  <score_type>  (21) 
oracle

>  <origin>  (21) 
adg

>  <m_score__min__energy>  (21) 
-13.880000000000001

>  <m_primary>  (21) 
energy

$$$$
21:0
     RDKit          3D

 36 38  0  0  0  0  0  0  0  0999 V2000
   56.1350   24.6150   46.1600 H   0  0  0  0  0  0  0  0  0  0  0  0
   55.9220   25.5640   46.4450 O   0  0  0  0  0  0  0  0  0  0  0  0
   56.5850   26.6470   45.8740 C   0  0  0  0  0  0  0  0  0  0  0  0
   55.8970   27.7940   45.6240 N   0  0  0  0  0  0  0  0  0  0  0  0
   56.4800   28.8830   45.0590 C   0  0  0  0  0  0  0  0  0  0  0  0
   55.7920   29.9170   44.8530 O   0  0  0  0  0  0  0  0  0  0  0  0
   57.8360   28.8470   44.7020 C   0  0  0  0  0  0  0  0  0  0  0  0
   58.4710   30.0040   44.1260 N   0  0  0  0  0  0  0  0  0  0  0  0
   58.9510   29.9050   43.2040 H   0  0  0  0  0  0  0  0  0  0  0  0
   58.3910   31.3160   44.7080 C   0  0  0  0  0  0  0  0  0  0  0  0
   58.7540   31.5020   46.0490 C   0  0  0  0  0  0  0  0  0  0  0  0
   59.0859   30.6431   46.6508 H   0  0  0  0  0  0  0  0  0  0  0  0
   58.6960   32.7750   46.6250 C   0  0  0  0  0  0  0  0  0  0  0  0
   58.9911   32.9169   47.6751 H   0  0  0  0  0  0  0  0  0  0  0  0
   58.2630   33.8680   45.8670 C   0  0  0  0  0  0  0  0  0  0  0  0
   58.2303   34.8712   46.3170 H   0  0  0  0  0  0  0  0  0  0  0  0
   57.8720   33.6850   44.5380 C   0  0  0  0  0  0  0  0  0  0  0  0
   57.5226   34.5434   43.9454 H   0  0  0  0  0  0  0  0  0  0  0  0
   57.9240   32.4130   43.9600 C   0  0  0  0  0  0  0  0  0  0  0  0
   57.4810   32.2420   42.6900 F   0  0  0  0  0  0  0  0  0  0  0  0
   58.5690   27.6800   44.9660 C   0  0  0  0  0  0  0  0  0  0  0  0
   59.6390   27.6413   44.7137 H   0  0  0  0  0  0  0  0  0  0  0  0
   57.9530   26.5620   45.5480 C   0  0  0  0  0  0  0  0  0  0  0  0
   58.7530   25.3490   45.8630 C   0  0  0  0  0  0  0  0  0  0  0  0
   60.0040   25.4430   45.9810 O   0  0  0  0  0  0  0  0  0  0  0  0
   58.1530   24.0470   45.9430 N   0  0  0  0  0  0  0  0  0  0  0  0
   57.7020   23.3570   44.9370 C   0  0  0  0  0  0  0  0  0  0  0  0
   56.5510   23.7130   44.2970 N   0  0  0  0  0  0  0  0  0  0  0  0
   56.0540   22.9920   43.2560 C   0  0  0  0  0  0  0  0  0  0  0  0
   55.1215   23.3065   42.7646 H   0  0  0  0  0  0  0  0  0  0  0  0
   56.7280   21.8520   42.8110 C   0  0  0  0  0  0  0  0  0  0  0  0
   56.3361   21.2689   41.9646 H   0  0  0  0  0  0  0  0  0  0  0  0
   57.9030   21.4620   43.4520 C   0  0  0  0  0  0  0  0  0  0  0  0
   58.4444   20.5668   43.1122 H   0  0  0  0  0  0  0  0  0  0  0  0
   58.3920   22.2090   44.5260 C   0  0  0  0  0  0  0  0  0  0  0  0
   59.3110   21.8987   45.0448 H   0  0  0  0  0  0  0  0  0  0  0  0
  1  2  1  0
  2  3  1  0
  3  4  1  0
  4  5  1  0
  5  6  2  0
  5  7  1  0
  7  8  1  0
  8  9  1  0
  8 10  1  0
 10 11  2  0
 11 12  1  0
 11 13  1  0
 13 14  1  0
 13 15  2  0
 15 16  1  0
 15 17  1  0
 17 18  1  0
 17 19  2  0
 19 20  1  0
  7 21  2  0
 21 22  1  0
 21 23  1  0
 23 24  1  0
 24 25  2  0
 24 26  1  0
 26 27  2  0
 27 28  1  0
 28 29  1  0
 29 30  1  0
 29 31  2  0
 31 32  1  0
 31 33  1  0
 33 34  1  0
 33 35  2  0
 35 36  1  0
 23  3  2  0
 35 27  1  0
 19 10  1  0
M  CHG  2   4  -1  28  -1
M  END
>  <UniqueID>  (22) 
22

>  <SMILES>  (22) 
O=C(/N=c1/cccc[n-]1)c1cc(Nc2ccccc2F)c(=O)[n-]c1O

>  <Energy>  (22) 
54.10064670139668

>  <Genealogy>  (22) 
O=C(N=c1cccc[n-]1)c1cc(Nc2ccccc2F)c(=O)[n-]c1O (protonated)
O=C(/N=c1/cccc[n-]1)c1cc(Nc2ccccc2F)c(=O)[n-]c1O (cis-trans isomerization)
O=C(/N=c1/cccc[n-]1)c1cc(Nc2ccccc2F)c(=O)[n-]c1O (3D coordinates assigned)
O=C(/N=c1/cccc[n-]1)c1cc(Nc2ccccc2F)c(=O)[n-]c1O (optimized conformer: 54.10064670139668 kcal/mol)

>  <smiles>  (22) 
O=C(N=c1cccc[nH]1)c1cc(Nc2ccccc2F)c(=O)[nH]c1O

>  <score_type>  (22) 
oracle

>  <origin>  (22) 
adg

>  <m_score__min__energy>  (22) 
-11.779999999999999

>  <m_primary>  (22) 
energy

$$$$
22:0
     RDKit          3D

 50 52  0  0  0  0  0  0  0  0999 V2000
   58.9170   32.0670   49.7100 C   0  0  0  0  0  0  0  0  0  0  0  0
   59.6910   33.5720   50.2620 S   0  0  0  0  0  0  0  0  0  0  0  0
   58.9710   34.0620   51.4860 O   0  0  0  0  0  0  0  0  0  0  0  0
   59.6080   34.6290   49.1960 O   0  0  0  0  0  0  0  0  0  0  0  0
   61.3480   33.2720   50.6760 N   0  0  0  0  0  0  0  0  0  0  0  0
   61.9140   32.0050   51.0460 C   0  0  0  0  0  0  0  0  0  0  0  0
   61.2180   31.1020   51.8740 C   0  0  0  0  0  0  0  0  0  0  0  0
   61.7970   29.8840   52.2360 C   0  0  0  0  0  0  0  0  0  0  0  0
   63.0730   29.5530   51.7840 C   0  0  0  0  0  0  0  0  0  0  0  0
   63.7730   30.4360   50.9600 C   0  0  0  0  0  0  0  0  0  0  0  0
   63.1980   31.6570   50.5750 C   0  0  0  0  0  0  0  0  0  0  0  0
   64.1100   32.7510   49.5260 S   0  0  0  0  0  0  0  0  0  0  0  0
   63.8220   34.1850   49.8730 O   0  0  0  0  0  0  0  0  0  0  0  0
   65.5780   32.4880   49.7160 O   0  0  0  0  0  0  0  0  0  0  0  0
   63.7030   32.4850   47.8580 N   0  0  0  0  0  0  0  0  0  0  0  0
   62.3710   32.6030   47.3230 C   0  0  0  0  0  0  0  0  0  0  0  0
   61.8230   33.8460   46.9530 C   0  0  0  0  0  0  0  0  0  0  0  0
   60.5270   33.9200   46.4420 C   0  0  0  0  0  0  0  0  0  0  0  0
   59.7600   32.7630   46.2930 C   0  0  0  0  0  0  0  0  0  0  0  0
   60.2850   31.5120   46.6580 C   0  0  0  0  0  0  0  0  0  0  0  0
   59.4690   30.2790   46.5070 C   0  0  0  0  0  0  0  0  0  0  0  0
   59.7480   29.1450   47.2810 C   0  0  0  0  0  0  0  0  0  0  0  0
   58.9850   27.9870   47.1390 C   0  0  0  0  0  0  0  0  0  0  0  0
   57.9210   27.9310   46.2260 C   0  0  0  0  0  0  0  0  0  0  0  0
   57.0650   26.3890   46.0380 S   0  0  0  0  0  0  0  0  0  0  0  0
   55.3570   26.6600   45.9880 N   0  0  0  0  0  0  0  0  0  0  0  0
   57.4030   25.4780   47.1850 O   0  0  0  0  0  0  0  0  0  0  0  0
   57.4720   25.7230   44.7530 O   0  0  0  0  0  0  0  0  0  0  0  0
   57.6090   29.0820   45.4540 C   0  0  0  0  0  0  0  0  0  0  0  0
   56.4770   29.1360   44.4990 C   0  0  0  0  0  0  0  0  0  0  0  0
   56.6660   29.0170   43.2600 O   0  0  0  0  0  0  0  0  0  0  0  0
   55.1760   29.2600   44.9700 O   0  0  0  0  0  0  0  0  0  0  0  0
   58.4010   30.2360   45.5960 C   0  0  0  0  0  0  0  0  0  0  0  0
   61.5930   31.4440   47.1700 C   0  0  0  0  0  0  0  0  0  0  0  0
   58.6105   31.4710   50.5823 H   0  0  0  0  0  0  0  0  0  0  0  0
   58.0324   32.3108   49.1033 H   0  0  0  0  0  0  0  0  0  0  0  0
   59.6298   31.4892   49.1033 H   0  0  0  0  0  0  0  0  0  0  0  0
   60.2119   31.3582   52.2376 H   0  0  0  0  0  0  0  0  0  0  0  0
   61.2444   29.1838   52.8797 H   0  0  0  0  0  0  0  0  0  0  0  0
   63.5288   28.5956   52.0766 H   0  0  0  0  0  0  0  0  0  0  0  0
   64.7821   30.1730   50.6101 H   0  0  0  0  0  0  0  0  0  0  0  0
   64.4840   32.2130   47.2210 H   0  0  0  0  0  0  0  0  0  0  0  0
   62.4195   34.7631   47.0674 H   0  0  0  0  0  0  0  0  0  0  0  0
   60.1071   34.8953   46.1549 H   0  0  0  0  0  0  0  0  0  0  0  0
   58.7396   32.8312   45.8878 H   0  0  0  0  0  0  0  0  0  0  0  0
   60.5750   29.1686   48.0059 H   0  0  0  0  0  0  0  0  0  0  0  0
   59.2205   27.1043   47.7516 H   0  0  0  0  0  0  0  0  0  0  0  0
   55.1450   27.0940   45.0630 H   0  0  0  0  0  0  0  0  0  0  0  0
   58.1796   31.1214   44.9819 H   0  0  0  0  0  0  0  0  0  0  0  0
   62.0131   30.4681   47.4550 H   0  0  0  0  0  0  0  0  0  0  0  0
  1  2  1  0
  2  3  2  0
  2  4  2  0
  2  5  1  0
  5  6  1  0
  6  7  2  0
  7  8  1  0
  8  9  2  0
  9 10  1  0
 10 11  2  0
 11 12  1  0
 12 13  2  0
 12 14  2  0
 12 15  1  0
 15 16  1  0
 16 17  2  0
 17 18  1  0
 18 19  2  0
 19 20  1  0
 20 21  1  0
 21 22  2  0
 22 23  1  0
 23 24  2  0
 24 25  1  0
 25 26  1  0
 25 27  2  0
 25 28  2  0
 24 29  1  0
 29 30  1  0
 30 31  2  0
 30 32  1  0
 29 33  2  0
 20 34  2  0
 11  6  1  0
 34 16  1  0
 33 21  1  0
  1 35  1  0
  1 36  1  0
  1 37  1  0
  7 38  1  0
  8 39  1  0
  9 40  1  0
 10 41  1  0
 15 42  1  0
 17 43  1  0
 18 44  1  0
 19 45  1  0
 22 46  1  0
 23 47  1  0
 26 48  1  0
 33 49  1  0
 34 50  1  0
M  CHG  3   5  -1  26  -1  32  -1
M  END
>  <UniqueID>  (23) 
23

>  <SMILES>  (23) 
CS(=O)(=O)[N-]c1ccccc1S(=O)(=O)Nc1cccc(-c2ccc(S([NH-])(=O)=O)c(C(=O)[O-])c2)c1

>  <Energy>  (23) 
67.11623919343945

>  <Genealogy>  (23) 
CS(=O)(=O)[N-]c1ccccc1S(=O)(=O)Nc1cccc(-c2ccc(S([NH-])(=O)=O)c(C(=O)[O-])c2)c1 (protonated)
CS(=O)(=O)[N-]c1ccccc1S(=O)(=O)Nc1cccc(-c2ccc(S([NH-])(=O)=O)c(C(=O)[O-])c2)c1 (3D coordinates assigned)
CS(=O)(=O)[N-]c1ccccc1S(=O)(=O)Nc1cccc(-c2ccc(S([NH-])(=O)=O)c(C(=O)[O-])c2)c1 (optimized conformer: 67.11623919343945 kcal/mol)

>  <smiles>  (23) 
CS(=O)(=O)Nc1ccccc1S(=O)(=O)Nc1cccc(-c2ccc(S(N)(=O)=O)c(C(=O)O)c2)c1

>  <score_type>  (23) 
oracle

>  <origin>  (23) 
adg

>  <m_score__min__energy>  (23) 
-15.210000000000001

>  <m_primary>  (23) 
energy

$$$$
23:0
     RDKit          3D

 60 64  0  0  0  0  0  0  0  0999 V2000
   60.4400   29.8080   50.7940 O   0  0  0  0  0  0  0  0  0  0  0  0
   59.2200   29.6760   50.5070 C   0  0  0  0  0  0  0  0  0  0  0  0
   58.8850   28.9670   49.3080 N   0  0  0  0  0  0  0  0  0  0  0  0
   59.4780   29.1500   47.9840 C   0  0  0  0  0  0  0  0  0  0  0  0
   59.1550   27.9800   47.0430 C   0  0  0  0  0  0  0  0  0  0  0  0
   57.9470   28.2360   46.1860 C   0  0  0  0  0  0  0  0  0  0  0  0
   56.8030   27.4530   46.0950 C   0  0  0  0  0  0  0  0  0  0  0  0
   56.5930   26.2760   46.8030 O   0  0  0  0  0  0  0  0  0  0  0  0
   55.8870   27.9730   45.2470 N   0  0  0  0  0  0  0  0  0  0  0  0
   56.4610   29.1080   44.8050 C   0  0  0  0  0  0  0  0  0  0  0  0
   55.9010   30.0290   43.9250 C   0  0  0  0  0  0  0  0  0  0  0  0
   56.6300   31.1960   43.6360 C   0  0  0  0  0  0  0  0  0  0  0  0
   57.8890   31.4270   44.2370 C   0  0  0  0  0  0  0  0  0  0  0  0
   58.5300   32.6880   44.0250 N   0  0  0  0  0  0  0  0  0  0  0  0
   58.3220   34.0690   45.0560 S   0  0  0  0  0  0  0  0  0  0  0  0
   59.1230   35.2180   44.5110 O   0  0  0  0  0  0  0  0  0  0  0  0
   56.8670   34.4460   45.0810 O   0  0  0  0  0  0  0  0  0  0  0  0
   58.8320   33.6820   46.6990 C   0  0  0  0  0  0  0  0  0  0  0  0
   58.0430   32.8470   47.5050 C   0  0  0  0  0  0  0  0  0  0  0  0
   58.4640   32.5070   48.7990 C   0  0  0  0  0  0  0  0  0  0  0  0
   59.6690   33.0090   49.2960 C   0  0  0  0  0  0  0  0  0  0  0  0
   60.4500   33.8570   48.5060 C   0  0  0  0  0  0  0  0  0  0  0  0
   60.0350   34.1940   47.2090 C   0  0  0  0  0  0  0  0  0  0  0  0
   58.4530   30.4490   45.0860 C   0  0  0  0  0  0  0  0  0  0  0  0
   57.7020   29.3070   45.3560 C   0  0  0  0  0  0  0  0  0  0  0  0
   58.2020   30.2600   51.4090 C   0  0  0  0  0  0  0  0  0  0  0  0
   58.3900   31.5400   51.9600 C   0  0  0  0  0  0  0  0  0  0  0  0
   57.3880   32.1020   52.7500 C   0  0  0  0  0  0  0  0  0  0  0  0
   56.2110   31.3900   52.9910 C   0  0  0  0  0  0  0  0  0  0  0  0
   56.0530   30.1130   52.4370 C   0  0  0  0  0  0  0  0  0  0  0  0
   54.7790   29.3460   52.6360 C   0  0  0  0  0  0  0  0  0  0  0  0
   53.5890   30.2340   52.3930 C   0  0  0  0  0  0  0  0  0  0  0  0
   52.6780   30.4990   53.4310 C   0  0  0  0  0  0  0  0  0  0  0  0
   51.5480   31.2860   53.1940 C   0  0  0  0  0  0  0  0  0  0  0  0
   51.3230   31.8200   51.9240 C   0  0  0  0  0  0  0  0  0  0  0  0
   52.2230   31.5630   50.8840 C   0  0  0  0  0  0  0  0  0  0  0  0
   53.3490   30.7640   51.1150 C   0  0  0  0  0  0  0  0  0  0  0  0
   57.0390   29.5950   51.6560 N   0  0  0  0  0  0  0  0  0  0  0  0
   59.0853   30.0786   47.5441 H   0  0  0  0  0  0  0  0  0  0  0  0
   60.5703   29.1981   48.1043 H   0  0  0  0  0  0  0  0  0  0  0  0
   60.0209   27.8078   46.3868 H   0  0  0  0  0  0  0  0  0  0  0  0
   58.9358   27.1028   47.6695 H   0  0  0  0  0  0  0  0  0  0  0  0
   54.9164   29.8492   43.4686 H   0  0  0  0  0  0  0  0  0  0  0  0
   56.2169   31.9367   42.9355 H   0  0  0  0  0  0  0  0  0  0  0  0
   57.0893   32.4571   47.1199 H   0  0  0  0  0  0  0  0  0  0  0  0
   57.8452   31.8450   49.4225 H   0  0  0  0  0  0  0  0  0  0  0  0
   60.0029   32.7371   50.3082 H   0  0  0  0  0  0  0  0  0  0  0  0
   61.3930   34.2614   48.9024 H   0  0  0  0  0  0  0  0  0  0  0  0
   60.6537   34.8609   46.5906 H   0  0  0  0  0  0  0  0  0  0  0  0
   59.4543   30.5849   45.5206 H   0  0  0  0  0  0  0  0  0  0  0  0
   59.3210   32.0940   51.7691 H   0  0  0  0  0  0  0  0  0  0  0  0
   57.5243   33.1042   53.1826 H   0  0  0  0  0  0  0  0  0  0  0  0
   55.4147   31.8282   53.6106 H   0  0  0  0  0  0  0  0  0  0  0  0
   54.7507   28.5013   51.9320 H   0  0  0  0  0  0  0  0  0  0  0  0
   54.7430   28.9764   53.6714 H   0  0  0  0  0  0  0  0  0  0  0  0
   52.8558   30.0847   54.4344 H   0  0  0  0  0  0  0  0  0  0  0  0
   50.8356   31.4848   54.0083 H   0  0  0  0  0  0  0  0  0  0  0  0
   50.4361   32.4443   51.7405 H   0  0  0  0  0  0  0  0  0  0  0  0
   52.0458   31.9886   49.8853 H   0  0  0  0  0  0  0  0  0  0  0  0
   54.0480   30.5507   50.2928 H   0  0  0  0  0  0  0  0  0  0  0  0
  1  2  2  0
  2  3  1  0
  3  4  1  0
  4  5  1  0
  5  6  1  0
  6  7  2  0
  7  8  1  0
  7  9  1  0
  9 10  1  0
 10 11  2  0
 11 12  1  0
 12 13  2  0
 13 14  1  0
 14 15  1  0
 15 16  2  0
 15 17  2  0
 15 18  1  0
 18 19  2  0
 19 20  1  0
 20 21  2  0
 21 22  1  0
 22 23  2  0
 13 24  1  0
 24 25  2  0
  2 26  1  0
 26 27  2  0
 27 28  1  0
 28 29  2  0
 29 30  1  0
 30 31  1  0
 31 32  1  0
 32 33  2  0
 33 34  1  0
 34 35  2  0
 35 36  1  0
 36 37  2  0
 30 38  2  0
 25  6  1  0
 38 26  1  0
 25 10  1  0
 37 32  1  0
 23 18  1  0
  4 39  1  0
  4 40  1  0
  5 41  1  0
  5 42  1  0
 11 43  1  0
 12 44  1  0
 19 45  1  0
 20 46  1  0
 21 47  1  0
 22 48  1  0
 23 49  1  0
 24 50  1  0
 27 51  1  0
 28 52  1  0
 29 53  1  0
 31 54  1  0
 31 55  1  0
 33 56  1  0
 34 57  1  0
 35 58  1  0
 36 59  1  0
 37 60  1  0
M  CHG  4   3  -1   8  -1   9  -1  14  -1
M  END
>  <UniqueID>  (24) 
24

>  <SMILES>  (24) 
O=C([N-]CCc1c([O-])[n-]c2ccc([N-]S(=O)(=O)c3ccccc3)cc12)c1cccc(Cc2ccccc2)n1

>  <Energy>  (24) 
99.68692558222757

>  <Genealogy>  (24) 
O=C([N-]CCc1c([O-])[n-]c2ccc([N-]S(=O)(=O)c3ccccc3)cc12)c1cccc(Cc2ccccc2)n1 (protonated)
O=C([N-]CCc1c([O-])[n-]c2ccc([N-]S(=O)(=O)c3ccccc3)cc12)c1cccc(Cc2ccccc2)n1 (3D coordinates assigned)
O=C([N-]CCc1c([O-])[n-]c2ccc([N-]S(=O)(=O)c3ccccc3)cc12)c1cccc(Cc2ccccc2)n1 (optimized conformer: 99.68692558222757 kcal/mol)

>  <smiles>  (24) 
O=C(NCCc1c(O)[nH]c2ccc(NS(=O)(=O)c3ccccc3)cc12)c1cccc(Cc2ccccc2)n1

>  <score_type>  (24) 
oracle

>  <origin>  (24) 
adg

>  <m_score__min__energy>  (24) 
-17.030000000000001

>  <m_primary>  (24) 
energy

$$$$
24:0
     RDKit          3D

 50 53  0  0  0  0  0  0  0  0999 V2000
   62.4970   32.4590   51.3110 C   0  0  0  0  0  0  0  0  0  0  0  0
   62.7980   32.1320   49.8460 C   0  0  0  0  0  0  0  0  0  0  0  0
   64.3010   31.9740   49.5940 C   0  0  0  0  0  0  0  0  0  0  0  0
   62.1090   30.9470   49.4570 O   0  0  0  0  0  0  0  0  0  0  0  0
   61.2100   31.1950   48.4190 C   0  0  0  0  0  0  0  0  0  0  0  0
   60.4040   30.1140   47.8140 C   0  0  0  0  0  0  0  0  0  0  0  0
   59.2010   29.6810   48.3990 C   0  0  0  0  0  0  0  0  0  0  0  0
   58.4480   28.6680   47.7970 C   0  0  0  0  0  0  0  0  0  0  0  0
   58.8760   28.0890   46.5960 C   0  0  0  0  0  0  0  0  0  0  0  0
   57.9360   26.8020   45.8480 S   0  0  0  0  0  0  0  0  0  0  0  0
   56.2520   27.1160   46.0790 N   0  0  0  0  0  0  0  0  0  0  0  0
   58.2920   25.4820   46.4710 O   0  0  0  0  0  0  0  0  0  0  0  0
   58.2390   26.7410   44.3770 O   0  0  0  0  0  0  0  0  0  0  0  0
   60.0650   28.5310   46.0010 C   0  0  0  0  0  0  0  0  0  0  0  0
   60.8190   29.5440   46.6010 C   0  0  0  0  0  0  0  0  0  0  0  0
   61.2120   32.4860   48.0760 C   0  0  0  0  0  0  0  0  0  0  0  0
   60.3250   33.1720   47.1120 C   0  0  0  0  0  0  0  0  0  0  0  0
   60.1870   34.5700   47.1340 C   0  0  0  0  0  0  0  0  0  0  0  0
   59.3530   35.2090   46.2160 C   0  0  0  0  0  0  0  0  0  0  0  0
   58.6560   34.4640   45.2610 C   0  0  0  0  0  0  0  0  0  0  0  0
   58.7930   33.0650   45.2110 C   0  0  0  0  0  0  0  0  0  0  0  0
   58.0580   32.2720   44.1940 C   0  0  0  0  0  0  0  0  0  0  0  0
   58.1100   32.6300   42.8330 C   0  0  0  0  0  0  0  0  0  0  0  0
   57.4170   31.8820   41.8770 C   0  0  0  0  0  0  0  0  0  0  0  0
   56.6670   30.7690   42.2660 C   0  0  0  0  0  0  0  0  0  0  0  0
   56.6080   30.4030   43.6120 C   0  0  0  0  0  0  0  0  0  0  0  0
   57.2990   31.1490   44.5730 C   0  0  0  0  0  0  0  0  0  0  0  0
   59.6350   32.4280   46.1410 C   0  0  0  0  0  0  0  0  0  0  0  0
   62.1960   33.1420   48.9250 C   0  0  0  0  0  0  0  0  0  0  0  0
   62.4700   34.3720   48.9090 O   0  0  0  0  0  0  0  0  0  0  0  0
   63.0970   31.8071   51.9629 H   0  0  0  0  0  0  0  0  0  0  0  0
   62.7497   33.5107   51.5113 H   0  0  0  0  0  0  0  0  0  0  0  0
   61.4280   32.2941   51.5113 H   0  0  0  0  0  0  0  0  0  0  0  0
   64.8303   31.9184   50.5567 H   0  0  0  0  0  0  0  0  0  0  0  0
   64.4820   31.0519   49.0222 H   0  0  0  0  0  0  0  0  0  0  0  0
   64.6698   32.8383   49.0222 H   0  0  0  0  0  0  0  0  0  0  0  0
   58.8505   30.1412   49.3346 H   0  0  0  0  0  0  0  0  0  0  0  0
   57.5156   28.3246   48.2689 H   0  0  0  0  0  0  0  0  0  0  0  0
   55.8880   27.5010   45.1800 H   0  0  0  0  0  0  0  0  0  0  0  0
   60.4066   28.0792   45.0580 H   0  0  0  0  0  0  0  0  0  0  0  0
   61.7430   29.8962   46.1192 H   0  0  0  0  0  0  0  0  0  0  0  0
   60.7388   35.1632   47.8781 H   0  0  0  0  0  0  0  0  0  0  0  0
   59.2437   36.3032   46.2441 H   0  0  0  0  0  0  0  0  0  0  0  0
   57.9963   34.9747   44.5441 H   0  0  0  0  0  0  0  0  0  0  0  0
   58.6999   33.5041   42.5202 H   0  0  0  0  0  0  0  0  0  0  0  0
   57.4621   32.1701   40.8163 H   0  0  0  0  0  0  0  0  0  0  0  0
   56.1231   30.1813   41.5118 H   0  0  0  0  0  0  0  0  0  0  0  0
   56.0173   29.5268   43.9174 H   0  0  0  0  0  0  0  0  0  0  0  0
   57.2487   30.8558   45.6320 H   0  0  0  0  0  0  0  0  0  0  0  0
   59.7542   31.3350   46.1072 H   0  0  0  0  0  0  0  0  0  0  0  0
  1  2  1  0
  2  3  1  0
  2  4  1  0
  4  5  1  0
  5  6  1  0
  6  7  2  0
  7  8  1  0
  8  9  2  0
  9 10  1  0
 10 11  1  0
 10 12  2  0
 10 13  2  0
  9 14  1  0
 14 15  2  0
  5 16  2  0
 16 17  1  0
 17 18  2  0
 18 19  1  0
 19 20  2  0
 20 21  1  0
 21 22  1  0
 22 23  2  0
 23 24  1  0
 24 25  2  0
 25 26  1  0
 26 27  2  0
 21 28  2  0
 16 29  1  0
 29 30  2  0
 29  2  1  0
 15  6  1  0
 28 17  1  0
 27 22  1  0
  1 31  1  0
  1 32  1  0
  1 33  1  0
  3 34  1  0
  3 35  1  0
  3 36  1  0
  7 37  1  0
  8 38  1  0
 11 39  1  0
 14 40  1  0
 15 41  1  0
 18 42  1  0
 19 43  1  0
 20 44  1  0
 23 45  1  0
 24 46  1  0
 25 47  1  0
 26 48  1  0
 27 49  1  0
 28 50  1  0
M  CHG  1  11  -1
M  END
>  <UniqueID>  (25) 
25

>  <SMILES>  (25) 
CC1(C)OC(c2ccc(S([NH-])(=O)=O)cc2)=C(c2cccc(-c3ccccc3)c2)C1=O

>  <Energy>  (25) 
81.70328739829348

>  <Genealogy>  (25) 
CC1(C)OC(c2ccc(S([NH-])(=O)=O)cc2)=C(c2cccc(-c3ccccc3)c2)C1=O (protonated)
CC1(C)OC(c2ccc(S([NH-])(=O)=O)cc2)=C(c2cccc(-c3ccccc3)c2)C1=O (3D coordinates assigned)
CC1(C)OC(c2ccc(S([NH-])(=O)=O)cc2)=C(c2cccc(-c3ccccc3)c2)C1=O (nonaromatic ring conformer: 81.70328739829348 kcal/mol)

>  <smiles>  (25) 
CC1(C)OC(c2ccc(S(N)(=O)=O)cc2)=C(c2cccc(-c3ccccc3)c2)C1=O

>  <score_type>  (25) 
oracle

>  <origin>  (25) 
adg

>  <m_score__min__energy>  (25) 
-11.83

>  <m_primary>  (25) 
energy

$$$$
25:0
     RDKit          3D

 62 65  0  0  0  0  0  0  0  0999 V2000
   58.6000   27.1310   44.0950 C   0  0  0  0  0  0  0  0  0  0  0  0
   58.1500   27.2400   45.5560 C   0  0  2  0  0  0  0  0  0  0  0  0
   56.6970   27.6150   45.6280 C   0  0  0  0  0  0  0  0  0  0  0  0
   55.8200   26.7320   45.8420 O   0  0  0  0  0  0  0  0  0  0  0  0
   56.3250   28.9910   45.5090 N   0  0  0  0  0  0  0  0  0  0  0  0
   56.2180   29.8070   43.9850 S   0  0  0  0  0  0  0  0  0  0  0  0
   56.8290   28.9450   42.9150 O   0  0  0  0  0  0  0  0  0  0  0  0
   54.7710   30.0440   43.6530 O   0  0  0  0  0  0  0  0  0  0  0  0
   57.1010   31.3310   44.0650 C   0  0  0  0  0  0  0  0  0  0  0  0
   57.0810   32.0840   45.2480 C   0  0  0  0  0  0  0  0  0  0  0  0
   57.7570   33.3070   45.3140 C   0  0  0  0  0  0  0  0  0  0  0  0
   58.4560   33.7810   44.1990 C   0  0  0  0  0  0  0  0  0  0  0  0
   58.4780   33.0330   43.0180 C   0  0  0  0  0  0  0  0  0  0  0  0
   57.8020   31.8100   42.9470 C   0  0  0  0  0  0  0  0  0  0  0  0
   58.9730   28.1780   46.3430 N   0  0  0  0  0  0  0  0  0  0  0  0
   59.5030   29.3420   45.9050 C   0  0  0  0  0  0  0  0  0  0  0  0
   59.3450   29.8010   44.7420 O   0  0  0  0  0  0  0  0  0  0  0  0
   60.2210   29.9520   46.8650 N   0  0  0  0  0  0  0  0  0  0  0  0
   60.1470   29.2060   47.9550 N   0  0  0  0  0  0  0  0  0  0  0  0
   59.4250   28.1090   47.6230 C   0  0  0  0  0  0  0  0  0  0  0  0
   59.2390   27.1250   48.3860 O   0  0  0  0  0  0  0  0  0  0  0  0
   60.7620   29.6090   49.1970 C   0  0  0  0  0  0  0  0  0  0  0  0
   60.3150   29.0890   50.5130 C   0  0  0  0  0  0  0  0  0  0  0  0
   60.4660   27.8730   50.8010 O   0  0  0  0  0  0  0  0  0  0  0  0
   59.6150   29.9440   51.4230 N   0  0  0  0  0  0  0  0  0  0  0  0
   58.2080   29.7680   51.7660 C   0  0  0  0  0  0  0  0  0  0  0  0
   57.5300   31.1330   51.9090 C   0  0  0  0  0  0  0  0  0  0  0  0
   58.5530   32.2710   52.0120 C   0  0  0  0  0  0  0  0  0  0  0  0
   58.9150   32.7910   50.6450 C   0  0  0  0  0  0  0  0  0  0  0  0
   58.2240   32.3360   49.5110 C   0  0  0  0  0  0  0  0  0  0  0  0
   58.5330   32.8460   48.2470 C   0  0  0  0  0  0  0  0  0  0  0  0
   59.5390   33.8050   48.1040 C   0  0  0  0  0  0  0  0  0  0  0  0
   60.2320   34.2610   49.2280 C   0  0  0  0  0  0  0  0  0  0  0  0
   59.9200   33.7630   50.4970 C   0  0  0  0  0  0  0  0  0  0  0  0
   61.6540   30.6160   49.1450 C   0  0  0  0  0  0  0  0  0  0  0  0
   62.0880   31.2010   47.8190 C   0  0  0  0  0  0  0  0  0  0  0  0
   60.9250   31.2330   46.8160 C   0  0  0  0  0  0  0  0  0  0  0  0
   59.6685   26.8722   44.0588 H   0  0  0  0  0  0  0  0  0  0  0  0
   58.0158   26.3484   43.5888 H   0  0  0  0  0  0  0  0  0  0  0  0
   58.4387   28.0942   43.5888 H   0  0  0  0  0  0  0  0  0  0  0  0
   58.2910   26.2477   46.0092 H   0  0  0  0  0  0  0  0  0  0  0  0
   56.5325   31.7121   46.1260 H   0  0  0  0  0  0  0  0  0  0  0  0
   57.7388   33.8960   46.2429 H   0  0  0  0  0  0  0  0  0  0  0  0
   58.9884   34.7422   44.2513 H   0  0  0  0  0  0  0  0  0  0  0  0
   59.0284   33.4071   42.1421 H   0  0  0  0  0  0  0  0  0  0  0  0
   57.8198   31.2244   42.0160 H   0  0  0  0  0  0  0  0  0  0  0  0
   57.7083   29.1943   50.9715 H   0  0  0  0  0  0  0  0  0  0  0  0
   58.1337   29.2259   52.7202 H   0  0  0  0  0  0  0  0  0  0  0  0
   56.8917   31.3069   51.0302 H   0  0  0  0  0  0  0  0  0  0  0  0
   56.9359   31.1235   52.8347 H   0  0  0  0  0  0  0  0  0  0  0  0
   58.1226   33.0900   52.6069 H   0  0  0  0  0  0  0  0  0  0  0  0
   59.4629   31.8843   52.4942 H   0  0  0  0  0  0  0  0  0  0  0  0
   57.4365   31.5754   49.6176 H   0  0  0  0  0  0  0  0  0  0  0  0
   57.9830   32.4916   47.3628 H   0  0  0  0  0  0  0  0  0  0  0  0
   59.7851   34.2005   47.1075 H   0  0  0  0  0  0  0  0  0  0  0  0
   61.0256   35.0142   49.1145 H   0  0  0  0  0  0  0  0  0  0  0  0
   60.4615   34.1322   51.3804 H   0  0  0  0  0  0  0  0  0  0  0  0
   62.0728   31.0188   50.0790 H   0  0  0  0  0  0  0  0  0  0  0  0
   62.4497   32.2271   47.9812 H   0  0  0  0  0  0  0  0  0  0  0  0
   62.8865   30.5679   47.4048 H   0  0  0  0  0  0  0  0  0  0  0  0
   60.2320   32.0454   47.0801 H   0  0  0  0  0  0  0  0  0  0  0  0
   61.3129   31.4062   45.8013 H   0  0  0  0  0  0  0  0  0  0  0  0
  1  2  1  0
  2  3  1  0
  3  4  2  0
  3  5  1  0
  5  6  1  0
  6  7  2  0
  6  8  2  0
  6  9  1  0
  9 10  2  0
 10 11  1  0
 11 12  2  0
 12 13  1  0
 13 14  2  0
  2 15  1  0
 15 16  1  0
 16 17  2  0
 16 18  1  0
 18 19  1  0
 19 20  1  0
 20 21  2  0
 19 22  1  0
 22 23  1  0
 23 24  2  0
 23 25  1  0
 25 26  1  0
 26 27  1  0
 27 28  1  0
 28 29  1  0
 29 30  2  0
 30 31  1  0
 31 32  2  0
 32 33  1  0
 33 34  2  0
 22 35  2  0
 35 36  1  0
 36 37  1  0
 14  9  1  0
 20 15  1  0
 34 29  1  0
 37 18  1  0
  1 38  1  0
  1 39  1  0
  1 40  1  0
  2 41  1  1
 10 42  1  0
 11 43  1  0
 12 44  1  0
 13 45  1  0
 14 46  1  0
 26 47  1  0
 26 48  1  0
 27 49  1  0
 27 50  1  0
 28 51  1  0
 28 52  1  0
 30 53  1  0
 31 54  1  0
 32 55  1  0
 33 56  1  0
 34 57  1  0
 35 58  1  0
 36 59  1  0
 36 60  1  0
 37 61  1  0
 37 62  1  0
M  CHG  2   5  -1  25  -1
M  END
>  <UniqueID>  (26) 
26

>  <SMILES>  (26) 
C[C@H](C(=O)[N-]S(=O)(=O)c1ccccc1)n1c(=O)n2n(c1=O)C(C(=O)[N-]CCCc1ccccc1)=CCC2

>  <Energy>  (26) 
107.72632816063201

>  <Genealogy>  (26) 
CC(C(=O)[N-]S(=O)(=O)c1ccccc1)n1c(=O)n2n(c1=O)C(C(=O)[N-]CCCc1ccccc1)=CCC2 (protonated)
C[C@H](C(=O)[N-]S(=O)(=O)c1ccccc1)n1c(=O)n2n(c1=O)C(C(=O)[N-]CCCc1ccccc1)=CCC2 (chirality)
C[C@H](C(=O)[N-]S(=O)(=O)c1ccccc1)n1c(=O)n2n(c1=O)C(C(=O)[N-]CCCc1ccccc1)=CCC2 (3D coordinates assigned)
C[C@H](C(=O)[N-]S(=O)(=O)c1ccccc1)n1c(=O)n2n(c1=O)C(C(=O)[N-]CCCc1ccccc1)=CCC2 (nonaromatic ring conformer: 107.72632816063201 kcal/mol)

>  <smiles>  (26) 
CC(C(=O)NS(=O)(=O)c1ccccc1)n1c(=O)n2n(c1=O)C(C(=O)NCCCc1ccccc1)=CCC2

>  <score_type>  (26) 
oracle

>  <origin>  (26) 
adg

>  <m_score__min__energy>  (26) 
-13.27

>  <m_primary>  (26) 
energy

$$$$
26:0
     RDKit          3D

 47 49  0  0  0  0  0  0  0  0999 V2000
   57.8010   32.3490   41.1170 C   0  0  0  0  0  0  0  0  0  0  0  0
   57.6350   32.1440   42.5940 C   0  0  0  0  0  0  0  0  0  0  0  0
   58.1500   33.0810   43.4990 C   0  0  0  0  0  0  0  0  0  0  0  0
   58.0270   32.8760   44.8800 C   0  0  0  0  0  0  0  0  0  0  0  0
   58.6120   33.8640   45.8460 C   0  0  0  0  0  0  0  0  0  0  0  0
   57.4220   31.7020   45.3510 C   0  0  0  0  0  0  0  0  0  0  0  0
   56.9150   30.7470   44.4610 C   0  0  0  0  0  0  0  0  0  0  0  0
   56.3110   29.5670   45.0160 N   0  0  0  0  0  0  0  0  0  0  0  0
   57.0270   28.0170   45.3490 S   0  0  0  0  0  0  0  0  0  0  0  0
   55.9470   27.1250   45.8910 O   0  0  0  0  0  0  0  0  0  0  0  0
   57.5660   27.3700   44.1050 O   0  0  0  0  0  0  0  0  0  0  0  0
   58.3130   28.1890   46.5520 C   0  0  0  0  0  0  0  0  0  0  0  0
   58.4940   29.4190   47.2060 C   0  0  0  0  0  0  0  0  0  0  0  0
   59.5210   29.5860   48.1470 C   0  0  0  0  0  0  0  0  0  0  0  0
   59.6890   30.8820   48.8360 C   0  0  0  0  0  0  0  0  0  0  0  0
   58.9020   31.1800   49.7760 O   0  0  0  0  0  0  0  0  0  0  0  0
   60.7160   31.8130   48.4510 N   0  0  0  0  0  0  0  0  0  0  0  0
   61.1020   32.9390   49.2830 C   0  0  0  0  0  0  0  0  0  0  0  0
   62.1330   33.7120   48.4750 C   0  0  0  0  0  0  0  0  0  0  0  0
   61.9330   33.2680   47.0280 C   0  0  0  0  0  0  0  0  0  0  0  0
   61.2620   31.9040   47.1050 C   0  0  0  0  0  0  0  0  0  0  0  0
   60.3520   28.5010   48.4570 C   0  0  0  0  0  0  0  0  0  0  0  0
   60.1770   27.2750   47.8140 C   0  0  0  0  0  0  0  0  0  0  0  0
   59.1630   27.1120   46.8620 C   0  0  0  0  0  0  0  0  0  0  0  0
   59.0010   25.8820   46.2280 O   0  0  0  0  0  0  0  0  0  0  0  0
   57.0270   30.9740   43.0770 C   0  0  0  0  0  0  0  0  0  0  0  0
   58.4841   33.1925   40.9384 H   0  0  0  0  0  0  0  0  0  0  0  0
   58.2183   31.4372   40.6649 H   0  0  0  0  0  0  0  0  0  0  0  0
   56.8223   32.5676   40.6649 H   0  0  0  0  0  0  0  0  0  0  0  0
   58.6542   33.9836   43.1233 H   0  0  0  0  0  0  0  0  0  0  0  0
   58.4148   33.5309   46.8756 H   0  0  0  0  0  0  0  0  0  0  0  0
   59.6979   33.9351   45.6853 H   0  0  0  0  0  0  0  0  0  0  0  0
   58.1522   34.8503   45.6853 H   0  0  0  0  0  0  0  0  0  0  0  0
   57.3446   31.5288   46.4345 H   0  0  0  0  0  0  0  0  0  0  0  0
   57.8232   30.2604   46.9778 H   0  0  0  0  0  0  0  0  0  0  0  0
   60.2297   33.5733   49.4991 H   0  0  0  0  0  0  0  0  0  0  0  0
   61.5081   32.6090   50.2506 H   0  0  0  0  0  0  0  0  0  0  0  0
   61.9643   34.7947   48.5718 H   0  0  0  0  0  0  0  0  0  0  0  0
   63.1571   33.5149   48.8247 H   0  0  0  0  0  0  0  0  0  0  0  0
   61.2898   33.9822   46.4930 H   0  0  0  0  0  0  0  0  0  0  0  0
   62.8868   33.2211   46.4821 H   0  0  0  0  0  0  0  0  0  0  0  0
   60.4578   31.8288   46.3583 H   0  0  0  0  0  0  0  0  0  0  0  0
   61.9707   31.0889   46.8968 H   0  0  0  0  0  0  0  0  0  0  0  0
   61.1454   28.6163   49.2102 H   0  0  0  0  0  0  0  0  0  0  0  0
   60.8398   26.4312   48.0565 H   0  0  0  0  0  0  0  0  0  0  0  0
   58.4170   25.7790   45.4060 H   0  0  0  0  0  0  0  0  0  0  0  0
   56.6354   30.2295   42.3682 H   0  0  0  0  0  0  0  0  0  0  0  0
  1  2  1  0
  2  3  2  0
  3  4  1  0
  4  5  1  0
  4  6  2  0
  6  7  1  0
  7  8  1  0
  8  9  1  0
  9 10  2  0
  9 11  2  0
  9 12  1  0
 12 13  2  0
 13 14  1  0
 14 15  1  0
 15 16  2  0
 15 17  1  0
 17 18  1  0
 18 19  1  0
 19 20  1  0
 20 21  1  0
 14 22  2  0
 22 23  1  0
 23 24  2  0
 24 25  1  0
  7 26  2  0
 26  2  1  0
 24 12  1  0
 21 17  1  0
  1 27  1  0
  1 28  1  0
  1 29  1  0
  3 30  1  0
  5 31  1  0
  5 32  1  0
  5 33  1  0
  6 34  1  0
 13 35  1  0
 18 36  1  0
 18 37  1  0
 19 38  1  0
 19 39  1  0
 20 40  1  0
 20 41  1  0
 21 42  1  0
 21 43  1  0
 22 44  1  0
 23 45  1  0
 25 46  1  0
 26 47  1  0
M  CHG  1   8  -1
M  END
>  <UniqueID>  (27) 
27

>  <SMILES>  (27) 
Cc1cc(C)cc([N-]S(=O)(=O)c2cc(C(=O)N3CCCC3)ccc2O)c1

>  <Energy>  (27) 
57.616906751406965

>  <Genealogy>  (27) 
Cc1cc(C)cc([N-]S(=O)(=O)c2cc(C(=O)N3CCCC3)ccc2O)c1 (protonated)
Cc1cc(C)cc([N-]S(=O)(=O)c2cc(C(=O)N3CCCC3)ccc2O)c1 (3D coordinates assigned)
Cc1cc(C)cc([N-]S(=O)(=O)c2cc(C(=O)N3CCCC3)ccc2O)c1 (nonaromatic ring conformer: 57.616906751406965 kcal/mol)

>  <smiles>  (27) 
Cc1cc(C)cc(NS(=O)(=O)c2cc(C(=O)N3CCCC3)ccc2O)c1

>  <score_type>  (27) 
oracle

>  <origin>  (27) 
adg

>  <m_score__min__energy>  (27) 
-9.5199999999999996

>  <m_primary>  (27) 
energy

$$$$
27:0
     RDKit          3D

 57 60  0  0  0  0  0  0  0  0999 V2000
   56.4070   29.2370   43.5900 C   0  0  0  0  0  0  0  0  0  0  0  0
   57.2470   29.3860   44.6270 C   0  0  0  0  0  0  0  0  0  0  0  0
   57.8880   28.3660   45.3500 C   0  0  0  0  0  0  0  0  0  0  0  0
   57.9860   27.0420   45.1170 C   0  0  0  0  0  0  0  0  0  0  0  0
   57.3980   25.9820   45.9480 C   0  0  0  0  0  0  0  0  0  0  0  0
   58.0800   24.9050   46.3780 N   0  0  0  0  0  0  0  0  0  0  0  0
   57.1380   24.1700   47.0090 C   0  0  0  0  0  0  0  0  0  0  0  0
   57.3970   23.0750   47.5710 O   0  0  0  0  0  0  0  0  0  0  0  0
   55.8950   24.6980   46.9810 N   0  0  0  0  0  0  0  0  0  0  0  0
   56.0740   25.8380   46.2940 C   0  0  0  0  0  0  0  0  0  0  0  0
   55.0450   26.7160   45.9700 O   0  0  0  0  0  0  0  0  0  0  0  0
   58.4510   28.9730   46.4590 C   0  0  0  0  0  0  0  0  0  0  0  0
   58.1880   30.3240   46.3580 C   0  0  0  0  0  0  0  0  0  0  0  0
   58.5380   31.3130   47.4000 C   0  0  0  0  0  0  0  0  0  0  0  0
   58.1480   32.5060   47.2740 O   0  0  0  0  0  0  0  0  0  0  0  0
   59.2630   30.9260   48.5820 N   0  0  0  0  0  0  0  0  0  0  0  0
   60.3060   29.8930   48.5140 C   0  0  0  0  0  0  0  0  0  0  0  0
   61.5070   30.2950   49.3780 C   0  0  0  0  0  0  0  0  0  0  0  0
   61.0840   30.6790   50.7340 N   0  0  0  0  0  0  0  0  0  0  0  0
   62.0320   30.6480   51.8150 C   0  0  0  0  0  0  0  0  0  0  0  0
   61.6940   30.1590   52.9260 O   0  0  0  0  0  0  0  0  0  0  0  0
   63.4170   31.2130   51.6520 C   0  0  0  0  0  0  0  0  0  0  0  0
   63.4160   32.2810   50.5800 C   0  0  0  0  0  0  0  0  0  0  0  0
   64.1480   32.0390   49.4030 C   0  0  0  0  0  0  0  0  0  0  0  0
   64.1440   32.9670   48.3590 C   0  0  0  0  0  0  0  0  0  0  0  0
   63.4110   34.1460   48.4740 C   0  0  0  0  0  0  0  0  0  0  0  0
   62.6730   34.4010   49.6320 C   0  0  0  0  0  0  0  0  0  0  0  0
   62.6550   33.4760   50.6910 C   0  0  0  0  0  0  0  0  0  0  0  0
   61.8370   33.7830   51.9190 C   0  0  0  0  0  0  0  0  0  0  0  0
   59.6670   30.9180   51.0310 C   0  0  0  0  0  0  0  0  0  0  0  0
   58.9820   31.6130   49.8500 C   0  0  0  0  0  0  0  0  0  0  0  0
   57.4810   30.5820   45.2310 N   0  0  0  0  0  0  0  0  0  0  0  0
   57.0070   31.8970   44.7860 C   0  0  0  0  0  0  0  0  0  0  0  0
   55.9681   30.1220   43.1062 H   0  0  0  0  0  0  0  0  0  0  0  0
   56.1578   28.2299   43.2243 H   0  0  0  0  0  0  0  0  0  0  0  0
   58.5546   26.7281   44.2292 H   0  0  0  0  0  0  0  0  0  0  0  0
   59.0037   28.4731   47.2681 H   0  0  0  0  0  0  0  0  0  0  0  0
   59.8976   28.9397   48.8806 H   0  0  0  0  0  0  0  0  0  0  0  0
   60.6354   29.7840   47.4702 H   0  0  0  0  0  0  0  0  0  0  0  0
   62.2005   29.4439   49.4463 H   0  0  0  0  0  0  0  0  0  0  0  0
   61.9986   31.1601   48.9091 H   0  0  0  0  0  0  0  0  0  0  0  0
   63.7455   31.6534   52.6050 H   0  0  0  0  0  0  0  0  0  0  0  0
   64.1044   30.4061   51.3580 H   0  0  0  0  0  0  0  0  0  0  0  0
   64.7290   31.1102   49.3040 H   0  0  0  0  0  0  0  0  0  0  0  0
   64.7209   32.7664   47.4441 H   0  0  0  0  0  0  0  0  0  0  0  0
   63.4134   34.8769   47.6519 H   0  0  0  0  0  0  0  0  0  0  0  0
   62.0995   35.3358   49.7166 H   0  0  0  0  0  0  0  0  0  0  0  0
   62.4291   33.5608   52.8190 H   0  0  0  0  0  0  0  0  0  0  0  0
   61.5580   34.8470   51.9171 H   0  0  0  0  0  0  0  0  0  0  0  0
   60.9268   33.1653   51.9171 H   0  0  0  0  0  0  0  0  0  0  0  0
   59.1699   29.9557   51.2228 H   0  0  0  0  0  0  0  0  0  0  0  0
   59.5931   31.5657   51.9170 H   0  0  0  0  0  0  0  0  0  0  0  0
   57.8952   31.6182   50.0201 H   0  0  0  0  0  0  0  0  0  0  0  0
   59.3732   32.6387   49.7800 H   0  0  0  0  0  0  0  0  0  0  0  0
   56.7818   32.5216   45.6630 H   0  0  0  0  0  0  0  0  0  0  0  0
   57.7868   32.3823   44.1807 H   0  0  0  0  0  0  0  0  0  0  0  0
   56.0969   31.7731   44.1807 H   0  0  0  0  0  0  0  0  0  0  0  0
  1  2  2  0
  2  3  1  0
  3  4  2  3
  4  5  1  0
  5  6  1  0
  6  7  1  0
  7  8  2  0
  7  9  1  0
  9 10  1  0
 10 11  1  0
  3 12  1  0
 12 13  2  0
 13 14  1  0
 14 15  2  0
 14 16  1  0
 16 17  1  0
 17 18  1  0
 18 19  1  0
 19 20  1  0
 20 21  2  0
 20 22  1  0
 22 23  1  0
 23 24  2  0
 24 25  1  0
 25 26  2  0
 26 27  1  0
 27 28  2  0
 28 29  1  0
 19 30  1  0
 30 31  1  0
 13 32  1  0
 32 33  1  0
 32  2  1  0
 10  5  2  0
 31 16  1  0
 28 23  1  0
  1 34  1  0
  1 35  1  0
  4 36  1  0
 12 37  1  0
 17 38  1  0
 17 39  1  0
 18 40  1  0
 18 41  1  0
 22 42  1  0
 22 43  1  0
 24 44  1  0
 25 45  1  0
 26 46  1  0
 27 47  1  0
 29 48  1  0
 29 49  1  0
 29 50  1  0
 30 51  1  0
 30 52  1  0
 31 53  1  0
 31 54  1  0
 33 55  1  0
 33 56  1  0
 33 57  1  0
M  CHG  3   6  -1   9  -1  11  -1
M  END
>  <UniqueID>  (28) 
28

>  <SMILES>  (28) 
C=c1c(=Cc2[n-]c(=O)[n-]c2[O-])cc(C(=O)N2CCN(C(=O)Cc3ccccc3C)CC2)n1C

>  <Energy>  (28) 
137.48468073778568

>  <Genealogy>  (28) 
C=c1c(=Cc2[n-]c(=O)[n-]c2[O-])cc(C(=O)N2CCN(C(=O)Cc3ccccc3C)CC2)n1C (protonated)
C=c1c(=Cc2[n-]c(=O)[n-]c2[O-])cc(C(=O)N2CCN(C(=O)Cc3ccccc3C)CC2)n1C (3D coordinates assigned)
C=c1c(=Cc2[n-]c(=O)[n-]c2[O-])cc(C(=O)N2CCN(C(=O)Cc3ccccc3C)CC2)n1C (nonaromatic ring conformer: 137.48468073778568 kcal/mol)

>  <smiles>  (28) 
C=c1c(=Cc2[nH]c(=O)[nH]c2O)cc(C(=O)N2CCN(C(=O)Cc3ccccc3C)CC2)n1C

>  <score_type>  (28) 
oracle

>  <origin>  (28) 
adg

>  <m_score__min__energy>  (28) 
-18.420000000000002

>  <m_primary>  (28) 
energy

$$$$
28:0
     RDKit          3D

 82 86  0  0  0  0  0  0  0  0999 V2000
   61.8110   31.9380   47.8440 C   0  0  0  0  0  0  0  0  0  0  0  0
   61.8210   33.4030   47.6860 N   0  0  0  0  0  0  0  0  0  0  0  0
   61.5900   33.8110   46.2750 C   0  0  0  0  0  0  0  0  0  0  0  0
   60.1730   34.3540   45.9990 C   0  0  0  0  0  0  0  0  0  0  0  0
   59.1930   33.7200   46.8870 N   0  0  0  0  0  0  0  0  0  0  0  0
   57.8930   33.3340   46.4010 C   0  0  0  0  0  0  0  0  0  0  0  0
   56.8710   33.6200   47.0820 O   0  0  0  0  0  0  0  0  0  0  0  0
   57.7290   32.5980   45.1230 C   0  0  0  0  0  0  0  0  0  0  0  0
   58.2540   33.1120   43.9250 C   0  0  0  0  0  0  0  0  0  0  0  0
   58.0930   32.4130   42.7270 C   0  0  0  0  0  0  0  0  0  0  0  0
   57.4160   31.1920   42.7100 C   0  0  0  0  0  0  0  0  0  0  0  0
   56.8940   30.6590   43.8970 C   0  0  0  0  0  0  0  0  0  0  0  0
   56.1840   29.3330   43.8800 C   0  0  0  0  0  0  0  0  0  0  0  0
   56.0000   28.8430   45.2400 N   0  0  0  0  0  0  0  0  0  0  0  0
   56.3450   27.5090   45.6220 C   0  0  0  0  0  0  0  0  0  0  0  0
   55.4400   26.7220   46.0030 O   0  0  0  0  0  0  0  0  0  0  0  0
   57.6980   27.0480   45.5570 N   0  0  0  0  0  0  0  0  0  0  0  0
   58.7160   27.6020   44.6660 C   0  0  0  0  0  0  0  0  0  0  0  0
   59.9560   28.0490   45.4500 C   0  0  0  0  0  0  0  0  0  0  0  0
   59.5770   28.6890   46.7600 C   0  0  0  0  0  0  0  0  0  0  0  0
   59.1610   30.0290   46.8030 C   0  0  0  0  0  0  0  0  0  0  0  0
   58.8550   30.6330   48.0270 C   0  0  0  0  0  0  0  0  0  0  0  0
   58.9670   29.9060   49.2200 C   0  0  0  0  0  0  0  0  0  0  0  0
   58.6000   30.6570   50.7670 S   0  0  0  0  0  0  0  0  0  0  0  0
   57.9830   32.0080   50.5370 O   0  0  0  0  0  0  0  0  0  0  0  0
   57.6150   29.8180   51.5340 O   0  0  0  0  0  0  0  0  0  0  0  0
   60.0590   30.8370   51.6880 N   0  0  0  0  0  0  0  0  0  0  0  0
   60.8210   29.7260   52.2270 C   0  0  0  0  0  0  0  0  0  0  0  0
   62.0750   30.3730   52.8490 C   0  0  0  0  0  0  0  0  0  0  0  0
   62.1480   31.7350   52.3050 N   0  0  0  0  0  0  0  0  0  0  0  0
   63.4110   32.2220   51.7090 C   0  0  0  0  0  0  0  0  0  0  0  0
   63.2800   33.4620   50.8330 C   0  0  0  0  0  0  0  0  0  0  0  0
   64.5460   33.4540   49.9940 C   0  0  0  0  0  0  0  0  0  0  0  0
   64.8930   31.9800   49.7840 C   0  0  0  0  0  0  0  0  0  0  0  0
   64.0630   31.1840   50.7940 C   0  0  0  0  0  0  0  0  0  0  0  0
   60.8440   32.0110   51.7990 C   0  0  0  0  0  0  0  0  0  0  0  0
   60.3120   33.1950   51.8370 N   0  0  0  0  0  0  0  0  0  0  0  0
   59.3740   28.5670   49.1780 C   0  0  0  0  0  0  0  0  0  0  0  0
   59.6840   27.9630   47.9560 C   0  0  0  0  0  0  0  0  0  0  0  0
   57.0700   31.3560   45.1030 C   0  0  0  0  0  0  0  0  0  0  0  0
   59.4330   33.7440   48.3340 C   0  0  0  0  0  0  0  0  0  0  0  0
   60.9050   34.0640   48.6410 C   0  0  0  0  0  0  0  0  0  0  0  0
   61.8093   31.6847   48.9144 H   0  0  0  0  0  0  0  0  0  0  0  0
   60.9100   31.5240   47.3678 H   0  0  0  0  0  0  0  0  0  0  0  0
   62.7063   31.5117   47.3678 H   0  0  0  0  0  0  0  0  0  0  0  0
   62.3165   34.5964   46.0194 H   0  0  0  0  0  0  0  0  0  0  0  0
   61.7076   32.9063   45.6605 H   0  0  0  0  0  0  0  0  0  0  0  0
   60.1635   35.4409   46.1681 H   0  0  0  0  0  0  0  0  0  0  0  0
   59.9043   34.1276   44.9566 H   0  0  0  0  0  0  0  0  0  0  0  0
   58.7946   34.0700   43.9311 H   0  0  0  0  0  0  0  0  0  0  0  0
   58.5012   32.8260   41.7928 H   0  0  0  0  0  0  0  0  0  0  0  0
   57.2919   30.6468   41.7627 H   0  0  0  0  0  0  0  0  0  0  0  0
   55.2011   29.4533   43.4011 H   0  0  0  0  0  0  0  0  0  0  0  0
   56.7903   28.6085   43.3165 H   0  0  0  0  0  0  0  0  0  0  0  0
   59.0107   26.8334   43.9363 H   0  0  0  0  0  0  0  0  0  0  0  0
   58.2918   28.4793   44.1557 H   0  0  0  0  0  0  0  0  0  0  0  0
   60.5884   27.1715   45.6501 H   0  0  0  0  0  0  0  0  0  0  0  0
   60.4983   28.7915   44.8461 H   0  0  0  0  0  0  0  0  0  0  0  0
   59.0753   30.6063   45.8706 H   0  0  0  0  0  0  0  0  0  0  0  0
   58.5253   31.6821   48.0533 H   0  0  0  0  0  0  0  0  0  0  0  0
   60.2394   29.1929   52.9935 H   0  0  0  0  0  0  0  0  0  0  0  0
   61.0758   28.9844   51.4556 H   0  0  0  0  0  0  0  0  0  0  0  0
   61.9837   30.4048   53.9447 H   0  0  0  0  0  0  0  0  0  0  0  0
   62.9819   29.7979   52.6108 H   0  0  0  0  0  0  0  0  0  0  0  0
   64.0084   32.4478   52.6046 H   0  0  0  0  0  0  0  0  0  0  0  0
   62.3870   33.3969   50.1940 H   0  0  0  0  0  0  0  0  0  0  0  0
   63.1668   34.3853   51.4201 H   0  0  0  0  0  0  0  0  0  0  0  0
   64.3687   33.9479   49.0272 H   0  0  0  0  0  0  0  0  0  0  0  0
   65.3645   33.9976   50.4885 H   0  0  0  0  0  0  0  0  0  0  0  0
   64.6387   31.6731   48.7588 H   0  0  0  0  0  0  0  0  0  0  0  0
   65.9689   31.8025   49.9289 H   0  0  0  0  0  0  0  0  0  0  0  0
   63.2934   30.5929   50.2760 H   0  0  0  0  0  0  0  0  0  0  0  0
   64.6861   30.4780   51.3626 H   0  0  0  0  0  0  0  0  0  0  0  0
   59.4230   33.4020   51.3310 H   0  0  0  0  0  0  0  0  0  0  0  0
   60.7090   33.9460   52.4420 H   0  0  0  0  0  0  0  0  0  0  0  0
   59.4501   27.9880   50.1102 H   0  0  0  0  0  0  0  0  0  0  0  0
   60.0133   26.9137   47.9319 H   0  0  0  0  0  0  0  0  0  0  0  0
   56.6887   30.9264   46.0411 H   0  0  0  0  0  0  0  0  0  0  0  0
   58.7941   34.5133   48.7923 H   0  0  0  0  0  0  0  0  0  0  0  0
   59.1958   32.7520   48.7460 H   0  0  0  0  0  0  0  0  0  0  0  0
   61.0528   35.1524   48.5812 H   0  0  0  0  0  0  0  0  0  0  0  0
   61.1335   33.6891   49.6496 H   0  0  0  0  0  0  0  0  0  0  0  0
  1  2  1  0
  2  3  1  0
  3  4  1  0
  4  5  1  0
  5  6  1  0
  6  7  2  0
  6  8  1  0
  8  9  2  0
  9 10  1  0
 10 11  2  0
 11 12  1  0
 12 13  1  0
 13 14  1  0
 14 15  1  0
 15 16  2  0
 15 17  1  0
 17 18  1  0
 18 19  1  0
 19 20  1  0
 20 21  2  0
 21 22  1  0
 22 23  2  0
 23 24  1  0
 24 25  2  0
 24 26  2  0
 24 27  1  0
 27 28  1  0
 28 29  1  0
 29 30  1  0
 30 31  1  0
 31 32  1  0
 32 33  1  0
 33 34  1  0
 34 35  1  0
 30 36  1  0
 36 37  2  0
 23 38  1  0
 38 39  2  0
 12 40  2  0
  5 41  1  0
 41 42  1  0
 42  2  1  0
 40  8  1  0
 39 20  1  0
 36 27  1  0
 35 31  1  0
  1 43  1  0
  1 44  1  0
  1 45  1  0
  3 46  1  0
  3 47  1  0
  4 48  1  0
  4 49  1  0
  9 50  1  0
 10 51  1  0
 11 52  1  0
 13 53  1  0
 13 54  1  0
 18 55  1  0
 18 56  1  0
 19 57  1  0
 19 58  1  0
 21 59  1  0
 22 60  1  0
 28 61  1  0
 28 62  1  0
 29 63  1  0
 29 64  1  0
 31 65  1  0
 32 66  1  0
 32 67  1  0
 33 68  1  0
 33 69  1  0
 34 70  1  0
 34 71  1  0
 35 72  1  0
 35 73  1  0
 37 74  1  0
 37 75  1  0
 38 76  1  0
 39 77  1  0
 40 78  1  0
 41 79  1  0
 41 80  1  0
 42 81  1  0
 42 82  1  0
M  CHG  3  14  -1  17  -1  37   1
M  END
>  <UniqueID>  (29) 
29

>  <SMILES>  (29) 
CN1CCN(C(=O)c2cccc(C[N-]C(=O)[N-]CCc3ccc(S(=O)(=O)N4CCN(C5CCCC5)C4=[NH2+])cc3)c2)CC1

>  <Energy>  (29) 
121.41663666706832

>  <Genealogy>  (29) 
CN1CCN(C(=O)c2cccc(C[N-]C(=O)[N-]CCc3ccc(S(=O)(=O)N4CCN(C5CCCC5)C4=[NH2+])cc3)c2)CC1 (protonated)
CN1CCN(C(=O)c2cccc(C[N-]C(=O)[N-]CCc3ccc(S(=O)(=O)N4CCN(C5CCCC5)C4=[NH2+])cc3)c2)CC1 (3D coordinates assigned)
CN1CCN(C(=O)c2cccc(C[N-]C(=O)[N-]CCc3ccc(S(=O)(=O)N4CCN(C5CCCC5)C4=[NH2+])cc3)c2)CC1 (nonaromatic ring conformer: 121.41663666706832 kcal/mol)

>  <smiles>  (29) 
CN1CCN(C(=O)c2cccc(CNC(=O)NCCc3ccc(S(=O)(=O)N4CCN(C5CCCC5)C4=N)cc3)c2)CC1

>  <score_type>  (29) 
oracle

>  <origin>  (29) 
adg

>  <m_score__min__energy>  (29) 
-13.119999999999999

>  <m_primary>  (29) 
energy

$$$$
29:0
     RDKit          3D

 51 53  0  0  0  0  0  0  0  0999 V2000
   62.2390   32.6790   47.4960 C   0  0  0  0  0  0  0  0  0  0  0  0
   61.7230   31.6460   48.4030 N   0  0  0  0  0  0  0  0  0  0  0  0
   61.7270   31.9050   49.8490 C   0  0  0  0  0  0  0  0  0  0  0  0
   61.2170   30.3890   47.8810 C   0  0  0  0  0  0  0  0  0  0  0  0
   60.7850   29.3650   48.7490 C   0  0  0  0  0  0  0  0  0  0  0  0
   60.2980   28.1560   48.2440 C   0  0  0  0  0  0  0  0  0  0  0  0
   60.2330   27.9390   46.8610 C   0  0  0  0  0  0  0  0  0  0  0  0
   59.6820   26.6410   46.3110 C   0  0  0  0  0  0  0  0  0  0  0  0
   58.4360   26.8500   45.5320 N   0  0  0  0  0  0  0  0  0  0  0  0
   57.4560   27.6560   46.3170 C   0  0  0  0  0  0  0  0  0  0  0  0
   57.4550   29.1440   45.9390 C   0  0  0  0  0  0  0  0  0  0  0  0
   57.2000   29.2980   44.5020 N   0  0  0  0  0  0  0  0  0  0  0  0
   56.6220   30.5130   43.9890 C   0  0  0  0  0  0  0  0  0  0  0  0
   56.2520   30.5720   42.7840 O   0  0  0  0  0  0  0  0  0  0  0  0
   56.4210   31.6350   44.8590 N   0  0  0  0  0  0  0  0  0  0  0  0
   57.4120   32.5860   45.2740 C   0  0  0  0  0  0  0  0  0  0  0  0
   57.9430   33.4620   44.3190 C   0  0  0  0  0  0  0  0  0  0  0  0
   58.8960   34.4170   44.6860 C   0  0  0  0  0  0  0  0  0  0  0  0
   59.3140   34.5150   46.0150 C   0  0  0  0  0  0  0  0  0  0  0  0
   60.2390   35.4460   46.3600 F   0  0  0  0  0  0  0  0  0  0  0  0
   58.7720   33.6610   46.9830 C   0  0  0  0  0  0  0  0  0  0  0  0
   59.2700   33.7950   48.6610 Cl  0  0  0  0  0  0  0  0  0  0  0  0
   57.8180   32.7050   46.6160 C   0  0  0  0  0  0  0  0  0  0  0  0
   57.5600   28.2020   43.5960 C   0  0  0  0  0  0  0  0  0  0  0  0
   58.7350   27.4120   44.1840 C   0  0  0  0  0  0  0  0  0  0  0  0
   60.6550   28.9510   45.9890 C   0  0  0  0  0  0  0  0  0  0  0  0
   61.1430   30.1600   46.4900 C   0  0  0  0  0  0  0  0  0  0  0  0
   62.6541   33.5101   48.0851 H   0  0  0  0  0  0  0  0  0  0  0  0
   63.0282   32.2491   46.8617 H   0  0  0  0  0  0  0  0  0  0  0  0
   61.4212   33.0518   46.8617 H   0  0  0  0  0  0  0  0  0  0  0  0
   61.7122   30.9489   50.3928 H   0  0  0  0  0  0  0  0  0  0  0  0
   62.6339   32.4661   50.1185 H   0  0  0  0  0  0  0  0  0  0  0  0
   60.8378   32.4939   50.1185 H   0  0  0  0  0  0  0  0  0  0  0  0
   60.8319   29.5196   49.8371 H   0  0  0  0  0  0  0  0  0  0  0  0
   59.9636   27.3697   48.9367 H   0  0  0  0  0  0  0  0  0  0  0  0
   60.4379   26.1841   45.6554 H   0  0  0  0  0  0  0  0  0  0  0  0
   59.4440   25.9859   47.1620 H   0  0  0  0  0  0  0  0  0  0  0  0
   57.9970   25.9090   45.3870 H   0  0  0  0  0  0  0  0  0  0  0  0
   56.4490   27.2500   46.1409 H   0  0  0  0  0  0  0  0  0  0  0  0
   57.7502   27.5880   47.3747 H   0  0  0  0  0  0  0  0  0  0  0  0
   56.6682   29.6631   46.5060 H   0  0  0  0  0  0  0  0  0  0  0  0
   58.4369   29.5777   46.1794 H   0  0  0  0  0  0  0  0  0  0  0  0
   57.6081   33.3983   43.2732 H   0  0  0  0  0  0  0  0  0  0  0  0
   59.3173   35.0923   43.9267 H   0  0  0  0  0  0  0  0  0  0  0  0
   57.3836   32.0436   47.3801 H   0  0  0  0  0  0  0  0  0  0  0  0
   56.6960   27.5330   43.4697 H   0  0  0  0  0  0  0  0  0  0  0  0
   57.8513   28.6165   42.6196 H   0  0  0  0  0  0  0  0  0  0  0  0
   58.9767   26.5826   43.5031 H   0  0  0  0  0  0  0  0  0  0  0  0
   59.5796   28.1079   44.2951 H   0  0  0  0  0  0  0  0  0  0  0  0
   60.6016   28.7923   44.9018 H   0  0  0  0  0  0  0  0  0  0  0  0
   61.4737   30.9433   45.7921 H   0  0  0  0  0  0  0  0  0  0  0  0
  1  2  1  0
  2  3  1  0
  2  4  1  0
  4  5  2  0
  5  6  1  0
  6  7  2  0
  7  8  1  0
  8  9  1  0
  9 10  1  0
 10 11  1  0
 11 12  1  0
 12 13  1  0
 13 14  2  0
 13 15  1  0
 15 16  1  0
 16 17  2  0
 17 18  1  0
 18 19  2  0
 19 20  1  0
 19 21  1  0
 21 22  1  0
 21 23  2  0
 12 24  1  0
 24 25  1  0
  7 26  1  0
 26 27  2  0
 27  4  1  0
 25  9  1  0
 23 16  1  0
  1 28  1  0
  1 29  1  0
  1 30  1  0
  3 31  1  0
  3 32  1  0
  3 33  1  0
  5 34  1  0
  6 35  1  0
  8 36  1  0
  8 37  1  0
  9 38  1  0
 10 39  1  0
 10 40  1  0
 11 41  1  0
 11 42  1  0
 17 43  1  0
 18 44  1  0
 23 45  1  0
 24 46  1  0
 24 47  1  0
 25 48  1  0
 25 49  1  0
 26 50  1  0
 27 51  1  0
M  CHG  2   9   1  15  -1
M  END
>  <UniqueID>  (30) 
30

>  <SMILES>  (30) 
CN(C)c1ccc(C[NH+]2CCN(C(=O)[N-]c3ccc(F)c(Cl)c3)CC2)cc1

>  <Energy>  (30) 
65.17345714831026

>  <Genealogy>  (30) 
CN(C)c1ccc(C[NH+]2CCN(C(=O)[N-]c3ccc(F)c(Cl)c3)CC2)cc1 (protonated)
CN(C)c1ccc(C[NH+]2CCN(C(=O)[N-]c3ccc(F)c(Cl)c3)CC2)cc1 (3D coordinates assigned)
CN(C)c1ccc(C[NH+]2CCN(C(=O)[N-]c3ccc(F)c(Cl)c3)CC2)cc1 (nonaromatic ring conformer: 65.17345714831026 kcal/mol)

>  <smiles>  (30) 
CN(C)c1ccc(CN2CCN(C(=O)Nc3ccc(F)c(Cl)c3)CC2)cc1

>  <score_type>  (30) 
oracle

>  <origin>  (30) 
adg

>  <m_score__min__energy>  (30) 
-8.1300000000000008

>  <m_primary>  (30) 
energy

$$$$
30:0
     RDKit          3D

 50 52  0  0  0  0  0  0  0  0999 V2000
   57.8910   27.7470   43.4000 C   0  0  0  0  0  0  0  0  0  0  0  0
   58.6180   28.4720   44.5000 C   0  0  0  0  0  0  0  0  0  0  0  0
   59.6650   27.8040   45.1560 C   0  0  0  0  0  0  0  0  0  0  0  0
   60.4070   28.4390   46.1510 C   0  0  0  0  0  0  0  0  0  0  0  0
   60.1200   29.7600   46.5120 C   0  0  0  0  0  0  0  0  0  0  0  0
   60.9150   30.4470   47.5510 C   0  0  0  0  0  0  0  0  0  0  0  0
   62.1010   30.7870   47.2860 O   0  0  0  0  0  0  0  0  0  0  0  0
   60.3640   30.7490   48.8460 N   0  0  0  0  0  0  0  0  0  0  0  0
   58.9420   30.9090   49.1070 C   0  0  0  0  0  0  0  0  0  0  0  0
   58.8500   31.6510   50.4340 C   0  0  0  0  0  0  0  0  0  0  0  0
   60.2160   31.4860   51.0940 C   0  0  0  0  0  0  0  0  0  0  0  0
   61.1870   31.1920   49.9590 C   0  0  0  0  0  0  0  0  0  0  0  0
   59.1030   30.4500   45.8380 C   0  0  0  0  0  0  0  0  0  0  0  0
   58.3410   29.8230   44.8360 C   0  0  0  0  0  0  0  0  0  0  0  0
   57.0780   30.7700   44.0180 S   0  0  0  0  0  0  0  0  0  0  0  0
   55.7390   30.4690   44.6320 O   0  0  0  0  0  0  0  0  0  0  0  0
   57.0200   30.3800   42.5680 O   0  0  0  0  0  0  0  0  0  0  0  0
   57.3630   32.4810   44.1500 N   0  0  0  0  0  0  0  0  0  0  0  0
   57.2360   32.9020   45.5470 C   0  0  0  0  0  0  0  0  0  0  0  0
   57.8610   34.2850   45.7330 C   0  0  0  0  0  0  0  0  0  0  0  0
   59.1820   34.1750   46.4450 C   0  0  0  0  0  0  0  0  0  0  0  0
   59.2530   34.3330   47.8390 C   0  0  0  0  0  0  0  0  0  0  0  0
   60.4750   34.1940   48.5020 C   0  0  0  0  0  0  0  0  0  0  0  0
   61.6350   33.8850   47.7820 C   0  0  0  0  0  0  0  0  0  0  0  0
   63.1660   33.7070   48.6170 Cl  0  0  0  0  0  0  0  0  0  0  0  0
   61.5680   33.7120   46.3960 C   0  0  0  0  0  0  0  0  0  0  0  0
   60.3470   33.8510   45.7290 C   0  0  0  0  0  0  0  0  0  0  0  0
   57.1770   27.0350   43.8396 H   0  0  0  0  0  0  0  0  0  0  0  0
   57.3481   28.4740   42.7781 H   0  0  0  0  0  0  0  0  0  0  0  0
   58.6165   27.2020   42.7781 H   0  0  0  0  0  0  0  0  0  0  0  0
   59.9028   26.7658   44.8810 H   0  0  0  0  0  0  0  0  0  0  0  0
   61.2221   27.8988   46.6547 H   0  0  0  0  0  0  0  0  0  0  0  0
   58.4681   31.4950   48.3057 H   0  0  0  0  0  0  0  0  0  0  0  0
   58.4238   29.9395   49.1460 H   0  0  0  0  0  0  0  0  0  0  0  0
   58.6322   32.7157   50.2639 H   0  0  0  0  0  0  0  0  0  0  0  0
   58.0425   31.2537   51.0665 H   0  0  0  0  0  0  0  0  0  0  0  0
   60.5043   32.4103   51.6160 H   0  0  0  0  0  0  0  0  0  0  0  0
   60.2109   30.6811   51.8437 H   0  0  0  0  0  0  0  0  0  0  0  0
   61.7453   32.0997   49.6864 H   0  0  0  0  0  0  0  0  0  0  0  0
   61.9291   30.4319   50.2446 H   0  0  0  0  0  0  0  0  0  0  0  0
   58.8975   31.4991   46.0970 H   0  0  0  0  0  0  0  0  0  0  0  0
   58.3380   32.6690   43.8300 H   0  0  0  0  0  0  0  0  0  0  0  0
   56.1712   32.9433   45.8201 H   0  0  0  0  0  0  0  0  0  0  0  0
   57.7576   32.1793   46.1917 H   0  0  0  0  0  0  0  0  0  0  0  0
   58.0185   34.7466   44.7470 H   0  0  0  0  0  0  0  0  0  0  0  0
   57.1816   34.9040   46.3374 H   0  0  0  0  0  0  0  0  0  0  0  0
   58.3430   34.5671   48.4109 H   0  0  0  0  0  0  0  0  0  0  0  0
   60.5256   34.3277   49.5927 H   0  0  0  0  0  0  0  0  0  0  0  0
   62.4780   33.4660   45.8291 H   0  0  0  0  0  0  0  0  0  0  0  0
   60.2982   33.7062   44.6397 H   0  0  0  0  0  0  0  0  0  0  0  0
  1  2  1  0
  2  3  2  0
  3  4  1  0
  4  5  2  0
  5  6  1  0
  6  7  2  0
  6  8  1  0
  8  9  1  0
  9 10  1  0
 10 11  1  0
 11 12  1  0
  5 13  1  0
 13 14  2  0
 14 15  1  0
 15 16  2  0
 15 17  2  0
 15 18  1  0
 18 19  1  0
 19 20  1  0
 20 21  1  0
 21 22  2  0
 22 23  1  0
 23 24  2  0
 24 25  1  0
 24 26  1  0
 26 27  2  0
 14  2  1  0
 27 21  1  0
 12  8  1  0
  1 28  1  0
  1 29  1  0
  1 30  1  0
  3 31  1  0
  4 32  1  0
  9 33  1  0
  9 34  1  0
 10 35  1  0
 10 36  1  0
 11 37  1  0
 11 38  1  0
 12 39  1  0
 12 40  1  0
 13 41  1  0
 18 42  1  0
 19 43  1  0
 19 44  1  0
 20 45  1  0
 20 46  1  0
 22 47  1  0
 23 48  1  0
 26 49  1  0
 27 50  1  0
M  END
>  <UniqueID>  (31) 
31

>  <SMILES>  (31) 
Cc1ccc(C(=O)N2CCCC2)cc1S(=O)(=O)NCCc1ccc(Cl)cc1

>  <Energy>  (31) 
51.31175390124143

>  <Genealogy>  (31) 
Cc1ccc(C(=O)N2CCCC2)cc1S(=O)(=O)NCCc1ccc(Cl)cc1 (3D coordinates assigned)
Cc1ccc(C(=O)N2CCCC2)cc1S(=O)(=O)NCCc1ccc(Cl)cc1 (nonaromatic ring conformer: 51.31175390124143 kcal/mol)

>  <smiles>  (31) 
Cc1ccc(C(=O)N2CCCC2)cc1S(=O)(=O)NCCc1ccc(Cl)cc1

>  <score_type>  (31) 
oracle

>  <origin>  (31) 
adg

>  <m_score__min__energy>  (31) 
-9.5

>  <m_primary>  (31) 
energy

$$$$
31:0
     RDKit          3D

 59 61  0  0  0  0  0  0  0  0999 V2000
   61.9400   32.0780   51.7190 C   0  0  0  0  0  0  0  0  0  0  0  0
   61.8370   33.5880   51.5190 C   0  0  0  0  0  0  0  0  0  0  0  0
   62.2850   34.0090   50.1400 C   0  0  0  0  0  0  0  0  0  0  0  0
   63.4330   34.5100   49.9920 O   0  0  0  0  0  0  0  0  0  0  0  0
   61.4080   33.9010   49.0000 N   0  0  0  0  0  0  0  0  0  0  0  0
   61.9770   33.4890   47.7060 C   0  0  0  0  0  0  0  0  0  0  0  0
   61.2100   34.1290   46.5450 C   0  0  0  0  0  0  0  0  0  0  0  0
   59.7710   33.9530   46.7510 N   0  0  0  0  0  0  0  0  0  0  0  0
   59.0030   33.0160   45.9710 C   0  0  0  0  0  0  0  0  0  0  0  0
   58.4870   33.3760   44.7150 C   0  0  0  0  0  0  0  0  0  0  0  0
   57.8550   32.4270   43.9110 C   0  0  0  0  0  0  0  0  0  0  0  0
   57.7100   31.1030   44.3540 C   0  0  0  0  0  0  0  0  0  0  0  0
   57.0650   30.0780   43.4590 C   0  0  0  0  0  0  0  0  0  0  0  0
   55.8220   29.4810   44.0670 C   0  0  0  0  0  0  0  0  0  0  0  0
   54.7160   29.6790   43.5010 O   0  0  0  0  0  0  0  0  0  0  0  0
   55.8560   28.6510   45.2370 N   0  0  0  0  0  0  0  0  0  0  0  0
   56.7630   27.5300   45.4780 C   0  0  0  0  0  0  0  0  0  0  0  0
   56.0170   26.3380   46.0220 C   0  0  0  0  0  0  0  0  0  0  0  0
   54.7580   26.3120   45.9820 O   0  0  0  0  0  0  0  0  0  0  0  0
   56.7090   25.2180   46.5860 N   0  0  0  0  0  0  0  0  0  0  0  0
   57.3810   24.2090   45.8220 C   0  0  0  0  0  0  0  0  0  0  0  0
   58.7540   24.0290   46.0250 C   0  0  0  0  0  0  0  0  0  0  0  0
   59.4610   23.0760   45.2930 C   0  0  0  0  0  0  0  0  0  0  0  0
   58.7980   22.2810   44.3610 C   0  0  0  0  0  0  0  0  0  0  0  0
   57.4180   22.4110   44.1730 C   0  0  0  0  0  0  0  0  0  0  0  0
   56.6340   21.3590   42.9990 Cl  0  0  0  0  0  0  0  0  0  0  0  0
   56.6860   23.3590   44.9250 C   0  0  0  0  0  0  0  0  0  0  0  0
   55.1840   23.4150   44.7850 C   0  0  0  0  0  0  0  0  0  0  0  0
   58.1460   30.7630   45.6450 C   0  0  0  0  0  0  0  0  0  0  0  0
   58.8030   31.7060   46.4390 C   0  0  0  0  0  0  0  0  0  0  0  0
   59.2270   34.4890   48.0010 C   0  0  0  0  0  0  0  0  0  0  0  0
   59.9480   33.8420   49.1840 C   0  0  0  0  0  0  0  0  0  0  0  0
   61.9555   31.8509   52.7952 H   0  0  0  0  0  0  0  0  0  0  0  0
   61.0733   31.5864   51.2530 H   0  0  0  0  0  0  0  0  0  0  0  0
   62.8654   31.7087   51.2530 H   0  0  0  0  0  0  0  0  0  0  0  0
   60.7901   33.8942   51.6609 H   0  0  0  0  0  0  0  0  0  0  0  0
   62.4972   34.0732   52.2530 H   0  0  0  0  0  0  0  0  0  0  0  0
   63.0301   33.8031   47.6589 H   0  0  0  0  0  0  0  0  0  0  0  0
   61.8989   32.3952   47.6192 H   0  0  0  0  0  0  0  0  0  0  0  0
   61.4446   35.2027   46.4988 H   0  0  0  0  0  0  0  0  0  0  0  0
   61.5058   33.6467   45.6017 H   0  0  0  0  0  0  0  0  0  0  0  0
   58.5819   34.4138   44.3628 H   0  0  0  0  0  0  0  0  0  0  0  0
   57.4678   32.7182   42.9235 H   0  0  0  0  0  0  0  0  0  0  0  0
   56.7957   30.5600   42.5076 H   0  0  0  0  0  0  0  0  0  0  0  0
   57.7883   29.2629   43.3091 H   0  0  0  0  0  0  0  0  0  0  0  0
   57.2476   27.2495   44.5312 H   0  0  0  0  0  0  0  0  0  0  0  0
   57.5146   27.8406   46.2187 H   0  0  0  0  0  0  0  0  0  0  0  0
   59.2802   24.6451   46.7690 H   0  0  0  0  0  0  0  0  0  0  0  0
   60.5424   22.9519   45.4515 H   0  0  0  0  0  0  0  0  0  0  0  0
   59.3633   21.5462   43.7690 H   0  0  0  0  0  0  0  0  0  0  0  0
   54.7231   23.4322   45.7836 H   0  0  0  0  0  0  0  0  0  0  0  0
   54.9007   24.3243   44.2347 H   0  0  0  0  0  0  0  0  0  0  0  0
   54.8338   22.5293   44.2347 H   0  0  0  0  0  0  0  0  0  0  0  0
   57.9692   29.7490   46.0329 H   0  0  0  0  0  0  0  0  0  0  0  0
   59.1663   31.4213   47.4375 H   0  0  0  0  0  0  0  0  0  0  0  0
   59.3774   35.5783   48.0301 H   0  0  0  0  0  0  0  0  0  0  0  0
   58.1510   34.2680   48.0595 H   0  0  0  0  0  0  0  0  0  0  0  0
   59.6786   34.3763   50.1070 H   0  0  0  0  0  0  0  0  0  0  0  0
   59.6425   32.7874   49.2502 H   0  0  0  0  0  0  0  0  0  0  0  0
  1  2  1  0
  2  3  1  0
  3  4  2  0
  3  5  1  0
  5  6  1  0
  6  7  1  0
  7  8  1  0
  8  9  1  0
  9 10  2  0
 10 11  1  0
 11 12  2  0
 12 13  1  0
 13 14  1  0
 14 15  2  0
 14 16  1  0
 16 17  1  0
 17 18  1  0
 18 19  2  0
 18 20  1  0
 20 21  1  0
 21 22  2  0
 22 23  1  0
 23 24  2  0
 24 25  1  0
 25 26  1  0
 25 27  2  0
 27 28  1  0
 12 29  1  0
 29 30  2  0
  8 31  1  0
 31 32  1  0
 32  5  1  0
 30  9  1  0
 27 21  1  0
  1 33  1  0
  1 34  1  0
  1 35  1  0
  2 36  1  0
  2 37  1  0
  6 38  1  0
  6 39  1  0
  7 40  1  0
  7 41  1  0
 10 42  1  0
 11 43  1  0
 13 44  1  0
 13 45  1  0
 17 46  1  0
 17 47  1  0
 22 48  1  0
 23 49  1  0
 24 50  1  0
 28 51  1  0
 28 52  1  0
 28 53  1  0
 29 54  1  0
 30 55  1  0
 31 56  1  0
 31 57  1  0
 32 58  1  0
 32 59  1  0
M  CHG  2  16  -1  20  -1
M  END
>  <UniqueID>  (32) 
32

>  <SMILES>  (32) 
CCC(=O)N1CCN(c2ccc(CC(=O)[N-]CC(=O)[N-]c3cccc(Cl)c3C)cc2)CC1

>  <Energy>  (32) 
66.1225752505575

>  <Genealogy>  (32) 
CCC(=O)N1CCN(c2ccc(CC(=O)[N-]CC(=O)[N-]c3cccc(Cl)c3C)cc2)CC1 (protonated)
CCC(=O)N1CCN(c2ccc(CC(=O)[N-]CC(=O)[N-]c3cccc(Cl)c3C)cc2)CC1 (3D coordinates assigned)
CCC(=O)N1CCN(c2ccc(CC(=O)[N-]CC(=O)[N-]c3cccc(Cl)c3C)cc2)CC1 (nonaromatic ring conformer: 66.1225752505575 kcal/mol)

>  <smiles>  (32) 
CCC(=O)N1CCN(c2ccc(CC(=O)NCC(=O)Nc3cccc(Cl)c3C)cc2)CC1

>  <score_type>  (32) 
oracle

>  <origin>  (32) 
adg

>  <m_score__min__energy>  (32) 
-13.449999999999999

>  <m_primary>  (32) 
energy

$$$$
32:0
     RDKit          3D

 72 76  0  0  1  0  0  0  0  0999 V2000
   56.6340   29.4120   42.6340 N   0  0  0  0  0  0  0  0  0  0  0  0
   56.6150   29.8840   43.9750 C   0  0  0  0  0  0  0  0  0  0  0  0
   55.8320   29.2970   44.7680 O   0  0  0  0  0  0  0  0  0  0  0  0
   57.4300   30.9740   44.4580 C   0  0  0  0  0  0  0  0  0  0  0  0
   57.0710   32.2550   44.0850 C   0  0  0  0  0  0  0  0  0  0  0  0
   57.8250   33.2740   44.5320 N   0  0  0  0  0  0  0  0  0  0  0  0
   58.9030   33.0500   45.3230 C   0  0  0  0  0  0  0  0  0  0  0  0
   59.5610   34.0880   45.6990 N   0  0  0  0  0  0  0  0  0  0  0  0
   60.3390   34.0260   46.8860 C   0  0  0  0  0  0  0  0  0  0  0  0
   61.6870   33.8290   46.9240 C   0  0  0  0  0  0  0  0  0  0  0  0
   62.3790   33.7780   48.1140 C   0  0  0  0  0  0  0  0  0  0  0  0
   61.7380   33.9260   49.3500 C   0  0  0  0  0  0  0  0  0  0  0  0
   62.5430   33.8600   50.5410 C   0  0  0  0  0  0  0  0  0  0  0  0
   63.8150   33.8230   50.4080 O   0  0  0  0  0  0  0  0  0  0  0  0
   62.0770   33.8280   51.8710 N   0  0  0  0  0  0  0  0  0  0  0  0
   63.0730   33.7560   52.9500 C   0  0  0  0  0  0  0  0  0  0  0  0
   62.3380   33.5780   54.2560 C   0  0  0  0  0  0  0  0  0  0  0  0
   60.9640   33.3040   54.1540 N   0  0  0  0  0  0  0  0  0  0  0  0
   60.0600   34.3600   53.9950 C   0  0  0  0  0  0  0  0  0  0  0  0
   58.6960   34.0430   53.5100 C   0  0  0  0  0  0  0  0  0  0  0  0
   58.4450   32.6580   53.1110 C   0  0  0  0  0  0  0  0  0  0  0  0
   57.3070   32.3830   52.3800 C   0  0  0  0  0  0  0  0  0  0  0  0
   57.0460   31.0830   51.9890 C   0  0  0  0  0  0  0  0  0  0  0  0
   55.9020   30.8060   51.2530 O   0  0  0  0  0  0  0  0  0  0  0  0
   57.8950   30.0470   52.3120 C   0  0  0  0  0  0  0  0  0  0  0  0
   59.0280   30.3650   53.0490 C   0  0  0  0  0  0  0  0  0  0  0  0
   59.3070   31.6440   53.4450 C   0  0  0  0  0  0  0  0  0  0  0  0
   60.5080   31.9790   54.2270 C   0  0  0  0  0  0  0  0  0  0  0  0
   60.3850   34.1250   49.2920 C   0  0  0  0  0  0  0  0  0  0  0  0
   59.6430   34.2840   50.4380 O   0  0  0  0  0  0  0  0  0  0  0  0
   59.6780   34.1770   48.0870 C   0  0  0  0  0  0  0  0  0  0  0  0
   59.2440   31.8010   45.6790 N   0  0  0  0  0  0  0  0  0  0  0  0
   58.5290   30.7470   45.2640 C   0  0  0  0  0  0  0  0  0  0  0  0
   58.8150   29.5570   45.5760 N   0  0  0  0  0  0  0  0  0  0  0  0
   58.3690   28.9340   46.7960 C   0  0  0  0  0  0  0  0  0  0  0  0
   59.2190   29.4650   47.9220 C   0  0  0  0  0  0  0  0  0  0  0  0
   58.8810   30.6080   48.6090 C   0  0  0  0  0  0  0  0  0  0  0  0
   59.6180   31.1370   49.6440 C   0  0  0  0  0  0  0  0  0  0  0  0
   60.7840   30.4630   50.0150 C   0  0  0  0  0  0  0  0  0  0  0  0
   61.1240   29.3260   49.3340 C   0  0  0  0  0  0  0  0  0  0  0  0
   60.3830   28.7960   48.2950 C   0  0  0  0  0  0  0  0  0  0  0  0
   55.9100   29.6930   41.9370 H   0  0  0  0  0  0  0  0  0  0  0  0
   57.3740   28.7560   42.2680 H   0  0  0  0  0  0  0  0  0  0  0  0
   56.1962   32.4352   43.4429 H   0  0  0  0  0  0  0  0  0  0  0  0
   57.5670   34.2400   44.2600 H   0  0  0  0  0  0  0  0  0  0  0  0
   62.2371   33.7075   45.9792 H   0  0  0  0  0  0  0  0  0  0  0  0
   63.4668   33.6163   48.0926 H   0  0  0  0  0  0  0  0  0  0  0  0
   61.0680   33.8530   52.0840 H   0  0  0  0  0  0  0  0  0  0  0  0
   63.7447   32.9015   52.7808 H   0  0  0  0  0  0  0  0  0  0  0  0
   63.6754   34.6760   52.9743 H   0  0  0  0  0  0  0  0  0  0  0  0
   62.8088   32.7438   54.7968 H   0  0  0  0  0  0  0  0  0  0  0  0
   62.4110   34.5461   54.7732 H   0  0  0  0  0  0  0  0  0  0  0  0
   59.9531   34.8490   54.9745 H   0  0  0  0  0  0  0  0  0  0  0  0
   60.4979   34.9778   53.1971 H   0  0  0  0  0  0  0  0  0  0  0  0
   57.9898   34.2906   54.3162 H   0  0  0  0  0  0  0  0  0  0  0  0
   58.5713   34.6352   52.5914 H   0  0  0  0  0  0  0  0  0  0  0  0
   56.6127   33.1925   52.1105 H   0  0  0  0  0  0  0  0  0  0  0  0
   55.3960   31.5740   50.8580 H   0  0  0  0  0  0  0  0  0  0  0  0
   57.6845   29.0135   51.9998 H   0  0  0  0  0  0  0  0  0  0  0  0
   59.7255   29.5601   53.3240 H   0  0  0  0  0  0  0  0  0  0  0  0
   60.2888   31.7607   55.2826 H   0  0  0  0  0  0  0  0  0  0  0  0
   61.3144   31.3736   53.7874 H   0  0  0  0  0  0  0  0  0  0  0  0
   59.1120   35.0810   50.7160 H   0  0  0  0  0  0  0  0  0  0  0  0
   58.5900   34.3390   48.0968 H   0  0  0  0  0  0  0  0  0  0  0  0
   60.0630   31.6790   46.2760 H   0  0  0  0  0  0  0  0  0  0  0  0
   57.3122   29.1797   46.9770 H   0  0  0  0  0  0  0  0  0  0  0  0
   58.4637   27.8403   46.7259 H   0  0  0  0  0  0  0  0  0  0  0  0
   57.9615   31.1335   48.3116 H   0  0  0  0  0  0  0  0  0  0  0  0
   59.3010   32.0556   50.1595 H   0  0  0  0  0  0  0  0  0  0  0  0
   61.4140   30.8375   50.8353 H   0  0  0  0  0  0  0  0  0  0  0  0
   62.0439   28.8015   49.6319 H   0  0  0  0  0  0  0  0  0  0  0  0
   60.7011   27.8775   47.7801 H   0  0  0  0  0  0  0  0  0  0  0  0
  1  2  1  0
  2  3  2  0
  2  4  1  0
  4  5  2  0
  5  6  1  0
  6  7  1  0
  7  8  2  0
  8  9  1  0
  9 10  2  0
 10 11  1  0
 11 12  2  0
 12 13  1  0
 13 14  2  0
 13 15  1  0
 15 16  1  0
 16 17  1  0
 17 18  1  0
 18 19  1  0
 19 20  1  0
 20 21  1  0
 21 22  2  0
 22 23  1  0
 23 24  1  0
 23 25  2  0
 25 26  1  0
 26 27  2  0
 27 28  1  0
 12 29  1  0
 29 30  1  0
 29 31  2  0
  7 32  1  0
 32 33  1  0
 33 34  2  0
 34 35  1  0
 35 36  1  0
 36 37  2  0
 37 38  1  0
 38 39  2  0
 39 40  1  0
 40 41  2  0
 33  4  1  0
 41 36  1  0
 31  9  1  0
 28 18  1  0
 27 21  1  0
  1 42  1  0
  1 43  1  0
  5 44  1  0
  6 45  1  0
 10 46  1  0
 11 47  1  0
 15 48  1  0
 16 49  1  0
 16 50  1  0
 17 51  1  0
 17 52  1  0
 19 53  1  0
 19 54  1  0
 20 55  1  0
 20 56  1  0
 22 57  1  0
 24 58  1  0
 25 59  1  0
 26 60  1  0
 28 61  1  0
 28 62  1  0
 30 63  1  0
 31 64  1  0
 32 65  1  0
 35 66  1  0
 35 67  1  0
 37 68  1  0
 38 69  1  0
 39 70  1  0
 40 71  1  0
 41 72  1  0
M  END
>  <smiles>  (33) 
NC(=O)c1c[nH]c(=Nc2ccc(C(=O)NCCN3CCc4cc(O)ccc4C3)c(O)c2)[nH]c1=NCc1ccccc1

>  <score_type>  (33) 
oracle

>  <origin>  (33) 
adg

>  <m_score__min__energy>  (33) 
-12.220000000000001

>  <m_primary>  (33) 
energy

$$$$
33:0
     RDKit          3D

 56 59  0  0  0  0  0  0  0  0999 V2000
   60.4375   26.5933   49.8304 H   0  0  0  0  0  0  0  0  0  0  0  0
   60.8230   27.6120   49.9840 C   0  0  0  0  0  0  0  0  0  0  0  0
   61.8130   28.1110   51.2480 S   0  0  0  0  0  0  0  0  0  0  0  0
   61.8820   29.7040   50.7040 C   0  0  0  0  0  0  0  0  0  0  0  0
   62.5440   30.6820   51.2490 N   0  0  0  0  0  0  0  0  0  0  0  0
   63.1180   31.8250   50.5900 C   0  0  0  0  0  0  0  0  0  0  0  0
   64.2880   31.7790   50.1220 O   0  0  0  0  0  0  0  0  0  0  0  0
   62.3320   33.1250   50.5450 C   0  0  1  0  0  0  0  0  0  0  0  0
   63.2700   34.2990   50.1580 C   0  0  0  0  0  0  0  0  0  0  0  0
   63.6531   34.7785   51.0709 H   0  0  0  0  0  0  0  0  0  0  0  0
   64.1126   33.9147   49.5644 H   0  0  0  0  0  0  0  0  0  0  0  0
   62.7092   35.0360   49.5644 H   0  0  0  0  0  0  0  0  0  0  0  0
   61.2030   32.9580   49.5760 N   0  0  0  0  0  0  0  0  0  0  0  0
   61.6270   32.9850   47.8740 S   0  0  0  0  0  0  0  0  0  0  0  0
   62.7400   33.9650   47.6310 O   0  0  0  0  0  0  0  0  0  0  0  0
   62.1150   31.6210   47.4740 O   0  0  0  0  0  0  0  0  0  0  0  0
   60.2580   33.4010   46.8460 C   0  0  0  0  0  0  0  0  0  0  0  0
   59.8000   34.9620   46.4250 S   0  0  0  0  0  0  0  0  0  0  0  0
   58.5380   34.5110   45.4090 C   0  0  0  0  0  0  0  0  0  0  0  0
   57.8759   35.1971   44.8606 H   0  0  0  0  0  0  0  0  0  0  0  0
   58.4750   33.1240   45.3810 C   0  0  0  0  0  0  0  0  0  0  0  0
   57.7345   32.5673   44.7880 H   0  0  0  0  0  0  0  0  0  0  0  0
   59.4420   32.5010   46.1780 C   0  0  0  0  0  0  0  0  0  0  0  0
   59.5442   31.4093   46.2655 H   0  0  0  0  0  0  0  0  0  0  0  0
   60.0410   33.8160   49.8590 C   0  0  0  0  0  0  0  0  0  0  0  0
   59.3064   33.7111   49.0470 H   0  0  0  0  0  0  0  0  0  0  0  0
   60.3774   34.8608   49.9310 H   0  0  0  0  0  0  0  0  0  0  0  0
   59.3870   33.4090   51.1900 C   0  0  0  0  0  0  0  0  0  0  0  0
   58.6005   32.6681   50.9840 H   0  0  0  0  0  0  0  0  0  0  0  0
   58.9762   34.3191   51.6514 H   0  0  0  0  0  0  0  0  0  0  0  0
   60.3920   32.7980   52.1800 C   0  0  0  0  0  0  0  0  0  0  0  0
   60.4418   31.7112   52.0178 H   0  0  0  0  0  0  0  0  0  0  0  0
   60.0553   33.0190   53.2036 H   0  0  0  0  0  0  0  0  0  0  0  0
   61.7860   33.3980   51.9840 C   0  0  0  0  0  0  0  0  0  0  0  0
   62.4734   32.9513   52.7175 H   0  0  0  0  0  0  0  0  0  0  0  0
   61.7152   34.4867   52.1247 H   0  0  0  0  0  0  0  0  0  0  0  0
   61.1670   29.8710   49.5730 N   0  0  0  0  0  0  0  0  0  0  0  0
   60.5740   28.7160   49.1610 C   0  0  0  0  0  0  0  0  0  0  0  0
   59.7290   28.6750   47.9410 C   0  0  0  0  0  0  0  0  0  0  0  0
   60.1460   29.3470   46.7780 C   0  0  0  0  0  0  0  0  0  0  0  0
   61.0968   29.9002   46.7801 H   0  0  0  0  0  0  0  0  0  0  0  0
   59.3640   29.3190   45.6190 C   0  0  0  0  0  0  0  0  0  0  0  0
   59.6953   29.8658   44.7239 H   0  0  0  0  0  0  0  0  0  0  0  0
   58.1620   28.6000   45.5890 C   0  0  0  0  0  0  0  0  0  0  0  0
   57.3700   28.6030   44.3910 N   0  0  0  0  0  0  0  0  0  0  0  0
   57.3110   27.7170   43.8380 H   0  0  0  0  0  0  0  0  0  0  0  0
   56.5380   29.6990   43.9800 C   0  0  0  0  0  0  0  0  0  0  0  0
   56.3160   30.6670   44.7580 O   0  0  0  0  0  0  0  0  0  0  0  0
   55.8900   29.6740   42.6330 C   0  0  0  0  0  0  0  0  0  0  0  0
   54.7973   29.6318   42.7525 H   0  0  0  0  0  0  0  0  0  0  0  0
   56.1633   30.5834   42.0777 H   0  0  0  0  0  0  0  0  0  0  0  0
   56.2326   28.7884   42.0777 H   0  0  0  0  0  0  0  0  0  0  0  0
   57.7340   27.9380   46.7510 C   0  0  0  0  0  0  0  0  0  0  0  0
   56.7798   27.3907   46.7471 H   0  0  0  0  0  0  0  0  0  0  0  0
   58.5110   27.9690   47.9130 C   0  0  0  0  0  0  0  0  0  0  0  0
   58.1679   27.4374   48.8128 H   0  0  0  0  0  0  0  0  0  0  0  0
  1  2  1  0
  2  3  1  0
  3  4  1  0
  4  5  2  0
  5  6  1  0
  6  7  2  0
  6  8  1  0
  8  9  1  6
  9 10  1  0
  9 11  1  0
  9 12  1  0
  8 13  1  0
 13 14  1  0
 14 15  2  0
 14 16  2  0
 14 17  1  0
 17 18  1  0
 18 19  1  0
 19 20  1  0
 19 21  2  0
 21 22  1  0
 21 23  1  0
 23 24  1  0
 13 25  1  0
 25 26  1  0
 25 27  1  0
 25 28  1  0
 28 29  1  0
 28 30  1  0
 28 31  1  0
 31 32  1  0
 31 33  1  0
 31 34  1  0
 34 35  1  0
 34 36  1  0
  4 37  1  0
 37 38  1  0
 38 39  1  0
 39 40  2  0
 40 41  1  0
 40 42  1  0
 42 43  1  0
 42 44  2  0
 44 45  1  0
 45 46  1  0
 45 47  1  0
 47 48  2  0
 47 49  1  0
 49 50  1  0
 49 51  1  0
 49 52  1  0
 44 53  1  0
 53 54  1  0
 53 55  2  0
 55 56  1  0
 38  2  2  0
 55 39  1  0
 34  8  1  0
 23 17  2  0
M  CHG  1  37  -1
M  END
>  <UniqueID>  (34) 
33

>  <SMILES>  (34) 
CC(=O)Nc1ccc(-c2cs/c(=N\C(=O)[C@]3(C)CCCCN3S(=O)(=O)c3cccs3)[n-]2)cc1

>  <Energy>  (34) 
132.39085740547412

>  <Genealogy>  (34) 
CC(=O)Nc1ccc(-c2csc(=NC(=O)C3(C)CCCCN3S(=O)(=O)c3cccs3)[n-]2)cc1 (protonated)
CC(=O)Nc1ccc(-c2csc(=NC(=O)[C@]3(C)CCCCN3S(=O)(=O)c3cccs3)[n-]2)cc1 (chirality)
CC(=O)Nc1ccc(-c2cs/c(=N\C(=O)[C@]3(C)CCCCN3S(=O)(=O)c3cccs3)[n-]2)cc1 (cis-trans isomerization)
CC(=O)Nc1ccc(-c2cs/c(=N\C(=O)[C@]3(C)CCCCN3S(=O)(=O)c3cccs3)[n-]2)cc1 (3D coordinates assigned)
CC(=O)Nc1ccc(-c2cs/c(=N\C(=O)[C@]3(C)CCCCN3S(=O)(=O)c3cccs3)[n-]2)cc1 (nonaromatic ring conformer: 132.39085740547412 kcal/mol)

>  <smiles>  (34) 
CC(=O)Nc1ccc(-c2csc(=NC(=O)C3(C)CCCCN3S(=O)(=O)c3cccs3)[nH]2)cc1

>  <score_type>  (34) 
oracle

>  <origin>  (34) 
adg

>  <m_score__min__energy>  (34) 
-10.140000000000001

>  <m_primary>  (34) 
energy

$$$$
34:0
     RDKit          3D

 27 29  0  0  0  0  0  0  0  0999 V2000
   57.2590   34.1620   45.6220 C   0  0  0  0  0  0  0  0  0  0  0  0
   57.4700   33.0280   44.9560 C   0  0  0  0  0  0  0  0  0  0  0  0
   57.8650   32.9380   43.6350 C   0  0  0  0  0  0  0  0  0  0  0  0
   57.9640   31.5880   43.3520 C   0  0  0  0  0  0  0  0  0  0  0  0
   57.6230   30.9160   44.5190 C   0  0  0  0  0  0  0  0  0  0  0  0
   57.5860   29.5840   44.6850 C   0  0  0  0  0  0  0  0  0  0  0  0
   57.1560   28.9990   45.8310 N   0  0  0  0  0  0  0  0  0  0  0  0
   57.2760   27.6750   45.5960 C   0  0  0  0  0  0  0  0  0  0  0  0
   56.9590   26.7060   46.4680 C   0  0  0  0  0  0  0  0  0  0  0  0
   55.8890   25.7170   46.2440 C   0  0  0  0  0  0  0  0  0  0  0  0
   55.9550   24.4230   46.6310 N   0  0  0  0  0  0  0  0  0  0  0  0
   54.7820   23.9050   46.2310 C   0  0  0  0  0  0  0  0  0  0  0  0
   54.0410   24.8840   45.6160 C   0  0  0  0  0  0  0  0  0  0  0  0
   54.7340   26.0340   45.6210 N   0  0  0  0  0  0  0  0  0  0  0  0
   57.7710   27.4960   44.3240 C   0  0  0  0  0  0  0  0  0  0  0  0
   58.0110   26.3920   43.7640 O   0  0  0  0  0  0  0  0  0  0  0  0
   57.9690   28.6880   43.7460 N   0  0  0  0  0  0  0  0  0  0  0  0
   57.3230   31.8020   45.4940 N   0  0  0  0  0  0  0  0  0  0  0  0
   56.9450   34.1307   46.6758 H   0  0  0  0  0  0  0  0  0  0  0  0
   57.3987   35.1298   45.1183 H   0  0  0  0  0  0  0  0  0  0  0  0
   58.0614   33.7730   42.9464 H   0  0  0  0  0  0  0  0  0  0  0  0
   58.2552   31.1357   42.3925 H   0  0  0  0  0  0  0  0  0  0  0  0
   57.5313   26.6459   47.4055 H   0  0  0  0  0  0  0  0  0  0  0  0
   54.4650   22.8614   46.3736 H   0  0  0  0  0  0  0  0  0  0  0  0
   53.0374   24.7475   45.1868 H   0  0  0  0  0  0  0  0  0  0  0  0
   58.3370   28.8640   42.7840 H   0  0  0  0  0  0  0  0  0  0  0  0
   57.0320   31.5840   46.4750 H   0  0  0  0  0  0  0  0  0  0  0  0
  1  2  2  0
  2  3  1  0
  3  4  2  0
  4  5  1  0
  5  6  2  3
  6  7  1  0
  7  8  1  0
  8  9  2  3
  9 10  1  0
 10 11  2  0
 11 12  1  0
 12 13  2  0
 13 14  1  0
  8 15  1  0
 15 16  2  0
 15 17  1  0
  5 18  1  0
 18  2  1  0
 17  6  1  0
 14 10  1  0
  1 19  1  0
  1 20  1  0
  3 21  1  0
  4 22  1  0
  9 23  1  0
 12 24  1  0
 13 25  1  0
 17 26  1  0
 18 27  1  0
M  CHG  2   7  -1  14  -1
M  END
>  <UniqueID>  (35) 
34

>  <SMILES>  (35) 
C=c1ccc(=c2[n-]c(=Cc3ncc[n-]3)c(=O)[nH]2)[nH]1

>  <Energy>  (35) 
115.17843228995818

>  <Genealogy>  (35) 
C=c1ccc(=c2[n-]c(=Cc3ncc[n-]3)c(=O)[nH]2)[nH]1 (protonated)
C=c1ccc(=c2[n-]c(=Cc3ncc[n-]3)c(=O)[nH]2)[nH]1 (3D coordinates assigned)
C=c1ccc(=c2[n-]c(=Cc3ncc[n-]3)c(=O)[nH]2)[nH]1 (optimized conformer: 115.17843228995818 kcal/mol)

>  <smiles>  (35) 
C=c1ccc(=c2[nH]c(=O)c(=Cc3ncc[nH]3)[nH]2)[nH]1

>  <score_type>  (35) 
oracle

>  <origin>  (35) 
adg

>  <m_score__min__energy>  (35) 
-9.8300000000000001

>  <m_primary>  (35) 
energy

$$$$
35:0
     RDKit          3D

 40 42  0  0  0  0  0  0  0  0999 V2000
   54.1340   29.3740   54.8430 C   0  0  0  0  0  0  0  0  0  0  0  0
   54.7910   29.9210   53.8030 C   0  0  0  0  0  0  0  0  0  0  0  0
   54.1870   30.5650   52.7180 C   0  0  0  0  0  0  0  0  0  0  0  0
   52.8780   30.8500   52.5590 C   0  0  0  0  0  0  0  0  0  0  0  0
   52.2070   30.9590   51.2490 C   0  0  0  0  0  0  0  0  0  0  0  0
   52.2250   30.0320   50.2760 N   0  0  0  0  0  0  0  0  0  0  0  0
   51.3950   30.5140   49.3310 C   0  0  0  0  0  0  0  0  0  0  0  0
   51.1540   29.9070   48.2540 O   0  0  0  0  0  0  0  0  0  0  0  0
   50.8260   31.6980   49.6470 N   0  0  0  0  0  0  0  0  0  0  0  0
   51.3410   31.9580   50.8650 C   0  0  0  0  0  0  0  0  0  0  0  0
   51.0190   33.0840   51.6120 O   0  0  0  0  0  0  0  0  0  0  0  0
   55.2060   30.8930   51.8460 C   0  0  0  0  0  0  0  0  0  0  0  0
   56.3790   30.4340   52.4080 C   0  0  0  0  0  0  0  0  0  0  0  0
   57.6710   30.5290   51.7070 C   0  0  0  0  0  0  0  0  0  0  0  0
   58.0700   29.5810   50.9780 O   0  0  0  0  0  0  0  0  0  0  0  0
   58.4260   31.7420   51.7950 N   0  0  0  0  0  0  0  0  0  0  0  0
   58.7870   32.4120   50.7490 C   0  0  0  0  0  0  0  0  0  0  0  0
   58.8400   32.6270   49.2390 C   0  0  0  0  0  0  0  0  0  0  0  0
   59.4820   33.5910   50.0730 C   0  0  0  0  0  0  0  0  0  0  0  0
   56.1460   29.8740   53.6290 N   0  0  0  0  0  0  0  0  0  0  0  0
   57.1360   29.3800   54.6190 C   0  0  1  0  0  0  0  0  0  0  0  0
   57.4230   27.8920   54.4000 C   0  0  0  0  0  0  0  0  0  0  0  0
   58.4220   30.2370   54.6640 C   0  0  0  0  0  0  0  0  0  0  0  0
   59.4100   29.6890   53.8320 O   0  0  0  0  0  0  0  0  0  0  0  0
   54.6957   28.8866   55.6535 H   0  0  0  0  0  0  0  0  0  0  0  0
   53.0354   29.4144   54.8822 H   0  0  0  0  0  0  0  0  0  0  0  0
   52.2724   31.0114   53.4630 H   0  0  0  0  0  0  0  0  0  0  0  0
   52.7170   29.1100   50.2690 H   0  0  0  0  0  0  0  0  0  0  0  0
   55.1022   31.4199   50.8860 H   0  0  0  0  0  0  0  0  0  0  0  0
   59.4487   31.9561   48.6150 H   0  0  0  0  0  0  0  0  0  0  0  0
   58.0784   32.6863   48.4475 H   0  0  0  0  0  0  0  0  0  0  0  0
   60.5801   33.6549   50.0849 H   0  0  0  0  0  0  0  0  0  0  0  0
   59.4088   34.6837   50.1757 H   0  0  0  0  0  0  0  0  0  0  0  0
   56.6856   29.4883   55.6167 H   0  0  0  0  0  0  0  0  0  0  0  0
   57.5198   27.3900   55.3740 H   0  0  0  0  0  0  0  0  0  0  0  0
   56.5958   27.4384   53.8343 H   0  0  0  0  0  0  0  0  0  0  0  0
   58.3596   27.7786   53.8343 H   0  0  0  0  0  0  0  0  0  0  0  0
   58.1887   31.2570   54.3248 H   0  0  0  0  0  0  0  0  0  0  0  0
   58.7992   30.2565   55.6971 H   0  0  0  0  0  0  0  0  0  0  0  0
   59.2050   29.9860   52.9070 H   0  0  0  0  0  0  0  0  0  0  0  0
  1  2  2  0
  2  3  1  0
  3  4  2  3
  4  5  1  0
  5  6  1  0
  6  7  1  0
  7  8  2  0
  7  9  1  0
  9 10  1  0
 10 11  1  0
  3 12  1  0
 12 13  2  0
 13 14  1  0
 14 15  2  0
 14 16  1  0
 16 17  2  3
 17 18  1  0
 18 19  1  0
 13 20  1  0
 20 21  1  0
 21 22  1  0
 21 23  1  0
 23 24  1  0
 20  2  1  0
 10  5  2  0
 19 17  1  0
  1 25  1  0
  1 26  1  0
  4 27  1  0
  6 28  1  0
 12 29  1  0
 18 30  1  0
 18 31  1  0
 19 32  1  0
 19 33  1  0
 21 34  1  1
 22 35  1  0
 22 36  1  0
 22 37  1  0
 23 38  1  0
 23 39  1  0
 24 40  1  0
M  CHG  2   9  -1  11  -1
M  END
>  <UniqueID>  (36) 
35

>  <SMILES>  (36) 
C=c1c(=Cc2[nH]c(=O)[n-]c2[O-])cc(C(=O)N=C2CC2)n1[C@@H](C)CO

>  <Energy>  (36) 
282.1774379695958

>  <Genealogy>  (36) 
C=c1c(=Cc2[nH]c(=O)[n-]c2[O-])cc(C(=O)N=C2CC2)n1C(C)CO (protonated)
C=c1c(=Cc2[nH]c(=O)[n-]c2[O-])cc(C(=O)N=C2CC2)n1[C@@H](C)CO (chirality)
C=c1c(=Cc2[nH]c(=O)[n-]c2[O-])cc(C(=O)N=C2CC2)n1[C@@H](C)CO (3D coordinates assigned)
C=c1c(=Cc2[nH]c(=O)[n-]c2[O-])cc(C(=O)N=C2CC2)n1[C@@H](C)CO (nonaromatic ring conformer: 282.1774379695958 kcal/mol)

>  <smiles>  (36) 
C=c1c(=Cc2[nH]c(=O)[nH]c2O)cc(C(=O)N=C2CC2)n1C(C)CO

>  <score_type>  (36) 
oracle

>  <origin>  (36) 
adg

>  <m_score__min__energy>  (36) 
-12.85

>  <m_primary>  (36) 
energy

$$$$
36:0
     RDKit          3D

 55 58  0  0  0  0  0  0  0  0999 V2000
   54.9440   29.4750   43.2250 O   0  0  0  0  0  0  0  0  0  0  0  0
   55.8050   29.7090   44.1130 C   0  0  0  0  0  0  0  0  0  0  0  0
   55.8950   28.8190   45.2350 N   0  0  0  0  0  0  0  0  0  0  0  0
   56.7780   27.6610   45.3400 C   0  0  0  0  0  0  0  0  0  0  0  0
   58.2100   28.0790   45.4510 C   0  0  0  0  0  0  0  0  0  0  0  0
   59.0090   28.5440   44.4250 C   0  0  0  0  0  0  0  0  0  0  0  0
   60.2250   28.8320   45.0020 C   0  0  0  0  0  0  0  0  0  0  0  0
   60.0900   28.5370   46.3420 C   0  0  0  0  0  0  0  0  0  0  0  0
   58.8770   28.0970   46.5780 O   0  0  0  0  0  0  0  0  0  0  0  0
   56.7200   30.8520   43.9350 C   0  0  0  0  0  0  0  0  0  0  0  0
   57.1020   31.2430   42.6430 C   0  0  0  0  0  0  0  0  0  0  0  0
   57.9830   32.3110   42.4630 C   0  0  0  0  0  0  0  0  0  0  0  0
   58.4810   33.0000   43.5680 C   0  0  0  0  0  0  0  0  0  0  0  0
   58.0860   32.6380   44.8590 C   0  0  0  0  0  0  0  0  0  0  0  0
   58.7670   33.4840   46.2450 S   0  0  0  0  0  0  0  0  0  0  0  0
   57.6670   34.1070   47.0610 O   0  0  0  0  0  0  0  0  0  0  0  0
   59.6820   34.5700   45.7530 O   0  0  0  0  0  0  0  0  0  0  0  0
   59.6540   32.3350   47.2200 N   0  0  0  0  0  0  0  0  0  0  0  0
   58.8180   31.1500   47.5340 C   0  0  0  0  0  0  0  0  0  0  0  0
   58.9150   30.6930   48.9930 C   0  0  0  0  0  0  0  0  0  0  0  0
   58.6600   31.8390   49.8720 N   0  0  0  0  0  0  0  0  0  0  0  0
   57.7700   31.7390   51.0000 C   0  0  0  0  0  0  0  0  0  0  0  0
   57.5260   32.7610   51.6960 O   0  0  0  0  0  0  0  0  0  0  0  0
   57.1920   30.4760   51.3580 N   0  0  0  0  0  0  0  0  0  0  0  0
   56.0390   30.2760   52.1860 C   0  0  0  0  0  0  0  0  0  0  0  0
   54.7890   30.7270   51.7290 C   0  0  0  0  0  0  0  0  0  0  0  0
   53.6470   30.5750   52.5250 C   0  0  0  0  0  0  0  0  0  0  0  0
   53.7490   29.9770   53.7880 C   0  0  0  0  0  0  0  0  0  0  0  0
   54.9930   29.5450   54.2610 C   0  0  0  0  0  0  0  0  0  0  0  0
   56.1360   29.6980   53.4670 C   0  0  0  0  0  0  0  0  0  0  0  0
   59.3350   33.1130   49.5930 C   0  0  0  0  0  0  0  0  0  0  0  0
   60.2870   32.9890   48.3900 C   0  0  0  0  0  0  0  0  0  0  0  0
   57.1940   31.5730   45.0390 C   0  0  0  0  0  0  0  0  0  0  0  0
   56.5036   27.0808   46.2333 H   0  0  0  0  0  0  0  0  0  0  0  0
   56.6629   27.0525   44.4309 H   0  0  0  0  0  0  0  0  0  0  0  0
   58.7314   28.6600   43.3669 H   0  0  0  0  0  0  0  0  0  0  0  0
   61.1222   29.2189   44.4967 H   0  0  0  0  0  0  0  0  0  0  0  0
   60.8799   28.6530   47.0987 H   0  0  0  0  0  0  0  0  0  0  0  0
   56.7059   30.7061   41.7685 H   0  0  0  0  0  0  0  0  0  0  0  0
   58.2846   32.6092   41.4481 H   0  0  0  0  0  0  0  0  0  0  0  0
   59.1870   33.8311   43.4234 H   0  0  0  0  0  0  0  0  0  0  0  0
   57.7686   31.3990   47.3177 H   0  0  0  0  0  0  0  0  0  0  0  0
   59.1911   30.3217   46.9137 H   0  0  0  0  0  0  0  0  0  0  0  0
   58.1677   29.9087   49.1839 H   0  0  0  0  0  0  0  0  0  0  0  0
   59.9198   30.2910   49.1897 H   0  0  0  0  0  0  0  0  0  0  0  0
   54.7071   31.2022   50.7403 H   0  0  0  0  0  0  0  0  0  0  0  0
   52.6705   30.9249   52.1590 H   0  0  0  0  0  0  0  0  0  0  0  0
   52.8500   29.8470   54.4085 H   0  0  0  0  0  0  0  0  0  0  0  0
   55.0730   29.0850   55.2570 H   0  0  0  0  0  0  0  0  0  0  0  0
   57.1140   29.3654   53.8451 H   0  0  0  0  0  0  0  0  0  0  0  0
   58.5773   33.8794   49.3730 H   0  0  0  0  0  0  0  0  0  0  0  0
   59.9267   33.3936   50.4768 H   0  0  0  0  0  0  0  0  0  0  0  0
   60.6132   33.9972   48.0949 H   0  0  0  0  0  0  0  0  0  0  0  0
   61.1340   32.3603   48.7021 H   0  0  0  0  0  0  0  0  0  0  0  0
   56.8639   31.3013   46.0525 H   0  0  0  0  0  0  0  0  0  0  0  0
  1  2  2  0
  2  3  1  0
  3  4  1  0
  4  5  1  0
  5  6  2  0
  6  7  1  0
  7  8  2  0
  8  9  1  0
  2 10  1  0
 10 11  2  0
 11 12  1  0
 12 13  2  0
 13 14  1  0
 14 15  1  0
 15 16  2  0
 15 17  2  0
 15 18  1  0
 18 19  1  0
 19 20  1  0
 20 21  1  0
 21 22  1  0
 22 23  2  0
 22 24  1  0
 24 25  1  0
 25 26  2  0
 26 27  1  0
 27 28  2  0
 28 29  1  0
 29 30  2  0
 21 31  1  0
 31 32  1  0
 14 33  2  0
  9  5  1  0
 33 10  1  0
 32 18  1  0
 30 25  1  0
  4 34  1  0
  4 35  1  0
  6 36  1  0
  7 37  1  0
  8 38  1  0
 11 39  1  0
 12 40  1  0
 13 41  1  0
 19 42  1  0
 19 43  1  0
 20 44  1  0
 20 45  1  0
 26 46  1  0
 27 47  1  0
 28 48  1  0
 29 49  1  0
 30 50  1  0
 31 51  1  0
 31 52  1  0
 32 53  1  0
 32 54  1  0
 33 55  1  0
M  CHG  2   3  -1  24  -1
M  END
>  <UniqueID>  (37) 
36

>  <SMILES>  (37) 
O=C([N-]Cc1ccco1)c1cccc(S(=O)(=O)N2CCN(C(=O)[N-]c3ccccc3)CC2)c1

>  <Energy>  (37) 
94.5563395043871

>  <Genealogy>  (37) 
O=C([N-]Cc1ccco1)c1cccc(S(=O)(=O)N2CCN(C(=O)[N-]c3ccccc3)CC2)c1 (protonated)
O=C([N-]Cc1ccco1)c1cccc(S(=O)(=O)N2CCN(C(=O)[N-]c3ccccc3)CC2)c1 (3D coordinates assigned)
O=C([N-]Cc1ccco1)c1cccc(S(=O)(=O)N2CCN(C(=O)[N-]c3ccccc3)CC2)c1 (nonaromatic ring conformer: 94.5563395043871 kcal/mol)

>  <smiles>  (37) 
O=C(NCc1ccco1)c1cccc(S(=O)(=O)N2CCN(C(=O)Nc3ccccc3)CC2)c1

>  <score_type>  (37) 
oracle

>  <origin>  (37) 
adg

>  <m_score__min__energy>  (37) 
-12.970000000000001

>  <m_primary>  (37) 
energy

$$$$
37:0
     RDKit          3D

 54 57  0  0  0  0  0  0  0  0999 V2000
   61.3801   25.6805   48.3089 H   0  0  0  0  0  0  0  0  0  0  0  0
   61.0420   26.6510   48.7010 C   0  0  0  0  0  0  0  0  0  0  0  0
   61.4509   27.0344   49.6475 H   0  0  0  0  0  0  0  0  0  0  0  0
   60.1310   27.3670   48.0250 C   0  0  0  0  0  0  0  0  0  0  0  0
   59.6620   28.5730   48.4410 N   0  0  0  0  0  0  0  0  0  0  0  0
   60.0470   29.3540   49.6250 C   0  0  0  0  0  0  0  0  0  0  0  0
   59.1441   29.6143   50.1969 H   0  0  0  0  0  0  0  0  0  0  0  0
   60.7262   28.7506   50.2451 H   0  0  0  0  0  0  0  0  0  0  0  0
   60.7560   30.6200   49.2120 C   0  0  0  0  0  0  0  0  0  0  0  0
   61.9190   30.7740   49.5500 O   0  0  0  0  0  0  0  0  0  0  0  0
   60.0990   31.6130   48.3810 N   0  0  0  0  0  0  0  0  0  0  0  0
   59.1350   31.2750   48.1370 H   0  0  0  0  0  0  0  0  0  0  0  0
   59.9590   32.8950   49.1050 C   0  0  0  0  0  0  0  0  0  0  0  0
   59.3659   32.7335   50.0172 H   0  0  0  0  0  0  0  0  0  0  0  0
   60.9598   33.2687   49.3671 H   0  0  0  0  0  0  0  0  0  0  0  0
   59.2480   33.9430   48.2120 C   0  0  0  0  0  0  0  0  0  0  0  0
   58.2366   34.1157   48.6085 H   0  0  0  0  0  0  0  0  0  0  0  0
   59.8530   34.8615   48.2300 H   0  0  0  0  0  0  0  0  0  0  0  0
   59.1410   33.5250   46.8600 O   0  0  0  0  0  0  0  0  0  0  0  0
   60.4000   33.0850   46.3880 C   0  0  0  0  0  0  0  0  0  0  0  0
   60.3268   32.8760   45.3105 H   0  0  0  0  0  0  0  0  0  0  0  0
   61.1406   33.8756   46.5788 H   0  0  0  0  0  0  0  0  0  0  0  0
   60.8510   31.8030   47.1210 C   0  0  0  0  0  0  0  0  0  0  0  0
   60.6785   30.9361   46.4663 H   0  0  0  0  0  0  0  0  0  0  0  0
   61.9193   31.8993   47.3647 H   0  0  0  0  0  0  0  0  0  0  0  0
   58.7850   28.9490   47.4930 C   0  0  0  0  0  0  0  0  0  0  0  0
   58.1500   30.0420   47.5090 O   0  0  0  0  0  0  0  0  0  0  0  0
   58.7260   27.9930   46.4970 C   0  0  0  0  0  0  0  0  0  0  0  0
   57.9810   28.1220   45.3790 C   0  0  0  0  0  0  0  0  0  0  0  0
   57.6709   27.1974   44.8702 H   0  0  0  0  0  0  0  0  0  0  0  0
   57.5490   29.3970   44.7840 C   0  0  0  0  0  0  0  0  0  0  0  0
   58.5500   30.7220   44.4540 S   0  0  0  0  0  0  0  0  0  0  0  0
   57.2470   31.7160   44.0740 C   0  0  0  0  0  0  0  0  0  0  0  0
   57.3520   32.9200   43.7110 O   0  0  0  0  0  0  0  0  0  0  0  0
   56.0560   31.0900   44.2170 N   0  0  0  0  0  0  0  0  0  0  0  0
   56.2260   29.8030   44.6290 C   0  0  0  0  0  0  0  0  0  0  0  0
   55.1430   28.9660   44.8790 O   0  0  0  0  0  0  0  0  0  0  0  0
   59.5570   26.9650   46.8490 N   0  0  0  0  0  0  0  0  0  0  0  0
   59.5510   25.5760   46.3450 C   0  0  0  0  0  0  0  0  0  0  0  0
   60.1185   25.5315   45.4038 H   0  0  0  0  0  0  0  0  0  0  0  0
   60.0125   24.9244   47.1016 H   0  0  0  0  0  0  0  0  0  0  0  0
   58.1410   25.1030   46.0950 C   0  0  0  0  0  0  0  0  0  0  0  0
   57.7010   24.8670   44.7850 C   0  0  0  0  0  0  0  0  0  0  0  0
   58.3918   25.0125   43.9414 H   0  0  0  0  0  0  0  0  0  0  0  0
   56.3900   24.4480   44.5450 C   0  0  0  0  0  0  0  0  0  0  0  0
   56.0511   24.2804   43.5120 H   0  0  0  0  0  0  0  0  0  0  0  0
   55.5010   24.2390   45.6130 C   0  0  0  0  0  0  0  0  0  0  0  0
   54.1140   23.7980   45.3580 C   0  0  0  0  0  0  0  0  0  0  0  0
   53.8740   22.6200   44.9820 O   0  0  0  0  0  0  0  0  0  0  0  0
   53.0560   24.6800   45.5320 O   0  0  0  0  0  0  0  0  0  0  0  0
   55.9520   24.4530   46.9260 C   0  0  0  0  0  0  0  0  0  0  0  0
   55.2698   24.2848   47.7723 H   0  0  0  0  0  0  0  0  0  0  0  0
   57.2610   24.8780   47.1640 C   0  0  0  0  0  0  0  0  0  0  0  0
   57.6043   25.0374   48.1969 H   0  0  0  0  0  0  0  0  0  0  0  0
  1  2  1  0
  2  3  1  0
  2  4  2  0
  4  5  1  0
  5  6  1  0
  6  7  1  0
  6  8  1  0
  6  9  1  0
  9 10  2  0
  9 11  1  0
 11 12  1  0
 11 13  1  0
 13 14  1  0
 13 15  1  0
 13 16  1  0
 16 17  1  0
 16 18  1  0
 16 19  1  0
 19 20  1  0
 20 21  1  0
 20 22  1  0
 20 23  1  0
 23 24  1  0
 23 25  1  0
  5 26  1  0
 26 27  2  0
 26 28  1  0
 28 29  2  0
 29 30  1  0
 29 31  1  0
 31 32  1  0
 32 33  1  0
 33 34  2  0
 33 35  1  0
 35 36  1  0
 36 37  1  0
 28 38  1  0
 38 39  1  0
 39 40  1  0
 39 41  1  0
 39 42  1  0
 42 43  2  0
 43 44  1  0
 43 45  1  0
 45 46  1  0
 45 47  2  0
 47 48  1  0
 48 49  2  0
 48 50  1  0
 47 51  1  0
 51 52  1  0
 51 53  2  0
 53 54  1  0
 38  4  1  0
 53 42  1  0
 23 11  1  0
 36 31  2  0
M  CHG  4  11   1  35  -1  37  -1  50  -1
M  END
>  <UniqueID>  (38) 
37

>  <SMILES>  (38) 
C=c1n(CC(=O)[NH+]2CCOCC2)c(=O)/c(=C/c2sc(=O)[n-]c2[O-])n1Cc1ccc(C(=O)[O-])cc1

>  <Energy>  (38) 
147.67744693504739

>  <Genealogy>  (38) 
C=c1n(CC(=O)[NH+]2CCOCC2)c(=O)c(=Cc2sc(=O)[n-]c2[O-])n1Cc1ccc(C(=O)[O-])cc1 (protonated)
C=c1n(CC(=O)[NH+]2CCOCC2)c(=O)/c(=C/c2sc(=O)[n-]c2[O-])n1Cc1ccc(C(=O)[O-])cc1 (cis-trans isomerization)
C=c1n(CC(=O)[NH+]2CCOCC2)c(=O)/c(=C/c2sc(=O)[n-]c2[O-])n1Cc1ccc(C(=O)[O-])cc1 (3D coordinates assigned)
C=c1n(CC(=O)[NH+]2CCOCC2)c(=O)/c(=C/c2sc(=O)[n-]c2[O-])n1Cc1ccc(C(=O)[O-])cc1 (nonaromatic ring conformer: 147.67744693504739 kcal/mol)

>  <smiles>  (38) 
C=c1n(CC(=O)N2CCOCC2)c(=O)c(=Cc2sc(=O)[nH]c2O)n1Cc1ccc(C(=O)O)cc1

>  <score_type>  (38) 
oracle

>  <origin>  (38) 
adg

>  <m_score__min__energy>  (38) 
-13.470000000000001

>  <m_primary>  (38) 
energy

$$$$
38:0
     RDKit          3D

 61 64  0  0  0  0  0  0  0  0999 V2000
   56.1460   28.6640   44.3390 H   0  0  0  0  0  0  0  0  0  0  0  0
   55.7800   28.3770   45.2370 O   0  0  0  0  0  0  0  0  0  0  0  0
   56.0010   27.0880   45.7280 C   0  0  0  0  0  0  0  0  0  0  0  0
   55.0320   26.1660   45.8350 N   0  0  0  0  0  0  0  0  0  0  0  0
   55.6860   25.1110   46.3610 C   0  0  0  0  0  0  0  0  0  0  0  0
   55.1140   24.0230   46.6230 O   0  0  0  0  0  0  0  0  0  0  0  0
   57.0030   25.3140   46.5930 N   0  0  0  0  0  0  0  0  0  0  0  0
   57.2000   26.5710   46.1630 C   0  0  0  0  0  0  0  0  0  0  0  0
   58.4730   27.2990   46.2770 C   0  0  0  0  0  0  0  0  0  0  0  0
   59.0753   27.4059   45.3627 H   0  0  0  0  0  0  0  0  0  0  0  0
   58.9640   27.8460   47.4060 C   0  0  0  0  0  0  0  0  0  0  0  0
   58.5070   29.0490   47.9080 C   0  0  0  0  0  0  0  0  0  0  0  0
   57.7486   29.7014   47.4507 H   0  0  0  0  0  0  0  0  0  0  0  0
   59.1790   29.2790   49.0890 C   0  0  0  0  0  0  0  0  0  0  0  0
   58.9440   30.4470   49.9600 C   0  0  0  0  0  0  0  0  0  0  0  0
   57.9020   30.4700   50.6620 O   0  0  0  0  0  0  0  0  0  0  0  0
   59.8680   31.5590   50.0020 N   0  0  0  0  0  0  0  0  0  0  0  0
   59.5160   32.7740   50.7440 C   0  0  0  0  0  0  0  0  0  0  0  0
   58.4209   32.8398   50.8248 H   0  0  0  0  0  0  0  0  0  0  0  0
   59.9772   32.7177   51.7410 H   0  0  0  0  0  0  0  0  0  0  0  0
   60.0420   34.0320   50.0370 C   0  0  0  0  0  0  0  0  0  0  0  0
   59.3007   34.3429   49.2861 H   0  0  0  0  0  0  0  0  0  0  0  0
   60.1997   34.7933   50.8152 H   0  0  0  0  0  0  0  0  0  0  0  0
   61.3420   33.8380   49.3560 N   0  0  0  0  0  0  0  0  0  0  0  0
   61.3800   34.2200   47.9270 C   0  0  0  0  0  0  0  0  0  0  0  0
   61.5601   35.3033   47.8633 H   0  0  0  0  0  0  0  0  0  0  0  0
   62.1822   33.6290   47.4609 H   0  0  0  0  0  0  0  0  0  0  0  0
   60.0840   33.8980   47.1570 C   0  0  0  0  0  0  0  0  0  0  0  0
   59.2332   33.9740   47.8501 H   0  0  0  0  0  0  0  0  0  0  0  0
   59.9970   34.6192   46.3310 H   0  0  0  0  0  0  0  0  0  0  0  0
   60.0990   32.5050   46.5550 C   0  0  0  0  0  0  0  0  0  0  0  0
   61.1220   31.7830   46.7190 O   0  0  0  0  0  0  0  0  0  0  0  0
   58.9490   31.9570   45.8610 N   0  0  0  0  0  0  0  0  0  0  0  0
   57.6120   32.5510   46.0150 C   0  0  0  0  0  0  0  0  0  0  0  0
   57.1695   32.2028   46.9600 H   0  0  0  0  0  0  0  0  0  0  0  0
   57.7116   33.6465   46.0191 H   0  0  0  0  0  0  0  0  0  0  0  0
   56.6990   32.1460   44.8540 C   0  0  0  0  0  0  0  0  0  0  0  0
   55.6718   32.4731   45.0726 H   0  0  0  0  0  0  0  0  0  0  0  0
   57.0670   32.6242   43.9342 H   0  0  0  0  0  0  0  0  0  0  0  0
   56.7090   30.7480   44.6700 O   0  0  0  0  0  0  0  0  0  0  0  0
   57.9950   30.3410   44.2480 C   0  0  0  0  0  0  0  0  0  0  0  0
   57.9706   29.2700   43.9985 H   0  0  0  0  0  0  0  0  0  0  0  0
   58.2806   30.9330   43.3660 H   0  0  0  0  0  0  0  0  0  0  0  0
   59.0300   30.5760   45.3540 C   0  0  0  0  0  0  0  0  0  0  0  0
   58.8392   29.8763   46.1811 H   0  0  0  0  0  0  0  0  0  0  0  0
   60.0348   30.4115   44.9376 H   0  0  0  0  0  0  0  0  0  0  0  0
   62.1040   32.6330   49.7340 C   0  0  0  0  0  0  0  0  0  0  0  0
   62.9751   32.5446   49.0681 H   0  0  0  0  0  0  0  0  0  0  0  0
   62.4048   32.7475   50.7859 H   0  0  0  0  0  0  0  0  0  0  0  0
   61.2730   31.3470   49.6280 C   0  0  0  0  0  0  0  0  0  0  0  0
   61.3121   30.9851   48.5900 H   0  0  0  0  0  0  0  0  0  0  0  0
   61.6999   30.6118   50.3260 H   0  0  0  0  0  0  0  0  0  0  0  0
   60.0480   28.2700   49.3400 N   0  0  0  0  0  0  0  0  0  0  0  0
   61.0170   28.2080   50.4390 C   0  0  0  0  0  0  0  0  0  0  0  0
   60.4837   28.2421   51.4004 H   0  0  0  0  0  0  0  0  0  0  0  0
   61.5897   27.2714   50.3704 H   0  0  0  0  0  0  0  0  0  0  0  0
   61.7044   29.0640   50.3704 H   0  0  0  0  0  0  0  0  0  0  0  0
   59.9580   27.4040   48.2960 C   0  0  0  0  0  0  0  0  0  0  0  0
   60.8130   26.3850   48.1120 C   0  0  0  0  0  0  0  0  0  0  0  0
   61.5496   26.1376   48.8906 H   0  0  0  0  0  0  0  0  0  0  0  0
   60.7768   25.7977   47.1826 H   0  0  0  0  0  0  0  0  0  0  0  0
  1  2  1  0
  2  3  1  0
  3  4  1  0
  4  5  1  0
  5  6  2  0
  5  7  1  0
  7  8  1  0
  8  9  1  0
  9 10  1  0
  9 11  2  0
 11 12  1  0
 12 13  1  0
 12 14  2  0
 14 15  1  0
 15 16  2  0
 15 17  1  0
 17 18  1  0
 18 19  1  0
 18 20  1  0
 18 21  1  0
 21 22  1  0
 21 23  1  0
 21 24  1  0
 24 25  1  0
 25 26  1  0
 25 27  1  0
 25 28  1  0
 28 29  1  0
 28 30  1  0
 28 31  1  0
 31 32  2  0
 31 33  1  0
 33 34  1  0
 34 35  1  0
 34 36  1  0
 34 37  1  0
 37 38  1  0
 37 39  1  0
 37 40  1  0
 40 41  1  0
 41 42  1  0
 41 43  1  0
 41 44  1  0
 44 45  1  0
 44 46  1  0
 24 47  1  0
 47 48  1  0
 47 49  1  0
 47 50  1  0
 50 51  1  0
 50 52  1  0
 14 53  1  0
 53 54  1  0
 54 55  1  0
 54 56  1  0
 54 57  1  0
 53 58  1  0
 58 59  2  0
 59 60  1  0
 59 61  1  0
  8  3  2  0
 58 11  1  0
 50 17  1  0
 44 33  1  0
M  CHG  2   4  -1   7  -1
M  END
>  <UniqueID>  (39) 
38

>  <SMILES>  (39) 
C=c1/c(=C\c2[n-]c(=O)[n-]c2O)cc(C(=O)N2CCN(CCC(=O)N3CCOCC3)CC2)n1C

>  <Energy>  (39) 
150.60209909680623

>  <Genealogy>  (39) 
C=c1c(=Cc2[n-]c(=O)[n-]c2O)cc(C(=O)N2CCN(CCC(=O)N3CCOCC3)CC2)n1C (protonated)
C=c1/c(=C\c2[n-]c(=O)[n-]c2O)cc(C(=O)N2CCN(CCC(=O)N3CCOCC3)CC2)n1C (cis-trans isomerization)
C=c1/c(=C\c2[n-]c(=O)[n-]c2O)cc(C(=O)N2CCN(CCC(=O)N3CCOCC3)CC2)n1C (3D coordinates assigned)
C=c1/c(=C\c2[n-]c(=O)[n-]c2O)cc(C(=O)N2CCN(CCC(=O)N3CCOCC3)CC2)n1C (nonaromatic ring conformer: 150.60209909680623 kcal/mol)

>  <smiles>  (39) 
C=c1c(=Cc2[nH]c(=O)[nH]c2O)cc(C(=O)N2CCN(CCC(=O)N3CCOCC3)CC2)n1C

>  <score_type>  (39) 
oracle

>  <origin>  (39) 
adg

>  <m_score__min__energy>  (39) 
-14.380000000000001

>  <m_primary>  (39) 
energy

$$$$
39:0
     RDKit          3D

 53 55  0  0  0  0  0  0  0  0999 V2000
   59.5030   25.1780   46.3260 O   0  0  0  0  0  0  0  0  0  0  0  0
   58.7990   26.1210   46.7740 C   0  0  0  0  0  0  0  0  0  0  0  0
   59.4670   27.3400   47.3330 C   0  0  0  0  0  0  0  0  0  0  0  0
   58.5200   28.5480   47.4170 C   0  0  0  0  0  0  0  0  0  0  0  0
   59.0450   29.7950   46.6610 C   0  0  1  0  0  0  0  0  0  0  0  0
   60.4580   30.1810   47.1490 C   0  0  0  0  0  0  0  0  0  0  0  0
   60.5060   31.6060   47.6430 C   0  0  0  0  0  0  0  0  0  0  0  0
   59.6690   32.0260   48.6900 C   0  0  0  0  0  0  0  0  0  0  0  0
   59.7570   33.3310   49.1830 C   0  0  0  0  0  0  0  0  0  0  0  0
   60.6820   34.2250   48.6360 C   0  0  0  0  0  0  0  0  0  0  0  0
   61.5230   33.8140   47.5990 C   0  0  0  0  0  0  0  0  0  0  0  0
   61.4400   32.5090   47.1040 C   0  0  0  0  0  0  0  0  0  0  0  0
   59.0620   29.5700   45.1690 C   0  0  0  0  0  0  0  0  0  0  0  0
   60.1560   29.5440   44.5430 O   0  0  0  0  0  0  0  0  0  0  0  0
   57.8250   29.4760   44.4610 N   0  0  0  0  0  0  0  0  0  0  0  0
   56.9060   30.8640   43.9830 S   0  0  0  0  0  0  0  0  0  0  0  0
   56.8930   30.9670   42.4850 O   0  0  0  0  0  0  0  0  0  0  0  0
   55.4980   30.7320   44.4960 O   0  0  0  0  0  0  0  0  0  0  0  0
   57.6370   32.3110   44.6660 C   0  0  0  0  0  0  0  0  0  0  0  0
   57.3350   32.7000   45.9790 C   0  0  0  0  0  0  0  0  0  0  0  0
   57.9190   33.8470   46.5240 C   0  0  0  0  0  0  0  0  0  0  0  0
   58.8050   34.6120   45.7600 C   0  0  0  0  0  0  0  0  0  0  0  0
   59.1050   34.2310   44.4490 C   0  0  0  0  0  0  0  0  0  0  0  0
   58.5200   33.0850   43.9000 C   0  0  0  0  0  0  0  0  0  0  0  0
   57.3670   26.0330   46.8040 N   0  0  0  0  0  0  0  0  0  0  0  0
   56.5260   25.0410   46.1930 C   0  0  0  0  0  0  0  0  0  0  0  0
   56.9720   23.7320   45.9270 C   0  0  0  0  0  0  0  0  0  0  0  0
   56.1200   22.8070   45.3150 C   0  0  0  0  0  0  0  0  0  0  0  0
   54.8240   23.1800   44.9540 C   0  0  0  0  0  0  0  0  0  0  0  0
   54.3810   24.4820   45.1920 C   0  0  0  0  0  0  0  0  0  0  0  0
   55.2290   25.4120   45.8010 C   0  0  0  0  0  0  0  0  0  0  0  0
   54.7790   26.7100   46.0180 O   0  0  0  0  0  0  0  0  0  0  0  0
   59.8331   27.1085   48.3441 H   0  0  0  0  0  0  0  0  0  0  0  0
   60.2902   27.6090   46.6547 H   0  0  0  0  0  0  0  0  0  0  0  0
   57.5498   28.2612   46.9852 H   0  0  0  0  0  0  0  0  0  0  0  0
   58.4374   28.8228   48.4789 H   0  0  0  0  0  0  0  0  0  0  0  0
   58.3538   30.6226   46.8785 H   0  0  0  0  0  0  0  0  0  0  0  0
   60.7480   29.5088   47.9700 H   0  0  0  0  0  0  0  0  0  0  0  0
   61.1520   30.0878   46.3006 H   0  0  0  0  0  0  0  0  0  0  0  0
   58.9410   31.3247   49.1239 H   0  0  0  0  0  0  0  0  0  0  0  0
   59.0979   33.6547   50.0020 H   0  0  0  0  0  0  0  0  0  0  0  0
   60.7477   35.2528   49.0224 H   0  0  0  0  0  0  0  0  0  0  0  0
   62.2517   34.5182   47.1712 H   0  0  0  0  0  0  0  0  0  0  0  0
   62.1071   32.1876   46.2906 H   0  0  0  0  0  0  0  0  0  0  0  0
   56.6366   32.1008   46.5817 H   0  0  0  0  0  0  0  0  0  0  0  0
   57.6812   34.1479   47.5550 H   0  0  0  0  0  0  0  0  0  0  0  0
   59.2659   35.5134   46.1902 H   0  0  0  0  0  0  0  0  0  0  0  0
   59.8022   34.8333   43.8480 H   0  0  0  0  0  0  0  0  0  0  0  0
   58.7531   32.7908   42.8660 H   0  0  0  0  0  0  0  0  0  0  0  0
   57.9951   23.4357   46.2018 H   0  0  0  0  0  0  0  0  0  0  0  0
   56.4717   21.7836   45.1177 H   0  0  0  0  0  0  0  0  0  0  0  0
   54.1521   22.4479   44.4821 H   0  0  0  0  0  0  0  0  0  0  0  0
   53.3624   24.7771   44.8998 H   0  0  0  0  0  0  0  0  0  0  0  0
  1  2  2  0
  2  3  1  0
  3  4  1  0
  4  5  1  0
  5  6  1  0
  6  7  1  0
  7  8  2  0
  8  9  1  0
  9 10  2  0
 10 11  1  0
 11 12  2  0
  5 13  1  0
 13 14  2  0
 13 15  1  0
 15 16  1  0
 16 17  2  0
 16 18  2  0
 16 19  1  0
 19 20  2  0
 20 21  1  0
 21 22  2  0
 22 23  1  0
 23 24  2  0
  2 25  1  0
 25 26  1  0
 26 27  2  0
 27 28  1  0
 28 29  2  0
 29 30  1  0
 30 31  2  0
 31 32  1  0
 12  7  1  0
 24 19  1  0
 31 26  1  0
  3 33  1  0
  3 34  1  0
  4 35  1  0
  4 36  1  0
  5 37  1  6
  6 38  1  0
  6 39  1  0
  8 40  1  0
  9 41  1  0
 10 42  1  0
 11 43  1  0
 12 44  1  0
 20 45  1  0
 21 46  1  0
 22 47  1  0
 23 48  1  0
 24 49  1  0
 27 50  1  0
 28 51  1  0
 29 52  1  0
 30 53  1  0
M  CHG  3  15  -1  25  -1  32  -1
M  END
>  <UniqueID>  (40) 
39

>  <SMILES>  (40) 
O=C(CC[C@@H](Cc1ccccc1)C(=O)[N-]S(=O)(=O)c1ccccc1)[N-]c1ccccc1[O-]

>  <Energy>  (40) 
49.10740684419041

>  <Genealogy>  (40) 
O=C(CCC(Cc1ccccc1)C(=O)[N-]S(=O)(=O)c1ccccc1)[N-]c1ccccc1[O-] (protonated)
O=C(CC[C@@H](Cc1ccccc1)C(=O)[N-]S(=O)(=O)c1ccccc1)[N-]c1ccccc1[O-] (chirality)
O=C(CC[C@@H](Cc1ccccc1)C(=O)[N-]S(=O)(=O)c1ccccc1)[N-]c1ccccc1[O-] (3D coordinates assigned)
O=C(CC[C@@H](Cc1ccccc1)C(=O)[N-]S(=O)(=O)c1ccccc1)[N-]c1ccccc1[O-] (optimized conformer: 49.10740684419041 kcal/mol)

>  <smiles>  (40) 
O=C(CCC(Cc1ccccc1)C(=O)NS(=O)(=O)c1ccccc1)Nc1ccccc1O

>  <score_type>  (40) 
oracle

>  <origin>  (40) 
adg

>  <m_score__min__energy>  (40) 
-17.199999999999999

>  <m_primary>  (40) 
energy

$$$$
40:0
     RDKit          3D

 54 57  0  0  0  0  0  0  0  0999 V2000
   57.0200   22.1950   47.5300 O   0  0  0  0  0  0  0  0  0  0  0  0
   57.2820   23.0720   46.6620 C   0  0  0  0  0  0  0  0  0  0  0  0
   58.1260   24.1750   47.0040 N   0  0  0  0  0  0  0  0  0  0  0  0
   59.0630   24.7750   46.0630 C   0  0  0  0  0  0  0  0  0  0  0  0
   58.7710   26.2420   45.9330 C   0  0  0  0  0  0  0  0  0  0  0  0
   58.4870   26.7920   44.6740 C   0  0  0  0  0  0  0  0  0  0  0  0
   58.1850   28.1510   44.5500 C   0  0  0  0  0  0  0  0  0  0  0  0
   58.1650   28.9800   45.6830 C   0  0  0  0  0  0  0  0  0  0  0  0
   57.8360   30.4160   45.5450 C   0  0  0  0  0  0  0  0  0  0  0  0
   56.8030   30.7440   44.8980 O   0  0  0  0  0  0  0  0  0  0  0  0
   58.6590   31.4430   46.1360 N   0  0  0  0  0  0  0  0  0  0  0  0
   58.1030   32.7760   46.4150 C   0  0  0  0  0  0  0  0  0  0  0  0
   58.5920   33.2810   47.7680 C   0  0  0  0  0  0  0  0  0  0  0  0
   60.0930   33.2640   47.8060 C   0  0  0  0  0  0  0  0  0  0  0  0
   60.7930   34.2390   48.5320 C   0  0  0  0  0  0  0  0  0  0  0  0
   62.1890   34.2100   48.5840 C   0  0  0  0  0  0  0  0  0  0  0  0
   62.8970   33.2010   47.9250 C   0  0  0  0  0  0  0  0  0  0  0  0
   64.2880   33.1870   47.9860 O   0  0  0  0  0  0  0  0  0  0  0  0
   62.2040   32.2130   47.2130 C   0  0  0  0  0  0  0  0  0  0  0  0
   60.8010   32.2400   47.1440 C   0  0  0  0  0  0  0  0  0  0  0  0
   60.0730   31.1280   46.4210 C   0  0  0  0  0  0  0  0  0  0  0  0
   58.4220   28.4220   46.9470 C   0  0  0  0  0  0  0  0  0  0  0  0
   58.7200   27.0630   47.0720 C   0  0  0  0  0  0  0  0  0  0  0  0
   56.7720   22.9390   45.2750 C   0  0  0  0  0  0  0  0  0  0  0  0
   57.5170   22.1570   44.3700 C   0  0  0  0  0  0  0  0  0  0  0  0
   57.0790   21.9650   43.0590 C   0  0  0  0  0  0  0  0  0  0  0  0
   55.8970   22.5560   42.6240 C   0  0  0  0  0  0  0  0  0  0  0  0
   55.1500   23.3500   43.4950 C   0  0  0  0  0  0  0  0  0  0  0  0
   55.5700   23.5580   44.8250 C   0  0  0  0  0  0  0  0  0  0  0  0
   54.7590   24.4970   45.6910 C   0  0  0  0  0  0  0  0  0  0  0  0
   55.5230   25.6220   46.0290 O   0  0  0  0  0  0  0  0  0  0  0  0
   60.0906   24.6368   46.4302 H   0  0  0  0  0  0  0  0  0  0  0  0
   58.9566   24.2914   45.0807 H   0  0  0  0  0  0  0  0  0  0  0  0
   58.5021   26.1507   43.7804 H   0  0  0  0  0  0  0  0  0  0  0  0
   57.9617   28.5735   43.5592 H   0  0  0  0  0  0  0  0  0  0  0  0
   58.4246   33.4751   45.6290 H   0  0  0  0  0  0  0  0  0  0  0  0
   57.0052   32.7089   46.4337 H   0  0  0  0  0  0  0  0  0  0  0  0
   58.2345   34.3094   47.9247 H   0  0  0  0  0  0  0  0  0  0  0  0
   58.2015   32.6274   48.5620 H   0  0  0  0  0  0  0  0  0  0  0  0
   60.2410   35.0291   49.0622 H   0  0  0  0  0  0  0  0  0  0  0  0
   62.7327   34.9840   49.1455 H   0  0  0  0  0  0  0  0  0  0  0  0
   64.8370   32.5770   47.3970 H   0  0  0  0  0  0  0  0  0  0  0  0
   62.7614   31.4120   46.7054 H   0  0  0  0  0  0  0  0  0  0  0  0
   60.5869   30.9368   45.4674 H   0  0  0  0  0  0  0  0  0  0  0  0
   60.0836   30.2487   47.0819 H   0  0  0  0  0  0  0  0  0  0  0  0
   58.3883   29.0591   47.8431 H   0  0  0  0  0  0  0  0  0  0  0  0
   58.9155   26.6340   48.0659 H   0  0  0  0  0  0  0  0  0  0  0  0
   58.4569   21.6914   44.7015 H   0  0  0  0  0  0  0  0  0  0  0  0
   57.6694   21.3452   42.3682 H   0  0  0  0  0  0  0  0  0  0  0  0
   55.5509   22.3971   41.5920 H   0  0  0  0  0  0  0  0  0  0  0  0
   54.2212   23.8199   43.1394 H   0  0  0  0  0  0  0  0  0  0  0  0
   53.8631   24.8181   45.1393 H   0  0  0  0  0  0  0  0  0  0  0  0
   54.4639   23.9726   46.6118 H   0  0  0  0  0  0  0  0  0  0  0  0
   56.3990   25.2940   46.3610 H   0  0  0  0  0  0  0  0  0  0  0  0
  1  2  2  0
  2  3  1  0
  3  4  1  0
  4  5  1  0
  5  6  2  0
  6  7  1  0
  7  8  2  0
  8  9  1  0
  9 10  2  0
  9 11  1  0
 11 12  1  0
 12 13  1  0
 13 14  1  0
 14 15  2  0
 15 16  1  0
 16 17  2  0
 17 18  1  0
 17 19  1  0
 19 20  2  0
 20 21  1  0
  8 22  1  0
 22 23  2  0
  2 24  1  0
 24 25  2  0
 25 26  1  0
 26 27  2  0
 27 28  1  0
 28 29  2  0
 29 30  1  0
 30 31  1  0
 23  5  1  0
 29 24  1  0
 21 11  1  0
 20 14  1  0
  4 32  1  0
  4 33  1  0
  6 34  1  0
  7 35  1  0
 12 36  1  0
 12 37  1  0
 13 38  1  0
 13 39  1  0
 15 40  1  0
 16 41  1  0
 18 42  1  0
 19 43  1  0
 21 44  1  0
 21 45  1  0
 22 46  1  0
 23 47  1  0
 25 48  1  0
 26 49  1  0
 27 50  1  0
 28 51  1  0
 30 52  1  0
 30 53  1  0
 31 54  1  0
M  CHG  1   3  -1
M  END
>  <UniqueID>  (41) 
40

>  <SMILES>  (41) 
O=C([N-]Cc1ccc(C(=O)N2CCc3ccc(O)cc3C2)cc1)c1ccccc1CO

>  <Energy>  (41) 
67.96502130205877

>  <Genealogy>  (41) 
O=C([N-]Cc1ccc(C(=O)N2CCc3ccc(O)cc3C2)cc1)c1ccccc1CO (protonated)
O=C([N-]Cc1ccc(C(=O)N2CCc3ccc(O)cc3C2)cc1)c1ccccc1CO (3D coordinates assigned)
O=C([N-]Cc1ccc(C(=O)N2CCc3ccc(O)cc3C2)cc1)c1ccccc1CO (nonaromatic ring conformer: 67.96502130205877 kcal/mol)

>  <smiles>  (41) 
O=C(NCc1ccc(C(=O)N2CCc3ccc(O)cc3C2)cc1)c1ccccc1CO

>  <score_type>  (41) 
oracle

>  <origin>  (41) 
adg

>  <m_score__min__energy>  (41) 
-11.73

>  <m_primary>  (41) 
energy

$$$$
41:0
     RDKit          3D

 58 62  0  0  0  0  0  0  0  0999 V2000
   60.5140   26.1780   46.4720 C   0  0  0  0  0  0  0  0  0  0  0  0
   60.0780   27.0020   47.4430 C   0  0  0  0  0  0  0  0  0  0  0  0
   61.0210   27.4160   48.4030 C   0  0  0  0  0  0  0  0  0  0  0  0
   60.7280   28.4240   49.3180 C   0  0  0  0  0  0  0  0  0  0  0  0
   59.4790   29.0520   49.3080 C   0  0  0  0  0  0  0  0  0  0  0  0
   59.1620   30.0990   50.3060 C   0  0  0  0  0  0  0  0  0  0  0  0
   58.0230   30.1370   50.8450 O   0  0  0  0  0  0  0  0  0  0  0  0
   60.1520   31.0680   50.6700 N   0  0  0  0  0  0  0  0  0  0  0  0
   60.5140   32.2020   49.8270 C   0  0  0  0  0  0  0  0  0  0  0  0
   59.6050   32.5830   48.6970 C   0  0  0  0  0  0  0  0  0  0  0  0
   58.4860   33.1080   48.9410 O   0  0  0  0  0  0  0  0  0  0  0  0
   59.9940   32.3260   47.3410 N   0  0  0  0  0  0  0  0  0  0  0  0
   59.8990   33.3950   46.3460 C   0  0  0  0  0  0  0  0  0  0  0  0
   58.6200   33.2220   45.5250 C   0  0  0  0  0  0  0  0  0  0  0  0
   58.4730   31.8260   45.0600 N   0  0  0  0  0  0  0  0  0  0  0  0
   57.7760   31.5720   43.8170 C   0  0  0  0  0  0  0  0  0  0  0  0
   57.3940   32.5380   43.1010 O   0  0  0  0  0  0  0  0  0  0  0  0
   57.4370   30.1750   43.3720 C   0  0  0  0  0  0  0  0  0  0  0  0
   56.5270   29.3960   44.3140 C   0  0  0  0  0  0  0  0  0  0  0  0
   55.9730   29.9530   43.0120 C   0  0  0  0  0  0  0  0  0  0  0  0
   58.6650   30.7440   46.0480 C   0  0  0  0  0  0  0  0  0  0  0  0
   59.9650   30.9560   46.8290 C   0  0  0  0  0  0  0  0  0  0  0  0
   62.0070   32.3200   49.5610 C   0  0  0  0  0  0  0  0  0  0  0  0
   61.3180   33.2920   50.5160 C   0  0  0  0  0  0  0  0  0  0  0  0
   58.5120   28.6280   48.3780 C   0  0  0  0  0  0  0  0  0  0  0  0
   58.7580   27.5630   47.4820 C   0  0  0  0  0  0  0  0  0  0  0  0
   57.7040   27.1380   46.7390 C   0  0  0  0  0  0  0  0  0  0  0  0
   57.1500   25.7730   46.7220 C   0  0  0  0  0  0  0  0  0  0  0  0
   57.8820   24.6660   46.9350 N   0  0  0  0  0  0  0  0  0  0  0  0
   56.9970   23.6650   46.7320 C   0  0  0  0  0  0  0  0  0  0  0  0
   57.3080   22.4510   46.8480 O   0  0  0  0  0  0  0  0  0  0  0  0
   55.7550   24.0660   46.3770 N   0  0  0  0  0  0  0  0  0  0  0  0
   55.8710   25.4050   46.3670 C   0  0  0  0  0  0  0  0  0  0  0  0
   54.8380   26.2730   46.0260 O   0  0  0  0  0  0  0  0  0  0  0  0
   59.8180   25.8247   45.6969 H   0  0  0  0  0  0  0  0  0  0  0  0
   61.5663   25.8580   46.4536 H   0  0  0  0  0  0  0  0  0  0  0  0
   62.0091   26.9335   48.4308 H   0  0  0  0  0  0  0  0  0  0  0  0
   61.4857   28.7287   50.0549 H   0  0  0  0  0  0  0  0  0  0  0  0
   59.8769   34.3691   46.8566 H   0  0  0  0  0  0  0  0  0  0  0  0
   60.7708   33.3488   45.6768 H   0  0  0  0  0  0  0  0  0  0  0  0
   57.7536   33.4863   46.1490 H   0  0  0  0  0  0  0  0  0  0  0  0
   58.6767   33.8800   44.6454 H   0  0  0  0  0  0  0  0  0  0  0  0
   58.4017   29.9785   42.8814 H   0  0  0  0  0  0  0  0  0  0  0  0
   56.6605   28.3109   44.4351 H   0  0  0  0  0  0  0  0  0  0  0  0
   56.2514   29.4808   45.3755 H   0  0  0  0  0  0  0  0  0  0  0  0
   55.7059   29.2706   42.1916 H   0  0  0  0  0  0  0  0  0  0  0  0
   55.1309   30.6073   42.7423 H   0  0  0  0  0  0  0  0  0  0  0  0
   57.8177   30.7397   46.7495 H   0  0  0  0  0  0  0  0  0  0  0  0
   58.7218   29.7826   45.5165 H   0  0  0  0  0  0  0  0  0  0  0  0
   60.0106   30.2472   47.6689 H   0  0  0  0  0  0  0  0  0  0  0  0
   60.8279   30.7876   46.1678 H   0  0  0  0  0  0  0  0  0  0  0  0
   62.6979   31.5593   49.9534 H   0  0  0  0  0  0  0  0  0  0  0  0
   62.6323   32.4230   48.6619 H   0  0  0  0  0  0  0  0  0  0  0  0
   61.5126   33.2323   51.5970 H   0  0  0  0  0  0  0  0  0  0  0  0
   61.2410   34.3868   50.5907 H   0  0  0  0  0  0  0  0  0  0  0  0
   57.5384   29.1391   48.3475 H   0  0  0  0  0  0  0  0  0  0  0  0
   57.2189   27.8817   46.0897 H   0  0  0  0  0  0  0  0  0  0  0  0
   54.2490   26.6840   46.7410 H   0  0  0  0  0  0  0  0  0  0  0  0
  1  2  2  0
  2  3  1  0
  3  4  2  0
  4  5  1  0
  5  6  1  0
  6  7  2  0
  6  8  1  0
  8  9  1  0
  9 10  1  0
 10 11  2  0
 10 12  1  0
 12 13  1  0
 13 14  1  0
 14 15  1  0
 15 16  1  0
 16 17  2  0
 16 18  1  0
 18 19  1  0
 19 20  1  0
 15 21  1  0
 21 22  1  0
  9 23  1  0
 23 24  1  0
  5 25  2  0
 25 26  1  0
 26 27  2  3
 27 28  1  0
 28 29  1  0
 29 30  1  0
 30 31  2  0
 30 32  1  0
 32 33  1  0
 33 34  1  0
 26  2  1  0
 33 28  2  0
 24  9  1  0
 22 12  1  0
 20 18  1  0
  1 35  1  0
  1 36  1  0
  3 37  1  0
  4 38  1  0
 13 39  1  0
 13 40  1  0
 14 41  1  0
 14 42  1  0
 18 43  1  0
 19 44  1  0
 19 45  1  0
 20 46  1  0
 20 47  1  0
 21 48  1  0
 21 49  1  0
 22 50  1  0
 22 51  1  0
 23 52  1  0
 23 53  1  0
 24 54  1  0
 24 55  1  0
 25 56  1  0
 27 57  1  0
 34 58  1  0
M  CHG  3   8  -1  29  -1  32  -1
M  END
>  <UniqueID>  (42) 
41

>  <SMILES>  (42) 
C=c1ccc(C(=O)[N-]C2(C(=O)N3CCN(C(=O)C4CC4)CC3)CC2)cc1=Cc1[n-]c(=O)[n-]c1O

>  <Energy>  (42) 
646.2732243797335

>  <Genealogy>  (42) 
C=c1ccc(C(=O)[N-]C2(C(=O)N3CCN(C(=O)C4CC4)CC3)CC2)cc1=Cc1[n-]c(=O)[n-]c1O (protonated)
C=c1ccc(C(=O)[N-]C2(C(=O)N3CCN(C(=O)C4CC4)CC3)CC2)cc1=Cc1[n-]c(=O)[n-]c1O (3D coordinates assigned)
C=c1ccc(C(=O)[N-]C2(C(=O)N3CCN(C(=O)C4CC4)CC3)CC2)cc1=Cc1[n-]c(=O)[n-]c1O (nonaromatic ring conformer: 646.2732243797335 kcal/mol)

>  <smiles>  (42) 
C=c1ccc(C(=O)NC2(C(=O)N3CCN(C(=O)C4CC4)CC3)CC2)cc1=Cc1[nH]c(=O)[nH]c1O

>  <score_type>  (42) 
oracle

>  <origin>  (42) 
adg

>  <m_score__min__energy>  (42) 
-16.359999999999999

>  <m_primary>  (42) 
energy

$$$$
42:0
     RDKit          3D

 71 75  0  0  0  0  0  0  0  0999 V2000
   58.0310   27.1050   42.6120 C   0  0  0  0  0  0  0  0  0  0  0  0
   57.8150   27.3520   44.0750 C   0  0  0  0  0  0  0  0  0  0  0  0
   57.5610   26.3700   44.8220 O   0  0  0  0  0  0  0  0  0  0  0  0
   57.8350   28.6900   44.6200 N   0  0  0  0  0  0  0  0  0  0  0  0
   57.9140   28.8870   46.0740 C   0  0  0  0  0  0  0  0  0  0  0  0
   58.7560   30.1250   46.3910 C   0  0  0  0  0  0  0  0  0  0  0  0
   58.3120   31.2980   45.6180 N   0  0  0  0  0  0  0  0  0  0  0  0
   58.6070   32.6270   46.1080 C   0  0  0  0  0  0  0  0  0  0  0  0
   57.7990   33.5700   45.8880 O   0  0  0  0  0  0  0  0  0  0  0  0
   59.7970   32.8910   46.9410 C   0  0  0  0  0  0  0  0  0  0  0  0
   59.7890   33.9240   47.8940 C   0  0  0  0  0  0  0  0  0  0  0  0
   60.9400   34.2090   48.6310 C   0  0  0  0  0  0  0  0  0  0  0  0
   62.1280   33.4990   48.3990 C   0  0  0  0  0  0  0  0  0  0  0  0
   63.3230   33.8560   49.1170 N   0  0  0  0  0  0  0  0  0  0  0  0
   64.2610   32.8820   49.6160 C   0  0  0  0  0  0  0  0  0  0  0  0
   64.0820   31.6620   49.3540 O   0  0  0  0  0  0  0  0  0  0  0  0
   65.4430   33.2980   50.4300 C   0  0  0  0  0  0  0  0  0  0  0  0
   66.7380   32.9650   49.9870 C   0  0  0  0  0  0  0  0  0  0  0  0
   67.8640   33.3900   50.6920 C   0  0  0  0  0  0  0  0  0  0  0  0
   67.7010   34.1740   51.8290 C   0  0  0  0  0  0  0  0  0  0  0  0
   66.4570   34.5110   52.2480 N   0  0  0  0  0  0  0  0  0  0  0  0
   65.3310   34.0850   51.6110 C   0  0  0  0  0  0  0  0  0  0  0  0
   63.7410   34.6220   52.2710 S   0  0  0  0  0  0  0  0  0  0  0  0
   63.3120   33.0920   53.1870 C   0  0  0  0  0  0  0  0  0  0  0  0
   62.6570   31.9900   52.3920 C   0  0  0  0  0  0  0  0  0  0  0  0
   63.3900   31.0470   51.9810 O   0  0  0  0  0  0  0  0  0  0  0  0
   61.2690   31.9980   52.0170 N   0  0  0  0  0  0  0  0  0  0  0  0
   60.4470   33.1130   52.5130 C   0  0  0  0  0  0  0  0  0  0  0  0
   59.4550   33.5770   51.4460 C   0  0  0  0  0  0  0  0  0  0  0  0
   58.5670   32.4110   51.0200 C   0  0  0  0  0  0  0  0  0  0  0  0
   59.3880   31.2200   50.5960 C   0  0  0  0  0  0  0  0  0  0  0  0
   58.8230   30.2690   49.7320 C   0  0  0  0  0  0  0  0  0  0  0  0
   59.5740   29.1760   49.2970 C   0  0  0  0  0  0  0  0  0  0  0  0
   60.8990   29.0310   49.7080 C   0  0  0  0  0  0  0  0  0  0  0  0
   61.4670   29.9590   50.5840 C   0  0  0  0  0  0  0  0  0  0  0  0
   60.7090   31.0420   51.0780 C   0  0  0  0  0  0  0  0  0  0  0  0
   62.1160   32.4320   47.4850 C   0  0  0  0  0  0  0  0  0  0  0  0
   60.9610   32.1330   46.7590 C   0  0  0  0  0  0  0  0  0  0  0  0
   57.3430   31.1330   44.5250 C   0  0  0  0  0  0  0  0  0  0  0  0
   57.6280   29.8490   43.7330 C   0  0  0  0  0  0  0  0  0  0  0  0
   58.7500   26.2828   42.4812 H   0  0  0  0  0  0  0  0  0  0  0  0
   57.0747   26.8342   42.1407 H   0  0  0  0  0  0  0  0  0  0  0  0
   58.4268   28.0167   42.1407 H   0  0  0  0  0  0  0  0  0  0  0  0
   56.9002   29.0230   46.4785 H   0  0  0  0  0  0  0  0  0  0  0  0
   58.3840   28.0044   46.5323 H   0  0  0  0  0  0  0  0  0  0  0  0
   58.6680   30.3509   47.4639 H   0  0  0  0  0  0  0  0  0  0  0  0
   59.7995   29.9092   46.1181 H   0  0  0  0  0  0  0  0  0  0  0  0
   58.8729   34.5099   48.0597 H   0  0  0  0  0  0  0  0  0  0  0  0
   60.9154   34.9959   49.3992 H   0  0  0  0  0  0  0  0  0  0  0  0
   63.6050   34.8600   49.1020 H   0  0  0  0  0  0  0  0  0  0  0  0
   66.8627   32.3630   49.0748 H   0  0  0  0  0  0  0  0  0  0  0  0
   68.8713   33.1077   50.3519 H   0  0  0  0  0  0  0  0  0  0  0  0
   68.5823   34.5208   52.3886 H   0  0  0  0  0  0  0  0  0  0  0  0
   64.2411   32.6877   53.6151 H   0  0  0  0  0  0  0  0  0  0  0  0
   62.5611   33.3995   53.9297 H   0  0  0  0  0  0  0  0  0  0  0  0
   59.8906   32.7823   53.4024 H   0  0  0  0  0  0  0  0  0  0  0  0
   61.1104   33.9535   52.7650 H   0  0  0  0  0  0  0  0  0  0  0  0
   58.8278   34.3821   51.8565 H   0  0  0  0  0  0  0  0  0  0  0  0
   60.0104   33.9474   50.5718 H   0  0  0  0  0  0  0  0  0  0  0  0
   57.9266   32.1212   51.8661 H   0  0  0  0  0  0  0  0  0  0  0  0
   57.9586   32.7347   50.1626 H   0  0  0  0  0  0  0  0  0  0  0  0
   57.7822   30.3858   49.3958 H   0  0  0  0  0  0  0  0  0  0  0  0
   59.1207   28.4284   48.6295 H   0  0  0  0  0  0  0  0  0  0  0  0
   61.4978   28.1842   49.3416 H   0  0  0  0  0  0  0  0  0  0  0  0
   62.5167   29.8443   50.8922 H   0  0  0  0  0  0  0  0  0  0  0  0
   63.0234   31.8274   47.3401 H   0  0  0  0  0  0  0  0  0  0  0  0
   60.9653   31.2992   46.0416 H   0  0  0  0  0  0  0  0  0  0  0  0
   56.3288   31.0786   44.9474 H   0  0  0  0  0  0  0  0  0  0  0  0
   57.4288   31.9932   43.8448 H   0  0  0  0  0  0  0  0  0  0  0  0
   56.7738   29.6423   43.0715 H   0  0  0  0  0  0  0  0  0  0  0  0
   58.5502   30.0037   43.1537 H   0  0  0  0  0  0  0  0  0  0  0  0
  1  2  1  0
  2  3  2  0
  2  4  1  0
  4  5  1  0
  5  6  1  0
  6  7  1  0
  7  8  1  0
  8  9  2  0
  8 10  1  0
 10 11  2  0
 11 12  1  0
 12 13  2  0
 13 14  1  0
 14 15  1  0
 15 16  2  0
 15 17  1  0
 17 18  2  0
 18 19  1  0
 19 20  2  0
 20 21  1  0
 21 22  2  0
 22 23  1  0
 23 24  1  0
 24 25  1  0
 25 26  2  0
 25 27  1  0
 27 28  1  0
 28 29  1  0
 29 30  1  0
 30 31  1  0
 31 32  2  0
 32 33  1  0
 33 34  2  0
 34 35  1  0
 35 36  2  0
 13 37  1  0
 37 38  2  0
  7 39  1  0
 39 40  1  0
 40  4  1  0
 38 10  1  0
 22 17  1  0
 36 27  1  0
 36 31  1  0
  1 41  1  0
  1 42  1  0
  1 43  1  0
  5 44  1  0
  5 45  1  0
  6 46  1  0
  6 47  1  0
 11 48  1  0
 12 49  1  0
 14 50  1  0
 18 51  1  0
 19 52  1  0
 20 53  1  0
 24 54  1  0
 24 55  1  0
 28 56  1  0
 28 57  1  0
 29 58  1  0
 29 59  1  0
 30 60  1  0
 30 61  1  0
 32 62  1  0
 33 63  1  0
 34 64  1  0
 35 65  1  0
 37 66  1  0
 38 67  1  0
 39 68  1  0
 39 69  1  0
 40 70  1  0
 40 71  1  0
M  END
>  <UniqueID>  (43) 
42

>  <SMILES>  (43) 
CC(=O)N1CCN(C(=O)c2ccc(NC(=O)c3cccnc3SCC(=O)N3CCCc4ccccc43)cc2)CC1

>  <Energy>  (43) 
92.9828904695085

>  <Genealogy>  (43) 
CC(=O)N1CCN(C(=O)c2ccc(NC(=O)c3cccnc3SCC(=O)N3CCCc4ccccc43)cc2)CC1 (3D coordinates assigned)
CC(=O)N1CCN(C(=O)c2ccc(NC(=O)c3cccnc3SCC(=O)N3CCCc4ccccc43)cc2)CC1 (nonaromatic ring conformer: 92.9828904695085 kcal/mol)

>  <smiles>  (43) 
CC(=O)N1CCN(C(=O)c2ccc(NC(=O)c3cccnc3SCC(=O)N3CCCc4ccccc43)cc2)CC1

>  <score_type>  (43) 
oracle

>  <origin>  (43) 
adg

>  <m_score__min__energy>  (43) 
-9.5199999999999996

>  <m_primary>  (43) 
energy

$$$$
43:0
     RDKit          3D

 48 50  0  0  1  0  0  0  0  0999 V2000
   59.7800   30.5910   48.9390 C   0  0  0  0  0  0  0  0  0  0  0  0
   60.2540   30.6970   47.5260 C   0  0  0  0  0  0  0  0  0  0  0  0
   61.2240   31.8000   47.3170 C   0  0  0  0  0  0  0  0  0  0  0  0
   62.4750   31.6460   47.9070 C   0  0  0  0  0  0  0  0  0  0  0  0
   63.4660   32.5980   47.8220 C   0  0  0  0  0  0  0  0  0  0  0  0
   63.1790   33.7380   47.1190 C   0  0  0  0  0  0  0  0  0  0  0  0
   61.9200   33.8920   46.5230 C   0  0  0  0  0  0  0  0  0  0  0  0
   60.9360   32.9530   46.6050 C   0  0  0  0  0  0  0  0  0  0  0  0
   59.6640   33.0350   45.9920 N   0  0  0  0  0  0  0  0  0  0  0  0
   58.4330   33.1830   46.6820 C   0  0  0  0  0  0  0  0  0  0  0  0
   58.3160   33.2500   47.9220 O   0  0  0  0  0  0  0  0  0  0  0  0
   57.1870   33.2660   45.8220 C   0  0  0  0  0  0  0  0  0  0  0  0
   57.6550   32.3000   44.3220 S   0  0  0  0  0  0  0  0  0  0  0  0
   57.1500   30.6150   44.6830 C   0  0  0  0  0  0  0  0  0  0  0  0
   56.2280   29.9320   44.6700 N   0  0  0  0  0  0  0  0  0  0  0  0
   56.0840   28.6780   44.9460 N   0  0  0  0  0  0  0  0  0  0  0  0
   57.1830   28.0530   45.3140 C   0  0  0  0  0  0  0  0  0  0  0  0
   57.4700   26.8490   45.6720 N   0  0  0  0  0  0  0  0  0  0  0  0
   56.3450   26.0060   46.0110 C   0  0  0  0  0  0  0  0  0  0  0  0
   55.1690   26.3980   45.9770 O   0  0  0  0  0  0  0  0  0  0  0  0
   56.7270   24.6040   46.4070 C   0  0  0  0  0  0  0  0  0  0  0  0
   56.7120   23.7660   45.1820 C   0  0  0  0  0  0  0  0  0  0  0  0
   57.6560   22.7260   45.1550 C   0  0  0  0  0  0  0  0  0  0  0  0
   57.7190   21.8750   44.0610 C   0  0  0  0  0  0  0  0  0  0  0  0
   56.8360   22.0920   43.0320 C   0  0  0  0  0  0  0  0  0  0  0  0
   55.8990   23.1150   43.0450 C   0  0  0  0  0  0  0  0  0  0  0  0
   55.8450   23.9530   44.1330 C   0  0  0  0  0  0  0  0  0  0  0  0
   58.5150   29.3840   45.2510 S   0  0  0  0  0  0  0  0  0  0  0  0
   60.6208   30.7790   49.6229 H   0  0  0  0  0  0  0  0  0  0  0  0
   58.9891   31.3345   49.1172 H   0  0  0  0  0  0  0  0  0  0  0  0
   59.3811   29.5815   49.1172 H   0  0  0  0  0  0  0  0  0  0  0  0
   60.7370   29.7489   47.2471 H   0  0  0  0  0  0  0  0  0  0  0  0
   59.3746   30.9117   46.9011 H   0  0  0  0  0  0  0  0  0  0  0  0
   62.6814   30.7218   48.4666 H   0  0  0  0  0  0  0  0  0  0  0  0
   64.4463   32.4494   48.2983 H   0  0  0  0  0  0  0  0  0  0  0  0
   63.9352   34.5310   47.0224 H   0  0  0  0  0  0  0  0  0  0  0  0
   61.7162   34.8158   45.9617 H   0  0  0  0  0  0  0  0  0  0  0  0
   59.5960   32.9900   44.9450 H   0  0  0  0  0  0  0  0  0  0  0  0
   56.3239   32.8124   46.3313 H   0  0  0  0  0  0  0  0  0  0  0  0
   56.8838   34.2989   45.5959 H   0  0  0  0  0  0  0  0  0  0  0  0
   55.1420   28.1830   44.8860 H   0  0  0  0  0  0  0  0  0  0  0  0
   57.7340   24.6015   46.8497 H   0  0  0  0  0  0  0  0  0  0  0  0
   56.0198   24.2090   47.1512 H   0  0  0  0  0  0  0  0  0  0  0  0
   58.3451   22.5864   46.0010 H   0  0  0  0  0  0  0  0  0  0  0  0
   58.4509   21.0549   44.0194 H   0  0  0  0  0  0  0  0  0  0  0  0
   56.8733   21.4248   42.1582 H   0  0  0  0  0  0  0  0  0  0  0  0
   55.2105   23.2532   42.1983 H   0  0  0  0  0  0  0  0  0  0  0  0
   55.1099   24.7708   44.1637 H   0  0  0  0  0  0  0  0  0  0  0  0
  1  2  1  0
  2  3  1  0
  3  4  2  0
  4  5  1  0
  5  6  2  0
  6  7  1  0
  7  8  2  0
  8  9  1  0
  9 10  1  0
 10 11  2  0
 10 12  1  0
 12 13  1  0
 13 14  1  0
 14 15  2  0
 15 16  1  0
 16 17  1  0
 17 18  2  0
 18 19  1  0
 19 20  2  0
 19 21  1  0
 21 22  1  0
 22 23  2  0
 23 24  1  0
 24 25  2  0
 25 26  1  0
 26 27  2  0
 17 28  1  0
  8  3  1  0
 28 14  1  0
 27 22  1  0
  1 29  1  0
  1 30  1  0
  1 31  1  0
  2 32  1  0
  2 33  1  0
  4 34  1  0
  5 35  1  0
  6 36  1  0
  7 37  1  0
  9 38  1  0
 12 39  1  0
 12 40  1  0
 16 41  1  0
 21 42  1  0
 21 43  1  0
 23 44  1  0
 24 45  1  0
 25 46  1  0
 26 47  1  0
 27 48  1  0
M  END
>  <smiles>  (44) 
CCc1ccccc1NC(=O)CSc1n[nH]c(=NC(=O)Cc2ccccc2)s1

>  <score_type>  (44) 
oracle

>  <origin>  (44) 
adg

>  <m_score__min__energy>  (44) 
-10.039999999999999

>  <m_primary>  (44) 
energy

$$$$
44:0
     RDKit          3D

 64 67  0  0  0  0  0  0  0  0999 V2000
   54.4080   28.6770   52.7770 C   0  0  0  0  0  0  0  0  0  0  0  0
   54.7530   30.0040   52.2640 N   0  0  0  0  0  0  0  0  0  0  0  0
   53.7110   30.8840   51.7240 C   0  0  0  0  0  0  0  0  0  0  0  0
   56.1400   30.3750   52.1550 C   0  0  0  0  0  0  0  0  0  0  0  0
   57.0140   29.4850   51.9810 O   0  0  0  0  0  0  0  0  0  0  0  0
   56.5510   31.7470   52.1880 N   0  0  0  0  0  0  0  0  0  0  0  0
   57.6820   32.2920   51.4940 C   0  0  0  0  0  0  0  0  0  0  0  0
   58.6850   33.0060   52.1730 C   0  0  0  0  0  0  0  0  0  0  0  0
   59.7880   33.5020   51.4740 C   0  0  0  0  0  0  0  0  0  0  0  0
   59.9070   33.2790   50.0990 C   0  0  0  0  0  0  0  0  0  0  0  0
   58.9180   32.5570   49.4120 C   0  0  0  0  0  0  0  0  0  0  0  0
   59.0670   32.2710   47.9410 C   0  0  0  0  0  0  0  0  0  0  0  0
   59.0580   30.8180   47.7020 N   0  0  0  0  0  0  0  0  0  0  0  0
   58.2310   30.3150   46.7340 C   0  0  0  0  0  0  0  0  0  0  0  0
   58.1460   28.9370   46.4980 C   0  0  0  0  0  0  0  0  0  0  0  0
   57.0270   28.3400   45.2640 S   0  0  0  0  0  0  0  0  0  0  0  0
   55.9490   27.1750   45.9500 N   0  0  0  0  0  0  0  0  0  0  0  0
   57.7880   27.6790   44.1500 O   0  0  0  0  0  0  0  0  0  0  0  0
   56.2270   29.4870   44.7170 O   0  0  0  0  0  0  0  0  0  0  0  0
   58.9460   28.0670   47.2620 C   0  0  0  0  0  0  0  0  0  0  0  0
   58.9340   26.6480   47.0440 N   0  0  0  0  0  0  0  0  0  0  0  0
   58.0370   25.7920   47.8310 C   0  0  0  0  0  0  0  0  0  0  0  0
   57.2550   24.8530   46.9030 C   0  0  0  0  0  0  0  0  0  0  0  0
   58.1170   24.2800   45.8570 N   0  0  0  0  0  0  0  0  0  0  0  0
   57.5210   23.5260   44.7830 C   0  0  0  0  0  0  0  0  0  0  0  0
   58.0160   22.2540   44.4450 C   0  0  0  0  0  0  0  0  0  0  0  0
   57.4470   21.5320   43.3910 C   0  0  0  0  0  0  0  0  0  0  0  0
   56.3830   22.0720   42.6650 C   0  0  0  0  0  0  0  0  0  0  0  0
   55.8880   23.3380   42.9890 C   0  0  0  0  0  0  0  0  0  0  0  0
   56.4560   24.0650   44.0400 C   0  0  0  0  0  0  0  0  0  0  0  0
   59.5580   24.5690   45.8590 C   0  0  0  0  0  0  0  0  0  0  0  0
   59.7730   26.0790   45.9790 C   0  0  0  0  0  0  0  0  0  0  0  0
   59.7790   28.5950   48.2520 C   0  0  0  0  0  0  0  0  0  0  0  0
   59.8210   29.9730   48.4670 C   0  0  0  0  0  0  0  0  0  0  0  0
   60.5740   30.4250   49.3730 O   0  0  0  0  0  0  0  0  0  0  0  0
   57.8150   32.0530   50.1210 C   0  0  0  0  0  0  0  0  0  0  0  0
   54.4130   28.6964   53.8768 H   0  0  0  0  0  0  0  0  0  0  0  0
   53.4066   28.3948   52.4198 H   0  0  0  0  0  0  0  0  0  0  0  0
   55.1451   27.9428   52.4198 H   0  0  0  0  0  0  0  0  0  0  0  0
   53.1589   31.3503   52.5533 H   0  0  0  0  0  0  0  0  0  0  0  0
   54.1759   31.6670   51.1069 H   0  0  0  0  0  0  0  0  0  0  0  0
   53.0169   30.2946   51.1069 H   0  0  0  0  0  0  0  0  0  0  0  0
   58.6010   33.1743   53.2568 H   0  0  0  0  0  0  0  0  0  0  0  0
   60.5651   34.0696   52.0069 H   0  0  0  0  0  0  0  0  0  0  0  0
   60.7783   33.6705   49.5536 H   0  0  0  0  0  0  0  0  0  0  0  0
   58.2324   32.7343   47.3944 H   0  0  0  0  0  0  0  0  0  0  0  0
   60.0229   32.6867   47.5896 H   0  0  0  0  0  0  0  0  0  0  0  0
   57.6226   31.0051   46.1310 H   0  0  0  0  0  0  0  0  0  0  0  0
   55.1510   27.0680   45.2850 H   0  0  0  0  0  0  0  0  0  0  0  0
   58.6318   25.1936   48.5368 H   0  0  0  0  0  0  0  0  0  0  0  0
   57.3272   26.4258   48.3829 H   0  0  0  0  0  0  0  0  0  0  0  0
   56.8282   24.0345   47.5013 H   0  0  0  0  0  0  0  0  0  0  0  0
   56.4625   25.4372   46.4125 H   0  0  0  0  0  0  0  0  0  0  0  0
   58.8549   21.8247   45.0124 H   0  0  0  0  0  0  0  0  0  0  0  0
   57.8383   20.5368   43.1332 H   0  0  0  0  0  0  0  0  0  0  0  0
   55.9349   21.5010   41.8385 H   0  0  0  0  0  0  0  0  0  0  0  0
   55.0505   23.7633   42.4166 H   0  0  0  0  0  0  0  0  0  0  0  0
   56.0674   25.0641   44.2867 H   0  0  0  0  0  0  0  0  0  0  0  0
   60.0329   24.0617   46.7117 H   0  0  0  0  0  0  0  0  0  0  0  0
   60.0067   24.2072   44.9221 H   0  0  0  0  0  0  0  0  0  0  0  0
   60.8303   26.2744   46.2110 H   0  0  0  0  0  0  0  0  0  0  0  0
   59.4944   26.5495   45.0245 H   0  0  0  0  0  0  0  0  0  0  0  0
   60.4018   27.9241   48.8620 H   0  0  0  0  0  0  0  0  0  0  0  0
   57.0494   31.4656   49.5930 H   0  0  0  0  0  0  0  0  0  0  0  0
  1  2  1  0
  2  3  1  0
  2  4  1  0
  4  5  2  0
  4  6  1  0
  6  7  1  0
  7  8  2  0
  8  9  1  0
  9 10  2  0
 10 11  1  0
 11 12  1  0
 12 13  1  0
 13 14  1  0
 14 15  2  0
 15 16  1  0
 16 17  1  0
 16 18  2  0
 16 19  2  0
 15 20  1  0
 20 21  1  0
 21 22  1  0
 22 23  1  0
 23 24  1  0
 24 25  1  0
 25 26  2  0
 26 27  1  0
 27 28  2  0
 28 29  1  0
 29 30  2  0
 24 31  1  0
 31 32  1  0
 20 33  2  0
 33 34  1  0
 34 35  2  0
 11 36  2  0
 36  7  1  0
 34 13  1  0
 32 21  1  0
 30 25  1  0
  1 37  1  0
  1 38  1  0
  1 39  1  0
  3 40  1  0
  3 41  1  0
  3 42  1  0
  8 43  1  0
  9 44  1  0
 10 45  1  0
 12 46  1  0
 12 47  1  0
 14 48  1  0
 17 49  1  0
 22 50  1  0
 22 51  1  0
 23 52  1  0
 23 53  1  0
 26 54  1  0
 27 55  1  0
 28 56  1  0
 29 57  1  0
 30 58  1  0
 31 59  1  0
 31 60  1  0
 32 61  1  0
 32 62  1  0
 33 63  1  0
 36 64  1  0
M  CHG  2   6  -1  17  -1
M  END
>  <UniqueID>  (45) 
43

>  <SMILES>  (45) 
CN(C)C(=O)[N-]c1cccc(Cn2cc(S([NH-])(=O)=O)c(N3CCN(c4ccccc4)CC3)cc2=O)c1

>  <Energy>  (45) 
82.15777080485279

>  <Genealogy>  (45) 
CN(C)C(=O)[N-]c1cccc(Cn2cc(S([NH-])(=O)=O)c(N3CCN(c4ccccc4)CC3)cc2=O)c1 (protonated)
CN(C)C(=O)[N-]c1cccc(Cn2cc(S([NH-])(=O)=O)c(N3CCN(c4ccccc4)CC3)cc2=O)c1 (3D coordinates assigned)
CN(C)C(=O)[N-]c1cccc(Cn2cc(S([NH-])(=O)=O)c(N3CCN(c4ccccc4)CC3)cc2=O)c1 (nonaromatic ring conformer: 82.15777080485279 kcal/mol)

>  <smiles>  (45) 
CN(C)C(=O)Nc1cccc(Cn2cc(S(N)(=O)=O)c(N3CCN(c4ccccc4)CC3)cc2=O)c1

>  <score_type>  (45) 
oracle

>  <origin>  (45) 
adg

>  <m_score__min__energy>  (45) 
-13.15

>  <m_primary>  (45) 
energy

$$$$
45:0
     RDKit          3D

 48 51  0  0  0  0  0  0  0  0999 V2000
   61.9650   33.8140   46.0260 O   0  0  0  0  0  0  0  0  0  0  0  0
   60.8470   33.8290   46.6090 C   0  0  0  0  0  0  0  0  0  0  0  0
   60.8150   33.8150   48.1180 C   0  0  0  0  0  0  0  0  0  0  0  0
   59.7430   33.0260   48.6340 O   0  0  0  0  0  0  0  0  0  0  0  0
   59.3920   32.9080   49.9870 C   0  0  0  0  0  0  0  0  0  0  0  0
   59.2800   34.0310   50.8440 C   0  0  0  0  0  0  0  0  0  0  0  0
   58.8220   33.8820   52.1680 C   0  0  0  0  0  0  0  0  0  0  0  0
   58.4610   32.6170   52.6590 C   0  0  0  0  0  0  0  0  0  0  0  0
   58.5940   31.5220   51.8100 C   0  0  0  0  0  0  0  0  0  0  0  0
   58.2640   30.2500   52.0830 N   0  0  0  0  0  0  0  0  0  0  0  0
   58.5430   29.5410   50.9690 C   0  0  0  0  0  0  0  0  0  0  0  0
   59.0650   30.3680   49.9790 C   0  0  0  0  0  0  0  0  0  0  0  0
   59.5660   29.9030   48.6750 C   0  0  0  0  0  0  0  0  0  0  0  0
   60.4350   30.5730   48.0550 O   0  0  0  0  0  0  0  0  0  0  0  0
   59.1350   28.6300   48.1750 N   0  0  0  0  0  0  0  0  0  0  0  0
   58.9510   28.2410   46.8050 C   0  0  0  0  0  0  0  0  0  0  0  0
   59.8460   28.6180   45.7820 C   0  0  0  0  0  0  0  0  0  0  0  0
   59.6080   28.2300   44.4610 C   0  0  0  0  0  0  0  0  0  0  0  0
   58.4800   27.4680   44.1450 C   0  0  0  0  0  0  0  0  0  0  0  0
   58.2540   27.0910   42.8610 F   0  0  0  0  0  0  0  0  0  0  0  0
   57.5810   27.1050   45.1490 C   0  0  0  0  0  0  0  0  0  0  0  0
   57.8120   27.4940   46.4720 C   0  0  0  0  0  0  0  0  0  0  0  0
   59.0760   31.6490   50.5260 C   0  0  0  0  0  0  0  0  0  0  0  0
   59.6570   33.9700   45.8180 N   0  0  0  0  0  0  0  0  0  0  0  0
   58.8660   33.0190   45.4060 C   0  0  0  0  0  0  0  0  0  0  0  0
   58.2930   33.1310   44.1340 C   0  0  0  0  0  0  0  0  0  0  0  0
   57.4030   32.1550   43.6870 C   0  0  0  0  0  0  0  0  0  0  0  0
   57.1040   31.0510   44.4960 C   0  0  0  0  0  0  0  0  0  0  0  0
   56.1500   30.0130   44.0460 C   0  0  0  0  0  0  0  0  0  0  0  0
   56.0600   29.7180   42.8220 O   0  0  0  0  0  0  0  0  0  0  0  0
   55.3360   29.3580   44.9640 O   0  0  0  0  0  0  0  0  0  0  0  0
   57.7350   30.9490   45.7450 C   0  0  0  0  0  0  0  0  0  0  0  0
   58.5870   31.9200   46.1730 N   0  0  0  0  0  0  0  0  0  0  0  0
   61.7658   33.4032   48.4874 H   0  0  0  0  0  0  0  0  0  0  0  0
   60.6632   34.8497   48.4591 H   0  0  0  0  0  0  0  0  0  0  0  0
   59.5535   35.0293   50.4717 H   0  0  0  0  0  0  0  0  0  0  0  0
   58.7466   34.7633   52.8220 H   0  0  0  0  0  0  0  0  0  0  0  0
   58.0839   32.4949   53.6851 H   0  0  0  0  0  0  0  0  0  0  0  0
   57.8660   29.8800   52.9750 H   0  0  0  0  0  0  0  0  0  0  0  0
   58.3802   28.4587   50.8588 H   0  0  0  0  0  0  0  0  0  0  0  0
   60.7343   29.2195   46.0251 H   0  0  0  0  0  0  0  0  0  0  0  0
   60.3104   28.5251   43.6676 H   0  0  0  0  0  0  0  0  0  0  0  0
   56.6891   26.5118   44.8990 H   0  0  0  0  0  0  0  0  0  0  0  0
   57.0951   27.2120   47.2572 H   0  0  0  0  0  0  0  0  0  0  0  0
   58.5439   33.9861   43.4891 H   0  0  0  0  0  0  0  0  0  0  0  0
   56.9344   32.2522   42.6965 H   0  0  0  0  0  0  0  0  0  0  0  0
   57.5391   30.0757   46.3845 H   0  0  0  0  0  0  0  0  0  0  0  0
   59.0440   31.7820   47.1030 H   0  0  0  0  0  0  0  0  0  0  0  0
  1  2  2  0
  2  3  1  0
  3  4  1  0
  4  5  1  0
  5  6  2  0
  6  7  1  0
  7  8  2  0
  8  9  1  0
  9 10  1  0
 10 11  1  0
 11 12  2  0
 12 13  1  0
 13 14  2  0
 13 15  1  0
 15 16  1  0
 16 17  2  0
 17 18  1  0
 18 19  2  0
 19 20  1  0
 19 21  1  0
 21 22  2  0
 12 23  1  0
  2 24  1  0
 24 25  2  3
 25 26  1  0
 26 27  2  0
 27 28  1  0
 28 29  1  0
 29 30  2  0
 29 31  1  0
 28 32  2  0
 32 33  1  0
 23  5  1  0
 33 25  1  0
 23  9  2  0
 22 16  1  0
  3 34  1  0
  3 35  1  0
  6 36  1  0
  7 37  1  0
  8 38  1  0
 10 39  1  0
 11 40  1  0
 17 41  1  0
 18 42  1  0
 21 43  1  0
 22 44  1  0
 26 45  1  0
 27 46  1  0
 32 47  1  0
 33 48  1  0
M  CHG  2  15  -1  31  -1
M  END
>  <UniqueID>  (46) 
44

>  <SMILES>  (46) 
O=C(COc1cccc2[nH]cc(C(=O)[N-]c3ccc(F)cc3)c12)N=c1ccc(C(=O)[O-])c[nH]1

>  <Energy>  (46) 
96.52611200193185

>  <Genealogy>  (46) 
O=C(COc1cccc2[nH]cc(C(=O)[N-]c3ccc(F)cc3)c12)N=c1ccc(C(=O)[O-])c[nH]1 (protonated)
O=C(COc1cccc2[nH]cc(C(=O)[N-]c3ccc(F)cc3)c12)N=c1ccc(C(=O)[O-])c[nH]1 (3D coordinates assigned)
O=C(COc1cccc2[nH]cc(C(=O)[N-]c3ccc(F)cc3)c12)N=c1ccc(C(=O)[O-])c[nH]1 (optimized conformer: 96.52611200193185 kcal/mol)

>  <smiles>  (46) 
O=C(COc1cccc2[nH]cc(C(=O)Nc3ccc(F)cc3)c12)N=c1ccc(C(=O)O)c[nH]1

>  <score_type>  (46) 
oracle

>  <origin>  (46) 
adg

>  <m_score__min__energy>  (46) 
-11.85

>  <m_primary>  (46) 
energy

$$$$
46:0
     RDKit          3D

 49 51  0  0  0  0  0  0  0  0999 V2000
   60.2940   29.5400   50.6300 C   0  0  0  0  0  0  0  0  0  0  0  0
   59.5970   30.5930   50.1800 C   0  0  0  0  0  0  0  0  0  0  0  0
   58.7490   31.3410   50.9620 C   0  0  0  0  0  0  0  0  0  0  0  0
   58.4980   31.1640   52.3180 O   0  0  0  0  0  0  0  0  0  0  0  0
   58.1640   32.2860   50.1630 C   0  0  0  0  0  0  0  0  0  0  0  0
   58.6710   32.0850   48.8810 C   0  0  0  0  0  0  0  0  0  0  0  0
   58.2210   32.8330   47.8410 C   0  0  0  0  0  0  0  0  0  0  0  0
   58.8510   33.1330   46.4960 C   0  0  2  0  0  0  0  0  0  0  0  0
   59.8210   34.3250   46.6030 C   0  0  0  0  0  0  0  0  0  0  0  0
   61.0860   33.9420   47.3100 C   0  0  0  0  0  0  0  0  0  0  0  0
   62.2460   33.4670   46.7090 C   0  0  0  0  0  0  0  0  0  0  0  0
   63.3040   33.2950   47.6090 C   0  0  0  0  0  0  0  0  0  0  0  0
   62.9830   33.6390   48.9180 C   0  0  0  0  0  0  0  0  0  0  0  0
   61.3830   34.1590   48.9530 S   0  0  0  0  0  0  0  0  0  0  0  0
   57.7620   33.4370   45.5050 C   0  0  0  0  0  0  0  0  0  0  0  0
   57.7010   34.5690   44.9520 O   0  0  0  0  0  0  0  0  0  0  0  0
   56.7930   32.4330   45.2020 N   0  0  0  0  0  0  0  0  0  0  0  0
   57.1870   30.9540   44.3920 S   0  0  0  0  0  0  0  0  0  0  0  0
   56.9720   31.1630   42.6390 C   0  0  0  0  0  0  0  0  0  0  0  0
   56.2750   29.8650   44.8870 O   0  0  0  0  0  0  0  0  0  0  0  0
   58.6090   30.5730   44.6930 O   0  0  0  0  0  0  0  0  0  0  0  0
   59.5830   31.0580   48.8950 N   0  0  0  0  0  0  0  0  0  0  0  0
   60.4190   30.5330   47.8010 C   0  0  0  0  0  0  0  0  0  0  0  0
   59.7580   29.3990   47.0440 C   0  0  0  0  0  0  0  0  0  0  0  0
   60.4290   28.8500   45.9390 C   0  0  0  0  0  0  0  0  0  0  0  0
   59.8520   27.8120   45.2020 C   0  0  0  0  0  0  0  0  0  0  0  0
   58.5980   27.3090   45.5620 C   0  0  0  0  0  0  0  0  0  0  0  0
   57.7990   25.9020   44.5490 Br  0  0  0  0  0  0  0  0  0  0  0  0
   57.9260   27.8360   46.6700 C   0  0  0  0  0  0  0  0  0  0  0  0
   58.4990   28.8720   47.4100 C   0  0  0  0  0  0  0  0  0  0  0  0
   60.9552   28.9859   49.9476 H   0  0  0  0  0  0  0  0  0  0  0  0
   60.2047   29.2301   51.6817 H   0  0  0  0  0  0  0  0  0  0  0  0
   57.4376   33.0522   50.4719 H   0  0  0  0  0  0  0  0  0  0  0  0
   57.2370   33.2978   48.0013 H   0  0  0  0  0  0  0  0  0  0  0  0
   59.4257   32.2571   46.1605 H   0  0  0  0  0  0  0  0  0  0  0  0
   60.0695   34.6756   45.5904 H   0  0  0  0  0  0  0  0  0  0  0  0
   59.3286   35.1197   47.1827 H   0  0  0  0  0  0  0  0  0  0  0  0
   62.3245   33.2482   45.6338 H   0  0  0  0  0  0  0  0  0  0  0  0
   64.2950   32.9232   47.3097 H   0  0  0  0  0  0  0  0  0  0  0  0
   63.6599   33.5810   49.7831 H   0  0  0  0  0  0  0  0  0  0  0  0
   56.1947   31.9186   42.4524 H   0  0  0  0  0  0  0  0  0  0  0  0
   57.9202   31.4938   42.1902 H   0  0  0  0  0  0  0  0  0  0  0  0
   56.6681   30.2058   42.1902 H   0  0  0  0  0  0  0  0  0  0  0  0
   60.6277   31.3508   47.0956 H   0  0  0  0  0  0  0  0  0  0  0  0
   61.3401   30.1353   48.2520 H   0  0  0  0  0  0  0  0  0  0  0  0
   61.4165   29.2400   45.6513 H   0  0  0  0  0  0  0  0  0  0  0  0
   60.3853   27.3901   44.3374 H   0  0  0  0  0  0  0  0  0  0  0  0
   56.9440   27.4333   46.9588 H   0  0  0  0  0  0  0  0  0  0  0  0
   57.9677   29.2801   48.2824 H   0  0  0  0  0  0  0  0  0  0  0  0
  1  2  2  0
  2  3  1  0
  3  4  1  0
  3  5  2  0
  5  6  1  0
  6  7  2  3
  7  8  1  0
  8  9  1  0
  9 10  1  0
 10 11  2  0
 11 12  1  0
 12 13  2  0
 13 14  1  0
  8 15  1  0
 15 16  2  0
 15 17  1  0
 17 18  1  0
 18 19  1  0
 18 20  2  0
 18 21  2  0
  6 22  1  0
 22 23  1  0
 23 24  1  0
 24 25  2  0
 25 26  1  0
 26 27  2  0
 27 28  1  0
 27 29  1  0
 29 30  2  0
 22  2  1  0
 30 24  1  0
 14 10  1  0
  1 31  1  0
  1 32  1  0
  5 33  1  0
  7 34  1  0
  8 35  1  6
  9 36  1  0
  9 37  1  0
 11 38  1  0
 12 39  1  0
 13 40  1  0
 19 41  1  0
 19 42  1  0
 19 43  1  0
 23 44  1  0
 23 45  1  0
 25 46  1  0
 26 47  1  0
 29 48  1  0
 30 49  1  0
M  CHG  2   4  -1  17  -1
M  END
>  <UniqueID>  (47) 
45

>  <SMILES>  (47) 
C=c1c([O-])cc(=C[C@H](Cc2cccs2)C(=O)[N-]S(C)(=O)=O)n1Cc1ccc(Br)cc1

>  <Energy>  (47) 
109.38127614715819

>  <Genealogy>  (47) 
C=c1c([O-])cc(=CC(Cc2cccs2)C(=O)[N-]S(C)(=O)=O)n1Cc1ccc(Br)cc1 (protonated)
C=c1c([O-])cc(=C[C@H](Cc2cccs2)C(=O)[N-]S(C)(=O)=O)n1Cc1ccc(Br)cc1 (chirality)
C=c1c([O-])cc(=C[C@H](Cc2cccs2)C(=O)[N-]S(C)(=O)=O)n1Cc1ccc(Br)cc1 (3D coordinates assigned)
C=c1c([O-])cc(=C[C@H](Cc2cccs2)C(=O)[N-]S(C)(=O)=O)n1Cc1ccc(Br)cc1 (optimized conformer: 109.38127614715819 kcal/mol)

>  <smiles>  (47) 
C=c1c(O)cc(=CC(Cc2cccs2)C(=O)NS(C)(=O)=O)n1Cc1ccc(Br)cc1

>  <score_type>  (47) 
oracle

>  <origin>  (47) 
adg

>  <m_score__min__energy>  (47) 
-13.27

>  <m_primary>  (47) 
energy

$$$$
47:0
     RDKit          3D

 59 63  0  0  0  0  0  0  0  0999 V2000
   55.6128   30.4582   52.4399 H   0  0  0  0  0  0  0  0  0  0  0  0
   56.6590   30.6660   52.1710 C   0  0  0  0  0  0  0  0  0  0  0  0
   57.3910   29.7260   51.5120 N   0  0  0  0  0  0  0  0  0  0  0  0
   58.6930   29.9430   51.1670 C   0  0  0  0  0  0  0  0  0  0  0  0
   59.3890   29.0240   50.5670 N   0  0  0  0  0  0  0  0  0  0  0  0
   59.6230   28.9720   49.1550 C   0  0  0  0  0  0  0  0  0  0  0  0
   59.9080   27.8690   48.6220 O   0  0  0  0  0  0  0  0  0  0  0  0
   59.6410   30.1990   48.3400 C   0  0  0  0  0  0  0  0  0  0  0  0
   60.3160   31.3160   48.7000 N   0  0  0  0  0  0  0  0  0  0  0  0
   59.9640   32.2140   47.7560 C   0  0  0  0  0  0  0  0  0  0  0  0
   60.3540   33.5580   47.6940 C   0  0  0  0  0  0  0  0  0  0  0  0
   61.3120   34.2020   48.6750 C   0  0  2  0  0  0  0  0  0  0  0  0
   61.1278   35.2700   48.4865 H   0  0  0  0  0  0  0  0  0  0  0  0
   62.7770   33.8370   48.4580 C   0  0  0  0  0  0  0  0  0  0  0  0
   63.2857   34.6582   47.9318 H   0  0  0  0  0  0  0  0  0  0  0  0
   62.8414   32.9198   47.8541 H   0  0  0  0  0  0  0  0  0  0  0  0
   63.3970   33.6230   49.7070 O   0  0  0  0  0  0  0  0  0  0  0  0
   62.4430   33.8830   50.7100 C   0  0  0  0  0  0  0  0  0  0  0  0
   62.6152   34.8846   51.1308 H   0  0  0  0  0  0  0  0  0  0  0  0
   62.5333   33.1326   51.5092 H   0  0  0  0  0  0  0  0  0  0  0  0
   61.0570   33.8190   50.1070 C   0  0  0  0  0  0  0  0  0  0  0  0
   60.3769   34.5326   50.5951 H   0  0  0  0  0  0  0  0  0  0  0  0
   60.5722   32.8382   50.2208 H   0  0  0  0  0  0  0  0  0  0  0  0
   59.8070   34.3250   46.7080 N   0  0  0  0  0  0  0  0  0  0  0  0
   58.9310   33.8290   45.7810 C   0  0  0  0  0  0  0  0  0  0  0  0
   58.3830   34.7780   44.7550 C   0  0  0  0  0  0  0  0  0  0  0  0
   57.8947   35.6236   45.2615 H   0  0  0  0  0  0  0  0  0  0  0  0
   59.2042   35.1520   44.1259 H   0  0  0  0  0  0  0  0  0  0  0  0
   57.6486   34.2538   44.1259 H   0  0  0  0  0  0  0  0  0  0  0  0
   58.5930   32.4530   45.8230 C   0  0  0  0  0  0  0  0  0  0  0  0
   57.6960   31.8230   44.8370 C   0  0  0  0  0  0  0  0  0  0  0  0
   57.7790   32.1700   43.6310 O   0  0  0  0  0  0  0  0  0  0  0  0
   56.6760   30.8920   45.2250 N   0  0  0  0  0  0  0  0  0  0  0  0
   56.3930   29.5780   44.6360 C   0  0  2  0  0  0  0  0  0  0  0  0
   55.4245   29.2184   45.0138 H   0  0  0  0  0  0  0  0  0  0  0  0
   57.3800   28.5150   45.0940 C   0  0  0  0  0  0  0  0  0  0  0  0
   58.6960   28.5660   44.6020 C   0  0  0  0  0  0  0  0  0  0  0  0
   58.9925   29.3791   43.9230 H   0  0  0  0  0  0  0  0  0  0  0  0
   59.6310   27.5940   44.9670 C   0  0  0  0  0  0  0  0  0  0  0  0
   60.6570   27.6443   44.5735 H   0  0  0  0  0  0  0  0  0  0  0  0
   59.2660   26.5590   45.8300 C   0  0  0  0  0  0  0  0  0  0  0  0
   60.0041   25.7961   46.1185 H   0  0  0  0  0  0  0  0  0  0  0  0
   57.9630   26.4940   46.3260 C   0  0  0  0  0  0  0  0  0  0  0  0
   57.6741   25.6756   47.0019 H   0  0  0  0  0  0  0  0  0  0  0  0
   57.0240   27.4650   45.9670 C   0  0  0  0  0  0  0  0  0  0  0  0
   56.0010   27.4104   46.3675 H   0  0  0  0  0  0  0  0  0  0  0  0
   56.2400   29.6990   43.1150 C   0  0  0  0  0  0  0  0  0  0  0  0
   55.3966   30.3660   42.8832 H   0  0  0  0  0  0  0  0  0  0  0  0
   57.1640   30.1134   42.6853 H   0  0  0  0  0  0  0  0  0  0  0  0
   56.0497   28.7044   42.6853 H   0  0  0  0  0  0  0  0  0  0  0  0
   59.1170   31.7150   46.8410 N   0  0  0  0  0  0  0  0  0  0  0  0
   58.8990   30.4360   47.1950 C   0  0  0  0  0  0  0  0  0  0  0  0
   58.2532   29.7143   46.6734 H   0  0  0  0  0  0  0  0  0  0  0  0
   59.3030   31.1600   51.4970 C   0  0  0  0  0  0  0  0  0  0  0  0
   60.3549   31.3431   51.2324 H   0  0  0  0  0  0  0  0  0  0  0  0
   58.5640   32.1390   52.1650 C   0  0  0  0  0  0  0  0  0  0  0  0
   59.0298   33.1019   52.4216 H   0  0  0  0  0  0  0  0  0  0  0  0
   57.2340   31.8930   52.5060 C   0  0  0  0  0  0  0  0  0  0  0  0
   56.6447   32.6577   53.0332 H   0  0  0  0  0  0  0  0  0  0  0  0
  1  2  1  0
  2  3  1  0
  3  4  1  0
  4  5  2  0
  5  6  1  0
  6  7  2  0
  6  8  1  0
  8  9  1  0
  9 10  2  0
 10 11  1  0
 11 12  1  0
 12 13  1  1
 12 14  1  0
 14 15  1  0
 14 16  1  0
 14 17  1  0
 17 18  1  0
 18 19  1  0
 18 20  1  0
 18 21  1  0
 21 22  1  0
 21 23  1  0
 11 24  2  0
 24 25  1  0
 25 26  1  0
 26 27  1  0
 26 28  1  0
 26 29  1  0
 25 30  2  0
 30 31  1  0
 31 32  2  0
 31 33  1  0
 33 34  1  0
 34 35  1  1
 34 36  1  0
 36 37  2  0
 37 38  1  0
 37 39  1  0
 39 40  1  0
 39 41  2  0
 41 42  1  0
 41 43  1  0
 43 44  1  0
 43 45  2  0
 45 46  1  0
 34 47  1  0
 47 48  1  0
 47 49  1  0
 47 50  1  0
 30 51  1  0
 51 52  1  0
 52 53  1  0
  4 54  1  0
 54 55  1  0
 54 56  2  0
 56 57  1  0
 56 58  1  0
 58 59  1  0
 58  2  2  0
 52  8  2  0
 51 10  1  0
 21 12  1  0
 45 36  1  0
M  CHG  2   3  -1  33  -1
M  END
>  <UniqueID>  (48) 
46

>  <SMILES>  (48) 
Cc1nc([C@H]2CCOC2)c2nc(C(=O)/N=c3/cccc[n-]3)cn2c1C(=O)[N-][C@@H](C)c1ccccc1

>  <Energy>  (48) 
114.42595757257197

>  <Genealogy>  (48) 
Cc1nc(C2CCOC2)c2nc(C(=O)N=c3cccc[n-]3)cn2c1C(=O)[N-]C(C)c1ccccc1 (protonated)
Cc1nc([C@H]2CCOC2)c2nc(C(=O)N=c3cccc[n-]3)cn2c1C(=O)[N-][C@@H](C)c1ccccc1 (chirality)
Cc1nc([C@H]2CCOC2)c2nc(C(=O)/N=c3/cccc[n-]3)cn2c1C(=O)[N-][C@@H](C)c1ccccc1 (cis-trans isomerization)
Cc1nc([C@H]2CCOC2)c2nc(C(=O)/N=c3/cccc[n-]3)cn2c1C(=O)[N-][C@@H](C)c1ccccc1 (3D coordinates assigned)
Cc1nc([C@H]2CCOC2)c2nc(C(=O)/N=c3/cccc[n-]3)cn2c1C(=O)[N-][C@@H](C)c1ccccc1 (nonaromatic ring conformer: 114.42595757257197 kcal/mol)

>  <smiles>  (48) 
Cc1nc(C2CCOC2)c2nc(C(=O)N=c3cccc[nH]3)cn2c1C(=O)NC(C)c1ccccc1

>  <score_type>  (48) 
oracle

>  <origin>  (48) 
adg

>  <m_score__min__energy>  (48) 
-12.06

>  <m_primary>  (48) 
energy

$$$$
48:0
     RDKit          3D

 70 74  0  0  0  0  0  0  0  0999 V2000
   60.8757   25.9700   45.4298 H   0  0  0  0  0  0  0  0  0  0  0  0
   60.4980   26.8130   46.0270 C   0  0  0  0  0  0  0  0  0  0  0  0
   60.8220   26.9190   47.3390 N   0  0  0  0  0  0  0  0  0  0  0  0
   60.3950   27.9440   48.0780 N   0  0  0  0  0  0  0  0  0  0  0  0
   59.6190   28.9400   47.5630 C   0  0  0  0  0  0  0  0  0  0  0  0
   59.2200   30.0940   48.4710 C   0  0  0  0  0  0  0  0  0  0  0  0
   58.4931   30.7207   47.9335 H   0  0  0  0  0  0  0  0  0  0  0  0
   58.5190   29.5700   49.7490 C   0  0  0  0  0  0  0  0  0  0  0  0
   58.1534   28.5493   49.5632 H   0  0  0  0  0  0  0  0  0  0  0  0
   57.6855   30.2470   49.9878 H   0  0  0  0  0  0  0  0  0  0  0  0
   59.4760   29.5460   50.9440 C   0  0  0  0  0  0  0  0  0  0  0  0
   60.3353   28.9026   50.7039 H   0  0  0  0  0  0  0  0  0  0  0  0
   58.9351   29.1556   51.8186 H   0  0  0  0  0  0  0  0  0  0  0  0
   59.9640   30.9080   51.2600 N   0  0  0  0  0  0  0  0  0  0  0  0
   61.0460   30.9250   52.2680 C   0  0  0  0  0  0  0  0  0  0  0  0
   60.8059   30.1844   53.0451 H   0  0  0  0  0  0  0  0  0  0  0  0
   61.0977   31.9512   52.6607 H   0  0  0  0  0  0  0  0  0  0  0  0
   62.4350   30.5970   51.7020 C   0  0  0  0  0  0  0  0  0  0  0  0
   63.1388   30.4308   52.5309 H   0  0  0  0  0  0  0  0  0  0  0  0
   62.3743   29.6885   51.0848 H   0  0  0  0  0  0  0  0  0  0  0  0
   62.7871   31.4367   51.0848 H   0  0  0  0  0  0  0  0  0  0  0  0
   60.1960   31.7930   50.0900 C   0  0  0  0  0  0  0  0  0  0  0  0
   61.0794   32.4175   50.2891 H   0  0  0  0  0  0  0  0  0  0  0  0
   59.2932   32.4053   49.9483 H   0  0  0  0  0  0  0  0  0  0  0  0
   60.4330   31.0020   48.7960 C   0  0  0  0  0  0  0  0  0  0  0  0
   61.3293   30.3758   48.9161 H   0  0  0  0  0  0  0  0  0  0  0  0
   60.5692   31.7146   47.9692 H   0  0  0  0  0  0  0  0  0  0  0  0
   59.2090   28.8490   46.2110 C   0  0  0  0  0  0  0  0  0  0  0  0
   58.2660   29.8080   45.5920 C   0  0  0  0  0  0  0  0  0  0  0  0
   58.2680   31.1100   45.9860 N   0  0  0  0  0  0  0  0  0  0  0  0
   57.3970   32.0140   45.4540 C   0  0  0  0  0  0  0  0  0  0  0  0
   57.4080   33.2550   45.8370 N   0  0  0  0  0  0  0  0  0  0  0  0
   58.4450   34.2160   45.4710 C   0  0  0  0  0  0  0  0  0  0  0  0
   58.7962   34.0029   44.4506 H   0  0  0  0  0  0  0  0  0  0  0  0
   58.0286   35.2331   45.5158 H   0  0  0  0  0  0  0  0  0  0  0  0
   59.6000   34.1110   46.4280 C   0  0  0  0  0  0  0  0  0  0  0  0
   60.7780   33.4600   46.0350 C   0  0  0  0  0  0  0  0  0  0  0  0
   60.8599   33.0429   45.0205 H   0  0  0  0  0  0  0  0  0  0  0  0
   61.8490   33.3380   46.9250 C   0  0  0  0  0  0  0  0  0  0  0  0
   62.7725   32.8365   46.5999 H   0  0  0  0  0  0  0  0  0  0  0  0
   61.7580   33.8500   48.2320 C   0  0  0  0  0  0  0  0  0  0  0  0
   62.8630   33.7170   49.1580 N   0  0  0  0  0  0  0  0  0  0  0  0
   64.1900   33.2930   48.6880 C   0  0  0  0  0  0  0  0  0  0  0  0
   64.0726   32.6266   47.8208 H   0  0  0  0  0  0  0  0  0  0  0  0
   64.7708   34.1823   48.4020 H   0  0  0  0  0  0  0  0  0  0  0  0
   64.9340   32.5460   49.8050 C   0  0  0  0  0  0  0  0  0  0  0  0
   64.4055   31.6022   50.0047 H   0  0  0  0  0  0  0  0  0  0  0  0
   65.9635   32.3813   49.4543 H   0  0  0  0  0  0  0  0  0  0  0  0
   65.0220   33.3140   51.0750 N   0  0  0  0  0  0  0  0  0  0  0  0
   66.3840   33.8230   51.3010 C   0  0  0  0  0  0  0  0  0  0  0  0
   66.5742   33.8941   52.3821 H   0  0  0  0  0  0  0  0  0  0  0  0
   67.1124   33.1364   50.8449 H   0  0  0  0  0  0  0  0  0  0  0  0
   66.4836   34.8190   50.8449 H   0  0  0  0  0  0  0  0  0  0  0  0
   64.0370   34.4120   51.2070 C   0  0  0  0  0  0  0  0  0  0  0  0
   63.8845   34.6269   52.2750 H   0  0  0  0  0  0  0  0  0  0  0  0
   64.4334   35.2918   50.6789 H   0  0  0  0  0  0  0  0  0  0  0  0
   62.6900   34.0470   50.5780 C   0  0  0  0  0  0  0  0  0  0  0  0
   62.2678   33.1778   51.1036 H   0  0  0  0  0  0  0  0  0  0  0  0
   62.0099   34.9072   50.6650 H   0  0  0  0  0  0  0  0  0  0  0  0
   60.5700   34.4990   48.6210 C   0  0  0  0  0  0  0  0  0  0  0  0
   60.4813   34.9085   49.6381 H   0  0  0  0  0  0  0  0  0  0  0  0
   59.5030   34.6280   47.7280 C   0  0  0  0  0  0  0  0  0  0  0  0
   58.5818   35.1379   48.0465 H   0  0  0  0  0  0  0  0  0  0  0  0
   56.5090   31.6150   44.5070 N   0  0  0  0  0  0  0  0  0  0  0  0
   56.4680   30.3250   44.0850 C   0  0  0  0  0  0  0  0  0  0  0  0
   55.7432   30.0213   43.3153 H   0  0  0  0  0  0  0  0  0  0  0  0
   57.3430   29.3860   44.6260 C   0  0  0  0  0  0  0  0  0  0  0  0
   57.3101   28.3354   44.3017 H   0  0  0  0  0  0  0  0  0  0  0  0
   59.6850   27.7770   45.4410 C   0  0  0  0  0  0  0  0  0  0  0  0
   59.4159   27.6994   44.3772 H   0  0  0  0  0  0  0  0  0  0  0  0
  1  2  1  0
  2  3  2  0
  3  4  1  0
  4  5  2  0
  5  6  1  0
  6  7  1  0
  6  8  1  0
  8  9  1  0
  8 10  1  0
  8 11  1  0
 11 12  1  0
 11 13  1  0
 11 14  1  0
 14 15  1  0
 15 16  1  0
 15 17  1  0
 15 18  1  0
 18 19  1  0
 18 20  1  0
 18 21  1  0
 14 22  1  0
 22 23  1  0
 22 24  1  0
 22 25  1  0
 25 26  1  0
 25 27  1  0
  5 28  1  0
 28 29  1  0
 29 30  2  0
 30 31  1  0
 31 32  2  0
 32 33  1  0
 33 34  1  0
 33 35  1  0
 33 36  1  0
 36 37  2  0
 37 38  1  0
 37 39  1  0
 39 40  1  0
 39 41  2  0
 41 42  1  0
 42 43  1  0
 43 44  1  0
 43 45  1  0
 43 46  1  0
 46 47  1  0
 46 48  1  0
 46 49  1  0
 49 50  1  0
 50 51  1  0
 50 52  1  0
 50 53  1  0
 49 54  1  0
 54 55  1  0
 54 56  1  0
 54 57  1  0
 57 58  1  0
 57 59  1  0
 41 60  1  0
 60 61  1  0
 60 62  2  0
 62 63  1  0
 31 64  1  0
 64 65  1  0
 65 66  1  0
 65 67  2  0
 67 68  1  0
 28 69  2  0
 69 70  1  0
 69  2  1  0
 25  6  1  0
 67 29  1  0
 62 36  1  0
 57 42  1  0
M  CHG  1  64  -1
M  END
>  <UniqueID>  (49) 
47

>  <SMILES>  (49) 
CCN1CCC(c2nnccc2-c2cc[n-]/c(=N/Cc3ccc(N4CCN(C)CC4)cc3)n2)CC1

>  <Energy>  (49) 
100.56484418354671

>  <Genealogy>  (49) 
CCN1CCC(c2nnccc2-c2cc[n-]c(=NCc3ccc(N4CCN(C)CC4)cc3)n2)CC1 (protonated)
CCN1CCC(c2nnccc2-c2cc[n-]/c(=N/Cc3ccc(N4CCN(C)CC4)cc3)n2)CC1 (cis-trans isomerization)
CCN1CCC(c2nnccc2-c2cc[n-]/c(=N/Cc3ccc(N4CCN(C)CC4)cc3)n2)CC1 (3D coordinates assigned)
CCN1CCC(c2nnccc2-c2cc[n-]/c(=N/Cc3ccc(N4CCN(C)CC4)cc3)n2)CC1 (nonaromatic ring conformer: 100.56484418354671 kcal/mol)

>  <smiles>  (49) 
CCN1CCC(c2nnccc2-c2cc[nH]c(=NCc3ccc(N4CCN(C)CC4)cc3)n2)CC1

>  <score_type>  (49) 
oracle

>  <origin>  (49) 
adg

>  <m_score__min__energy>  (49) 
-10.789999999999999

>  <m_primary>  (49) 
energy

$$$$
49:0
     RDKit          3D

 51 53  0  0  0  0  0  0  0  0999 V2000
   54.7730   26.3230   45.9960 N   0  0  0  0  0  0  0  0  0  0  0  0
   56.3500   25.6590   46.2380 S   0  0  0  0  0  0  0  0  0  0  0  0
   56.3650   24.8600   47.5100 O   0  0  0  0  0  0  0  0  0  0  0  0
   56.6950   24.7470   45.0930 O   0  0  0  0  0  0  0  0  0  0  0  0
   57.5290   26.9620   46.3300 C   0  0  0  0  0  0  0  0  0  0  0  0
   58.5400   26.9380   47.3020 C   0  0  0  0  0  0  0  0  0  0  0  0
   59.4640   27.9830   47.3800 C   0  0  0  0  0  0  0  0  0  0  0  0
   59.3840   29.0570   46.4910 C   0  0  0  0  0  0  0  0  0  0  0  0
   58.3790   29.0930   45.5120 C   0  0  0  0  0  0  0  0  0  0  0  0
   58.2680   30.2700   44.5830 C   0  0  0  0  0  0  0  0  0  0  0  0
   56.9470   30.9450   44.7700 C   0  0  0  0  0  0  0  0  0  0  0  0
   55.8830   30.3120   44.5320 O   0  0  0  0  0  0  0  0  0  0  0  0
   56.9010   32.2790   45.2910 N   0  0  0  0  0  0  0  0  0  0  0  0
   57.9710   32.9080   46.0070 C   0  0  0  0  0  0  0  0  0  0  0  0
   58.5650   32.2050   47.0620 C   0  0  0  0  0  0  0  0  0  0  0  0
   59.5820   32.7920   47.8270 C   0  0  0  0  0  0  0  0  0  0  0  0
   60.3070   31.9180   49.1730 S   0  0  0  0  0  0  0  0  0  0  0  0
   60.3920   32.8180   50.3750 O   0  0  0  0  0  0  0  0  0  0  0  0
   59.4280   30.7470   49.5140 O   0  0  0  0  0  0  0  0  0  0  0  0
   61.9030   31.3690   48.7050 N   0  0  0  0  0  0  0  0  0  0  0  0
   62.2040   31.6830   47.2830 C   0  0  0  0  0  0  0  0  0  0  0  0
   63.3660   32.6750   47.0900 C   0  0  0  0  0  0  0  0  0  0  0  0
   63.2700   33.8250   48.0920 C   0  0  0  0  0  0  0  0  0  0  0  0
   63.2380   33.3230   49.5470 C   0  0  0  0  0  0  0  0  0  0  0  0
   62.9380   31.8150   49.6580 C   0  0  0  0  0  0  0  0  0  0  0  0
   60.0070   34.0910   47.5300 C   0  0  0  0  0  0  0  0  0  0  0  0
   59.4480   34.7850   46.4550 C   0  0  0  0  0  0  0  0  0  0  0  0
   58.4520   34.1940   45.6700 C   0  0  0  0  0  0  0  0  0  0  0  0
   57.9930   34.8890   44.5510 O   0  0  0  0  0  0  0  0  0  0  0  0
   57.4440   28.0460   45.4460 C   0  0  0  0  0  0  0  0  0  0  0  0
   54.6550   27.0900   46.6960 H   0  0  0  0  0  0  0  0  0  0  0  0
   58.6055   26.0942   48.0047 H   0  0  0  0  0  0  0  0  0  0  0  0
   60.2560   27.9598   48.1431 H   0  0  0  0  0  0  0  0  0  0  0  0
   60.1122   29.8787   46.5584 H   0  0  0  0  0  0  0  0  0  0  0  0
   59.0761   30.9838   44.8009 H   0  0  0  0  0  0  0  0  0  0  0  0
   58.3509   29.9193   43.5437 H   0  0  0  0  0  0  0  0  0  0  0  0
   58.2305   31.1828   47.2925 H   0  0  0  0  0  0  0  0  0  0  0  0
   62.4617   30.7451   46.7693 H   0  0  0  0  0  0  0  0  0  0  0  0
   61.3055   32.1625   46.8672 H   0  0  0  0  0  0  0  0  0  0  0  0
   64.3195   32.1467   47.2377 H   0  0  0  0  0  0  0  0  0  0  0  0
   63.3110   33.0887   46.0722 H   0  0  0  0  0  0  0  0  0  0  0  0
   64.1425   34.4823   47.9625 H   0  0  0  0  0  0  0  0  0  0  0  0
   62.3316   34.3655   47.8990 H   0  0  0  0  0  0  0  0  0  0  0  0
   64.2173   33.5203   50.0074 H   0  0  0  0  0  0  0  0  0  0  0  0
   62.4266   33.8584   50.0618 H   0  0  0  0  0  0  0  0  0  0  0  0
   63.8643   31.2562   49.4587 H   0  0  0  0  0  0  0  0  0  0  0  0
   62.5592   31.6252   50.6731 H   0  0  0  0  0  0  0  0  0  0  0  0
   60.7843   34.5675   48.1454 H   0  0  0  0  0  0  0  0  0  0  0  0
   59.7931   35.8035   46.2237 H   0  0  0  0  0  0  0  0  0  0  0  0
   57.1980   34.5840   44.0050 H   0  0  0  0  0  0  0  0  0  0  0  0
   56.6403   28.0775   44.6956 H   0  0  0  0  0  0  0  0  0  0  0  0
  1  2  1  0
  2  3  2  0
  2  4  2  0
  2  5  1  0
  5  6  2  0
  6  7  1  0
  7  8  2  0
  8  9  1  0
  9 10  1  0
 10 11  1  0
 11 12  2  0
 11 13  1  0
 13 14  1  0
 14 15  2  0
 15 16  1  0
 16 17  1  0
 17 18  2  0
 17 19  2  0
 17 20  1  0
 20 21  1  0
 21 22  1  0
 22 23  1  0
 23 24  1  0
 24 25  1  0
 16 26  2  0
 26 27  1  0
 27 28  2  0
 28 29  1  0
  9 30  2  0
 30  5  1  0
 28 14  1  0
 25 20  1  0
  1 31  1  0
  6 32  1  0
  7 33  1  0
  8 34  1  0
 10 35  1  0
 10 36  1  0
 15 37  1  0
 21 38  1  0
 21 39  1  0
 22 40  1  0
 22 41  1  0
 23 42  1  0
 23 43  1  0
 24 44  1  0
 24 45  1  0
 25 46  1  0
 25 47  1  0
 26 48  1  0
 27 49  1  0
 29 50  1  0
 30 51  1  0
M  CHG  2   1  -1  13  -1
M  END
>  <UniqueID>  (50) 
48

>  <SMILES>  (50) 
[NH-]S(=O)(=O)c1cccc(CC(=O)[N-]c2cc(S(=O)(=O)N3CCCCC3)ccc2O)c1

>  <Energy>  (50) 
63.68760221265007

>  <Genealogy>  (50) 
[NH-]S(=O)(=O)c1cccc(CC(=O)[N-]c2cc(S(=O)(=O)N3CCCCC3)ccc2O)c1 (protonated)
[NH-]S(=O)(=O)c1cccc(CC(=O)[N-]c2cc(S(=O)(=O)N3CCCCC3)ccc2O)c1 (3D coordinates assigned)
[NH-]S(=O)(=O)c1cccc(CC(=O)[N-]c2cc(S(=O)(=O)N3CCCCC3)ccc2O)c1 (nonaromatic ring conformer: 63.68760221265007 kcal/mol)

>  <smiles>  (50) 
NS(=O)(=O)c1cccc(CC(=O)Nc2cc(S(=O)(=O)N3CCCCC3)ccc2O)c1

>  <score_type>  (50) 
oracle

>  <origin>  (50) 
adg

>  <m_score__min__energy>  (50) 
-14.09

>  <m_primary>  (50) 
energy

$$$$
50:0
     RDKit          3D

 45 47  0  0  0  0  0  0  0  0999 V2000
   64.8490   33.0480   49.4200 C   0  0  0  0  0  0  0  0  0  0  0  0
   63.4990   32.4080   49.7210 C   0  0  0  0  0  0  0  0  0  0  0  0
   62.4690   33.3960   49.7720 O   0  0  0  0  0  0  0  0  0  0  0  0
   61.5960   33.7220   48.7210 C   0  0  0  0  0  0  0  0  0  0  0  0
   60.2990   34.2290   48.9350 C   0  0  0  0  0  0  0  0  0  0  0  0
   59.4800   34.5460   47.8490 C   0  0  0  0  0  0  0  0  0  0  0  0
   59.9450   34.3770   46.5340 C   0  0  0  0  0  0  0  0  0  0  0  0
   59.1270   34.6950   45.4000 N   0  0  0  0  0  0  0  0  0  0  0  0
   57.9820   33.9530   44.9590 C   0  0  0  0  0  0  0  0  0  0  0  0
   56.9480   34.5840   44.6190 O   0  0  0  0  0  0  0  0  0  0  0  0
   57.9690   32.4740   44.9680 C   0  0  0  0  0  0  0  0  0  0  0  0
   58.1450   31.5180   46.3450 S   0  0  0  0  0  0  0  0  0  0  0  0
   57.9890   30.0760   45.4920 C   0  0  0  0  0  0  0  0  0  0  0  0
   58.0520   28.7630   46.0800 N   0  0  0  0  0  0  0  0  0  0  0  0
   59.1420   28.3820   46.8330 C   0  0  0  0  0  0  0  0  0  0  0  0
   60.3180   29.3020   47.0510 C   0  0  0  0  0  0  0  0  0  0  0  0
   59.1700   27.1080   47.4250 C   0  0  0  0  0  0  0  0  0  0  0  0
   58.1120   26.2280   47.2250 C   0  0  0  0  0  0  0  0  0  0  0  0
   58.1360   25.0800   47.7460 O   0  0  0  0  0  0  0  0  0  0  0  0
   57.0260   26.6180   46.4490 C   0  0  0  0  0  0  0  0  0  0  0  0
   57.0030   27.8990   45.8830 C   0  0  0  0  0  0  0  0  0  0  0  0
   55.8920   28.2930   45.1340 O   0  0  0  0  0  0  0  0  0  0  0  0
   57.7900   30.2940   44.1740 N   0  0  0  0  0  0  0  0  0  0  0  0
   57.7750   31.6210   43.8720 C   0  0  0  0  0  0  0  0  0  0  0  0
   57.5700   32.0890   42.4660 C   0  0  0  0  0  0  0  0  0  0  0  0
   61.2200   33.8400   46.3230 C   0  0  0  0  0  0  0  0  0  0  0  0
   62.0410   33.5220   47.4090 C   0  0  0  0  0  0  0  0  0  0  0  0
   65.3589   33.2897   50.3642 H   0  0  0  0  0  0  0  0  0  0  0  0
   65.4660   32.3465   48.8392 H   0  0  0  0  0  0  0  0  0  0  0  0
   64.6965   33.9697   48.8392 H   0  0  0  0  0  0  0  0  0  0  0  0
   63.2612   31.6797   48.9317 H   0  0  0  0  0  0  0  0  0  0  0  0
   63.5563   31.9079   50.6991 H   0  0  0  0  0  0  0  0  0  0  0  0
   59.9302   34.3757   49.9609 H   0  0  0  0  0  0  0  0  0  0  0  0
   58.4644   34.9304   48.0243 H   0  0  0  0  0  0  0  0  0  0  0  0
   60.4858   29.4332   48.1302 H   0  0  0  0  0  0  0  0  0  0  0  0
   61.2162   28.8643   46.5909 H   0  0  0  0  0  0  0  0  0  0  0  0
   60.1094   30.2791   46.5909 H   0  0  0  0  0  0  0  0  0  0  0  0
   60.0271   26.8073   48.0454 H   0  0  0  0  0  0  0  0  0  0  0  0
   56.1893   25.9241   46.2805 H   0  0  0  0  0  0  0  0  0  0  0  0
   55.9830   28.6300   44.1830 H   0  0  0  0  0  0  0  0  0  0  0  0
   57.1287   33.0965   42.4756 H   0  0  0  0  0  0  0  0  0  0  0  0
   58.5380   32.1177   41.9443 H   0  0  0  0  0  0  0  0  0  0  0  0
   56.8926   31.3969   41.9443 H   0  0  0  0  0  0  0  0  0  0  0  0
   61.5781   33.6672   45.2974 H   0  0  0  0  0  0  0  0  0  0  0  0
   63.0456   33.1110   47.2309 H   0  0  0  0  0  0  0  0  0  0  0  0
  1  2  1  0
  2  3  1  0
  3  4  1  0
  4  5  2  0
  5  6  1  0
  6  7  2  0
  7  8  1  0
  8  9  1  0
  9 10  2  0
  9 11  1  0
 11 12  1  0
 12 13  1  0
 13 14  1  0
 14 15  1  0
 15 16  1  0
 15 17  2  0
 17 18  1  0
 18 19  2  0
 18 20  1  0
 20 21  2  0
 21 22  1  0
 13 23  2  0
 23 24  1  0
 24 25  1  0
  7 26  1  0
 26 27  2  0
 27  4  1  0
 24 11  2  0
 21 14  1  0
  1 28  1  0
  1 29  1  0
  1 30  1  0
  2 31  1  0
  2 32  1  0
  5 33  1  0
  6 34  1  0
 16 35  1  0
 16 36  1  0
 16 37  1  0
 17 38  1  0
 20 39  1  0
 22 40  1  0
 25 41  1  0
 25 42  1  0
 25 43  1  0
 26 44  1  0
 27 45  1  0
M  CHG  1   8  -1
M  END
>  <UniqueID>  (51) 
49

>  <SMILES>  (51) 
CCOc1ccc([N-]C(=O)c2sc(-n3c(C)cc(=O)cc3O)nc2C)cc1

>  <Energy>  (51) 
88.36695671966399

>  <Genealogy>  (51) 
CCOc1ccc([N-]C(=O)c2sc(-n3c(C)cc(=O)cc3O)nc2C)cc1 (protonated)
CCOc1ccc([N-]C(=O)c2sc(-n3c(C)cc(=O)cc3O)nc2C)cc1 (3D coordinates assigned)
CCOc1ccc([N-]C(=O)c2sc(-n3c(C)cc(=O)cc3O)nc2C)cc1 (optimized conformer: 88.36695671966399 kcal/mol)

>  <smiles>  (51) 
CCOc1ccc(NC(=O)c2sc(-n3c(C)cc(=O)cc3O)nc2C)cc1

>  <score_type>  (51) 
oracle

>  <origin>  (51) 
adg

>  <m_score__min__energy>  (51) 
-9.3900000000000006

>  <m_primary>  (51) 
energy

$$$$
51:0
     RDKit          3D

 53 55  0  0  0  0  0  0  0  0999 V2000
   53.5295   31.2563   56.1797 H   0  0  0  0  0  0  0  0  0  0  0  0
   53.0030   31.0920   55.2280 C   0  0  0  0  0  0  0  0  0  0  0  0
   51.9413   31.3637   55.1327 H   0  0  0  0  0  0  0  0  0  0  0  0
   53.6560   30.5600   54.1830 C   0  0  0  0  0  0  0  0  0  0  0  0
   53.1310   30.2890   52.9100 C   0  0  0  0  0  0  0  0  0  0  0  0
   51.8610   30.2730   52.4610 C   0  0  0  0  0  0  0  0  0  0  0  0
   51.0909   29.8867   53.1449 H   0  0  0  0  0  0  0  0  0  0  0  0
   51.4150   30.7280   51.1340 C   0  0  0  0  0  0  0  0  0  0  0  0
   51.4440   29.9780   50.0160 N   0  0  0  0  0  0  0  0  0  0  0  0
   51.1030   30.8520   49.0450 C   0  0  0  0  0  0  0  0  0  0  0  0
   51.0050   30.5170   47.8350 O   0  0  0  0  0  0  0  0  0  0  0  0
   50.8860   32.1140   49.4700 N   0  0  0  0  0  0  0  0  0  0  0  0
   51.1020   32.0200   50.7930 C   0  0  0  0  0  0  0  0  0  0  0  0
   51.0210   33.0960   51.6680 O   0  0  0  0  0  0  0  0  0  0  0  0
   54.2120   29.9830   52.1040 C   0  0  0  0  0  0  0  0  0  0  0  0
   54.1852   29.7738   51.0244 H   0  0  0  0  0  0  0  0  0  0  0  0
   55.3300   29.9900   52.9110 C   0  0  0  0  0  0  0  0  0  0  0  0
   56.6830   29.6420   52.4380 C   0  0  0  0  0  0  0  0  0  0  0  0
   57.0140   28.4250   52.4130 O   0  0  0  0  0  0  0  0  0  0  0  0
   57.6370   30.6500   52.0430 N   0  0  0  0  0  0  0  0  0  0  0  0
   58.7360   30.2650   51.1420 C   0  0  0  0  0  0  0  0  0  0  0  0
   59.2664   29.4033   51.5734 H   0  0  0  0  0  0  0  0  0  0  0  0
   58.3053   30.0101   50.1624 H   0  0  0  0  0  0  0  0  0  0  0  0
   59.7300   31.4130   50.9450 C   0  0  0  0  0  0  0  0  0  0  0  0
   60.3506   31.5195   51.8469 H   0  0  0  0  0  0  0  0  0  0  0  0
   60.3743   31.1960   50.0803 H   0  0  0  0  0  0  0  0  0  0  0  0
   58.9960   32.6590   50.7070 N   0  0  0  0  0  0  0  0  0  0  0  0
   59.2970   33.5000   49.5850 C   0  0  0  0  0  0  0  0  0  0  0  0
   59.4480   34.7400   49.7600 O   0  0  0  0  0  0  0  0  0  0  0  0
   59.2790   32.9570   48.1850 C   0  0  0  0  0  0  0  0  0  0  0  0
   59.7904   33.6628   47.5139 H   0  0  0  0  0  0  0  0  0  0  0  0
   59.7948   31.9856   48.1679 H   0  0  0  0  0  0  0  0  0  0  0  0
   57.8330   32.7670   47.7150 C   0  0  0  0  0  0  0  0  0  0  0  0
   57.4934   31.7581   47.9920 H   0  0  0  0  0  0  0  0  0  0  0  0
   57.2028   33.5290   48.1968 H   0  0  0  0  0  0  0  0  0  0  0  0
   57.7110   32.9600   45.9440 S   0  0  0  0  0  0  0  0  0  0  0  0
   56.6570   33.9830   45.6180 O   0  0  0  0  0  0  0  0  0  0  0  0
   57.3440   31.6450   45.3100 O   0  0  0  0  0  0  0  0  0  0  0  0
   59.2800   33.5020   45.3010 C   0  0  0  0  0  0  0  0  0  0  0  0
   59.9572   33.7359   46.1356 H   0  0  0  0  0  0  0  0  0  0  0  0
   59.7194   32.7036   44.6850 H   0  0  0  0  0  0  0  0  0  0  0  0
   59.1329   34.4014   44.6850 H   0  0  0  0  0  0  0  0  0  0  0  0
   57.9390   33.0720   51.6390 C   0  0  0  0  0  0  0  0  0  0  0  0
   58.2618   33.9836   52.1632 H   0  0  0  0  0  0  0  0  0  0  0  0
   57.0222   33.2550   51.0593 H   0  0  0  0  0  0  0  0  0  0  0  0
   57.6400   31.9800   52.6770 C   0  0  0  0  0  0  0  0  0  0  0  0
   58.4113   32.0052   53.4609 H   0  0  0  0  0  0  0  0  0  0  0  0
   56.6479   32.1674   53.1137 H   0  0  0  0  0  0  0  0  0  0  0  0
   54.9990   30.3500   54.1740 N   0  0  0  0  0  0  0  0  0  0  0  0
   55.9310   30.6400   55.2720 C   0  0  0  0  0  0  0  0  0  0  0  0
   55.4235   30.4821   56.2351 H   0  0  0  0  0  0  0  0  0  0  0  0
   56.8005   29.9699   55.2015 H   0  0  0  0  0  0  0  0  0  0  0  0
   56.2668   31.6851   55.2015 H   0  0  0  0  0  0  0  0  0  0  0  0
  1  2  1  0
  2  3  1  0
  2  4  2  0
  4  5  1  0
  5  6  2  0
  6  7  1  0
  6  8  1  0
  8  9  1  0
  9 10  1  0
 10 11  2  0
 10 12  1  0
 12 13  1  0
 13 14  1  0
  5 15  1  0
 15 16  1  0
 15 17  2  0
 17 18  1  0
 18 19  2  0
 18 20  1  0
 20 21  1  0
 21 22  1  0
 21 23  1  0
 21 24  1  0
 24 25  1  0
 24 26  1  0
 24 27  1  0
 27 28  1  0
 28 29  2  0
 28 30  1  0
 30 31  1  0
 30 32  1  0
 30 33  1  0
 33 34  1  0
 33 35  1  0
 33 36  1  0
 36 37  2  0
 36 38  2  0
 36 39  1  0
 39 40  1  0
 39 41  1  0
 39 42  1  0
 27 43  1  0
 43 44  1  0
 43 45  1  0
 43 46  1  0
 46 47  1  0
 46 48  1  0
 17 49  1  0
 49 50  1  0
 50 51  1  0
 50 52  1  0
 50 53  1  0
 49  4  1  0
 13  8  2  0
 46 20  1  0
M  CHG  3   9  -1  12  -1  14  -1
M  END
>  <UniqueID>  (52) 
50

>  <SMILES>  (52) 
C=c1/c(=C\c2[n-]c(=O)[n-]c2[O-])cc(C(=O)N2CCN(C(=O)CCS(C)(=O)=O)CC2)n1C

>  <Energy>  (52) 
120.98053527629224

>  <Genealogy>  (52) 
C=c1c(=Cc2[n-]c(=O)[n-]c2[O-])cc(C(=O)N2CCN(C(=O)CCS(C)(=O)=O)CC2)n1C (protonated)
C=c1/c(=C\c2[n-]c(=O)[n-]c2[O-])cc(C(=O)N2CCN(C(=O)CCS(C)(=O)=O)CC2)n1C (cis-trans isomerization)
C=c1/c(=C\c2[n-]c(=O)[n-]c2[O-])cc(C(=O)N2CCN(C(=O)CCS(C)(=O)=O)CC2)n1C (3D coordinates assigned)
C=c1/c(=C\c2[n-]c(=O)[n-]c2[O-])cc(C(=O)N2CCN(C(=O)CCS(C)(=O)=O)CC2)n1C (nonaromatic ring conformer: 120.98053527629224 kcal/mol)

>  <smiles>  (52) 
C=c1c(=Cc2[nH]c(=O)[nH]c2O)cc(C(=O)N2CCN(C(=O)CCS(C)(=O)=O)CC2)n1C

>  <score_type>  (52) 
oracle

>  <origin>  (52) 
adg

>  <m_score__min__energy>  (52) 
-17.309999999999999

>  <m_primary>  (52) 
energy

$$$$
52:0
     RDKit          3D

 56 59  0  0  0  0  0  0  0  0999 V2000
   66.9440   33.0510   50.1460 C   0  0  0  0  0  0  0  0  0  0  0  0
   65.9340   32.1820   50.9040 C   0  0  0  0  0  0  0  0  0  0  0  0
   66.5160   30.7950   51.2030 C   0  0  0  0  0  0  0  0  0  0  0  0
   64.6260   32.0800   50.1410 C   0  0  0  0  0  0  0  0  0  0  0  0
   63.6920   31.0790   50.4380 C   0  0  0  0  0  0  0  0  0  0  0  0
   62.4970   30.9860   49.7240 C   0  0  0  0  0  0  0  0  0  0  0  0
   62.1710   31.9220   48.7160 C   0  0  0  0  0  0  0  0  0  0  0  0
   63.1700   32.8710   48.3450 C   0  0  0  0  0  0  0  0  0  0  0  0
   64.3620   32.9560   49.0820 C   0  0  0  0  0  0  0  0  0  0  0  0
   63.0130   33.8330   47.1780 C   0  0  0  0  0  0  0  0  0  0  0  0
   61.7400   33.6520   46.3360 C   0  0  0  0  0  0  0  0  0  0  0  0
   60.5800   33.1820   47.2310 C   0  0  1  0  0  0  0  0  0  0  0  0
   59.1170   33.3420   46.6660 C   0  0  1  0  0  0  0  0  0  0  0  0
   58.8800   34.7760   46.1240 C   0  0  0  0  0  0  0  0  0  0  0  0
   58.8610   32.3770   45.5150 C   0  0  0  0  0  0  0  0  0  0  0  0
   58.8880   32.7740   44.3180 O   0  0  0  0  0  0  0  0  0  0  0  0
   58.5560   31.0040   45.8000 N   0  0  0  0  0  0  0  0  0  0  0  0
   57.3930   30.3070   45.3470 C   0  0  0  0  0  0  0  0  0  0  0  0
   57.1120   28.9950   45.6200 C   0  0  0  0  0  0  0  0  0  0  0  0
   55.9560   28.6720   45.0140 N   0  0  0  0  0  0  0  0  0  0  0  0
   55.5770   29.8100   44.3920 C   0  0  0  0  0  0  0  0  0  0  0  0
   56.4330   30.8400   44.5720 N   0  0  0  0  0  0  0  0  0  0  0  0
   58.0980   33.1280   47.8530 C   0  0  0  0  0  0  0  0  0  0  0  0
   58.6720   32.3790   49.0710 C   0  0  0  0  0  0  0  0  0  0  0  0
   59.6340   31.2640   48.6580 C   0  0  0  0  0  0  0  0  0  0  0  0
   60.8970   31.7680   47.8610 C   0  0  2  0  0  0  0  0  0  0  0  0
   61.2560   30.6750   46.8120 C   0  0  0  0  0  0  0  0  0  0  0  0
   67.5743   33.5933   50.8661 H   0  0  0  0  0  0  0  0  0  0  0  0
   67.5770   32.4108   49.5140 H   0  0  0  0  0  0  0  0  0  0  0  0
   66.4054   33.7725   49.5140 H   0  0  0  0  0  0  0  0  0  0  0  0
   65.7219   32.6682   51.8677 H   0  0  0  0  0  0  0  0  0  0  0  0
   66.5769   30.6498   52.2917 H   0  0  0  0  0  0  0  0  0  0  0  0
   65.8661   30.0226   50.7659 H   0  0  0  0  0  0  0  0  0  0  0  0
   67.5225   30.7177   50.7659 H   0  0  0  0  0  0  0  0  0  0  0  0
   63.9030   30.3590   51.2424 H   0  0  0  0  0  0  0  0  0  0  0  0
   61.7955   30.1693   49.9496 H   0  0  0  0  0  0  0  0  0  0  0  0
   65.1030   33.7263   48.8219 H   0  0  0  0  0  0  0  0  0  0  0  0
   63.0097   34.8565   47.5810 H   0  0  0  0  0  0  0  0  0  0  0  0
   63.8544   33.6249   46.5007 H   0  0  0  0  0  0  0  0  0  0  0  0
   61.4735   34.6110   45.8678 H   0  0  0  0  0  0  0  0  0  0  0  0
   61.9255   32.8963   45.5585 H   0  0  0  0  0  0  0  0  0  0  0  0
   60.5401   33.9179   48.0476 H   0  0  0  0  0  0  0  0  0  0  0  0
   58.7649   35.4725   46.9676 H   0  0  0  0  0  0  0  0  0  0  0  0
   59.7396   35.0827   45.5100 H   0  0  0  0  0  0  0  0  0  0  0  0
   57.9674   34.7898   45.5100 H   0  0  0  0  0  0  0  0  0  0  0  0
   57.7279   28.3194   46.2317 H   0  0  0  0  0  0  0  0  0  0  0  0
   54.6570   29.8906   43.7945 H   0  0  0  0  0  0  0  0  0  0  0  0
   57.7535   34.1166   48.1906 H   0  0  0  0  0  0  0  0  0  0  0  0
   57.2883   32.4982   47.4559 H   0  0  0  0  0  0  0  0  0  0  0  0
   59.2119   33.0963   49.7067 H   0  0  0  0  0  0  0  0  0  0  0  0
   57.8325   31.9194   49.6132 H   0  0  0  0  0  0  0  0  0  0  0  0
   59.9809   30.7522   49.5678 H   0  0  0  0  0  0  0  0  0  0  0  0
   59.0771   30.5978   47.9827 H   0  0  0  0  0  0  0  0  0  0  0  0
   61.5586   29.7537   47.3313 H   0  0  0  0  0  0  0  0  0  0  0  0
   60.3782   30.4693   46.1818 H   0  0  0  0  0  0  0  0  0  0  0  0
   62.0848   31.0298   46.1818 H   0  0  0  0  0  0  0  0  0  0  0  0
  1  2  1  0
  2  3  1  0
  2  4  1  0
  4  5  2  0
  5  6  1  0
  6  7  2  0
  7  8  1  0
  8  9  2  0
  8 10  1  0
 10 11  1  0
 11 12  1  0
 12 13  1  0
 13 14  1  6
 13 15  1  0
 15 16  2  0
 15 17  1  0
 17 18  1  0
 18 19  2  0
 19 20  1  0
 20 21  1  0
 21 22  2  0
 13 23  1  0
 23 24  1  0
 24 25  1  0
 25 26  1  0
 26 27  1  6
  9  4  1  0
 26 12  1  0
 26  7  1  0
 22 18  1  0
  1 28  1  0
  1 29  1  0
  1 30  1  0
  2 31  1  0
  3 32  1  0
  3 33  1  0
  3 34  1  0
  5 35  1  0
  6 36  1  0
  9 37  1  0
 10 38  1  0
 10 39  1  0
 11 40  1  0
 11 41  1  0
 12 42  1  1
 14 43  1  0
 14 44  1  0
 14 45  1  0
 19 46  1  0
 21 47  1  0
 23 48  1  0
 23 49  1  0
 24 50  1  0
 24 51  1  0
 25 52  1  0
 25 53  1  0
 27 54  1  0
 27 55  1  0
 27 56  1  0
M  CHG  2  17  -1  20  -1
M  END
>  <UniqueID>  (53) 
51

>  <SMILES>  (53) 
CC(C)c1ccc2c(c1)CC[C@@H]1C2(C)CCC[C@]1(C)C(=O)[N-]c1c[n-]cn1

>  <Energy>  (53) 
112.34558782640856

>  <Genealogy>  (53) 
CC(C)c1ccc2c(c1)CCC1C(C)(C(=O)[N-]c3c[n-]cn3)CCCC21C (protonated)
CC(C)c1ccc2c(c1)CC[C@@H]1C2(C)CCC[C@]1(C)C(=O)[N-]c1c[n-]cn1 (chirality)
CC(C)c1ccc2c(c1)CC[C@@H]1C2(C)CCC[C@]1(C)C(=O)[N-]c1c[n-]cn1 (3D coordinates assigned)
CC(C)c1ccc2c(c1)CC[C@@H]1C2(C)CCC[C@]1(C)C(=O)[N-]c1c[n-]cn1 (nonaromatic ring conformer: 112.34558782640856 kcal/mol)

>  <smiles>  (53) 
CC(C)c1ccc2c(c1)CCC1C(C)(C(=O)Nc3c[nH]cn3)CCCC21C

>  <score_type>  (53) 
oracle

>  <origin>  (53) 
adg

>  <m_score__min__energy>  (53) 
-11.44

>  <m_primary>  (53) 
energy

$$$$
53:0
     RDKit          3D

 50 52  0  0  0  0  0  0  0  0999 V2000
   55.5160   28.9130   44.8730 N   0  0  0  0  0  0  0  0  0  0  0  0
   56.6430   30.0880   44.2960 S   0  0  0  0  0  0  0  0  0  0  0  0
   56.2250   31.4610   44.7530 O   0  0  0  0  0  0  0  0  0  0  0  0
   56.6680   30.0600   42.7900 O   0  0  0  0  0  0  0  0  0  0  0  0
   58.2430   29.6970   44.9170 C   0  0  0  0  0  0  0  0  0  0  0  0
   58.9260   28.5580   44.4760 C   0  0  0  0  0  0  0  0  0  0  0  0
   60.2060   28.2780   44.9670 C   0  0  0  0  0  0  0  0  0  0  0  0
   60.8120   29.1310   45.8960 C   0  0  0  0  0  0  0  0  0  0  0  0
   60.1410   30.2850   46.3510 C   0  0  0  0  0  0  0  0  0  0  0  0
   60.7400   31.2180   47.3540 C   0  0  0  0  0  0  0  0  0  0  0  0
   60.8690   30.8050   48.5430 O   0  0  0  0  0  0  0  0  0  0  0  0
   61.1450   32.5750   47.0090 N   0  0  0  0  0  0  0  0  0  0  0  0
   60.6280   33.5660   47.9720 C   0  0  0  0  0  0  0  0  0  0  0  0
   61.3070   33.4460   49.3390 C   0  0  0  0  0  0  0  0  0  0  0  0
   62.7630   33.4840   49.1980 N   0  0  0  0  0  0  0  0  0  0  0  0
   63.5420   33.9280   50.3220 C   0  0  0  0  0  0  0  0  0  0  0  0
   63.2750   35.0260   50.8820 O   0  0  0  0  0  0  0  0  0  0  0  0
   64.6320   33.1370   50.8080 N   0  0  0  0  0  0  0  0  0  0  0  0
   65.9950   33.6700   50.7700 C   0  0  0  0  0  0  0  0  0  0  0  0
   66.9530   32.6260   50.1820 C   0  0  0  0  0  0  0  0  0  0  0  0
   66.7020   31.1890   50.7020 C   0  0  0  0  0  0  0  0  0  0  0  0
   65.6600   31.1190   51.8270 C   0  0  0  0  0  0  0  0  0  0  0  0
   64.3620   31.8210   51.4020 C   0  0  0  0  0  0  0  0  0  0  0  0
   63.4140   32.7080   48.1380 C   0  0  0  0  0  0  0  0  0  0  0  0
   62.6080   32.7350   46.8230 C   0  0  0  0  0  0  0  0  0  0  0  0
   58.8540   30.5570   45.8420 C   0  0  0  0  0  0  0  0  0  0  0  0
   54.6570   29.4210   45.1770 H   0  0  0  0  0  0  0  0  0  0  0  0
   58.4572   27.8836   43.7443 H   0  0  0  0  0  0  0  0  0  0  0  0
   60.7397   27.3809   44.6202 H   0  0  0  0  0  0  0  0  0  0  0  0
   61.8188   28.8999   46.2741 H   0  0  0  0  0  0  0  0  0  0  0  0
   60.7300   32.7960   46.0730 H   0  0  0  0  0  0  0  0  0  0  0  0
   60.8077   34.5755   47.5737 H   0  0  0  0  0  0  0  0  0  0  0  0
   59.5529   33.3777   48.1090 H   0  0  0  0  0  0  0  0  0  0  0  0
   60.9840   34.2816   49.9773 H   0  0  0  0  0  0  0  0  0  0  0  0
   61.0205   32.4861   49.7933 H   0  0  0  0  0  0  0  0  0  0  0  0
   66.0146   34.5748   50.1447 H   0  0  0  0  0  0  0  0  0  0  0  0
   66.3143   33.9155   51.7936 H   0  0  0  0  0  0  0  0  0  0  0  0
   66.8367   32.6249   49.0882 H   0  0  0  0  0  0  0  0  0  0  0  0
   67.9688   32.9088   50.4954 H   0  0  0  0  0  0  0  0  0  0  0  0
   66.3503   30.5713   49.8625 H   0  0  0  0  0  0  0  0  0  0  0  0
   67.6528   30.8244   51.1181 H   0  0  0  0  0  0  0  0  0  0  0  0
   65.4436   30.0649   52.0549 H   0  0  0  0  0  0  0  0  0  0  0  0
   66.0629   31.6244   52.7171 H   0  0  0  0  0  0  0  0  0  0  0  0
   63.8425   31.1945   50.6620 H   0  0  0  0  0  0  0  0  0  0  0  0
   63.7394   31.9672   52.2970 H   0  0  0  0  0  0  0  0  0  0  0  0
   64.4125   33.1301   47.9511 H   0  0  0  0  0  0  0  0  0  0  0  0
   63.4801   31.6627   48.4743 H   0  0  0  0  0  0  0  0  0  0  0  0
   62.7901   33.6989   46.3254 H   0  0  0  0  0  0  0  0  0  0  0  0
   62.9483   31.8779   46.2233 H   0  0  0  0  0  0  0  0  0  0  0  0
   58.3201   31.4589   46.1760 H   0  0  0  0  0  0  0  0  0  0  0  0
  1  2  1  0
  2  3  2  0
  2  4  2  0
  2  5  1  0
  5  6  2  0
  6  7  1  0
  7  8  2  0
  8  9  1  0
  9 10  1  0
 10 11  2  0
 10 12  1  0
 12 13  1  0
 13 14  1  0
 14 15  1  0
 15 16  1  0
 16 17  2  0
 16 18  1  0
 18 19  1  0
 19 20  1  0
 20 21  1  0
 21 22  1  0
 22 23  1  0
 15 24  1  0
 24 25  1  0
  9 26  2  0
 26  5  1  0
 25 12  1  0
 23 18  1  0
  1 27  1  0
  6 28  1  0
  7 29  1  0
  8 30  1  0
 12 31  1  0
 13 32  1  0
 13 33  1  0
 14 34  1  0
 14 35  1  0
 19 36  1  0
 19 37  1  0
 20 38  1  0
 20 39  1  0
 21 40  1  0
 21 41  1  0
 22 42  1  0
 22 43  1  0
 23 44  1  0
 23 45  1  0
 24 46  1  0
 24 47  1  0
 25 48  1  0
 25 49  1  0
 26 50  1  0
M  CHG  2   1  -1  12   1
M  END
>  <UniqueID>  (54) 
52

>  <SMILES>  (54) 
[NH-]S(=O)(=O)c1cccc(C(=O)[NH+]2CCN(C(=O)N3CCCCC3)CC2)c1

>  <Energy>  (54) 
66.49240432698086

>  <Genealogy>  (54) 
[NH-]S(=O)(=O)c1cccc(C(=O)[NH+]2CCN(C(=O)N3CCCCC3)CC2)c1 (protonated)
[NH-]S(=O)(=O)c1cccc(C(=O)[NH+]2CCN(C(=O)N3CCCCC3)CC2)c1 (3D coordinates assigned)
[NH-]S(=O)(=O)c1cccc(C(=O)[NH+]2CCN(C(=O)N3CCCCC3)CC2)c1 (nonaromatic ring conformer: 66.49240432698086 kcal/mol)

>  <smiles>  (54) 
NS(=O)(=O)c1cccc(C(=O)N2CCN(C(=O)N3CCCCC3)CC2)c1

>  <score_type>  (54) 
oracle

>  <origin>  (54) 
adg

>  <m_score__min__energy>  (54) 
-9.75

>  <m_primary>  (54) 
energy

$$$$
54:0
     RDKit          3D

 54 57  0  0  0  0  0  0  0  0999 V2000
   63.0130   33.9530   49.1830 C   0  0  0  0  0  0  0  0  0  0  0  0
   61.7170   33.6210   48.5540 N   0  0  0  0  0  0  0  0  0  0  0  0
   61.5580   33.7940   47.2050 C   0  0  0  0  0  0  0  0  0  0  0  0
   62.5020   34.2410   46.4960 O   0  0  0  0  0  0  0  0  0  0  0  0
   60.3470   33.4790   46.5860 C   0  0  0  0  0  0  0  0  0  0  0  0
   60.2430   33.6540   45.3390 O   0  0  0  0  0  0  0  0  0  0  0  0
   59.2910   32.9870   47.3120 N   0  0  0  0  0  0  0  0  0  0  0  0
   58.0440   32.6690   46.5720 C   0  0  0  0  0  0  0  0  0  0  0  0
   58.1500   31.3270   45.8860 C   0  0  0  0  0  0  0  0  0  0  0  0
   57.3380   31.0330   44.7780 C   0  0  0  0  0  0  0  0  0  0  0  0
   57.4190   29.7870   44.1500 C   0  0  0  0  0  0  0  0  0  0  0  0
   58.3200   28.8150   44.6130 C   0  0  0  0  0  0  0  0  0  0  0  0
   58.3910   27.4900   43.9530 C   0  0  0  0  0  0  0  0  0  0  0  0
   58.7930   27.4190   42.7590 O   0  0  0  0  0  0  0  0  0  0  0  0
   57.9940   26.2860   44.6360 N   0  0  0  0  0  0  0  0  0  0  0  0
   57.3210   25.2260   43.8690 C   0  0  0  0  0  0  0  0  0  0  0  0
   56.9930   24.0080   44.7450 C   0  0  0  0  0  0  0  0  0  0  0  0
   56.4330   24.4180   46.1220 C   0  0  0  0  0  0  0  0  0  0  0  0
   55.0150   24.9230   45.9940 C   0  0  0  0  0  0  0  0  0  0  0  0
   54.7470   26.3200   45.8830 N   0  0  0  0  0  0  0  0  0  0  0  0
   54.0610   24.1020   45.9520 O   0  0  0  0  0  0  0  0  0  0  0  0
   57.3460   25.4330   46.8660 C   0  0  0  0  0  0  0  0  0  0  0  0
   58.4750   26.0050   45.9950 C   0  0  0  0  0  0  0  0  0  0  0  0
   59.1180   29.1030   45.7300 C   0  0  0  0  0  0  0  0  0  0  0  0
   59.0380   30.3490   46.3580 C   0  0  0  0  0  0  0  0  0  0  0  0
   59.4220   32.8320   48.6810 C   0  0  0  0  0  0  0  0  0  0  0  0
   58.3580   32.3660   49.4980 C   0  0  0  0  0  0  0  0  0  0  0  0
   58.5150   32.2090   50.8720 C   0  0  0  0  0  0  0  0  0  0  0  0
   59.7260   32.5110   51.4760 C   0  0  0  0  0  0  0  0  0  0  0  0
   60.7900   32.9770   50.7110 C   0  0  0  0  0  0  0  0  0  0  0  0
   60.6650   33.1510   49.3100 C   0  0  0  0  0  0  0  0  0  0  0  0
   62.9070   33.9258   50.2775 H   0  0  0  0  0  0  0  0  0  0  0  0
   63.7711   33.2200   48.8697 H   0  0  0  0  0  0  0  0  0  0  0  0
   63.3253   34.9601   48.8697 H   0  0  0  0  0  0  0  0  0  0  0  0
   57.2017   32.6462   47.2791 H   0  0  0  0  0  0  0  0  0  0  0  0
   57.8831   33.4426   45.8067 H   0  0  0  0  0  0  0  0  0  0  0  0
   56.6331   31.7891   44.4018 H   0  0  0  0  0  0  0  0  0  0  0  0
   56.7727   29.5666   43.2876 H   0  0  0  0  0  0  0  0  0  0  0  0
   56.3853   25.6273   43.4526 H   0  0  0  0  0  0  0  0  0  0  0  0
   58.0015   24.8984   43.0693 H   0  0  0  0  0  0  0  0  0  0  0  0
   56.2446   23.3900   44.2274 H   0  0  0  0  0  0  0  0  0  0  0  0
   57.9258   23.4492   44.9113 H   0  0  0  0  0  0  0  0  0  0  0  0
   56.4183   23.5136   46.7480 H   0  0  0  0  0  0  0  0  0  0  0  0
   54.7470   26.9360   46.7260 H   0  0  0  0  0  0  0  0  0  0  0  0
   56.7221   26.2680   47.2175 H   0  0  0  0  0  0  0  0  0  0  0  0
   57.8241   24.8877   47.6931 H   0  0  0  0  0  0  0  0  0  0  0  0
   58.8423   26.9379   46.4476 H   0  0  0  0  0  0  0  0  0  0  0  0
   59.2851   25.2632   45.9359 H   0  0  0  0  0  0  0  0  0  0  0  0
   59.8126   28.3418   46.1149 H   0  0  0  0  0  0  0  0  0  0  0  0
   59.6756   30.5642   47.2282 H   0  0  0  0  0  0  0  0  0  0  0  0
   57.3898   32.1241   49.0354 H   0  0  0  0  0  0  0  0  0  0  0  0
   57.6750   31.8439   51.4812 H   0  0  0  0  0  0  0  0  0  0  0  0
   59.8454   32.3818   52.5618 H   0  0  0  0  0  0  0  0  0  0  0  0
   61.7452   33.2147   51.2019 H   0  0  0  0  0  0  0  0  0  0  0  0
  1  2  1  0
  2  3  1  0
  3  4  2  0
  3  5  1  0
  5  6  2  0
  5  7  1  0
  7  8  1  0
  8  9  1  0
  9 10  2  0
 10 11  1  0
 11 12  2  0
 12 13  1  0
 13 14  2  0
 13 15  1  0
 15 16  1  0
 16 17  1  0
 17 18  1  0
 18 19  1  0
 19 20  1  0
 19 21  2  0
 18 22  1  0
 22 23  1  0
 12 24  1  0
 24 25  2  0
  7 26  1  0
 26 27  2  0
 27 28  1  0
 28 29  2  0
 29 30  1  0
 30 31  2  0
 31  2  1  0
 25  9  1  0
 31 26  1  0
 23 15  1  0
  1 32  1  0
  1 33  1  0
  1 34  1  0
  8 35  1  0
  8 36  1  0
 10 37  1  0
 11 38  1  0
 16 39  1  0
 16 40  1  0
 17 41  1  0
 17 42  1  0
 18 43  1  0
 20 44  1  0
 22 45  1  0
 22 46  1  0
 23 47  1  0
 23 48  1  0
 24 49  1  0
 25 50  1  0
 27 51  1  0
 28 52  1  0
 29 53  1  0
 30 54  1  0
M  CHG  1  20  -1
M  END
>  <UniqueID>  (55) 
53

>  <SMILES>  (55) 
Cn1c(=O)c(=O)n(Cc2ccc(C(=O)N3CCC(C([NH-])=O)CC3)cc2)c2ccccc21

>  <Energy>  (55) 
83.8370991529388

>  <Genealogy>  (55) 
Cn1c(=O)c(=O)n(Cc2ccc(C(=O)N3CCC(C([NH-])=O)CC3)cc2)c2ccccc21 (protonated)
Cn1c(=O)c(=O)n(Cc2ccc(C(=O)N3CCC(C([NH-])=O)CC3)cc2)c2ccccc21 (3D coordinates assigned)
Cn1c(=O)c(=O)n(Cc2ccc(C(=O)N3CCC(C([NH-])=O)CC3)cc2)c2ccccc21 (nonaromatic ring conformer: 83.8370991529388 kcal/mol)

>  <smiles>  (55) 
Cn1c(=O)c(=O)n(Cc2ccc(C(=O)N3CCC(C(N)=O)CC3)cc2)c2ccccc21

>  <score_type>  (55) 
oracle

>  <origin>  (55) 
adg

>  <m_score__min__energy>  (55) 
-12.4

>  <m_primary>  (55) 
energy

$$$$
55:0
     RDKit          3D

 36 38  0  0  0  0  0  0  0  0999 V2000
   60.5360   27.9900   48.8920 C   0  0  0  0  0  0  0  0  0  0  0  0
   60.6580   26.7890   48.2080 C   0  0  0  0  0  0  0  0  0  0  0  0
   60.7340   26.9690   46.7320 C   0  0  0  0  0  0  0  0  0  0  0  0
   59.6220   27.7070   46.1330 C   0  0  0  0  0  0  0  0  0  0  0  0
   59.8180   28.7860   45.3210 N   0  0  0  0  0  0  0  0  0  0  0  0
   58.6410   29.2530   44.9040 C   0  0  0  0  0  0  0  0  0  0  0  0
   58.3090   30.3040   44.0820 C   0  0  0  0  0  0  0  0  0  0  0  0
   56.9730   30.5610   43.8160 C   0  0  0  0  0  0  0  0  0  0  0  0
   55.9480   29.8010   44.3440 C   0  0  0  0  0  0  0  0  0  0  0  0
   56.3010   28.7360   45.1770 C   0  0  0  0  0  0  0  0  0  0  0  0
   57.6260   28.4880   45.4350 C   0  0  0  0  0  0  0  0  0  0  0  0
   58.2690   27.5180   46.2060 C   0  0  0  0  0  0  0  0  0  0  0  0
   57.5180   26.4800   46.9340 C   0  0  0  0  0  0  0  0  0  0  0  0
   56.9880   25.4250   46.0720 C   0  0  0  0  0  0  0  0  0  0  0  0
   55.6590   25.3990   45.6960 C   0  0  0  0  0  0  0  0  0  0  0  0
   54.7840   26.3850   46.1650 O   0  0  0  0  0  0  0  0  0  0  0  0
   55.1550   24.4500   44.8810 N   0  0  0  0  0  0  0  0  0  0  0  0
   55.9580   23.4690   44.3970 C   0  0  0  0  0  0  0  0  0  0  0  0
   57.2650   23.4540   44.7380 N   0  0  0  0  0  0  0  0  0  0  0  0
   57.7900   24.3990   45.5550 C   0  0  0  0  0  0  0  0  0  0  0  0
   59.0010   24.3940   45.8770 O   0  0  0  0  0  0  0  0  0  0  0  0
   60.4702   27.9934   49.9900 H   0  0  0  0  0  0  0  0  0  0  0  0
   60.5051   28.9388   48.3362 H   0  0  0  0  0  0  0  0  0  0  0  0
   60.6947   25.8077   48.7037 H   0  0  0  0  0  0  0  0  0  0  0  0
   61.6636   27.5109   46.5034 H   0  0  0  0  0  0  0  0  0  0  0  0
   60.6949   25.9580   46.3004 H   0  0  0  0  0  0  0  0  0  0  0  0
   60.7410   29.1980   45.0500 H   0  0  0  0  0  0  0  0  0  0  0  0
   59.0950   30.9341   43.6402 H   0  0  0  0  0  0  0  0  0  0  0  0
   56.7190   31.4047   43.1575 H   0  0  0  0  0  0  0  0  0  0  0  0
   54.8951   30.0251   44.1178 H   0  0  0  0  0  0  0  0  0  0  0  0
   55.5219   28.1004   45.6231 H   0  0  0  0  0  0  0  0  0  0  0  0
   58.1897   26.0196   47.6735 H   0  0  0  0  0  0  0  0  0  0  0  0
   56.6553   26.9762   47.4025 H   0  0  0  0  0  0  0  0  0  0  0  0
   54.7330   26.7080   47.1080 H   0  0  0  0  0  0  0  0  0  0  0  0
   55.5485   22.6933   43.7332 H   0  0  0  0  0  0  0  0  0  0  0  0
   57.8950   22.6960   44.3670 H   0  0  0  0  0  0  0  0  0  0  0  0
  1  2  2  0
  2  3  1  0
  3  4  1  0
  4  5  1  0
  5  6  1  0
  6  7  2  0
  7  8  1  0
  8  9  2  0
  9 10  1  0
 10 11  2  0
 11 12  1  0
 12 13  1  0
 13 14  1  0
 14 15  2  0
 15 16  1  0
 15 17  1  0
 17 18  2  0
 18 19  1  0
 19 20  1  0
 20 21  2  0
 12  4  2  0
 20 14  1  0
 11  6  1  0
  1 22  1  0
  1 23  1  0
  2 24  1  0
  3 25  1  0
  3 26  1  0
  5 27  1  0
  7 28  1  0
  8 29  1  0
  9 30  1  0
 10 31  1  0
 13 32  1  0
 13 33  1  0
 16 34  1  0
 18 35  1  0
 19 36  1  0
M  END
>  <smiles>  (56) 
C=CCc1[nH]c2ccccc2c1Cc1c(O)nc[nH]c1=O

>  <score_type>  (56) 
oracle

>  <origin>  (56) 
adg

>  <m_score__min__energy>  (56) 
-7.5300000000000002

>  <m_primary>  (56) 
energy

$$$$
56:0
     RDKit          3D

 58 60  0  0  0  0  0  0  0  0999 V2000
   56.7190   30.4210   42.8150 C   0  0  0  0  0  0  0  0  0  0  0  0
   56.8130   29.8950   44.5110 S   0  0  0  0  0  0  0  0  0  0  0  0
   57.0410   31.0930   45.3900 O   0  0  0  0  0  0  0  0  0  0  0  0
   55.5200   29.2320   44.8950 O   0  0  0  0  0  0  0  0  0  0  0  0
   58.1620   28.7410   44.6980 C   0  0  0  0  0  0  0  0  0  0  0  0
   59.4120   29.4500   45.2420 C   0  0  0  0  0  0  0  0  0  0  0  0
   59.1810   30.0920   46.5480 N   0  0  0  0  0  0  0  0  0  0  0  0
   60.0520   29.5870   47.6200 C   0  0  0  0  0  0  0  0  0  0  0  0
   61.1710   30.5550   47.9320 C   0  0  0  0  0  0  0  0  0  0  0  0
   61.8150   31.2090   46.8680 C   0  0  0  0  0  0  0  0  0  0  0  0
   62.8090   32.1580   47.1120 C   0  0  0  0  0  0  0  0  0  0  0  0
   63.1540   32.4850   48.4230 C   0  0  0  0  0  0  0  0  0  0  0  0
   62.5230   31.8490   49.4920 C   0  0  0  0  0  0  0  0  0  0  0  0
   61.5580   30.8530   49.2640 C   0  0  0  0  0  0  0  0  0  0  0  0
   60.9160   30.2030   50.4300 C   0  0  0  0  0  0  0  0  0  0  0  0
   61.3610   29.0770   50.7840 O   0  0  0  0  0  0  0  0  0  0  0  0
   59.8200   30.7940   51.1890 N   0  0  0  0  0  0  0  0  0  0  0  0
   60.2140   32.1020   51.7910 C   0  0  0  0  0  0  0  0  0  0  0  0
   59.4560   33.3150   51.2210 C   0  0  0  0  0  0  0  0  0  0  0  0
   59.1780   33.1190   49.7960 N   0  0  0  0  0  0  0  0  0  0  0  0
   59.6750   34.0460   48.8050 C   0  0  0  0  0  0  0  0  0  0  0  0
   60.5730   34.8760   49.1130 O   0  0  0  0  0  0  0  0  0  0  0  0
   59.1950   34.0240   47.4080 C   0  0  0  0  0  0  0  0  0  0  0  0
   57.8320   33.8460   47.1200 C   0  0  0  0  0  0  0  0  0  0  0  0
   57.3910   33.8200   45.7920 C   0  0  0  0  0  0  0  0  0  0  0  0
   58.3040   33.9790   44.7480 C   0  0  0  0  0  0  0  0  0  0  0  0
   59.6590   34.1780   45.0280 C   0  0  0  0  0  0  0  0  0  0  0  0
   60.1030   34.2100   46.3540 C   0  0  0  0  0  0  0  0  0  0  0  0
   58.4230   31.9230   49.4090 C   0  0  0  0  0  0  0  0  0  0  0  0
   58.5090   30.8290   50.4920 C   0  0  0  0  0  0  0  0  0  0  0  0
   56.5256   31.5032   42.7769 H   0  0  0  0  0  0  0  0  0  0  0  0
   57.6708   30.2006   42.3095 H   0  0  0  0  0  0  0  0  0  0  0  0
   55.9025   29.8846   42.3095 H   0  0  0  0  0  0  0  0  0  0  0  0
   57.8636   27.9471   45.3985 H   0  0  0  0  0  0  0  0  0  0  0  0
   58.3993   28.3119   43.7134 H   0  0  0  0  0  0  0  0  0  0  0  0
   60.2168   28.7083   45.3524 H   0  0  0  0  0  0  0  0  0  0  0  0
   59.6817   30.2412   44.5270 H   0  0  0  0  0  0  0  0  0  0  0  0
   58.1840   29.9450   46.8320 H   0  0  0  0  0  0  0  0  0  0  0  0
   59.4491   29.4342   48.5273 H   0  0  0  0  0  0  0  0  0  0  0  0
   60.5003   28.6412   47.2816 H   0  0  0  0  0  0  0  0  0  0  0  0
   61.5328   30.9706   45.8319 H   0  0  0  0  0  0  0  0  0  0  0  0
   63.3202   32.6479   46.2702 H   0  0  0  0  0  0  0  0  0  0  0  0
   63.9251   33.2458   48.6144 H   0  0  0  0  0  0  0  0  0  0  0  0
   62.7831   32.1296   50.5233 H   0  0  0  0  0  0  0  0  0  0  0  0
   59.6710   30.1360   51.9920 H   0  0  0  0  0  0  0  0  0  0  0  0
   60.0240   32.0544   52.8734 H   0  0  0  0  0  0  0  0  0  0  0  0
   61.2767   32.2526   51.5501 H   0  0  0  0  0  0  0  0  0  0  0  0
   58.5062   33.4361   51.7624 H   0  0  0  0  0  0  0  0  0  0  0  0
   60.0776   34.2142   51.3432 H   0  0  0  0  0  0  0  0  0  0  0  0
   57.1091   33.7267   47.9404 H   0  0  0  0  0  0  0  0  0  0  0  0
   56.3234   33.6741   45.5706 H   0  0  0  0  0  0  0  0  0  0  0  0
   57.9570   33.9477   43.7046 H   0  0  0  0  0  0  0  0  0  0  0  0
   60.3767   34.3095   44.2048 H   0  0  0  0  0  0  0  0  0  0  0  0
   61.1675   34.3815   46.5715 H   0  0  0  0  0  0  0  0  0  0  0  0
   57.3683   32.1979   49.2608 H   0  0  0  0  0  0  0  0  0  0  0  0
   58.8568   31.5252   48.4797 H   0  0  0  0  0  0  0  0  0  0  0  0
   57.7219   31.0135   51.2379 H   0  0  0  0  0  0  0  0  0  0  0  0
   58.3826   29.8600   49.9870 H   0  0  0  0  0  0  0  0  0  0  0  0
  1  2  1  0
  2  3  2  0
  2  4  2  0
  2  5  1  0
  5  6  1  0
  6  7  1  0
  7  8  1  0
  8  9  1  0
  9 10  2  0
 10 11  1  0
 11 12  2  0
 12 13  1  0
 13 14  2  0
 14 15  1  0
 15 16  2  0
 15 17  1  0
 17 18  1  0
 18 19  1  0
 19 20  1  0
 20 21  1  0
 21 22  2  0
 21 23  1  0
 23 24  2  0
 24 25  1  0
 25 26  2  0
 26 27  1  0
 27 28  2  0
 20 29  1  0
 29 30  1  0
 14  9  1  0
 30 17  1  0
 28 23  1  0
  1 31  1  0
  1 32  1  0
  1 33  1  0
  5 34  1  0
  5 35  1  0
  6 36  1  0
  6 37  1  0
  7 38  1  0
  8 39  1  0
  8 40  1  0
 10 41  1  0
 11 42  1  0
 12 43  1  0
 13 44  1  0
 17 45  1  0
 18 46  1  0
 18 47  1  0
 19 48  1  0
 19 49  1  0
 24 50  1  0
 25 51  1  0
 26 52  1  0
 27 53  1  0
 28 54  1  0
 29 55  1  0
 29 56  1  0
 30 57  1  0
 30 58  1  0
M  CHG  1  17   1
M  END
>  <UniqueID>  (57) 
54

>  <SMILES>  (57) 
CS(=O)(=O)CCNCc1ccccc1C(=O)[NH+]1CCN(C(=O)c2ccccc2)CC1

>  <Energy>  (57) 
75.32510148439943

>  <Genealogy>  (57) 
CS(=O)(=O)CCNCc1ccccc1C(=O)[NH+]1CCN(C(=O)c2ccccc2)CC1 (protonated)
CS(=O)(=O)CCNCc1ccccc1C(=O)[NH+]1CCN(C(=O)c2ccccc2)CC1 (3D coordinates assigned)
CS(=O)(=O)CCNCc1ccccc1C(=O)[NH+]1CCN(C(=O)c2ccccc2)CC1 (nonaromatic ring conformer: 75.32510148439943 kcal/mol)

>  <smiles>  (57) 
CS(=O)(=O)CCNCc1ccccc1C(=O)N1CCN(C(=O)c2ccccc2)CC1

>  <score_type>  (57) 
oracle

>  <origin>  (57) 
adg

>  <m_score__min__energy>  (57) 
-7.5199999999999996

>  <m_primary>  (57) 
energy

$$$$
57:0
     RDKit          3D

 68 72  0  0  0  0  0  0  0  0999 V2000
   54.5460   29.3420   45.6800 H   0  0  0  0  0  0  0  0  0  0  0  0
   55.1840   29.2630   44.8590 N   0  0  0  0  0  0  0  0  0  0  0  0
   56.5570   29.6340   44.9640 C   0  0  0  0  0  0  0  0  0  0  0  0
   56.8750   30.8510   44.8640 O   0  0  0  0  0  0  0  0  0  0  0  0
   57.6120   28.5920   45.2930 C   0  0  0  0  0  0  0  0  0  0  0  0
   58.7930   29.2210   45.9060 N   0  0  0  0  0  0  0  0  0  0  0  0
   58.8130   29.9630   46.9760 C   0  0  0  0  0  0  0  0  0  0  0  0
   58.5140   29.4440   48.1960 N   0  0  0  0  0  0  0  0  0  0  0  0
   58.5540   30.2260   49.3040 C   0  0  0  0  0  0  0  0  0  0  0  0
   58.3020   29.7030   50.4670 N   0  0  0  0  0  0  0  0  0  0  0  0
   59.3030   29.4430   51.5020 C   0  0  0  0  0  0  0  0  0  0  0  0
   58.8400   29.5675   52.4920 H   0  0  0  0  0  0  0  0  0  0  0  0
   59.6770   28.4154   51.3830 H   0  0  0  0  0  0  0  0  0  0  0  0
   60.4620   30.4000   51.3730 C   0  0  0  0  0  0  0  0  0  0  0  0
   61.5000   30.1310   50.4690 C   0  0  0  0  0  0  0  0  0  0  0  0
   61.4935   29.1942   49.8925 H   0  0  0  0  0  0  0  0  0  0  0  0
   62.5420   31.0450   50.2960 C   0  0  0  0  0  0  0  0  0  0  0  0
   63.3487   30.8239   49.5816 H   0  0  0  0  0  0  0  0  0  0  0  0
   62.5680   32.2460   51.0280 C   0  0  0  0  0  0  0  0  0  0  0  0
   63.6520   33.2450   50.8460 C   0  0  0  0  0  0  0  0  0  0  0  0
   63.4780   34.1870   50.0230 O   0  0  0  0  0  0  0  0  0  0  0  0
   64.8960   33.1670   51.5890 N   0  0  0  0  0  0  0  0  0  0  0  0
   64.6810   32.8610   52.5670 H   0  0  0  0  0  0  0  0  0  0  0  0
   65.5090   34.5220   51.6750 C   0  0  0  0  0  0  0  0  0  0  0  0
   65.3095   35.0589   50.7359 H   0  0  0  0  0  0  0  0  0  0  0  0
   65.0620   35.0349   52.5394 H   0  0  0  0  0  0  0  0  0  0  0  0
   67.0250   34.4720   51.8990 C   0  0  0  0  0  0  0  0  0  0  0  0
   67.4283   35.4949   51.9294 H   0  0  0  0  0  0  0  0  0  0  0  0
   67.2459   33.9714   52.8532 H   0  0  0  0  0  0  0  0  0  0  0  0
   67.6550   33.7150   50.7680 C   0  0  0  0  0  0  0  0  0  0  0  0
   68.7920   33.9760   50.4040 O   0  0  0  0  0  0  0  0  0  0  0  0
   66.8640   32.6440   50.0750 C   0  0  0  0  0  0  0  0  0  0  0  0
   66.3873   33.0644   49.1772 H   0  0  0  0  0  0  0  0  0  0  0  0
   67.5369   31.8233   49.7856 H   0  0  0  0  0  0  0  0  0  0  0  0
   65.7820   32.1050   51.0230 C   0  0  0  0  0  0  0  0  0  0  0  0
   65.1568   31.3914   50.4664 H   0  0  0  0  0  0  0  0  0  0  0  0
   66.3023   31.6350   51.8706 H   0  0  0  0  0  0  0  0  0  0  0  0
   61.5430   32.4940   51.9590 C   0  0  0  0  0  0  0  0  0  0  0  0
   61.5653   33.4142   52.5613 H   0  0  0  0  0  0  0  0  0  0  0  0
   60.4980   31.5840   52.1260 C   0  0  0  0  0  0  0  0  0  0  0  0
   59.6986   31.7957   52.8514 H   0  0  0  0  0  0  0  0  0  0  0  0
   58.8790   31.5430   49.1830 N   0  0  0  0  0  0  0  0  0  0  0  0
   59.1730   32.0710   47.9700 C   0  0  0  0  0  0  0  0  0  0  0  0
   59.4780   33.3310   47.8790 N   0  0  0  0  0  0  0  0  0  0  0  0
   60.6790   33.8600   47.2320 C   0  0  0  0  0  0  0  0  0  0  0  0
   60.8998   34.8558   47.6439 H   0  0  0  0  0  0  0  0  0  0  0  0
   60.4939   33.9212   46.1494 H   0  0  0  0  0  0  0  0  0  0  0  0
   61.8780   32.9470   47.4670 C   0  0  0  0  0  0  0  0  0  0  0  0
   62.0391   32.8243   48.5482 H   0  0  0  0  0  0  0  0  0  0  0  0
   61.6857   31.9645   47.0111 H   0  0  0  0  0  0  0  0  0  0  0  0
   62.7739   33.3937   47.0111 H   0  0  0  0  0  0  0  0  0  0  0  0
   59.1460   31.2720   46.8690 N   0  0  0  0  0  0  0  0  0  0  0  0
   57.0210   27.5660   46.3030 C   0  0  0  0  0  0  0  0  0  0  0  0
   57.6329   27.5232   47.2161 H   0  0  0  0  0  0  0  0  0  0  0  0
   56.0035   27.8344   46.6235 H   0  0  0  0  0  0  0  0  0  0  0  0
   57.0610   26.2700   45.5850 C   0  0  0  0  0  0  0  0  0  0  0  0
   56.6290   25.0340   46.0730 C   0  0  0  0  0  0  0  0  0  0  0  0
   56.1930   24.9511   47.0795 H   0  0  0  0  0  0  0  0  0  0  0  0
   56.7610   23.9010   45.2570 C   0  0  0  0  0  0  0  0  0  0  0  0
   56.4270   22.9191   45.6235 H   0  0  0  0  0  0  0  0  0  0  0  0
   57.3190   24.0170   43.9720 C   0  0  0  0  0  0  0  0  0  0  0  0
   57.4203   23.1267   43.3340 H   0  0  0  0  0  0  0  0  0  0  0  0
   57.7470   25.2690   43.5030 C   0  0  0  0  0  0  0  0  0  0  0  0
   58.1856   25.3705   42.4994 H   0  0  0  0  0  0  0  0  0  0  0  0
   57.6060   26.3850   44.3340 C   0  0  0  0  0  0  0  0  0  0  0  0
   58.0340   27.7700   44.0330 C   0  0  0  0  0  0  0  0  0  0  0  0
   59.1230   27.8170   43.8848 H   0  0  0  0  0  0  0  0  0  0  0  0
   57.5792   28.1571   43.1092 H   0  0  0  0  0  0  0  0  0  0  0  0
  1  2  1  0
  2  3  1  0
  3  4  2  0
  3  5  1  0
  5  6  1  0
  6  7  2  0
  7  8  1  0
  8  9  1  0
  9 10  2  3
 10 11  1  0
 11 12  1  0
 11 13  1  0
 11 14  1  0
 14 15  2  0
 15 16  1  0
 15 17  1  0
 17 18  1  0
 17 19  2  0
 19 20  1  0
 20 21  2  0
 20 22  1  0
 22 23  1  0
 22 24  1  0
 24 25  1  0
 24 26  1  0
 24 27  1  0
 27 28  1  0
 27 29  1  0
 27 30  1  0
 30 31  2  0
 30 32  1  0
 32 33  1  0
 32 34  1  0
 32 35  1  0
 35 36  1  0
 35 37  1  0
 19 38  1  0
 38 39  1  0
 38 40  2  0
 40 41  1  0
  9 42  1  0
 42 43  1  0
 43 44  2  0
 44 45  1  0
 45 46  1  0
 45 47  1  0
 45 48  1  0
 48 49  1  0
 48 50  1  0
 48 51  1  0
 43 52  1  0
  5 53  1  0
 53 54  1  0
 53 55  1  0
 53 56  1  0
 56 57  2  0
 57 58  1  0
 57 59  1  0
 59 60  1  0
 59 61  2  0
 61 62  1  0
 61 63  1  0
 63 64  1  0
 63 65  2  0
 65 66  1  0
 66 67  1  0
 66 68  1  0
 66  5  1  0
 52  7  1  0
 65 56  1  0
 40 14  1  0
 35 22  1  0
M  CHG  5   2  -1   8  -1  22   1  42  -1  52  -1
M  END
>  <UniqueID>  (58) 
55

>  <SMILES>  (58) 
CC/N=c1/[n-]c(=NCc2ccc(C(=O)[NH+]3CCC(=O)CC3)cc2)[n-]/c(=N\C2(C([NH-])=O)Cc3ccccc3C2)[n-]1

>  <Energy>  (58) 
92.46254217107385

>  <Genealogy>  (58) 
CCN=c1[n-]c(=NCc2ccc(C(=O)[NH+]3CCC(=O)CC3)cc2)[n-]c(=NC2(C([NH-])=O)Cc3ccccc3C2)[n-]1 (protonated)
CC/N=c1/[n-]c(=NCc2ccc(C(=O)[NH+]3CCC(=O)CC3)cc2)[n-]/c(=N\C2(C([NH-])=O)Cc3ccccc3C2)[n-]1 (cis-trans isomerization)
CC/N=c1/[n-]c(=NCc2ccc(C(=O)[NH+]3CCC(=O)CC3)cc2)[n-]/c(=N\C2(C([NH-])=O)Cc3ccccc3C2)[n-]1 (3D coordinates assigned)
CC/N=c1/[n-]c(=NCc2ccc(C(=O)[NH+]3CCC(=O)CC3)cc2)[n-]/c(=N\C2(C([NH-])=O)Cc3ccccc3C2)[n-]1 (nonaromatic ring conformer: 92.46254217107385 kcal/mol)

>  <smiles>  (58) 
CCN=c1[nH]c(=NCc2ccc(C(=O)N3CCC(=O)CC3)cc2)[nH]c(=NC2(C(N)=O)Cc3ccccc3C2)[nH]1

>  <score_type>  (58) 
oracle

>  <origin>  (58) 
adg

>  <m_score__min__energy>  (58) 
-15.31

>  <m_primary>  (58) 
energy

$$$$
58:0
     RDKit          3D

 60 64  0  0  1  0  0  0  0  0999 V2000
   63.5740   31.9890   49.3720 C   0  0  0  0  0  0  0  0  0  0  0  0
   63.6050   32.9010   48.2720 N   0  0  0  0  0  0  0  0  0  0  0  0
   62.9590   32.3060   47.1290 C   0  0  0  0  0  0  0  0  0  0  0  0
   61.4820   32.0960   47.3790 C   0  0  0  0  0  0  0  0  0  0  0  0
   60.9510   33.3350   47.9060 N   0  0  0  0  0  0  0  0  0  0  0  0
   59.7220   33.8240   47.3630 C   0  0  0  0  0  0  0  0  0  0  0  0
   59.1970   34.9100   47.7780 O   0  0  0  0  0  0  0  0  0  0  0  0
   58.9910   33.1320   46.3120 C   0  0  0  0  0  0  0  0  0  0  0  0
   58.8300   33.7210   45.0620 C   0  0  0  0  0  0  0  0  0  0  0  0
   58.1610   33.1380   44.0310 C   0  0  0  0  0  0  0  0  0  0  0  0
   57.6040   31.8810   44.2320 C   0  0  0  0  0  0  0  0  0  0  0  0
   57.7670   31.2940   45.4890 C   0  0  0  0  0  0  0  0  0  0  0  0
   57.1590   29.9900   45.6200 N   0  0  0  0  0  0  0  0  0  0  0  0
   57.8800   28.9110   45.4450 C   0  0  0  0  0  0  0  0  0  0  0  0
   59.2140   29.0450   45.2420 N   0  0  0  0  0  0  0  0  0  0  0  0
   59.9740   27.9300   45.0590 C   0  0  0  0  0  0  0  0  0  0  0  0
   59.4160   26.6900   45.0750 N   0  0  0  0  0  0  0  0  0  0  0  0
   58.0900   26.5160   45.2730 C   0  0  0  0  0  0  0  0  0  0  0  0
   57.3210   27.6490   45.4590 C   0  0  0  0  0  0  0  0  0  0  0  0
   56.0560   27.2240   45.6330 N   0  0  0  0  0  0  0  0  0  0  0  0
   56.0400   25.8940   45.5600 N   0  0  0  0  0  0  0  0  0  0  0  0
   57.2670   25.4450   45.3400 N   0  0  0  0  0  0  0  0  0  0  0  0
   57.7460   24.0910   45.1860 C   0  0  2  0  0  0  0  0  0  0  0  0
   57.5000   23.5870   43.9380 O   0  0  0  0  0  0  0  0  0  0  0  0
   57.7780   22.2090   44.0880 C   0  0  2  0  0  0  0  0  0  0  0  0
   57.0250   21.3990   43.0410 C   0  0  0  0  0  0  0  0  0  0  0  0
   56.0000   22.1930   42.5390 O   0  0  0  0  0  0  0  0  0  0  0  0
   57.2480   21.8200   45.4500 C   0  0  1  0  0  0  0  0  0  0  0  0
   58.2920   21.2300   46.1730 O   0  0  0  0  0  0  0  0  0  0  0  0
   56.9350   23.1690   46.0670 C   0  0  1  0  0  0  0  0  0  0  0  0
   57.3840   23.1970   47.3860 O   0  0  0  0  0  0  0  0  0  0  0  0
   58.4360   31.8820   46.5140 C   0  0  0  0  0  0  0  0  0  0  0  0
   61.5880   34.1050   48.9500 C   0  0  0  0  0  0  0  0  0  0  0  0
   63.0570   34.2000   48.6020 C   0  0  0  0  0  0  0  0  0  0  0  0
   63.5932   32.5528   50.3164 H   0  0  0  0  0  0  0  0  0  0  0  0
   62.6549   31.3867   49.3231 H   0  0  0  0  0  0  0  0  0  0  0  0
   64.4501   31.3257   49.3231 H   0  0  0  0  0  0  0  0  0  0  0  0
   63.0845   32.9697   46.2608 H   0  0  0  0  0  0  0  0  0  0  0  0
   63.4216   31.3260   46.9402 H   0  0  0  0  0  0  0  0  0  0  0  0
   60.9742   31.8398   46.4375 H   0  0  0  0  0  0  0  0  0  0  0  0
   61.3220   31.2718   48.0897 H   0  0  0  0  0  0  0  0  0  0  0  0
   59.2692   34.7160   44.8978 H   0  0  0  0  0  0  0  0  0  0  0  0
   58.0634   33.6492   43.0619 H   0  0  0  0  0  0  0  0  0  0  0  0
   57.0544   31.3666   43.4300 H   0  0  0  0  0  0  0  0  0  0  0  0
   59.6870   29.9820   45.2220 H   0  0  0  0  0  0  0  0  0  0  0  0
   61.0568   28.0340   44.8956 H   0  0  0  0  0  0  0  0  0  0  0  0
   58.8212   24.1331   45.4143 H   0  0  0  0  0  0  0  0  0  0  0  0
   58.8554   22.0170   43.9773 H   0  0  0  0  0  0  0  0  0  0  0  0
   57.7083   21.1132   42.2277 H   0  0  0  0  0  0  0  0  0  0  0  0
   56.6138   20.4827   43.4897 H   0  0  0  0  0  0  0  0  0  0  0  0
   56.3180   23.0660   42.1960 H   0  0  0  0  0  0  0  0  0  0  0  0
   56.3958   21.1248   45.4282 H   0  0  0  0  0  0  0  0  0  0  0  0
   58.7800   20.5850   45.6050 H   0  0  0  0  0  0  0  0  0  0  0  0
   55.8671   23.4293   46.1106 H   0  0  0  0  0  0  0  0  0  0  0  0
   57.7710   22.3050   47.5860 H   0  0  0  0  0  0  0  0  0  0  0  0
   58.5343   31.3743   47.4849 H   0  0  0  0  0  0  0  0  0  0  0  0
   61.1464   35.1113   48.9991 H   0  0  0  0  0  0  0  0  0  0  0  0
   61.4489   33.6249   49.9299 H   0  0  0  0  0  0  0  0  0  0  0  0
   63.1779   34.8698   47.7379 H   0  0  0  0  0  0  0  0  0  0  0  0
   63.5962   34.5920   49.4770 H   0  0  0  0  0  0  0  0  0  0  0  0
  1  2  1  0
  2  3  1  0
  3  4  1  0
  4  5  1  0
  5  6  1  0
  6  7  2  0
  6  8  1  0
  8  9  2  0
  9 10  1  0
 10 11  2  0
 11 12  1  0
 12 13  1  0
 13 14  2  0
 14 15  1  0
 15 16  1  0
 16 17  2  0
 17 18  1  0
 18 19  2  0
 19 20  1  0
 20 21  2  0
 21 22  1  0
 22 23  1  0
 23 24  1  0
 24 25  1  0
 25 26  1  0
 26 27  1  0
 25 28  1  0
 28 29  1  0
 28 30  1  0
 30 31  1  0
 12 32  2  0
  5 33  1  0
 33 34  1  0
 34  2  1  0
 32  8  1  0
 19 14  1  0
 30 23  1  0
 22 18  1  0
  1 35  1  0
  1 36  1  0
  1 37  1  0
  3 38  1  0
  3 39  1  0
  4 40  1  0
  4 41  1  0
  9 42  1  0
 10 43  1  0
 11 44  1  0
 15 45  1  0
 16 46  1  0
 23 47  1  1
 25 48  1  1
 26 49  1  0
 26 50  1  0
 27 51  1  0
 28 52  1  6
 29 53  1  0
 30 54  1  1
 31 55  1  0
 32 56  1  0
 33 57  1  0
 33 58  1  0
 34 59  1  0
 34 60  1  0
M  END
>  <smiles>  (59) 
CN1CCN(C(=O)c2cccc(N=c3[nH]cnc4c3nnn4C3OC(CO)C(O)C3O)c2)CC1

>  <score_type>  (59) 
oracle

>  <origin>  (59) 
adg

>  <m_score__min__energy>  (59) 
-10.529999999999999

>  <m_primary>  (59) 
energy

$$$$
59:0
     RDKit          3D

 56 59  0  0  0  0  0  0  0  0999 V2000
   56.3526   22.1826   41.4549 H   0  0  0  0  0  0  0  0  0  0  0  0
   56.3160   22.2350   42.5530 C   0  0  0  0  0  0  0  0  0  0  0  0
   56.3060   21.0910   43.2860 N   0  0  0  0  0  0  0  0  0  0  0  0
   56.2680   21.1130   44.6470 C   0  0  0  0  0  0  0  0  0  0  0  0
   56.2730   19.8270   45.4110 C   0  0  0  0  0  0  0  0  0  0  0  0
   56.2722   20.0415   46.4899 H   0  0  0  0  0  0  0  0  0  0  0  0
   55.3771   19.2434   45.1525 H   0  0  0  0  0  0  0  0  0  0  0  0
   57.1734   19.2504   45.1525 H   0  0  0  0  0  0  0  0  0  0  0  0
   56.2330   22.3390   45.3230 C   0  0  0  0  0  0  0  0  0  0  0  0
   56.2158   22.3635   46.4226 H   0  0  0  0  0  0  0  0  0  0  0  0
   56.2200   23.5360   44.5910 C   0  0  0  0  0  0  0  0  0  0  0  0
   56.1920   24.8320   45.3030 C   0  0  0  0  0  0  0  0  0  0  0  0
   55.0480   25.4890   45.6160 N   0  0  0  0  0  0  0  0  0  0  0  0
   55.3510   26.6100   46.2640 N   0  0  0  0  0  0  0  0  0  0  0  0
   56.6910   26.6710   46.3560 C   0  0  0  0  0  0  0  0  0  0  0  0
   57.4570   27.6700   46.9460 C   0  0  0  0  0  0  0  0  0  0  0  0
   56.9891   28.5375   47.4344 H   0  0  0  0  0  0  0  0  0  0  0  0
   58.8700   27.5240   46.8920 C   0  0  0  0  0  0  0  0  0  0  0  0
   59.6920   28.3850   47.4260 N   0  0  0  0  0  0  0  0  0  0  0  0
   59.4190   29.4130   48.3900 C   0  0  0  0  0  0  0  0  0  0  0  0
   58.5510   29.2470   49.2890 O   0  0  0  0  0  0  0  0  0  0  0  0
   60.0800   30.6740   48.2560 N   0  0  0  0  0  0  0  0  0  0  0  0
   59.3840   31.9420   48.0400 C   0  0  2  0  0  0  0  0  0  0  0  0
   58.7346   32.1532   48.9024 H   0  0  0  0  0  0  0  0  0  0  0  0
   58.5440   31.8410   46.7960 C   0  0  0  0  0  0  0  0  0  0  0  0
   57.5460   32.5990   46.6530 O   0  0  0  0  0  0  0  0  0  0  0  0
   58.8300   30.8310   45.8170 N   0  0  0  0  0  0  0  0  0  0  0  0
   59.4810   30.0570   46.0780 H   0  0  0  0  0  0  0  0  0  0  0  0
   58.0490   30.6820   44.6230 C   0  0  0  0  0  0  0  0  0  0  0  0
   57.4670   29.4360   44.3480 C   0  0  0  0  0  0  0  0  0  0  0  0
   57.6350   28.5925   45.0337 H   0  0  0  0  0  0  0  0  0  0  0  0
   56.6760   29.2570   43.2110 C   0  0  0  0  0  0  0  0  0  0  0  0
   56.2180   28.2777   43.0078 H   0  0  0  0  0  0  0  0  0  0  0  0
   56.4670   30.3210   42.3330 C   0  0  0  0  0  0  0  0  0  0  0  0
   55.8334   30.1830   41.4445 H   0  0  0  0  0  0  0  0  0  0  0  0
   57.0610   31.5620   42.5800 C   0  0  0  0  0  0  0  0  0  0  0  0
   56.8901   32.3973   41.8850 H   0  0  0  0  0  0  0  0  0  0  0  0
   57.8750   31.7500   43.7100 C   0  0  0  0  0  0  0  0  0  0  0  0
   58.5270   33.0890   43.9250 C   0  0  0  0  0  0  0  0  0  0  0  0
   58.6210   33.2821   45.0038 H   0  0  0  0  0  0  0  0  0  0  0  0
   59.5258   33.0887   43.4642 H   0  0  0  0  0  0  0  0  0  0  0  0
   57.9108   33.8751   43.4642 H   0  0  0  0  0  0  0  0  0  0  0  0
   60.3960   33.0870   47.9060 C   0  0  0  0  0  0  0  0  0  0  0  0
   61.0086   33.1431   48.8179 H   0  0  0  0  0  0  0  0  0  0  0  0
   59.8581   34.0362   47.7657 H   0  0  0  0  0  0  0  0  0  0  0  0
   61.2320   32.8510   46.7910 O   0  0  0  0  0  0  0  0  0  0  0  0
   62.5680   33.1350   47.1400 C   0  0  0  0  0  0  0  0  0  0  0  0
   62.6644   33.1555   48.2356 H   0  0  0  0  0  0  0  0  0  0  0  0
   63.2278   32.3570   46.7284 H   0  0  0  0  0  0  0  0  0  0  0  0
   62.8543   34.1141   46.7284 H   0  0  0  0  0  0  0  0  0  0  0  0
   59.4040   26.4190   46.2790 N   0  0  0  0  0  0  0  0  0  0  0  0
   58.6390   25.4470   45.7020 C   0  0  0  0  0  0  0  0  0  0  0  0
   59.1013   24.5835   45.2014 H   0  0  0  0  0  0  0  0  0  0  0  0
   57.2570   25.5830   45.7670 C   0  0  0  0  0  0  0  0  0  0  0  0
   56.2800   23.4770   43.1900 C   0  0  0  0  0  0  0  0  0  0  0  0
   56.2985   24.4036   42.5974 H   0  0  0  0  0  0  0  0  0  0  0  0
  1  2  1  0
  2  3  2  0
  3  4  1  0
  4  5  1  0
  5  6  1  0
  5  7  1  0
  5  8  1  0
  4  9  2  0
  9 10  1  0
  9 11  1  0
 11 12  1  0
 12 13  2  0
 13 14  1  0
 14 15  1  0
 15 16  2  0
 16 17  1  0
 16 18  1  0
 18 19  2  0
 19 20  1  0
 20 21  2  0
 20 22  1  0
 22 23  1  0
 23 24  1  1
 23 25  1  0
 25 26  2  0
 25 27  1  0
 27 28  1  0
 27 29  1  0
 29 30  2  0
 30 31  1  0
 30 32  1  0
 32 33  1  0
 32 34  2  0
 34 35  1  0
 34 36  1  0
 36 37  1  0
 36 38  2  0
 38 39  1  0
 39 40  1  0
 39 41  1  0
 39 42  1  0
 23 43  1  0
 43 44  1  0
 43 45  1  0
 43 46  1  0
 46 47  1  0
 47 48  1  0
 47 49  1  0
 47 50  1  0
 18 51  1  0
 51 52  1  0
 52 53  1  0
 52 54  2  0
 11 55  2  0
 55 56  1  0
 55  2  1  0
 54 12  1  0
 54 15  1  0
 38 29  1  0
M  CHG  3  14  -1  22  -1  51  -1
M  END
>  <UniqueID>  (60) 
56

>  <SMILES>  (60) 
COC[C@H]([N-]C(=O)/N=c1\cc2[n-]nc(-c3ccnc(C)c3)c2c[n-]1)C(=O)Nc1ccccc1C

>  <Energy>  (60) 
112.94692944983476

>  <Genealogy>  (60) 
COCC([N-]C(=O)N=c1cc2[n-]nc(-c3ccnc(C)c3)c2c[n-]1)C(=O)Nc1ccccc1C (protonated)
COC[C@H]([N-]C(=O)N=c1cc2[n-]nc(-c3ccnc(C)c3)c2c[n-]1)C(=O)Nc1ccccc1C (chirality)
COC[C@H]([N-]C(=O)/N=c1\cc2[n-]nc(-c3ccnc(C)c3)c2c[n-]1)C(=O)Nc1ccccc1C (cis-trans isomerization)
COC[C@H]([N-]C(=O)/N=c1\cc2[n-]nc(-c3ccnc(C)c3)c2c[n-]1)C(=O)Nc1ccccc1C (3D coordinates assigned)
COC[C@H]([N-]C(=O)/N=c1\cc2[n-]nc(-c3ccnc(C)c3)c2c[n-]1)C(=O)Nc1ccccc1C (optimized conformer: 112.94692944983476 kcal/mol)

>  <smiles>  (60) 
COCC(NC(=O)N=c1cc2[nH]nc(-c3ccnc(C)c3)c2c[nH]1)C(=O)Nc1ccccc1C

>  <score_type>  (60) 
oracle

>  <origin>  (60) 
adg

>  <m_score__min__energy>  (60) 
-12.74

>  <m_primary>  (60) 
energy

$$$$
60:0
     RDKit          3D

 50 53  0  0  1  0  0  0  0  0999 V2000
   59.3270   26.4480   47.6950 C   0  0  0  0  0  0  0  0  0  0  0  0
   58.5900   27.1850   46.8960 C   0  0  0  0  0  0  0  0  0  0  0  0
   58.3340   28.5300   47.2000 C   0  0  0  0  0  0  0  0  0  0  0  0
   59.0480   29.1960   48.7110 S   0  0  0  0  0  0  0  0  0  0  0  0
   60.3780   30.3700   48.3760 C   0  0  0  0  0  0  0  0  0  0  0  0
   59.8820   31.4770   47.5110 C   0  0  0  0  0  0  0  0  0  0  0  0
   60.6040   32.4400   46.8820 N   0  0  0  0  0  0  0  0  0  0  0  0
   59.7280   33.2320   46.2070 C   0  0  0  0  0  0  0  0  0  0  0  0
   59.8820   34.3470   45.4060 C   0  0  0  0  0  0  0  0  0  0  0  0
   58.7400   34.9050   44.8750 C   0  0  0  0  0  0  0  0  0  0  0  0
   57.4730   34.4060   45.1050 C   0  0  0  0  0  0  0  0  0  0  0  0
   57.3230   33.2940   45.9060 C   0  0  0  0  0  0  0  0  0  0  0  0
   58.4720   32.7250   46.4450 C   0  0  0  0  0  0  0  0  0  0  0  0
   58.5740   31.6560   47.2400 N   0  0  0  0  0  0  0  0  0  0  0  0
   57.5840   29.3000   46.3980 N   0  0  0  0  0  0  0  0  0  0  0  0
   57.0210   28.8610   45.2550 C   0  0  0  0  0  0  0  0  0  0  0  0
   56.1910   29.7280   44.3760 C   0  0  0  0  0  0  0  0  0  0  0  0
   57.1710   30.3940   43.4080 C   0  0  0  0  0  0  0  0  0  0  0  0
   58.5280   30.5860   44.0340 C   0  0  0  0  0  0  0  0  0  0  0  0
   57.2460   27.5480   44.9160 C   0  0  0  0  0  0  0  0  0  0  0  0
   58.0160   26.7350   45.7270 C   0  0  0  0  0  0  0  0  0  0  0  0
   58.1920   25.4840   45.3460 C   0  0  0  0  0  0  0  0  0  0  0  0
   57.0600   24.7050   44.8580 C   0  0  0  0  0  0  0  0  0  0  0  0
   57.1850   23.7340   43.9230 N   0  0  0  0  0  0  0  0  0  0  0  0
   55.9410   23.2350   43.7200 C   0  0  0  0  0  0  0  0  0  0  0  0
   55.6440   22.3070   42.9170 O   0  0  0  0  0  0  0  0  0  0  0  0
   55.0630   23.8870   44.5150 N   0  0  0  0  0  0  0  0  0  0  0  0
   55.7320   24.7940   45.2210 C   0  0  0  0  0  0  0  0  0  0  0  0
   55.2590   25.6950   46.1640 O   0  0  0  0  0  0  0  0  0  0  0  0
   59.5217   25.3941   47.4473 H   0  0  0  0  0  0  0  0  0  0  0  0
   59.7496   26.8846   48.6120 H   0  0  0  0  0  0  0  0  0  0  0  0
   60.7424   30.7870   49.3264 H   0  0  0  0  0  0  0  0  0  0  0  0
   61.1952   29.8478   47.8569 H   0  0  0  0  0  0  0  0  0  0  0  0
   60.8757   34.7717   45.2007 H   0  0  0  0  0  0  0  0  0  0  0  0
   58.8425   35.7937   44.2349 H   0  0  0  0  0  0  0  0  0  0  0  0
   56.5940   34.8900   44.6545 H   0  0  0  0  0  0  0  0  0  0  0  0
   56.3286   32.8712   46.1118 H   0  0  0  0  0  0  0  0  0  0  0  0
   57.7860   31.0670   47.5890 H   0  0  0  0  0  0  0  0  0  0  0  0
   55.4570   29.1232   43.8232 H   0  0  0  0  0  0  0  0  0  0  0  0
   55.6247   30.4714   44.9563 H   0  0  0  0  0  0  0  0  0  0  0  0
   57.2766   29.7602   42.5152 H   0  0  0  0  0  0  0  0  0  0  0  0
   56.7721   31.3843   43.1431 H   0  0  0  0  0  0  0  0  0  0  0  0
   58.4316   30.5724   45.1297 H   0  0  0  0  0  0  0  0  0  0  0  0
   59.1974   29.7736   43.7147 H   0  0  0  0  0  0  0  0  0  0  0  0
   58.9457   31.5522   43.7147 H   0  0  0  0  0  0  0  0  0  0  0  0
   56.8099   27.1408   43.9919 H   0  0  0  0  0  0  0  0  0  0  0  0
   59.1922   25.0290   45.3965 H   0  0  0  0  0  0  0  0  0  0  0  0
   58.0760   23.4420   43.4630 H   0  0  0  0  0  0  0  0  0  0  0  0
   54.0330   23.7230   44.5800 H   0  0  0  0  0  0  0  0  0  0  0  0
   55.5050   25.6860   47.1410 H   0  0  0  0  0  0  0  0  0  0  0  0
  1  2  2  0
  2  3  1  0
  3  4  1  0
  4  5  1  0
  5  6  1  0
  6  7  2  0
  7  8  1  0
  8  9  2  0
  9 10  1  0
 10 11  2  0
 11 12  1  0
 12 13  2  0
 13 14  1  0
  3 15  2  0
 15 16  1  0
 16 17  1  0
 17 18  1  0
 18 19  1  0
 16 20  2  0
 20 21  1  0
 21 22  2  0
 22 23  1  0
 23 24  1  0
 24 25  1  0
 25 26  2  0
 25 27  1  0
 27 28  1  0
 28 29  1  0
 21  2  1  0
 28 23  2  0
 14  6  1  0
 13  8  1  0
  1 30  1  0
  1 31  1  0
  5 32  1  0
  5 33  1  0
  9 34  1  0
 10 35  1  0
 11 36  1  0
 12 37  1  0
 14 38  1  0
 17 39  1  0
 17 40  1  0
 18 41  1  0
 18 42  1  0
 19 43  1  0
 19 44  1  0
 19 45  1  0
 20 46  1  0
 22 47  1  0
 24 48  1  0
 27 49  1  0
 29 50  1  0
M  END
>  <smiles>  (61) 
C=c1c(SCc2nc3ccccc3[nH]2)nc(CCC)cc1=Cc1[nH]c(=O)[nH]c1O

>  <score_type>  (61) 
oracle

>  <origin>  (61) 
adg

>  <m_score__min__energy>  (61) 
-9.5899999999999999

>  <m_primary>  (61) 
energy

$$$$
61:0
     RDKit          3D

 54 57  0  0  0  0  0  0  0  0999 V2000
   58.6781   27.8885   49.4502 H   0  0  0  0  0  0  0  0  0  0  0  0
   58.5140   27.8150   48.3650 C   0  0  0  0  0  0  0  0  0  0  0  0
   57.6982   27.1897   47.9732 H   0  0  0  0  0  0  0  0  0  0  0  0
   59.3100   28.4890   47.5180 C   0  0  0  0  0  0  0  0  0  0  0  0
   59.2230   28.4930   46.1150 C   0  0  0  0  0  0  0  0  0  0  0  0
   58.5000   27.7340   45.2670 C   0  0  0  0  0  0  0  0  0  0  0  0
   58.8539   27.6680   44.2276 H   0  0  0  0  0  0  0  0  0  0  0  0
   57.2810   26.9870   45.6080 C   0  0  0  0  0  0  0  0  0  0  0  0
   57.2890   25.7390   46.1090 N   0  0  0  0  0  0  0  0  0  0  0  0
   55.9850   25.4990   46.3700 C   0  0  0  0  0  0  0  0  0  0  0  0
   55.5790   24.4060   46.8440 O   0  0  0  0  0  0  0  0  0  0  0  0
   55.1520   26.5260   46.0920 N   0  0  0  0  0  0  0  0  0  0  0  0
   55.9900   27.4660   45.6250 C   0  0  0  0  0  0  0  0  0  0  0  0
   55.5860   28.7410   45.2450 O   0  0  0  0  0  0  0  0  0  0  0  0
   60.0840   29.4830   45.6770 C   0  0  0  0  0  0  0  0  0  0  0  0
   60.2414   29.8003   44.6356 H   0  0  0  0  0  0  0  0  0  0  0  0
   60.7070   29.9960   46.7940 C   0  0  0  0  0  0  0  0  0  0  0  0
   61.7510   31.0720   46.7600 C   0  0  0  0  0  0  0  0  0  0  0  0
   62.0226   31.3520   47.7885 H   0  0  0  0  0  0  0  0  0  0  0  0
   62.6427   30.7012   46.2333 H   0  0  0  0  0  0  0  0  0  0  0  0
   61.3535   31.9521   46.2333 H   0  0  0  0  0  0  0  0  0  0  0  0
   60.2500   29.3930   47.9160 N   0  0  0  0  0  0  0  0  0  0  0  0
   60.6870   29.7180   49.2850 C   0  0  0  0  0  0  0  0  0  0  0  0
   60.8795   28.7828   49.8311 H   0  0  0  0  0  0  0  0  0  0  0  0
   61.6006   30.3274   49.2222 H   0  0  0  0  0  0  0  0  0  0  0  0
   59.6300   30.5150   50.0270 C   0  0  0  0  0  0  0  0  0  0  0  0
   58.8120   29.8390   50.9520 C   0  0  0  0  0  0  0  0  0  0  0  0
   58.9338   28.7548   51.0919 H   0  0  0  0  0  0  0  0  0  0  0  0
   57.8490   30.5240   51.6940 C   0  0  0  0  0  0  0  0  0  0  0  0
   57.2096   29.9764   52.4021 H   0  0  0  0  0  0  0  0  0  0  0  0
   57.6960   31.8980   51.5400 C   0  0  0  0  0  0  0  0  0  0  0  0
   56.9370   32.4357   52.1271 H   0  0  0  0  0  0  0  0  0  0  0  0
   58.5040   32.5940   50.6420 C   0  0  0  0  0  0  0  0  0  0  0  0
   58.3825   33.6818   50.5331 H   0  0  0  0  0  0  0  0  0  0  0  0
   59.4730   31.9230   49.8730 C   0  0  0  0  0  0  0  0  0  0  0  0
   60.3320   32.7450   48.9320 C   0  0  0  0  0  0  0  0  0  0  0  0
   61.0604   33.3152   49.5273 H   0  0  0  0  0  0  0  0  0  0  0  0
   60.8293   32.0486   48.2408 H   0  0  0  0  0  0  0  0  0  0  0  0
   59.5220   33.7130   48.1020 C   0  0  0  0  0  0  0  0  0  0  0  0
   59.5670   34.9470   48.3730 O   0  0  0  0  0  0  0  0  0  0  0  0
   58.6700   33.2500   47.0310 N   0  0  0  0  0  0  0  0  0  0  0  0
   58.1310   31.8810   47.0380 C   0  0  0  0  0  0  0  0  0  0  0  0
   58.8975   31.1922   47.4227 H   0  0  0  0  0  0  0  0  0  0  0  0
   57.2389   31.8534   47.6810 H   0  0  0  0  0  0  0  0  0  0  0  0
   57.7340   31.4530   45.6220 C   0  0  0  0  0  0  0  0  0  0  0  0
   58.6430   31.3317   45.0145 H   0  0  0  0  0  0  0  0  0  0  0  0
   57.1830   30.5030   45.6841 H   0  0  0  0  0  0  0  0  0  0  0  0
   56.8990   32.4200   45.0170 O   0  0  0  0  0  0  0  0  0  0  0  0
   57.6280   33.6180   44.8310 C   0  0  0  0  0  0  0  0  0  0  0  0
   58.5486   33.3975   44.2708 H   0  0  0  0  0  0  0  0  0  0  0  0
   57.0031   34.3298   44.2718 H   0  0  0  0  0  0  0  0  0  0  0  0
   57.9970   34.2400   46.1800 C   0  0  0  0  0  0  0  0  0  0  0  0
   58.6708   35.0935   46.0139 H   0  0  0  0  0  0  0  0  0  0  0  0
   57.0780   34.5773   46.6817 H   0  0  0  0  0  0  0  0  0  0  0  0
  1  2  1  0
  2  3  1  0
  2  4  2  0
  4  5  1  0
  5  6  2  0
  6  7  1  0
  6  8  1  0
  8  9  1  0
  9 10  1  0
 10 11  2  0
 10 12  1  0
 12 13  1  0
 13 14  1  0
  5 15  1  0
 15 16  1  0
 15 17  2  0
 17 18  1  0
 18 19  1  0
 18 20  1  0
 18 21  1  0
 17 22  1  0
 22 23  1  0
 23 24  1  0
 23 25  1  0
 23 26  1  0
 26 27  2  0
 27 28  1  0
 27 29  1  0
 29 30  1  0
 29 31  2  0
 31 32  1  0
 31 33  1  0
 33 34  1  0
 33 35  2  0
 35 36  1  0
 36 37  1  0
 36 38  1  0
 36 39  1  0
 39 40  2  0
 39 41  1  0
 41 42  1  0
 42 43  1  0
 42 44  1  0
 42 45  1  0
 45 46  1  0
 45 47  1  0
 45 48  1  0
 48 49  1  0
 49 50  1  0
 49 51  1  0
 49 52  1  0
 52 53  1  0
 52 54  1  0
 22  4  1  0
 35 26  1  0
 52 41  1  0
 13  8  2  0
M  CHG  3   9  -1  12  -1  14  -1
M  END
>  <UniqueID>  (62) 
57

>  <SMILES>  (62) 
C=c1/c(=C\c2[n-]c(=O)[n-]c2[O-])cc(C)n1Cc1ccccc1CC(=O)N1CCOCC1

>  <Energy>  (62) 
131.43279194889004

>  <Genealogy>  (62) 
C=c1c(=Cc2[n-]c(=O)[n-]c2[O-])cc(C)n1Cc1ccccc1CC(=O)N1CCOCC1 (protonated)
C=c1/c(=C\c2[n-]c(=O)[n-]c2[O-])cc(C)n1Cc1ccccc1CC(=O)N1CCOCC1 (cis-trans isomerization)
C=c1/c(=C\c2[n-]c(=O)[n-]c2[O-])cc(C)n1Cc1ccccc1CC(=O)N1CCOCC1 (3D coordinates assigned)
C=c1/c(=C\c2[n-]c(=O)[n-]c2[O-])cc(C)n1Cc1ccccc1CC(=O)N1CCOCC1 (nonaromatic ring conformer: 131.43279194889004 kcal/mol)

>  <smiles>  (62) 
C=c1c(=Cc2[nH]c(=O)[nH]c2O)cc(C)n1Cc1ccccc1CC(=O)N1CCOCC1

>  <score_type>  (62) 
oracle

>  <origin>  (62) 
adg

>  <m_score__min__energy>  (62) 
-16.399999999999999

>  <m_primary>  (62) 
energy

$$$$
62:0
     RDKit          3D

 55 58  0  0  0  0  0  0  0  0999 V2000
   56.0170   31.9090   51.9990 C   0  0  0  0  0  0  0  0  0  0  0  0
   55.4760   30.7420   52.3870 C   0  0  0  0  0  0  0  0  0  0  0  0
   54.1260   30.4840   52.6750 C   0  0  0  0  0  0  0  0  0  0  0  0
   53.0150   31.2140   52.4530 C   0  0  0  0  0  0  0  0  0  0  0  0
   52.2800   31.3160   51.1780 C   0  0  0  0  0  0  0  0  0  0  0  0
   52.2690   30.3680   50.2180 N   0  0  0  0  0  0  0  0  0  0  0  0
   51.3430   30.8240   49.3430 C   0  0  0  0  0  0  0  0  0  0  0  0
   51.0570   30.2090   48.2800 O   0  0  0  0  0  0  0  0  0  0  0  0
   50.7470   31.9790   49.6980 N   0  0  0  0  0  0  0  0  0  0  0  0
   51.3410   32.2670   50.8670 C   0  0  0  0  0  0  0  0  0  0  0  0
   51.0190   33.3750   51.6450 O   0  0  0  0  0  0  0  0  0  0  0  0
   54.0940   29.2330   53.2780 C   0  0  0  0  0  0  0  0  0  0  0  0
   55.3850   28.7490   53.2670 C   0  0  0  0  0  0  0  0  0  0  0  0
   55.8190   27.4440   53.8640 C   0  0  0  0  0  0  0  0  0  0  0  0
   56.2190   29.6580   52.7240 N   0  0  0  0  0  0  0  0  0  0  0  0
   57.6480   29.5330   52.6530 C   0  0  0  0  0  0  0  0  0  0  0  0
   58.3810   29.2540   53.8100 C   0  0  0  0  0  0  0  0  0  0  0  0
   59.7650   29.0980   53.7390 C   0  0  0  0  0  0  0  0  0  0  0  0
   60.4220   29.2200   52.5100 C   0  0  0  0  0  0  0  0  0  0  0  0
   59.7010   29.5070   51.3360 C   0  0  0  0  0  0  0  0  0  0  0  0
   60.4160   29.5870   50.0350 C   0  0  0  0  0  0  0  0  0  0  0  0
   60.6940   28.5110   49.4310 O   0  0  0  0  0  0  0  0  0  0  0  0
   60.7690   30.8550   49.4250 N   0  0  2  0  0  0  0  0  0  0  0  0
   59.9910   31.9300   50.0840 C   0  0  0  0  0  0  0  0  0  0  0  0
   60.1970   33.2660   49.3720 C   0  0  0  0  0  0  0  0  0  0  0  0
   59.6660   33.1640   48.0140 N   0  0  0  0  0  0  0  0  0  0  0  0
   58.8880   34.2660   47.4230 C   0  0  0  0  0  0  0  0  0  0  0  0
   59.6680   34.9150   46.2840 C   0  0  0  0  0  0  0  0  0  0  0  0
   59.8210   31.9120   47.3240 C   0  0  0  0  0  0  0  0  0  0  0  0
   59.2720   31.7320   46.2010 O   0  0  0  0  0  0  0  0  0  0  0  0
   60.6290   30.7890   47.9350 C   0  0  0  0  0  0  0  0  0  0  0  0
   58.3030   29.6600   51.4200 C   0  0  0  0  0  0  0  0  0  0  0  0
   57.0975   31.9765   51.8041 H   0  0  0  0  0  0  0  0  0  0  0  0
   55.3794   32.7969   51.8762 H   0  0  0  0  0  0  0  0  0  0  0  0
   52.6186   31.7883   53.3033 H   0  0  0  0  0  0  0  0  0  0  0  0
   53.2077   28.7253   53.6864 H   0  0  0  0  0  0  0  0  0  0  0  0
   55.7948   27.5167   54.9613 H   0  0  0  0  0  0  0  0  0  0  0  0
   55.1381   26.6455   53.5343 H   0  0  0  0  0  0  0  0  0  0  0  0
   56.8426   27.2123   53.5343 H   0  0  0  0  0  0  0  0  0  0  0  0
   57.8659   29.1574   54.7771 H   0  0  0  0  0  0  0  0  0  0  0  0
   60.3407   28.8788   54.6504 H   0  0  0  0  0  0  0  0  0  0  0  0
   61.5132   29.0903   52.4608 H   0  0  0  0  0  0  0  0  0  0  0  0
   61.7780   31.0510   49.6140 H   0  0  0  0  0  0  0  0  0  0  0  0
   58.9227   31.6691   50.0584 H   0  0  0  0  0  0  0  0  0  0  0  0
   60.3374   32.0283   51.1234 H   0  0  0  0  0  0  0  0  0  0  0  0
   59.6670   34.0609   49.9173 H   0  0  0  0  0  0  0  0  0  0  0  0
   61.2693   33.5085   49.3363 H   0  0  0  0  0  0  0  0  0  0  0  0
   57.9382   33.8711   47.0332 H   0  0  0  0  0  0  0  0  0  0  0  0
   58.6928   35.0215   48.1983 H   0  0  0  0  0  0  0  0  0  0  0  0
   60.4507   35.5663   46.7001 H   0  0  0  0  0  0  0  0  0  0  0  0
   60.1323   34.1329   45.6653 H   0  0  0  0  0  0  0  0  0  0  0  0
   58.9834   35.5138   45.6653 H   0  0  0  0  0  0  0  0  0  0  0  0
   60.1405   29.8373   47.6789 H   0  0  0  0  0  0  0  0  0  0  0  0
   61.6453   30.8793   47.5240 H   0  0  0  0  0  0  0  0  0  0  0  0
   57.7218   29.8805   50.5125 H   0  0  0  0  0  0  0  0  0  0  0  0
  1  2  2  0
  2  3  1  0
  3  4  2  3
  4  5  1  0
  5  6  1  0
  6  7  1  0
  7  8  2  0
  7  9  1  0
  9 10  1  0
 10 11  1  0
  3 12  1  0
 12 13  2  0
 13 14  1  0
 13 15  1  0
 15 16  1  0
 16 17  2  0
 17 18  1  0
 18 19  2  0
 19 20  1  0
 20 21  1  0
 21 22  2  0
 21 23  1  0
 23 24  1  0
 24 25  1  0
 25 26  1  0
 26 27  1  0
 27 28  1  0
 26 29  1  0
 29 30  2  0
 29 31  1  0
 20 32  2  0
 15  2  1  0
 32 16  1  0
 10  5  2  0
 31 23  1  0
  1 33  1  0
  1 34  1  0
  4 35  1  0
 12 36  1  0
 14 37  1  0
 14 38  1  0
 14 39  1  0
 17 40  1  0
 18 41  1  0
 19 42  1  0
 23 43  1  6
 24 44  1  0
 24 45  1  0
 25 46  1  0
 25 47  1  0
 27 48  1  0
 27 49  1  0
 28 50  1  0
 28 51  1  0
 28 52  1  0
 31 53  1  0
 31 54  1  0
 32 55  1  0
M  CHG  4   6  -1   9  -1  11  -1  23   1
M  END
>  <UniqueID>  (63) 
58

>  <SMILES>  (63) 
C=c1c(=Cc2[n-]c(=O)[n-]c2[O-])cc(C)n1-c1cccc(C(=O)[N@@H+]2CCN(CC)C(=O)C2)c1

>  <Energy>  (63) 
142.8664530304229

>  <Genealogy>  (63) 
C=c1c(=Cc2[n-]c(=O)[n-]c2[O-])cc(C)n1-c1cccc(C(=O)[NH+]2CCN(CC)C(=O)C2)c1 (protonated)
C=c1c(=Cc2[n-]c(=O)[n-]c2[O-])cc(C)n1-c1cccc(C(=O)[N@@H+]2CCN(CC)C(=O)C2)c1 (chirality)
C=c1c(=Cc2[n-]c(=O)[n-]c2[O-])cc(C)n1-c1cccc(C(=O)[N@@H+]2CCN(CC)C(=O)C2)c1 (3D coordinates assigned)
C=c1c(=Cc2[n-]c(=O)[n-]c2[O-])cc(C)n1-c1cccc(C(=O)[N@@H+]2CCN(CC)C(=O)C2)c1 (nonaromatic ring conformer: 142.8664530304229 kcal/mol)

>  <smiles>  (63) 
C=c1c(=Cc2[nH]c(=O)[nH]c2O)cc(C)n1-c1cccc(C(=O)N2CCN(CC)C(=O)C2)c1

>  <score_type>  (63) 
oracle

>  <origin>  (63) 
adg

>  <m_score__min__energy>  (63) 
-15.84

>  <m_primary>  (63) 
energy

$$$$
63:0
     RDKit          3D

 46 48  0  0  0  0  0  0  0  0999 V2000
   55.0620   26.4220   46.0800 N   0  0  0  0  0  0  0  0  0  0  0  0
   56.1910   25.5820   46.3110 C   0  0  0  0  0  0  0  0  0  0  0  0
   56.0050   24.3740   46.6230 O   0  0  0  0  0  0  0  0  0  0  0  0
   57.5670   26.1190   46.1860 C   0  0  0  0  0  0  0  0  0  0  0  0
   58.6740   25.2960   46.4440 C   0  0  0  0  0  0  0  0  0  0  0  0
   59.9620   25.8130   46.3270 C   0  0  0  0  0  0  0  0  0  0  0  0
   60.1450   27.1420   45.9520 C   0  0  0  0  0  0  0  0  0  0  0  0
   59.0260   27.9510   45.6910 C   0  0  0  0  0  0  0  0  0  0  0  0
   59.2050   29.4050   45.2930 C   0  0  0  0  0  0  0  0  0  0  0  0
   57.9400   29.9210   44.5720 C   0  0  0  0  0  0  0  0  0  0  0  0
   58.0120   31.4360   44.3480 C   0  0  0  0  0  0  0  0  0  0  0  0
   58.3050   32.1550   45.5970 N   0  0  0  0  0  0  0  0  0  0  0  0
   58.2080   33.5910   45.6250 C   0  0  0  0  0  0  0  0  0  0  0  0
   58.0040   34.2300   44.5560 O   0  0  0  0  0  0  0  0  0  0  0  0
   58.3380   34.2800   46.8380 O   0  0  0  0  0  0  0  0  0  0  0  0
   59.5770   34.8000   47.3180 C   0  0  0  0  0  0  0  0  0  0  0  0
   60.1770   33.8680   48.3410 C   0  0  0  0  0  0  0  0  0  0  0  0
   59.3980   33.5110   49.4560 C   0  0  0  0  0  0  0  0  0  0  0  0
   59.9020   32.6450   50.4290 C   0  0  0  0  0  0  0  0  0  0  0  0
   61.1900   32.1230   50.3000 C   0  0  0  0  0  0  0  0  0  0  0  0
   61.9770   32.4680   49.2000 C   0  0  0  0  0  0  0  0  0  0  0  0
   61.4840   33.3360   48.2170 C   0  0  0  0  0  0  0  0  0  0  0  0
   62.6420   33.7520   46.7440 Br  0  0  0  0  0  0  0  0  0  0  0  0
   58.6290   31.4050   46.8190 C   0  0  0  0  0  0  0  0  0  0  0  0
   59.6300   30.2880   46.5020 C   0  0  0  0  0  0  0  0  0  0  0  0
   57.7710   27.4220   45.8190 N   0  0  0  0  0  0  0  0  0  0  0  0
   55.1680   27.4590   46.0270 H   0  0  0  0  0  0  0  0  0  0  0  0
   58.5250   24.2464   46.7376 H   0  0  0  0  0  0  0  0  0  0  0  0
   60.8332   25.1729   46.5304 H   0  0  0  0  0  0  0  0  0  0  0  0
   61.1600   27.5560   45.8607 H   0  0  0  0  0  0  0  0  0  0  0  0
   60.0364   29.4756   44.5762 H   0  0  0  0  0  0  0  0  0  0  0  0
   57.8510   29.4176   43.5980 H   0  0  0  0  0  0  0  0  0  0  0  0
   57.0650   29.7020   45.2016 H   0  0  0  0  0  0  0  0  0  0  0  0
   58.8057   31.6515   43.6175 H   0  0  0  0  0  0  0  0  0  0  0  0
   57.0337   31.7757   43.9771 H   0  0  0  0  0  0  0  0  0  0  0  0
   60.2748   34.9104   46.4748 H   0  0  0  0  0  0  0  0  0  0  0  0
   59.3955   35.7775   47.7887 H   0  0  0  0  0  0  0  0  0  0  0  0
   58.3816   33.9178   49.5629 H   0  0  0  0  0  0  0  0  0  0  0  0
   59.2835   32.3742   51.2974 H   0  0  0  0  0  0  0  0  0  0  0  0
   61.5852   31.4393   51.0657 H   0  0  0  0  0  0  0  0  0  0  0  0
   62.9921   32.0552   49.1042 H   0  0  0  0  0  0  0  0  0  0  0  0
   59.0695   32.0888   47.5595 H   0  0  0  0  0  0  0  0  0  0  0  0
   57.7079   30.9591   47.2225 H   0  0  0  0  0  0  0  0  0  0  0  0
   60.6038   30.7462   46.2744 H   0  0  0  0  0  0  0  0  0  0  0  0
   59.6763   29.6322   47.3839 H   0  0  0  0  0  0  0  0  0  0  0  0
   56.9470   28.0350   45.6320 H   0  0  0  0  0  0  0  0  0  0  0  0
  1  2  1  0
  2  3  2  0
  2  4  1  0
  4  5  2  0
  5  6  1  0
  6  7  2  0
  7  8  1  0
  8  9  1  0
  9 10  1  0
 10 11  1  0
 11 12  1  0
 12 13  1  0
 13 14  2  0
 13 15  1  0
 15 16  1  0
 16 17  1  0
 17 18  2  0
 18 19  1  0
 19 20  2  0
 20 21  1  0
 21 22  2  0
 22 23  1  0
 12 24  1  0
 24 25  1  0
  8 26  2  0
 26  4  1  0
 25  9  1  0
 22 17  1  0
  1 27  1  0
  5 28  1  0
  6 29  1  0
  7 30  1  0
  9 31  1  0
 10 32  1  0
 10 33  1  0
 11 34  1  0
 11 35  1  0
 16 36  1  0
 16 37  1  0
 18 38  1  0
 19 39  1  0
 20 40  1  0
 21 41  1  0
 24 42  1  0
 24 43  1  0
 25 44  1  0
 25 45  1  0
 26 46  1  0
M  CHG  2   1  -1  26   1
M  END
>  <UniqueID>  (64) 
59

>  <SMILES>  (64) 
[NH-]C(=O)c1cccc(C2CCN(C(=O)OCc3ccccc3Br)CC2)[nH+]1

>  <Energy>  (64) 
50.11205604018586

>  <Genealogy>  (64) 
[NH-]C(=O)c1cccc(C2CCN(C(=O)OCc3ccccc3Br)CC2)[nH+]1 (protonated)
[NH-]C(=O)c1cccc(C2CCN(C(=O)OCc3ccccc3Br)CC2)[nH+]1 (3D coordinates assigned)
[NH-]C(=O)c1cccc(C2CCN(C(=O)OCc3ccccc3Br)CC2)[nH+]1 (nonaromatic ring conformer: 50.11205604018586 kcal/mol)

>  <smiles>  (64) 
NC(=O)c1cccc(C2CCN(C(=O)OCc3ccccc3Br)CC2)n1

>  <score_type>  (64) 
oracle

>  <origin>  (64) 
adg

>  <m_score__min__energy>  (64) 
-10.380000000000001

>  <m_primary>  (64) 
energy

$$$$
64:0
     RDKit          3D

 51 54  0  0  0  0  0  0  0  0999 V2000
   54.2050   26.7170   46.8110 H   0  0  0  0  0  0  0  0  0  0  0  0
   54.8010   26.3630   46.0730 O   0  0  0  0  0  0  0  0  0  0  0  0
   55.8170   25.4470   46.3330 C   0  0  0  0  0  0  0  0  0  0  0  0
   55.6080   24.2630   46.9330 N   0  0  0  0  0  0  0  0  0  0  0  0
   56.8360   23.7030   46.9240 C   0  0  0  0  0  0  0  0  0  0  0  0
   57.0620   22.5610   47.4020 O   0  0  0  0  0  0  0  0  0  0  0  0
   57.8010   24.4570   46.3540 N   0  0  0  0  0  0  0  0  0  0  0  0
   57.1500   25.5800   46.0020 C   0  0  0  0  0  0  0  0  0  0  0  0
   57.7760   26.6760   45.2500 C   0  0  0  0  0  0  0  0  0  0  0  0
   57.9045   26.5337   44.1668 H   0  0  0  0  0  0  0  0  0  0  0  0
   58.2070   27.8430   45.7750 C   0  0  0  0  0  0  0  0  0  0  0  0
   57.7060   29.0980   45.4230 C   0  0  0  0  0  0  0  0  0  0  0  0
   56.6480   29.3740   44.3900 C   0  0  0  0  0  0  0  0  0  0  0  0
   55.7010   29.6211   44.8921 H   0  0  0  0  0  0  0  0  0  0  0  0
   56.9614   30.2205   43.7613 H   0  0  0  0  0  0  0  0  0  0  0  0
   56.5080   28.4823   43.7613 H   0  0  0  0  0  0  0  0  0  0  0  0
   58.3190   30.0250   46.2640 C   0  0  0  0  0  0  0  0  0  0  0  0
   58.0700   31.5170   46.3300 C   0  0  0  0  0  0  0  0  0  0  0  0
   57.9595   31.8955   45.3031 H   0  0  0  0  0  0  0  0  0  0  0  0
   57.1621   31.6630   46.9337 H   0  0  0  0  0  0  0  0  0  0  0  0
   59.1540   32.2770   46.9930 N   0  0  0  0  0  0  0  0  0  0  0  0
   59.7960   33.2730   46.1190 C   0  0  0  0  0  0  0  0  0  0  0  0
   59.9554   32.8390   45.1209 H   0  0  0  0  0  0  0  0  0  0  0  0
   59.1502   34.1590   46.0296 H   0  0  0  0  0  0  0  0  0  0  0  0
   61.1450   33.6760   46.7250 C   0  0  0  0  0  0  0  0  0  0  0  0
   61.9088   32.9453   46.4206 H   0  0  0  0  0  0  0  0  0  0  0  0
   61.4065   34.6807   46.3614 H   0  0  0  0  0  0  0  0  0  0  0  0
   61.0730   33.7130   48.1920 N   0  0  0  0  0  0  0  0  0  0  0  0
   62.2820   33.6750   48.9760 C   0  0  0  0  0  0  0  0  0  0  0  0
   63.4550   33.1060   48.4470 C   0  0  0  0  0  0  0  0  0  0  0  0
   63.4469   32.6793   47.4332 H   0  0  0  0  0  0  0  0  0  0  0  0
   64.6310   33.0800   49.2030 C   0  0  0  0  0  0  0  0  0  0  0  0
   65.5431   32.6292   48.7848 H   0  0  0  0  0  0  0  0  0  0  0  0
   64.6490   33.6260   50.4890 C   0  0  0  0  0  0  0  0  0  0  0  0
   65.7920   33.5990   51.2200 F   0  0  0  0  0  0  0  0  0  0  0  0
   63.4920   34.2010   51.0200 C   0  0  0  0  0  0  0  0  0  0  0  0
   63.5077   34.6317   52.0320 H   0  0  0  0  0  0  0  0  0  0  0  0
   62.3150   34.2300   50.2680 C   0  0  0  0  0  0  0  0  0  0  0  0
   61.4086   34.6897   50.6888 H   0  0  0  0  0  0  0  0  0  0  0  0
   59.7640   33.8820   48.8330 C   0  0  0  0  0  0  0  0  0  0  0  0
   59.8756   33.7509   49.9194 H   0  0  0  0  0  0  0  0  0  0  0  0
   59.3884   34.8902   48.6038 H   0  0  0  0  0  0  0  0  0  0  0  0
   58.7520   32.8470   48.3010 C   0  0  0  0  0  0  0  0  0  0  0  0
   58.6683   32.0286   49.0312 H   0  0  0  0  0  0  0  0  0  0  0  0
   57.7912   33.3633   48.1583 H   0  0  0  0  0  0  0  0  0  0  0  0
   59.2150   29.4030   47.0510 N   0  0  0  0  0  0  0  0  0  0  0  0
   59.8540   29.8670   47.7360 H   0  0  0  0  0  0  0  0  0  0  0  0
   59.1790   28.0870   46.7600 C   0  0  0  0  0  0  0  0  0  0  0  0
   60.0490   27.2260   47.3000 C   0  0  0  0  0  0  0  0  0  0  0  0
   59.9960   26.1575   47.0443 H   0  0  0  0  0  0  0  0  0  0  0  0
   60.8173   27.5866   47.9997 H   0  0  0  0  0  0  0  0  0  0  0  0
  1  2  1  0
  2  3  1  0
  3  4  1  0
  4  5  1  0
  5  6  2  0
  5  7  1  0
  7  8  1  0
  8  9  1  0
  9 10  1  0
  9 11  2  0
 11 12  1  0
 12 13  1  0
 13 14  1  0
 13 15  1  0
 13 16  1  0
 12 17  2  0
 17 18  1  0
 18 19  1  0
 18 20  1  0
 18 21  1  0
 21 22  1  0
 22 23  1  0
 22 24  1  0
 22 25  1  0
 25 26  1  0
 25 27  1  0
 25 28  1  0
 28 29  1  0
 29 30  2  0
 30 31  1  0
 30 32  1  0
 32 33  1  0
 32 34  2  0
 34 35  1  0
 34 36  1  0
 36 37  1  0
 36 38  2  0
 38 39  1  0
 28 40  1  0
 40 41  1  0
 40 42  1  0
 40 43  1  0
 43 44  1  0
 43 45  1  0
 17 46  1  0
 46 47  1  0
 46 48  1  0
 48 49  2  0
 49 50  1  0
 49 51  1  0
  8  3  2  0
 48 11  1  0
 43 21  1  0
 38 29  1  0
M  CHG  2   4  -1   7  -1
M  END
>  <UniqueID>  (65) 
60

>  <SMILES>  (65) 
C=c1[nH]c(CN2CCN(c3ccc(F)cc3)CC2)c(C)/c1=C/c1[n-]c(=O)[n-]c1O

>  <Energy>  (65) 
134.3897657789084

>  <Genealogy>  (65) 
C=c1[nH]c(CN2CCN(c3ccc(F)cc3)CC2)c(C)c1=Cc1[n-]c(=O)[n-]c1O (protonated)
C=c1[nH]c(CN2CCN(c3ccc(F)cc3)CC2)c(C)/c1=C/c1[n-]c(=O)[n-]c1O (cis-trans isomerization)
C=c1[nH]c(CN2CCN(c3ccc(F)cc3)CC2)c(C)/c1=C/c1[n-]c(=O)[n-]c1O (3D coordinates assigned)
C=c1[nH]c(CN2CCN(c3ccc(F)cc3)CC2)c(C)/c1=C/c1[n-]c(=O)[n-]c1O (nonaromatic ring conformer: 134.3897657789084 kcal/mol)

>  <smiles>  (65) 
C=c1[nH]c(CN2CCN(c3ccc(F)cc3)CC2)c(C)c1=Cc1[nH]c(=O)[nH]c1O

>  <score_type>  (65) 
oracle

>  <origin>  (65) 
adg

>  <m_score__min__energy>  (65) 
-12.92

>  <m_primary>  (65) 
energy

$$$$
65:0
     RDKit          3D

 54 57  0  0  0  0  0  0  0  0999 V2000
   58.0710   32.7010   43.2720 C   0  0  0  0  0  0  0  0  0  0  0  0
   58.3870   33.3250   44.6000 C   0  0  0  0  0  0  0  0  0  0  0  0
   59.2200   34.4520   44.6670 C   0  0  0  0  0  0  0  0  0  0  0  0
   59.5680   34.9970   45.9030 C   0  0  0  0  0  0  0  0  0  0  0  0
   59.0870   34.4220   47.0820 C   0  0  0  0  0  0  0  0  0  0  0  0
   58.2480   33.3020   47.0350 C   0  0  0  0  0  0  0  0  0  0  0  0
   57.8000   32.7300   48.2720 N   0  0  0  0  0  0  0  0  0  0  0  0
   58.5890   32.0070   49.2280 C   0  0  0  0  0  0  0  0  0  0  0  0
   59.4010   31.1230   48.8480 O   0  0  0  0  0  0  0  0  0  0  0  0
   58.4080   32.2510   50.6710 C   0  0  0  0  0  0  0  0  0  0  0  0
   57.8860   31.2590   51.5170 C   0  0  0  0  0  0  0  0  0  0  0  0
   57.7560   31.5050   52.8940 C   0  0  0  0  0  0  0  0  0  0  0  0
   57.2710   30.4780   53.7880 N   0  0  0  0  0  0  0  0  0  0  0  0
   56.6800   30.7990   55.0890 C   0  0  0  0  0  0  0  0  0  0  0  0
   55.2380   30.2750   55.1420 C   0  0  0  0  0  0  0  0  0  0  0  0
   55.0590   28.9650   54.4720 N   0  0  0  0  0  0  0  0  0  0  0  0
   53.9520   29.0280   53.1130 S   0  0  0  0  0  0  0  0  0  0  0  0
   53.4520   27.6360   52.8440 O   0  0  0  0  0  0  0  0  0  0  0  0
   54.6840   29.4920   51.8840 O   0  0  0  0  0  0  0  0  0  0  0  0
   52.5550   30.0770   53.3820 C   0  0  0  0  0  0  0  0  0  0  0  0
   51.7920   29.9530   54.5550 C   0  0  0  0  0  0  0  0  0  0  0  0
   50.6610   30.7520   54.7490 C   0  0  0  0  0  0  0  0  0  0  0  0
   50.2860   31.6850   53.7790 C   0  0  0  0  0  0  0  0  0  0  0  0
   51.0280   31.8000   52.6010 C   0  0  0  0  0  0  0  0  0  0  0  0
   50.6510   32.7220   51.6320 O   0  0  0  0  0  0  0  0  0  0  0  0
   52.1470   30.9860   52.3940 C   0  0  0  0  0  0  0  0  0  0  0  0
   56.3060   28.2270   54.1840 C   0  0  0  0  0  0  0  0  0  0  0  0
   57.3240   29.0660   53.3940 C   0  0  0  0  0  0  0  0  0  0  0  0
   58.1590   32.7540   53.3950 C   0  0  0  0  0  0  0  0  0  0  0  0
   58.6660   33.7190   52.5240 C   0  0  0  0  0  0  0  0  0  0  0  0
   58.7810   33.4490   51.1990 N   0  0  0  0  0  0  0  0  0  0  0  0
   57.9180   32.7400   45.7890 C   0  0  0  0  0  0  0  0  0  0  0  0
   57.5792   31.7300   43.4309 H   0  0  0  0  0  0  0  0  0  0  0  0
   57.3998   33.3636   42.7059 H   0  0  0  0  0  0  0  0  0  0  0  0
   59.0023   32.5521   42.7059 H   0  0  0  0  0  0  0  0  0  0  0  0
   59.6003   34.9078   43.7409 H   0  0  0  0  0  0  0  0  0  0  0  0
   60.2218   35.8804   45.9495 H   0  0  0  0  0  0  0  0  0  0  0  0
   59.3695   34.8523   48.0542 H   0  0  0  0  0  0  0  0  0  0  0  0
   57.5786   30.2882   51.1009 H   0  0  0  0  0  0  0  0  0  0  0  0
   57.2713   30.3256   55.8867 H   0  0  0  0  0  0  0  0  0  0  0  0
   56.6781   31.8898   55.2306 H   0  0  0  0  0  0  0  0  0  0  0  0
   54.9447   30.1693   56.1969 H   0  0  0  0  0  0  0  0  0  0  0  0
   54.6103   31.0012   54.6047 H   0  0  0  0  0  0  0  0  0  0  0  0
   52.0857   29.2239   55.3245 H   0  0  0  0  0  0  0  0  0  0  0  0
   50.0651   30.6457   55.6675 H   0  0  0  0  0  0  0  0  0  0  0  0
   49.4084   32.3276   53.9425 H   0  0  0  0  0  0  0  0  0  0  0  0
   52.7099   31.0590   51.4518 H   0  0  0  0  0  0  0  0  0  0  0  0
   56.7639   27.9244   55.1373 H   0  0  0  0  0  0  0  0  0  0  0  0
   56.0414   27.3570   53.5651 H   0  0  0  0  0  0  0  0  0  0  0  0
   58.3350   28.6778   53.5870 H   0  0  0  0  0  0  0  0  0  0  0  0
   57.0774   28.9945   52.3244 H   0  0  0  0  0  0  0  0  0  0  0  0
   58.0752   32.9705   54.4702 H   0  0  0  0  0  0  0  0  0  0  0  0
   58.9733   34.7012   52.9123 H   0  0  0  0  0  0  0  0  0  0  0  0
   57.2898   31.8382   45.7445 H   0  0  0  0  0  0  0  0  0  0  0  0
  1  2  1  0
  2  3  2  0
  3  4  1  0
  4  5  2  0
  5  6  1  0
  6  7  1  0
  7  8  1  0
  8  9  2  0
  8 10  1  0
 10 11  2  0
 11 12  1  0
 12 13  1  0
 13 14  1  0
 14 15  1  0
 15 16  1  0
 16 17  1  0
 17 18  2  0
 17 19  2  0
 17 20  1  0
 20 21  2  0
 21 22  1  0
 22 23  2  0
 23 24  1  0
 24 25  1  0
 24 26  2  0
 16 27  1  0
 27 28  1  0
 12 29  2  0
 29 30  1  0
 30 31  2  0
  6 32  2  0
 32  2  1  0
 31 10  1  0
 28 13  1  0
 26 20  1  0
  1 33  1  0
  1 34  1  0
  1 35  1  0
  3 36  1  0
  4 37  1  0
  5 38  1  0
 11 39  1  0
 14 40  1  0
 14 41  1  0
 15 42  1  0
 15 43  1  0
 21 44  1  0
 22 45  1  0
 23 46  1  0
 26 47  1  0
 27 48  1  0
 27 49  1  0
 28 50  1  0
 28 51  1  0
 29 52  1  0
 30 53  1  0
 32 54  1  0
M  CHG  2   7  -1  25  -1
M  END
>  <UniqueID>  (66) 
61

>  <SMILES>  (66) 
Cc1cccc([N-]C(=O)c2cc(N3CCN(S(=O)(=O)c4cccc([O-])c4)CC3)ccn2)c1

>  <Energy>  (66) 
68.51180217592182

>  <Genealogy>  (66) 
Cc1cccc([N-]C(=O)c2cc(N3CCN(S(=O)(=O)c4cccc([O-])c4)CC3)ccn2)c1 (protonated)
Cc1cccc([N-]C(=O)c2cc(N3CCN(S(=O)(=O)c4cccc([O-])c4)CC3)ccn2)c1 (3D coordinates assigned)
Cc1cccc([N-]C(=O)c2cc(N3CCN(S(=O)(=O)c4cccc([O-])c4)CC3)ccn2)c1 (nonaromatic ring conformer: 68.51180217592182 kcal/mol)

>  <smiles>  (66) 
Cc1cccc(NC(=O)c2cc(N3CCN(S(=O)(=O)c4cccc(O)c4)CC3)ccn2)c1

>  <score_type>  (66) 
oracle

>  <origin>  (66) 
adg

>  <m_score__min__energy>  (66) 
-13.81

>  <m_primary>  (66) 
energy

$$$$
66:0
     RDKit          3D

 41 43  0  0  0  0  0  0  0  0999 V2000
   59.3655   36.0196   45.7878 H   0  0  0  0  0  0  0  0  0  0  0  0
   59.2930   34.9460   46.0160 C   0  0  0  0  0  0  0  0  0  0  0  0
   58.1980   34.2070   45.5590 C   0  0  0  0  0  0  0  0  0  0  0  0
   57.4107   34.6986   44.9687 H   0  0  0  0  0  0  0  0  0  0  0  0
   58.1030   32.8430   45.8520 C   0  0  0  0  0  0  0  0  0  0  0  0
   57.0360   32.1280   45.4140 F   0  0  0  0  0  0  0  0  0  0  0  0
   59.1040   32.2160   46.6000 C   0  0  0  0  0  0  0  0  0  0  0  0
   59.0247   31.1441   46.8339 H   0  0  0  0  0  0  0  0  0  0  0  0
   60.2100   32.9520   47.0530 C   0  0  0  0  0  0  0  0  0  0  0  0
   61.4640   32.1700   48.0080 S   0  0  0  0  0  0  0  0  0  0  0  0
   61.8380   33.0500   49.1690 O   0  0  0  0  0  0  0  0  0  0  0  0
   62.6840   31.9490   47.1590 O   0  0  0  0  0  0  0  0  0  0  0  0
   60.8530   30.6060   48.6060 C   0  0  0  0  0  0  0  0  0  0  0  0
   61.6949   30.0079   48.9848 H   0  0  0  0  0  0  0  0  0  0  0  0
   60.3567   30.0752   47.7802 H   0  0  0  0  0  0  0  0  0  0  0  0
   59.8670   30.8240   49.7080 C   0  0  0  0  0  0  0  0  0  0  0  0
   58.6320   30.2810   49.7310 N   0  0  0  0  0  0  0  0  0  0  0  0
   58.0880   30.7900   50.8550 C   0  0  0  0  0  0  0  0  0  0  0  0
   56.8900   30.4710   51.2480 N   0  0  0  0  0  0  0  0  0  0  0  0
   56.4800   30.2890   52.6090 C   0  0  0  0  0  0  0  0  0  0  0  0
   57.2890   30.5750   53.5290 O   0  0  0  0  0  0  0  0  0  0  0  0
   55.1960   29.5700   52.9400 C   0  0  0  0  0  0  0  0  0  0  0  0
   55.1605   28.6283   52.3726 H   0  0  0  0  0  0  0  0  0  0  0  0
   55.1820   29.3839   54.0241 H   0  0  0  0  0  0  0  0  0  0  0  0
   53.9780   30.3930   52.5940 C   0  0  0  0  0  0  0  0  0  0  0  0
   53.7970   30.8780   51.2870 C   0  0  0  0  0  0  0  0  0  0  0  0
   54.5462   30.6557   50.5129 H   0  0  0  0  0  0  0  0  0  0  0  0
   52.6710   31.6410   50.9650 C   0  0  0  0  0  0  0  0  0  0  0  0
   52.5336   32.0108   49.9382 H   0  0  0  0  0  0  0  0  0  0  0  0
   51.7190   31.9350   51.9460 C   0  0  0  0  0  0  0  0  0  0  0  0
   50.6010   32.6930   51.6250 O   0  0  0  0  0  0  0  0  0  0  0  0
   51.8960   31.4680   53.2520 C   0  0  0  0  0  0  0  0  0  0  0  0
   51.1488   31.7020   54.0246 H   0  0  0  0  0  0  0  0  0  0  0  0
   53.0210   30.7040   53.5780 C   0  0  0  0  0  0  0  0  0  0  0  0
   53.1586   30.3444   54.6084 H   0  0  0  0  0  0  0  0  0  0  0  0
   58.9190   31.6130   51.5310 N   0  0  0  0  0  0  0  0  0  0  0  0
   58.7610   32.0870   52.4440 H   0  0  0  0  0  0  0  0  0  0  0  0
   60.0450   31.6430   50.8020 C   0  0  0  0  0  0  0  0  0  0  0  0
   60.9515   32.2203   51.0365 H   0  0  0  0  0  0  0  0  0  0  0  0
   60.2960   34.3210   46.7630 C   0  0  0  0  0  0  0  0  0  0  0  0
   61.1552   34.9051   47.1243 H   0  0  0  0  0  0  0  0  0  0  0  0
  1  2  1  0
  2  3  2  0
  3  4  1  0
  3  5  1  0
  5  6  1  0
  5  7  2  0
  7  8  1  0
  7  9  1  0
  9 10  1  0
 10 11  2  0
 10 12  2  0
 10 13  1  0
 13 14  1  0
 13 15  1  0
 13 16  1  0
 16 17  1  0
 17 18  1  0
 18 19  2  0
 19 20  1  0
 20 21  2  0
 20 22  1  0
 22 23  1  0
 22 24  1  0
 22 25  1  0
 25 26  2  0
 26 27  1  0
 26 28  1  0
 28 29  1  0
 28 30  2  0
 30 31  1  0
 30 32  1  0
 32 33  1  0
 32 34  2  0
 34 35  1  0
 18 36  1  0
 36 37  1  0
 36 38  1  0
 38 39  1  0
  9 40  2  0
 40 41  1  0
 40  2  1  0
 38 16  2  0
 34 25  1  0
M  CHG  2  17  -1  31  -1
M  END
>  <UniqueID>  (67) 
62

>  <SMILES>  (67) 
O=C(Cc1ccc([O-])cc1)/N=c1/[n-]c(CS(=O)(=O)c2cccc(F)c2)c[nH]1

>  <Energy>  (67) 
76.01696725995274

>  <Genealogy>  (67) 
O=C(Cc1ccc([O-])cc1)N=c1[n-]c(CS(=O)(=O)c2cccc(F)c2)c[nH]1 (protonated)
O=C(Cc1ccc([O-])cc1)/N=c1/[n-]c(CS(=O)(=O)c2cccc(F)c2)c[nH]1 (cis-trans isomerization)
O=C(Cc1ccc([O-])cc1)/N=c1/[n-]c(CS(=O)(=O)c2cccc(F)c2)c[nH]1 (3D coordinates assigned)
O=C(Cc1ccc([O-])cc1)/N=c1/[n-]c(CS(=O)(=O)c2cccc(F)c2)c[nH]1 (optimized conformer: 76.01696725995274 kcal/mol)

>  <smiles>  (67) 
O=C(Cc1ccc(O)cc1)N=c1[nH]cc(CS(=O)(=O)c2cccc(F)c2)[nH]1

>  <score_type>  (67) 
oracle

>  <origin>  (67) 
adg

>  <m_score__min__energy>  (67) 
-13.300000000000001

>  <m_primary>  (67) 
energy

$$$$
67:0
     RDKit          3D

 60 63  0  0  0  0  0  0  0  0999 V2000
   64.2800   29.9390   51.4750 C   0  0  0  0  0  0  0  0  0  0  0  0
   64.4300   31.0630   50.7840 C   0  0  0  0  0  0  0  0  0  0  0  0
   65.4940   31.9430   50.9240 O   0  0  0  0  0  0  0  0  0  0  0  0
   65.2970   32.9920   50.0230 C   0  0  0  0  0  0  0  0  0  0  0  0
   64.1650   32.8390   49.3330 C   0  0  0  0  0  0  0  0  0  0  0  0
   63.6760   33.7370   48.2320 C   0  0  0  0  0  0  0  0  0  0  0  0
   62.1600   33.8140   48.2020 C   0  0  0  0  0  0  0  0  0  0  0  0
   61.6140   34.5870   48.9780 O   0  0  0  0  0  0  0  0  0  0  0  0
   61.3130   33.0020   47.3270 N   0  0  2  0  0  0  0  0  0  0  0  0
   61.0450   33.6940   46.0460 C   0  0  0  0  0  0  0  0  0  0  0  0
   59.9900   34.8050   46.1890 C   0  0  0  0  0  0  0  0  0  0  0  0
   58.6670   34.2690   46.7670 C   0  0  1  0  0  0  0  0  0  0  0  0
   57.8640   33.4320   45.7930 C   0  0  0  0  0  0  0  0  0  0  0  0
   56.7010   33.8070   45.4810 O   0  0  0  0  0  0  0  0  0  0  0  0
   58.4400   32.2810   45.1610 N   0  0  0  0  0  0  0  0  0  0  0  0
   57.9660   30.9280   45.2250 C   0  0  0  0  0  0  0  0  0  0  0  0
   56.9400   30.4510   44.3900 C   0  0  0  0  0  0  0  0  0  0  0  0
   56.4890   29.1340   44.5140 C   0  0  0  0  0  0  0  0  0  0  0  0
   57.0260   28.2880   45.4950 C   0  0  0  0  0  0  0  0  0  0  0  0
   56.5360   26.9020   45.6300 C   0  0  0  0  0  0  0  0  0  0  0  0
   55.3520   26.7090   46.0170 O   0  0  0  0  0  0  0  0  0  0  0  0
   57.3910   25.7750   45.3510 N   0  0  0  0  0  0  0  0  0  0  0  0
   56.8310   24.5150   44.8460 C   0  0  0  0  0  0  0  0  0  0  0  0
   57.4070   23.3020   45.6150 C   0  0  0  0  0  0  0  0  0  0  0  0
   58.5260   23.6110   46.4300 O   0  0  0  0  0  0  0  0  0  0  0  0
   59.4270   24.4460   45.7350 C   0  0  0  0  0  0  0  0  0  0  0  0
   58.8320   25.8520   45.6290 C   0  0  0  0  0  0  0  0  0  0  0  0
   58.0440   28.7670   46.3320 C   0  0  0  0  0  0  0  0  0  0  0  0
   58.5030   30.0800   46.2010 C   0  0  0  0  0  0  0  0  0  0  0  0
   58.9410   33.5050   48.0740 C   0  0  0  0  0  0  0  0  0  0  0  0
   60.0630   32.4560   47.9160 C   0  0  0  0  0  0  0  0  0  0  0  0
   63.5510   31.5930   49.7660 C   0  0  0  0  0  0  0  0  0  0  0  0
   62.4820   31.0820   49.3370 O   0  0  0  0  0  0  0  0  0  0  0  0
   63.4032   29.2984   51.2995 H   0  0  0  0  0  0  0  0  0  0  0  0
   65.0326   29.6485   52.2229 H   0  0  0  0  0  0  0  0  0  0  0  0
   65.9884   33.8383   49.8978 H   0  0  0  0  0  0  0  0  0  0  0  0
   64.0812   34.7474   48.3896 H   0  0  0  0  0  0  0  0  0  0  0  0
   64.0173   33.3207   47.2728 H   0  0  0  0  0  0  0  0  0  0  0  0
   61.8950   32.1630   47.0890 H   0  0  0  0  0  0  0  0  0  0  0  0
   61.9822   34.1414   45.6833 H   0  0  0  0  0  0  0  0  0  0  0  0
   60.6535   32.9489   45.3378 H   0  0  0  0  0  0  0  0  0  0  0  0
   60.3819   35.5834   46.8602 H   0  0  0  0  0  0  0  0  0  0  0  0
   59.7849   35.2116   45.1877 H   0  0  0  0  0  0  0  0  0  0  0  0
   58.0344   35.1439   46.9777 H   0  0  0  0  0  0  0  0  0  0  0  0
   56.4913   31.1160   43.6374 H   0  0  0  0  0  0  0  0  0  0  0  0
   55.7073   28.7584   43.8373 H   0  0  0  0  0  0  0  0  0  0  0  0
   55.7381   24.5326   44.9693 H   0  0  0  0  0  0  0  0  0  0  0  0
   57.0985   24.4145   43.7838 H   0  0  0  0  0  0  0  0  0  0  0  0
   56.6140   22.8924   46.2580 H   0  0  0  0  0  0  0  0  0  0  0  0
   57.7546   22.5830   44.8586 H   0  0  0  0  0  0  0  0  0  0  0  0
   60.3817   24.4908   46.2796 H   0  0  0  0  0  0  0  0  0  0  0  0
   59.6019   24.0422   44.7269 H   0  0  0  0  0  0  0  0  0  0  0  0
   58.9908   26.3859   46.5775 H   0  0  0  0  0  0  0  0  0  0  0  0
   59.3273   26.3897   44.8071 H   0  0  0  0  0  0  0  0  0  0  0  0
   58.4827   28.1066   47.0945 H   0  0  0  0  0  0  0  0  0  0  0  0
   59.2931   30.4507   46.8705 H   0  0  0  0  0  0  0  0  0  0  0  0
   59.2379   34.2263   48.8497 H   0  0  0  0  0  0  0  0  0  0  0  0
   58.0194   32.9725   48.3518 H   0  0  0  0  0  0  0  0  0  0  0  0
   60.2975   32.0461   48.9095 H   0  0  0  0  0  0  0  0  0  0  0  0
   59.6896   31.6882   47.2224 H   0  0  0  0  0  0  0  0  0  0  0  0
  1  2  2  0
  2  3  1  0
  3  4  1  0
  4  5  2  0
  5  6  1  0
  6  7  1  0
  7  8  2  0
  7  9  1  0
  9 10  1  0
 10 11  1  0
 11 12  1  0
 12 13  1  0
 13 14  2  0
 13 15  1  0
 15 16  1  0
 16 17  2  0
 17 18  1  0
 18 19  2  0
 19 20  1  0
 20 21  2  0
 20 22  1  0
 22 23  1  0
 23 24  1  0
 24 25  1  0
 25 26  1  0
 26 27  1  0
 19 28  1  0
 28 29  2  0
 12 30  1  0
 30 31  1  0
  5 32  1  0
 32 33  2  0
 32  2  1  0
 31  9  1  0
 29 16  1  0
 27 22  1  0
  1 34  1  0
  1 35  1  0
  4 36  1  0
  6 37  1  0
  6 38  1  0
  9 39  1  6
 10 40  1  0
 10 41  1  0
 11 42  1  0
 11 43  1  0
 12 44  1  1
 17 45  1  0
 18 46  1  0
 23 47  1  0
 23 48  1  0
 24 49  1  0
 24 50  1  0
 26 51  1  0
 26 52  1  0
 27 53  1  0
 27 54  1  0
 28 55  1  0
 29 56  1  0
 30 57  1  0
 30 58  1  0
 31 59  1  0
 31 60  1  0
M  CHG  2   9   1  15  -1
M  END
>  <UniqueID>  (68) 
63

>  <SMILES>  (68) 
C=C1OC=C(CC(=O)[NH+]2CCC(C(=O)[N-]c3ccc(C(=O)N4CCOCC4)cc3)CC2)C1=O

>  <Energy>  (68) 
112.187524718889

>  <Genealogy>  (68) 
C=C1OC=C(CC(=O)[NH+]2CCC(C(=O)[N-]c3ccc(C(=O)N4CCOCC4)cc3)CC2)C1=O (protonated)
C=C1OC=C(CC(=O)[NH+]2CCC(C(=O)[N-]c3ccc(C(=O)N4CCOCC4)cc3)CC2)C1=O (3D coordinates assigned)
C=C1OC=C(CC(=O)[NH+]2CCC(C(=O)[N-]c3ccc(C(=O)N4CCOCC4)cc3)CC2)C1=O (nonaromatic ring conformer: 112.187524718889 kcal/mol)

>  <smiles>  (68) 
C=C1OC=C(CC(=O)N2CCC(C(=O)Nc3ccc(C(=O)N4CCOCC4)cc3)CC2)C1=O

>  <score_type>  (68) 
oracle

>  <origin>  (68) 
adg

>  <m_score__min__energy>  (68) 
-9.1699999999999999

>  <m_primary>  (68) 
energy

$$$$
68:0
     RDKit          3D

 35 36  0  0  0  0  0  0  0  0999 V2000
   56.3030   29.7130   44.1940 C   0  0  0  0  0  0  0  0  0  0  0  0
   57.4030   29.6470   44.9740 C   0  0  0  0  0  0  0  0  0  0  0  0
   58.0040   30.8610   45.4060 C   0  0  0  0  0  0  0  0  0  0  0  0
   57.6090   32.1100   44.8090 N   0  0  0  0  0  0  0  0  0  0  0  0
   57.5790   33.6530   45.6000 S   0  0  0  0  0  0  0  0  0  0  0  0
   59.2080   34.3610   45.5410 C   0  0  0  0  0  0  0  0  0  0  0  0
   57.1690   33.4840   47.0360 O   0  0  0  0  0  0  0  0  0  0  0  0
   56.6190   34.5710   44.8960 O   0  0  0  0  0  0  0  0  0  0  0  0
   58.9440   30.8390   46.4490 C   0  0  0  0  0  0  0  0  0  0  0  0
   59.2960   29.6400   47.0720 C   0  0  0  0  0  0  0  0  0  0  0  0
   60.2380   29.6480   48.2470 C   0  0  0  0  0  0  0  0  0  0  0  0
   60.3410   28.2570   48.8640 C   0  0  0  0  0  0  0  0  0  0  0  0
   58.7540   28.4380   46.6110 C   0  0  0  0  0  0  0  0  0  0  0  0
   57.8880   28.4030   45.5000 C   0  0  0  0  0  0  0  0  0  0  0  0
   57.6000   27.1750   44.9950 C   0  0  0  0  0  0  0  0  0  0  0  0
   57.1220   26.0110   45.7690 C   0  0  0  0  0  0  0  0  0  0  0  0
   57.9040   25.0140   46.2260 N   0  0  0  0  0  0  0  0  0  0  0  0
   57.0520   24.2600   46.9550 C   0  0  0  0  0  0  0  0  0  0  0  0
   57.4140   23.2090   47.5440 O   0  0  0  0  0  0  0  0  0  0  0  0
   55.7860   24.7250   47.0080 N   0  0  0  0  0  0  0  0  0  0  0  0
   55.8510   25.8400   46.2620 C   0  0  0  0  0  0  0  0  0  0  0  0
   54.7710   26.6850   46.0400 O   0  0  0  0  0  0  0  0  0  0  0  0
   55.8190   28.7884   43.8463 H   0  0  0  0  0  0  0  0  0  0  0  0
   55.8908   30.6914   43.9061 H   0  0  0  0  0  0  0  0  0  0  0  0
   59.5757   34.5208   46.5653 H   0  0  0  0  0  0  0  0  0  0  0  0
   59.8863   33.6765   45.0106 H   0  0  0  0  0  0  0  0  0  0  0  0
   59.1703   35.3239   45.0106 H   0  0  0  0  0  0  0  0  0  0  0  0
   59.4094   31.7792   46.7798 H   0  0  0  0  0  0  0  0  0  0  0  0
   61.2346   29.9678   47.9088 H   0  0  0  0  0  0  0  0  0  0  0  0
   59.8513   30.3441   49.0059 H   0  0  0  0  0  0  0  0  0  0  0  0
   60.3348   28.3410   49.9608 H   0  0  0  0  0  0  0  0  0  0  0  0
   59.4856   27.6471   48.5381 H   0  0  0  0  0  0  0  0  0  0  0  0
   61.2769   27.7797   48.5381 H   0  0  0  0  0  0  0  0  0  0  0  0
   59.0084   27.4997   47.1257 H   0  0  0  0  0  0  0  0  0  0  0  0
   57.7349   27.0349   43.9123 H   0  0  0  0  0  0  0  0  0  0  0  0
  1  2  2  0
  2  3  1  0
  3  4  1  0
  4  5  1  0
  5  6  1  0
  5  7  2  0
  5  8  2  0
  3  9  2  0
  9 10  1  0
 10 11  1  0
 11 12  1  0
 10 13  2  0
 13 14  1  0
 14 15  2  3
 15 16  1  0
 16 17  1  0
 17 18  1  0
 18 19  2  0
 18 20  1  0
 20 21  1  0
 21 22  1  0
 14  2  1  0
 21 16  2  0
  1 23  1  0
  1 24  1  0
  6 25  1  0
  6 26  1  0
  6 27  1  0
  9 28  1  0
 11 29  1  0
 11 30  1  0
 12 31  1  0
 12 32  1  0
 12 33  1  0
 13 34  1  0
 15 35  1  0
M  CHG  4   4  -1  17  -1  20  -1  22  -1
M  END
>  <UniqueID>  (69) 
64

>  <SMILES>  (69) 
C=c1c([N-]S(C)(=O)=O)cc(CC)cc1=Cc1[n-]c(=O)[n-]c1[O-]

>  <Energy>  (69) 
82.74663620518942

>  <Genealogy>  (69) 
C=c1c([N-]S(C)(=O)=O)cc(CC)cc1=Cc1[n-]c(=O)[n-]c1[O-] (protonated)
C=c1c([N-]S(C)(=O)=O)cc(CC)cc1=Cc1[n-]c(=O)[n-]c1[O-] (3D coordinates assigned)
C=c1c([N-]S(C)(=O)=O)cc(CC)cc1=Cc1[n-]c(=O)[n-]c1[O-] (optimized conformer: 82.74663620518942 kcal/mol)

>  <smiles>  (69) 
C=c1c(NS(C)(=O)=O)cc(CC)cc1=Cc1[nH]c(=O)[nH]c1O

>  <score_type>  (69) 
oracle

>  <origin>  (69) 
adg

>  <m_score__min__energy>  (69) 
-16.09

>  <m_primary>  (69) 
energy

$$$$
69:0
     RDKit          3D

 48 50  0  0  0  0  0  0  0  0999 V2000
   58.2880   25.0030   45.8460 C   0  0  0  0  0  0  0  0  0  0  0  0
   56.7890   24.9260   45.7680 C   0  0  0  0  0  0  0  0  0  0  0  0
   56.1610   23.7020   45.4900 C   0  0  0  0  0  0  0  0  0  0  0  0
   54.7700   23.6260   45.4180 C   0  0  0  0  0  0  0  0  0  0  0  0
   54.0120   24.7790   45.6210 C   0  0  0  0  0  0  0  0  0  0  0  0
   54.6310   25.9600   45.8800 N   0  0  0  0  0  0  0  0  0  0  0  0
   55.9880   26.0740   45.9490 C   0  0  0  0  0  0  0  0  0  0  0  0
   56.5520   27.2200   46.2180 N   0  0  0  0  0  0  0  0  0  0  0  0
   56.9710   28.2320   45.2880 C   0  0  0  0  0  0  0  0  0  0  0  0
   56.2970   29.2950   45.2170 O   0  0  0  0  0  0  0  0  0  0  0  0
   58.1780   28.0600   44.4050 C   0  0  0  0  0  0  0  0  0  0  0  0
   59.6210   28.9680   45.0600 S   0  0  0  0  0  0  0  0  0  0  0  0
   58.8490   30.5830   44.8560 C   0  0  0  0  0  0  0  0  0  0  0  0
   58.1690   30.8430   43.7030 N   0  0  0  0  0  0  0  0  0  0  0  0
   57.5140   32.0180   43.5050 C   0  0  0  0  0  0  0  0  0  0  0  0
   57.5120   32.9950   44.5000 C   0  0  0  0  0  0  0  0  0  0  0  0
   58.1950   32.7590   45.6920 C   0  0  0  0  0  0  0  0  0  0  0  0
   58.8900   31.5560   45.8790 C   0  0  0  0  0  0  0  0  0  0  0  0
   59.5990   31.3250   47.1550 C   0  0  0  0  0  0  0  0  0  0  0  0
   59.0170   30.6760   48.0660 O   0  0  0  0  0  0  0  0  0  0  0  0
   60.9300   31.8270   47.3760 N   0  0  0  0  0  0  0  0  0  0  0  0
   61.3800   33.0770   46.7430 C   0  0  0  0  0  0  0  0  0  0  0  0
   62.1910   33.9050   47.7440 C   0  0  0  0  0  0  0  0  0  0  0  0
   63.3600   33.1140   48.3710 C   0  0  0  0  0  0  0  0  0  0  0  0
   63.2730   31.5950   48.1460 C   0  0  0  0  0  0  0  0  0  0  0  0
   61.8340   31.0840   48.2660 C   0  0  0  0  0  0  0  0  0  0  0  0
   58.5999   25.0190   46.9007 H   0  0  0  0  0  0  0  0  0  0  0  0
   58.7266   24.1262   45.3472 H   0  0  0  0  0  0  0  0  0  0  0  0
   58.6345   25.9201   45.3472 H   0  0  0  0  0  0  0  0  0  0  0  0
   56.7681   22.7991   45.3283 H   0  0  0  0  0  0  0  0  0  0  0  0
   54.2761   22.6668   45.2034 H   0  0  0  0  0  0  0  0  0  0  0  0
   52.9141   24.7320   45.5714 H   0  0  0  0  0  0  0  0  0  0  0  0
   58.4265   26.9902   44.3437 H   0  0  0  0  0  0  0  0  0  0  0  0
   57.9384   28.4639   43.4103 H   0  0  0  0  0  0  0  0  0  0  0  0
   58.1350   30.1170   42.9510 H   0  0  0  0  0  0  0  0  0  0  0  0
   56.9845   32.1983   42.5578 H   0  0  0  0  0  0  0  0  0  0  0  0
   56.9763   33.9433   44.3456 H   0  0  0  0  0  0  0  0  0  0  0  0
   58.1886   33.5185   46.4877 H   0  0  0  0  0  0  0  0  0  0  0  0
   62.0086   32.8392   45.8722 H   0  0  0  0  0  0  0  0  0  0  0  0
   60.5023   33.6563   46.4206 H   0  0  0  0  0  0  0  0  0  0  0  0
   62.6008   34.7828   47.2228 H   0  0  0  0  0  0  0  0  0  0  0  0
   61.5123   34.1933   48.5602 H   0  0  0  0  0  0  0  0  0  0  0  0
   64.3002   33.4766   47.9299 H   0  0  0  0  0  0  0  0  0  0  0  0
   63.3130   33.2802   49.4574 H   0  0  0  0  0  0  0  0  0  0  0  0
   63.6509   31.3618   47.1396 H   0  0  0  0  0  0  0  0  0  0  0  0
   63.8776   31.0994   48.9198 H   0  0  0  0  0  0  0  0  0  0  0  0
   61.8080   30.0181   47.9953 H   0  0  0  0  0  0  0  0  0  0  0  0
   61.4983   31.2290   49.3034 H   0  0  0  0  0  0  0  0  0  0  0  0
  1  2  1  0
  2  3  2  0
  3  4  1  0
  4  5  2  0
  5  6  1  0
  6  7  1  0
  7  8  2  3
  8  9  1  0
  9 10  2  0
  9 11  1  0
 11 12  1  0
 12 13  1  0
 13 14  2  0
 14 15  1  0
 15 16  2  0
 16 17  1  0
 17 18  2  0
 18 19  1  0
 19 20  2  0
 19 21  1  0
 21 22  1  0
 22 23  1  0
 23 24  1  0
 24 25  1  0
 25 26  1  0
  7  2  1  0
 18 13  1  0
 26 21  1  0
  1 27  1  0
  1 28  1  0
  1 29  1  0
  3 30  1  0
  4 31  1  0
  5 32  1  0
 11 33  1  0
 11 34  1  0
 14 35  1  0
 15 36  1  0
 16 37  1  0
 17 38  1  0
 22 39  1  0
 22 40  1  0
 23 41  1  0
 23 42  1  0
 24 43  1  0
 24 44  1  0
 25 45  1  0
 25 46  1  0
 26 47  1  0
 26 48  1  0
M  CHG  2   6  -1  14   1
M  END
>  <UniqueID>  (70) 
65

>  <SMILES>  (70) 
Cc1ccc[n-]c1=NC(=O)CSc1[nH+]cccc1C(=O)N1CCCCC1

>  <Energy>  (70) 
57.734304420071325

>  <Genealogy>  (70) 
Cc1ccc[n-]c1=NC(=O)CSc1[nH+]cccc1C(=O)N1CCCCC1 (protonated)
Cc1ccc[n-]c1=NC(=O)CSc1[nH+]cccc1C(=O)N1CCCCC1 (3D coordinates assigned)
Cc1ccc[n-]c1=NC(=O)CSc1[nH+]cccc1C(=O)N1CCCCC1 (nonaromatic ring conformer: 57.734304420071325 kcal/mol)

>  <smiles>  (70) 
Cc1ccc[nH]c1=NC(=O)CSc1ncccc1C(=O)N1CCCCC1

>  <score_type>  (70) 
oracle

>  <origin>  (70) 
adg

>  <m_score__min__energy>  (70) 
-9.2899999999999991

>  <m_primary>  (70) 
energy

$$$$
70:0
     RDKit          3D

 78 83  0  0  0  0  0  0  0  0999 V2000
   59.0540   29.7680   44.2330 O   0  0  0  0  0  0  0  0  0  0  0  0
   58.1300   30.1450   45.0040 C   0  0  0  0  0  0  0  0  0  0  0  0
   57.1820   29.1980   45.5130 N   0  0  0  0  0  0  0  0  0  0  0  0
   57.5440   27.8640   45.9780 C   0  0  0  0  0  0  0  0  0  0  0  0
   58.5520   27.9520   47.0870 C   0  0  0  0  0  0  0  0  0  0  0  0
   59.5630   26.9840   47.2010 C   0  0  0  0  0  0  0  0  0  0  0  0
   60.4490   27.0130   48.2830 C   0  0  0  0  0  0  0  0  0  0  0  0
   60.3220   28.0040   49.2730 C   0  0  0  0  0  0  0  0  0  0  0  0
   61.1830   27.9940   50.4740 C   0  0  0  0  0  0  0  0  0  0  0  0
   61.6290   26.8800   50.8790 O   0  0  0  0  0  0  0  0  0  0  0  0
   61.5510   29.2110   51.1670 N   0  0  0  0  0  0  0  0  0  0  0  0
   61.5520   30.5150   50.4920 C   0  0  0  0  0  0  0  0  0  0  0  0
   62.9680   30.8340   50.0120 C   0  0  0  0  0  0  0  0  0  0  0  0
   64.0620   30.6500   51.1000 C   0  0  0  0  0  0  0  0  0  0  0  0
   64.3800   31.9140   51.8150 N   0  0  0  0  0  0  0  0  0  0  0  0
   63.3690   32.5970   52.5760 C   0  0  0  0  0  0  0  0  0  0  0  0
   62.6880   31.9950   53.4480 O   0  0  0  0  0  0  0  0  0  0  0  0
   63.1780   34.0610   52.3560 C   0  0  0  0  0  0  0  0  0  0  0  0
   64.5200   34.7730   52.5150 C   0  0  0  0  0  0  0  0  0  0  0  0
   65.6510   34.0600   51.8050 C   0  0  0  0  0  0  0  0  0  0  0  0
   66.8200   34.7840   51.5160 C   0  0  0  0  0  0  0  0  0  0  0  0
   67.9370   34.1430   50.9830 C   0  0  0  0  0  0  0  0  0  0  0  0
   67.9190   32.7660   50.7750 C   0  0  0  0  0  0  0  0  0  0  0  0
   66.7740   32.0240   51.0770 C   0  0  0  0  0  0  0  0  0  0  0  0
   65.6050   32.6600   51.5540 C   0  0  0  0  0  0  0  0  0  0  0  0
   63.8330   29.4570   52.0710 C   0  0  0  0  0  0  0  0  0  0  0  0
   62.3590   29.1580   52.3930 C   0  0  0  0  0  0  0  0  0  0  0  0
   59.3640   29.0160   49.1130 C   0  0  0  0  0  0  0  0  0  0  0  0
   58.4840   28.9900   48.0270 C   0  0  0  0  0  0  0  0  0  0  0  0
   57.9910   31.5730   45.3300 C   0  0  0  0  0  0  0  0  0  0  0  0
   57.0730   32.4570   44.7880 C   0  0  0  0  0  0  0  0  0  0  0  0
   57.3880   33.6900   45.3240 C   0  0  0  0  0  0  0  0  0  0  0  0
   56.7170   34.8800   45.0550 O   0  0  0  0  0  0  0  0  0  0  0  0
   58.4460   33.5970   46.1550 N   0  0  0  0  0  0  0  0  0  0  0  0
   59.0610   34.6760   46.9310 C   0  0  0  0  0  0  0  0  0  0  0  0
   59.6890   34.1420   48.2250 C   0  0  0  0  0  0  0  0  0  0  0  0
   61.1820   33.9670   48.0820 C   0  0  0  0  0  0  0  0  0  0  0  0
   62.0190   34.1120   49.2020 C   0  0  0  0  0  0  0  0  0  0  0  0
   63.3900   33.8610   49.0900 C   0  0  0  0  0  0  0  0  0  0  0  0
   63.9320   33.4550   47.8680 C   0  0  0  0  0  0  0  0  0  0  0  0
   63.1070   33.3180   46.7480 C   0  0  0  0  0  0  0  0  0  0  0  0
   61.7370   33.5750   46.8530 C   0  0  0  0  0  0  0  0  0  0  0  0
   58.8180   32.3030   46.1700 C   0  0  0  0  0  0  0  0  0  0  0  0
   56.6431   27.3519   46.3469 H   0  0  0  0  0  0  0  0  0  0  0  0
   57.9827   27.3012   45.1409 H   0  0  0  0  0  0  0  0  0  0  0  0
   59.6586   26.1994   46.4359 H   0  0  0  0  0  0  0  0  0  0  0  0
   61.2466   26.2594   48.3598 H   0  0  0  0  0  0  0  0  0  0  0  0
   60.8701   30.4829   49.6295 H   0  0  0  0  0  0  0  0  0  0  0  0
   61.2163   31.2933   51.1931 H   0  0  0  0  0  0  0  0  0  0  0  0
   63.2047   30.1696   49.1679 H   0  0  0  0  0  0  0  0  0  0  0  0
   62.9759   31.8972   49.7301 H   0  0  0  0  0  0  0  0  0  0  0  0
   64.9590   30.3664   50.5299 H   0  0  0  0  0  0  0  0  0  0  0  0
   62.7885   34.2327   51.3417 H   0  0  0  0  0  0  0  0  0  0  0  0
   62.4617   34.4546   53.0922 H   0  0  0  0  0  0  0  0  0  0  0  0
   64.4302   35.7883   52.1014 H   0  0  0  0  0  0  0  0  0  0  0  0
   64.7609   34.7890   53.5882 H   0  0  0  0  0  0  0  0  0  0  0  0
   66.8539   35.8659   51.7121 H   0  0  0  0  0  0  0  0  0  0  0  0
   68.8341   34.7255   50.7263 H   0  0  0  0  0  0  0  0  0  0  0  0
   68.8090   32.2608   50.3717 H   0  0  0  0  0  0  0  0  0  0  0  0
   66.7824   30.9323   50.9420 H   0  0  0  0  0  0  0  0  0  0  0  0
   64.2728   28.5571   51.6164 H   0  0  0  0  0  0  0  0  0  0  0  0
   64.3058   29.7391   53.0233 H   0  0  0  0  0  0  0  0  0  0  0  0
   62.2803   28.1546   52.8369 H   0  0  0  0  0  0  0  0  0  0  0  0
   61.9862   29.9124   53.1015 H   0  0  0  0  0  0  0  0  0  0  0  0
   59.3048   29.8343   49.8458 H   0  0  0  0  0  0  0  0  0  0  0  0
   57.7352   29.7872   47.9095 H   0  0  0  0  0  0  0  0  0  0  0  0
   56.2636   32.2257   44.0799 H   0  0  0  0  0  0  0  0  0  0  0  0
   55.9360   35.1850   45.6280 H   0  0  0  0  0  0  0  0  0  0  0  0
   59.8435   35.1538   46.3232 H   0  0  0  0  0  0  0  0  0  0  0  0
   58.2789   35.4020   47.1978 H   0  0  0  0  0  0  0  0  0  0  0  0
   59.4885   34.8531   49.0400 H   0  0  0  0  0  0  0  0  0  0  0  0
   59.2451   33.1600   48.4454 H   0  0  0  0  0  0  0  0  0  0  0  0
   61.5948   34.4234   50.1680 H   0  0  0  0  0  0  0  0  0  0  0  0
   64.0435   33.9835   49.9663 H   0  0  0  0  0  0  0  0  0  0  0  0
   65.0084   33.2431   47.7872 H   0  0  0  0  0  0  0  0  0  0  0  0
   63.5360   33.0079   45.7837 H   0  0  0  0  0  0  0  0  0  0  0  0
   61.0908   33.4697   45.9691 H   0  0  0  0  0  0  0  0  0  0  0  0
   59.6501   31.8887   46.7582 H   0  0  0  0  0  0  0  0  0  0  0  0
  1  2  2  0
  2  3  1  0
  3  4  1  0
  4  5  1  0
  5  6  2  0
  6  7  1  0
  7  8  2  0
  8  9  1  0
  9 10  2  0
  9 11  1  0
 11 12  1  0
 12 13  1  0
 13 14  1  0
 14 15  1  0
 15 16  1  0
 16 17  2  0
 16 18  1  0
 18 19  1  0
 19 20  1  0
 20 21  2  0
 21 22  1  0
 22 23  2  0
 23 24  1  0
 24 25  2  0
 14 26  1  0
 26 27  1  0
  8 28  1  0
 28 29  2  0
  2 30  1  0
 30 31  1  0
 31 32  2  0
 32 33  1  0
 32 34  1  0
 34 35  1  0
 35 36  1  0
 36 37  1  0
 37 38  2  0
 38 39  1  0
 39 40  2  0
 40 41  1  0
 41 42  2  0
 34 43  1  0
 29  5  1  0
 43 30  2  0
 27 11  1  0
 42 37  1  0
 25 15  1  0
 25 20  1  0
  4 44  1  0
  4 45  1  0
  6 46  1  0
  7 47  1  0
 12 48  1  0
 12 49  1  0
 13 50  1  0
 13 51  1  0
 14 52  1  0
 18 53  1  0
 18 54  1  0
 19 55  1  0
 19 56  1  0
 21 57  1  0
 22 58  1  0
 23 59  1  0
 24 60  1  0
 26 61  1  0
 26 62  1  0
 27 63  1  0
 27 64  1  0
 28 65  1  0
 29 66  1  0
 31 67  1  0
 33 68  1  0
 35 69  1  0
 35 70  1  0
 36 71  1  0
 36 72  1  0
 38 73  1  0
 39 74  1  0
 40 75  1  0
 41 76  1  0
 42 77  1  0
 43 78  1  0
M  CHG  1   3  -1
M  END
>  <UniqueID>  (71) 
66

>  <SMILES>  (71) 
O=C([N-]Cc1ccc(C(=O)N2CCC(N3C(=O)CCc4ccccc43)CC2)cc1)c1cc(O)n(CCc2ccccc2)c1

>  <Energy>  (71) 
129.58483662621236

>  <Genealogy>  (71) 
O=C([N-]Cc1ccc(C(=O)N2CCC(N3C(=O)CCc4ccccc43)CC2)cc1)c1cc(O)n(CCc2ccccc2)c1 (protonated)
O=C([N-]Cc1ccc(C(=O)N2CCC(N3C(=O)CCc4ccccc43)CC2)cc1)c1cc(O)n(CCc2ccccc2)c1 (3D coordinates assigned)
O=C([N-]Cc1ccc(C(=O)N2CCC(N3C(=O)CCc4ccccc43)CC2)cc1)c1cc(O)n(CCc2ccccc2)c1 (nonaromatic ring conformer: 129.58483662621236 kcal/mol)

>  <smiles>  (71) 
O=C(NCc1ccc(C(=O)N2CCC(N3C(=O)CCc4ccccc43)CC2)cc1)c1cc(O)n(CCc2ccccc2)c1

>  <score_type>  (71) 
oracle

>  <origin>  (71) 
adg

>  <m_score__min__energy>  (71) 
-10.9

>  <m_primary>  (71) 
energy

$$$$
71:0
     RDKit          3D

 50 52  0  0  0  0  0  0  0  0999 V2000
   59.6470   35.6210   45.6320 C   0  0  0  0  0  0  0  0  0  0  0  0
   58.9330   34.6300   46.3580 O   0  0  0  0  0  0  0  0  0  0  0  0
   58.4580   33.4270   45.8110 C   0  0  0  0  0  0  0  0  0  0  0  0
   58.0880   33.3300   44.4590 C   0  0  0  0  0  0  0  0  0  0  0  0
   57.5840   32.1360   43.9420 C   0  0  0  0  0  0  0  0  0  0  0  0
   57.4290   31.0210   44.7640 C   0  0  0  0  0  0  0  0  0  0  0  0
   56.7550   29.5350   44.0970 S   0  0  0  0  0  0  0  0  0  0  0  0
   55.6630   28.8230   45.2330 N   0  0  0  0  0  0  0  0  0  0  0  0
   57.8740   28.5750   43.7960 O   0  0  0  0  0  0  0  0  0  0  0  0
   56.0040   29.8300   42.8280 O   0  0  0  0  0  0  0  0  0  0  0  0
   57.7870   31.1020   46.1160 C   0  0  0  0  0  0  0  0  0  0  0  0
   58.3210   32.2920   46.6450 C   0  0  0  0  0  0  0  0  0  0  0  0
   58.7330   32.3280   48.0630 C   0  0  0  0  0  0  0  0  0  0  0  0
   57.9180   32.7210   48.9430 O   0  0  0  0  0  0  0  0  0  0  0  0
   60.0330   31.8630   48.4500 N   0  0  0  0  0  0  0  0  0  0  0  0
   60.8500   30.9690   47.6320 C   0  0  0  0  0  0  0  0  0  0  0  0
   60.5550   29.5300   47.9610 C   0  0  0  0  0  0  0  0  0  0  0  0
   60.8000   29.0320   49.2480 C   0  0  0  0  0  0  0  0  0  0  0  0
   60.5130   27.6990   49.5500 C   0  0  0  0  0  0  0  0  0  0  0  0
   59.9810   26.8550   48.5730 C   0  0  0  0  0  0  0  0  0  0  0  0
   59.7130   27.3410   47.2780 C   0  0  0  0  0  0  0  0  0  0  0  0
   59.1420   26.4490   46.2380 C   0  0  0  0  0  0  0  0  0  0  0  0
   59.8380   25.5080   45.7730 O   0  0  0  0  0  0  0  0  0  0  0  0
   57.8240   26.6840   45.7100 N   0  0  0  0  0  0  0  0  0  0  0  0
   56.9800   25.6630   45.1490 C   0  0  0  0  0  0  0  0  0  0  0  0
   55.8020   25.2970   45.8250 C   0  0  0  0  0  0  0  0  0  0  0  0
   54.9840   24.2780   45.3270 C   0  0  0  0  0  0  0  0  0  0  0  0
   55.3410   23.6050   44.1570 C   0  0  0  0  0  0  0  0  0  0  0  0
   56.5180   23.9470   43.4840 C   0  0  0  0  0  0  0  0  0  0  0  0
   57.3410   24.9660   43.9800 C   0  0  0  0  0  0  0  0  0  0  0  0
   60.0150   28.6810   46.9800 C   0  0  0  0  0  0  0  0  0  0  0  0
   60.1410   36.3067   46.3362 H   0  0  0  0  0  0  0  0  0  0  0  0
   60.4051   35.1367   44.9989 H   0  0  0  0  0  0  0  0  0  0  0  0
   58.9477   36.1868   44.9989 H   0  0  0  0  0  0  0  0  0  0  0  0
   58.1968   34.2048   43.8010 H   0  0  0  0  0  0  0  0  0  0  0  0
   57.3073   32.0742   42.8792 H   0  0  0  0  0  0  0  0  0  0  0  0
   55.5150   27.8340   44.9380 H   0  0  0  0  0  0  0  0  0  0  0  0
   57.6496   30.2281   46.7698 H   0  0  0  0  0  0  0  0  0  0  0  0
   60.6295   31.1492   46.5695 H   0  0  0  0  0  0  0  0  0  0  0  0
   61.9113   31.1694   47.8404 H   0  0  0  0  0  0  0  0  0  0  0  0
   61.2191   29.6922   50.0216 H   0  0  0  0  0  0  0  0  0  0  0  0
   60.7068   27.3124   50.5614 H   0  0  0  0  0  0  0  0  0  0  0  0
   59.7697   25.8032   48.8162 H   0  0  0  0  0  0  0  0  0  0  0  0
   57.4850   27.6720   45.6730 H   0  0  0  0  0  0  0  0  0  0  0  0
   55.5219   25.8167   46.7531 H   0  0  0  0  0  0  0  0  0  0  0  0
   54.0592   24.0066   45.8571 H   0  0  0  0  0  0  0  0  0  0  0  0
   54.6959   22.8052   43.7644 H   0  0  0  0  0  0  0  0  0  0  0  0
   56.7981   23.4146   42.5631 H   0  0  0  0  0  0  0  0  0  0  0  0
   58.2726   25.2227   43.4545 H   0  0  0  0  0  0  0  0  0  0  0  0
   59.8267   29.0692   45.9682 H   0  0  0  0  0  0  0  0  0  0  0  0
  1  2  1  0
  2  3  1  0
  3  4  2  0
  4  5  1  0
  5  6  2  0
  6  7  1  0
  7  8  1  0
  7  9  2  0
  7 10  2  0
  6 11  1  0
 11 12  2  0
 12 13  1  0
 13 14  2  0
 13 15  1  0
 15 16  1  0
 16 17  1  0
 17 18  2  0
 18 19  1  0
 19 20  2  0
 20 21  1  0
 21 22  1  0
 22 23  2  0
 22 24  1  0
 24 25  1  0
 25 26  2  0
 26 27  1  0
 27 28  2  0
 28 29  1  0
 29 30  2  0
 21 31  2  0
 12  3  1  0
 31 17  1  0
 30 25  1  0
  1 32  1  0
  1 33  1  0
  1 34  1  0
  4 35  1  0
  5 36  1  0
  8 37  1  0
 11 38  1  0
 16 39  1  0
 16 40  1  0
 18 41  1  0
 19 42  1  0
 20 43  1  0
 24 44  1  0
 26 45  1  0
 27 46  1  0
 28 47  1  0
 29 48  1  0
 30 49  1  0
 31 50  1  0
M  CHG  2   8  -1  15  -1
M  END
>  <UniqueID>  (72) 
67

>  <SMILES>  (72) 
COc1ccc(S([NH-])(=O)=O)cc1C(=O)[N-]Cc1cccc(C(=O)Nc2ccccc2)c1

>  <Energy>  (72) 
59.1919051036756

>  <Genealogy>  (72) 
COc1ccc(S([NH-])(=O)=O)cc1C(=O)[N-]Cc1cccc(C(=O)Nc2ccccc2)c1 (protonated)
COc1ccc(S([NH-])(=O)=O)cc1C(=O)[N-]Cc1cccc(C(=O)Nc2ccccc2)c1 (3D coordinates assigned)
COc1ccc(S([NH-])(=O)=O)cc1C(=O)[N-]Cc1cccc(C(=O)Nc2ccccc2)c1 (optimized conformer: 59.1919051036756 kcal/mol)

>  <smiles>  (72) 
COc1ccc(S(N)(=O)=O)cc1C(=O)NCc1cccc(C(=O)Nc2ccccc2)c1

>  <score_type>  (72) 
oracle

>  <origin>  (72) 
adg

>  <m_score__min__energy>  (72) 
-12.9

>  <m_primary>  (72) 
energy

$$$$
72:0
     RDKit          3D

 55 59  0  0  0  0  0  0  0  0999 V2000
   61.2885   31.1353   46.0667 H   0  0  0  0  0  0  0  0  0  0  0  0
   60.5110   30.3620   45.9800 C   0  0  0  0  0  0  0  0  0  0  0  0
   60.2379   29.9651   44.9911 H   0  0  0  0  0  0  0  0  0  0  0  0
   59.8960   29.9030   47.0800 C   0  0  0  0  0  0  0  0  0  0  0  0
   58.8930   28.9270   47.1340 C   0  0  0  0  0  0  0  0  0  0  0  0
   58.4310   28.1800   46.1130 C   0  0  0  0  0  0  0  0  0  0  0  0
   58.9457   28.2606   45.1442 H   0  0  0  0  0  0  0  0  0  0  0  0
   57.2810   27.2610   46.2070 C   0  0  0  0  0  0  0  0  0  0  0  0
   57.3700   26.0160   46.7100 N   0  0  0  0  0  0  0  0  0  0  0  0
   56.1250   25.5200   46.5540 C   0  0  0  0  0  0  0  0  0  0  0  0
   55.8010   24.3630   46.9310 O   0  0  0  0  0  0  0  0  0  0  0  0
   55.2550   26.3630   45.9590 N   0  0  0  0  0  0  0  0  0  0  0  0
   56.0030   27.4550   45.7340 C   0  0  0  0  0  0  0  0  0  0  0  0
   55.5370   28.5860   45.0740 O   0  0  0  0  0  0  0  0  0  0  0  0
   58.5280   28.8180   48.4680 C   0  0  0  0  0  0  0  0  0  0  0  0
   57.7633   28.1484   48.8887 H   0  0  0  0  0  0  0  0  0  0  0  0
   59.3140   29.7160   49.1640 C   0  0  0  0  0  0  0  0  0  0  0  0
   59.2610   29.9240   50.6500 C   0  0  0  0  0  0  0  0  0  0  0  0
   59.5015   28.9801   51.1612 H   0  0  0  0  0  0  0  0  0  0  0  0
   59.9917   30.6939   50.9388 H   0  0  0  0  0  0  0  0  0  0  0  0
   58.2510   30.2504   50.9388 H   0  0  0  0  0  0  0  0  0  0  0  0
   60.1610   30.3540   48.3280 N   0  0  0  0  0  0  0  0  0  0  0  0
   61.1630   31.3080   48.7250 C   0  0  0  0  0  0  0  0  0  0  0  0
   62.3690   30.8270   49.2660 C   0  0  0  0  0  0  0  0  0  0  0  0
   62.5448   29.7429   49.3269 H   0  0  0  0  0  0  0  0  0  0  0  0
   63.3440   31.7120   49.7260 C   0  0  0  0  0  0  0  0  0  0  0  0
   64.2867   31.3259   50.1410 H   0  0  0  0  0  0  0  0  0  0  0  0
   63.1220   33.0860   49.6590 C   0  0  0  0  0  0  0  0  0  0  0  0
   63.8927   33.7835   50.0188 H   0  0  0  0  0  0  0  0  0  0  0  0
   61.9230   33.5820   49.1360 C   0  0  0  0  0  0  0  0  0  0  0  0
   61.7507   34.6680   49.1059 H   0  0  0  0  0  0  0  0  0  0  0  0
   60.9350   32.7070   48.6480 C   0  0  0  0  0  0  0  0  0  0  0  0
   59.6860   33.2880   48.0930 C   0  0  0  0  0  0  0  0  0  0  0  0
   58.9590   33.9860   48.8550 O   0  0  0  0  0  0  0  0  0  0  0  0
   59.3250   33.1400   46.6980 N   0  0  1  0  0  0  0  0  0  0  0  0
   60.0370   32.5430   46.2220 H   0  0  0  0  0  0  0  0  0  0  0  0
   57.9930   32.5110   46.5650 C   0  0  0  0  0  0  0  0  0  0  0  0
   57.2205   33.2071   46.9237 H   0  0  0  0  0  0  0  0  0  0  0  0
   57.9596   31.5889   47.1639 H   0  0  0  0  0  0  0  0  0  0  0  0
   57.7420   32.1840   45.1280 C   0  0  0  0  0  0  0  0  0  0  0  0
   57.0370   31.0310   44.7560 C   0  0  0  0  0  0  0  0  0  0  0  0
   56.6082   30.3773   45.5298 H   0  0  0  0  0  0  0  0  0  0  0  0
   56.8770   30.7090   43.4060 C   0  0  0  0  0  0  0  0  0  0  0  0
   56.3351   29.7957   43.1194 H   0  0  0  0  0  0  0  0  0  0  0  0
   57.4040   31.5450   42.4210 C   0  0  0  0  0  0  0  0  0  0  0  0
   57.2896   31.2818   41.3591 H   0  0  0  0  0  0  0  0  0  0  0  0
   58.0780   32.7180   42.7810 C   0  0  0  0  0  0  0  0  0  0  0  0
   58.4698   33.3863   42.0001 H   0  0  0  0  0  0  0  0  0  0  0  0
   58.2560   33.0450   44.1360 C   0  0  0  0  0  0  0  0  0  0  0  0
   58.9530   34.3400   44.5090 C   0  0  0  0  0  0  0  0  0  0  0  0
   58.2823   35.1762   44.2620 H   0  0  0  0  0  0  0  0  0  0  0  0
   59.8948   34.3667   43.9413 H   0  0  0  0  0  0  0  0  0  0  0  0
   59.3350   34.4490   46.0140 C   0  0  0  0  0  0  0  0  0  0  0  0
   58.6142   35.1131   46.5134 H   0  0  0  0  0  0  0  0  0  0  0  0
   60.3590   34.8468   46.0702 H   0  0  0  0  0  0  0  0  0  0  0  0
  1  2  1  0
  2  3  1  0
  2  4  2  0
  4  5  1  0
  5  6  2  0
  6  7  1  0
  6  8  1  0
  8  9  1  0
  9 10  1  0
 10 11  2  0
 10 12  1  0
 12 13  1  0
 13 14  1  0
  5 15  1  0
 15 16  1  0
 15 17  2  0
 17 18  1  0
 18 19  1  0
 18 20  1  0
 18 21  1  0
 17 22  1  0
 22 23  1  0
 23 24  2  0
 24 25  1  0
 24 26  1  0
 26 27  1  0
 26 28  2  0
 28 29  1  0
 28 30  1  0
 30 31  1  0
 30 32  2  0
 32 33  1  0
 33 34  2  0
 33 35  1  0
 35 36  1  6
 35 37  1  0
 37 38  1  0
 37 39  1  0
 37 40  1  0
 40 41  2  0
 41 42  1  0
 41 43  1  0
 43 44  1  0
 43 45  2  0
 45 46  1  0
 45 47  1  0
 47 48  1  0
 47 49  2  0
 49 50  1  0
 50 51  1  0
 50 52  1  0
 50 53  1  0
 53 54  1  0
 53 55  1  0
 22  4  1  0
 32 23  1  0
 53 35  1  0
 13  8  2  0
 49 40  1  0
M  CHG  4   9  -1  12  -1  14  -1  35   1
M  END
>  <UniqueID>  (73) 
68

>  <SMILES>  (73) 
C=c1/c(=C/c2[n-]c(=O)[n-]c2[O-])cc(C)n1-c1ccccc1C(=O)[N@@H+]1CCc2ccccc2C1

>  <Energy>  (73) 
141.32379555337266

>  <Genealogy>  (73) 
C=c1c(=Cc2[n-]c(=O)[n-]c2[O-])cc(C)n1-c1ccccc1C(=O)[NH+]1CCc2ccccc2C1 (protonated)
C=c1c(=Cc2[n-]c(=O)[n-]c2[O-])cc(C)n1-c1ccccc1C(=O)[N@@H+]1CCc2ccccc2C1 (chirality)
C=c1/c(=C/c2[n-]c(=O)[n-]c2[O-])cc(C)n1-c1ccccc1C(=O)[N@@H+]1CCc2ccccc2C1 (cis-trans isomerization)
C=c1/c(=C/c2[n-]c(=O)[n-]c2[O-])cc(C)n1-c1ccccc1C(=O)[N@@H+]1CCc2ccccc2C1 (3D coordinates assigned)
C=c1/c(=C/c2[n-]c(=O)[n-]c2[O-])cc(C)n1-c1ccccc1C(=O)[N@@H+]1CCc2ccccc2C1 (nonaromatic ring conformer: 141.32379555337266 kcal/mol)

>  <smiles>  (73) 
C=c1c(=Cc2[nH]c(=O)[nH]c2O)cc(C)n1-c1ccccc1C(=O)N1CCc2ccccc2C1

>  <score_type>  (73) 
oracle

>  <origin>  (73) 
adg

>  <m_score__min__energy>  (73) 
-16.02

>  <m_primary>  (73) 
energy

$$$$
73:0
     RDKit          3D

 44 46  0  0  0  0  0  0  0  0999 V2000
   66.1200   33.5050   52.4530 C   0  0  0  0  0  0  0  0  0  0  0  0
   65.2190   33.2910   51.4890 C   0  0  0  0  0  0  0  0  0  0  0  0
   63.7780   33.2570   51.7990 C   0  0  0  0  0  0  0  0  0  0  0  0
   62.8880   33.0380   50.8280 C   0  0  0  0  0  0  0  0  0  0  0  0
   63.3160   32.8210   49.4220 C   0  0  0  0  0  0  0  0  0  0  0  0
   62.3200   32.5980   48.4040 N   0  0  0  0  0  0  0  0  0  0  0  0
   61.2550   31.6130   48.6100 C   0  0  0  0  0  0  0  0  0  0  0  0
   59.8960   32.2790   48.3960 C   0  0  0  0  0  0  0  0  0  0  0  0
   59.8640   33.0540   47.1440 N   0  0  0  0  0  0  0  0  0  0  0  0
   58.5960   33.5790   46.6930 C   0  0  0  0  0  0  0  0  0  0  0  0
   57.6500   33.7110   47.5170 O   0  0  0  0  0  0  0  0  0  0  0  0
   58.3800   34.0010   45.2670 C   0  0  0  0  0  0  0  0  0  0  0  0
   58.5930   32.8970   44.3890 O   0  0  0  0  0  0  0  0  0  0  0  0
   58.1980   31.5790   44.6620 C   0  0  0  0  0  0  0  0  0  0  0  0
   59.1020   30.7360   45.3200 C   0  0  0  0  0  0  0  0  0  0  0  0
   58.7540   29.4140   45.6150 C   0  0  0  0  0  0  0  0  0  0  0  0
   57.4960   28.9240   45.2540 C   0  0  0  0  0  0  0  0  0  0  0  0
   57.0200   27.1180   45.6580 Br  0  0  0  0  0  0  0  0  0  0  0  0
   56.5850   29.7570   44.5970 C   0  0  0  0  0  0  0  0  0  0  0  0
   56.9300   31.0800   44.3010 C   0  0  0  0  0  0  0  0  0  0  0  0
   61.0800   33.1750   46.3220 C   0  0  0  0  0  0  0  0  0  0  0  0
   62.3110   33.4430   47.2010 C   0  0  0  0  0  0  0  0  0  0  0  0
   64.5840   32.8540   49.1010 N   0  0  0  0  0  0  0  0  0  0  0  0
   65.6080   33.0820   50.0800 C   0  0  0  0  0  0  0  0  0  0  0  0
   66.8190   33.0990   49.7300 O   0  0  0  0  0  0  0  0  0  0  0  0
   67.1922   33.5280   52.2084 H   0  0  0  0  0  0  0  0  0  0  0  0
   65.7892   33.6581   53.4908 H   0  0  0  0  0  0  0  0  0  0  0  0
   63.4353   33.4124   52.8326 H   0  0  0  0  0  0  0  0  0  0  0  0
   61.8161   33.0178   51.0741 H   0  0  0  0  0  0  0  0  0  0  0  0
   61.3756   30.7874   47.8932 H   0  0  0  0  0  0  0  0  0  0  0  0
   61.3129   31.2198   49.6357 H   0  0  0  0  0  0  0  0  0  0  0  0
   59.1196   31.5009   48.3543 H   0  0  0  0  0  0  0  0  0  0  0  0
   59.7152   32.9694   49.2331 H   0  0  0  0  0  0  0  0  0  0  0  0
   57.3492   34.3661   45.1483 H   0  0  0  0  0  0  0  0  0  0  0  0
   59.0927   34.8008   45.0174 H   0  0  0  0  0  0  0  0  0  0  0  0
   60.0934   31.1165   45.6070 H   0  0  0  0  0  0  0  0  0  0  0  0
   59.4712   28.7592   46.1317 H   0  0  0  0  0  0  0  0  0  0  0  0
   55.5950   29.3711   44.3123 H   0  0  0  0  0  0  0  0  0  0  0  0
   56.2101   31.7325   43.7853 H   0  0  0  0  0  0  0  0  0  0  0  0
   61.2324   32.2392   45.7644 H   0  0  0  0  0  0  0  0  0  0  0  0
   60.9529   34.0191   45.6282 H   0  0  0  0  0  0  0  0  0  0  0  0
   63.2185   33.2365   46.6146 H   0  0  0  0  0  0  0  0  0  0  0  0
   62.2776   34.4943   47.5230 H   0  0  0  0  0  0  0  0  0  0  0  0
   64.8770   32.6880   48.1130 H   0  0  0  0  0  0  0  0  0  0  0  0
  1  2  2  0
  2  3  1  0
  3  4  2  0
  4  5  1  0
  5  6  1  0
  6  7  1  0
  7  8  1  0
  8  9  1  0
  9 10  1  0
 10 11  2  0
 10 12  1  0
 12 13  1  0
 13 14  1  0
 14 15  2  0
 15 16  1  0
 16 17  2  0
 17 18  1  0
 17 19  1  0
 19 20  2  0
  9 21  1  0
 21 22  1  0
  5 23  2  0
 23 24  1  0
 24 25  2  0
 24  2  1  0
 22  6  1  0
 20 14  1  0
  1 26  1  0
  1 27  1  0
  3 28  1  0
  4 29  1  0
  7 30  1  0
  7 31  1  0
  8 32  1  0
  8 33  1  0
 12 34  1  0
 12 35  1  0
 15 36  1  0
 16 37  1  0
 19 38  1  0
 20 39  1  0
 21 40  1  0
 21 41  1  0
 22 42  1  0
 22 43  1  0
 23 44  1  0
M  CHG  1  23   1
M  END
>  <UniqueID>  (74) 
69

>  <SMILES>  (74) 
C=C1C=CC(N2CCN(C(=O)COc3ccc(Br)cc3)CC2)=[NH+]C1=O

>  <Energy>  (74) 
47.86535307520045

>  <Genealogy>  (74) 
C=C1C=CC(N2CCN(C(=O)COc3ccc(Br)cc3)CC2)=[NH+]C1=O (protonated)
C=C1C=CC(N2CCN(C(=O)COc3ccc(Br)cc3)CC2)=[NH+]C1=O (3D coordinates assigned)
C=C1C=CC(N2CCN(C(=O)COc3ccc(Br)cc3)CC2)=[NH+]C1=O (nonaromatic ring conformer: 47.86535307520045 kcal/mol)

>  <smiles>  (74) 
C=C1C=CC(N2CCN(C(=O)COc3ccc(Br)cc3)CC2)=NC1=O

>  <score_type>  (74) 
oracle

>  <origin>  (74) 
adg

>  <m_score__min__energy>  (74) 
-6.8799999999999999

>  <m_primary>  (74) 
energy

$$$$
74:0
     RDKit          3D

 47 49  0  0  0  0  0  0  0  0999 V2000
   56.7720   27.7940   44.9160 O   0  0  0  0  0  0  0  0  0  0  0  0
   57.2920   27.2120   45.9100 C   0  0  0  0  0  0  0  0  0  0  0  0
   58.2810   27.8910   46.7020 N   0  0  0  0  0  0  0  0  0  0  0  0
   58.7450   29.2130   46.4020 C   0  0  0  0  0  0  0  0  0  0  0  0
   60.3660   29.4780   46.3730 S   0  0  0  0  0  0  0  0  0  0  0  0
   57.7970   30.2680   46.1400 N   0  0  0  0  0  0  0  0  0  0  0  0
   58.1310   31.6280   45.8180 C   0  0  0  0  0  0  0  0  0  0  0  0
   57.7210   32.1610   44.5900 C   0  0  0  0  0  0  0  0  0  0  0  0
   57.9880   33.4940   44.2720 C   0  0  0  0  0  0  0  0  0  0  0  0
   58.6640   34.3130   45.1820 C   0  0  0  0  0  0  0  0  0  0  0  0
   58.9070   35.6410   44.8440 O   0  0  0  0  0  0  0  0  0  0  0  0
   59.0790   33.7990   46.4260 C   0  0  0  0  0  0  0  0  0  0  0  0
   59.8160   34.6670   47.4310 C   0  0  0  0  0  0  0  0  0  0  0  0
   61.2280   34.2750   47.6470 N   0  0  0  0  0  0  0  0  0  0  0  0
   61.9100   33.8290   46.4200 C   0  0  0  0  0  0  0  0  0  0  0  0
   63.3720   33.4440   46.7300 C   0  0  0  0  0  0  0  0  0  0  0  0
   63.7240   33.7770   48.0600 O   0  0  0  0  0  0  0  0  0  0  0  0
   62.9160   33.0480   48.9680 C   0  0  0  0  0  0  0  0  0  0  0  0
   61.4110   33.2930   48.7300 C   0  0  0  0  0  0  0  0  0  0  0  0
   58.7780   32.4620   46.7460 C   0  0  0  0  0  0  0  0  0  0  0  0
   56.8630   25.8320   46.2360 C   0  0  0  0  0  0  0  0  0  0  0  0
   57.8120   24.9270   46.7490 C   0  0  0  0  0  0  0  0  0  0  0  0
   57.4440   23.6200   47.0730 C   0  0  0  0  0  0  0  0  0  0  0  0
   56.1250   23.2000   46.8920 C   0  0  0  0  0  0  0  0  0  0  0  0
   55.1670   24.0930   46.4070 C   0  0  0  0  0  0  0  0  0  0  0  0
   55.5230   25.4120   46.0870 C   0  0  0  0  0  0  0  0  0  0  0  0
   54.5410   26.3020   45.6510 O   0  0  0  0  0  0  0  0  0  0  0  0
   58.7490   27.3820   47.4840 H   0  0  0  0  0  0  0  0  0  0  0  0
   56.7870   30.0080   46.0830 H   0  0  0  0  0  0  0  0  0  0  0  0
   57.1846   31.5249   43.8705 H   0  0  0  0  0  0  0  0  0  0  0  0
   57.6656   33.9014   43.3024 H   0  0  0  0  0  0  0  0  0  0  0  0
   59.7971   35.7058   47.0698 H   0  0  0  0  0  0  0  0  0  0  0  0
   59.3011   34.5434   48.3952 H   0  0  0  0  0  0  0  0  0  0  0  0
   61.3837   32.9546   46.0096 H   0  0  0  0  0  0  0  0  0  0  0  0
   61.9036   34.6502   45.6882 H   0  0  0  0  0  0  0  0  0  0  0  0
   63.4941   32.3600   46.5884 H   0  0  0  0  0  0  0  0  0  0  0  0
   64.0289   34.0038   46.0480 H   0  0  0  0  0  0  0  0  0  0  0  0
   63.1245   31.9749   48.8459 H   0  0  0  0  0  0  0  0  0  0  0  0
   63.1582   33.3878   49.9858 H   0  0  0  0  0  0  0  0  0  0  0  0
   60.9272   32.3459   48.4491 H   0  0  0  0  0  0  0  0  0  0  0  0
   60.9571   33.6830   49.6530 H   0  0  0  0  0  0  0  0  0  0  0  0
   59.0524   32.0649   47.7344 H   0  0  0  0  0  0  0  0  0  0  0  0
   58.8524   25.2528   46.8957 H   0  0  0  0  0  0  0  0  0  0  0  0
   58.1938   22.9206   47.4712 H   0  0  0  0  0  0  0  0  0  0  0  0
   55.8400   22.1649   47.1316 H   0  0  0  0  0  0  0  0  0  0  0  0
   54.1269   23.7603   46.2750 H   0  0  0  0  0  0  0  0  0  0  0  0
   54.7630   27.0910   45.0550 H   0  0  0  0  0  0  0  0  0  0  0  0
  1  2  2  0
  2  3  1  0
  3  4  1  0
  4  5  2  0
  4  6  1  0
  6  7  1  0
  7  8  2  0
  8  9  1  0
  9 10  2  0
 10 11  1  0
 10 12  1  0
 12 13  1  0
 13 14  1  0
 14 15  1  0
 15 16  1  0
 16 17  1  0
 17 18  1  0
 18 19  1  0
 12 20  2  0
  2 21  1  0
 21 22  2  0
 22 23  1  0
 23 24  2  0
 24 25  1  0
 25 26  2  0
 26 27  1  0
 20  7  1  0
 26 21  1  0
 19 14  1  0
  3 28  1  0
  6 29  1  0
  8 30  1  0
  9 31  1  0
 13 32  1  0
 13 33  1  0
 15 34  1  0
 15 35  1  0
 16 36  1  0
 16 37  1  0
 18 38  1  0
 18 39  1  0
 19 40  1  0
 19 41  1  0
 20 42  1  0
 22 43  1  0
 23 44  1  0
 24 45  1  0
 25 46  1  0
 27 47  1  0
M  CHG  1  11  -1
M  END
>  <UniqueID>  (75) 
70

>  <SMILES>  (75) 
O=C(NC(=S)Nc1ccc([O-])c(CN2CCOCC2)c1)c1ccccc1O

>  <Energy>  (75) 
74.674569587019

>  <Genealogy>  (75) 
O=C(NC(=S)Nc1ccc([O-])c(CN2CCOCC2)c1)c1ccccc1O (protonated)
O=C(NC(=S)Nc1ccc([O-])c(CN2CCOCC2)c1)c1ccccc1O (3D coordinates assigned)
O=C(NC(=S)Nc1ccc([O-])c(CN2CCOCC2)c1)c1ccccc1O (nonaromatic ring conformer: 74.674569587019 kcal/mol)

>  <smiles>  (75) 
O=C(NC(=S)Nc1ccc(O)c(CN2CCOCC2)c1)c1ccccc1O

>  <score_type>  (75) 
oracle

>  <origin>  (75) 
adg

>  <m_score__min__energy>  (75) 
-10.800000000000001

>  <m_primary>  (75) 
energy

$$$$
75:0
     RDKit          3D

 51 54  0  0  0  0  0  0  0  0999 V2000
   59.9500   34.5820   48.6220 C   0  0  0  0  0  0  0  0  0  0  0  0
   59.3510   33.7770   47.5040 C   0  0  0  0  0  0  0  0  0  0  0  0
   59.3800   34.2600   46.1870 C   0  0  0  0  0  0  0  0  0  0  0  0
   58.7980   33.5210   45.1530 C   0  0  0  0  0  0  0  0  0  0  0  0
   58.1700   32.2980   45.4230 C   0  0  0  0  0  0  0  0  0  0  0  0
   57.4040   31.3840   44.1210 S   0  0  0  0  0  0  0  0  0  0  0  0
   55.9770   31.0940   44.4960 O   0  0  0  0  0  0  0  0  0  0  0  0
   57.3940   32.2170   42.8690 O   0  0  0  0  0  0  0  0  0  0  0  0
   58.2390   29.8780   43.8170 N   0  0  0  0  0  0  0  0  0  0  0  0
   59.3920   29.7290   44.7320 C   0  0  0  0  0  0  0  0  0  0  0  0
   59.8020   28.2650   44.9080 C   0  0  0  0  0  0  0  0  0  0  0  0
   58.6720   27.4990   45.4470 N   0  0  0  0  0  0  0  0  0  0  0  0
   58.9210   26.3630   46.3050 C   0  0  0  0  0  0  0  0  0  0  0  0
   60.0760   25.8560   46.3430 O   0  0  0  0  0  0  0  0  0  0  0  0
   57.8440   25.7570   47.1700 C   0  0  0  0  0  0  0  0  0  0  0  0
   56.7750   25.1030   46.3270 C   0  0  0  0  0  0  0  0  0  0  0  0
   55.5190   25.6200   46.3930 N   0  0  0  0  0  0  0  0  0  0  0  0
   54.5090   25.1320   45.6750 N   0  0  0  0  0  0  0  0  0  0  0  0
   54.6740   24.0880   44.8280 C   0  0  0  0  0  0  0  0  0  0  0  0
   53.6850   23.6660   44.1700 O   0  0  0  0  0  0  0  0  0  0  0  0
   55.9400   23.4960   44.6980 C   0  0  0  0  0  0  0  0  0  0  0  0
   56.1520   22.4090   43.8280 C   0  0  0  0  0  0  0  0  0  0  0  0
   57.4160   21.8330   43.7150 C   0  0  0  0  0  0  0  0  0  0  0  0
   58.4810   22.3280   44.4650 C   0  0  0  0  0  0  0  0  0  0  0  0
   58.2900   23.4050   45.3340 C   0  0  0  0  0  0  0  0  0  0  0  0
   57.0200   24.0080   45.4620 C   0  0  0  0  0  0  0  0  0  0  0  0
   57.3060   27.9110   45.0950 C   0  0  0  0  0  0  0  0  0  0  0  0
   57.3020   28.7300   43.7950 C   0  0  0  0  0  0  0  0  0  0  0  0
   58.1400   31.8150   46.7390 C   0  0  0  0  0  0  0  0  0  0  0  0
   58.7210   32.5520   47.7760 C   0  0  0  0  0  0  0  0  0  0  0  0
   58.6660   32.0720   49.0440 F   0  0  0  0  0  0  0  0  0  0  0  0
   59.6355   34.1593   49.5876 H   0  0  0  0  0  0  0  0  0  0  0  0
   61.0471   34.5519   48.5485 H   0  0  0  0  0  0  0  0  0  0  0  0
   59.6060   35.6243   48.5485 H   0  0  0  0  0  0  0  0  0  0  0  0
   59.8625   35.2238   45.9673 H   0  0  0  0  0  0  0  0  0  0  0  0
   58.8333   33.9018   44.1216 H   0  0  0  0  0  0  0  0  0  0  0  0
   60.2451   30.2894   44.3218 H   0  0  0  0  0  0  0  0  0  0  0  0
   59.0952   30.1184   45.7170 H   0  0  0  0  0  0  0  0  0  0  0  0
   60.0959   27.8474   43.9337 H   0  0  0  0  0  0  0  0  0  0  0  0
   60.6504   28.2044   45.6055 H   0  0  0  0  0  0  0  0  0  0  0  0
   58.2953   25.0004   47.8287 H   0  0  0  0  0  0  0  0  0  0  0  0
   57.3799   26.5583   47.7637 H   0  0  0  0  0  0  0  0  0  0  0  0
   55.3152   22.0124   43.2343 H   0  0  0  0  0  0  0  0  0  0  0  0
   57.5734   20.9853   43.0319 H   0  0  0  0  0  0  0  0  0  0  0  0
   59.4763   21.8688   44.3724 H   0  0  0  0  0  0  0  0  0  0  0  0
   59.1366   23.7865   45.9237 H   0  0  0  0  0  0  0  0  0  0  0  0
   56.6827   27.0149   44.9588 H   0  0  0  0  0  0  0  0  0  0  0  0
   56.9055   28.5357   45.9070 H   0  0  0  0  0  0  0  0  0  0  0  0
   57.5840   28.0662   42.9644 H   0  0  0  0  0  0  0  0  0  0  0  0
   56.2889   29.1413   43.6747 H   0  0  0  0  0  0  0  0  0  0  0  0
   57.6569   30.8511   46.9570 H   0  0  0  0  0  0  0  0  0  0  0  0
  1  2  1  0
  2  3  2  0
  3  4  1  0
  4  5  2  0
  5  6  1  0
  6  7  2  0
  6  8  2  0
  6  9  1  0
  9 10  1  0
 10 11  1  0
 11 12  1  0
 12 13  1  0
 13 14  2  0
 13 15  1  0
 15 16  1  0
 16 17  2  0
 17 18  1  0
 18 19  1  0
 19 20  2  0
 19 21  1  0
 21 22  2  0
 22 23  1  0
 23 24  2  0
 24 25  1  0
 25 26  2  0
 12 27  1  0
 27 28  1  0
  5 29  1  0
 29 30  2  0
 30 31  1  0
 30  2  1  0
 28  9  1  0
 26 16  1  0
 26 21  1  0
  1 32  1  0
  1 33  1  0
  1 34  1  0
  3 35  1  0
  4 36  1  0
 10 37  1  0
 10 38  1  0
 11 39  1  0
 11 40  1  0
 15 41  1  0
 15 42  1  0
 22 43  1  0
 23 44  1  0
 24 45  1  0
 25 46  1  0
 27 47  1  0
 27 48  1  0
 28 49  1  0
 28 50  1  0
 29 51  1  0
M  CHG  1  18  -1
M  END
>  <UniqueID>  (76) 
71

>  <SMILES>  (76) 
Cc1ccc(S(=O)(=O)N2CCN(C(=O)Cc3n[n-]c(=O)c4ccccc34)CC2)cc1F

>  <Energy>  (76) 
66.53048660747977

>  <Genealogy>  (76) 
Cc1ccc(S(=O)(=O)N2CCN(C(=O)Cc3n[n-]c(=O)c4ccccc34)CC2)cc1F (protonated)
Cc1ccc(S(=O)(=O)N2CCN(C(=O)Cc3n[n-]c(=O)c4ccccc34)CC2)cc1F (3D coordinates assigned)
Cc1ccc(S(=O)(=O)N2CCN(C(=O)Cc3n[n-]c(=O)c4ccccc34)CC2)cc1F (nonaromatic ring conformer: 66.53048660747977 kcal/mol)

>  <smiles>  (76) 
Cc1ccc(S(=O)(=O)N2CCN(C(=O)Cc3n[nH]c(=O)c4ccccc34)CC2)cc1F

>  <score_type>  (76) 
oracle

>  <origin>  (76) 
adg

>  <m_score__min__energy>  (76) 
-12.99

>  <m_primary>  (76) 
energy

$$$$
76:0
     RDKit          3D

 44 46  0  0  0  0  0  0  0  0999 V2000
   56.8910   19.9940   43.3670 H   0  0  0  0  0  0  0  0  0  0  0  0
   56.2700   20.7630   43.2750 O   0  0  0  0  0  0  0  0  0  0  0  0
   56.9930   21.8970   43.6660 C   0  0  0  0  0  0  0  0  0  0  0  0
   57.9637   21.9066   43.1487 H   0  0  0  0  0  0  0  0  0  0  0  0
   57.1510   21.8675   44.7542 H   0  0  0  0  0  0  0  0  0  0  0  0
   56.2090   23.1710   43.3030 C   0  0  2  0  0  0  0  0  0  0  0  0
   55.9455   23.0579   42.2410 H   0  0  0  0  0  0  0  0  0  0  0  0
   57.0420   24.4320   43.5570 C   0  0  0  0  0  0  0  0  0  0  0  0
   58.1091   24.1763   43.6336 H   0  0  0  0  0  0  0  0  0  0  0  0
   56.9386   25.1559   42.7352 H   0  0  0  0  0  0  0  0  0  0  0  0
   56.5620   24.9820   44.8160 N   0  0  0  0  0  0  0  0  0  0  0  0
   57.1800   26.1000   45.4940 C   0  0  0  0  0  0  0  0  0  0  0  0
   58.2280   25.8920   46.4070 C   0  0  0  0  0  0  0  0  0  0  0  0
   58.5928   24.8758   46.6174 H   0  0  0  0  0  0  0  0  0  0  0  0
   58.7970   26.9940   47.0410 C   0  0  0  0  0  0  0  0  0  0  0  0
   59.7370   26.8350   47.8630 O   0  0  0  0  0  0  0  0  0  0  0  0
   58.3410   28.2400   46.7710 N   0  0  0  0  0  0  0  0  0  0  0  0
   57.3300   28.4430   45.8820 C   0  0  0  0  0  0  0  0  0  0  0  0
   56.9060   29.6470   45.6230 N   0  0  0  0  0  0  0  0  0  0  0  0
   57.3430   30.4650   44.4920 C   0  0  0  0  0  0  0  0  0  0  0  0
   56.4766   30.6889   43.8523 H   0  0  0  0  0  0  0  0  0  0  0  0
   58.1024   29.9069   43.9247 H   0  0  0  0  0  0  0  0  0  0  0  0
   57.9500   31.7570   44.9720 C   0  0  0  0  0  0  0  0  0  0  0  0
   57.5580   32.9820   44.4100 C   0  0  0  0  0  0  0  0  0  0  0  0
   56.8090   32.9996   43.6046 H   0  0  0  0  0  0  0  0  0  0  0  0
   58.1140   34.1790   44.8680 C   0  0  0  0  0  0  0  0  0  0  0  0
   57.7949   35.1350   44.4273 H   0  0  0  0  0  0  0  0  0  0  0  0
   59.0780   34.1670   45.8880 C   0  0  0  0  0  0  0  0  0  0  0  0
   59.6490   35.4540   46.4050 C   0  0  0  0  0  0  0  0  0  0  0  0
   59.6436   35.4419   47.5049 H   0  0  0  0  0  0  0  0  0  0  0  0
   60.6820   35.5678   46.0446 H   0  0  0  0  0  0  0  0  0  0  0  0
   59.0401   36.2962   46.0446 H   0  0  0  0  0  0  0  0  0  0  0  0
   59.4550   32.9440   46.4650 C   0  0  0  0  0  0  0  0  0  0  0  0
   60.1918   32.9276   47.2817 H   0  0  0  0  0  0  0  0  0  0  0  0
   58.8980   31.7470   46.0060 C   0  0  0  0  0  0  0  0  0  0  0  0
   59.2046   30.7921   46.4579 H   0  0  0  0  0  0  0  0  0  0  0  0
   56.7580   27.3780   45.2550 N   0  0  0  0  0  0  0  0  0  0  0  0
   55.9800   27.5590   44.5820 H   0  0  0  0  0  0  0  0  0  0  0  0
   55.3740   24.2930   45.3000 C   0  0  0  0  0  0  0  0  0  0  0  0
   55.6031   23.7339   46.2192 H   0  0  0  0  0  0  0  0  0  0  0  0
   54.5669   24.9996   45.5436 H   0  0  0  0  0  0  0  0  0  0  0  0
   54.9660   23.3380   44.1860 C   0  0  0  0  0  0  0  0  0  0  0  0
   54.6610   22.3680   44.6055 H   0  0  0  0  0  0  0  0  0  0  0  0
   54.1112   23.7261   43.6127 H   0  0  0  0  0  0  0  0  0  0  0  0
  1  2  1  0
  2  3  1  0
  3  4  1  0
  3  5  1  0
  3  6  1  0
  6  7  1  6
  6  8  1  0
  8  9  1  0
  8 10  1  0
  8 11  1  0
 11 12  1  0
 12 13  2  0
 13 14  1  0
 13 15  1  0
 15 16  2  0
 15 17  1  0
 17 18  1  0
 18 19  2  0
 19 20  1  0
 20 21  1  0
 20 22  1  0
 20 23  1  0
 23 24  2  0
 24 25  1  0
 24 26  1  0
 26 27  1  0
 26 28  2  0
 28 29  1  0
 29 30  1  0
 29 31  1  0
 29 32  1  0
 28 33  1  0
 33 34  1  0
 33 35  2  0
 35 36  1  0
 18 37  1  0
 37 38  1  0
 11 39  1  0
 39 40  1  0
 39 41  1  0
 39 42  1  0
 42 43  1  0
 42 44  1  0
 42  6  1  0
 37 12  1  0
 35 23  1  0
M  CHG  1  17  -1
M  END
>  <UniqueID>  (77) 
72

>  <SMILES>  (77) 
Cc1ccc(C/N=c2\[n-]c(=O)cc(N3CC[C@H](CO)C3)[nH]2)cc1

>  <Energy>  (77) 
44.60395195960281

>  <Genealogy>  (77) 
Cc1ccc(CN=c2[n-]c(=O)cc(N3CCC(CO)C3)[nH]2)cc1 (protonated)
Cc1ccc(CN=c2[n-]c(=O)cc(N3CC[C@H](CO)C3)[nH]2)cc1 (chirality)
Cc1ccc(C/N=c2\[n-]c(=O)cc(N3CC[C@H](CO)C3)[nH]2)cc1 (cis-trans isomerization)
Cc1ccc(C/N=c2\[n-]c(=O)cc(N3CC[C@H](CO)C3)[nH]2)cc1 (3D coordinates assigned)
Cc1ccc(C/N=c2\[n-]c(=O)cc(N3CC[C@H](CO)C3)[nH]2)cc1 (nonaromatic ring conformer: 44.60395195960281 kcal/mol)

>  <smiles>  (77) 
Cc1ccc(CN=c2[nH]c(N3CCC(CO)C3)cc(=O)[nH]2)cc1

>  <score_type>  (77) 
oracle

>  <origin>  (77) 
adg

>  <m_score__min__energy>  (77) 
-9.5500000000000007

>  <m_primary>  (77) 
energy

$$$$
77:0
     RDKit          3D

 58 61  0  0  0  0  0  0  0  0999 V2000
   57.7020   34.0370   46.2240 O   0  0  0  0  0  0  0  0  0  0  0  0
   58.2350   32.9940   46.6940 C   0  0  0  0  0  0  0  0  0  0  0  0
   58.8230   33.0220   48.0750 C   0  0  0  0  0  0  0  0  0  0  0  0
   60.3060   33.2930   48.0220 C   0  0  0  0  0  0  0  0  0  0  0  0
   60.9860   33.2040   46.7940 C   0  0  0  0  0  0  0  0  0  0  0  0
   62.3560   33.4800   46.7220 C   0  0  0  0  0  0  0  0  0  0  0  0
   63.0550   33.8560   47.8720 C   0  0  0  0  0  0  0  0  0  0  0  0
   62.3870   33.9620   49.0940 C   0  0  0  0  0  0  0  0  0  0  0  0
   61.0160   33.6880   49.1750 C   0  0  0  0  0  0  0  0  0  0  0  0
   60.3690   33.8130   50.4000 O   0  0  0  0  0  0  0  0  0  0  0  0
   58.2080   31.7680   45.9470 N   0  0  0  0  0  0  0  0  0  0  0  0
   57.7800   31.6950   44.5760 C   0  0  0  0  0  0  0  0  0  0  0  0
   58.1540   32.7040   43.6720 C   0  0  0  0  0  0  0  0  0  0  0  0
   57.8010   32.6150   42.3240 C   0  0  0  0  0  0  0  0  0  0  0  0
   57.0770   31.5180   41.8600 C   0  0  0  0  0  0  0  0  0  0  0  0
   56.7070   30.5020   42.7430 C   0  0  0  0  0  0  0  0  0  0  0  0
   57.0570   30.5730   44.1030 C   0  0  0  0  0  0  0  0  0  0  0  0
   56.6180   29.4910   45.0190 C   0  0  0  0  0  0  0  0  0  0  0  0
   55.4830   28.9690   44.8600 O   0  0  0  0  0  0  0  0  0  0  0  0
   57.4840   28.9610   46.0340 N   0  0  0  0  0  0  0  0  0  0  0  0
   58.0270   27.6330   46.0800 C   0  0  0  0  0  0  0  0  0  0  0  0
   59.4110   27.3970   46.0010 C   0  0  0  0  0  0  0  0  0  0  0  0
   59.9050   26.0910   46.0610 C   0  0  0  0  0  0  0  0  0  0  0  0
   59.0290   25.0160   46.2190 C   0  0  0  0  0  0  0  0  0  0  0  0
   57.6500   25.2420   46.3320 C   0  0  0  0  0  0  0  0  0  0  0  0
   56.5420   23.8840   46.5540 S   0  0  0  0  0  0  0  0  0  0  0  0
   57.0460   23.0170   47.6740 O   0  0  0  0  0  0  0  0  0  0  0  0
   55.1890   24.4090   46.9470 O   0  0  0  0  0  0  0  0  0  0  0  0
   56.3870   22.9230   45.1030 N   0  0  0  0  0  0  0  0  0  0  0  0
   57.5890   22.1070   44.8940 C   0  0  0  0  0  0  0  0  0  0  0  0
   57.4150   21.2360   43.6310 C   0  0  0  0  0  0  0  0  0  0  0  0
   56.2630   21.5900   42.8850 O   0  0  0  0  0  0  0  0  0  0  0  0
   56.2660   22.9800   42.6270 C   0  0  0  0  0  0  0  0  0  0  0  0
   56.1480   23.7860   43.9350 C   0  0  0  0  0  0  0  0  0  0  0  0
   57.1550   26.5530   46.2650 C   0  0  0  0  0  0  0  0  0  0  0  0
   58.3325   33.8144   48.6595 H   0  0  0  0  0  0  0  0  0  0  0  0
   58.6611   32.0414   48.5464 H   0  0  0  0  0  0  0  0  0  0  0  0
   60.4377   32.9158   45.8850 H   0  0  0  0  0  0  0  0  0  0  0  0
   62.8829   33.4009   45.7596 H   0  0  0  0  0  0  0  0  0  0  0  0
   64.1327   34.0688   47.8148 H   0  0  0  0  0  0  0  0  0  0  0  0
   62.9400   34.2619   49.9964 H   0  0  0  0  0  0  0  0  0  0  0  0
   58.4550   30.8800   46.4390 H   0  0  0  0  0  0  0  0  0  0  0  0
   58.7294   33.5708   44.0293 H   0  0  0  0  0  0  0  0  0  0  0  0
   58.0951   33.4129   41.6262 H   0  0  0  0  0  0  0  0  0  0  0  0
   56.7972   31.4529   40.7982 H   0  0  0  0  0  0  0  0  0  0  0  0
   56.1365   29.6380   42.3715 H   0  0  0  0  0  0  0  0  0  0  0  0
   60.1064   28.2422   45.8917 H   0  0  0  0  0  0  0  0  0  0  0  0
   60.9872   25.9098   45.9835 H   0  0  0  0  0  0  0  0  0  0  0  0
   59.4215   23.9890   46.2550 H   0  0  0  0  0  0  0  0  0  0  0  0
   58.4604   22.7660   44.7662 H   0  0  0  0  0  0  0  0  0  0  0  0
   57.7427   21.4555   45.7669 H   0  0  0  0  0  0  0  0  0  0  0  0
   58.3016   21.3596   42.9917 H   0  0  0  0  0  0  0  0  0  0  0  0
   57.2957   20.1923   43.9572 H   0  0  0  0  0  0  0  0  0  0  0  0
   57.2052   23.2499   42.1219 H   0  0  0  0  0  0  0  0  0  0  0  0
   55.4022   23.2194   41.9894 H   0  0  0  0  0  0  0  0  0  0  0  0
   56.8912   24.5969   43.9274 H   0  0  0  0  0  0  0  0  0  0  0  0
   55.1312   24.1999   44.0041 H   0  0  0  0  0  0  0  0  0  0  0  0
   56.0740   26.7339   46.3585 H   0  0  0  0  0  0  0  0  0  0  0  0
  1  2  2  0
  2  3  1  0
  3  4  1  0
  4  5  2  0
  5  6  1  0
  6  7  2  0
  7  8  1  0
  8  9  2  0
  9 10  1  0
  2 11  1  0
 11 12  1  0
 12 13  2  0
 13 14  1  0
 14 15  2  0
 15 16  1  0
 16 17  2  0
 17 18  1  0
 18 19  2  0
 18 20  1  0
 20 21  1  0
 21 22  2  0
 22 23  1  0
 23 24  2  0
 24 25  1  0
 25 26  1  0
 26 27  2  0
 26 28  2  0
 26 29  1  0
 29 30  1  0
 30 31  1  0
 31 32  1  0
 32 33  1  0
 33 34  1  0
 25 35  2  0
  9  4  1  0
 17 12  1  0
 35 21  1  0
 34 29  1  0
  3 36  1  0
  3 37  1  0
  5 38  1  0
  6 39  1  0
  7 40  1  0
  8 41  1  0
 11 42  1  0
 13 43  1  0
 14 44  1  0
 15 45  1  0
 16 46  1  0
 22 47  1  0
 23 48  1  0
 24 49  1  0
 30 50  1  0
 30 51  1  0
 31 52  1  0
 31 53  1  0
 33 54  1  0
 33 55  1  0
 34 56  1  0
 34 57  1  0
 35 58  1  0
M  CHG  2  10  -1  20  -1
M  END
>  <UniqueID>  (78) 
73

>  <SMILES>  (78) 
O=C(Cc1ccccc1[O-])Nc1ccccc1C(=O)[N-]c1cccc(S(=O)(=O)N2CCOCC2)c1

>  <Energy>  (78) 
80.35409183286087

>  <Genealogy>  (78) 
O=C(Cc1ccccc1[O-])Nc1ccccc1C(=O)[N-]c1cccc(S(=O)(=O)N2CCOCC2)c1 (protonated)
O=C(Cc1ccccc1[O-])Nc1ccccc1C(=O)[N-]c1cccc(S(=O)(=O)N2CCOCC2)c1 (3D coordinates assigned)
O=C(Cc1ccccc1[O-])Nc1ccccc1C(=O)[N-]c1cccc(S(=O)(=O)N2CCOCC2)c1 (nonaromatic ring conformer: 80.35409183286087 kcal/mol)

>  <smiles>  (78) 
O=C(Cc1ccccc1O)Nc1ccccc1C(=O)Nc1cccc(S(=O)(=O)N2CCOCC2)c1

>  <score_type>  (78) 
oracle

>  <origin>  (78) 
adg

>  <m_score__min__energy>  (78) 
-14.4

>  <m_primary>  (78) 
energy

$$$$
78:0
     RDKit          3D

 55 57  0  0  0  0  0  0  0  0999 V2000
   63.7460   34.1670   47.3600 C   0  0  0  0  0  0  0  0  0  0  0  0
   63.6050   32.7940   46.8770 N   0  0  0  0  0  0  0  0  0  0  0  0
   62.5120   31.9130   47.9050 S   0  0  0  0  0  0  0  0  0  0  0  0
   61.8370   30.8440   47.0890 O   0  0  0  0  0  0  0  0  0  0  0  0
   63.2830   31.2440   49.0060 O   0  0  0  0  0  0  0  0  0  0  0  0
   61.2510   32.9530   48.5870 C   0  0  0  0  0  0  0  0  0  0  0  0
   60.6420   33.9500   47.9290 C   0  0  0  0  0  0  0  0  0  0  0  0
   59.7010   33.7650   46.8110 C   0  0  0  0  0  0  0  0  0  0  0  0
   59.3990   34.8500   45.9820 C   0  0  0  0  0  0  0  0  0  0  0  0
   58.5540   34.6790   44.8850 C   0  0  0  0  0  0  0  0  0  0  0  0
   58.0130   33.4220   44.6000 C   0  0  0  0  0  0  0  0  0  0  0  0
   58.3070   32.3140   45.4190 C   0  0  0  0  0  0  0  0  0  0  0  0
   57.7810   30.9510   45.1480 C   0  0  0  0  0  0  0  0  0  0  0  0
   56.5970   30.8430   44.7250 O   0  0  0  0  0  0  0  0  0  0  0  0
   58.6070   29.7680   45.2010 N   0  0  0  0  0  0  0  0  0  0  0  0
   59.2770   29.3690   46.4480 C   0  0  0  0  0  0  0  0  0  0  0  0
   59.5210   27.8520   46.5130 C   0  0  0  0  0  0  0  0  0  0  0  0
   58.3590   27.1190   45.9800 N   0  0  0  0  0  0  0  0  0  0  0  0
   57.8280   25.9740   46.6890 C   0  0  0  0  0  0  0  0  0  0  0  0
   58.4370   25.5320   47.7030 O   0  0  0  0  0  0  0  0  0  0  0  0
   56.5070   25.3360   46.2800 C   0  0  0  0  0  0  0  0  0  0  0  0
   56.5440   24.7120   44.8840 C   0  0  0  0  0  0  0  0  0  0  0  0
   56.9740   23.2660   45.0840 C   0  0  0  0  0  0  0  0  0  0  0  0
   56.5960   22.8940   46.5140 C   0  0  0  0  0  0  0  0  0  0  0  0
   56.1540   24.1770   47.2140 C   0  0  0  0  0  0  0  0  0  0  0  0
   57.8000   27.5160   44.6740 C   0  0  0  0  0  0  0  0  0  0  0  0
   58.4840   28.7730   44.1270 C   0  0  0  0  0  0  0  0  0  0  0  0
   59.1780   32.4990   46.5110 C   0  0  0  0  0  0  0  0  0  0  0  0
   63.7464   34.1705   48.4600 H   0  0  0  0  0  0  0  0  0  0  0  0
   64.6923   34.5899   46.9917 H   0  0  0  0  0  0  0  0  0  0  0  0
   62.9054   34.7734   46.9917 H   0  0  0  0  0  0  0  0  0  0  0  0
   64.5370   32.3260   46.9400 H   0  0  0  0  0  0  0  0  0  0  0  0
   60.9449   32.7673   49.6271 H   0  0  0  0  0  0  0  0  0  0  0  0
   60.8608   34.9801   48.2469 H   0  0  0  0  0  0  0  0  0  0  0  0
   59.8284   35.8400   46.1952 H   0  0  0  0  0  0  0  0  0  0  0  0
   58.3123   35.5376   44.2412 H   0  0  0  0  0  0  0  0  0  0  0  0
   57.3525   33.2969   43.7293 H   0  0  0  0  0  0  0  0  0  0  0  0
   60.2452   29.8872   46.5121 H   0  0  0  0  0  0  0  0  0  0  0  0
   58.6216   29.6433   47.2878 H   0  0  0  0  0  0  0  0  0  0  0  0
   60.4110   27.6026   45.9165 H   0  0  0  0  0  0  0  0  0  0  0  0
   59.6742   27.5610   47.5627 H   0  0  0  0  0  0  0  0  0  0  0  0
   55.7784   26.1592   46.3170 H   0  0  0  0  0  0  0  0  0  0  0  0
   55.5477   24.7540   44.4197 H   0  0  0  0  0  0  0  0  0  0  0  0
   57.2357   25.2505   44.2194 H   0  0  0  0  0  0  0  0  0  0  0  0
   56.4509   22.6122   44.3706 H   0  0  0  0  0  0  0  0  0  0  0  0
   58.0542   23.1458   44.9147 H   0  0  0  0  0  0  0  0  0  0  0  0
   55.7722   22.1651   46.5083 H   0  0  0  0  0  0  0  0  0  0  0  0
   57.4499   22.4387   47.0371 H   0  0  0  0  0  0  0  0  0  0  0  0
   55.0694   24.1545   47.3959 H   0  0  0  0  0  0  0  0  0  0  0  0
   56.6554   24.2880   48.1867 H   0  0  0  0  0  0  0  0  0  0  0  0
   57.9426   26.6921   43.9592 H   0  0  0  0  0  0  0  0  0  0  0  0
   56.7311   27.7372   44.8099 H   0  0  0  0  0  0  0  0  0  0  0  0
   59.4846   28.5125   43.7517 H   0  0  0  0  0  0  0  0  0  0  0  0
   57.8828   29.1908   43.3060 H   0  0  0  0  0  0  0  0  0  0  0  0
   59.4518   31.6374   47.1376 H   0  0  0  0  0  0  0  0  0  0  0  0
  1  2  1  0
  2  3  1  0
  3  4  2  0
  3  5  2  0
  3  6  1  0
  6  7  2  3
  7  8  1  0
  8  9  2  0
  9 10  1  0
 10 11  2  0
 11 12  1  0
 12 13  1  0
 13 14  2  0
 13 15  1  0
 15 16  1  0
 16 17  1  0
 17 18  1  0
 18 19  1  0
 19 20  2  0
 19 21  1  0
 21 22  1  0
 22 23  1  0
 23 24  1  0
 24 25  1  0
 18 26  1  0
 26 27  1  0
 12 28  2  0
 28  8  1  0
 27 15  1  0
 25 21  1  0
  1 29  1  0
  1 30  1  0
  1 31  1  0
  2 32  1  0
  6 33  1  0
  7 34  1  0
  9 35  1  0
 10 36  1  0
 11 37  1  0
 16 38  1  0
 16 39  1  0
 17 40  1  0
 17 41  1  0
 21 42  1  0
 22 43  1  0
 22 44  1  0
 23 45  1  0
 23 46  1  0
 24 47  1  0
 24 48  1  0
 25 49  1  0
 25 50  1  0
 26 51  1  0
 26 52  1  0
 27 53  1  0
 27 54  1  0
 28 55  1  0
M  END
>  <UniqueID>  (79) 
74

>  <SMILES>  (79) 
CNS(=O)(=O)C=Cc1cccc(C(=O)N2CCN(C(=O)C3CCCC3)CC2)c1

>  <Energy>  (79) 
72.4453707218511

>  <Genealogy>  (79) 
CNS(=O)(=O)C=Cc1cccc(C(=O)N2CCN(C(=O)C3CCCC3)CC2)c1 (3D coordinates assigned)
CNS(=O)(=O)C=Cc1cccc(C(=O)N2CCN(C(=O)C3CCCC3)CC2)c1 (nonaromatic ring conformer: 72.4453707218511 kcal/mol)

>  <smiles>  (79) 
CNS(=O)(=O)C=Cc1cccc(C(=O)N2CCN(C(=O)C3CCCC3)CC2)c1

>  <score_type>  (79) 
oracle

>  <origin>  (79) 
adg

>  <m_score__min__energy>  (79) 
-9.5

>  <m_primary>  (79) 
energy

$$$$
79:0
     RDKit          3D

 40 42  0  0  0  0  0  0  0  0999 V2000
   60.4790   29.1160   47.9340 O   0  0  0  0  0  0  0  0  0  0  0  0
   60.0480   30.2480   47.5830 C   0  0  0  0  0  0  0  0  0  0  0  0
   58.5900   30.4120   47.2360 C   0  0  0  0  0  0  0  0  0  0  0  0
   58.3940   30.7450   45.8120 N   0  0  0  0  0  0  0  0  0  0  0  0
   58.3060   32.1440   45.4660 C   0  0  0  0  0  0  0  0  0  0  0  0
   57.6740   32.5390   44.3570 C   0  0  0  0  0  0  0  0  0  0  0  0
   57.0590   31.5550   43.4510 C   0  0  0  0  0  0  0  0  0  0  0  0
   57.2140   30.2460   43.6550 C   0  0  0  0  0  0  0  0  0  0  0  0
   58.0260   29.7690   44.7960 C   0  0  0  0  0  0  0  0  0  0  0  0
   58.3900   28.4700   44.8150 C   0  0  0  0  0  0  0  0  0  0  0  0
   57.6170   27.3660   45.4100 C   0  0  0  0  0  0  0  0  0  0  0  0
   58.2930   26.2430   45.9050 C   0  0  0  0  0  0  0  0  0  0  0  0
   57.5840   25.2200   46.5360 C   0  0  0  0  0  0  0  0  0  0  0  0
   58.2360   24.1220   46.9930 F   0  0  0  0  0  0  0  0  0  0  0  0
   56.2000   25.3410   46.6910 C   0  0  0  0  0  0  0  0  0  0  0  0
   55.5410   24.4260   47.2510 O   0  0  0  0  0  0  0  0  0  0  0  0
   55.5620   26.4540   46.2400 N   0  0  0  0  0  0  0  0  0  0  0  0
   56.2290   27.4650   45.6220 C   0  0  0  0  0  0  0  0  0  0  0  0
   55.5270   28.5920   45.2100 O   0  0  0  0  0  0  0  0  0  0  0  0
   60.9420   31.3750   47.5760 N   0  0  0  0  0  0  0  0  0  0  0  0
   62.3830   31.2360   47.6830 C   0  0  0  0  0  0  0  0  0  0  0  0
   62.9430   32.6380   47.4850 C   0  0  0  0  0  0  0  0  0  0  0  0
   61.7720   33.5920   47.7120 C   0  0  0  0  0  0  0  0  0  0  0  0
   60.5110   32.7610   47.5090 C   0  0  0  0  0  0  0  0  0  0  0  0
   58.0647   29.4709   47.4561 H   0  0  0  0  0  0  0  0  0  0  0  0
   58.1893   31.2417   47.8369 H   0  0  0  0  0  0  0  0  0  0  0  0
   58.7658   32.8954   46.1248 H   0  0  0  0  0  0  0  0  0  0  0  0
   57.6126   33.6110   44.1184 H   0  0  0  0  0  0  0  0  0  0  0  0
   56.4637   31.9039   42.5944 H   0  0  0  0  0  0  0  0  0  0  0  0
   56.7390   29.5225   42.9761 H   0  0  0  0  0  0  0  0  0  0  0  0
   59.3500   28.2121   44.3440 H   0  0  0  0  0  0  0  0  0  0  0  0
   59.3850   26.1676   45.7960 H   0  0  0  0  0  0  0  0  0  0  0  0
   62.6592   30.8483   48.6747 H   0  0  0  0  0  0  0  0  0  0  0  0
   62.7810   30.5290   46.9401 H   0  0  0  0  0  0  0  0  0  0  0  0
   63.7445   32.8361   48.2119 H   0  0  0  0  0  0  0  0  0  0  0  0
   63.3764   32.7619   46.4816 H   0  0  0  0  0  0  0  0  0  0  0  0
   61.8021   33.9984   48.7337 H   0  0  0  0  0  0  0  0  0  0  0  0
   61.8078   34.4471   47.0209 H   0  0  0  0  0  0  0  0  0  0  0  0
   59.7788   32.9742   48.3017 H   0  0  0  0  0  0  0  0  0  0  0  0
   60.0226   32.9897   46.5503 H   0  0  0  0  0  0  0  0  0  0  0  0
  1  2  2  0
  2  3  1  0
  3  4  1  0
  4  5  1  0
  5  6  2  0
  6  7  1  0
  7  8  2  0
  8  9  1  0
  9 10  2  3
 10 11  1  0
 11 12  1  0
 12 13  2  0
 13 14  1  0
 13 15  1  0
 15 16  2  0
 15 17  1  0
 17 18  1  0
 18 19  1  0
  2 20  1  0
 20 21  1  0
 21 22  1  0
 22 23  1  0
 23 24  1  0
  9  4  1  0
 18 11  2  0
 24 20  1  0
  3 25  1  0
  3 26  1  0
  5 27  1  0
  6 28  1  0
  7 29  1  0
  8 30  1  0
 10 31  1  0
 12 32  1  0
 21 33  1  0
 21 34  1  0
 22 35  1  0
 22 36  1  0
 23 37  1  0
 23 38  1  0
 24 39  1  0
 24 40  1  0
M  CHG  2  17  -1  19  -1
M  END
>  <UniqueID>  (80) 
75

>  <SMILES>  (80) 
O=C(CN1C=CC=CC1=Cc1cc(F)c(=O)[n-]c1[O-])N1CCCC1

>  <Energy>  (80) 
51.579211088018326

>  <Genealogy>  (80) 
O=C(CN1C=CC=CC1=Cc1cc(F)c(=O)[n-]c1[O-])N1CCCC1 (protonated)
O=C(CN1C=CC=CC1=Cc1cc(F)c(=O)[n-]c1[O-])N1CCCC1 (3D coordinates assigned)
O=C(CN1C=CC=CC1=Cc1cc(F)c(=O)[n-]c1[O-])N1CCCC1 (nonaromatic ring conformer: 51.579211088018326 kcal/mol)

>  <smiles>  (80) 
O=C(CN1C=CC=CC1=Cc1cc(F)c(=O)[nH]c1O)N1CCCC1

>  <score_type>  (80) 
oracle

>  <origin>  (80) 
adg

>  <m_score__min__energy>  (80) 
-14.02

>  <m_primary>  (80) 
energy

$$$$
80:0
     RDKit          3D

 34 36  0  0  0  0  0  0  0  0999 V2000
   58.4340   29.7910   43.7570 N   0  0  0  0  0  0  0  0  0  0  0  0
   57.4410   31.1890   43.9930 S   0  0  0  0  0  0  0  0  0  0  0  0
   57.0370   31.7160   42.6450 O   0  0  0  0  0  0  0  0  0  0  0  0
   56.2160   30.7880   44.7670 O   0  0  0  0  0  0  0  0  0  0  0  0
   58.3220   32.4470   44.8790 C   0  0  0  0  0  0  0  0  0  0  0  0
   58.5810   33.6680   44.2320 C   0  0  0  0  0  0  0  0  0  0  0  0
   59.2220   34.7090   44.9030 C   0  0  0  0  0  0  0  0  0  0  0  0
   59.6040   34.5530   46.2320 C   0  0  0  0  0  0  0  0  0  0  0  0
   59.3620   33.3490   46.8920 C   0  0  0  0  0  0  0  0  0  0  0  0
   58.7510   32.2680   46.2230 C   0  0  0  0  0  0  0  0  0  0  0  0
   58.4980   30.9810   46.9880 C   0  0  0  0  0  0  0  0  0  0  0  0
   59.1850   29.8420   46.3730 N   0  0  0  0  0  0  0  0  0  0  0  0
   58.6350   28.5140   46.2820 C   0  0  0  0  0  0  0  0  0  0  0  0
   59.4660   27.3560   46.2940 C   0  0  0  0  0  0  0  0  0  0  0  0
   58.9050   26.0690   46.2090 C   0  0  0  0  0  0  0  0  0  0  0  0
   57.5220   25.9680   46.1110 C   0  0  0  0  0  0  0  0  0  0  0  0
   56.7840   24.8510   46.0200 N   0  0  0  0  0  0  0  0  0  0  0  0
   55.5240   25.3500   45.9530 C   0  0  0  0  0  0  0  0  0  0  0  0
   54.5110   24.6090   45.8570 O   0  0  0  0  0  0  0  0  0  0  0  0
   55.4330   26.7030   45.9950 N   0  0  0  0  0  0  0  0  0  0  0  0
   56.7200   27.0670   46.0960 C   0  0  0  0  0  0  0  0  0  0  0  0
   57.2340   28.3570   46.1780 C   0  0  0  0  0  0  0  0  0  0  0  0
   59.3570   30.1290   43.4010 H   0  0  0  0  0  0  0  0  0  0  0  0
   58.0040   29.2350   42.9840 H   0  0  0  0  0  0  0  0  0  0  0  0
   58.2745   33.8038   43.1843 H   0  0  0  0  0  0  0  0  0  0  0  0
   59.4261   35.6553   44.3807 H   0  0  0  0  0  0  0  0  0  0  0  0
   60.0975   35.3807   46.7625 H   0  0  0  0  0  0  0  0  0  0  0  0
   59.6512   33.2407   47.9478 H   0  0  0  0  0  0  0  0  0  0  0  0
   58.8609   31.1019   48.0193 H   0  0  0  0  0  0  0  0  0  0  0  0
   57.4168   30.7791   46.9722 H   0  0  0  0  0  0  0  0  0  0  0  0
   60.1380   30.0160   45.9750 H   0  0  0  0  0  0  0  0  0  0  0  0
   60.5574   27.4700   46.3705 H   0  0  0  0  0  0  0  0  0  0  0  0
   59.5403   25.1711   46.2197 H   0  0  0  0  0  0  0  0  0  0  0  0
   56.5677   29.2321   46.1623 H   0  0  0  0  0  0  0  0  0  0  0  0
  1  2  1  0
  2  3  2  0
  2  4  2  0
  2  5  1  0
  5  6  2  0
  6  7  1  0
  7  8  2  0
  8  9  1  0
  9 10  2  0
 10 11  1  0
 11 12  1  0
 12 13  1  0
 13 14  2  0
 14 15  1  0
 15 16  2  0
 16 17  1  0
 17 18  1  0
 18 19  2  0
 18 20  1  0
 20 21  1  0
 21 22  2  0
 10  5  1  0
 22 13  1  0
 21 16  1  0
  1 23  1  0
  1 24  1  0
  6 25  1  0
  7 26  1  0
  8 27  1  0
  9 28  1  0
 11 29  1  0
 11 30  1  0
 12 31  1  0
 14 32  1  0
 15 33  1  0
 22 34  1  0
M  CHG  2  17  -1  20  -1
M  END
>  <UniqueID>  (81) 
76

>  <SMILES>  (81) 
NS(=O)(=O)c1ccccc1CNc1ccc2[n-]c(=O)[n-]c2c1

>  <Energy>  (81) 
73.23238863929636

>  <Genealogy>  (81) 
NS(=O)(=O)c1ccccc1CNc1ccc2[n-]c(=O)[n-]c2c1 (protonated)
NS(=O)(=O)c1ccccc1CNc1ccc2[n-]c(=O)[n-]c2c1 (3D coordinates assigned)
NS(=O)(=O)c1ccccc1CNc1ccc2[n-]c(=O)[n-]c2c1 (optimized conformer: 73.23238863929636 kcal/mol)

>  <smiles>  (81) 
NS(=O)(=O)c1ccccc1CNc1ccc2[nH]c(=O)[nH]c2c1

>  <score_type>  (81) 
oracle

>  <origin>  (81) 
adg

>  <m_score__min__energy>  (81) 
-12

>  <m_primary>  (81) 
energy

$$$$
81:0
     RDKit          3D

 43 45  0  0  0  0  0  0  0  0999 V2000
   56.6600   29.6490   52.8330 O   0  0  0  0  0  0  0  0  0  0  0  0
   56.4600   30.5790   52.0090 C   0  0  0  0  0  0  0  0  0  0  0  0
   57.3230   30.7420   50.8780 N   0  0  0  0  0  0  0  0  0  0  0  0
   58.5580   29.9930   50.6840 C   0  0  0  0  0  0  0  0  0  0  0  0
   59.2500   30.4530   49.4230 C   0  0  0  0  0  0  0  0  0  0  0  0
   59.7270   31.7740   49.3550 C   0  0  0  0  0  0  0  0  0  0  0  0
   60.3600   32.2450   48.2040 C   0  0  0  0  0  0  0  0  0  0  0  0
   60.5250   31.4040   47.1040 C   0  0  0  0  0  0  0  0  0  0  0  0
   60.0510   30.0920   47.1490 C   0  0  0  0  0  0  0  0  0  0  0  0
   59.3950   29.6040   48.2930 C   0  0  0  0  0  0  0  0  0  0  0  0
   58.9180   28.1730   48.3000 C   0  0  0  0  0  0  0  0  0  0  0  0
   58.6880   27.7320   46.9300 N   0  0  0  0  0  0  0  0  0  0  0  0
   57.4090   27.5240   46.3120 C   0  0  0  0  0  0  0  0  0  0  0  0
   56.8770   28.4980   45.7150 O   0  0  0  0  0  0  0  0  0  0  0  0
   56.7010   26.2200   46.3400 C   0  0  0  0  0  0  0  0  0  0  0  0
   57.3820   25.0490   46.7050 C   0  0  0  0  0  0  0  0  0  0  0  0
   56.6870   23.8390   46.7020 C   0  0  0  0  0  0  0  0  0  0  0  0
   57.2690   22.7730   47.0330 O   0  0  0  0  0  0  0  0  0  0  0  0
   55.3790   23.8100   46.3410 N   0  0  0  0  0  0  0  0  0  0  0  0
   54.7320   24.9470   45.9800 C   0  0  0  0  0  0  0  0  0  0  0  0
   53.5220   24.9010   45.6390 O   0  0  0  0  0  0  0  0  0  0  0  0
   55.3920   26.1350   45.9800 N   0  0  0  0  0  0  0  0  0  0  0  0
   55.3280   31.4360   52.1800 N   0  0  0  0  0  0  0  0  0  0  0  0
   53.9630   30.9970   52.1560 C   0  0  0  0  0  0  0  0  0  0  0  0
   53.6060   29.6900   52.5320 C   0  0  0  0  0  0  0  0  0  0  0  0
   52.2700   29.2830   52.4840 C   0  0  0  0  0  0  0  0  0  0  0  0
   51.2840   30.1700   52.0480 C   0  0  0  0  0  0  0  0  0  0  0  0
   51.6350   31.4630   51.6440 C   0  0  0  0  0  0  0  0  0  0  0  0
   50.6550   32.3420   51.1980 O   0  0  0  0  0  0  0  0  0  0  0  0
   52.9730   31.8710   51.6900 C   0  0  0  0  0  0  0  0  0  0  0  0
   59.2227   30.1578   51.5448 H   0  0  0  0  0  0  0  0  0  0  0  0
   58.3203   28.9227   50.5948 H   0  0  0  0  0  0  0  0  0  0  0  0
   59.5998   32.4434   50.2185 H   0  0  0  0  0  0  0  0  0  0  0  0
   60.7291   33.2805   48.1644 H   0  0  0  0  0  0  0  0  0  0  0  0
   61.0294   31.7751   46.1996 H   0  0  0  0  0  0  0  0  0  0  0  0
   60.1922   29.4325   46.2800 H   0  0  0  0  0  0  0  0  0  0  0  0
   59.6815   27.5341   48.7678 H   0  0  0  0  0  0  0  0  0  0  0  0
   57.9806   28.1013   48.8711 H   0  0  0  0  0  0  0  0  0  0  0  0
   58.4443   25.0841   46.9883 H   0  0  0  0  0  0  0  0  0  0  0  0
   54.3817   28.9849   52.8654 H   0  0  0  0  0  0  0  0  0  0  0  0
   51.9950   28.2628   52.7900 H   0  0  0  0  0  0  0  0  0  0  0  0
   50.2311   29.8525   52.0220 H   0  0  0  0  0  0  0  0  0  0  0  0
   53.2483   32.8831   51.3585 H   0  0  0  0  0  0  0  0  0  0  0  0
  1  2  2  0
  2  3  1  0
  3  4  1  0
  4  5  1  0
  5  6  2  0
  6  7  1  0
  7  8  2  0
  8  9  1  0
  9 10  2  0
 10 11  1  0
 11 12  1  0
 12 13  1  0
 13 14  2  0
 13 15  1  0
 15 16  2  0
 16 17  1  0
 17 18  2  0
 17 19  1  0
 19 20  1  0
 20 21  2  0
 20 22  1  0
  2 23  1  0
 23 24  1  0
 24 25  2  0
 25 26  1  0
 26 27  2  0
 27 28  1  0
 28 29  1  0
 28 30  2  0
 10  5  1  0
 22 15  1  0
 30 24  1  0
  4 31  1  0
  4 32  1  0
  6 33  1  0
  7 34  1  0
  8 35  1  0
  9 36  1  0
 11 37  1  0
 11 38  1  0
 16 39  1  0
 25 40  1  0
 26 41  1  0
 27 42  1  0
 30 43  1  0
M  CHG  6   3  -1  12  -1  19  -1  22  -1  23  -1  29  -1
M  END
>  <UniqueID>  (82) 
77

>  <SMILES>  (82) 
O=C([N-]Cc1ccccc1C[N-]C(=O)c1cc(=O)[n-]c(=O)[n-]1)[N-]c1cccc([O-])c1

>  <Energy>  (82) 
48.564817801203404

>  <Genealogy>  (82) 
O=C([N-]Cc1ccccc1C[N-]C(=O)c1cc(=O)[n-]c(=O)[n-]1)[N-]c1cccc([O-])c1 (protonated)
O=C([N-]Cc1ccccc1C[N-]C(=O)c1cc(=O)[n-]c(=O)[n-]1)[N-]c1cccc([O-])c1 (3D coordinates assigned)
O=C([N-]Cc1ccccc1C[N-]C(=O)c1cc(=O)[n-]c(=O)[n-]1)[N-]c1cccc([O-])c1 (optimized conformer: 48.564817801203404 kcal/mol)

>  <smiles>  (82) 
O=C(NCc1ccccc1CNC(=O)c1cc(=O)[nH]c(=O)[nH]1)Nc1cccc(O)c1

>  <score_type>  (82) 
oracle

>  <origin>  (82) 
adg

>  <m_score__min__energy>  (82) 
-19.73

>  <m_primary>  (82) 
energy

$$$$
82:0
     RDKit          3D

 33 34  0  0  0  0  0  0  0  0999 V2000
   57.1590   29.0260   43.3430 C   0  0  0  0  0  0  0  0  0  0  0  0
   57.5790   29.1370   44.6130 C   0  0  0  0  0  0  0  0  0  0  0  0
   57.6910   30.4010   45.1090 N   0  0  0  0  0  0  0  0  0  0  0  0
   58.1350   30.6760   46.3620 C   0  0  0  0  0  0  0  0  0  0  0  0
   58.2340   31.9910   46.8330 O   0  0  0  0  0  0  0  0  0  0  0  0
   58.1480   33.1500   46.0450 C   0  0  0  0  0  0  0  0  0  0  0  0
   57.0610   33.4730   45.4900 O   0  0  0  0  0  0  0  0  0  0  0  0
   59.3120   33.9760   45.8700 N   0  0  0  0  0  0  0  0  0  0  0  0
   59.2310   35.1860   45.0490 C   0  0  0  0  0  0  0  0  0  0  0  0
   60.5690   33.5910   46.5180 C   0  0  0  0  0  0  0  0  0  0  0  0
   58.5000   29.6290   47.2000 C   0  0  0  0  0  0  0  0  0  0  0  0
   58.3990   28.3170   46.7490 C   0  0  0  0  0  0  0  0  0  0  0  0
   57.9370   28.0240   45.4430 C   0  0  0  0  0  0  0  0  0  0  0  0
   57.8040   26.7330   45.0400 C   0  0  0  0  0  0  0  0  0  0  0  0
   57.2280   25.6480   45.8580 C   0  0  0  0  0  0  0  0  0  0  0  0
   57.9640   24.6610   46.3980 N   0  0  0  0  0  0  0  0  0  0  0  0
   57.0620   23.9490   47.1060 C   0  0  0  0  0  0  0  0  0  0  0  0
   57.3730   22.9170   47.7560 O   0  0  0  0  0  0  0  0  0  0  0  0
   55.8030   24.4350   47.0720 N   0  0  0  0  0  0  0  0  0  0  0  0
   55.9230   25.5190   46.2890 C   0  0  0  0  0  0  0  0  0  0  0  0
   54.8660   26.3820   46.0130 O   0  0  0  0  0  0  0  0  0  0  0  0
   57.0483   28.0319   42.8852 H   0  0  0  0  0  0  0  0  0  0  0  0
   56.9255   29.9291   42.7600 H   0  0  0  0  0  0  0  0  0  0  0  0
   59.1719   36.0691   45.7022 H   0  0  0  0  0  0  0  0  0  0  0  0
   60.1263   35.2589   44.4140 H   0  0  0  0  0  0  0  0  0  0  0  0
   58.3340   35.1389   44.4140 H   0  0  0  0  0  0  0  0  0  0  0  0
   60.4450   33.6290   47.6103 H   0  0  0  0  0  0  0  0  0  0  0  0
   60.8396   32.5688   46.2150 H   0  0  0  0  0  0  0  0  0  0  0  0
   61.3657   34.2863   46.2150 H   0  0  0  0  0  0  0  0  0  0  0  0
   58.8673   29.8370   48.2158 H   0  0  0  0  0  0  0  0  0  0  0  0
   58.6832   27.4922   47.4190 H   0  0  0  0  0  0  0  0  0  0  0  0
   58.1518   26.4775   44.0282 H   0  0  0  0  0  0  0  0  0  0  0  0
   54.2500   26.7160   46.7440 H   0  0  0  0  0  0  0  0  0  0  0  0
  1  2  2  0
  2  3  1  0
  3  4  2  0
  4  5  1  0
  5  6  1  0
  6  7  2  0
  6  8  1  0
  8  9  1  0
  8 10  1  0
  4 11  1  0
 11 12  2  0
 12 13  1  0
 13 14  2  3
 14 15  1  0
 15 16  1  0
 16 17  1  0
 17 18  2  0
 17 19  1  0
 19 20  1  0
 20 21  1  0
 13  2  1  0
 20 15  2  0
  1 22  1  0
  1 23  1  0
  9 24  1  0
  9 25  1  0
  9 26  1  0
 10 27  1  0
 10 28  1  0
 10 29  1  0
 11 30  1  0
 12 31  1  0
 14 32  1  0
 21 33  1  0
M  CHG  2  16  -1  19  -1
M  END
>  <UniqueID>  (83) 
78

>  <SMILES>  (83) 
C=c1nc(OC(=O)N(C)C)ccc1=Cc1[n-]c(=O)[n-]c1O

>  <Energy>  (83) 
75.67736960490717

>  <Genealogy>  (83) 
C=c1nc(OC(=O)N(C)C)ccc1=Cc1[n-]c(=O)[n-]c1O (protonated)
C=c1nc(OC(=O)N(C)C)ccc1=Cc1[n-]c(=O)[n-]c1O (3D coordinates assigned)
C=c1nc(OC(=O)N(C)C)ccc1=Cc1[n-]c(=O)[n-]c1O (optimized conformer: 75.67736960490717 kcal/mol)

>  <smiles>  (83) 
C=c1nc(OC(=O)N(C)C)ccc1=Cc1[nH]c(=O)[nH]c1O

>  <score_type>  (83) 
oracle

>  <origin>  (83) 
adg

>  <m_score__min__energy>  (83) 
-11.68

>  <m_primary>  (83) 
energy

$$$$
83:0
     RDKit          3D

 67 70  0  0  0  0  0  0  0  0999 V2000
   65.2410   33.0340   49.6350 C   0  0  0  0  0  0  0  0  0  0  0  0
   64.0150   32.4790   49.0420 N   0  0  0  0  0  0  0  0  0  0  0  0
   62.9170   32.3980   50.0420 C   0  0  0  0  0  0  0  0  0  0  0  0
   61.8420   33.4790   49.8560 C   0  0  0  0  0  0  0  0  0  0  0  0
   61.3230   33.4480   48.4840 N   0  0  0  0  0  0  0  0  0  0  0  0
   60.0520   34.0600   48.1910 C   0  0  0  0  0  0  0  0  0  0  0  0
   59.6120   34.9700   48.9470 O   0  0  0  0  0  0  0  0  0  0  0  0
   59.2520   33.6600   47.0130 C   0  0  0  0  0  0  0  0  0  0  0  0
   58.8190   34.6160   46.0820 C   0  0  0  0  0  0  0  0  0  0  0  0
   58.0650   34.2290   44.9730 C   0  0  0  0  0  0  0  0  0  0  0  0
   57.7440   32.8840   44.7770 C   0  0  0  0  0  0  0  0  0  0  0  0
   58.1940   31.9080   45.6830 C   0  0  0  0  0  0  0  0  0  0  0  0
   57.8570   30.4770   45.4970 C   0  0  0  0  0  0  0  0  0  0  0  0
   56.6690   30.1630   45.2190 O   0  0  0  0  0  0  0  0  0  0  0  0
   58.8430   29.4380   45.5660 N   0  0  0  0  0  0  0  0  0  0  0  0
   59.4160   28.8830   46.7590 C   0  0  0  0  0  0  0  0  0  0  0  0
   59.8890   29.7710   47.7350 C   0  0  0  0  0  0  0  0  0  0  0  0
   60.3850   29.2920   48.9490 C   0  0  0  0  0  0  0  0  0  0  0  0
   60.4250   27.9180   49.1950 C   0  0  0  0  0  0  0  0  0  0  0  0
   61.1060   27.2650   50.8560 Br  0  0  0  0  0  0  0  0  0  0  0  0
   59.9930   27.0200   48.2160 C   0  0  0  0  0  0  0  0  0  0  0  0
   59.5090   27.4870   46.9830 C   0  0  0  0  0  0  0  0  0  0  0  0
   59.1770   26.4930   45.9390 C   0  0  0  0  0  0  0  0  0  0  0  0
   59.9830   25.5430   45.7410 O   0  0  0  0  0  0  0  0  0  0  0  0
   57.9880   26.6060   45.1260 N   0  0  0  0  0  0  0  0  0  0  0  0
   58.1020   26.3950   43.6790 C   0  0  0  0  0  0  0  0  0  0  0  0
   56.7430   27.1740   45.6720 C   0  0  0  0  0  0  0  0  0  0  0  0
   55.7550   26.1040   46.0650 C   0  0  0  0  0  0  0  0  0  0  0  0
   54.5170   26.3260   45.9930 O   0  0  0  0  0  0  0  0  0  0  0  0
   56.1990   24.8220   46.5250 N   0  0  0  0  0  0  0  0  0  0  0  0
   56.7760   23.8220   45.6790 C   0  0  0  0  0  0  0  0  0  0  0  0
   58.0700   23.3620   45.9550 C   0  0  0  0  0  0  0  0  0  0  0  0
   58.6620   22.3890   45.1430 C   0  0  0  0  0  0  0  0  0  0  0  0
   57.9560   21.8620   44.0590 C   0  0  0  0  0  0  0  0  0  0  0  0
   56.6550   22.2940   43.7930 C   0  0  0  0  0  0  0  0  0  0  0  0
   56.0540   23.2660   44.6030 C   0  0  0  0  0  0  0  0  0  0  0  0
   54.3800   23.7110   44.2910 Cl  0  0  0  0  0  0  0  0  0  0  0  0
   58.9400   32.3080   46.8040 C   0  0  0  0  0  0  0  0  0  0  0  0
   62.2060   33.0030   47.3980 C   0  0  0  0  0  0  0  0  0  0  0  0
   63.6710   33.2070   47.7980 C   0  0  0  0  0  0  0  0  0  0  0  0
   65.1657   32.9999   50.7319 H   0  0  0  0  0  0  0  0  0  0  0  0
   66.1076   32.4404   49.3083 H   0  0  0  0  0  0  0  0  0  0  0  0
   65.3668   34.0768   49.3083 H   0  0  0  0  0  0  0  0  0  0  0  0
   62.4382   31.4115   49.9551 H   0  0  0  0  0  0  0  0  0  0  0  0
   63.3679   32.5553   51.0329 H   0  0  0  0  0  0  0  0  0  0  0  0
   61.0173   33.2960   50.5605 H   0  0  0  0  0  0  0  0  0  0  0  0
   62.2887   34.4657   50.0481 H   0  0  0  0  0  0  0  0  0  0  0  0
   59.0750   35.6760   46.2268 H   0  0  0  0  0  0  0  0  0  0  0  0
   57.7227   34.9854   44.2514 H   0  0  0  0  0  0  0  0  0  0  0  0
   57.1362   32.5870   43.9096 H   0  0  0  0  0  0  0  0  0  0  0  0
   59.8692   30.8539   47.5429 H   0  0  0  0  0  0  0  0  0  0  0  0
   60.7446   29.9976   49.7124 H   0  0  0  0  0  0  0  0  0  0  0  0
   60.0322   25.9384   48.4124 H   0  0  0  0  0  0  0  0  0  0  0  0
   58.6168   25.4421   43.4868 H   0  0  0  0  0  0  0  0  0  0  0  0
   57.0971   26.3654   43.2325 H   0  0  0  0  0  0  0  0  0  0  0  0
   58.6775   27.2193   43.2325 H   0  0  0  0  0  0  0  0  0  0  0  0
   56.9871   27.7748   46.5605 H   0  0  0  0  0  0  0  0  0  0  0  0
   56.2799   27.7908   44.8877 H   0  0  0  0  0  0  0  0  0  0  0  0
   58.6234   23.7680   46.8146 H   0  0  0  0  0  0  0  0  0  0  0  0
   59.6825   22.0392   45.3579 H   0  0  0  0  0  0  0  0  0  0  0  0
   58.4258   21.1052   43.4136 H   0  0  0  0  0  0  0  0  0  0  0  0
   56.0998   21.8692   42.9437 H   0  0  0  0  0  0  0  0  0  0  0  0
   59.2835   31.5528   47.5262 H   0  0  0  0  0  0  0  0  0  0  0  0
   62.0281   31.9361   47.1977 H   0  0  0  0  0  0  0  0  0  0  0  0
   61.9927   33.5925   46.4941 H   0  0  0  0  0  0  0  0  0  0  0  0
   64.3151   32.8428   46.9841 H   0  0  0  0  0  0  0  0  0  0  0  0
   63.8266   34.2807   47.9795 H   0  0  0  0  0  0  0  0  0  0  0  0
  1  2  1  0
  2  3  1  0
  3  4  1  0
  4  5  1  0
  5  6  1  0
  6  7  2  0
  6  8  1  0
  8  9  2  0
  9 10  1  0
 10 11  2  0
 11 12  1  0
 12 13  1  0
 13 14  2  0
 13 15  1  0
 15 16  1  0
 16 17  2  0
 17 18  1  0
 18 19  2  0
 19 20  1  0
 19 21  1  0
 21 22  2  0
 22 23  1  0
 23 24  2  0
 23 25  1  0
 25 26  1  0
 25 27  1  0
 27 28  1  0
 28 29  2  0
 28 30  1  0
 30 31  1  0
 31 32  2  0
 32 33  1  0
 33 34  2  0
 34 35  1  0
 35 36  2  0
 36 37  1  0
 12 38  2  0
  5 39  1  0
 39 40  1  0
 40  2  1  0
 38  8  1  0
 22 16  1  0
 36 31  1  0
  1 41  1  0
  1 42  1  0
  1 43  1  0
  3 44  1  0
  3 45  1  0
  4 46  1  0
  4 47  1  0
  9 48  1  0
 10 49  1  0
 11 50  1  0
 17 51  1  0
 18 52  1  0
 21 53  1  0
 26 54  1  0
 26 55  1  0
 26 56  1  0
 27 57  1  0
 27 58  1  0
 32 59  1  0
 33 60  1  0
 34 61  1  0
 35 62  1  0
 38 63  1  0
 39 64  1  0
 39 65  1  0
 40 66  1  0
 40 67  1  0
M  CHG  2  15  -1  30  -1
M  END
>  <UniqueID>  (84) 
79

>  <SMILES>  (84) 
CN1CCN(C(=O)c2cccc(C(=O)[N-]c3ccc(Br)cc3C(=O)N(C)CC(=O)[N-]c3ccccc3Cl)c2)CC1

>  <Energy>  (84) 
100.66246892460934

>  <Genealogy>  (84) 
CN1CCN(C(=O)c2cccc(C(=O)[N-]c3ccc(Br)cc3C(=O)N(C)CC(=O)[N-]c3ccccc3Cl)c2)CC1 (protonated)
CN1CCN(C(=O)c2cccc(C(=O)[N-]c3ccc(Br)cc3C(=O)N(C)CC(=O)[N-]c3ccccc3Cl)c2)CC1 (3D coordinates assigned)
CN1CCN(C(=O)c2cccc(C(=O)[N-]c3ccc(Br)cc3C(=O)N(C)CC(=O)[N-]c3ccccc3Cl)c2)CC1 (nonaromatic ring conformer: 100.66246892460934 kcal/mol)

>  <smiles>  (84) 
CN1CCN(C(=O)c2cccc(C(=O)Nc3ccc(Br)cc3C(=O)N(C)CC(=O)Nc3ccccc3Cl)c2)CC1

>  <score_type>  (84) 
oracle

>  <origin>  (84) 
adg

>  <m_score__min__energy>  (84) 
-14.109999999999999

>  <m_primary>  (84) 
energy

$$$$
84:0
     RDKit          3D

 40 42  0  0  0  0  0  0  0  0999 V2000
   60.0340   27.2990   47.0940 C   0  0  0  0  0  0  0  0  0  0  0  0
   59.0080   26.6230   46.5590 C   0  0  0  0  0  0  0  0  0  0  0  0
   59.2220   25.3360   46.3050 O   0  0  0  0  0  0  0  0  0  0  0  0
   58.2680   24.4830   45.9630 C   0  0  0  0  0  0  0  0  0  0  0  0
   58.5780   23.2910   45.7060 O   0  0  0  0  0  0  0  0  0  0  0  0
   56.9340   24.9040   45.9090 C   0  0  0  0  0  0  0  0  0  0  0  0
   55.8360   23.9610   45.5790 C   0  0  0  0  0  0  0  0  0  0  0  0
   56.0780   23.0450   44.7460 O   0  0  0  0  0  0  0  0  0  0  0  0
   54.5160   24.0380   46.1840 N   0  0  0  0  0  0  0  0  0  0  0  0
   53.4790   24.2140   45.1270 C   0  0  0  0  0  0  0  0  0  0  0  0
   52.0950   23.7020   45.5460 C   0  0  0  0  0  0  0  0  0  0  0  0
   52.2090   22.2550   45.9210 C   0  0  0  0  0  0  0  0  0  0  0  0
   51.2850   21.4860   45.7070 O   0  0  0  0  0  0  0  0  0  0  0  0
   53.4680   21.7630   46.5690 C   0  0  0  0  0  0  0  0  0  0  0  0
   54.2430   22.9480   47.1670 C   0  0  0  0  0  0  0  0  0  0  0  0
   56.6590   26.2670   46.0790 C   0  0  0  0  0  0  0  0  0  0  0  0
   55.3440   26.7100   45.9430 O   0  0  0  0  0  0  0  0  0  0  0  0
   57.7070   27.1810   46.3410 C   0  0  0  0  0  0  0  0  0  0  0  0
   57.4170   28.5100   46.3490 C   0  0  0  0  0  0  0  0  0  0  0  0
   56.8740   29.2890   45.2190 C   0  0  0  0  0  0  0  0  0  0  0  0
   57.6100   29.9460   44.2480 C   0  0  0  0  0  0  0  0  0  0  0  0
   56.6970   30.4260   43.3300 C   0  0  0  0  0  0  0  0  0  0  0  0
   55.4510   30.0240   43.7660 C   0  0  0  0  0  0  0  0  0  0  0  0
   55.5650   29.3210   44.9070 N   0  0  0  0  0  0  0  0  0  0  0  0
   59.9253   28.3680   47.3293 H   0  0  0  0  0  0  0  0  0  0  0  0
   60.9849   26.7849   47.2978 H   0  0  0  0  0  0  0  0  0  0  0  0
   54.5150   24.9240   46.7460 H   0  0  0  0  0  0  0  0  0  0  0  0
   53.3986   25.2854   44.8913 H   0  0  0  0  0  0  0  0  0  0  0  0
   53.7965   23.6216   44.2562 H   0  0  0  0  0  0  0  0  0  0  0  0
   51.7324   24.2801   46.4087 H   0  0  0  0  0  0  0  0  0  0  0  0
   51.3856   23.8178   44.7134 H   0  0  0  0  0  0  0  0  0  0  0  0
   53.2133   21.0522   47.3689 H   0  0  0  0  0  0  0  0  0  0  0  0
   54.0935   21.2634   45.8146 H   0  0  0  0  0  0  0  0  0  0  0  0
   53.6537   23.3665   47.9962 H   0  0  0  0  0  0  0  0  0  0  0  0
   55.2174   22.5619   47.5009 H   0  0  0  0  0  0  0  0  0  0  0  0
   57.6048   29.0554   47.2856 H   0  0  0  0  0  0  0  0  0  0  0  0
   58.7033   30.0624   44.2144 H   0  0  0  0  0  0  0  0  0  0  0  0
   56.9195   31.0140   42.4274 H   0  0  0  0  0  0  0  0  0  0  0  0
   54.5026   30.2461   43.2548 H   0  0  0  0  0  0  0  0  0  0  0  0
   54.7840   28.8760   45.4390 H   0  0  0  0  0  0  0  0  0  0  0  0
  1  2  2  0
  2  3  1  0
  3  4  1  0
  4  5  2  0
  4  6  1  0
  6  7  1  0
  7  8  2  0
  7  9  1  0
  9 10  1  0
 10 11  1  0
 11 12  1  0
 12 13  2  0
 12 14  1  0
 14 15  1  0
  6 16  2  0
 16 17  1  0
 16 18  1  0
 18 19  2  3
 19 20  1  0
 20 21  2  0
 21 22  1  0
 22 23  2  0
 23 24  1  0
 18  2  1  0
 24 20  1  0
 15  9  1  0
  1 25  1  0
  1 26  1  0
  9 27  1  0
 10 28  1  0
 10 29  1  0
 11 30  1  0
 11 31  1  0
 14 32  1  0
 14 33  1  0
 15 34  1  0
 15 35  1  0
 19 36  1  0
 21 37  1  0
 22 38  1  0
 23 39  1  0
 24 40  1  0
M  CHG  2   9   1  17  -1
M  END
>  <UniqueID>  (85) 
80

>  <SMILES>  (85) 
C=c1oc(=O)c(C(=O)[NH+]2CCC(=O)CC2)c([O-])c1=Cc1ccc[nH]1

>  <Energy>  (85) 
108.11407074394074

>  <Genealogy>  (85) 
C=c1oc(=O)c(C(=O)[NH+]2CCC(=O)CC2)c([O-])c1=Cc1ccc[nH]1 (protonated)
C=c1oc(=O)c(C(=O)[NH+]2CCC(=O)CC2)c([O-])c1=Cc1ccc[nH]1 (3D coordinates assigned)
C=c1oc(=O)c(C(=O)[NH+]2CCC(=O)CC2)c([O-])c1=Cc1ccc[nH]1 (nonaromatic ring conformer: 108.11407074394074 kcal/mol)

>  <smiles>  (85) 
C=c1oc(=O)c(C(=O)N2CCC(=O)CC2)c(O)c1=Cc1ccc[nH]1

>  <score_type>  (85) 
oracle

>  <origin>  (85) 
adg

>  <m_score__min__energy>  (85) 
-9.7799999999999994

>  <m_primary>  (85) 
energy

$$$$
85:0
     RDKit          3D

 51 54  0  0  0  0  0  0  0  0999 V2000
   59.8800   29.2830   51.8110 H   0  0  0  0  0  0  0  0  0  0  0  0
   60.1670   28.5480   51.2110 O   0  0  0  0  0  0  0  0  0  0  0  0
   61.3220   29.0030   50.5640 C   0  0  0  0  0  0  0  0  0  0  0  0
   61.4318   28.4848   49.5999 H   0  0  0  0  0  0  0  0  0  0  0  0
   62.2020   28.7959   51.1906 H   0  0  0  0  0  0  0  0  0  0  0  0
   61.2050   30.5130   50.3240 C   0  0  0  0  0  0  0  0  0  0  0  0
   59.9380   31.1570   50.7780 N   0  0  0  0  0  0  0  0  0  0  0  0
   60.1890   32.1870   51.8130 C   0  0  0  0  0  0  0  0  0  0  0  0
   61.0757   32.7683   51.5200 H   0  0  0  0  0  0  0  0  0  0  0  0
   60.3366   31.6617   52.7681 H   0  0  0  0  0  0  0  0  0  0  0  0
   59.0070   33.1580   52.0020 C   0  0  0  0  0  0  0  0  0  0  0  0
   59.1648   34.0305   51.3509 H   0  0  0  0  0  0  0  0  0  0  0  0
   58.9798   33.4336   53.0666 H   0  0  0  0  0  0  0  0  0  0  0  0
   57.6990   32.5590   51.6730 N   0  0  0  0  0  0  0  0  0  0  0  0
   57.0210   33.3600   51.6780 H   0  0  0  0  0  0  0  0  0  0  0  0
   57.2390   31.6400   52.7020 C   0  0  0  0  0  0  0  0  0  0  0  0
   57.9590   31.4440   53.7190 O   0  0  0  0  0  0  0  0  0  0  0  0
   55.9880   30.8590   52.5870 C   0  0  0  0  0  0  0  0  0  0  0  0
   54.7530   31.3830   52.2560 C   0  0  0  0  0  0  0  0  0  0  0  0
   54.5421   32.4174   51.9469 H   0  0  0  0  0  0  0  0  0  0  0  0
   53.8280   30.3540   52.3880 C   0  0  0  0  0  0  0  0  0  0  0  0
   52.4950   30.4220   52.1810 C   0  0  0  0  0  0  0  0  0  0  0  0
   51.8422   30.1616   53.0272 H   0  0  0  0  0  0  0  0  0  0  0  0
   51.8350   30.8160   50.9160 C   0  0  0  0  0  0  0  0  0  0  0  0
   51.7400   30.0660   49.8050 N   0  0  0  0  0  0  0  0  0  0  0  0
   51.0200   30.8380   48.9620 C   0  0  0  0  0  0  0  0  0  0  0  0
   50.7220   30.4720   47.7960 O   0  0  0  0  0  0  0  0  0  0  0  0
   50.6420   32.0290   49.4680 N   0  0  0  0  0  0  0  0  0  0  0  0
   51.1620   31.9980   50.7040 C   0  0  0  0  0  0  0  0  0  0  0  0
   51.0160   33.0260   51.6270 O   0  0  0  0  0  0  0  0  0  0  0  0
   54.5540   29.2350   52.8110 C   0  0  0  0  0  0  0  0  0  0  0  0
   54.0610   28.0110   53.0620 C   0  0  0  0  0  0  0  0  0  0  0  0
   54.7326   27.2044   53.3913 H   0  0  0  0  0  0  0  0  0  0  0  0
   52.9857   27.8152   52.9383 H   0  0  0  0  0  0  0  0  0  0  0  0
   55.8650   29.5570   52.9360 N   0  0  0  0  0  0  0  0  0  0  0  0
   56.9460   28.6650   53.3720 C   0  0  0  0  0  0  0  0  0  0  0  0
   56.9784   28.6382   54.4712 H   0  0  0  0  0  0  0  0  0  0  0  0
   56.7632   27.6514   52.9858 H   0  0  0  0  0  0  0  0  0  0  0  0
   57.9065   29.0369   52.9858 H   0  0  0  0  0  0  0  0  0  0  0  0
   57.6410   31.9900   50.3020 C   0  0  0  0  0  0  0  0  0  0  0  0
   57.1786   32.7350   49.6378 H   0  0  0  0  0  0  0  0  0  0  0  0
   57.0569   31.0602   50.3682 H   0  0  0  0  0  0  0  0  0  0  0  0
   59.0170   31.6110   49.7210 C   0  0  0  0  0  0  0  0  0  0  0  0
   59.4499   32.4906   49.2221 H   0  0  0  0  0  0  0  0  0  0  0  0
   58.8768   30.7874   49.0054 H   0  0  0  0  0  0  0  0  0  0  0  0
   62.4830   31.3430   50.4730 C   0  0  0  0  0  0  0  0  0  0  0  0
   62.4291   32.3665   50.8724 H   0  0  0  0  0  0  0  0  0  0  0  0
   63.4490   31.1948   50.9780 H   0  0  0  0  0  0  0  0  0  0  0  0
   61.9420   31.0410   49.0820 C   0  0  0  0  0  0  0  0  0  0  0  0
   61.4962   31.8456   48.4787 H   0  0  0  0  0  0  0  0  0  0  0  0
   62.3537   30.5848   48.1697 H   0  0  0  0  0  0  0  0  0  0  0  0
  1  2  1  0
  2  3  1  0
  3  4  1  0
  3  5  1  0
  3  6  1  0
  6  7  1  0
  7  8  1  0
  8  9  1  0
  8 10  1  0
  8 11  1  0
 11 12  1  0
 11 13  1  0
 11 14  1  0
 14 15  1  0
 14 16  1  0
 16 17  2  0
 16 18  1  0
 18 19  2  0
 19 20  1  0
 19 21  1  0
 21 22  2  0
 22 23  1  0
 22 24  1  0
 24 25  1  0
 25 26  1  0
 26 27  2  0
 26 28  1  0
 28 29  1  0
 29 30  1  0
 21 31  1  0
 31 32  2  0
 32 33  1  0
 32 34  1  0
 31 35  1  0
 35 36  1  0
 36 37  1  0
 36 38  1  0
 36 39  1  0
 14 40  1  0
 40 41  1  0
 40 42  1  0
 40 43  1  0
 43 44  1  0
 43 45  1  0
  6 46  1  0
 46 47  1  0
 46 48  1  0
 46 49  1  0
 49 50  1  0
 49 51  1  0
 49  6  1  0
 43  7  1  0
 35 18  1  0
 29 24  2  0
M  CHG  4  14   1  25  -1  28  -1  30  -1
M  END
>  <UniqueID>  (86) 
81

>  <SMILES>  (86) 
C=c1/c(=C/c2[n-]c(=O)[n-]c2[O-])cc(C(=O)[NH+]2CCN(C3(CO)CC3)CC2)n1C

>  <Energy>  (86) 
409.3701645469052

>  <Genealogy>  (86) 
C=c1c(=Cc2[n-]c(=O)[n-]c2[O-])cc(C(=O)[NH+]2CCN(C3(CO)CC3)CC2)n1C (protonated)
C=c1/c(=C/c2[n-]c(=O)[n-]c2[O-])cc(C(=O)[NH+]2CCN(C3(CO)CC3)CC2)n1C (cis-trans isomerization)
C=c1/c(=C/c2[n-]c(=O)[n-]c2[O-])cc(C(=O)[NH+]2CCN(C3(CO)CC3)CC2)n1C (3D coordinates assigned)
C=c1/c(=C/c2[n-]c(=O)[n-]c2[O-])cc(C(=O)[NH+]2CCN(C3(CO)CC3)CC2)n1C (nonaromatic ring conformer: 409.3701645469052 kcal/mol)

>  <smiles>  (86) 
C=c1c(=Cc2[nH]c(=O)[nH]c2O)cc(C(=O)N2CCN(C3(CO)CC3)CC2)n1C

>  <score_type>  (86) 
oracle

>  <origin>  (86) 
adg

>  <m_score__min__energy>  (86) 
-15.26

>  <m_primary>  (86) 
energy

$$$$
86:0
     RDKit          3D

 35 36  0  0  0  0  0  0  0  0999 V2000
   59.2840   35.3560   45.0040 C   0  0  0  0  0  0  0  0  0  0  0  0
   59.5080   35.2900   46.5150 C   0  0  0  0  0  0  0  0  0  0  0  0
   59.0210   34.0110   47.0780 N   0  0  0  0  0  0  0  0  0  0  0  0
   59.9530   32.8870   46.7840 C   0  0  0  0  0  0  0  0  0  0  0  0
   59.2410   31.5370   46.6470 C   0  0  0  0  0  0  0  0  0  0  0  0
   58.2240   31.6310   45.5930 N   0  0  0  0  0  0  0  0  0  0  0  0
   58.0580   30.5840   44.6190 C   0  0  0  0  0  0  0  0  0  0  0  0
   57.7820   30.8870   43.4260 O   0  0  0  0  0  0  0  0  0  0  0  0
   58.1930   29.1560   44.9780 C   0  0  0  0  0  0  0  0  0  0  0  0
   59.4140   28.5250   45.2170 C   0  0  0  0  0  0  0  0  0  0  0  0
   59.1150   26.9250   45.6410 S   0  0  0  0  0  0  0  0  0  0  0  0
   57.4430   27.0220   45.5290 C   0  0  0  0  0  0  0  0  0  0  0  0
   56.3300   25.7090   45.8610 S   0  0  0  0  0  0  0  0  0  0  0  0
   54.7250   26.3340   45.9960 N   0  0  0  0  0  0  0  0  0  0  0  0
   56.7170   25.0350   47.1470 O   0  0  0  0  0  0  0  0  0  0  0  0
   56.3920   24.7060   44.7440 O   0  0  0  0  0  0  0  0  0  0  0  0
   57.0860   28.3110   45.1680 C   0  0  0  0  0  0  0  0  0  0  0  0
   57.4840   32.8870   45.4320 C   0  0  0  0  0  0  0  0  0  0  0  0
   57.6090   33.7520   46.6930 C   0  0  0  0  0  0  0  0  0  0  0  0
   58.2471   35.6615   44.8000 H   0  0  0  0  0  0  0  0  0  0  0  0
   59.9757   36.0885   44.5624 H   0  0  0  0  0  0  0  0  0  0  0  0
   59.4680   34.3655   44.5624 H   0  0  0  0  0  0  0  0  0  0  0  0
   60.5842   35.3852   46.7217 H   0  0  0  0  0  0  0  0  0  0  0  0
   58.9461   36.1110   46.9843 H   0  0  0  0  0  0  0  0  0  0  0  0
   60.4769   33.1039   45.8414 H   0  0  0  0  0  0  0  0  0  0  0  0
   60.6486   32.8068   47.6324 H   0  0  0  0  0  0  0  0  0  0  0  0
   59.9736   30.7601   46.3828 H   0  0  0  0  0  0  0  0  0  0  0  0
   58.7604   31.2748   47.6011 H   0  0  0  0  0  0  0  0  0  0  0  0
   60.4057   28.9949   45.1409 H   0  0  0  0  0  0  0  0  0  0  0  0
   54.7520   27.0910   46.7150 H   0  0  0  0  0  0  0  0  0  0  0  0
   56.0436   28.6393   45.0429 H   0  0  0  0  0  0  0  0  0  0  0  0
   57.8918   33.4394   44.5726 H   0  0  0  0  0  0  0  0  0  0  0  0
   56.4219   32.6543   45.2650 H   0  0  0  0  0  0  0  0  0  0  0  0
   57.1129   34.7162   46.5080 H   0  0  0  0  0  0  0  0  0  0  0  0
   57.1367   33.2012   47.5198 H   0  0  0  0  0  0  0  0  0  0  0  0
  1  2  1  0
  2  3  1  0
  3  4  1  0
  4  5  1  0
  5  6  1  0
  6  7  1  0
  7  8  2  0
  7  9  1  0
  9 10  2  0
 10 11  1  0
 11 12  1  0
 12 13  1  0
 13 14  1  0
 13 15  2  0
 13 16  2  0
 12 17  2  0
  6 18  1  0
 18 19  1  0
 19  3  1  0
 17  9  1  0
  1 20  1  0
  1 21  1  0
  1 22  1  0
  2 23  1  0
  2 24  1  0
  4 25  1  0
  4 26  1  0
  5 27  1  0
  5 28  1  0
 10 29  1  0
 14 30  1  0
 17 31  1  0
 18 32  1  0
 18 33  1  0
 19 34  1  0
 19 35  1  0
M  CHG  1  14  -1
M  END
>  <UniqueID>  (87) 
82

>  <SMILES>  (87) 
CCN1CCN(C(=O)c2csc(S([NH-])(=O)=O)c2)CC1

>  <Energy>  (87) 
68.80588518926909

>  <Genealogy>  (87) 
CCN1CCN(C(=O)c2csc(S([NH-])(=O)=O)c2)CC1 (protonated)
CCN1CCN(C(=O)c2csc(S([NH-])(=O)=O)c2)CC1 (3D coordinates assigned)
CCN1CCN(C(=O)c2csc(S([NH-])(=O)=O)c2)CC1 (nonaromatic ring conformer: 68.80588518926909 kcal/mol)

>  <smiles>  (87) 
CCN1CCN(C(=O)c2csc(S(N)(=O)=O)c2)CC1

>  <score_type>  (87) 
oracle

>  <origin>  (87) 
adg

>  <m_score__min__energy>  (87) 
-10.09

>  <m_primary>  (87) 
energy

$$$$
87:0
     RDKit          3D

 53 55  0  0  0  0  0  0  0  0999 V2000
   59.2350   33.3680   50.8780 H   0  0  0  0  0  0  0  0  0  0  0  0
   59.6970   33.2220   49.9890 O   0  0  0  0  0  0  0  0  0  0  0  0
   59.9470   31.9420   49.4940 C   0  0  0  0  0  0  0  0  0  0  0  0
   60.8600   31.7850   48.4410 C   0  0  0  0  0  0  0  0  0  0  0  0
   61.3641   32.6680   48.0212 H   0  0  0  0  0  0  0  0  0  0  0  0
   61.1350   30.5210   47.9210 C   0  0  0  0  0  0  0  0  0  0  0  0
   61.8659   30.4105   47.1064 H   0  0  0  0  0  0  0  0  0  0  0  0
   60.4830   29.3900   48.4330 C   0  0  0  0  0  0  0  0  0  0  0  0
   60.7750   28.0340   47.9190 C   0  0  0  0  0  0  0  0  0  0  0  0
   61.5591   27.4572   48.4313 H   0  0  0  0  0  0  0  0  0  0  0  0
   60.1600   27.4500   46.8770 C   0  0  0  0  0  0  0  0  0  0  0  0
   60.6772   26.6098   46.3906 H   0  0  0  0  0  0  0  0  0  0  0  0
   58.8430   27.8460   46.3310 C   0  0  0  0  0  0  0  0  0  0  0  0
   57.7840   26.9270   46.2300 C   0  0  0  0  0  0  0  0  0  0  0  0
   57.9208   25.8931   46.5797 H   0  0  0  0  0  0  0  0  0  0  0  0
   56.5600   27.3210   45.6880 C   0  0  0  0  0  0  0  0  0  0  0  0
   55.7309   26.6006   45.6280 H   0  0  0  0  0  0  0  0  0  0  0  0
   56.3820   28.6260   45.2210 C   0  0  0  0  0  0  0  0  0  0  0  0
   55.1520   28.9970   44.6880 O   0  0  0  0  0  0  0  0  0  0  0  0
   57.4420   29.5490   45.2880 C   0  0  0  0  0  0  0  0  0  0  0  0
   57.2690   30.9540   44.7660 C   0  0  0  0  0  0  0  0  0  0  0  0
   57.2337   30.9297   43.6668 H   0  0  0  0  0  0  0  0  0  0  0  0
   56.3326   31.3690   45.1673 H   0  0  0  0  0  0  0  0  0  0  0  0
   58.3930   31.8100   45.1970 N   0  0  0  0  0  0  0  0  0  0  0  0
   58.5270   32.9830   44.3040 C   0  0  0  0  0  0  0  0  0  0  0  0
   59.0589   32.6796   43.3902 H   0  0  0  0  0  0  0  0  0  0  0  0
   57.5201   33.3533   44.0612 H   0  0  0  0  0  0  0  0  0  0  0  0
   59.3080   34.1110   44.9860 C   0  0  0  0  0  0  0  0  0  0  0  0
   60.2899   33.7282   45.3011 H   0  0  0  0  0  0  0  0  0  0  0  0
   59.4259   34.9366   44.2687 H   0  0  0  0  0  0  0  0  0  0  0  0
   58.5840   34.6210   46.1740 N   0  0  0  0  0  0  0  0  0  0  0  0
   59.5170   35.2750   47.1030 C   0  0  0  0  0  0  0  0  0  0  0  0
   59.2130   35.0619   48.1385 H   0  0  0  0  0  0  0  0  0  0  0  0
   60.5336   34.8908   46.9328 H   0  0  0  0  0  0  0  0  0  0  0  0
   59.5025   36.3617   46.9328 H   0  0  0  0  0  0  0  0  0  0  0  0
   57.7670   33.5900   46.8600 C   0  0  0  0  0  0  0  0  0  0  0  0
   57.7646   33.8018   47.9394 H   0  0  0  0  0  0  0  0  0  0  0  0
   56.7518   33.6317   46.4387 H   0  0  0  0  0  0  0  0  0  0  0  0
   58.3090   32.1680   46.6370 C   0  0  0  0  0  0  0  0  0  0  0  0
   59.3152   32.1011   47.0764 H   0  0  0  0  0  0  0  0  0  0  0  0
   57.6110   31.4655   47.1158 H   0  0  0  0  0  0  0  0  0  0  0  0
   58.6720   29.1460   45.8350 C   0  0  0  0  0  0  0  0  0  0  0  0
   59.5095   29.8581   45.8744 H   0  0  0  0  0  0  0  0  0  0  0  0
   59.5940   29.5380   49.5060 C   0  0  0  0  0  0  0  0  0  0  0  0
   59.1151   28.6466   49.9374 H   0  0  0  0  0  0  0  0  0  0  0  0
   59.3020   30.8090   50.0430 C   0  0  0  0  0  0  0  0  0  0  0  0
   58.3320   30.9170   51.1670 C   0  0  0  0  0  0  0  0  0  0  0  0
   57.3780   30.0940   51.2550 O   0  0  0  0  0  0  0  0  0  0  0  0
   58.4580   31.9460   52.1530 N   0  0  0  0  0  0  0  0  0  0  0  0
   57.4320   32.9520   52.3820 C   0  0  0  0  0  0  0  0  0  0  0  0
   57.2900   33.0912   53.4639 H   0  0  0  0  0  0  0  0  0  0  0  0
   57.7440   33.9040   51.9276 H   0  0  0  0  0  0  0  0  0  0  0  0
   56.4864   32.6213   51.9276 H   0  0  0  0  0  0  0  0  0  0  0  0
  1  2  1  0
  2  3  1  0
  3  4  2  0
  4  5  1  0
  4  6  1  0
  6  7  1  0
  6  8  2  0
  8  9  1  0
  9 10  1  0
  9 11  2  0
 11 12  1  0
 11 13  1  0
 13 14  2  0
 14 15  1  0
 14 16  1  0
 16 17  1  0
 16 18  2  0
 18 19  1  0
 18 20  1  0
 20 21  1  0
 21 22  1  0
 21 23  1  0
 21 24  1  0
 24 25  1  0
 25 26  1  0
 25 27  1  0
 25 28  1  0
 28 29  1  0
 28 30  1  0
 28 31  1  0
 31 32  1  0
 32 33  1  0
 32 34  1  0
 32 35  1  0
 31 36  1  0
 36 37  1  0
 36 38  1  0
 36 39  1  0
 39 40  1  0
 39 41  1  0
 20 42  2  0
 42 43  1  0
  8 44  1  0
 44 45  1  0
 44 46  2  0
 46 47  1  0
 47 48  2  0
 47 49  1  0
 49 50  1  0
 50 51  1  0
 50 52  1  0
 50 53  1  0
 46  3  1  0
 42 13  1  0
 39 24  1  0
M  CHG  2  19  -1  49  -1
M  END
>  <UniqueID>  (88) 
83

>  <SMILES>  (88) 
C[N-]C(=O)c1cc(/C=C\c2ccc([O-])c(CN3CCN(C)CC3)c2)ccc1O

>  <Energy>  (88) 
75.94493643211125

>  <Genealogy>  (88) 
C[N-]C(=O)c1cc(C=Cc2ccc([O-])c(CN3CCN(C)CC3)c2)ccc1O (protonated)
C[N-]C(=O)c1cc(/C=C\c2ccc([O-])c(CN3CCN(C)CC3)c2)ccc1O (cis-trans isomerization)
C[N-]C(=O)c1cc(/C=C\c2ccc([O-])c(CN3CCN(C)CC3)c2)ccc1O (3D coordinates assigned)
C[N-]C(=O)c1cc(/C=C\c2ccc([O-])c(CN3CCN(C)CC3)c2)ccc1O (nonaromatic ring conformer: 75.94493643211125 kcal/mol)

>  <smiles>  (88) 
CNC(=O)c1cc(C=Cc2ccc(O)c(CN3CCN(C)CC3)c2)ccc1O

>  <score_type>  (88) 
oracle

>  <origin>  (88) 
adg

>  <m_score__min__energy>  (88) 
-12.08

>  <m_primary>  (88) 
energy

$$$$
88:0
     RDKit          3D

 35 37  0  0  0  0  0  0  0  0999 V2000
   54.9960   27.4706   53.5432 H   0  0  0  0  0  0  0  0  0  0  0  0
   54.2880   28.2320   53.1840 C   0  0  0  0  0  0  0  0  0  0  0  0
   53.2170   27.9936   53.1052 H   0  0  0  0  0  0  0  0  0  0  0  0
   54.7320   29.4550   52.8410 C   0  0  0  0  0  0  0  0  0  0  0  0
   53.9360   30.5120   52.3700 C   0  0  0  0  0  0  0  0  0  0  0  0
   52.5970   30.5020   52.1880 C   0  0  0  0  0  0  0  0  0  0  0  0
   51.9763   30.2040   53.0458 H   0  0  0  0  0  0  0  0  0  0  0  0
   51.8920   30.8570   50.9350 C   0  0  0  0  0  0  0  0  0  0  0  0
   51.7790   30.0790   49.8430 N   0  0  0  0  0  0  0  0  0  0  0  0
   51.0220   30.8190   49.0050 C   0  0  0  0  0  0  0  0  0  0  0  0
   50.6970   30.4220   47.8560 O   0  0  0  0  0  0  0  0  0  0  0  0
   50.6360   32.0150   49.4970 N   0  0  0  0  0  0  0  0  0  0  0  0
   51.1910   32.0200   50.7190 C   0  0  0  0  0  0  0  0  0  0  0  0
   51.0580   33.0690   51.6200 O   0  0  0  0  0  0  0  0  0  0  0  0
   54.8010   31.5740   52.1480 C   0  0  0  0  0  0  0  0  0  0  0  0
   54.5303   32.5718   51.7723 H   0  0  0  0  0  0  0  0  0  0  0  0
   56.0640   31.1400   52.4880 C   0  0  0  0  0  0  0  0  0  0  0  0
   57.3010   31.9790   52.3590 C   0  0  0  0  0  0  0  0  0  0  0  0
   57.6771   32.2341   53.3607 H   0  0  0  0  0  0  0  0  0  0  0  0
   58.0706   31.4157   51.8108 H   0  0  0  0  0  0  0  0  0  0  0  0
   57.0623   32.9023   51.8108 H   0  0  0  0  0  0  0  0  0  0  0  0
   56.0360   29.8490   52.8960 N   0  0  0  0  0  0  0  0  0  0  0  0
   57.2160   29.0700   53.3110 C   0  0  0  0  0  0  0  0  0  0  0  0
   57.5545   29.4266   54.2950 H   0  0  0  0  0  0  0  0  0  0  0  0
   56.9344   28.0079   53.3618 H   0  0  0  0  0  0  0  0  0  0  0  0
   58.3350   29.2210   52.3230 C   0  0  0  0  0  0  0  0  0  0  0  0
   58.1430   29.3610   51.0000 N   0  0  0  0  0  0  0  0  0  0  0  0
   59.3920   29.4470   50.4940 C   0  0  0  0  0  0  0  0  0  0  0  0
   59.5990   29.5677   49.4204 H   0  0  0  0  0  0  0  0  0  0  0  0
   60.3630   29.3710   51.4290 N   0  0  0  0  0  0  0  0  0  0  0  0
   59.6890   29.2350   52.5850 C   0  0  0  0  0  0  0  0  0  0  0  0
   60.3510   29.0860   53.9160 C   0  0  0  0  0  0  0  0  0  0  0  0
   59.6121   29.2523   54.7137 H   0  0  0  0  0  0  0  0  0  0  0  0
   60.7670   28.0718   54.0071 H   0  0  0  0  0  0  0  0  0  0  0  0
   61.1614   29.8242   54.0071 H   0  0  0  0  0  0  0  0  0  0  0  0
  1  2  1  0
  2  3  1  0
  2  4  2  0
  4  5  1  0
  5  6  2  0
  6  7  1  0
  6  8  1  0
  8  9  1  0
  9 10  1  0
 10 11  2  0
 10 12  1  0
 12 13  1  0
 13 14  1  0
  5 15  1  0
 15 16  1  0
 15 17  2  0
 17 18  1  0
 18 19  1  0
 18 20  1  0
 18 21  1  0
 17 22  1  0
 22 23  1  0
 23 24  1  0
 23 25  1  0
 23 26  1  0
 26 27  1  0
 27 28  2  0
 28 29  1  0
 28 30  1  0
 30 31  1  0
 31 32  1  0
 32 33  1  0
 32 34  1  0
 32 35  1  0
 22  4  1  0
 31 26  2  0
 13  8  2  0
M  CHG  4   9  -1  12  -1  14  -1  30  -1
M  END
>  <UniqueID>  (89) 
84

>  <SMILES>  (89) 
C=c1/c(=C/c2[n-]c(=O)[n-]c2[O-])cc(C)n1Cc1nc[n-]c1C

>  <Energy>  (89) 
125.13897619869489

>  <Genealogy>  (89) 
C=c1c(=Cc2[n-]c(=O)[n-]c2[O-])cc(C)n1Cc1nc[n-]c1C (protonated)
C=c1/c(=C/c2[n-]c(=O)[n-]c2[O-])cc(C)n1Cc1nc[n-]c1C (cis-trans isomerization)
C=c1/c(=C/c2[n-]c(=O)[n-]c2[O-])cc(C)n1Cc1nc[n-]c1C (3D coordinates assigned)
C=c1/c(=C/c2[n-]c(=O)[n-]c2[O-])cc(C)n1Cc1nc[n-]c1C (optimized conformer: 125.13897619869489 kcal/mol)

>  <smiles>  (89) 
C=c1c(=Cc2[nH]c(=O)[nH]c2O)cc(C)n1Cc1nc[nH]c1C

>  <score_type>  (89) 
oracle

>  <origin>  (89) 
adg

>  <m_score__min__energy>  (89) 
-16.280000000000001

>  <m_primary>  (89) 
energy

$$$$
89:0
     RDKit          3D

 58 61  0  0  0  0  0  0  0  0999 V2000
   59.4910   27.3510   46.8650 H   0  0  0  0  0  0  0  0  0  0  0  0
   59.9410   27.3950   47.7700 O   0  0  0  0  0  0  0  0  0  0  0  0
   59.7430   28.4830   48.6190 C   0  0  0  0  0  0  0  0  0  0  0  0
   60.1310   28.3980   49.9160 N   0  0  0  0  0  0  0  0  0  0  0  0
   59.9280   29.4180   50.7880 C   0  0  0  0  0  0  0  0  0  0  0  0
   60.3090   29.2870   51.9820 O   0  0  0  0  0  0  0  0  0  0  0  0
   59.2940   30.5610   50.3770 N   0  0  0  0  0  0  0  0  0  0  0  0
   59.0560   31.6300   51.3150 C   0  0  0  0  0  0  0  0  0  0  0  0
   58.0360   31.5160   52.2720 C   0  0  0  0  0  0  0  0  0  0  0  0
   57.4359   30.5958   52.3277 H   0  0  0  0  0  0  0  0  0  0  0  0
   57.7810   32.5700   53.1550 C   0  0  0  0  0  0  0  0  0  0  0  0
   56.9762   32.4802   53.8995 H   0  0  0  0  0  0  0  0  0  0  0  0
   58.5470   33.7370   53.0930 C   0  0  0  0  0  0  0  0  0  0  0  0
   58.3391   34.5678   53.7833 H   0  0  0  0  0  0  0  0  0  0  0  0
   59.5770   33.8500   52.1550 C   0  0  0  0  0  0  0  0  0  0  0  0
   60.1880   34.7639   52.1158 H   0  0  0  0  0  0  0  0  0  0  0  0
   59.8300   32.8010   51.2670 C   0  0  0  0  0  0  0  0  0  0  0  0
   60.6389   32.8928   50.5272 H   0  0  0  0  0  0  0  0  0  0  0  0
   58.8760   30.6820   49.0750 C   0  0  0  0  0  0  0  0  0  0  0  0
   58.2450   31.7130   48.7060 O   0  0  0  0  0  0  0  0  0  0  0  0
   59.1400   29.6570   48.1490 C   0  0  0  0  0  0  0  0  0  0  0  0
   58.7380   29.7720   46.7260 C   0  0  0  0  0  0  0  0  0  0  0  0
   58.0930   28.8220   46.2050 O   0  0  0  0  0  0  0  0  0  0  0  0
   59.0840   30.9840   45.8790 C   0  0  1  0  0  0  0  0  0  0  0  0
   59.3555   30.6085   44.8813 H   0  0  0  0  0  0  0  0  0  0  0  0
   57.8960   31.8960   45.7650 C   0  0  0  0  0  0  0  0  0  0  0  0
   56.9330   31.5720   45.0840 O   0  0  0  0  0  0  0  0  0  0  0  0
   57.8940   33.1970   46.5090 C   0  0  0  0  0  0  0  0  0  0  0  0
   57.9383   32.9957   47.5895 H   0  0  0  0  0  0  0  0  0  0  0  0
   56.9732   33.7457   46.2619 H   0  0  0  0  0  0  0  0  0  0  0  0
   59.1150   34.0600   46.1010 C   0  0  0  0  0  0  0  0  0  0  0  0
   59.2620   35.2030   47.1300 C   0  0  0  0  0  0  0  0  0  0  0  0
   59.2088   34.7892   48.1478 H   0  0  0  0  0  0  0  0  0  0  0  0
   60.2318   35.7023   46.9874 H   0  0  0  0  0  0  0  0  0  0  0  0
   58.4501   35.9314   46.9874 H   0  0  0  0  0  0  0  0  0  0  0  0
   58.8480   34.6920   44.7160 C   0  0  0  0  0  0  0  0  0  0  0  0
   58.4230   35.6980   44.8478 H   0  0  0  0  0  0  0  0  0  0  0  0
   59.7928   34.7634   44.1573 H   0  0  0  0  0  0  0  0  0  0  0  0
   58.1381   34.0644   44.1573 H   0  0  0  0  0  0  0  0  0  0  0  0
   60.4450   33.2210   46.0460 C   0  0  0  0  0  0  0  0  0  0  0  0
   61.1600   33.6672   46.7529 H   0  0  0  0  0  0  0  0  0  0  0  0
   60.7877   33.2539   45.0013 H   0  0  0  0  0  0  0  0  0  0  0  0
   60.2880   31.7440   46.3990 C   0  0  0  0  0  0  0  0  0  0  0  0
   61.2460   31.0760   46.9820 N   0  0  0  0  0  0  0  0  0  0  0  0
   62.2340   31.6220   47.8650 C   0  0  0  0  0  0  0  0  0  0  0  0
   63.1630   32.5450   47.3690 C   0  0  0  0  0  0  0  0  0  0  0  0
   63.1274   32.8458   46.3115 H   0  0  0  0  0  0  0  0  0  0  0  0
   64.1360   33.0850   48.2160 C   0  0  0  0  0  0  0  0  0  0  0  0
   64.8784   33.7918   47.8170 H   0  0  0  0  0  0  0  0  0  0  0  0
   64.1690   32.7290   49.5720 C   0  0  0  0  0  0  0  0  0  0  0  0
   65.2360   33.2730   50.4740 C   0  0  0  0  0  0  0  0  0  0  0  0
   64.9411   33.1226   51.5230 H   0  0  0  0  0  0  0  0  0  0  0  0
   66.1828   32.7476   50.2804 H   0  0  0  0  0  0  0  0  0  0  0  0
   65.3669   34.3479   50.2804 H   0  0  0  0  0  0  0  0  0  0  0  0
   63.2330   31.8070   50.0650 C   0  0  0  0  0  0  0  0  0  0  0  0
   63.2609   31.5132   51.1247 H   0  0  0  0  0  0  0  0  0  0  0  0
   62.2660   31.2600   49.2180 C   0  0  0  0  0  0  0  0  0  0  0  0
   61.5296   30.5449   49.6135 H   0  0  0  0  0  0  0  0  0  0  0  0
  1  2  1  0
  2  3  1  0
  3  4  1  0
  4  5  1  0
  5  6  2  0
  5  7  1  0
  7  8  1  0
  8  9  2  0
  9 10  1  0
  9 11  1  0
 11 12  1  0
 11 13  2  0
 13 14  1  0
 13 15  1  0
 15 16  1  0
 15 17  2  0
 17 18  1  0
  7 19  1  0
 19 20  2  0
 19 21  1  0
 21 22  1  0
 22 23  2  0
 22 24  1  0
 24 25  1  6
 24 26  1  0
 26 27  2  0
 26 28  1  0
 28 29  1  0
 28 30  1  0
 28 31  1  0
 31 32  1  0
 32 33  1  0
 32 34  1  0
 32 35  1  0
 31 36  1  0
 36 37  1  0
 36 38  1  0
 36 39  1  0
 31 40  1  0
 40 41  1  0
 40 42  1  0
 40 43  1  0
 43 44  2  0
 44 45  1  0
 45 46  2  0
 46 47  1  0
 46 48  1  0
 48 49  1  0
 48 50  2  0
 50 51  1  0
 51 52  1  0
 51 53  1  0
 51 54  1  0
 50 55  1  0
 55 56  1  0
 55 57  2  0
 57 58  1  0
 21  3  2  0
 43 24  1  0
 57 45  1  0
 17  8  1  0
M  CHG  1   4  -1
M  END
>  <UniqueID>  (90) 
85

>  <SMILES>  (90) 
Cc1ccc(/N=C2\CC(C)(C)CC(=O)[C@@H]2C(=O)c2c(O)[n-]c(=O)n(-c3ccccc3)c2=O)cc1

>  <Energy>  (90) 
92.38502684992628

>  <Genealogy>  (90) 
Cc1ccc(N=C2CC(C)(C)CC(=O)C2C(=O)c2c(O)[n-]c(=O)n(-c3ccccc3)c2=O)cc1 (protonated)
Cc1ccc(N=C2CC(C)(C)CC(=O)[C@@H]2C(=O)c2c(O)[n-]c(=O)n(-c3ccccc3)c2=O)cc1 (chirality)
Cc1ccc(/N=C2\CC(C)(C)CC(=O)[C@@H]2C(=O)c2c(O)[n-]c(=O)n(-c3ccccc3)c2=O)cc1 (cis-trans isomerization)
Cc1ccc(/N=C2\CC(C)(C)CC(=O)[C@@H]2C(=O)c2c(O)[n-]c(=O)n(-c3ccccc3)c2=O)cc1 (3D coordinates assigned)
Cc1ccc(/N=C2\CC(C)(C)CC(=O)[C@@H]2C(=O)c2c(O)[n-]c(=O)n(-c3ccccc3)c2=O)cc1 (nonaromatic ring conformer: 92.38502684992628 kcal/mol)

>  <smiles>  (90) 
Cc1ccc(N=C2CC(C)(C)CC(=O)C2C(=O)c2c(O)[nH]c(=O)n(-c3ccccc3)c2=O)cc1

>  <score_type>  (90) 
oracle

>  <origin>  (90) 
adg

>  <m_score__min__energy>  (90) 
-9.9100000000000001

>  <m_primary>  (90) 
energy

$$$$
90:0
     RDKit          3D

 50 52  0  0  0  0  0  0  0  0999 V2000
   62.2450   33.8680   48.8850 C   0  0  0  0  0  0  0  0  0  0  0  0
   60.9720   34.5010   48.8610 O   0  0  0  0  0  0  0  0  0  0  0  0
   60.0070   34.2300   47.8870 C   0  0  0  0  0  0  0  0  0  0  0  0
   60.0920   34.8600   46.6440 C   0  0  0  0  0  0  0  0  0  0  0  0
   59.1300   34.5920   45.6700 C   0  0  0  0  0  0  0  0  0  0  0  0
   58.0860   33.6960   45.9410 C   0  0  0  0  0  0  0  0  0  0  0  0
   57.0470   33.3820   44.8980 C   0  0  0  0  0  0  0  0  0  0  0  0
   56.7330   31.9560   44.8850 N   0  0  0  0  0  0  0  0  0  0  0  0
   57.5530   30.9670   44.2510 C   0  0  0  0  0  0  0  0  0  0  0  0
   58.4710   31.3150   43.4630 O   0  0  0  0  0  0  0  0  0  0  0  0
   57.2690   29.5090   44.4510 C   0  0  0  0  0  0  0  0  0  0  0  0
   58.2450   28.8540   45.4060 C   0  0  0  0  0  0  0  0  0  0  0  0
   58.8880   29.6630   46.3630 C   0  0  0  0  0  0  0  0  0  0  0  0
   59.7610   29.1060   47.2970 C   0  0  0  0  0  0  0  0  0  0  0  0
   60.0110   27.7350   47.2910 C   0  0  0  0  0  0  0  0  0  0  0  0
   59.3930   26.9170   46.3450 C   0  0  0  0  0  0  0  0  0  0  0  0
   58.5050   27.4560   45.3950 C   0  0  0  0  0  0  0  0  0  0  0  0
   57.9610   26.5280   44.3280 C   0  0  0  0  0  0  0  0  0  0  0  0
   57.6860   25.1510   44.8810 C   0  0  0  0  0  0  0  0  0  0  0  0
   58.6320   24.4560   45.3400 O   0  0  0  0  0  0  0  0  0  0  0  0
   56.3080   24.6090   44.9340 C   0  0  0  0  0  0  0  0  0  0  0  0
   55.9640   23.4210   44.2510 C   0  0  0  0  0  0  0  0  0  0  0  0
   56.9800   22.6180   43.4890 C   0  0  0  0  0  0  0  0  0  0  0  0
   54.6810   22.9740   44.2850 N   0  0  0  0  0  0  0  0  0  0  0  0
   53.7160   23.6420   44.9670 C   0  0  0  0  0  0  0  0  0  0  0  0
   52.5380   23.2020   44.9800 O   0  0  0  0  0  0  0  0  0  0  0  0
   54.0230   24.7820   45.6320 N   0  0  0  0  0  0  0  0  0  0  0  0
   55.2850   25.2810   45.6300 C   0  0  0  0  0  0  0  0  0  0  0  0
   55.5150   26.3600   46.2360 O   0  0  0  0  0  0  0  0  0  0  0  0
   58.0370   33.0840   47.2030 C   0  0  0  0  0  0  0  0  0  0  0  0
   58.9860   33.3620   48.1360 N   0  0  0  0  0  0  0  0  0  0  0  0
   62.5576   33.7126   49.9281 H   0  0  0  0  0  0  0  0  0  0  0  0
   62.1812   32.8967   48.3727 H   0  0  0  0  0  0  0  0  0  0  0  0
   62.9810   34.5051   48.3727 H   0  0  0  0  0  0  0  0  0  0  0  0
   60.9118   35.5628   46.4342 H   0  0  0  0  0  0  0  0  0  0  0  0
   59.1905   35.0842   44.6881 H   0  0  0  0  0  0  0  0  0  0  0  0
   56.1315   33.9499   45.1199 H   0  0  0  0  0  0  0  0  0  0  0  0
   57.4448   33.6623   43.9115 H   0  0  0  0  0  0  0  0  0  0  0  0
   56.2521   29.3999   44.8560 H   0  0  0  0  0  0  0  0  0  0  0  0
   57.3711   29.0115   43.4752 H   0  0  0  0  0  0  0  0  0  0  0  0
   58.6994   30.7467   46.3738 H   0  0  0  0  0  0  0  0  0  0  0  0
   60.2534   29.7503   48.0402 H   0  0  0  0  0  0  0  0  0  0  0  0
   60.6959   27.2977   48.0325 H   0  0  0  0  0  0  0  0  0  0  0  0
   59.6022   25.8371   46.3414 H   0  0  0  0  0  0  0  0  0  0  0  0
   57.0244   26.9480   43.9325 H   0  0  0  0  0  0  0  0  0  0  0  0
   58.7154   26.4364   43.5327 H   0  0  0  0  0  0  0  0  0  0  0  0
   57.6406   22.0959   44.1969 H   0  0  0  0  0  0  0  0  0  0  0  0
   56.4647   21.8805   42.8561 H   0  0  0  0  0  0  0  0  0  0  0  0
   57.5785   23.2897   42.8561 H   0  0  0  0  0  0  0  0  0  0  0  0
   57.2279   32.3769   47.4381 H   0  0  0  0  0  0  0  0  0  0  0  0
  1  2  1  0
  2  3  1  0
  3  4  2  0
  4  5  1  0
  5  6  2  0
  6  7  1  0
  7  8  1  0
  8  9  1  0
  9 10  2  0
  9 11  1  0
 11 12  1  0
 12 13  2  0
 13 14  1  0
 14 15  2  0
 15 16  1  0
 16 17  2  0
 17 18  1  0
 18 19  1  0
 19 20  2  0
 19 21  1  0
 21 22  2  0
 22 23  1  0
 22 24  1  0
 24 25  1  0
 25 26  2  0
 25 27  1  0
 27 28  1  0
 28 29  2  0
  6 30  1  0
 30 31  2  0
 31  3  1  0
 17 12  1  0
 28 21  1  0
  1 32  1  0
  1 33  1  0
  1 34  1  0
  4 35  1  0
  5 36  1  0
  7 37  1  0
  7 38  1  0
 11 39  1  0
 11 40  1  0
 13 41  1  0
 14 42  1  0
 15 43  1  0
 16 44  1  0
 18 45  1  0
 18 46  1  0
 23 47  1  0
 23 48  1  0
 23 49  1  0
 30 50  1  0
M  CHG  3   8  -1  24  -1  27  -1
M  END
>  <UniqueID>  (91) 
86

>  <SMILES>  (91) 
COc1ccc(C[N-]C(=O)Cc2ccccc2CC(=O)c2c(C)[n-]c(=O)[n-]c2=O)cn1

>  <Energy>  (91) 
51.40692643127848

>  <Genealogy>  (91) 
COc1ccc(C[N-]C(=O)Cc2ccccc2CC(=O)c2c(C)[n-]c(=O)[n-]c2=O)cn1 (protonated)
COc1ccc(C[N-]C(=O)Cc2ccccc2CC(=O)c2c(C)[n-]c(=O)[n-]c2=O)cn1 (3D coordinates assigned)
COc1ccc(C[N-]C(=O)Cc2ccccc2CC(=O)c2c(C)[n-]c(=O)[n-]c2=O)cn1 (optimized conformer: 51.40692643127848 kcal/mol)

>  <smiles>  (91) 
COc1ccc(CNC(=O)Cc2ccccc2CC(=O)c2c(C)[nH]c(=O)[nH]c2=O)cn1

>  <score_type>  (91) 
oracle

>  <origin>  (91) 
adg

>  <m_score__min__energy>  (91) 
-15.210000000000001

>  <m_primary>  (91) 
energy

$$$$
91:0
     RDKit          3D

 48 50  0  0  0  0  0  0  0  0999 V2000
   57.6940   32.3920   43.8770 C   0  0  0  0  0  0  0  0  0  0  0  0
   58.1660   32.5630   45.2910 C   0  0  0  0  0  0  0  0  0  0  0  0
   57.9660   33.7770   45.9610 C   0  0  0  0  0  0  0  0  0  0  0  0
   58.4340   33.9480   47.2670 C   0  0  0  0  0  0  0  0  0  0  0  0
   59.1250   32.9120   47.9160 C   0  0  0  0  0  0  0  0  0  0  0  0
   59.5810   33.1100   49.3400 C   0  0  0  0  0  0  0  0  0  0  0  0
   59.5560   31.8430   50.0900 N   0  0  0  0  0  0  0  0  0  0  0  0
   58.2290   31.5540   50.6840 C   0  0  0  0  0  0  0  0  0  0  0  0
   58.1300   30.0810   51.1710 C   0  0  0  0  0  0  0  0  0  0  0  0
   57.1210   29.8810   52.3190 C   0  0  0  0  0  0  0  0  0  0  0  0
   56.0980   30.9350   52.3140 N   0  0  0  0  0  0  0  0  0  0  0  0
   54.6960   30.6050   52.2850 C   0  0  0  0  0  0  0  0  0  0  0  0
   54.2550   29.3430   52.7120 C   0  0  0  0  0  0  0  0  0  0  0  0
   52.8960   29.0280   52.6960 C   0  0  0  0  0  0  0  0  0  0  0  0
   51.9610   29.9690   52.2610 C   0  0  0  0  0  0  0  0  0  0  0  0
   52.3770   31.2450   51.8380 C   0  0  0  0  0  0  0  0  0  0  0  0
   51.3830   32.2470   51.3860 C   0  0  0  0  0  0  0  0  0  0  0  0
   51.0120   32.3300   50.0120 N   0  0  0  0  0  0  0  0  0  0  0  0
   50.8540   33.0370   52.2150 O   0  0  0  0  0  0  0  0  0  0  0  0
   53.7500   31.5540   51.8580 C   0  0  0  0  0  0  0  0  0  0  0  0
   56.5210   32.3430   52.3630 C   0  0  0  0  0  0  0  0  0  0  0  0
   57.9640   32.5130   51.8600 C   0  0  0  0  0  0  0  0  0  0  0  0
   59.3410   31.6960   47.2370 C   0  0  0  0  0  0  0  0  0  0  0  0
   60.0200   30.6480   47.8480 O   0  0  0  0  0  0  0  0  0  0  0  0
   58.8700   31.5300   45.9300 C   0  0  0  0  0  0  0  0  0  0  0  0
   56.6598   32.0173   43.8785 H   0  0  0  0  0  0  0  0  0  0  0  0
   57.7322   33.3611   43.3580 H   0  0  0  0  0  0  0  0  0  0  0  0
   58.3440   31.6722   43.3580 H   0  0  0  0  0  0  0  0  0  0  0  0
   57.4380   34.5998   45.4568 H   0  0  0  0  0  0  0  0  0  0  0  0
   58.2599   34.9001   47.7897 H   0  0  0  0  0  0  0  0  0  0  0  0
   60.6080   33.5040   49.3360 H   0  0  0  0  0  0  0  0  0  0  0  0
   58.8952   33.8172   49.8294 H   0  0  0  0  0  0  0  0  0  0  0  0
   59.8130   31.0960   49.4020 H   0  0  0  0  0  0  0  0  0  0  0  0
   57.4680   31.7040   49.9040 H   0  0  0  0  0  0  0  0  0  0  0  0
   57.8209   29.4534   50.3221 H   0  0  0  0  0  0  0  0  0  0  0  0
   59.1208   29.8001   51.5576 H   0  0  0  0  0  0  0  0  0  0  0  0
   56.6304   28.9037   52.1998 H   0  0  0  0  0  0  0  0  0  0  0  0
   57.6650   29.9269   53.2740 H   0  0  0  0  0  0  0  0  0  0  0  0
   54.9850   28.5980   53.0613 H   0  0  0  0  0  0  0  0  0  0  0  0
   52.5599   28.0344   53.0274 H   0  0  0  0  0  0  0  0  0  0  0  0
   50.8917   29.7112   52.2488 H   0  0  0  0  0  0  0  0  0  0  0  0
   50.0070   32.3310   49.7260 H   0  0  0  0  0  0  0  0  0  0  0  0
   54.0873   32.5501   51.5356 H   0  0  0  0  0  0  0  0  0  0  0  0
   55.8486   32.9409   51.7302 H   0  0  0  0  0  0  0  0  0  0  0  0
   56.4767   32.6816   53.4086 H   0  0  0  0  0  0  0  0  0  0  0  0
   58.1131   33.5501   51.5249 H   0  0  0  0  0  0  0  0  0  0  0  0
   58.6612   32.2813   52.6787 H   0  0  0  0  0  0  0  0  0  0  0  0
   59.0525   30.5838   45.3996 H   0  0  0  0  0  0  0  0  0  0  0  0
  1  2  1  0
  2  3  2  0
  3  4  1  0
  4  5  2  0
  5  6  1  0
  6  7  1  0
  7  8  1  0
  8  9  1  0
  9 10  1  0
 10 11  1  0
 11 12  1  0
 12 13  2  0
 13 14  1  0
 14 15  2  0
 15 16  1  0
 16 17  1  0
 17 18  1  0
 17 19  2  0
 16 20  2  0
 11 21  1  0
 21 22  1  0
  5 23  1  0
 23 24  1  0
 23 25  2  0
 25  2  1  0
 22  8  1  0
 20 12  1  0
  1 26  1  0
  1 27  1  0
  1 28  1  0
  3 29  1  0
  4 30  1  0
  6 31  1  0
  6 32  1  0
  7 33  1  0
  8 34  1  0
  9 35  1  0
  9 36  1  0
 10 37  1  0
 10 38  1  0
 13 39  1  0
 14 40  1  0
 15 41  1  0
 18 42  1  0
 20 43  1  0
 21 44  1  0
 21 45  1  0
 22 46  1  0
 22 47  1  0
 25 48  1  0
M  CHG  2  18  -1  24  -1
M  END
>  <UniqueID>  (92) 
87

>  <SMILES>  (92) 
Cc1ccc(CNC2CCN(c3cccc(C([NH-])=O)c3)CC2)c([O-])c1

>  <Energy>  (92) 
57.59302915941247

>  <Genealogy>  (92) 
Cc1ccc(CNC2CCN(c3cccc(C([NH-])=O)c3)CC2)c([O-])c1 (protonated)
Cc1ccc(CNC2CCN(c3cccc(C([NH-])=O)c3)CC2)c([O-])c1 (3D coordinates assigned)
Cc1ccc(CNC2CCN(c3cccc(C([NH-])=O)c3)CC2)c([O-])c1 (nonaromatic ring conformer: 57.59302915941247 kcal/mol)

>  <smiles>  (92) 
Cc1ccc(CNC2CCN(c3cccc(C(N)=O)c3)CC2)c(O)c1

>  <score_type>  (92) 
oracle

>  <origin>  (92) 
adg

>  <m_score__min__energy>  (92) 
-12.94

>  <m_primary>  (92) 
energy

$$$$
