0:0
     RDKit          3D

 58 61  0  0  0  0  0  0  0  0999 V2000
   60.1450   32.1780   50.7210 C   0  0  0  0  0  0  0  0  0  0  0  0
   58.4200   31.9770   50.1780 S   0  0  0  0  0  0  0  0  0  0  0  0
   58.3820   30.2340   50.5800 C   0  0  0  0  0  0  0  0  0  0  0  0
   57.5980   29.8200   51.4760 O   0  0  0  0  0  0  0  0  0  0  0  0
   59.2840   29.3460   49.9150 N   0  0  0  0  0  0  0  0  0  0  0  0
   59.3600   29.0560   48.5090 C   0  0  0  0  0  0  0  0  0  0  0  0
   58.3280   28.3680   47.8440 C   0  0  0  0  0  0  0  0  0  0  0  0
   58.4560   28.0360   46.4890 C   0  0  0  0  0  0  0  0  0  0  0  0
   57.3740   27.2970   45.8220 C   0  0  0  0  0  0  0  0  0  0  0  0
   56.3250   27.9270   45.5080 O   0  0  0  0  0  0  0  0  0  0  0  0
   57.4640   25.8730   45.5860 N   0  0  0  0  0  0  0  0  0  0  0  0
   56.2210   25.1430   45.2900 C   0  0  0  0  0  0  0  0  0  0  0  0
   56.5020   23.7330   44.7660 C   0  0  0  0  0  0  0  0  0  0  0  0
   57.4510   23.0820   45.5840 O   0  0  0  0  0  0  0  0  0  0  0  0
   58.7020   23.7140   45.4270 C   0  0  0  0  0  0  0  0  0  0  0  0
   58.6780   25.1370   45.9910 C   0  0  0  0  0  0  0  0  0  0  0  0
   59.6030   28.4160   45.7830 C   0  0  0  0  0  0  0  0  0  0  0  0
   60.6140   29.1340   46.4250 C   0  0  0  0  0  0  0  0  0  0  0  0
   60.4900   29.4860   47.7740 C   0  0  0  0  0  0  0  0  0  0  0  0
   61.5210   30.2330   48.3620 O   0  0  0  0  0  0  0  0  0  0  0  0
   61.9910   31.4540   47.8620 C   0  0  0  0  0  0  0  0  0  0  0  0
   63.3400   31.6040   47.5470 C   0  0  0  0  0  0  0  0  0  0  0  0
   63.7900   32.7950   47.0720 N   0  0  0  0  0  0  0  0  0  0  0  0
   62.9500   33.8500   46.8970 C   0  0  0  0  0  0  0  0  0  0  0  0
   61.5810   33.7080   47.2140 C   0  0  0  0  0  0  0  0  0  0  0  0
   60.7080   34.6670   47.0740 N   0  0  0  0  0  0  0  0  0  0  0  0
   59.7870   34.9080   45.9980 C   0  0  0  0  0  0  0  0  0  0  0  0
   59.6120   36.0740   45.5500 O   0  0  0  0  0  0  0  0  0  0  0  0
   58.9680   33.7930   45.4750 C   0  0  0  0  0  0  0  0  0  0  0  0
   58.5540   32.7500   46.3250 C   0  0  0  0  0  0  0  0  0  0  0  0
   57.7710   31.7030   45.8290 C   0  0  0  0  0  0  0  0  0  0  0  0
   57.3960   31.6790   44.4810 C   0  0  0  0  0  0  0  0  0  0  0  0
   56.5900   30.6000   43.9720 C   0  0  0  0  0  0  0  0  0  0  0  0
   55.9410   29.7330   43.5620 N   0  0  0  0  0  0  0  0  0  0  0  0
   57.8120   32.7050   43.6260 C   0  0  0  0  0  0  0  0  0  0  0  0
   58.5950   33.7530   44.1190 C   0  0  0  0  0  0  0  0  0  0  0  0
   61.1470   32.5040   47.6660 N   0  0  0  0  0  0  0  0  0  0  0  0
   60.1852   32.1827   51.8203 H   0  0  0  0  0  0  0  0  0  0  0  0
   60.7503   31.3443   50.3355 H   0  0  0  0  0  0  0  0  0  0  0  0
   60.5424   33.1285   50.3355 H   0  0  0  0  0  0  0  0  0  0  0  0
   57.4155   28.0893   48.3914 H   0  0  0  0  0  0  0  0  0  0  0  0
   55.6239   25.0684   46.2108 H   0  0  0  0  0  0  0  0  0  0  0  0
   55.6769   25.6958   44.5101 H   0  0  0  0  0  0  0  0  0  0  0  0
   55.5667   23.1539   44.7652 H   0  0  0  0  0  0  0  0  0  0  0  0
   56.9032   23.8063   43.7444 H   0  0  0  0  0  0  0  0  0  0  0  0
   59.4681   23.1303   45.9584 H   0  0  0  0  0  0  0  0  0  0  0  0
   58.9321   23.7689   44.3527 H   0  0  0  0  0  0  0  0  0  0  0  0
   58.7112   25.0842   47.0892 H   0  0  0  0  0  0  0  0  0  0  0  0
   59.5502   25.6751   45.5915 H   0  0  0  0  0  0  0  0  0  0  0  0
   59.7083   28.1488   44.7212 H   0  0  0  0  0  0  0  0  0  0  0  0
   61.5154   29.4254   45.8659 H   0  0  0  0  0  0  0  0  0  0  0  0
   64.0365   30.7634   47.6820 H   0  0  0  0  0  0  0  0  0  0  0  0
   64.8030   32.9000   46.8320 H   0  0  0  0  0  0  0  0  0  0  0  0
   63.3336   34.8062   46.5117 H   0  0  0  0  0  0  0  0  0  0  0  0
   58.8480   32.7587   47.3849 H   0  0  0  0  0  0  0  0  0  0  0  0
   57.4483   30.8945   46.5015 H   0  0  0  0  0  0  0  0  0  0  0  0
   57.5228   32.6872   42.5648 H   0  0  0  0  0  0  0  0  0  0  0  0
   58.9227   34.5541   43.4401 H   0  0  0  0  0  0  0  0  0  0  0  0
  1  2  1  0
  2  3  1  0
  3  4  2  0
  3  5  1  0
  5  6  1  0
  6  7  2  0
  7  8  1  0
  8  9  1  0
  9 10  2  0
  9 11  1  0
 11 12  1  0
 12 13  1  0
 13 14  1  0
 14 15  1  0
 15 16  1  0
  8 17  2  0
 17 18  1  0
 18 19  2  0
 19 20  1  0
 20 21  1  0
 21 22  2  0
 22 23  1  0
 23 24  2  0
 24 25  1  0
 25 26  2  3
 26 27  1  0
 27 28  2  0
 27 29  1  0
 29 30  2  0
 30 31  1  0
 31 32  2  0
 32 33  1  0
 33 34  3  0
 32 35  1  0
 35 36  2  0
 25 37  1  0
 19  6  1  0
 37 21  1  0
 16 11  1  0
 36 29  1  0
  1 38  1  0
  1 39  1  0
  1 40  1  0
  7 41  1  0
 12 42  1  0
 12 43  1  0
 13 44  1  0
 13 45  1  0
 15 46  1  0
 15 47  1  0
 16 48  1  0
 16 49  1  0
 17 50  1  0
 18 51  1  0
 22 52  1  0
 23 53  1  0
 24 54  1  0
 30 55  1  0
 31 56  1  0
 35 57  1  0
 36 58  1  0
M  CHG  3   5  -1  23   1  37  -1
M  END
>  <UniqueID>  (1) 
1

>  <SMILES>  (1) 
CSC(=O)[N-]c1cc(C(=O)N2CCOCC2)ccc1Oc1c[nH+]cc(=NC(=O)c2ccc(C#N)cc2)[n-]1

>  <Energy>  (1) 
84.44850341460577

>  <Genealogy>  (1) 
CSC(=O)[N-]c1cc(C(=O)N2CCOCC2)ccc1Oc1c[nH+]cc(=NC(=O)c2ccc(C#N)cc2)[n-]1 (protonated)
CSC(=O)[N-]c1cc(C(=O)N2CCOCC2)ccc1Oc1c[nH+]cc(=NC(=O)c2ccc(C#N)cc2)[n-]1 (3D coordinates assigned)
CSC(=O)[N-]c1cc(C(=O)N2CCOCC2)ccc1Oc1c[nH+]cc(=NC(=O)c2ccc(C#N)cc2)[n-]1 (nonaromatic ring conformer: 84.44850341460577 kcal/mol)

>  <smiles>  (1) 
CSC(=O)Nc1cc(C(=O)N2CCOCC2)ccc1Oc1cncc(=NC(=O)c2ccc(C#N)cc2)[nH]1

>  <score_type>  (1) 
oracle

>  <origin>  (1) 
adg

>  <m_score__min__energy>  (1) 
-10.039999999999999

>  <m_primary>  (1) 
energy

$$$$
1:0
     RDKit          3D

 44 47  0  0  0  0  0  0  0  0999 V2000
   58.4832   28.5290   49.8147 H   0  0  0  0  0  0  0  0  0  0  0  0
   59.1070   29.4300   49.9100 C   0  0  0  0  0  0  0  0  0  0  0  0
   59.0800   30.1680   51.0950 C   0  0  0  0  0  0  0  0  0  0  0  0
   58.4204   29.8578   51.9188 H   0  0  0  0  0  0  0  0  0  0  0  0
   59.8920   31.3050   51.2390 C   0  0  0  0  0  0  0  0  0  0  0  0
   59.8930   32.0990   52.4340 N   0  0  0  0  0  0  0  0  0  0  0  0
   58.6900   33.2660   52.8790 S   0  0  0  0  0  0  0  0  0  0  0  0
   58.9880   34.5590   52.1740 O   0  0  0  0  0  0  0  0  0  0  0  0
   58.7260   33.5040   54.3620 O   0  0  0  0  0  0  0  0  0  0  0  0
   57.0760   32.7020   52.3800 C   0  0  0  0  0  0  0  0  0  0  0  0
   56.4694   32.4900   53.2728 H   0  0  0  0  0  0  0  0  0  0  0  0
   56.5846   33.4817   51.7795 H   0  0  0  0  0  0  0  0  0  0  0  0
   57.1772   31.7859   51.7795 H   0  0  0  0  0  0  0  0  0  0  0  0
   60.7420   31.6760   50.1910 C   0  0  0  0  0  0  0  0  0  0  0  0
   61.3884   32.5589   50.3034 H   0  0  0  0  0  0  0  0  0  0  0  0
   60.7810   30.9340   48.9940 C   0  0  0  0  0  0  0  0  0  0  0  0
   61.6630   31.2570   47.9510 O   0  0  0  0  0  0  0  0  0  0  0  0
   61.5610   32.4190   47.1350 C   0  0  0  0  0  0  0  0  0  0  0  0
   61.4827   33.3105   47.7746 H   0  0  0  0  0  0  0  0  0  0  0  0
   62.4554   32.5007   46.4999 H   0  0  0  0  0  0  0  0  0  0  0  0
   60.6660   32.3437   46.4999 H   0  0  0  0  0  0  0  0  0  0  0  0
   59.9200   29.8260   48.8430 C   0  0  0  0  0  0  0  0  0  0  0  0
   59.9300   29.0270   47.6510 N   0  0  0  0  0  0  0  0  0  0  0  0
   59.1460   29.0570   46.6030 C   0  0  0  0  0  0  0  0  0  0  0  0
   59.3710   30.0630   45.7180 N   0  0  0  0  0  0  0  0  0  0  0  0
   58.5020   30.3960   44.7330 C   0  0  0  0  0  0  0  0  0  0  0  0
   58.7980   31.4640   43.8780 C   0  0  0  0  0  0  0  0  0  0  0  0
   59.7562   31.9954   43.9756 H   0  0  0  0  0  0  0  0  0  0  0  0
   57.8800   31.8570   42.9010 C   0  0  0  0  0  0  0  0  0  0  0  0
   58.1171   32.6951   42.2291 H   0  0  0  0  0  0  0  0  0  0  0  0
   56.6610   31.1860   42.7770 C   0  0  0  0  0  0  0  0  0  0  0  0
   55.9378   31.5006   42.0102 H   0  0  0  0  0  0  0  0  0  0  0  0
   56.3570   30.1160   43.6240 C   0  0  0  0  0  0  0  0  0  0  0  0
   55.3959   29.5909   43.5210 H   0  0  0  0  0  0  0  0  0  0  0  0
   57.2790   29.7080   44.6100 C   0  0  0  0  0  0  0  0  0  0  0  0
   57.0390   28.6010   45.4450 C   0  0  0  0  0  0  0  0  0  0  0  0
   55.8910   27.8800   45.3060 N   0  0  0  0  0  0  0  0  0  0  0  0
   55.6670   26.7330   45.9920 C   0  0  0  0  0  0  0  0  0  0  0  0
   54.4650   26.0570   45.8350 O   0  0  0  0  0  0  0  0  0  0  0  0
   56.6580   26.2150   46.8170 C   0  0  0  0  0  0  0  0  0  0  0  0
   56.4953   25.2652   47.3475 H   0  0  0  0  0  0  0  0  0  0  0  0
   57.8620   26.9070   46.9690 C   0  0  0  0  0  0  0  0  0  0  0  0
   58.8110   26.3220   47.5530 O   0  0  0  0  0  0  0  0  0  0  0  0
   58.0210   28.1960   46.3920 C   0  0  0  0  0  0  0  0  0  0  0  0
  1  2  1  0
  2  3  2  0
  3  4  1  0
  3  5  1  0
  5  6  1  0
  6  7  1  0
  7  8  2  0
  7  9  2  0
  7 10  1  0
 10 11  1  0
 10 12  1  0
 10 13  1  0
  5 14  2  0
 14 15  1  0
 14 16  1  0
 16 17  1  0
 17 18  1  0
 18 19  1  0
 18 20  1  0
 18 21  1  0
 16 22  2  0
 22 23  1  0
 23 24  2  0
 24 25  1  0
 25 26  1  0
 26 27  2  0
 27 28  1  0
 27 29  1  0
 29 30  1  0
 29 31  2  0
 31 32  1  0
 31 33  1  0
 33 34  1  0
 33 35  2  0
 35 36  1  0
 36 37  1  0
 37 38  1  0
 38 39  1  0
 38 40  2  0
 40 41  1  0
 40 42  1  0
 42 43  2  0
 42 44  1  0
 22  2  1  0
 44 24  1  0
 35 26  1  0
 44 36  2  0
M  CHG  4   6  -1  25  -1  37  -1  39  -1
M  END
>  <UniqueID>  (2) 
2

>  <SMILES>  (2) 
COc1cc([N-]S(C)(=O)=O)ccc1/N=c1/[n-]c2ccccc2c2[n-]c([O-])cc(=O)c12

>  <Energy>  (2) 
81.57313140301669

>  <Genealogy>  (2) 
COc1cc([N-]S(C)(=O)=O)ccc1N=c1[n-]c2ccccc2c2[n-]c([O-])cc(=O)c12 (protonated)
COc1cc([N-]S(C)(=O)=O)ccc1/N=c1/[n-]c2ccccc2c2[n-]c([O-])cc(=O)c12 (cis-trans isomerization)
COc1cc([N-]S(C)(=O)=O)ccc1/N=c1/[n-]c2ccccc2c2[n-]c([O-])cc(=O)c12 (3D coordinates assigned)
COc1cc([N-]S(C)(=O)=O)ccc1/N=c1/[n-]c2ccccc2c2[n-]c([O-])cc(=O)c12 (optimized conformer: 81.57313140301669 kcal/mol)

>  <smiles>  (2) 
COc1cc(NS(C)(=O)=O)ccc1N=c1[nH]c2ccccc2c2[nH]c(O)cc(=O)c12

>  <score_type>  (2) 
oracle

>  <origin>  (2) 
adg

>  <m_score__min__energy>  (2) 
-13.68

>  <m_primary>  (2) 
energy

$$$$
2:0
     RDKit          3D

 48 50  0  0  0  0  0  0  0  0999 V2000
   57.6700   32.0860   43.0780 C   0  0  0  0  0  0  0  0  0  0  0  0
   58.1610   32.6800   44.3640 C   0  0  0  0  0  0  0  0  0  0  0  0
   57.8250   33.9980   44.6980 C   0  0  0  0  0  0  0  0  0  0  0  0
   58.3140   34.5570   45.8760 C   0  0  0  0  0  0  0  0  0  0  0  0
   59.1460   33.8070   46.7130 C   0  0  0  0  0  0  0  0  0  0  0  0
   59.6470   34.3560   47.9010 C   0  0  0  0  0  0  0  0  0  0  0  0
   60.4800   33.5970   48.7230 C   0  0  0  0  0  0  0  0  0  0  0  0
   60.8200   32.2900   48.3690 C   0  0  0  0  0  0  0  0  0  0  0  0
   60.3310   31.7190   47.1770 C   0  0  0  0  0  0  0  0  0  0  0  0
   60.6610   30.4070   46.7930 O   0  0  0  0  0  0  0  0  0  0  0  0
   60.4180   29.2290   47.5640 C   0  0  0  0  0  0  0  0  0  0  0  0
   59.2050   28.5000   47.0530 C   0  0  0  0  0  0  0  0  0  0  0  0
   58.9450   27.1900   47.4770 C   0  0  0  0  0  0  0  0  0  0  0  0
   57.8180   26.5100   47.0110 C   0  0  0  0  0  0  0  0  0  0  0  0
   56.9340   27.1260   46.1200 C   0  0  0  0  0  0  0  0  0  0  0  0
   55.7840   26.4250   45.7410 O   0  0  0  0  0  0  0  0  0  0  0  0
   55.7300   25.0280   45.6330 C   0  0  0  0  0  0  0  0  0  0  0  0
   54.9860   24.3610   46.4060 O   0  0  0  0  0  0  0  0  0  0  0  0
   56.5370   24.3550   44.6520 N   0  0  0  0  0  0  0  0  0  0  0  0
   57.3940   25.1460   43.7670 C   0  0  0  0  0  0  0  0  0  0  0  0
   56.4870   22.8950   44.5450 C   0  0  0  0  0  0  0  0  0  0  0  0
   57.2170   28.4240   45.6330 C   0  0  0  0  0  0  0  0  0  0  0  0
   56.4060   29.0320   44.6130 N   0  0  0  0  0  0  0  0  0  0  0  0
   55.2640   29.4570   44.8850 O   0  0  0  0  0  0  0  0  0  0  0  0
   56.9330   29.2980   43.3700 O   0  0  0  0  0  0  0  0  0  0  0  0
   58.3480   29.1050   46.1210 C   0  0  0  0  0  0  0  0  0  0  0  0
   59.4830   32.4820   46.3450 C   0  0  0  0  0  0  0  0  0  0  0  0
   58.9890   31.9610   45.1800 N   0  0  0  0  0  0  0  0  0  0  0  0
   56.9831   31.2551   43.2966 H   0  0  0  0  0  0  0  0  0  0  0  0
   57.1410   32.8558   42.4969 H   0  0  0  0  0  0  0  0  0  0  0  0
   58.5256   31.7113   42.4969 H   0  0  0  0  0  0  0  0  0  0  0  0
   57.1779   34.5888   44.0330 H   0  0  0  0  0  0  0  0  0  0  0  0
   58.0458   35.5885   46.1481 H   0  0  0  0  0  0  0  0  0  0  0  0
   59.3834   35.3854   48.1853 H   0  0  0  0  0  0  0  0  0  0  0  0
   60.8711   34.0306   49.6552 H   0  0  0  0  0  0  0  0  0  0  0  0
   61.4757   31.7004   49.0266 H   0  0  0  0  0  0  0  0  0  0  0  0
   61.2931   28.5660   47.4960 H   0  0  0  0  0  0  0  0  0  0  0  0
   60.2408   29.5209   48.6097 H   0  0  0  0  0  0  0  0  0  0  0  0
   59.6315   26.6953   48.1798 H   0  0  0  0  0  0  0  0  0  0  0  0
   57.6240   25.4809   47.3477 H   0  0  0  0  0  0  0  0  0  0  0  0
   58.0693   25.7693   44.3715 H   0  0  0  0  0  0  0  0  0  0  0  0
   57.9875   24.4715   43.1323 H   0  0  0  0  0  0  0  0  0  0  0  0
   56.7691   25.7915   43.1323 H   0  0  0  0  0  0  0  0  0  0  0  0
   56.4719   22.4538   45.5525 H   0  0  0  0  0  0  0  0  0  0  0  0
   55.5782   22.5981   44.0011 H   0  0  0  0  0  0  0  0  0  0  0  0
   57.3734   22.5366   44.0011 H   0  0  0  0  0  0  0  0  0  0  0  0
   58.5628   30.1242   45.7674 H   0  0  0  0  0  0  0  0  0  0  0  0
   59.2440   30.9890   44.8940 H   0  0  0  0  0  0  0  0  0  0  0  0
  1  2  1  0
  2  3  2  0
  3  4  1  0
  4  5  2  0
  5  6  1  0
  6  7  2  0
  7  8  1  0
  8  9  2  0
  9 10  1  0
 10 11  1  0
 11 12  1  0
 12 13  2  0
 13 14  1  0
 14 15  2  0
 15 16  1  0
 16 17  1  0
 17 18  2  0
 17 19  1  0
 19 20  1  0
 19 21  1  0
 15 22  1  0
 22 23  1  0
 23 24  2  0
 23 25  1  0
 22 26  2  0
  9 27  1  0
 27 28  2  0
 28  2  1  0
 27  5  1  0
 26 12  1  0
  1 29  1  0
  1 30  1  0
  1 31  1  0
  3 32  1  0
  4 33  1  0
  6 34  1  0
  7 35  1  0
  8 36  1  0
 11 37  1  0
 11 38  1  0
 13 39  1  0
 14 40  1  0
 20 41  1  0
 20 42  1  0
 20 43  1  0
 21 44  1  0
 21 45  1  0
 21 46  1  0
 26 47  1  0
 28 48  1  0
M  CHG  3  23   1  25  -1  28   1
M  END
>  <UniqueID>  (3) 
3

>  <SMILES>  (3) 
Cc1ccc2cccc(OCc3ccc(OC(=O)N(C)C)c([N+](=O)[O-])c3)c2[nH+]1

>  <Energy>  (3) 
59.337960336124546

>  <Genealogy>  (3) 
Cc1ccc2cccc(OCc3ccc(OC(=O)N(C)C)c([N+](=O)[O-])c3)c2[nH+]1 (protonated)
Cc1ccc2cccc(OCc3ccc(OC(=O)N(C)C)c([N+](=O)[O-])c3)c2[nH+]1 (3D coordinates assigned)
Cc1ccc2cccc(OCc3ccc(OC(=O)N(C)C)c([N+](=O)[O-])c3)c2[nH+]1 (optimized conformer: 59.337960336124546 kcal/mol)

>  <smiles>  (3) 
Cc1ccc2cccc(OCc3ccc(OC(=O)N(C)C)c([N+](=O)[O-])c3)c2n1

>  <score_type>  (3) 
oracle

>  <origin>  (3) 
adg

>  <m_score__min__energy>  (3) 
-7.6299999999999999

>  <m_primary>  (3) 
energy

$$$$
3:0
     RDKit          3D

 28 28  0  0  0  0  0  0  0  0999 V2000
   59.9530   36.1030   46.1160 N   0  0  0  0  0  0  0  0  0  0  0  0
   59.9560   34.6500   47.0520 S   0  0  0  0  0  0  0  0  0  0  0  0
   61.3730   34.2170   47.2980 O   0  0  0  0  0  0  0  0  0  0  0  0
   59.2950   34.9070   48.3780 O   0  0  0  0  0  0  0  0  0  0  0  0
   59.0860   33.3870   46.1870 C   0  0  0  0  0  0  0  0  0  0  0  0
   58.5260   33.6500   44.9300 C   0  0  0  0  0  0  0  0  0  0  0  0
   57.8480   32.6430   44.2370 C   0  0  0  0  0  0  0  0  0  0  0  0
   57.7460   31.3570   44.7810 C   0  0  0  0  0  0  0  0  0  0  0  0
   57.0250   30.3500   44.0610 N   0  0  0  0  0  0  0  0  0  0  0  0
   56.3650   29.2160   44.6390 C   0  0  0  0  0  0  0  0  0  0  0  0
   55.1410   29.3050   44.9180 O   0  0  0  0  0  0  0  0  0  0  0  0
   57.0590   27.8890   44.8130 C   0  0  0  0  0  0  0  0  0  0  0  0
   57.0170   27.4070   46.2680 C   0  0  0  0  0  0  0  0  0  0  0  0
   56.0570   26.2700   46.4440 C   0  0  0  0  0  0  0  0  0  0  0  0
   56.4200   25.2190   47.0360 O   0  0  0  0  0  0  0  0  0  0  0  0
   54.7740   26.3550   45.9180 O   0  0  0  0  0  0  0  0  0  0  0  0
   58.2860   31.1010   46.0510 C   0  0  0  0  0  0  0  0  0  0  0  0
   58.9620   32.1070   46.7450 C   0  0  0  0  0  0  0  0  0  0  0  0
   59.2440   35.9760   45.3580 H   0  0  0  0  0  0  0  0  0  0  0  0
   59.5960   36.8650   46.7360 H   0  0  0  0  0  0  0  0  0  0  0  0
   58.6202   34.6524   44.4869 H   0  0  0  0  0  0  0  0  0  0  0  0
   57.3926   32.8619   43.2599 H   0  0  0  0  0  0  0  0  0  0  0  0
   56.5621   27.1419   44.1766 H   0  0  0  0  0  0  0  0  0  0  0  0
   58.1135   28.0162   44.5268 H   0  0  0  0  0  0  0  0  0  0  0  0
   58.0230   27.0740   46.5631 H   0  0  0  0  0  0  0  0  0  0  0  0
   56.6799   28.2431   46.8982 H   0  0  0  0  0  0  0  0  0  0  0  0
   58.1763   30.1036   46.5017 H   0  0  0  0  0  0  0  0  0  0  0  0
   59.3983   31.8943   47.7321 H   0  0  0  0  0  0  0  0  0  0  0  0
  1  2  1  0
  2  3  2  0
  2  4  2  0
  2  5  1  0
  5  6  2  0
  6  7  1  0
  7  8  2  0
  8  9  1  0
  9 10  1  0
 10 11  2  0
 10 12  1  0
 12 13  1  0
 13 14  1  0
 14 15  2  0
 14 16  1  0
  8 17  1  0
 17 18  2  0
 18  5  1  0
  1 19  1  0
  1 20  1  0
  6 21  1  0
  7 22  1  0
 12 23  1  0
 12 24  1  0
 13 25  1  0
 13 26  1  0
 17 27  1  0
 18 28  1  0
M  CHG  2   9  -1  16  -1
M  END
>  <UniqueID>  (4) 
4

>  <SMILES>  (4) 
NS(=O)(=O)c1ccc([N-]C(=O)CCC(=O)[O-])cc1

>  <Energy>  (4) 
26.726512037777773

>  <Genealogy>  (4) 
NS(=O)(=O)c1ccc([N-]C(=O)CCC(=O)[O-])cc1 (protonated)
NS(=O)(=O)c1ccc([N-]C(=O)CCC(=O)[O-])cc1 (3D coordinates assigned)
NS(=O)(=O)c1ccc([N-]C(=O)CCC(=O)[O-])cc1 (optimized conformer: 26.726512037777773 kcal/mol)

>  <smiles>  (4) 
NS(=O)(=O)c1ccc(NC(=O)CCC(=O)O)cc1

>  <score_type>  (4) 
oracle

>  <origin>  (4) 
adg

>  <m_score__min__energy>  (4) 
-10.76

>  <m_primary>  (4) 
energy

$$$$
4:0
     RDKit          3D

 39 40  0  0  0  0  0  0  0  0999 V2000
   55.8660   29.7550   43.1210 C   0  0  0  0  0  0  0  0  0  0  0  0
   56.1020   30.0980   44.4840 O   0  0  0  0  0  0  0  0  0  0  0  0
   57.3720   30.2830   45.0580 C   0  0  0  0  0  0  0  0  0  0  0  0
   57.9100   31.5730   45.2300 C   0  0  0  0  0  0  0  0  0  0  0  0
   59.1520   31.7690   45.8570 C   0  0  0  0  0  0  0  0  0  0  0  0
   59.6760   33.0960   46.0510 N   0  0  0  0  0  0  0  0  0  0  0  0
   59.7370   33.8730   47.6030 S   0  0  0  0  0  0  0  0  0  0  0  0
   58.7410   33.2180   48.5190 O   0  0  0  0  0  0  0  0  0  0  0  0
   59.3800   35.3250   47.4480 O   0  0  0  0  0  0  0  0  0  0  0  0
   61.3650   33.7600   48.2650 C   0  0  0  0  0  0  0  0  0  0  0  0
   61.5670   33.5840   49.6410 C   0  0  0  0  0  0  0  0  0  0  0  0
   62.8650   33.4640   50.1500 C   0  0  0  0  0  0  0  0  0  0  0  0
   63.9640   33.5190   49.2870 C   0  0  0  0  0  0  0  0  0  0  0  0
   63.7670   33.6960   47.9150 C   0  0  0  0  0  0  0  0  0  0  0  0
   62.4710   33.8170   47.4040 C   0  0  0  0  0  0  0  0  0  0  0  0
   59.8800   30.6450   46.2890 C   0  0  0  0  0  0  0  0  0  0  0  0
   61.4330   30.8070   47.1020 Cl  0  0  0  0  0  0  0  0  0  0  0  0
   59.3620   29.3610   46.1030 C   0  0  0  0  0  0  0  0  0  0  0  0
   58.1140   29.1590   45.4870 C   0  0  0  0  0  0  0  0  0  0  0  0
   57.6130   27.7700   45.3110 C   0  0  0  0  0  0  0  0  0  0  0  0
   58.0500   27.0610   44.3630 O   0  0  0  0  0  0  0  0  0  0  0  0
   56.6250   27.2300   46.1930 N   0  0  0  0  0  0  0  0  0  0  0  0
   55.8470   25.7120   45.9050 S   0  0  0  0  0  0  0  0  0  0  0  0
   56.5680   24.9390   44.5360 N   0  0  0  0  0  0  0  0  0  0  0  0
   54.3890   25.9500   45.6300 O   0  0  0  0  0  0  0  0  0  0  0  0
   55.9840   24.8350   47.1170 O   0  0  0  0  0  0  0  0  0  0  0  0
   55.2431   28.8496   43.0733 H   0  0  0  0  0  0  0  0  0  0  0  0
   55.3465   30.5844   42.6188 H   0  0  0  0  0  0  0  0  0  0  0  0
   56.8263   29.5662   42.6188 H   0  0  0  0  0  0  0  0  0  0  0  0
   57.3465   32.4448   44.8661 H   0  0  0  0  0  0  0  0  0  0  0  0
   60.1400   33.5960   45.2610 H   0  0  0  0  0  0  0  0  0  0  0  0
   60.7040   33.5402   50.3216 H   0  0  0  0  0  0  0  0  0  0  0  0
   63.0210   33.3263   51.2301 H   0  0  0  0  0  0  0  0  0  0  0  0
   64.9837   33.4229   49.6883 H   0  0  0  0  0  0  0  0  0  0  0  0
   64.6318   33.7402   47.2366 H   0  0  0  0  0  0  0  0  0  0  0  0
   62.3183   33.9573   46.3237 H   0  0  0  0  0  0  0  0  0  0  0  0
   59.9416   28.4909   46.4451 H   0  0  0  0  0  0  0  0  0  0  0  0
   57.5890   24.8560   44.7370 H   0  0  0  0  0  0  0  0  0  0  0  0
   56.4690   25.5930   43.7270 H   0  0  0  0  0  0  0  0  0  0  0  0
  1  2  1  0
  2  3  1  0
  3  4  2  0
  4  5  1  0
  5  6  1  0
  6  7  1  0
  7  8  2  0
  7  9  2  0
  7 10  1  0
 10 11  2  0
 11 12  1  0
 12 13  2  0
 13 14  1  0
 14 15  2  0
  5 16  2  0
 16 17  1  0
 16 18  1  0
 18 19  2  0
 19 20  1  0
 20 21  2  0
 20 22  1  0
 22 23  1  0
 23 24  1  0
 23 25  2  0
 23 26  2  0
 19  3  1  0
 15 10  1  0
  1 27  1  0
  1 28  1  0
  1 29  1  0
  4 30  1  0
  6 31  1  0
 11 32  1  0
 12 33  1  0
 13 34  1  0
 14 35  1  0
 15 36  1  0
 18 37  1  0
 24 38  1  0
 24 39  1  0
M  CHG  1  22  -1
M  END
>  <UniqueID>  (5) 
5

>  <SMILES>  (5) 
COc1cc(NS(=O)(=O)c2ccccc2)c(Cl)cc1C(=O)[N-]S(N)(=O)=O

>  <Energy>  (5) 
43.86099326027326

>  <Genealogy>  (5) 
COc1cc(NS(=O)(=O)c2ccccc2)c(Cl)cc1C(=O)[N-]S(N)(=O)=O (protonated)
COc1cc(NS(=O)(=O)c2ccccc2)c(Cl)cc1C(=O)[N-]S(N)(=O)=O (3D coordinates assigned)
COc1cc(NS(=O)(=O)c2ccccc2)c(Cl)cc1C(=O)[N-]S(N)(=O)=O (optimized conformer: 43.86099326027326 kcal/mol)

>  <smiles>  (5) 
COc1cc(NS(=O)(=O)c2ccccc2)c(Cl)cc1C(=O)NS(N)(=O)=O

>  <score_type>  (5) 
oracle

>  <origin>  (5) 
adg

>  <m_score__min__energy>  (5) 
-11.15

>  <m_primary>  (5) 
energy

$$$$
5:0
     RDKit          3D

 38 41  0  0  0  0  0  0  0  0999 V2000
   60.4570   28.0240   48.4110 C   0  0  0  0  0  0  0  0  0  0  0  0
   59.5270   28.7190   47.4600 C   0  0  0  0  0  0  0  0  0  0  0  0
   59.5280   30.0840   47.3330 N   0  0  0  0  0  0  0  0  0  0  0  0
   58.6820   30.7290   46.5030 N   0  0  0  0  0  0  0  0  0  0  0  0
   58.7470   32.1670   46.4220 C   0  0  0  0  0  0  0  0  0  0  0  0
   58.8150   32.9490   47.5880 C   0  0  0  0  0  0  0  0  0  0  0  0
   58.8950   34.3420   47.4990 C   0  0  0  0  0  0  0  0  0  0  0  0
   58.9120   34.9640   46.2470 C   0  0  0  0  0  0  0  0  0  0  0  0
   58.8550   34.1940   45.0820 C   0  0  0  0  0  0  0  0  0  0  0  0
   58.7750   32.8000   45.1680 C   0  0  0  0  0  0  0  0  0  0  0  0
   57.7760   30.0260   45.7390 C   0  0  0  0  0  0  0  0  0  0  0  0
   56.9980   30.6070   44.9340 O   0  0  0  0  0  0  0  0  0  0  0  0
   57.7530   28.6450   45.8630 C   0  0  0  0  0  0  0  0  0  0  0  0
   56.9560   27.7610   45.2390 N   0  0  0  0  0  0  0  0  0  0  0  0
   57.3030   26.5560   45.6820 N   0  0  0  0  0  0  0  0  0  0  0  0
   56.6620   25.3380   45.2480 C   0  0  0  0  0  0  0  0  0  0  0  0
   55.5110   24.8430   45.8940 C   0  0  0  0  0  0  0  0  0  0  0  0
   54.9070   23.6590   45.4590 C   0  0  0  0  0  0  0  0  0  0  0  0
   55.4420   22.9540   44.3790 C   0  0  0  0  0  0  0  0  0  0  0  0
   56.5840   23.4290   43.7340 C   0  0  0  0  0  0  0  0  0  0  0  0
   57.1930   24.6120   44.1640 C   0  0  0  0  0  0  0  0  0  0  0  0
   58.3110   26.6690   46.5860 C   0  0  0  0  0  0  0  0  0  0  0  0
   58.6060   28.0090   46.7030 C   0  0  0  0  0  0  0  0  0  0  0  0
   60.1578   28.2476   49.4456 H   0  0  0  0  0  0  0  0  0  0  0  0
   60.4098   26.9381   48.2422 H   0  0  0  0  0  0  0  0  0  0  0  0
   61.4851   28.3769   48.2422 H   0  0  0  0  0  0  0  0  0  0  0  0
   60.1990   30.6380   47.9140 H   0  0  0  0  0  0  0  0  0  0  0  0
   58.8052   32.4629   48.5747 H   0  0  0  0  0  0  0  0  0  0  0  0
   58.9446   34.9492   48.4149 H   0  0  0  0  0  0  0  0  0  0  0  0
   58.9703   36.0603   46.1788 H   0  0  0  0  0  0  0  0  0  0  0  0
   58.8730   34.6841   44.0974 H   0  0  0  0  0  0  0  0  0  0  0  0
   58.7338   32.1965   44.2493 H   0  0  0  0  0  0  0  0  0  0  0  0
   55.0848   25.3921   46.7466 H   0  0  0  0  0  0  0  0  0  0  0  0
   54.0082   23.2822   45.9690 H   0  0  0  0  0  0  0  0  0  0  0  0
   54.9632   22.0246   44.0370 H   0  0  0  0  0  0  0  0  0  0  0  0
   57.0065   22.8716   42.8850 H   0  0  0  0  0  0  0  0  0  0  0  0
   58.0945   24.9788   43.6514 H   0  0  0  0  0  0  0  0  0  0  0  0
   58.8003   25.8438   47.1242 H   0  0  0  0  0  0  0  0  0  0  0  0
  1  2  1  0
  2  3  2  0
  3  4  1  0
  4  5  1  0
  5  6  2  0
  6  7  1  0
  7  8  2  0
  8  9  1  0
  9 10  2  0
  4 11  1  0
 11 12  2  0
 11 13  1  0
 13 14  2  0
 14 15  1  0
 15 16  1  0
 16 17  2  0
 17 18  1  0
 18 19  2  0
 19 20  1  0
 20 21  2  0
 15 22  1  0
 22 23  2  0
 23  2  1  0
 10  5  1  0
 23 13  1  0
 21 16  1  0
  1 24  1  0
  1 25  1  0
  1 26  1  0
  3 27  1  0
  6 28  1  0
  7 29  1  0
  8 30  1  0
  9 31  1  0
 10 32  1  0
 17 33  1  0
 18 34  1  0
 19 35  1  0
 20 36  1  0
 21 37  1  0
 22 38  1  0
M  CHG  1   3   1
M  END
>  <UniqueID>  (6) 
6

>  <SMILES>  (6) 
Cc1[nH+]n(-c2ccccc2)c(=O)c2nn(-c3ccccc3)cc12

>  <Energy>  (6) 
92.23360518951513

>  <Genealogy>  (6) 
Cc1[nH+]n(-c2ccccc2)c(=O)c2nn(-c3ccccc3)cc12 (protonated)
Cc1[nH+]n(-c2ccccc2)c(=O)c2nn(-c3ccccc3)cc12 (3D coordinates assigned)
Cc1[nH+]n(-c2ccccc2)c(=O)c2nn(-c3ccccc3)cc12 (optimized conformer: 92.23360518951513 kcal/mol)

>  <smiles>  (6) 
Cc1nn(-c2ccccc2)c(=O)c2nn(-c3ccccc3)cc12

>  <score_type>  (6) 
oracle

>  <origin>  (6) 
adg

>  <m_score__min__energy>  (6) 
-6.0800000000000001

>  <m_primary>  (6) 
energy

$$$$
6:0
     RDKit          3D

 49 51  0  0  0  0  0  0  0  0999 V2000
   60.9440   28.8920   44.6200 C   0  0  0  0  0  0  0  0  0  0  0  0
   60.7220   29.6100   45.9450 C   0  0  0  0  0  0  0  0  0  0  0  0
   60.0350   28.7650   46.8690 O   0  0  0  0  0  0  0  0  0  0  0  0
   59.1020   27.7700   46.5310 C   0  0  0  0  0  0  0  0  0  0  0  0
   59.4370   26.4040   46.4810 C   0  0  0  0  0  0  0  0  0  0  0  0
   58.4730   25.4510   46.1430 C   0  0  0  0  0  0  0  0  0  0  0  0
   57.1610   25.8420   45.8370 C   0  0  0  0  0  0  0  0  0  0  0  0
   56.1460   24.8230   45.4810 C   0  0  0  0  0  0  0  0  0  0  0  0
   54.9750   24.9450   45.9330 O   0  0  0  0  0  0  0  0  0  0  0  0
   56.4640   23.6660   44.6130 C   0  0  0  0  0  0  0  0  0  0  0  0
   57.5590   22.8300   44.8770 C   0  0  0  0  0  0  0  0  0  0  0  0
   57.8180   21.7690   44.0710 N   0  0  0  0  0  0  0  0  0  0  0  0
   57.0270   21.4920   43.0040 C   0  0  0  0  0  0  0  0  0  0  0  0
   55.9500   22.2750   42.7350 N   0  0  0  0  0  0  0  0  0  0  0  0
   55.6510   23.3450   43.5170 C   0  0  0  0  0  0  0  0  0  0  0  0
   56.8200   27.2030   45.9120 C   0  0  0  0  0  0  0  0  0  0  0  0
   57.7820   28.1580   46.2520 C   0  0  0  0  0  0  0  0  0  0  0  0
   57.4010   29.5310   46.3400 N   0  0  0  0  0  0  0  0  0  0  0  0
   57.3300   30.5320   44.9320 S   0  0  0  0  0  0  0  0  0  0  0  0
   55.9020   30.7210   44.5040 O   0  0  0  0  0  0  0  0  0  0  0  0
   58.0680   29.8540   43.8130 O   0  0  0  0  0  0  0  0  0  0  0  0
   58.0830   32.0890   45.2860 C   0  0  0  0  0  0  0  0  0  0  0  0
   58.2500   33.0230   44.2510 C   0  0  0  0  0  0  0  0  0  0  0  0
   58.8600   34.2530   44.5010 C   0  0  0  0  0  0  0  0  0  0  0  0
   59.3180   34.5580   45.7830 C   0  0  0  0  0  0  0  0  0  0  0  0
   59.1630   33.6350   46.8190 C   0  0  0  0  0  0  0  0  0  0  0  0
   58.5400   32.3940   46.5830 C   0  0  0  0  0  0  0  0  0  0  0  0
   58.4080   31.4350   47.6000 O   0  0  0  0  0  0  0  0  0  0  0  0
   58.8890   31.5740   48.9080 C   0  0  0  0  0  0  0  0  0  0  0  0
   58.1480   32.0200   49.8260 O   0  0  0  0  0  0  0  0  0  0  0  0
   60.2530   31.0680   49.2440 C   0  0  0  0  0  0  0  0  0  0  0  0
   60.2020   29.6990   49.4250 F   0  0  0  0  0  0  0  0  0  0  0  0
   60.7120   31.6650   50.4040 F   0  0  0  0  0  0  0  0  0  0  0  0
   61.1280   31.3600   48.2150 F   0  0  0  0  0  0  0  0  0  0  0  0
   61.2639   27.8573   44.8127 H   0  0  0  0  0  0  0  0  0  0  0  0
   60.0061   28.8848   44.0452 H   0  0  0  0  0  0  0  0  0  0  0  0
   61.7223   29.4154   44.0452 H   0  0  0  0  0  0  0  0  0  0  0  0
   61.6964   29.8927   46.3701 H   0  0  0  0  0  0  0  0  0  0  0  0
   60.1101   30.5059   45.7632 H   0  0  0  0  0  0  0  0  0  0  0  0
   60.4645   26.0846   46.7095 H   0  0  0  0  0  0  0  0  0  0  0  0
   58.7450   24.3855   46.1166 H   0  0  0  0  0  0  0  0  0  0  0  0
   58.2098   23.0349   45.7398 H   0  0  0  0  0  0  0  0  0  0  0  0
   57.2579   20.6332   42.3566 H   0  0  0  0  0  0  0  0  0  0  0  0
   54.7686   23.9611   43.2895 H   0  0  0  0  0  0  0  0  0  0  0  0
   55.7877   27.5193   45.7014 H   0  0  0  0  0  0  0  0  0  0  0  0
   57.8978   32.7837   43.2368 H   0  0  0  0  0  0  0  0  0  0  0  0
   58.9798   34.9826   43.6866 H   0  0  0  0  0  0  0  0  0  0  0  0
   59.8017   35.5266   45.9778 H   0  0  0  0  0  0  0  0  0  0  0  0
   59.5301   33.8787   47.8269 H   0  0  0  0  0  0  0  0  0  0  0  0
  1  2  1  0
  2  3  1  0
  3  4  1  0
  4  5  2  0
  5  6  1  0
  6  7  2  0
  7  8  1  0
  8  9  2  0
  8 10  1  0
 10 11  2  0
 11 12  1  0
 12 13  2  0
 13 14  1  0
 14 15  2  0
  7 16  1  0
 16 17  2  0
 17 18  1  0
 18 19  1  0
 19 20  2  0
 19 21  2  0
 19 22  1  0
 22 23  2  0
 23 24  1  0
 24 25  2  0
 25 26  1  0
 26 27  2  0
 27 28  1  0
 28 29  1  0
 29 30  2  0
 29 31  1  0
 31 32  1  0
 31 33  1  0
 31 34  1  0
 17  4  1  0
 27 22  1  0
 15 10  1  0
  1 35  1  0
  1 36  1  0
  1 37  1  0
  2 38  1  0
  2 39  1  0
  5 40  1  0
  6 41  1  0
 11 42  1  0
 13 43  1  0
 15 44  1  0
 16 45  1  0
 23 46  1  0
 24 47  1  0
 25 48  1  0
 26 49  1  0
M  CHG  1  18  -1
M  END
>  <UniqueID>  (7) 
7

>  <SMILES>  (7) 
CCOc1ccc(C(=O)c2cncnc2)cc1[N-]S(=O)(=O)c1ccccc1OC(=O)C(F)(F)F

>  <Energy>  (7) 
65.08233177914965

>  <Genealogy>  (7) 
CCOc1ccc(C(=O)c2cncnc2)cc1[N-]S(=O)(=O)c1ccccc1OC(=O)C(F)(F)F (protonated)
CCOc1ccc(C(=O)c2cncnc2)cc1[N-]S(=O)(=O)c1ccccc1OC(=O)C(F)(F)F (3D coordinates assigned)
CCOc1ccc(C(=O)c2cncnc2)cc1[N-]S(=O)(=O)c1ccccc1OC(=O)C(F)(F)F (optimized conformer: 65.08233177914965 kcal/mol)

>  <smiles>  (7) 
CCOc1ccc(C(=O)c2cncnc2)cc1NS(=O)(=O)c1ccccc1OC(=O)C(F)(F)F

>  <score_type>  (7) 
oracle

>  <origin>  (7) 
adg

>  <m_score__min__energy>  (7) 
-10.68

>  <m_primary>  (7) 
energy

$$$$
7:0
     RDKit          3D

 30 32  0  0  0  0  0  0  0  0999 V2000
   58.0020   33.3450   44.4340 C   0  0  0  0  0  0  0  0  0  0  0  0
   57.7870   32.0390   44.6300 C   0  0  0  0  0  0  0  0  0  0  0  0
   57.0300   31.2990   43.7110 C   0  0  0  0  0  0  0  0  0  0  0  0
   56.8050   29.9340   43.9150 C   0  0  0  0  0  0  0  0  0  0  0  0
   57.3300   29.2690   45.0460 C   0  0  0  0  0  0  0  0  0  0  0  0
   57.0990   27.9420   45.2230 C   0  0  0  0  0  0  0  0  0  0  0  0
   55.8940   27.4550   45.6160 N   0  0  0  0  0  0  0  0  0  0  0  0
   56.0860   26.1260   45.6800 C   0  0  0  0  0  0  0  0  0  0  0  0
   55.1880   25.3100   46.0210 O   0  0  0  0  0  0  0  0  0  0  0  0
   57.3750   25.8080   45.3250 C   0  0  0  0  0  0  0  0  0  0  0  0
   57.9100   24.5740   45.3120 C   0  0  0  0  0  0  0  0  0  0  0  0
   57.4580   23.4770   44.4370 C   0  0  0  0  0  0  0  0  0  0  0  0
   56.5340   23.6850   43.4010 C   0  0  0  0  0  0  0  0  0  0  0  0
   56.2840   22.5530   42.6400 C   0  0  0  0  0  0  0  0  0  0  0  0
   57.2370   21.3050   43.2340 S   0  0  0  0  0  0  0  0  0  0  0  0
   57.9690   22.1810   44.4660 C   0  0  0  0  0  0  0  0  0  0  0  0
   58.0200   26.9580   45.0440 N   0  0  0  0  0  0  0  0  0  0  0  0
   58.0950   30.0270   45.9620 C   0  0  0  0  0  0  0  0  0  0  0  0
   58.3180   31.3930   45.7550 C   0  0  0  0  0  0  0  0  0  0  0  0
   58.5970   33.9194   45.1593 H   0  0  0  0  0  0  0  0  0  0  0  0
   57.5838   33.8443   43.5475 H   0  0  0  0  0  0  0  0  0  0  0  0
   56.6102   31.7953   42.8236 H   0  0  0  0  0  0  0  0  0  0  0  0
   56.2095   29.3686   43.1831 H   0  0  0  0  0  0  0  0  0  0  0  0
   58.7421   24.3693   46.0017 H   0  0  0  0  0  0  0  0  0  0  0  0
   56.0529   24.6557   43.2105 H   0  0  0  0  0  0  0  0  0  0  0  0
   55.5835   22.4847   41.7946 H   0  0  0  0  0  0  0  0  0  0  0  0
   58.7205   21.7984   45.1723 H   0  0  0  0  0  0  0  0  0  0  0  0
   59.0290   27.0570   44.8070 H   0  0  0  0  0  0  0  0  0  0  0  0
   58.5208   29.5363   46.8496 H   0  0  0  0  0  0  0  0  0  0  0  0
   58.9149   31.9644   46.4811 H   0  0  0  0  0  0  0  0  0  0  0  0
  1  2  2  0
  2  3  1  0
  3  4  2  0
  4  5  1  0
  5  6  2  3
  6  7  1  0
  7  8  1  0
  8  9  2  0
  8 10  1  0
 10 11  2  3
 11 12  1  0
 12 13  1  0
 13 14  2  0
 14 15  1  0
 15 16  1  0
 10 17  1  0
  5 18  1  0
 18 19  2  0
 19  2  1  0
 17  6  1  0
 16 12  2  0
  1 20  1  0
  1 21  1  0
  3 22  1  0
  4 23  1  0
 11 24  1  0
 13 25  1  0
 14 26  1  0
 16 27  1  0
 17 28  1  0
 18 29  1  0
 19 30  1  0
M  CHG  1   7  -1
M  END
>  <UniqueID>  (8) 
8

>  <SMILES>  (8) 
C=c1ccc(=c2[n-]c(=O)c(=Cc3ccsc3)[nH]2)cc1

>  <Energy>  (8) 
100.9344481123716

>  <Genealogy>  (8) 
C=c1ccc(=c2[n-]c(=O)c(=Cc3ccsc3)[nH]2)cc1 (protonated)
C=c1ccc(=c2[n-]c(=O)c(=Cc3ccsc3)[nH]2)cc1 (3D coordinates assigned)
C=c1ccc(=c2[n-]c(=O)c(=Cc3ccsc3)[nH]2)cc1 (optimized conformer: 100.9344481123716 kcal/mol)

>  <smiles>  (8) 
C=c1ccc(=c2[nH]c(=O)c(=Cc3ccsc3)[nH]2)cc1

>  <score_type>  (8) 
oracle

>  <origin>  (8) 
adg

>  <m_score__min__energy>  (8) 
-8.8100000000000005

>  <m_primary>  (8) 
energy

$$$$
8:0
     RDKit          3D

 34 35  0  0  0  0  0  0  0  0999 V2000
   59.1779   28.7468   47.3021 H   0  0  0  0  0  0  0  0  0  0  0  0
   59.2320   29.6440   46.6680 C   0  0  0  0  0  0  0  0  0  0  0  0
   59.3950   29.4340   45.2170 C   0  0  0  0  0  0  0  0  0  0  0  0
   60.2460   28.6170   44.7690 O   0  0  0  0  0  0  0  0  0  0  0  0
   58.5420   30.1150   44.3430 O   0  0  0  0  0  0  0  0  0  0  0  0
   57.3730   29.5250   43.7720 C   0  0  0  0  0  0  0  0  0  0  0  0
   57.6622   28.6204   43.2169 H   0  0  0  0  0  0  0  0  0  0  0  0
   56.9049   30.2593   43.0999 H   0  0  0  0  0  0  0  0  0  0  0  0
   56.3760   29.1500   44.8380 C   0  0  0  0  0  0  0  0  0  0  0  0
   55.2670   29.7470   44.8740 O   0  0  0  0  0  0  0  0  0  0  0  0
   56.6380   28.1410   45.8280 N   0  0  0  0  0  0  0  0  0  0  0  0
   56.5000   26.8490   45.7210 C   0  0  0  0  0  0  0  0  0  0  0  0
   55.3170   26.2320   46.0020 N   0  0  0  0  0  0  0  0  0  0  0  0
   55.1670   24.8830   45.9090 C   0  0  0  0  0  0  0  0  0  0  0  0
   54.1957   24.4206   46.1387 H   0  0  0  0  0  0  0  0  0  0  0  0
   56.2460   24.0850   45.5220 C   0  0  0  0  0  0  0  0  0  0  0  0
   56.0480   22.1900   45.3880 Br  0  0  0  0  0  0  0  0  0  0  0  0
   57.4720   24.6890   45.2360 C   0  0  0  0  0  0  0  0  0  0  0  0
   58.3320   24.0745   44.9313 H   0  0  0  0  0  0  0  0  0  0  0  0
   57.6030   26.0760   45.3380 C   0  0  0  0  0  0  0  0  0  0  0  0
   58.5671   26.5582   45.1187 H   0  0  0  0  0  0  0  0  0  0  0  0
   59.1440   30.8340   47.2820 C   0  0  0  0  0  0  0  0  0  0  0  0
   59.0378   30.8300   48.3769 H   0  0  0  0  0  0  0  0  0  0  0  0
   59.1780   32.1500   46.6090 C   0  0  0  0  0  0  0  0  0  0  0  0
   58.0640   32.6360   45.9010 C   0  0  0  0  0  0  0  0  0  0  0  0
   57.1600   32.0161   45.8087 H   0  0  0  0  0  0  0  0  0  0  0  0
   58.1020   33.9050   45.3140 C   0  0  0  0  0  0  0  0  0  0  0  0
   57.2343   34.2746   44.7478 H   0  0  0  0  0  0  0  0  0  0  0  0
   59.2410   34.7040   45.4460 C   0  0  0  0  0  0  0  0  0  0  0  0
   59.2750   35.9340   44.8770 F   0  0  0  0  0  0  0  0  0  0  0  0
   60.3400   34.2390   46.1740 C   0  0  0  0  0  0  0  0  0  0  0  0
   61.2335   34.8712   46.2838 H   0  0  0  0  0  0  0  0  0  0  0  0
   60.3050   32.9710   46.7630 C   0  0  0  0  0  0  0  0  0  0  0  0
   61.1651   32.6159   47.3497 H   0  0  0  0  0  0  0  0  0  0  0  0
  1  2  1  0
  2  3  1  0
  3  4  2  0
  3  5  1  0
  5  6  1  0
  6  7  1  0
  6  8  1  0
  6  9  1  0
  9 10  2  0
  9 11  1  0
 11 12  2  3
 12 13  1  0
 13 14  1  0
 14 15  1  0
 14 16  2  0
 16 17  1  0
 16 18  1  0
 18 19  1  0
 18 20  2  0
 20 21  1  0
  2 22  2  0
 22 23  1  0
 22 24  1  0
 24 25  2  0
 25 26  1  0
 25 27  1  0
 27 28  1  0
 27 29  2  0
 29 30  1  0
 29 31  1  0
 31 32  1  0
 31 33  2  0
 33 34  1  0
 20 12  1  0
 33 24  1  0
M  CHG  1  13  -1
M  END
>  <UniqueID>  (9) 
9

>  <SMILES>  (9) 
O=C(COC(=O)/C=C\c1ccc(F)cc1)N=c1ccc(Br)c[n-]1

>  <Energy>  (9) 
45.762450474970315

>  <Genealogy>  (9) 
O=C(COC(=O)C=Cc1ccc(F)cc1)N=c1ccc(Br)c[n-]1 (protonated)
O=C(COC(=O)/C=C\c1ccc(F)cc1)N=c1ccc(Br)c[n-]1 (cis-trans isomerization)
O=C(COC(=O)/C=C\c1ccc(F)cc1)N=c1ccc(Br)c[n-]1 (3D coordinates assigned)
O=C(COC(=O)/C=C\c1ccc(F)cc1)N=c1ccc(Br)c[n-]1 (optimized conformer: 45.762450474970315 kcal/mol)

>  <smiles>  (9) 
O=C(COC(=O)C=Cc1ccc(F)cc1)N=c1ccc(Br)c[nH]1

>  <score_type>  (9) 
oracle

>  <origin>  (9) 
adg

>  <m_score__min__energy>  (9) 
-9.7300000000000004

>  <m_primary>  (9) 
energy

$$$$
9:0
     RDKit          3D

 29 30  0  0  0  0  0  0  0  0999 V2000
   56.8380   25.3220   46.5060 O   0  0  0  0  0  0  0  0  0  0  0  0
   56.2230   26.3520   46.1240 C   0  0  0  0  0  0  0  0  0  0  0  0
   54.8420   26.3090   45.9790 O   0  0  0  0  0  0  0  0  0  0  0  0
   56.9550   27.5920   45.8340 C   0  0  0  0  0  0  0  0  0  0  0  0
   58.3030   27.8230   46.0590 C   0  0  0  0  0  0  0  0  0  0  0  0
   58.6260   29.0750   45.6670 N   0  0  0  0  0  0  0  0  0  0  0  0
   59.9630   29.6650   45.6840 C   0  0  0  0  0  0  0  0  0  0  0  0
   60.2000   30.3930   47.0090 C   0  0  0  0  0  0  0  0  0  0  0  0
   59.7490   31.8260   46.9150 C   0  0  0  0  0  0  0  0  0  0  0  0
   60.6580   32.8320   46.5480 C   0  0  0  0  0  0  0  0  0  0  0  0
   60.2300   34.1580   46.4300 C   0  0  0  0  0  0  0  0  0  0  0  0
   58.8920   34.4870   46.6660 C   0  0  0  0  0  0  0  0  0  0  0  0
   57.9790   33.4880   47.0180 C   0  0  0  0  0  0  0  0  0  0  0  0
   58.4030   32.1610   47.1370 C   0  0  0  0  0  0  0  0  0  0  0  0
   57.5030   29.6370   45.1760 C   0  0  0  0  0  0  0  0  0  0  0  0
   57.4410   30.9240   44.6470 O   0  0  0  0  0  0  0  0  0  0  0  0
   56.4540   28.7510   45.2710 C   0  0  0  0  0  0  0  0  0  0  0  0
   55.1440   28.9810   44.8670 O   0  0  0  0  0  0  0  0  0  0  0  0
   59.0052   27.0955   46.4921 H   0  0  0  0  0  0  0  0  0  0  0  0
   60.7133   28.8692   45.5669 H   0  0  0  0  0  0  0  0  0  0  0  0
   60.0491   30.3853   44.8571 H   0  0  0  0  0  0  0  0  0  0  0  0
   59.6340   29.8875   47.8053 H   0  0  0  0  0  0  0  0  0  0  0  0
   61.2762   30.3744   47.2360 H   0  0  0  0  0  0  0  0  0  0  0  0
   61.7098   32.5759   46.3528 H   0  0  0  0  0  0  0  0  0  0  0  0
   60.9475   34.9437   46.1509 H   0  0  0  0  0  0  0  0  0  0  0  0
   58.5576   35.5310   46.5749 H   0  0  0  0  0  0  0  0  0  0  0  0
   56.9257   33.7466   47.2015 H   0  0  0  0  0  0  0  0  0  0  0  0
   57.6800   31.3766   47.4054 H   0  0  0  0  0  0  0  0  0  0  0  0
   56.5990   31.2620   44.1960 H   0  0  0  0  0  0  0  0  0  0  0  0
  1  2  2  0
  2  3  1  0
  2  4  1  0
  4  5  2  0
  5  6  1  0
  6  7  1  0
  7  8  1  0
  8  9  1  0
  9 10  2  0
 10 11  1  0
 11 12  2  0
 12 13  1  0
 13 14  2  0
  6 15  1  0
 15 16  1  0
 15 17  2  0
 17 18  1  0
 17  4  1  0
 14  9  1  0
  5 19  1  0
  7 20  1  0
  7 21  1  0
  8 22  1  0
  8 23  1  0
 10 24  1  0
 11 25  1  0
 12 26  1  0
 13 27  1  0
 14 28  1  0
 16 29  1  0
M  CHG  2   3  -1  18  -1
M  END
>  <UniqueID>  (10) 
10

>  <SMILES>  (10) 
O=C([O-])c1cn(CCc2ccccc2)c(O)c1[O-]

>  <Energy>  (10) 
53.73489647455466

>  <Genealogy>  (10) 
O=C([O-])c1cn(CCc2ccccc2)c(O)c1[O-] (protonated)
O=C([O-])c1cn(CCc2ccccc2)c(O)c1[O-] (3D coordinates assigned)
O=C([O-])c1cn(CCc2ccccc2)c(O)c1[O-] (optimized conformer: 53.73489647455466 kcal/mol)

>  <smiles>  (10) 
O=C(O)c1cn(CCc2ccccc2)c(O)c1O

>  <score_type>  (10) 
oracle

>  <origin>  (10) 
adg

>  <m_score__min__energy>  (10) 
-12.43

>  <m_primary>  (10) 
energy

$$$$
10:0
     RDKit          3D

 37 39  0  0  0  0  0  0  0  0999 V2000
   58.5285   26.0601   47.5172 H   0  0  0  0  0  0  0  0  0  0  0  0
   58.3940   27.0850   47.1410 C   0  0  0  0  0  0  0  0  0  0  0  0
   59.2650   28.0550   47.5100 N   0  0  0  0  0  0  0  0  0  0  0  0
   59.1580   29.3360   47.0740 C   0  0  0  0  0  0  0  0  0  0  0  0
   60.0970   30.2840   47.5020 C   0  0  0  0  0  0  0  0  0  0  0  0
   61.1190   29.8750   48.3730 O   0  0  0  0  0  0  0  0  0  0  0  0
   60.9200   29.5030   49.7340 C   0  0  0  0  0  0  0  0  0  0  0  0
   61.3360   30.2807   50.3913 H   0  0  0  0  0  0  0  0  0  0  0  0
   59.8432   29.3942   49.9307 H   0  0  0  0  0  0  0  0  0  0  0  0
   61.4271   28.5469   49.9307 H   0  0  0  0  0  0  0  0  0  0  0  0
   59.9910   31.6090   47.0500 C   0  0  0  0  0  0  0  0  0  0  0  0
   60.7243   32.3591   47.3813 H   0  0  0  0  0  0  0  0  0  0  0  0
   58.9640   31.9810   46.1850 C   0  0  0  0  0  0  0  0  0  0  0  0
   58.8966   33.0234   45.8403 H   0  0  0  0  0  0  0  0  0  0  0  0
   58.0120   31.0430   45.7460 C   0  0  0  0  0  0  0  0  0  0  0  0
   56.9750   31.4190   44.8740 O   0  0  0  0  0  0  0  0  0  0  0  0
   57.0280   31.3180   43.4530 C   0  0  0  0  0  0  0  0  0  0  0  0
   57.5220   30.3766   43.1705 H   0  0  0  0  0  0  0  0  0  0  0  0
   56.0062   31.3324   43.0460 H   0  0  0  0  0  0  0  0  0  0  0  0
   57.5967   32.1671   43.0460 H   0  0  0  0  0  0  0  0  0  0  0  0
   58.1060   29.6990   46.1930 C   0  0  0  0  0  0  0  0  0  0  0  0
   57.1900   28.6930   45.7930 C   0  0  0  0  0  0  0  0  0  0  0  0
   56.2650   28.9640   44.9810 O   0  0  0  0  0  0  0  0  0  0  0  0
   57.3240   27.3750   46.2850 C   0  0  0  0  0  0  0  0  0  0  0  0
   56.3930   26.2770   45.9220 C   0  0  0  0  0  0  0  0  0  0  0  0
   55.0820   26.3760   46.0080 O   0  0  0  0  0  0  0  0  0  0  0  0
   54.4910   25.2850   45.6160 N   0  0  0  0  0  0  0  0  0  0  0  0
   55.4720   24.4360   45.2530 C   0  0  0  0  0  0  0  0  0  0  0  0
   55.2860   23.2360   44.7910 N   0  0  0  0  0  0  0  0  0  0  0  0
   56.0690   22.5950   43.7710 C   0  0  0  0  0  0  0  0  0  0  0  0
   55.5780   22.3270   42.6410 O   0  0  0  0  0  0  0  0  0  0  0  0
   57.4720   22.1890   44.0760 C   0  0  0  0  0  0  0  0  0  0  0  0
   57.6131   22.1482   45.1661 H   0  0  0  0  0  0  0  0  0  0  0  0
   57.6689   21.1970   43.6434 H   0  0  0  0  0  0  0  0  0  0  0  0
   58.1683   22.9225   43.6434 H   0  0  0  0  0  0  0  0  0  0  0  0
   56.7050   25.0210   45.4270 C   0  0  0  0  0  0  0  0  0  0  0  0
   57.6982   24.5947   45.2226 H   0  0  0  0  0  0  0  0  0  0  0  0
  1  2  1  0
  2  3  1  0
  3  4  1  0
  4  5  2  0
  5  6  1  0
  6  7  1  0
  7  8  1  0
  7  9  1  0
  7 10  1  0
  5 11  1  0
 11 12  1  0
 11 13  2  0
 13 14  1  0
 13 15  1  0
 15 16  1  0
 16 17  1  0
 17 18  1  0
 17 19  1  0
 17 20  1  0
 15 21  2  0
 21 22  1  0
 22 23  2  0
 22 24  1  0
 24 25  1  0
 25 26  1  0
 26 27  1  0
 27 28  1  0
 28 29  2  0
 29 30  1  0
 30 31  2  0
 30 32  1  0
 32 33  1  0
 32 34  1  0
 32 35  1  0
 28 36  1  0
 36 37  1  0
 24  2  2  0
 36 25  2  0
 21  4  1  0
M  CHG  2   3  -1  27  -1
M  END
>  <UniqueID>  (11) 
11

>  <SMILES>  (11) 
COc1ccc(OC)c2c(=O)c(-c3c/c(=N/C(C)=O)[n-]o3)c[n-]c12

>  <Energy>  (11) 
80.4469262057766

>  <Genealogy>  (11) 
COc1ccc(OC)c2c(=O)c(-c3cc(=NC(C)=O)[n-]o3)c[n-]c12 (protonated)
COc1ccc(OC)c2c(=O)c(-c3c/c(=N/C(C)=O)[n-]o3)c[n-]c12 (cis-trans isomerization)
COc1ccc(OC)c2c(=O)c(-c3c/c(=N/C(C)=O)[n-]o3)c[n-]c12 (3D coordinates assigned)
COc1ccc(OC)c2c(=O)c(-c3c/c(=N/C(C)=O)[n-]o3)c[n-]c12 (optimized conformer: 80.4469262057766 kcal/mol)

>  <smiles>  (11) 
COc1ccc(OC)c2c(=O)c(-c3cc(=NC(C)=O)[nH]o3)c[nH]c12

>  <score_type>  (11) 
oracle

>  <origin>  (11) 
adg

>  <m_score__min__energy>  (11) 
-10.880000000000001

>  <m_primary>  (11) 
energy

$$$$
11:0
     RDKit          3D

 52 55  0  0  0  0  0  0  0  0999 V2000
   57.4147   31.4735   53.3462 H   0  0  0  0  0  0  0  0  0  0  0  0
   57.8350   31.2270   52.3600 C   0  0  0  0  0  0  0  0  0  0  0  0
   57.7280   32.1390   51.3070 C   0  0  0  0  0  0  0  0  0  0  0  0
   57.2159   33.1000   51.4628 H   0  0  0  0  0  0  0  0  0  0  0  0
   58.2710   31.8320   50.0550 C   0  0  0  0  0  0  0  0  0  0  0  0
   58.1693   32.5451   49.2237 H   0  0  0  0  0  0  0  0  0  0  0  0
   58.9480   30.6120   49.8550 C   0  0  0  0  0  0  0  0  0  0  0  0
   59.4960   30.2430   48.5780 N   0  0  0  0  0  0  0  0  0  0  0  0
   58.8940   30.3180   47.4270 C   0  0  0  0  0  0  0  0  0  0  0  0
   58.1470   29.2920   46.9450 N   0  0  0  0  0  0  0  0  0  0  0  0
   57.7410   29.7660   45.7570 C   0  0  0  0  0  0  0  0  0  0  0  0
   56.9190   29.1380   44.8250 C   0  0  0  0  0  0  0  0  0  0  0  0
   56.5285   28.1251   45.0023 H   0  0  0  0  0  0  0  0  0  0  0  0
   56.6050   29.8430   43.6490 C   0  0  0  0  0  0  0  0  0  0  0  0
   55.9571   29.3791   42.8906 H   0  0  0  0  0  0  0  0  0  0  0  0
   57.1160   31.1430   43.4350 C   0  0  0  0  0  0  0  0  0  0  0  0
   56.8544   31.6875   42.5157 H   0  0  0  0  0  0  0  0  0  0  0  0
   57.9600   31.7490   44.3920 C   0  0  0  0  0  0  0  0  0  0  0  0
   58.4840   33.1470   44.2000 C   0  0  0  0  0  0  0  0  0  0  0  0
   58.2315   33.4916   43.1863 H   0  0  0  0  0  0  0  0  0  0  0  0
   59.5752   33.1387   44.3385 H   0  0  0  0  0  0  0  0  0  0  0  0
   57.8630   34.1020   45.2260 C   0  0  0  0  0  0  0  0  0  0  0  0
   57.2381   33.5233   45.9221 H   0  0  0  0  0  0  0  0  0  0  0  0
   57.2579   34.8457   44.6868 H   0  0  0  0  0  0  0  0  0  0  0  0
   58.9450   34.8430   46.0230 C   0  0  0  0  0  0  0  0  0  0  0  0
   58.4631   35.5763   46.6864 H   0  0  0  0  0  0  0  0  0  0  0  0
   59.6179   35.3460   45.3129 H   0  0  0  0  0  0  0  0  0  0  0  0
   59.7440   33.9040   46.8410 N   0  0  0  0  0  0  0  0  0  0  0  0
   61.1300   33.8410   46.3410 C   0  0  0  0  0  0  0  0  0  0  0  0
   61.6198   34.8112   46.5107 H   0  0  0  0  0  0  0  0  0  0  0  0
   61.1085   33.6078   45.2662 H   0  0  0  0  0  0  0  0  0  0  0  0
   61.9230   32.7380   47.0730 C   0  0  0  0  0  0  0  0  0  0  0  0
   62.9406   33.1059   47.2708 H   0  0  0  0  0  0  0  0  0  0  0  0
   61.9364   31.8478   46.4269 H   0  0  0  0  0  0  0  0  0  0  0  0
   61.2960   32.3550   48.3600 N   0  0  0  0  0  0  0  0  0  0  0  0
   60.4780   31.7280   48.1660 H   0  0  0  0  0  0  0  0  0  0  0  0
   62.2480   31.5950   49.1890 C   0  0  0  0  0  0  0  0  0  0  0  0
   62.0289   31.7699   50.2527 H   0  0  0  0  0  0  0  0  0  0  0  0
   62.1526   30.5220   48.9666 H   0  0  0  0  0  0  0  0  0  0  0  0
   63.2732   31.9258   48.9666 H   0  0  0  0  0  0  0  0  0  0  0  0
   60.8200   33.5480   49.0840 C   0  0  0  0  0  0  0  0  0  0  0  0
   61.6677   34.2282   49.2535 H   0  0  0  0  0  0  0  0  0  0  0  0
   60.3866   33.2271   50.0427 H   0  0  0  0  0  0  0  0  0  0  0  0
   59.7320   34.2880   48.2740 C   0  0  0  0  0  0  0  0  0  0  0  0
   59.9069   35.3712   48.3523 H   0  0  0  0  0  0  0  0  0  0  0  0
   58.7525   34.0104   48.6905 H   0  0  0  0  0  0  0  0  0  0  0  0
   58.2390   31.0180   45.5520 C   0  0  0  0  0  0  0  0  0  0  0  0
   58.9840   31.3940   46.6020 N   0  0  0  0  0  0  0  0  0  0  0  0
   59.0220   29.6920   50.9100 C   0  0  0  0  0  0  0  0  0  0  0  0
   59.5126   28.7199   50.7539 H   0  0  0  0  0  0  0  0  0  0  0  0
   58.4760   30.0020   52.1600 C   0  0  0  0  0  0  0  0  0  0  0  0
   58.5515   29.2802   52.9866 H   0  0  0  0  0  0  0  0  0  0  0  0
  1  2  1  0
  2  3  2  0
  3  4  1  0
  3  5  1  0
  5  6  1  0
  5  7  2  0
  7  8  1  0
  8  9  2  0
  9 10  1  0
 10 11  1  0
 11 12  2  0
 12 13  1  0
 12 14  1  0
 14 15  1  0
 14 16  2  0
 16 17  1  0
 16 18  1  0
 18 19  1  0
 19 20  1  0
 19 21  1  0
 19 22  1  0
 22 23  1  0
 22 24  1  0
 22 25  1  0
 25 26  1  0
 25 27  1  0
 25 28  1  0
 28 29  1  0
 29 30  1  0
 29 31  1  0
 29 32  1  0
 32 33  1  0
 32 34  1  0
 32 35  1  0
 35 36  1  0
 35 37  1  0
 37 38  1  0
 37 39  1  0
 37 40  1  0
 35 41  1  0
 41 42  1  0
 41 43  1  0
 41 44  1  0
 44 45  1  0
 44 46  1  0
 18 47  2  0
 47 48  1  0
  7 49  1  0
 49 50  1  0
 49 51  2  0
 51 52  1  0
 51  2  1  0
 48  9  1  0
 47 11  1  0
 44 28  1  0
M  CHG  3  10  -1  35   1  48  -1
M  END
>  <UniqueID>  (12) 
12

>  <SMILES>  (12) 
C[NH+]1CCN(CCCc2cccc3[n-]/c(=N/c4ccccc4)[n-]c23)CC1

>  <Energy>  (12) 
99.39328822848701

>  <Genealogy>  (12) 
C[NH+]1CCN(CCCc2cccc3[n-]c(=Nc4ccccc4)[n-]c23)CC1 (protonated)
C[NH+]1CCN(CCCc2cccc3[n-]/c(=N/c4ccccc4)[n-]c23)CC1 (cis-trans isomerization)
C[NH+]1CCN(CCCc2cccc3[n-]/c(=N/c4ccccc4)[n-]c23)CC1 (3D coordinates assigned)
C[NH+]1CCN(CCCc2cccc3[n-]/c(=N/c4ccccc4)[n-]c23)CC1 (nonaromatic ring conformer: 99.39328822848701 kcal/mol)

>  <smiles>  (12) 
CN1CCN(CCCc2cccc3[nH]c(=Nc4ccccc4)[nH]c23)CC1

>  <score_type>  (12) 
oracle

>  <origin>  (12) 
adg

>  <m_score__min__energy>  (12) 
-7.4100000000000001

>  <m_primary>  (12) 
energy

$$$$
12:0
     RDKit          3D

 42 43  0  0  1  0  0  0  0  0999 V2000
   57.4010   33.2360   44.5720 C   0  0  0  0  0  0  0  0  0  0  0  0
   57.5760   31.8540   45.0150 C   0  0  0  0  0  0  0  0  0  0  0  0
   56.5690   30.9480   44.7520 C   0  0  0  0  0  0  0  0  0  0  0  0
   56.6670   29.6100   45.1360 C   0  0  0  0  0  0  0  0  0  0  0  0
   55.5740   28.8170   44.8260 O   0  0  0  0  0  0  0  0  0  0  0  0
   57.7730   29.1500   45.7870 C   0  0  0  0  0  0  0  0  0  0  0  0
   58.1040   27.8000   46.1270 C   0  0  0  0  0  0  0  0  0  0  0  0
   57.5760   26.6810   45.7490 C   0  0  0  0  0  0  0  0  0  0  0  0
   56.3150   26.1050   46.1080 C   0  0  0  0  0  0  0  0  0  0  0  0
   55.0590   26.6720   46.0110 O   0  0  0  0  0  0  0  0  0  0  0  0
   56.3260   24.8980   46.5920 N   0  0  0  0  0  0  0  0  0  0  0  0
   55.1400   24.3640   47.1060 O   0  0  0  0  0  0  0  0  0  0  0  0
   58.7710   30.1020   46.0370 C   0  0  0  0  0  0  0  0  0  0  0  0
   59.8130   29.7340   46.6380 O   0  0  0  0  0  0  0  0  0  0  0  0
   58.6750   31.3900   45.6700 N   0  0  0  0  0  0  0  0  0  0  0  0
   59.7540   32.2900   45.9760 C   0  0  0  0  0  0  0  0  0  0  0  0
   60.0890   32.5430   47.3620 C   0  0  0  0  0  0  0  0  0  0  0  0
   61.4020   32.8300   47.7540 C   0  0  0  0  0  0  0  0  0  0  0  0
   61.7230   33.0780   49.0840 C   0  0  0  0  0  0  0  0  0  0  0  0
   60.7760   33.0560   50.0800 C   0  0  0  0  0  0  0  0  0  0  0  0
   59.4820   32.7750   49.7070 C   0  0  0  0  0  0  0  0  0  0  0  0
   58.4400   32.7420   50.7420 C   0  0  0  0  0  0  0  0  0  0  0  0
   57.3840   31.7930   50.6770 N   0  0  0  0  0  0  0  0  0  0  0  0
   58.4400   33.5430   51.7190 O   0  0  0  0  0  0  0  0  0  0  0  0
   59.1500   32.5280   48.3950 C   0  0  0  0  0  0  0  0  0  0  0  0
   57.3176   33.8945   45.4492 H   0  0  0  0  0  0  0  0  0  0  0  0
   58.2679   33.5396   43.9667 H   0  0  0  0  0  0  0  0  0  0  0  0
   56.4858   33.3139   43.9667 H   0  0  0  0  0  0  0  0  0  0  0  0
   55.6653   31.2894   44.2259 H   0  0  0  0  0  0  0  0  0  0  0  0
   55.1480   28.2240   45.4930 H   0  0  0  0  0  0  0  0  0  0  0  0
   58.9473   27.6965   46.8257 H   0  0  0  0  0  0  0  0  0  0  0  0
   58.1834   26.0861   45.0510 H   0  0  0  0  0  0  0  0  0  0  0  0
   54.4050   26.6980   46.7810 H   0  0  0  0  0  0  0  0  0  0  0  0
   54.3050   24.8150   46.7320 H   0  0  0  0  0  0  0  0  0  0  0  0
   60.6569   31.8851   45.4955 H   0  0  0  0  0  0  0  0  0  0  0  0
   59.3954   33.2636   45.6107 H   0  0  0  0  0  0  0  0  0  0  0  0
   62.1965   32.8599   46.9938 H   0  0  0  0  0  0  0  0  0  0  0  0
   62.7679   33.2988   49.3474 H   0  0  0  0  0  0  0  0  0  0  0  0
   61.0411   33.2543   51.1290 H   0  0  0  0  0  0  0  0  0  0  0  0
   57.6150   30.8030   50.4080 H   0  0  0  0  0  0  0  0  0  0  0  0
   56.3870   32.0280   50.8850 H   0  0  0  0  0  0  0  0  0  0  0  0
   58.1003   32.3094   48.1495 H   0  0  0  0  0  0  0  0  0  0  0  0
  1  2  1  0
  2  3  2  0
  3  4  1  0
  4  5  1  0
  4  6  2  0
  6  7  1  0
  7  8  2  0
  8  9  1  0
  9 10  1  0
  9 11  2  0
 11 12  1  0
  6 13  1  0
 13 14  2  0
 13 15  1  0
 15 16  1  0
 16 17  1  0
 17 18  2  0
 18 19  1  0
 19 20  2  0
 20 21  1  0
 21 22  1  0
 22 23  1  0
 22 24  2  0
 21 25  2  0
 15  2  1  0
 25 17  1  0
  1 26  1  0
  1 27  1  0
  1 28  1  0
  3 29  1  0
  5 30  1  0
  7 31  1  0
  8 32  1  0
 10 33  1  0
 12 34  1  0
 16 35  1  0
 16 36  1  0
 18 37  1  0
 19 38  1  0
 20 39  1  0
 23 40  1  0
 23 41  1  0
 25 42  1  0
M  END
>  <smiles>  (13) 
Cc1cc(O)c(C=CC(O)=NO)c(=O)n1Cc1cccc(C(N)=O)c1

>  <score_type>  (13) 
oracle

>  <origin>  (13) 
adg

>  <m_score__min__energy>  (13) 
-9.2599999999999998

>  <m_primary>  (13) 
energy

$$$$
13:0
     RDKit          3D

 33 35  0  0  0  0  0  0  0  0999 V2000
   54.3380   25.9670   45.9590 O   0  0  0  0  0  0  0  0  0  0  0  0
   55.5290   26.3550   46.0790 C   0  0  0  0  0  0  0  0  0  0  0  0
   56.4460   25.5530   46.6790 N   0  0  0  0  0  0  0  0  0  0  0  0
   57.7370   25.9510   46.8160 C   0  0  0  0  0  0  0  0  0  0  0  0
   58.1450   27.2000   46.3310 C   0  0  0  0  0  0  0  0  0  0  0  0
   59.5660   27.6620   46.5230 C   0  0  0  0  0  0  0  0  0  0  0  0
   59.5910   28.9240   47.3250 C   0  0  0  0  0  0  0  0  0  0  0  0
   60.1100   30.1420   46.9380 C   0  0  0  0  0  0  0  0  0  0  0  0
   59.7960   31.0110   47.9180 N   0  0  0  0  0  0  0  0  0  0  0  0
   60.0390   32.4480   47.9120 C   0  0  0  0  0  0  0  0  0  0  0  0
   59.1740   33.1040   46.8710 C   0  0  0  0  0  0  0  0  0  0  0  0
   59.7150   34.0720   46.0090 C   0  0  0  0  0  0  0  0  0  0  0  0
   58.9230   34.6470   45.0110 C   0  0  0  0  0  0  0  0  0  0  0  0
   57.5900   34.2530   44.8610 C   0  0  0  0  0  0  0  0  0  0  0  0
   57.0490   33.2790   45.7040 C   0  0  0  0  0  0  0  0  0  0  0  0
   57.8390   32.7010   46.7040 C   0  0  0  0  0  0  0  0  0  0  0  0
   59.0970   30.3740   48.8450 N   0  0  0  0  0  0  0  0  0  0  0  0
   58.9670   29.1010   48.5040 N   0  0  0  0  0  0  0  0  0  0  0  0
   57.1740   28.0190   45.7290 C   0  0  0  0  0  0  0  0  0  0  0  0
   57.4740   29.1620   45.2930 O   0  0  0  0  0  0  0  0  0  0  0  0
   55.8940   27.5770   45.6130 N   0  0  0  0  0  0  0  0  0  0  0  0
   58.4649   25.2902   47.3096 H   0  0  0  0  0  0  0  0  0  0  0  0
   60.1337   26.8828   47.0527 H   0  0  0  0  0  0  0  0  0  0  0  0
   60.0196   27.8512   45.5389 H   0  0  0  0  0  0  0  0  0  0  0  0
   60.6678   30.3597   46.0152 H   0  0  0  0  0  0  0  0  0  0  0  0
   59.7989   32.8636   48.9018 H   0  0  0  0  0  0  0  0  0  0  0  0
   61.0971   32.6376   47.6786 H   0  0  0  0  0  0  0  0  0  0  0  0
   60.7656   34.3787   46.1197 H   0  0  0  0  0  0  0  0  0  0  0  0
   59.3489   35.4102   44.3431 H   0  0  0  0  0  0  0  0  0  0  0  0
   56.9666   34.7103   44.0785 H   0  0  0  0  0  0  0  0  0  0  0  0
   56.0015   32.9663   45.5816 H   0  0  0  0  0  0  0  0  0  0  0  0
   57.4131   31.9286   47.3613 H   0  0  0  0  0  0  0  0  0  0  0  0
   58.4360   28.3880   49.0530 H   0  0  0  0  0  0  0  0  0  0  0  0
  1  2  2  0
  2  3  1  0
  3  4  1  0
  4  5  2  0
  5  6  1  0
  6  7  1  0
  7  8  2  0
  8  9  1  0
  9 10  1  0
 10 11  1  0
 11 12  2  0
 12 13  1  0
 13 14  2  0
 14 15  1  0
 15 16  2  0
  9 17  1  0
 17 18  2  0
  5 19  1  0
 19 20  2  0
 19 21  1  0
 21  2  1  0
 18  7  1  0
 16 11  1  0
  4 22  1  0
  6 23  1  0
  6 24  1  0
  8 25  1  0
 10 26  1  0
 10 27  1  0
 12 28  1  0
 13 29  1  0
 14 30  1  0
 15 31  1  0
 16 32  1  0
 18 33  1  0
M  CHG  3   3  -1  18   1  21  -1
M  END
>  <UniqueID>  (14) 
13

>  <SMILES>  (14) 
O=c1[n-]cc(Cc2cn(Cc3ccccc3)n[nH+]2)c(=O)[n-]1

>  <Energy>  (14) 
69.22820677946358

>  <Genealogy>  (14) 
O=c1[n-]cc(Cc2cn(Cc3ccccc3)n[nH+]2)c(=O)[n-]1 (protonated)
O=c1[n-]cc(Cc2cn(Cc3ccccc3)n[nH+]2)c(=O)[n-]1 (3D coordinates assigned)
O=c1[n-]cc(Cc2cn(Cc3ccccc3)n[nH+]2)c(=O)[n-]1 (optimized conformer: 69.22820677946358 kcal/mol)

>  <smiles>  (14) 
O=c1[nH]cc(Cc2cn(Cc3ccccc3)nn2)c(=O)[nH]1

>  <score_type>  (14) 
oracle

>  <origin>  (14) 
adg

>  <m_score__min__energy>  (14) 
-10.94

>  <m_primary>  (14) 
energy

$$$$
14:0
     RDKit          3D

 49 51  0  0  0  0  0  0  0  0999 V2000
   57.0410   30.9040   43.0210 C   0  0  0  0  0  0  0  0  0  0  0  0
   57.1590   31.8940   44.1700 C   0  0  0  0  0  0  0  0  0  0  0  0
   58.4430   32.5200   44.1610 O   0  0  0  0  0  0  0  0  0  0  0  0
   58.8580   33.4190   45.1480 C   0  0  0  0  0  0  0  0  0  0  0  0
   59.2680   34.6990   44.7540 C   0  0  0  0  0  0  0  0  0  0  0  0
   59.6360   35.6490   45.7110 C   0  0  0  0  0  0  0  0  0  0  0  0
   59.6050   35.3220   47.0690 C   0  0  0  0  0  0  0  0  0  0  0  0
   59.2240   34.0410   47.4710 C   0  0  0  0  0  0  0  0  0  0  0  0
   58.8740   33.0700   46.5190 C   0  0  0  0  0  0  0  0  0  0  0  0
   58.5430   31.7460   46.9660 N   0  0  0  0  0  0  0  0  0  0  0  0
   59.2090   30.5720   46.4760 C   0  0  0  0  0  0  0  0  0  0  0  0
   60.3730   30.6730   46.0000 O   0  0  0  0  0  0  0  0  0  0  0  0
   58.5470   29.2470   46.5200 C   0  0  0  0  0  0  0  0  0  0  0  0
   57.5520   28.9200   45.5790 C   0  0  0  0  0  0  0  0  0  0  0  0
   56.8810   27.6970   45.6540 C   0  0  0  0  0  0  0  0  0  0  0  0
   57.1730   26.7900   46.6770 C   0  0  0  0  0  0  0  0  0  0  0  0
   56.4290   25.5660   46.7580 N   0  0  0  0  0  0  0  0  0  0  0  0
   55.5070   25.0750   45.7750 C   0  0  0  0  0  0  0  0  0  0  0  0
   54.3940   25.6510   45.6540 O   0  0  0  0  0  0  0  0  0  0  0  0
   55.8100   23.8940   44.9300 C   0  0  0  0  0  0  0  0  0  0  0  0
   56.2550   24.0640   43.6130 C   0  0  0  0  0  0  0  0  0  0  0  0
   56.5430   22.9520   42.8250 C   0  0  0  0  0  0  0  0  0  0  0  0
   56.3890   21.6690   43.3560 C   0  0  0  0  0  0  0  0  0  0  0  0
   56.6460   20.6700   42.6290 O   0  0  0  0  0  0  0  0  0  0  0  0
   55.9600   21.5020   44.6480 N   0  0  0  0  0  0  0  0  0  0  0  0
   55.7810   20.1530   45.2010 C   0  0  0  0  0  0  0  0  0  0  0  0
   55.6420   22.5870   45.4180 C   0  0  0  0  0  0  0  0  0  0  0  0
   58.1910   27.0930   47.5950 C   0  0  0  0  0  0  0  0  0  0  0  0
   58.8650   28.3130   47.5230 C   0  0  0  0  0  0  0  0  0  0  0  0
   56.9199   29.8876   43.4238 H   0  0  0  0  0  0  0  0  0  0  0  0
   56.1671   31.1606   42.4042 H   0  0  0  0  0  0  0  0  0  0  0  0
   57.9507   30.9480   42.4042 H   0  0  0  0  0  0  0  0  0  0  0  0
   56.3802   32.6638   44.0660 H   0  0  0  0  0  0  0  0  0  0  0  0
   57.0333   31.3534   45.1197 H   0  0  0  0  0  0  0  0  0  0  0  0
   59.3006   34.9581   43.6855 H   0  0  0  0  0  0  0  0  0  0  0  0
   59.9502   36.6546   45.3948 H   0  0  0  0  0  0  0  0  0  0  0  0
   59.8811   36.0749   47.8220 H   0  0  0  0  0  0  0  0  0  0  0  0
   59.1977   33.7901   48.5417 H   0  0  0  0  0  0  0  0  0  0  0  0
   57.9020   31.6480   47.7880 H   0  0  0  0  0  0  0  0  0  0  0  0
   57.3013   29.6324   44.7793 H   0  0  0  0  0  0  0  0  0  0  0  0
   56.1176   27.4459   44.9029 H   0  0  0  0  0  0  0  0  0  0  0  0
   56.3772   25.0764   43.2005 H   0  0  0  0  0  0  0  0  0  0  0  0
   56.8901   23.0835   41.7895 H   0  0  0  0  0  0  0  0  0  0  0  0
   55.7877   20.2033   46.2998 H   0  0  0  0  0  0  0  0  0  0  0  0
   54.8203   19.7409   44.8586 H   0  0  0  0  0  0  0  0  0  0  0  0
   56.6010   19.5046   44.8586 H   0  0  0  0  0  0  0  0  0  0  0  0
   55.2490   22.4341   46.4340 H   0  0  0  0  0  0  0  0  0  0  0  0
   58.4588   26.3651   48.3751 H   0  0  0  0  0  0  0  0  0  0  0  0
   59.6511   28.5462   48.2563 H   0  0  0  0  0  0  0  0  0  0  0  0
  1  2  1  0
  2  3  1  0
  3  4  1  0
  4  5  2  0
  5  6  1  0
  6  7  2  0
  7  8  1  0
  8  9  2  0
  9 10  1  0
 10 11  1  0
 11 12  2  0
 11 13  1  0
 13 14  2  0
 14 15  1  0
 15 16  2  0
 16 17  1  0
 17 18  1  0
 18 19  2  0
 18 20  1  0
 20 21  1  0
 21 22  2  0
 22 23  1  0
 23 24  2  0
 23 25  1  0
 25 26  1  0
 25 27  1  0
 16 28  1  0
 28 29  2  0
  9  4  1  0
 29 13  1  0
 27 20  2  0
  1 30  1  0
  1 31  1  0
  1 32  1  0
  2 33  1  0
  2 34  1  0
  5 35  1  0
  6 36  1  0
  7 37  1  0
  8 38  1  0
 10 39  1  0
 14 40  1  0
 15 41  1  0
 21 42  1  0
 22 43  1  0
 26 44  1  0
 26 45  1  0
 26 46  1  0
 27 47  1  0
 28 48  1  0
 29 49  1  0
M  CHG  1  17  -1
M  END
>  <UniqueID>  (15) 
14

>  <SMILES>  (15) 
CCOc1ccccc1NC(=O)c1ccc([N-]C(=O)c2ccc(=O)n(C)c2)cc1

>  <Energy>  (15) 
68.75045853397422

>  <Genealogy>  (15) 
CCOc1ccccc1NC(=O)c1ccc([N-]C(=O)c2ccc(=O)n(C)c2)cc1 (protonated)
CCOc1ccccc1NC(=O)c1ccc([N-]C(=O)c2ccc(=O)n(C)c2)cc1 (3D coordinates assigned)
CCOc1ccccc1NC(=O)c1ccc([N-]C(=O)c2ccc(=O)n(C)c2)cc1 (optimized conformer: 68.75045853397422 kcal/mol)

>  <smiles>  (15) 
CCOc1ccccc1NC(=O)c1ccc(NC(=O)c2ccc(=O)n(C)c2)cc1

>  <score_type>  (15) 
oracle

>  <origin>  (15) 
adg

>  <m_score__min__energy>  (15) 
-10

>  <m_primary>  (15) 
energy

$$$$
15:0
     RDKit          3D

 36 38  0  0  0  0  0  0  0  0999 V2000
   57.8220   32.4400   43.3590 C   0  0  0  0  0  0  0  0  0  0  0  0
   58.4690   32.5940   44.5160 C   0  0  0  0  0  0  0  0  0  0  0  0
   59.1860   33.7070   44.7970 N   0  0  0  0  0  0  0  0  0  0  0  0
   59.6300   33.5200   46.0580 C   0  0  0  0  0  0  0  0  0  0  0  0
   60.4060   34.4170   46.6880 C   0  0  0  0  0  0  0  0  0  0  0  0
   61.6800   34.1030   47.3640 C   0  0  0  0  0  0  0  0  0  0  0  0
   62.7990   33.6630   46.6370 C   0  0  0  0  0  0  0  0  0  0  0  0
   63.9820   33.3240   47.3000 C   0  0  0  0  0  0  0  0  0  0  0  0
   64.0510   33.3990   48.6980 C   0  0  0  0  0  0  0  0  0  0  0  0
   65.2240   33.0650   49.3700 O   0  0  0  0  0  0  0  0  0  0  0  0
   62.9280   33.8080   49.4270 C   0  0  0  0  0  0  0  0  0  0  0  0
   61.7450   34.1480   48.7650 C   0  0  0  0  0  0  0  0  0  0  0  0
   59.1860   32.2860   46.5050 C   0  0  0  0  0  0  0  0  0  0  0  0
   59.4650   31.7390   47.6060 O   0  0  0  0  0  0  0  0  0  0  0  0
   58.4520   31.7030   45.5400 N   0  0  0  0  0  0  0  0  0  0  0  0
   57.8450   30.4000   45.5990 C   0  0  0  0  0  0  0  0  0  0  0  0
   56.7110   30.1060   44.8260 C   0  0  0  0  0  0  0  0  0  0  0  0
   56.1350   28.8330   44.8710 C   0  0  0  0  0  0  0  0  0  0  0  0
   56.6880   27.8280   45.6850 C   0  0  0  0  0  0  0  0  0  0  0  0
   56.0830   26.4800   45.7360 C   0  0  0  0  0  0  0  0  0  0  0  0
   54.8540   26.3380   45.9810 O   0  0  0  0  0  0  0  0  0  0  0  0
   56.8620   25.3490   45.5170 O   0  0  0  0  0  0  0  0  0  0  0  0
   57.8310   28.1230   46.4480 C   0  0  0  0  0  0  0  0  0  0  0  0
   58.4060   29.3960   46.4020 C   0  0  0  0  0  0  0  0  0  0  0  0
   57.2494   31.5206   43.1672 H   0  0  0  0  0  0  0  0  0  0  0  0
   57.8613   33.2325   42.5972 H   0  0  0  0  0  0  0  0  0  0  0  0
   60.0670   35.4634   46.7012 H   0  0  0  0  0  0  0  0  0  0  0  0
   62.7438   33.5849   45.5412 H   0  0  0  0  0  0  0  0  0  0  0  0
   64.8603   32.9978   46.7236 H   0  0  0  0  0  0  0  0  0  0  0  0
   66.0400   32.7280   48.8740 H   0  0  0  0  0  0  0  0  0  0  0  0
   62.9769   33.8620   50.5246 H   0  0  0  0  0  0  0  0  0  0  0  0
   60.8610   34.4522   49.3447 H   0  0  0  0  0  0  0  0  0  0  0  0
   56.2729   30.8819   44.1809 H   0  0  0  0  0  0  0  0  0  0  0  0
   55.2428   28.6157   44.2654 H   0  0  0  0  0  0  0  0  0  0  0  0
   58.2765   27.3458   47.0864 H   0  0  0  0  0  0  0  0  0  0  0  0
   59.3041   29.6119   46.9993 H   0  0  0  0  0  0  0  0  0  0  0  0
  1  2  2  0
  2  3  1  0
  3  4  1  0
  4  5  2  3
  5  6  1  0
  6  7  2  0
  7  8  1  0
  8  9  2  0
  9 10  1  0
  9 11  1  0
 11 12  2  0
  4 13  1  0
 13 14  2  0
 13 15  1  0
 15 16  1  0
 16 17  2  0
 17 18  1  0
 18 19  2  0
 19 20  1  0
 20 21  2  0
 20 22  1  0
 19 23  1  0
 23 24  2  0
 15  2  1  0
 24 16  1  0
 12  6  1  0
  1 25  1  0
  1 26  1  0
  5 27  1  0
  7 28  1  0
  8 29  1  0
 10 30  1  0
 11 31  1  0
 12 32  1  0
 17 33  1  0
 18 34  1  0
 23 35  1  0
 24 36  1  0
M  CHG  2   3  -1  22  -1
M  END
>  <UniqueID>  (16) 
15

>  <SMILES>  (16) 
C=c1[n-]c(=Cc2ccc(O)cc2)c(=O)n1-c1ccc(C(=O)[O-])cc1

>  <Energy>  (16) 
86.0352326571025

>  <Genealogy>  (16) 
C=c1[n-]c(=Cc2ccc(O)cc2)c(=O)n1-c1ccc(C(=O)[O-])cc1 (protonated)
C=c1[n-]c(=Cc2ccc(O)cc2)c(=O)n1-c1ccc(C(=O)[O-])cc1 (3D coordinates assigned)
C=c1[n-]c(=Cc2ccc(O)cc2)c(=O)n1-c1ccc(C(=O)[O-])cc1 (optimized conformer: 86.0352326571025 kcal/mol)

>  <smiles>  (16) 
C=c1[nH]c(=Cc2ccc(O)cc2)c(=O)n1-c1ccc(C(=O)O)cc1

>  <score_type>  (16) 
oracle

>  <origin>  (16) 
adg

>  <m_score__min__energy>  (16) 
-10.6

>  <m_primary>  (16) 
energy

$$$$
16:0
     RDKit          3D

 44 46  0  0  0  0  0  0  0  0999 V2000
   61.6839   30.1929   46.2485 H   0  0  0  0  0  0  0  0  0  0  0  0
   60.7250   29.6860   46.0650 C   0  0  0  0  0  0  0  0  0  0  0  0
   59.6890   29.7960   46.9940 C   0  0  0  0  0  0  0  0  0  0  0  0
   59.8315   30.3932   47.9067 H   0  0  0  0  0  0  0  0  0  0  0  0
   58.4710   29.1490   46.7670 C   0  0  0  0  0  0  0  0  0  0  0  0
   57.6591   29.2358   47.5041 H   0  0  0  0  0  0  0  0  0  0  0  0
   58.2790   28.3880   45.6010 C   0  0  0  0  0  0  0  0  0  0  0  0
   56.9540   27.7130   45.3490 C   0  0  0  0  0  0  0  0  0  0  0  0
   56.7384   27.0254   46.1801 H   0  0  0  0  0  0  0  0  0  0  0  0
   57.0189   27.1651   44.3974 H   0  0  0  0  0  0  0  0  0  0  0  0
   55.8710   28.6900   45.2460 N   0  0  0  0  0  0  0  0  0  0  0  0
   55.5960   29.5380   44.1230 C   0  0  0  0  0  0  0  0  0  0  0  0
   54.5260   29.3640   43.4820 O   0  0  0  0  0  0  0  0  0  0  0  0
   56.4970   30.6350   43.7190 C   0  0  0  0  0  0  0  0  0  0  0  0
   56.8900   30.7900   42.3810 C   0  0  0  0  0  0  0  0  0  0  0  0
   56.5221   30.0899   41.6165 H   0  0  0  0  0  0  0  0  0  0  0  0
   57.7480   31.8320   42.0170 C   0  0  0  0  0  0  0  0  0  0  0  0
   58.0680   31.9386   40.9700 H   0  0  0  0  0  0  0  0  0  0  0  0
   58.2000   32.7380   42.9790 C   0  0  0  0  0  0  0  0  0  0  0  0
   58.8821   33.5511   42.6899 H   0  0  0  0  0  0  0  0  0  0  0  0
   57.7860   32.6130   44.3120 C   0  0  0  0  0  0  0  0  0  0  0  0
   58.3390   33.7530   45.5340 S   0  0  0  0  0  0  0  0  0  0  0  0
   57.1760   34.5870   45.9900 O   0  0  0  0  0  0  0  0  0  0  0  0
   59.3910   34.6680   44.9700 O   0  0  0  0  0  0  0  0  0  0  0  0
   58.9870   32.8900   46.8900 N   0  0  0  0  0  0  0  0  0  0  0  0
   60.1510   33.1450   47.3980 C   0  0  0  0  0  0  0  0  0  0  0  0
   61.3200   32.8950   46.7660 N   0  0  0  0  0  0  0  0  0  0  0  0
   62.3860   33.2500   47.5320 C   0  0  0  0  0  0  0  0  0  0  0  0
   63.7900   33.0620   47.0520 C   0  0  0  0  0  0  0  0  0  0  0  0
   64.4641   32.9717   47.9166 H   0  0  0  0  0  0  0  0  0  0  0  0
   63.8501   32.1478   46.4432 H   0  0  0  0  0  0  0  0  0  0  0  0
   64.0885   33.9282   46.4432 H   0  0  0  0  0  0  0  0  0  0  0  0
   62.0550   33.7990   48.7720 C   0  0  0  0  0  0  0  0  0  0  0  0
   63.0100   34.2110   49.8450 C   0  0  0  0  0  0  0  0  0  0  0  0
   62.5606   34.0171   50.8301 H   0  0  0  0  0  0  0  0  0  0  0  0
   63.9420   33.6349   49.7474 H   0  0  0  0  0  0  0  0  0  0  0  0
   63.2304   35.2843   49.7474 H   0  0  0  0  0  0  0  0  0  0  0  0
   60.3780   33.8150   48.9210 S   0  0  0  0  0  0  0  0  0  0  0  0
   56.9390   31.5600   44.6790 C   0  0  0  0  0  0  0  0  0  0  0  0
   56.6177   31.4566   45.7260 H   0  0  0  0  0  0  0  0  0  0  0  0
   59.3260   28.2890   44.6650 C   0  0  0  0  0  0  0  0  0  0  0  0
   59.1640   27.5770   43.5210 F   0  0  0  0  0  0  0  0  0  0  0  0
   60.5450   28.9330   44.9030 C   0  0  0  0  0  0  0  0  0  0  0  0
   61.3634   28.8459   44.1732 H   0  0  0  0  0  0  0  0  0  0  0  0
  1  2  1  0
  2  3  2  0
  3  4  1  0
  3  5  1  0
  5  6  1  0
  5  7  2  0
  7  8  1  0
  8  9  1  0
  8 10  1  0
  8 11  1  0
 11 12  1  0
 12 13  2  0
 12 14  1  0
 14 15  2  0
 15 16  1  0
 15 17  1  0
 17 18  1  0
 17 19  2  0
 19 20  1  0
 19 21  1  0
 21 22  1  0
 22 23  2  0
 22 24  2  0
 22 25  1  0
 25 26  2  0
 26 27  1  0
 27 28  1  0
 28 29  1  0
 29 30  1  0
 29 31  1  0
 29 32  1  0
 28 33  2  0
 33 34  1  0
 34 35  1  0
 34 36  1  0
 34 37  1  0
 33 38  1  0
 21 39  2  0
 39 40  1  0
  7 41  1  0
 41 42  1  0
 41 43  2  0
 43 44  1  0
 43  2  1  0
 39 14  1  0
 38 26  1  0
M  CHG  2  11  -1  27  -1
M  END
>  <UniqueID>  (17) 
16

>  <SMILES>  (17) 
Cc1[n-]/c(=N\S(=O)(=O)c2cccc(C(=O)[N-]Cc3ccccc3F)c2)sc1C

>  <Energy>  (17) 
75.28434082641762

>  <Genealogy>  (17) 
Cc1[n-]c(=NS(=O)(=O)c2cccc(C(=O)[N-]Cc3ccccc3F)c2)sc1C (protonated)
Cc1[n-]/c(=N\S(=O)(=O)c2cccc(C(=O)[N-]Cc3ccccc3F)c2)sc1C (cis-trans isomerization)
Cc1[n-]/c(=N\S(=O)(=O)c2cccc(C(=O)[N-]Cc3ccccc3F)c2)sc1C (3D coordinates assigned)
Cc1[n-]/c(=N\S(=O)(=O)c2cccc(C(=O)[N-]Cc3ccccc3F)c2)sc1C (optimized conformer: 75.28434082641762 kcal/mol)

>  <smiles>  (17) 
Cc1[nH]c(=NS(=O)(=O)c2cccc(C(=O)NCc3ccccc3F)c2)sc1C

>  <score_type>  (17) 
oracle

>  <origin>  (17) 
adg

>  <m_score__min__energy>  (17) 
-12.449999999999999

>  <m_primary>  (17) 
energy

$$$$
17:0
     RDKit          3D

 48 50  0  0  0  0  0  0  0  0999 V2000
   62.3370   34.1760   48.9600 C   0  0  0  0  0  0  0  0  0  0  0  0
   62.3260   33.2750   47.7950 N   0  0  0  0  0  0  0  0  0  0  0  0
   63.7090   33.0620   47.3250 C   0  0  0  0  0  0  0  0  0  0  0  0
   61.4660   33.8420   46.7290 C   0  0  0  0  0  0  0  0  0  0  0  0
   59.9980   33.9920   47.1740 C   0  0  0  0  0  0  0  0  0  0  0  0
   59.2580   32.6810   47.0950 C   0  0  0  0  0  0  0  0  0  0  0  0
   59.2840   31.6210   48.0100 C   0  0  0  0  0  0  0  0  0  0  0  0
   59.9980   31.5940   49.2970 C   0  0  0  0  0  0  0  0  0  0  0  0
   61.1800   31.1610   49.3340 O   0  0  0  0  0  0  0  0  0  0  0  0
   59.3560   32.0210   50.5070 N   0  0  0  0  0  0  0  0  0  0  0  0
   60.1200   32.7780   51.5040 C   0  0  0  0  0  0  0  0  0  0  0  0
   59.2410   33.8450   52.1790 C   0  0  0  0  0  0  0  0  0  0  0  0
   57.7750   33.4070   52.3870 C   0  0  0  0  0  0  0  0  0  0  0  0
   57.5830   31.8960   52.2430 C   0  0  0  0  0  0  0  0  0  0  0  0
   58.0570   31.4290   50.8630 C   0  0  0  0  0  0  0  0  0  0  0  0
   58.6280   30.5450   47.5150 N   0  0  0  0  0  0  0  0  0  0  0  0
   58.1830   30.9090   46.3020 C   0  0  0  0  0  0  0  0  0  0  0  0
   57.4780   30.1210   45.3930 C   0  0  0  0  0  0  0  0  0  0  0  0
   57.1550   30.6820   44.1440 C   0  0  0  0  0  0  0  0  0  0  0  0
   56.2710   29.7320   42.9650 Cl  0  0  0  0  0  0  0  0  0  0  0  0
   57.5540   32.0000   43.8300 C   0  0  0  0  0  0  0  0  0  0  0  0
   58.2690   32.7710   44.7640 C   0  0  0  0  0  0  0  0  0  0  0  0
   58.5540   32.1960   46.0050 C   0  0  0  0  0  0  0  0  0  0  0  0
   62.3297   33.5800   49.8845 H   0  0  0  0  0  0  0  0  0  0  0  0
   63.2428   34.7995   48.9328 H   0  0  0  0  0  0  0  0  0  0  0  0
   61.4467   34.8214   48.9328 H   0  0  0  0  0  0  0  0  0  0  0  0
   61.9360   32.3540   48.1060 H   0  0  0  0  0  0  0  0  0  0  0  0
   64.3789   32.9588   48.1914 H   0  0  0  0  0  0  0  0  0  0  0  0
   63.7526   32.1465   46.7167 H   0  0  0  0  0  0  0  0  0  0  0  0
   64.0261   33.9219   46.7167 H   0  0  0  0  0  0  0  0  0  0  0  0
   61.8541   34.8334   46.4524 H   0  0  0  0  0  0  0  0  0  0  0  0
   61.4880   33.1474   45.8763 H   0  0  0  0  0  0  0  0  0  0  0  0
   59.9749   34.3530   48.2128 H   0  0  0  0  0  0  0  0  0  0  0  0
   59.5049   34.7069   46.4989 H   0  0  0  0  0  0  0  0  0  0  0  0
   60.4968   32.0849   52.2706 H   0  0  0  0  0  0  0  0  0  0  0  0
   60.9553   33.2823   50.9962 H   0  0  0  0  0  0  0  0  0  0  0  0
   59.6751   34.0803   53.1620 H   0  0  0  0  0  0  0  0  0  0  0  0
   59.2221   34.7155   51.5067 H   0  0  0  0  0  0  0  0  0  0  0  0
   57.4581   33.7072   53.3967 H   0  0  0  0  0  0  0  0  0  0  0  0
   57.1695   33.8941   51.6084 H   0  0  0  0  0  0  0  0  0  0  0  0
   58.1658   31.3804   53.0205 H   0  0  0  0  0  0  0  0  0  0  0  0
   56.5146   31.6589   52.3535 H   0  0  0  0  0  0  0  0  0  0  0  0
   58.1543   30.3333   50.8710 H   0  0  0  0  0  0  0  0  0  0  0  0
   57.3158   31.7524   50.1173 H   0  0  0  0  0  0  0  0  0  0  0  0
   58.5110   29.6140   47.9730 H   0  0  0  0  0  0  0  0  0  0  0  0
   57.1832   29.0916   45.6450 H   0  0  0  0  0  0  0  0  0  0  0  0
   57.3036   32.4267   42.8475 H   0  0  0  0  0  0  0  0  0  0  0  0
   58.5936   33.7945   44.5250 H   0  0  0  0  0  0  0  0  0  0  0  0
  1  2  1  0
  2  3  1  0
  2  4  1  0
  4  5  1  0
  5  6  1  0
  6  7  2  0
  7  8  1  0
  8  9  2  0
  8 10  1  0
 10 11  1  0
 11 12  1  0
 12 13  1  0
 13 14  1  0
 14 15  1  0
  7 16  1  0
 16 17  1  0
 17 18  2  0
 18 19  1  0
 19 20  1  0
 19 21  2  0
 21 22  1  0
 22 23  2  0
 23  6  1  0
 15 10  1  0
 23 17  1  0
  1 24  1  0
  1 25  1  0
  1 26  1  0
  2 27  1  0
  3 28  1  0
  3 29  1  0
  3 30  1  0
  4 31  1  0
  4 32  1  0
  5 33  1  0
  5 34  1  0
 11 35  1  0
 11 36  1  0
 12 37  1  0
 12 38  1  0
 13 39  1  0
 13 40  1  0
 14 41  1  0
 14 42  1  0
 15 43  1  0
 15 44  1  0
 16 45  1  0
 18 46  1  0
 21 47  1  0
 22 48  1  0
M  CHG  1   2   1
M  END
>  <UniqueID>  (18) 
17

>  <SMILES>  (18) 
C[NH+](C)CCc1c(C(=O)N2CCCCC2)[nH]c2cc(Cl)ccc12

>  <Energy>  (18) 
84.80257617868371

>  <Genealogy>  (18) 
C[NH+](C)CCc1c(C(=O)N2CCCCC2)[nH]c2cc(Cl)ccc12 (protonated)
C[NH+](C)CCc1c(C(=O)N2CCCCC2)[nH]c2cc(Cl)ccc12 (3D coordinates assigned)
C[NH+](C)CCc1c(C(=O)N2CCCCC2)[nH]c2cc(Cl)ccc12 (nonaromatic ring conformer: 84.80257617868371 kcal/mol)

>  <smiles>  (18) 
CN(C)CCc1c(C(=O)N2CCCCC2)[nH]c2cc(Cl)ccc12

>  <score_type>  (18) 
oracle

>  <origin>  (18) 
adg

>  <m_score__min__energy>  (18) 
-5.5

>  <m_primary>  (18) 
energy

$$$$
18:0
     RDKit          3D

 36 38  0  0  0  0  0  0  0  0999 V2000
   56.3170   30.2920   42.5380 C   0  0  0  0  0  0  0  0  0  0  0  0
   57.3940   30.4970   43.5070 N   0  0  0  0  0  0  0  0  0  0  0  0
   58.2440   31.6880   43.3960 C   0  0  0  0  0  0  0  0  0  0  0  0
   58.2860   32.4360   44.7010 C   0  0  0  0  0  0  0  0  0  0  0  0
   57.4170   33.5160   44.9330 C   0  0  0  0  0  0  0  0  0  0  0  0
   57.4790   34.2220   46.1390 C   0  0  0  0  0  0  0  0  0  0  0  0
   58.4060   33.8560   47.1180 C   0  0  0  0  0  0  0  0  0  0  0  0
   59.2740   32.7840   46.8940 C   0  0  0  0  0  0  0  0  0  0  0  0
   59.2160   32.0750   45.6890 C   0  0  0  0  0  0  0  0  0  0  0  0
   57.8270   29.3930   44.3190 C   0  0  0  0  0  0  0  0  0  0  0  0
   59.1880   29.1970   44.5880 C   0  0  0  0  0  0  0  0  0  0  0  0
   59.5910   28.1500   45.3550 N   0  0  0  0  0  0  0  0  0  0  0  0
   58.7040   27.2650   45.8860 C   0  0  0  0  0  0  0  0  0  0  0  0
   59.1660   26.2010   46.6680 C   0  0  0  0  0  0  0  0  0  0  0  0
   58.2580   25.2910   47.2160 C   0  0  0  0  0  0  0  0  0  0  0  0
   56.8870   25.4400   46.9870 C   0  0  0  0  0  0  0  0  0  0  0  0
   56.4090   26.5030   46.2060 C   0  0  0  0  0  0  0  0  0  0  0  0
   55.0390   26.6420   45.9850 O   0  0  0  0  0  0  0  0  0  0  0  0
   57.3190   27.4230   45.6500 C   0  0  0  0  0  0  0  0  0  0  0  0
   56.8910   28.5020   44.8600 C   0  0  0  0  0  0  0  0  0  0  0  0
   55.3724   30.1122   43.0722 H   0  0  0  0  0  0  0  0  0  0  0  0
   56.2165   31.1871   41.9066 H   0  0  0  0  0  0  0  0  0  0  0  0
   56.5524   29.4225   41.9066 H   0  0  0  0  0  0  0  0  0  0  0  0
   59.2641   31.3793   43.1239 H   0  0  0  0  0  0  0  0  0  0  0  0
   57.8260   32.3495   42.6229 H   0  0  0  0  0  0  0  0  0  0  0  0
   56.6861   33.8069   44.1641 H   0  0  0  0  0  0  0  0  0  0  0  0
   56.7969   35.0665   46.3168 H   0  0  0  0  0  0  0  0  0  0  0  0
   58.4527   34.4121   48.0659 H   0  0  0  0  0  0  0  0  0  0  0  0
   60.0036   32.4972   47.6657 H   0  0  0  0  0  0  0  0  0  0  0  0
   59.9012   31.2322   45.5152 H   0  0  0  0  0  0  0  0  0  0  0  0
   59.9334   29.8935   44.1767 H   0  0  0  0  0  0  0  0  0  0  0  0
   60.2439   26.0807   46.8515 H   0  0  0  0  0  0  0  0  0  0  0  0
   58.6234   24.4545   47.8298 H   0  0  0  0  0  0  0  0  0  0  0  0
   56.1787   24.7194   47.4218 H   0  0  0  0  0  0  0  0  0  0  0  0
   54.3810   26.7080   46.7530 H   0  0  0  0  0  0  0  0  0  0  0  0
   55.8182   28.6481   44.6654 H   0  0  0  0  0  0  0  0  0  0  0  0
  1  2  1  0
  2  3  1  0
  3  4  1  0
  4  5  2  0
  5  6  1  0
  6  7  2  0
  7  8  1  0
  8  9  2  0
  2 10  1  0
 10 11  2  0
 11 12  1  0
 12 13  2  0
 13 14  1  0
 14 15  2  0
 15 16  1  0
 16 17  2  0
 17 18  1  0
 17 19  1  0
 19 20  2  0
  9  4  1  0
 20 10  1  0
 19 13  1  0
  1 21  1  0
  1 22  1  0
  1 23  1  0
  3 24  1  0
  3 25  1  0
  5 26  1  0
  6 27  1  0
  7 28  1  0
  8 29  1  0
  9 30  1  0
 11 31  1  0
 14 32  1  0
 15 33  1  0
 16 34  1  0
 18 35  1  0
 20 36  1  0
M  END
>  <UniqueID>  (19) 
18

>  <SMILES>  (19) 
CN(Cc1ccccc1)c1cnc2cccc(O)c2c1

>  <Energy>  (19) 
45.17755568078197

>  <Genealogy>  (19) 
CN(Cc1ccccc1)c1cnc2cccc(O)c2c1 (3D coordinates assigned)
CN(Cc1ccccc1)c1cnc2cccc(O)c2c1 (optimized conformer: 45.17755568078197 kcal/mol)

>  <smiles>  (19) 
CN(Cc1ccccc1)c1cnc2cccc(O)c2c1

>  <score_type>  (19) 
oracle

>  <origin>  (19) 
adg

>  <m_score__min__energy>  (19) 
-8.4100000000000001

>  <m_primary>  (19) 
energy

$$$$
19:0
     RDKit          3D

 39 41  0  0  0  0  0  0  0  0999 V2000
   60.6600   29.3190   45.2950 C   0  0  0  0  0  0  0  0  0  0  0  0
   59.8420   28.4670   44.4980 O   0  0  0  0  0  0  0  0  0  0  0  0
   59.0730   27.4030   44.9960 C   0  0  0  0  0  0  0  0  0  0  0  0
   59.2350   26.9260   46.3130 C   0  0  0  0  0  0  0  0  0  0  0  0
   58.4540   25.8700   46.7850 C   0  0  0  0  0  0  0  0  0  0  0  0
   57.5020   25.2770   45.9540 C   0  0  0  0  0  0  0  0  0  0  0  0
   57.3280   25.7390   44.6490 C   0  0  0  0  0  0  0  0  0  0  0  0
   58.1140   26.7950   44.1550 C   0  0  0  0  0  0  0  0  0  0  0  0
   57.8690   27.2990   42.7510 C   0  0  0  0  0  0  0  0  0  0  0  0
   57.0250   28.5800   42.7560 C   0  0  0  0  0  0  0  0  0  0  0  0
   57.6750   29.6330   43.5350 N   0  0  0  0  0  0  0  0  0  0  0  0
   56.9550   30.4670   44.4520 C   0  0  0  0  0  0  0  0  0  0  0  0
   55.7730   30.1760   44.7820 O   0  0  0  0  0  0  0  0  0  0  0  0
   57.5820   31.6830   44.9890 C   0  0  0  0  0  0  0  0  0  0  0  0
   58.0410   32.7600   44.2330 C   0  0  0  0  0  0  0  0  0  0  0  0
   58.5660   33.6270   45.1630 C   0  0  0  0  0  0  0  0  0  0  0  0
   59.1770   34.8690   45.0110 C   0  0  0  0  0  0  0  0  0  0  0  0
   59.6260   35.5230   46.1730 C   0  0  0  0  0  0  0  0  0  0  0  0
   59.4540   34.9270   47.4420 C   0  0  0  0  0  0  0  0  0  0  0  0
   58.8320   33.6690   47.5610 C   0  0  0  0  0  0  0  0  0  0  0  0
   58.3990   33.0460   46.3930 C   0  0  0  0  0  0  0  0  0  0  0  0
   57.8080   31.8840   46.2760 O   0  0  0  0  0  0  0  0  0  0  0  0
   60.4687   29.1198   46.3598 H   0  0  0  0  0  0  0  0  0  0  0  0
   61.7193   29.1255   45.0703 H   0  0  0  0  0  0  0  0  0  0  0  0
   60.4235   30.3695   45.0703 H   0  0  0  0  0  0  0  0  0  0  0  0
   59.9826   27.3897   46.9734 H   0  0  0  0  0  0  0  0  0  0  0  0
   58.5889   25.5044   47.8137 H   0  0  0  0  0  0  0  0  0  0  0  0
   56.8882   24.4445   46.3284 H   0  0  0  0  0  0  0  0  0  0  0  0
   56.5701   25.2735   44.0017 H   0  0  0  0  0  0  0  0  0  0  0  0
   58.8367   27.5098   42.2723 H   0  0  0  0  0  0  0  0  0  0  0  0
   57.3197   26.5244   42.1958 H   0  0  0  0  0  0  0  0  0  0  0  0
   56.8930   28.9278   41.7208 H   0  0  0  0  0  0  0  0  0  0  0  0
   56.0506   28.3558   43.2145 H   0  0  0  0  0  0  0  0  0  0  0  0
   58.6990   29.7900   43.3950 H   0  0  0  0  0  0  0  0  0  0  0  0
   57.9942   32.8877   43.1414 H   0  0  0  0  0  0  0  0  0  0  0  0
   59.3042   35.3230   44.0172 H   0  0  0  0  0  0  0  0  0  0  0  0
   60.1144   36.5053   46.0927 H   0  0  0  0  0  0  0  0  0  0  0  0
   59.8082   35.4488   48.3432 H   0  0  0  0  0  0  0  0  0  0  0  0
   58.6928   33.1944   48.5435 H   0  0  0  0  0  0  0  0  0  0  0  0
  1  2  1  0
  2  3  1  0
  3  4  2  0
  4  5  1  0
  5  6  2  0
  6  7  1  0
  7  8  2  0
  8  9  1  0
  9 10  1  0
 10 11  1  0
 11 12  1  0
 12 13  2  0
 12 14  1  0
 14 15  2  0
 15 16  1  0
 16 17  2  0
 17 18  1  0
 18 19  2  0
 19 20  1  0
 20 21  2  0
 21 22  1  0
  8  3  1  0
 22 14  1  0
 21 16  1  0
  1 23  1  0
  1 24  1  0
  1 25  1  0
  4 26  1  0
  5 27  1  0
  6 28  1  0
  7 29  1  0
  9 30  1  0
  9 31  1  0
 10 32  1  0
 10 33  1  0
 11 34  1  0
 15 35  1  0
 17 36  1  0
 18 37  1  0
 19 38  1  0
 20 39  1  0
M  END
>  <UniqueID>  (20) 
19

>  <SMILES>  (20) 
COc1ccccc1CCNC(=O)c1cc2ccccc2o1

>  <Energy>  (20) 
67.23162518396761

>  <Genealogy>  (20) 
COc1ccccc1CCNC(=O)c1cc2ccccc2o1 (3D coordinates assigned)
COc1ccccc1CCNC(=O)c1cc2ccccc2o1 (optimized conformer: 67.23162518396761 kcal/mol)

>  <smiles>  (20) 
COc1ccccc1CCNC(=O)c1cc2ccccc2o1

>  <score_type>  (20) 
oracle

>  <origin>  (20) 
adg

>  <m_score__min__energy>  (20) 
-7.7800000000000002

>  <m_primary>  (20) 
energy

$$$$
20:0
     RDKit          3D

 55 58  0  0  0  0  0  0  0  0999 V2000
   59.6920   32.3200   50.3580 C   0  0  0  0  0  0  0  0  0  0  0  0
   59.3880   32.7750   48.9700 C   0  0  0  0  0  0  0  0  0  0  0  0
   58.1780   32.6570   48.3880 N   0  0  0  0  0  0  0  0  0  0  0  0
   58.2660   33.1830   47.1740 N   0  0  0  0  0  0  0  0  0  0  0  0
   57.1500   33.1960   46.2310 C   0  0  0  0  0  0  0  0  0  0  0  0
   57.3580   32.1470   45.1870 C   0  0  0  0  0  0  0  0  0  0  0  0
   57.6770   32.3700   43.8600 C   0  0  0  0  0  0  0  0  0  0  0  0
   57.8040   31.1210   43.2910 C   0  0  0  0  0  0  0  0  0  0  0  0
   57.5570   30.2170   44.3090 C   0  0  0  0  0  0  0  0  0  0  0  0
   57.5800   28.7520   44.1870 C   0  0  0  0  0  0  0  0  0  0  0  0
   57.4690   28.2200   43.0500 O   0  0  0  0  0  0  0  0  0  0  0  0
   57.6840   27.9380   45.3660 N   0  0  0  0  0  0  0  0  0  0  0  0
   57.9520   26.5250   45.3480 C   0  0  0  0  0  0  0  0  0  0  0  0
   57.1250   25.6280   44.6480 C   0  0  0  0  0  0  0  0  0  0  0  0
   57.4290   24.2640   44.6170 C   0  0  0  0  0  0  0  0  0  0  0  0
   58.5710   23.7800   45.2700 C   0  0  0  0  0  0  0  0  0  0  0  0
   58.9620   22.0650   45.2340 S   0  0  0  0  0  0  0  0  0  0  0  0
   60.4040   21.8630   45.6080 O   0  0  0  0  0  0  0  0  0  0  0  0
   58.7130   21.5340   43.8520 O   0  0  0  0  0  0  0  0  0  0  0  0
   57.9600   21.2330   46.3760 N   0  0  0  0  0  0  0  0  0  0  0  0
   57.0250   21.8280   47.0470 C   0  0  0  0  0  0  0  0  0  0  0  0
   57.2280   22.7260   47.9840 O   0  0  0  0  0  0  0  0  0  0  0  0
   56.0960   23.1220   48.4930 N   0  0  0  0  0  0  0  0  0  0  0  0
   55.1160   22.4430   47.8560 C   0  0  0  0  0  0  0  0  0  0  0  0
   53.6620   22.6010   48.1560 C   0  0  0  0  0  0  0  0  0  0  0  0
   55.6740   21.6140   46.8990 C   0  0  0  0  0  0  0  0  0  0  0  0
   54.9850   20.6110   46.0290 C   0  0  0  0  0  0  0  0  0  0  0  0
   59.4030   24.6720   45.9590 C   0  0  0  0  0  0  0  0  0  0  0  0
   59.1010   26.0360   45.9890 C   0  0  0  0  0  0  0  0  0  0  0  0
   57.2980   30.8570   45.4250 O   0  0  0  0  0  0  0  0  0  0  0  0
   59.5260   33.6240   46.9590 C   0  0  0  0  0  0  0  0  0  0  0  0
   60.0040   34.3070   45.7130 C   0  0  0  0  0  0  0  0  0  0  0  0
   60.2700   33.3920   48.1020 C   0  0  0  0  0  0  0  0  0  0  0  0
   62.1040   33.8290   48.4280 Br  0  0  0  0  0  0  0  0  0  0  0  0
   59.2307   33.0104   51.0795 H   0  0  0  0  0  0  0  0  0  0  0  0
   59.2879   31.3081   50.5089 H   0  0  0  0  0  0  0  0  0  0  0  0
   60.7815   32.3060   50.5089 H   0  0  0  0  0  0  0  0  0  0  0  0
   56.2132   32.9934   46.7708 H   0  0  0  0  0  0  0  0  0  0  0  0
   57.0934   34.1829   45.7484 H   0  0  0  0  0  0  0  0  0  0  0  0
   57.8032   33.3426   43.3618 H   0  0  0  0  0  0  0  0  0  0  0  0
   58.0507   30.8906   42.2441 H   0  0  0  0  0  0  0  0  0  0  0  0
   57.4660   28.3810   46.2870 H   0  0  0  0  0  0  0  0  0  0  0  0
   56.2342   26.0020   44.1221 H   0  0  0  0  0  0  0  0  0  0  0  0
   56.7695   23.5678   44.0781 H   0  0  0  0  0  0  0  0  0  0  0  0
   53.5121   22.6173   49.2456 H   0  0  0  0  0  0  0  0  0  0  0  0
   53.2984   23.5439   47.7217 H   0  0  0  0  0  0  0  0  0  0  0  0
   53.1043   21.7582   47.7217 H   0  0  0  0  0  0  0  0  0  0  0  0
   54.4746   19.8680   46.6594 H   0  0  0  0  0  0  0  0  0  0  0  0
   54.2466   21.1223   45.3939 H   0  0  0  0  0  0  0  0  0  0  0  0
   55.7272   20.1052   45.3939 H   0  0  0  0  0  0  0  0  0  0  0  0
   60.2974   24.2972   46.4783 H   0  0  0  0  0  0  0  0  0  0  0  0
   59.7685   26.7315   46.5188 H   0  0  0  0  0  0  0  0  0  0  0  0
   60.6151   35.1802   45.9850 H   0  0  0  0  0  0  0  0  0  0  0  0
   60.6096   33.6060   45.1199 H   0  0  0  0  0  0  0  0  0  0  0  0
   59.1380   34.6359   45.1199 H   0  0  0  0  0  0  0  0  0  0  0  0
  1  2  1  0
  2  3  2  0
  3  4  1  0
  4  5  1  0
  5  6  1  0
  6  7  2  0
  7  8  1  0
  8  9  2  0
  9 10  1  0
 10 11  2  0
 10 12  1  0
 12 13  1  0
 13 14  2  0
 14 15  1  0
 15 16  2  0
 16 17  1  0
 17 18  2  0
 17 19  2  0
 17 20  1  0
 20 21  2  3
 21 22  1  0
 22 23  1  0
 23 24  1  0
 24 25  1  0
 24 26  2  0
 26 27  1  0
 16 28  1  0
 28 29  2  0
  9 30  1  0
  4 31  1  0
 31 32  1  0
 31 33  2  0
 33 34  1  0
 33  2  1  0
 30  6  1  0
 29 13  1  0
 26 21  1  0
  1 35  1  0
  1 36  1  0
  1 37  1  0
  5 38  1  0
  5 39  1  0
  7 40  1  0
  8 41  1  0
 12 42  1  0
 14 43  1  0
 15 44  1  0
 25 45  1  0
 25 46  1  0
 25 47  1  0
 27 48  1  0
 27 49  1  0
 27 50  1  0
 28 51  1  0
 29 52  1  0
 32 53  1  0
 32 54  1  0
 32 55  1  0
M  CHG  1  23  -1
M  END
>  <UniqueID>  (21) 
20

>  <SMILES>  (21) 
Cc1nn(Cc2ccc(C(=O)Nc3ccc(S(=O)(=O)N=c4o[n-]c(C)c4C)cc3)o2)c(C)c1Br

>  <Energy>  (21) 
146.67216972418103

>  <Genealogy>  (21) 
Cc1nn(Cc2ccc(C(=O)Nc3ccc(S(=O)(=O)N=c4o[n-]c(C)c4C)cc3)o2)c(C)c1Br (protonated)
Cc1nn(Cc2ccc(C(=O)Nc3ccc(S(=O)(=O)N=c4o[n-]c(C)c4C)cc3)o2)c(C)c1Br (3D coordinates assigned)
Cc1nn(Cc2ccc(C(=O)Nc3ccc(S(=O)(=O)N=c4o[n-]c(C)c4C)cc3)o2)c(C)c1Br (optimized conformer: 146.67216972418103 kcal/mol)

>  <smiles>  (21) 
Cc1nn(Cc2ccc(C(=O)Nc3ccc(S(=O)(=O)N=c4o[nH]c(C)c4C)cc3)o2)c(C)c1Br

>  <score_type>  (21) 
oracle

>  <origin>  (21) 
adg

>  <m_score__min__energy>  (21) 
-12.119999999999999

>  <m_primary>  (21) 
energy

$$$$
21:0
     RDKit          3D

 46 49  0  0  0  0  0  0  0  0999 V2000
   59.6570   35.5080   46.4100 C   0  0  0  0  0  0  0  0  0  0  0  0
   59.1180   34.9880   45.2000 O   0  0  0  0  0  0  0  0  0  0  0  0
   58.5630   33.7050   45.0670 C   0  0  0  0  0  0  0  0  0  0  0  0
   58.3340   32.8640   46.1730 C   0  0  0  0  0  0  0  0  0  0  0  0
   57.7780   31.5950   45.9870 C   0  0  0  0  0  0  0  0  0  0  0  0
   57.4440   31.1500   44.7030 C   0  0  0  0  0  0  0  0  0  0  0  0
   56.7330   29.5540   44.4950 S   0  0  0  0  0  0  0  0  0  0  0  0
   55.2770   29.5510   44.8710 O   0  0  0  0  0  0  0  0  0  0  0  0
   56.8550   29.1560   43.0510 O   0  0  0  0  0  0  0  0  0  0  0  0
   57.5890   28.4050   45.4710 N   0  0  0  0  0  0  0  0  0  0  0  0
   57.1650   27.2390   45.8730 C   0  0  0  0  0  0  0  0  0  0  0  0
   55.8630   26.8560   45.6810 N   0  0  0  0  0  0  0  0  0  0  0  0
   55.4370   25.6060   45.9940 C   0  0  0  0  0  0  0  0  0  0  0  0
   56.3350   24.6840   46.5180 C   0  0  0  0  0  0  0  0  0  0  0  0
   57.6180   25.0570   46.7440 N   0  0  0  0  0  0  0  0  0  0  0  0
   58.0670   26.3110   46.4700 C   0  0  0  0  0  0  0  0  0  0  0  0
   59.3140   26.5810   46.7650 N   0  0  0  0  0  0  0  0  0  0  0  0
   59.8470   27.7480   47.4050 C   0  0  0  0  0  0  0  0  0  0  0  0
   59.9800   27.7740   48.8010 C   0  0  0  0  0  0  0  0  0  0  0  0
   60.4800   28.9130   49.4400 C   0  0  0  0  0  0  0  0  0  0  0  0
   60.8270   30.0390   48.6870 C   0  0  0  0  0  0  0  0  0  0  0  0
   60.6880   30.0210   47.2930 C   0  0  0  0  0  0  0  0  0  0  0  0
   60.1670   28.8930   46.6560 C   0  0  0  0  0  0  0  0  0  0  0  0
   61.0770   31.1440   46.5550 O   0  0  0  0  0  0  0  0  0  0  0  0
   61.8700   32.1750   47.1490 C   0  0  0  0  0  0  0  0  0  0  0  0
   61.4160   32.4290   48.5920 C   0  0  0  0  0  0  0  0  0  0  0  0
   61.3150   31.1940   49.3070 O   0  0  0  0  0  0  0  0  0  0  0  0
   57.6750   31.9840   43.6000 C   0  0  0  0  0  0  0  0  0  0  0  0
   58.2300   33.2530   43.7840 C   0  0  0  0  0  0  0  0  0  0  0  0
   59.1612   35.0297   47.2676 H   0  0  0  0  0  0  0  0  0  0  0  0
   60.7368   35.3017   46.4489 H   0  0  0  0  0  0  0  0  0  0  0  0
   59.4896   36.5945   46.4489 H   0  0  0  0  0  0  0  0  0  0  0  0
   58.5932   33.2064   47.1857 H   0  0  0  0  0  0  0  0  0  0  0  0
   57.6020   30.9425   46.8549 H   0  0  0  0  0  0  0  0  0  0  0  0
   55.1570   27.5050   45.2710 H   0  0  0  0  0  0  0  0  0  0  0  0
   54.3859   25.3241   45.8337 H   0  0  0  0  0  0  0  0  0  0  0  0
   56.0069   23.6595   46.7475 H   0  0  0  0  0  0  0  0  0  0  0  0
   59.6899   26.8951   49.3955 H   0  0  0  0  0  0  0  0  0  0  0  0
   60.6001   28.9231   50.5334 H   0  0  0  0  0  0  0  0  0  0  0  0
   60.0070   28.9007   45.5677 H   0  0  0  0  0  0  0  0  0  0  0  0
   62.9258   31.8663   47.1495 H   0  0  0  0  0  0  0  0  0  0  0  0
   61.7490   33.1005   46.5670 H   0  0  0  0  0  0  0  0  0  0  0  0
   62.1480   33.0793   49.0932 H   0  0  0  0  0  0  0  0  0  0  0  0
   60.4288   32.9140   48.5757 H   0  0  0  0  0  0  0  0  0  0  0  0
   57.4188   31.6386   42.5876 H   0  0  0  0  0  0  0  0  0  0  0  0
   58.4068   33.9024   42.9139 H   0  0  0  0  0  0  0  0  0  0  0  0
  1  2  1  0
  2  3  1  0
  3  4  2  0
  4  5  1  0
  5  6  2  0
  6  7  1  0
  7  8  2  0
  7  9  2  0
  7 10  1  0
 10 11  2  3
 11 12  1  0
 12 13  1  0
 13 14  2  0
 14 15  1  0
 15 16  1  0
 16 17  2  3
 17 18  1  0
 18 19  2  0
 19 20  1  0
 20 21  2  0
 21 22  1  0
 22 23  2  0
 22 24  1  0
 24 25  1  0
 25 26  1  0
 26 27  1  0
  6 28  1  0
 28 29  2  0
 29  3  1  0
 16 11  1  0
 23 18  1  0
 27 21  1  0
  1 30  1  0
  1 31  1  0
  1 32  1  0
  4 33  1  0
  5 34  1  0
 12 35  1  0
 13 36  1  0
 14 37  1  0
 19 38  1  0
 20 39  1  0
 23 40  1  0
 25 41  1  0
 25 42  1  0
 26 43  1  0
 26 44  1  0
 28 45  1  0
 29 46  1  0
M  CHG  1  15  -1
M  END
>  <UniqueID>  (22) 
21

>  <SMILES>  (22) 
COc1ccc(S(=O)(=O)N=c2[nH]cc[n-]c2=Nc2ccc3c(c2)OCCO3)cc1

>  <Energy>  (22) 
69.15100657742508

>  <Genealogy>  (22) 
COc1ccc(S(=O)(=O)N=c2[nH]cc[n-]c2=Nc2ccc3c(c2)OCCO3)cc1 (protonated)
COc1ccc(S(=O)(=O)N=c2[nH]cc[n-]c2=Nc2ccc3c(c2)OCCO3)cc1 (3D coordinates assigned)
COc1ccc(S(=O)(=O)N=c2[nH]cc[n-]c2=Nc2ccc3c(c2)OCCO3)cc1 (nonaromatic ring conformer: 69.15100657742508 kcal/mol)

>  <smiles>  (22) 
COc1ccc(S(=O)(=O)N=c2[nH]cc[nH]c2=Nc2ccc3c(c2)OCCO3)cc1

>  <score_type>  (22) 
oracle

>  <origin>  (22) 
adg

>  <m_score__min__energy>  (22) 
-9.6099999999999994

>  <m_primary>  (22) 
energy

$$$$
22:0
     RDKit          3D

 62 64  0  0  0  0  0  0  0  0999 V2000
   55.4540   29.7170   43.3490 C   0  0  0  0  0  0  0  0  0  0  0  0
   56.6610   30.1420   44.1450 C   0  0  0  0  0  0  0  0  0  0  0  0
   56.7890   31.4760   44.5330 C   0  0  0  0  0  0  0  0  0  0  0  0
   57.8700   31.9100   45.3120 C   0  0  0  0  0  0  0  0  0  0  0  0
   57.9160   33.3710   45.6810 C   0  0  0  0  0  0  0  0  0  0  0  0
   58.8650   30.9780   45.7200 C   0  0  0  0  0  0  0  0  0  0  0  0
   60.2440   31.4690   46.7530 S   0  0  0  0  0  0  0  0  0  0  0  0
   60.6630   32.8560   46.3570 O   0  0  0  0  0  0  0  0  0  0  0  0
   61.4470   30.5850   46.5820 O   0  0  0  0  0  0  0  0  0  0  0  0
   59.7700   31.4950   48.4280 N   0  0  0  0  0  0  0  0  0  0  0  0
   58.8950   32.6280   48.7410 C   0  0  0  0  0  0  0  0  0  0  0  0
   59.6860   33.9330   48.9250 C   0  0  0  0  0  0  0  0  0  0  0  0
   60.8390   33.8100   49.9330 C   0  0  0  0  0  0  0  0  0  0  0  0
   62.0110   33.1470   49.3200 N   0  0  0  0  0  0  0  0  0  0  0  0
   63.1070   32.9800   50.2920 C   0  0  0  0  0  0  0  0  0  0  0  0
   64.2950   32.2500   49.6300 C   0  0  0  0  0  0  0  0  0  0  0  0
   64.1320   32.1120   48.2300 O   0  0  0  0  0  0  0  0  0  0  0  0
   63.8480   33.3720   47.6570 C   0  0  0  0  0  0  0  0  0  0  0  0
   62.4890   33.9090   48.1480 C   0  0  0  0  0  0  0  0  0  0  0  0
   58.7580   29.6230   45.2890 C   0  0  0  0  0  0  0  0  0  0  0  0
   59.8280   28.6040   45.6240 C   0  0  0  0  0  0  0  0  0  0  0  0
   57.6210   29.2050   44.5590 C   0  0  0  0  0  0  0  0  0  0  0  0
   57.4100   27.8140   44.2810 N   0  0  0  0  0  0  0  0  0  0  0  0
   57.0030   26.7210   45.5610 S   0  0  0  0  0  0  0  0  0  0  0  0
   57.8630   27.0180   46.7570 O   0  0  0  0  0  0  0  0  0  0  0  0
   55.5620   26.9010   45.9500 O   0  0  0  0  0  0  0  0  0  0  0  0
   57.2830   25.0590   45.0460 C   0  0  0  0  0  0  0  0  0  0  0  0
   58.3220   24.3100   45.6180 C   0  0  0  0  0  0  0  0  0  0  0  0
   58.5080   22.9730   45.2570 C   0  0  0  0  0  0  0  0  0  0  0  0
   57.6600   22.3760   44.3210 C   0  0  0  0  0  0  0  0  0  0  0  0
   57.8410   21.0770   43.9760 F   0  0  0  0  0  0  0  0  0  0  0  0
   56.6260   23.1180   43.7420 C   0  0  0  0  0  0  0  0  0  0  0  0
   55.8000   22.5400   42.8360 F   0  0  0  0  0  0  0  0  0  0  0  0
   56.4370   24.4560   44.1050 C   0  0  0  0  0  0  0  0  0  0  0  0
   54.6436   29.4317   44.0359 H   0  0  0  0  0  0  0  0  0  0  0  0
   55.1204   30.5517   42.7150 H   0  0  0  0  0  0  0  0  0  0  0  0
   55.7170   28.8574   42.7150 H   0  0  0  0  0  0  0  0  0  0  0  0
   56.0248   32.2029   44.2206 H   0  0  0  0  0  0  0  0  0  0  0  0
   57.9192   33.4726   46.7763 H   0  0  0  0  0  0  0  0  0  0  0  0
   58.8289   33.8249   45.2680 H   0  0  0  0  0  0  0  0  0  0  0  0
   57.0335   33.8815   45.2680 H   0  0  0  0  0  0  0  0  0  0  0  0
   58.1776   32.7607   47.9177 H   0  0  0  0  0  0  0  0  0  0  0  0
   58.3789   32.4074   49.6870 H   0  0  0  0  0  0  0  0  0  0  0  0
   60.1040   34.2277   47.9512 H   0  0  0  0  0  0  0  0  0  0  0  0
   58.9866   34.6838   49.3213 H   0  0  0  0  0  0  0  0  0  0  0  0
   61.1304   34.8155   50.2706 H   0  0  0  0  0  0  0  0  0  0  0  0
   60.4974   33.2017   50.7835 H   0  0  0  0  0  0  0  0  0  0  0  0
   63.4370   33.9692   50.6421 H   0  0  0  0  0  0  0  0  0  0  0  0
   62.7463   32.3835   51.1430 H   0  0  0  0  0  0  0  0  0  0  0  0
   65.2139   32.8228   49.8238 H   0  0  0  0  0  0  0  0  0  0  0  0
   64.3507   31.2400   50.0622 H   0  0  0  0  0  0  0  0  0  0  0  0
   64.6388   34.0823   47.9400 H   0  0  0  0  0  0  0  0  0  0  0  0
   63.8053   33.2580   46.5638 H   0  0  0  0  0  0  0  0  0  0  0  0
   62.6000   34.9670   48.4277 H   0  0  0  0  0  0  0  0  0  0  0  0
   61.7550   33.8002   47.3360 H   0  0  0  0  0  0  0  0  0  0  0  0
   59.9209   28.5155   46.7165 H   0  0  0  0  0  0  0  0  0  0  0  0
   59.5506   27.6279   45.1994 H   0  0  0  0  0  0  0  0  0  0  0  0
   60.7894   28.9287   45.1994 H   0  0  0  0  0  0  0  0  0  0  0  0
   57.2370   27.5090   43.2970 H   0  0  0  0  0  0  0  0  0  0  0  0
   58.9931   24.7771   46.3538 H   0  0  0  0  0  0  0  0  0  0  0  0
   59.3231   22.3899   45.7104 H   0  0  0  0  0  0  0  0  0  0  0  0
   55.6212   25.0370   43.6501 H   0  0  0  0  0  0  0  0  0  0  0  0
  1  2  1  0
  2  3  2  0
  3  4  1  0
  4  5  1  0
  4  6  2  0
  6  7  1  0
  7  8  2  0
  7  9  2  0
  7 10  1  0
 10 11  1  0
 11 12  1  0
 12 13  1  0
 13 14  1  0
 14 15  1  0
 15 16  1  0
 16 17  1  0
 17 18  1  0
 18 19  1  0
  6 20  1  0
 20 21  1  0
 20 22  2  0
 22 23  1  0
 23 24  1  0
 24 25  2  0
 24 26  2  0
 24 27  1  0
 27 28  2  0
 28 29  1  0
 29 30  2  0
 30 31  1  0
 30 32  1  0
 32 33  1  0
 32 34  2  0
 22  2  1  0
 34 27  1  0
 19 14  1  0
  1 35  1  0
  1 36  1  0
  1 37  1  0
  3 38  1  0
  5 39  1  0
  5 40  1  0
  5 41  1  0
 11 42  1  0
 11 43  1  0
 12 44  1  0
 12 45  1  0
 13 46  1  0
 13 47  1  0
 15 48  1  0
 15 49  1  0
 16 50  1  0
 16 51  1  0
 18 52  1  0
 18 53  1  0
 19 54  1  0
 19 55  1  0
 21 56  1  0
 21 57  1  0
 21 58  1  0
 23 59  1  0
 28 60  1  0
 29 61  1  0
 34 62  1  0
M  CHG  1  10  -1
M  END
>  <UniqueID>  (23) 
22

>  <SMILES>  (23) 
Cc1cc(C)c(S(=O)(=O)[N-]CCCN2CCOCC2)c(C)c1NS(=O)(=O)c1ccc(F)c(F)c1

>  <Energy>  (23) 
81.58063682351077

>  <Genealogy>  (23) 
Cc1cc(C)c(S(=O)(=O)[N-]CCCN2CCOCC2)c(C)c1NS(=O)(=O)c1ccc(F)c(F)c1 (protonated)
Cc1cc(C)c(S(=O)(=O)[N-]CCCN2CCOCC2)c(C)c1NS(=O)(=O)c1ccc(F)c(F)c1 (3D coordinates assigned)
Cc1cc(C)c(S(=O)(=O)[N-]CCCN2CCOCC2)c(C)c1NS(=O)(=O)c1ccc(F)c(F)c1 (nonaromatic ring conformer: 81.58063682351077 kcal/mol)

>  <smiles>  (23) 
Cc1cc(C)c(S(=O)(=O)NCCCN2CCOCC2)c(C)c1NS(=O)(=O)c1ccc(F)c(F)c1

>  <score_type>  (23) 
oracle

>  <origin>  (23) 
adg

>  <m_score__min__energy>  (23) 
-11.24

>  <m_primary>  (23) 
energy

$$$$
23:0
     RDKit          3D

 61 64  0  0  0  0  0  0  0  0999 V2000
   55.2820   25.2382   46.1722 H   0  0  0  0  0  0  0  0  0  0  0  0
   55.9770   26.0840   46.2800 C   0  0  0  0  0  0  0  0  0  0  0  0
   55.8860   27.2510   45.6100 N   0  0  0  0  0  0  0  0  0  0  0  0
   56.8870   28.0250   46.0060 N   0  0  0  0  0  0  0  0  0  0  0  0
   57.1500   29.3660   45.4670 C   0  0  0  0  0  0  0  0  0  0  0  0
   57.0690   30.0911   46.2902 H   0  0  0  0  0  0  0  0  0  0  0  0
   58.5650   29.4380   44.8960 C   0  0  0  0  0  0  0  0  0  0  0  0
   58.6391   28.7781   44.0190 H   0  0  0  0  0  0  0  0  0  0  0  0
   59.2838   29.1155   45.6637 H   0  0  0  0  0  0  0  0  0  0  0  0
   58.8830   30.8810   44.4770 C   0  0  0  0  0  0  0  0  0  0  0  0
   59.7700   30.8678   43.8266 H   0  0  0  0  0  0  0  0  0  0  0  0
   59.0518   31.4570   45.3988 H   0  0  0  0  0  0  0  0  0  0  0  0
   57.7740   31.5400   43.7460 N   0  0  0  0  0  0  0  0  0  0  0  0
   57.3940   32.8860   44.2310 C   0  0  0  0  0  0  0  0  0  0  0  0
   56.3195   32.8808   44.4663 H   0  0  0  0  0  0  0  0  0  0  0  0
   57.6427   33.5999   43.4320 H   0  0  0  0  0  0  0  0  0  0  0  0
   58.1530   33.3190   45.4670 C   0  0  0  0  0  0  0  0  0  0  0  0
   57.8190   32.7870   46.7220 C   0  0  0  0  0  0  0  0  0  0  0  0
   56.9823   32.0784   46.8103 H   0  0  0  0  0  0  0  0  0  0  0  0
   58.5430   33.1520   47.8600 C   0  0  0  0  0  0  0  0  0  0  0  0
   58.2798   32.7187   48.8362 H   0  0  0  0  0  0  0  0  0  0  0  0
   59.6000   34.0640   47.7680 C   0  0  0  0  0  0  0  0  0  0  0  0
   60.3070   34.3840   48.9360 O   0  0  0  0  0  0  0  0  0  0  0  0
   60.0550   33.8060   50.2120 C   0  0  0  0  0  0  0  0  0  0  0  0
   60.3617   34.5094   51.0002 H   0  0  0  0  0  0  0  0  0  0  0  0
   58.9810   33.5899   50.3110 H   0  0  0  0  0  0  0  0  0  0  0  0
   60.6276   32.8720   50.3110 H   0  0  0  0  0  0  0  0  0  0  0  0
   59.9140   34.6260   46.5170 C   0  0  0  0  0  0  0  0  0  0  0  0
   60.7353   35.3530   46.4336 H   0  0  0  0  0  0  0  0  0  0  0  0
   59.1860   34.2640   45.3790 C   0  0  0  0  0  0  0  0  0  0  0  0
   59.4250   34.7234   44.4085 H   0  0  0  0  0  0  0  0  0  0  0  0
   56.6630   30.6750   43.2950 C   0  0  0  0  0  0  0  0  0  0  0  0
   57.0267   30.0441   42.4706 H   0  0  0  0  0  0  0  0  0  0  0  0
   55.8435   31.3399   42.9845 H   0  0  0  0  0  0  0  0  0  0  0  0
   56.1030   29.7550   44.4030 C   0  0  0  0  0  0  0  0  0  0  0  0
   55.7251   28.8348   43.9335 H   0  0  0  0  0  0  0  0  0  0  0  0
   55.3099   30.3159   44.9192 H   0  0  0  0  0  0  0  0  0  0  0  0
   57.6360   27.3530   46.9040 C   0  0  0  0  0  0  0  0  0  0  0  0
   58.6880   27.8600   47.4820 N   0  0  0  0  0  0  0  0  0  0  0  0
   59.8840   27.1760   47.8860 C   0  0  0  0  0  0  0  0  0  0  0  0
   60.1110   26.0320   47.4090 O   0  0  0  0  0  0  0  0  0  0  0  0
   60.7760   27.7000   48.9810 C   0  0  0  0  0  0  0  0  0  0  0  0
   60.5173   27.1933   49.9225 H   0  0  0  0  0  0  0  0  0  0  0  0
   61.8189   27.4996   48.6941 H   0  0  0  0  0  0  0  0  0  0  0  0
   60.6210   29.2150   49.1750 C   0  0  0  0  0  0  0  0  0  0  0  0
   59.6686   29.4116   49.6890 H   0  0  0  0  0  0  0  0  0  0  0  0
   61.4751   29.5704   49.7701 H   0  0  0  0  0  0  0  0  0  0  0  0
   60.6290   30.1150   47.5810 S   0  0  0  0  0  0  0  0  0  0  0  0
   61.9310   31.2640   48.0410 C   0  0  0  0  0  0  0  0  0  0  0  0
   62.4120   32.1950   47.1130 C   0  0  0  0  0  0  0  0  0  0  0  0
   61.9898   32.2260   46.0977 H   0  0  0  0  0  0  0  0  0  0  0  0
   63.4270   33.0850   47.4730 C   0  0  0  0  0  0  0  0  0  0  0  0
   63.8086   33.8101   46.7391 H   0  0  0  0  0  0  0  0  0  0  0  0
   63.9580   33.0540   48.7670 C   0  0  0  0  0  0  0  0  0  0  0  0
   64.7583   33.7534   49.0504 H   0  0  0  0  0  0  0  0  0  0  0  0
   63.4710   32.1340   49.6990 C   0  0  0  0  0  0  0  0  0  0  0  0
   63.8862   32.1117   50.7174 H   0  0  0  0  0  0  0  0  0  0  0  0
   62.4570   31.2420   49.3390 C   0  0  0  0  0  0  0  0  0  0  0  0
   62.0716   30.5219   50.0758 H   0  0  0  0  0  0  0  0  0  0  0  0
   57.0740   26.1080   47.1230 C   0  0  0  0  0  0  0  0  0  0  0  0
   57.4192   25.3199   47.8084 H   0  0  0  0  0  0  0  0  0  0  0  0
  1  2  1  0
  2  3  1  0
  3  4  1  0
  4  5  1  0
  5  6  1  0
  5  7  1  0
  7  8  1  0
  7  9  1  0
  7 10  1  0
 10 11  1  0
 10 12  1  0
 10 13  1  0
 13 14  1  0
 14 15  1  0
 14 16  1  0
 14 17  1  0
 17 18  2  0
 18 19  1  0
 18 20  1  0
 20 21  1  0
 20 22  2  0
 22 23  1  0
 23 24  1  0
 24 25  1  0
 24 26  1  0
 24 27  1  0
 22 28  1  0
 28 29  1  0
 28 30  2  0
 30 31  1  0
 13 32  1  0
 32 33  1  0
 32 34  1  0
 32 35  1  0
 35 36  1  0
 35 37  1  0
  4 38  1  0
 38 39  2  0
 39 40  1  0
 40 41  2  0
 40 42  1  0
 42 43  1  0
 42 44  1  0
 42 45  1  0
 45 46  1  0
 45 47  1  0
 45 48  1  0
 48 49  1  0
 49 50  2  0
 50 51  1  0
 50 52  1  0
 52 53  1  0
 52 54  2  0
 54 55  1  0
 54 56  1  0
 56 57  1  0
 56 58  2  0
 58 59  1  0
 38 60  1  0
 60 61  1  0
 60  2  2  0
 35  5  1  0
 58 49  1  0
 30 17  1  0
M  CHG  1   3  -1
M  END
>  <UniqueID>  (24) 
23

>  <SMILES>  (24) 
COc1ccc(CN2CCC(n3[n-]cc/c3=N\C(=O)CCSc3ccccc3)CC2)cc1

>  <Energy>  (24) 
108.19807561805942

>  <Genealogy>  (24) 
COc1ccc(CN2CCC(n3[n-]ccc3=NC(=O)CCSc3ccccc3)CC2)cc1 (protonated)
COc1ccc(CN2CCC(n3[n-]cc/c3=N\C(=O)CCSc3ccccc3)CC2)cc1 (cis-trans isomerization)
COc1ccc(CN2CCC(n3[n-]cc/c3=N\C(=O)CCSc3ccccc3)CC2)cc1 (3D coordinates assigned)
COc1ccc(CN2CCC(n3[n-]cc/c3=N\C(=O)CCSc3ccccc3)CC2)cc1 (nonaromatic ring conformer: 108.19807561805942 kcal/mol)

>  <smiles>  (24) 
COc1ccc(CN2CCC(n3[nH]ccc3=NC(=O)CCSc3ccccc3)CC2)cc1

>  <score_type>  (24) 
oracle

>  <origin>  (24) 
adg

>  <m_score__min__energy>  (24) 
-11.18

>  <m_primary>  (24) 
energy

$$$$
24:0
     RDKit          3D

 48 50  0  0  0  0  0  0  0  0999 V2000
   57.4000   21.0090   46.7010 C   0  0  0  0  0  0  0  0  0  0  0  0
   57.3590   22.2220   47.5040 N   0  0  0  0  0  0  0  0  0  0  0  0
   56.4580   23.2990   47.2320 C   0  0  0  0  0  0  0  0  0  0  0  0
   55.2550   23.2280   47.6020 O   0  0  0  0  0  0  0  0  0  0  0  0
   56.9380   24.4910   46.5180 C   0  0  0  0  0  0  0  0  0  0  0  0
   57.2920   25.7000   47.1210 C   0  0  0  0  0  0  0  0  0  0  0  0
   57.6730   26.5160   46.0780 C   0  0  0  0  0  0  0  0  0  0  0  0
   58.1210   27.8310   46.0530 C   0  0  0  0  0  0  0  0  0  0  0  0
   58.4480   28.3900   44.8000 C   0  0  0  0  0  0  0  0  0  0  0  0
   58.8910   29.7550   44.7310 N   0  0  0  0  0  0  0  0  0  0  0  0
   58.0820   30.8800   45.1120 C   0  0  0  0  0  0  0  0  0  0  0  0
   56.8280   30.7640   45.1600 O   0  0  0  0  0  0  0  0  0  0  0  0
   58.7050   32.1970   45.3910 C   0  0  0  0  0  0  0  0  0  0  0  0
   58.3160   33.3370   44.6630 C   0  0  0  0  0  0  0  0  0  0  0  0
   57.3860   33.2520   43.6770 F   0  0  0  0  0  0  0  0  0  0  0  0
   58.9040   34.5770   44.9260 C   0  0  0  0  0  0  0  0  0  0  0  0
   59.8780   34.6990   45.9180 C   0  0  0  0  0  0  0  0  0  0  0  0
   60.2710   33.5770   46.6660 C   0  0  0  0  0  0  0  0  0  0  0  0
   61.2560   33.6610   47.7060 N   0  0  0  0  0  0  0  0  0  0  0  0
   62.9510   33.3410   47.5300 S   0  0  0  0  0  0  0  0  0  0  0  0
   63.1280   31.9060   47.1220 O   0  0  0  0  0  0  0  0  0  0  0  0
   63.5300   34.2230   46.4590 O   0  0  0  0  0  0  0  0  0  0  0  0
   63.7830   33.6100   49.0890 C   0  0  0  0  0  0  0  0  0  0  0  0
   64.5620   32.3620   49.5130 C   0  0  0  0  0  0  0  0  0  0  0  0
   65.9280   32.7260   50.0920 C   0  0  0  0  0  0  0  0  0  0  0  0
   66.6930   31.5870   50.2720 F   0  0  0  0  0  0  0  0  0  0  0  0
   59.6830   32.3310   46.4000 C   0  0  0  0  0  0  0  0  0  0  0  0
   60.0390   31.2620   47.1590 F   0  0  0  0  0  0  0  0  0  0  0  0
   58.2740   27.6040   43.6270 C   0  0  0  0  0  0  0  0  0  0  0  0
   57.8260   26.3150   43.7110 N   0  0  0  0  0  0  0  0  0  0  0  0
   57.5410   25.7930   44.9280 C   0  0  0  0  0  0  0  0  0  0  0  0
   57.0910   24.5530   45.1730 N   0  0  0  0  0  0  0  0  0  0  0  0
   57.4297   20.1315   47.3636 H   0  0  0  0  0  0  0  0  0  0  0  0
   56.5030   20.9590   46.0662 H   0  0  0  0  0  0  0  0  0  0  0  0
   58.2983   21.0197   46.0662 H   0  0  0  0  0  0  0  0  0  0  0  0
   57.2712   25.9466   48.1928 H   0  0  0  0  0  0  0  0  0  0  0  0
   58.2174   28.4164   46.9793 H   0  0  0  0  0  0  0  0  0  0  0  0
   59.8140   29.9500   44.2800 H   0  0  0  0  0  0  0  0  0  0  0  0
   58.5976   35.4615   44.3482 H   0  0  0  0  0  0  0  0  0  0  0  0
   60.3398   35.6778   46.1149 H   0  0  0  0  0  0  0  0  0  0  0  0
   64.4820   34.4528   48.9838 H   0  0  0  0  0  0  0  0  0  0  0  0
   63.0279   33.8318   49.8575 H   0  0  0  0  0  0  0  0  0  0  0  0
   63.9829   31.8209   50.2758 H   0  0  0  0  0  0  0  0  0  0  0  0
   64.7197   31.7342   48.6236 H   0  0  0  0  0  0  0  0  0  0  0  0
   66.4463   33.4053   49.3993 H   0  0  0  0  0  0  0  0  0  0  0  0
   65.7842   33.2176   51.0655 H   0  0  0  0  0  0  0  0  0  0  0  0
   58.5023   28.0378   42.6423 H   0  0  0  0  0  0  0  0  0  0  0  0
   56.9000   23.8040   44.4720 H   0  0  0  0  0  0  0  0  0  0  0  0
  1  2  1  0
  2  3  1  0
  3  4  2  0
  3  5  1  0
  5  6  2  0
  6  7  1  0
  7  8  2  0
  8  9  1  0
  9 10  1  0
 10 11  1  0
 11 12  2  0
 11 13  1  0
 13 14  2  0
 14 15  1  0
 14 16  1  0
 16 17  2  0
 17 18  1  0
 18 19  1  0
 19 20  1  0
 20 21  2  0
 20 22  2  0
 20 23  1  0
 23 24  1  0
 24 25  1  0
 25 26  1  0
 18 27  2  0
 27 28  1  0
  9 29  2  0
 29 30  1  0
 30 31  2  0
 31 32  1  0
 32  5  1  0
 31  7  1  0
 27 13  1  0
  1 33  1  0
  1 34  1  0
  1 35  1  0
  6 36  1  0
  8 37  1  0
 10 38  1  0
 16 39  1  0
 17 40  1  0
 23 41  1  0
 23 42  1  0
 24 43  1  0
 24 44  1  0
 25 45  1  0
 25 46  1  0
 29 47  1  0
 32 48  1  0
M  CHG  2   2  -1  19  -1
M  END
>  <UniqueID>  (25) 
24

>  <SMILES>  (25) 
C[N-]C(=O)c1cc2cc(NC(=O)c3c(F)ccc([N-]S(=O)(=O)CCCF)c3F)cnc2[nH]1

>  <Energy>  (25) 
83.81764939220952

>  <Genealogy>  (25) 
C[N-]C(=O)c1cc2cc(NC(=O)c3c(F)ccc([N-]S(=O)(=O)CCCF)c3F)cnc2[nH]1 (protonated)
C[N-]C(=O)c1cc2cc(NC(=O)c3c(F)ccc([N-]S(=O)(=O)CCCF)c3F)cnc2[nH]1 (3D coordinates assigned)
C[N-]C(=O)c1cc2cc(NC(=O)c3c(F)ccc([N-]S(=O)(=O)CCCF)c3F)cnc2[nH]1 (optimized conformer: 83.81764939220952 kcal/mol)

>  <smiles>  (25) 
CNC(=O)c1cc2cc(NC(=O)c3c(F)ccc(NS(=O)(=O)CCCF)c3F)cnc2[nH]1

>  <score_type>  (25) 
oracle

>  <origin>  (25) 
adg

>  <m_score__min__energy>  (25) 
-10.130000000000001

>  <m_primary>  (25) 
energy

$$$$
25:0
     RDKit          3D

 42 42  0  0  0  0  0  0  0  0999 V2000
   56.3160   30.0630   42.7210 C   0  0  0  0  0  0  0  0  0  0  0  0
   56.0470   30.1550   44.1850 C   0  0  0  0  0  0  0  0  0  0  0  0
   56.2060   31.2520   44.7850 O   0  0  0  0  0  0  0  0  0  0  0  0
   55.6620   28.9830   44.9080 N   0  0  0  0  0  0  0  0  0  0  0  0
   56.6300   28.0820   45.5210 C   0  0  0  0  0  0  0  0  0  0  0  0
   57.6670   27.6320   44.4890 C   0  0  0  0  0  0  0  0  0  0  0  0
   58.3140   26.2960   44.8760 C   0  0  0  0  0  0  0  0  0  0  0  0
   59.6420   26.5190   45.6110 C   0  0  0  0  0  0  0  0  0  0  0  0
   59.4030   26.9790   46.9930 N   0  0  0  0  0  0  0  0  0  0  0  0
   58.5480   26.1720   47.8730 C   0  0  0  0  0  0  0  0  0  0  0  0
   59.9640   28.0510   47.4970 C   0  0  0  0  0  0  0  0  0  0  0  0
   59.5970   29.4300   47.1160 C   0  0  0  0  0  0  0  0  0  0  0  0
   59.2120   30.3410   48.1090 C   0  0  0  0  0  0  0  0  0  0  0  0
   58.8430   31.6450   47.7620 C   0  0  0  0  0  0  0  0  0  0  0  0
   58.8290   32.0400   46.4180 C   0  0  0  0  0  0  0  0  0  0  0  0
   58.3870   33.6870   45.9820 S   0  0  0  0  0  0  0  0  0  0  0  0
   56.7480   33.7150   45.4350 N   0  0  0  0  0  0  0  0  0  0  0  0
   58.5370   34.5870   47.1760 O   0  0  0  0  0  0  0  0  0  0  0  0
   59.2890   34.1830   44.8870 O   0  0  0  0  0  0  0  0  0  0  0  0
   59.1890   31.1210   45.4230 C   0  0  0  0  0  0  0  0  0  0  0  0
   59.5580   29.8180   45.7690 C   0  0  0  0  0  0  0  0  0  0  0  0
   57.3454   29.7109   42.5588 H   0  0  0  0  0  0  0  0  0  0  0  0
   55.6098   29.3553   42.2622 H   0  0  0  0  0  0  0  0  0  0  0  0
   56.1911   31.0549   42.2622 H   0  0  0  0  0  0  0  0  0  0  0  0
   57.1403   28.6037   46.3441 H   0  0  0  0  0  0  0  0  0  0  0  0
   56.1011   27.1973   45.9050 H   0  0  0  0  0  0  0  0  0  0  0  0
   57.1721   27.5184   43.5132 H   0  0  0  0  0  0  0  0  0  0  0  0
   58.4583   28.3948   44.4448 H   0  0  0  0  0  0  0  0  0  0  0  0
   57.6281   25.7415   45.5333 H   0  0  0  0  0  0  0  0  0  0  0  0
   58.5142   25.7252   43.9573 H   0  0  0  0  0  0  0  0  0  0  0  0
   60.2033   25.5734   45.6373 H   0  0  0  0  0  0  0  0  0  0  0  0
   60.2168   27.2896   45.0764 H   0  0  0  0  0  0  0  0  0  0  0  0
   58.7865   26.3971   48.9230 H   0  0  0  0  0  0  0  0  0  0  0  0
   57.4921   26.4104   47.6776 H   0  0  0  0  0  0  0  0  0  0  0  0
   58.7250   25.1041   47.6776 H   0  0  0  0  0  0  0  0  0  0  0  0
   60.7555   27.9155   48.2487 H   0  0  0  0  0  0  0  0  0  0  0  0
   59.1999   30.0298   49.1640 H   0  0  0  0  0  0  0  0  0  0  0  0
   58.5629   32.3627   48.5472 H   0  0  0  0  0  0  0  0  0  0  0  0
   56.7440   33.3340   44.4620 H   0  0  0  0  0  0  0  0  0  0  0  0
   56.2160   33.0380   46.0250 H   0  0  0  0  0  0  0  0  0  0  0  0
   59.1811   31.4262   44.3662 H   0  0  0  0  0  0  0  0  0  0  0  0
   59.8186   29.0947   44.9823 H   0  0  0  0  0  0  0  0  0  0  0  0
  1  2  1  0
  2  3  2  0
  2  4  1  0
  4  5  1  0
  5  6  1  0
  6  7  1  0
  7  8  1  0
  8  9  1  0
  9 10  1  0
  9 11  2  3
 11 12  1  0
 12 13  2  0
 13 14  1  0
 14 15  2  0
 15 16  1  0
 16 17  1  0
 16 18  2  0
 16 19  2  0
 15 20  1  0
 20 21  2  0
 21 12  1  0
  1 22  1  0
  1 23  1  0
  1 24  1  0
  5 25  1  0
  5 26  1  0
  6 27  1  0
  6 28  1  0
  7 29  1  0
  7 30  1  0
  8 31  1  0
  8 32  1  0
 10 33  1  0
 10 34  1  0
 10 35  1  0
 11 36  1  0
 13 37  1  0
 14 38  1  0
 17 39  1  0
 17 40  1  0
 20 41  1  0
 21 42  1  0
M  CHG  2   4  -1   9   1
M  END
>  <UniqueID>  (26) 
25

>  <SMILES>  (26) 
CC(=O)[N-]CCCC[N+](C)=Cc1ccc(S(N)(=O)=O)cc1

>  <Energy>  (26) 
34.43211739017051

>  <Genealogy>  (26) 
CC(=O)[N-]CCCC[N+](C)=Cc1ccc(S(N)(=O)=O)cc1 (protonated)
CC(=O)[N-]CCCC[N+](C)=Cc1ccc(S(N)(=O)=O)cc1 (3D coordinates assigned)
CC(=O)[N-]CCCC[N+](C)=Cc1ccc(S(N)(=O)=O)cc1 (optimized conformer: 34.43211739017051 kcal/mol)

>  <smiles>  (26) 
CC(=O)NCCCC[N+](C)=Cc1ccc(S(N)(=O)=O)cc1

>  <score_type>  (26) 
oracle

>  <origin>  (26) 
adg

>  <m_score__min__energy>  (26) 
-7.5899999999999999

>  <m_primary>  (26) 
energy

$$$$
26:0
     RDKit          3D

 37 38  0  0  0  0  0  0  0  0999 V2000
   61.8429   33.2270   47.7195 H   0  0  0  0  0  0  0  0  0  0  0  0
   60.9700   32.7070   47.2980 C   0  0  0  0  0  0  0  0  0  0  0  0
   61.0750   31.3690   46.9190 C   0  0  0  0  0  0  0  0  0  0  0  0
   62.0318   30.8398   47.0395 H   0  0  0  0  0  0  0  0  0  0  0  0
   59.9630   30.6920   46.3830 C   0  0  0  0  0  0  0  0  0  0  0  0
   60.0530   29.3630   45.9380 O   0  0  0  0  0  0  0  0  0  0  0  0
   60.9170   28.9130   44.9000 C   0  0  0  0  0  0  0  0  0  0  0  0
   61.8102   28.4478   45.3424 H   0  0  0  0  0  0  0  0  0  0  0  0
   60.3893   28.1752   44.2778 H   0  0  0  0  0  0  0  0  0  0  0  0
   61.2191   29.7683   44.2778 H   0  0  0  0  0  0  0  0  0  0  0  0
   58.7320   31.3740   46.2630 C   0  0  0  0  0  0  0  0  0  0  0  0
   57.5920   30.7400   45.7510 O   0  0  0  0  0  0  0  0  0  0  0  0
   57.3390   30.5530   44.3860 C   0  0  0  0  0  0  0  0  0  0  0  0
   58.0440   31.1300   43.5130 O   0  0  0  0  0  0  0  0  0  0  0  0
   56.2910   29.5790   43.9640 C   0  0  0  0  0  0  0  0  0  0  0  0
   55.4059   30.1231   43.6026 H   0  0  0  0  0  0  0  0  0  0  0  0
   56.6790   28.9429   43.1547 H   0  0  0  0  0  0  0  0  0  0  0  0
   55.9230   28.7510   45.1090 N   0  0  0  0  0  0  0  0  0  0  0  0
   56.5700   27.7380   45.6210 C   0  0  0  0  0  0  0  0  0  0  0  0
   55.9360   26.5370   46.0380 C   0  0  0  0  0  0  0  0  0  0  0  0
   54.5650   26.3400   45.9360 O   0  0  0  0  0  0  0  0  0  0  0  0
   56.7140   25.5070   46.5750 C   0  0  0  0  0  0  0  0  0  0  0  0
   56.2349   24.5726   46.9026 H   0  0  0  0  0  0  0  0  0  0  0  0
   58.0930   25.6590   46.6970 C   0  0  0  0  0  0  0  0  0  0  0  0
   58.7068   24.8494   47.1186 H   0  0  0  0  0  0  0  0  0  0  0  0
   58.6860   26.8480   46.2790 C   0  0  0  0  0  0  0  0  0  0  0  0
   59.7743   26.9789   46.3706 H   0  0  0  0  0  0  0  0  0  0  0  0
   57.9250   27.8480   45.7580 N   0  0  0  0  0  0  0  0  0  0  0  0
   58.4040   28.7260   45.4550 H   0  0  0  0  0  0  0  0  0  0  0  0
   58.6370   32.7270   46.6230 C   0  0  0  0  0  0  0  0  0  0  0  0
   57.4030   33.3770   46.4550 O   0  0  0  0  0  0  0  0  0  0  0  0
   57.0040   34.0550   45.2680 C   0  0  0  0  0  0  0  0  0  0  0  0
   56.4628   34.9746   45.5353 H   0  0  0  0  0  0  0  0  0  0  0  0
   57.8945   34.3126   44.6759 H   0  0  0  0  0  0  0  0  0  0  0  0
   56.3464   33.4015   44.6759 H   0  0  0  0  0  0  0  0  0  0  0  0
   59.7640   33.3880   47.1450 C   0  0  0  0  0  0  0  0  0  0  0  0
   59.6928   34.4471   47.4336 H   0  0  0  0  0  0  0  0  0  0  0  0
  1  2  1  0
  2  3  2  0
  3  4  1  0
  3  5  1  0
  5  6  1  0
  6  7  1  0
  7  8  1  0
  7  9  1  0
  7 10  1  0
  5 11  2  0
 11 12  1  0
 12 13  1  0
 13 14  2  0
 13 15  1  0
 15 16  1  0
 15 17  1  0
 15 18  1  0
 18 19  2  0
 19 20  1  0
 20 21  1  0
 20 22  2  0
 22 23  1  0
 22 24  1  0
 24 25  1  0
 24 26  2  0
 26 27  1  0
 26 28  1  0
 28 29  1  0
 11 30  1  0
 30 31  1  0
 31 32  1  0
 32 33  1  0
 32 34  1  0
 32 35  1  0
 30 36  2  0
 36 37  1  0
 36  2  1  0
 28 19  1  0
M  CHG  1  21  -1
M  END
>  <UniqueID>  (27) 
26

>  <SMILES>  (27) 
COc1cccc(OC)c1OC(=O)C/N=c1/[nH]cccc1[O-]

>  <Energy>  (27) 
45.92156797555545

>  <Genealogy>  (27) 
COc1cccc(OC)c1OC(=O)CN=c1[nH]cccc1[O-] (protonated)
COc1cccc(OC)c1OC(=O)C/N=c1/[nH]cccc1[O-] (cis-trans isomerization)
COc1cccc(OC)c1OC(=O)C/N=c1/[nH]cccc1[O-] (3D coordinates assigned)
COc1cccc(OC)c1OC(=O)C/N=c1/[nH]cccc1[O-] (optimized conformer: 45.92156797555545 kcal/mol)

>  <smiles>  (27) 
COc1cccc(OC)c1OC(=O)CN=c1[nH]cccc1O

>  <score_type>  (27) 
oracle

>  <origin>  (27) 
adg

>  <m_score__min__energy>  (27) 
-9.2799999999999994

>  <m_primary>  (27) 
energy

$$$$
27:0
     RDKit          3D

 33 34  0  0  0  0  0  0  0  0999 V2000
   57.6270   28.6050   43.8090 C   0  0  0  0  0  0  0  0  0  0  0  0
   56.6550   29.7110   43.4120 C   0  0  0  0  0  0  0  0  0  0  0  0
   56.3890   30.5730   44.5190 O   0  0  0  0  0  0  0  0  0  0  0  0
   57.2530   31.5680   45.0060 C   0  0  0  0  0  0  0  0  0  0  0  0
   58.1830   31.2100   45.9890 C   0  0  0  0  0  0  0  0  0  0  0  0
   59.0690   32.1570   46.5100 C   0  0  0  0  0  0  0  0  0  0  0  0
   59.0360   33.4790   46.0510 C   0  0  0  0  0  0  0  0  0  0  0  0
   60.1620   34.6650   46.7010 S   0  0  0  0  0  0  0  0  0  0  0  0
   60.0150   35.9840   45.9920 O   0  0  0  0  0  0  0  0  0  0  0  0
   59.8700   34.8620   48.1610 O   0  0  0  0  0  0  0  0  0  0  0  0
   61.7970   34.1020   46.5230 N   0  0  0  0  0  0  0  0  0  0  0  0
   62.4750   33.4010   47.3860 C   0  0  0  0  0  0  0  0  0  0  0  0
   61.9750   32.2190   47.9690 C   0  0  0  0  0  0  0  0  0  0  0  0
   62.7570   31.5240   48.8950 C   0  0  0  0  0  0  0  0  0  0  0  0
   63.9920   31.9820   49.2320 N   0  0  0  0  0  0  0  0  0  0  0  0
   64.4990   33.1190   48.6820 C   0  0  0  0  0  0  0  0  0  0  0  0
   63.7510   33.8450   47.7530 C   0  0  0  0  0  0  0  0  0  0  0  0
   58.1020   33.8490   45.0750 C   0  0  0  0  0  0  0  0  0  0  0  0
   57.2140   32.9010   44.5540 C   0  0  0  0  0  0  0  0  0  0  0  0
   57.6825   28.5419   44.9058 H   0  0  0  0  0  0  0  0  0  0  0  0
   57.2752   27.6448   43.4038 H   0  0  0  0  0  0  0  0  0  0  0  0
   58.6245   28.8306   43.4038 H   0  0  0  0  0  0  0  0  0  0  0  0
   57.0938   30.3002   42.5933 H   0  0  0  0  0  0  0  0  0  0  0  0
   55.7099   29.2507   43.0882 H   0  0  0  0  0  0  0  0  0  0  0  0
   58.2168   30.1732   46.3550 H   0  0  0  0  0  0  0  0  0  0  0  0
   59.7943   31.8627   47.2829 H   0  0  0  0  0  0  0  0  0  0  0  0
   60.9764   31.8465   47.6969 H   0  0  0  0  0  0  0  0  0  0  0  0
   62.3715   30.6015   49.3538 H   0  0  0  0  0  0  0  0  0  0  0  0
   64.5640   31.4500   49.9260 H   0  0  0  0  0  0  0  0  0  0  0  0
   65.5018   33.4673   48.9704 H   0  0  0  0  0  0  0  0  0  0  0  0
   64.1634   34.7638   47.3105 H   0  0  0  0  0  0  0  0  0  0  0  0
   58.0663   34.8884   44.7167 H   0  0  0  0  0  0  0  0  0  0  0  0
   56.4825   33.1985   43.7882 H   0  0  0  0  0  0  0  0  0  0  0  0
  1  2  1  0
  2  3  1  0
  3  4  1  0
  4  5  2  0
  5  6  1  0
  6  7  2  0
  7  8  1  0
  8  9  2  0
  8 10  2  0
  8 11  1  0
 11 12  2  3
 12 13  1  0
 13 14  2  0
 14 15  1  0
 15 16  1  0
 16 17  2  0
  7 18  1  0
 18 19  2  0
 19  4  1  0
 17 12  1  0
  1 20  1  0
  1 21  1  0
  1 22  1  0
  2 23  1  0
  2 24  1  0
  5 25  1  0
  6 26  1  0
 13 27  1  0
 14 28  1  0
 15 29  1  0
 16 30  1  0
 17 31  1  0
 18 32  1  0
 19 33  1  0
M  END
>  <UniqueID>  (28) 
27

>  <SMILES>  (28) 
CCOc1ccc(S(=O)(=O)N=c2cc[nH]cc2)cc1

>  <Energy>  (28) 
36.57440519814888

>  <Genealogy>  (28) 
CCOc1ccc(S(=O)(=O)N=c2cc[nH]cc2)cc1 (3D coordinates assigned)
CCOc1ccc(S(=O)(=O)N=c2cc[nH]cc2)cc1 (optimized conformer: 36.57440519814888 kcal/mol)

>  <smiles>  (28) 
CCOc1ccc(S(=O)(=O)N=c2cc[nH]cc2)cc1

>  <score_type>  (28) 
oracle

>  <origin>  (28) 
adg

>  <m_score__min__energy>  (28) 
-6.75

>  <m_primary>  (28) 
energy

$$$$
28:0
     RDKit          3D

 51 52  0  0  0  0  0  0  0  0999 V2000
   56.4160   29.7090   42.6440 C   0  0  0  0  0  0  0  0  0  0  0  0
   56.0920   30.5660   43.8600 C   0  0  0  0  0  0  0  0  0  0  0  0
   57.5690   31.3190   44.5230 S   0  0  0  0  0  0  0  0  0  0  0  0
   57.6890   30.9860   45.9840 O   0  0  0  0  0  0  0  0  0  0  0  0
   58.7680   30.7910   43.7870 O   0  0  0  0  0  0  0  0  0  0  0  0
   57.4530   33.0930   44.3080 C   0  0  0  0  0  0  0  0  0  0  0  0
   57.7170   33.8700   45.6080 C   0  0  0  0  0  0  0  0  0  0  0  0
   59.1590   33.7460   46.1320 C   0  0  0  0  0  0  0  0  0  0  0  0
   59.2440   33.8900   47.6040 N   0  0  0  0  0  0  0  0  0  0  0  0
   60.5960   34.3230   48.0480 C   0  0  0  0  0  0  0  0  0  0  0  0
   61.5920   33.1830   48.3280 C   0  0  0  0  0  0  0  0  0  0  0  0
   61.5820   32.0170   47.3030 C   0  0  0  0  0  0  0  0  0  0  0  0
   60.3410   31.1960   47.2940 N   0  0  1  0  0  0  0  0  0  0  0  0
   60.6810   29.7490   47.3000 C   0  0  0  0  0  0  0  0  0  0  0  0
   59.7260   28.9280   46.4630 C   0  0  0  0  0  0  0  0  0  0  0  0
   60.0190   28.6610   45.1150 C   0  0  0  0  0  0  0  0  0  0  0  0
   59.1420   27.8940   44.3420 C   0  0  0  0  0  0  0  0  0  0  0  0
   57.9670   27.3900   44.9060 C   0  0  0  0  0  0  0  0  0  0  0  0
   57.6670   27.6530   46.2450 C   0  0  0  0  0  0  0  0  0  0  0  0
   58.5410   28.4190   47.0230 C   0  0  0  0  0  0  0  0  0  0  0  0
   59.4680   31.4810   48.4580 C   0  0  0  0  0  0  0  0  0  0  0  0
   58.6190   32.7760   48.3570 C   0  0  0  0  0  0  0  0  0  0  0  0
   56.7869   28.7278   42.9752 H   0  0  0  0  0  0  0  0  0  0  0  0
   55.5075   29.5724   42.0391 H   0  0  0  0  0  0  0  0  0  0  0  0
   57.1877   30.2076   42.0391 H   0  0  0  0  0  0  0  0  0  0  0  0
   55.3862   31.3566   43.5653 H   0  0  0  0  0  0  0  0  0  0  0  0
   55.6483   29.9228   44.6343 H   0  0  0  0  0  0  0  0  0  0  0  0
   58.1927   33.4048   43.5560 H   0  0  0  0  0  0  0  0  0  0  0  0
   56.4252   33.3211   43.9891 H   0  0  0  0  0  0  0  0  0  0  0  0
   57.5067   34.9338   45.4235 H   0  0  0  0  0  0  0  0  0  0  0  0
   57.0615   33.4347   46.3766 H   0  0  0  0  0  0  0  0  0  0  0  0
   59.5522   32.7578   45.8513 H   0  0  0  0  0  0  0  0  0  0  0  0
   59.7480   34.5592   45.6829 H   0  0  0  0  0  0  0  0  0  0  0  0
   61.0235   34.9625   47.2617 H   0  0  0  0  0  0  0  0  0  0  0  0
   60.4500   34.8422   49.0067 H   0  0  0  0  0  0  0  0  0  0  0  0
   62.6042   33.6135   48.3411 H   0  0  0  0  0  0  0  0  0  0  0  0
   61.2836   32.7428   49.2877 H   0  0  0  0  0  0  0  0  0  0  0  0
   61.7149   32.4450   46.2984 H   0  0  0  0  0  0  0  0  0  0  0  0
   62.3957   31.3395   47.6013 H   0  0  0  0  0  0  0  0  0  0  0  0
   59.7950   31.3700   46.4200 H   0  0  0  0  0  0  0  0  0  0  0  0
   61.6981   29.6236   46.9003 H   0  0  0  0  0  0  0  0  0  0  0  0
   60.6084   29.3922   48.3380 H   0  0  0  0  0  0  0  0  0  0  0  0
   60.9419   29.0569   44.6661 H   0  0  0  0  0  0  0  0  0  0  0  0
   59.3775   27.6869   43.2876 H   0  0  0  0  0  0  0  0  0  0  0  0
   57.2786   26.7865   44.2961 H   0  0  0  0  0  0  0  0  0  0  0  0
   56.7415   27.2568   46.6882 H   0  0  0  0  0  0  0  0  0  0  0  0
   58.3005   28.6240   48.0766 H   0  0  0  0  0  0  0  0  0  0  0  0
   58.7784   30.6327   48.5798 H   0  0  0  0  0  0  0  0  0  0  0  0
   60.1443   31.6300   49.3126 H   0  0  0  0  0  0  0  0  0  0  0  0
   57.6703   32.5219   47.8616 H   0  0  0  0  0  0  0  0  0  0  0  0
   58.4964   33.1388   49.3882 H   0  0  0  0  0  0  0  0  0  0  0  0
  1  2  1  0
  2  3  1  0
  3  4  2  0
  3  5  2  0
  3  6  1  0
  6  7  1  0
  7  8  1  0
  8  9  1  0
  9 10  1  0
 10 11  1  0
 11 12  1  0
 12 13  1  0
 13 14  1  0
 14 15  1  0
 15 16  2  0
 16 17  1  0
 17 18  2  0
 18 19  1  0
 19 20  2  0
 13 21  1  0
 21 22  1  0
 22  9  1  0
 20 15  1  0
  1 23  1  0
  1 24  1  0
  1 25  1  0
  2 26  1  0
  2 27  1  0
  6 28  1  0
  6 29  1  0
  7 30  1  0
  7 31  1  0
  8 32  1  0
  8 33  1  0
 10 34  1  0
 10 35  1  0
 11 36  1  0
 11 37  1  0
 12 38  1  0
 12 39  1  0
 13 40  1  6
 14 41  1  0
 14 42  1  0
 16 43  1  0
 17 44  1  0
 18 45  1  0
 19 46  1  0
 20 47  1  0
 21 48  1  0
 21 49  1  0
 22 50  1  0
 22 51  1  0
M  CHG  1  13   1
M  END
>  <UniqueID>  (29) 
28

>  <SMILES>  (29) 
CCS(=O)(=O)CCCN1CCC[N@@H+](Cc2ccccc2)CC1

>  <Energy>  (29) 
60.385769001190944

>  <Genealogy>  (29) 
CCS(=O)(=O)CCCN1CCC[NH+](Cc2ccccc2)CC1 (protonated)
CCS(=O)(=O)CCCN1CCC[N@@H+](Cc2ccccc2)CC1 (chirality)
CCS(=O)(=O)CCCN1CCC[N@@H+](Cc2ccccc2)CC1 (3D coordinates assigned)
CCS(=O)(=O)CCCN1CCC[N@@H+](Cc2ccccc2)CC1 (nonaromatic ring conformer: 60.385769001190944 kcal/mol)

>  <smiles>  (29) 
CCS(=O)(=O)CCCN1CCCN(Cc2ccccc2)CC1

>  <score_type>  (29) 
oracle

>  <origin>  (29) 
adg

>  <m_score__min__energy>  (29) 
-4.3700000000000001

>  <m_primary>  (29) 
energy

$$$$
29:0
     RDKit          3D

 51 53  0  0  0  0  0  0  0  0999 V2000
   56.5760   27.0460   45.6230 C   0  0  0  0  0  0  0  0  0  0  0  0
   55.9100   28.2480   45.2480 O   0  0  0  0  0  0  0  0  0  0  0  0
   56.5190   29.3220   44.5760 C   0  0  0  0  0  0  0  0  0  0  0  0
   56.0580   29.7610   43.3180 C   0  0  0  0  0  0  0  0  0  0  0  0
   56.6830   30.8260   42.6680 C   0  0  0  0  0  0  0  0  0  0  0  0
   57.7740   31.4650   43.2590 C   0  0  0  0  0  0  0  0  0  0  0  0
   58.2420   31.0410   44.5040 C   0  0  0  0  0  0  0  0  0  0  0  0
   57.6200   29.9750   45.1740 C   0  0  0  0  0  0  0  0  0  0  0  0
   58.1760   29.5260   46.5020 C   0  0  0  0  0  0  0  0  0  0  0  0
   58.8800   30.6270   47.1490 N   0  0  0  0  0  0  0  0  0  0  0  0
   60.3050   30.7410   47.1960 C   0  0  0  0  0  0  0  0  0  0  0  0
   61.0210   30.2040   46.3090 O   0  0  0  0  0  0  0  0  0  0  0  0
   60.9510   31.4990   48.3140 C   0  0  0  0  0  0  0  0  0  0  0  0
   61.1900   32.8920   47.9090 N   0  0  0  0  0  0  0  0  0  0  0  0
   60.1580   33.8950   48.2210 C   0  0  0  0  0  0  0  0  0  0  0  0
   59.1580   34.0140   47.1010 C   0  0  0  0  0  0  0  0  0  0  0  0
   59.5050   34.6450   45.8970 C   0  0  0  0  0  0  0  0  0  0  0  0
   58.5770   34.7230   44.8560 C   0  0  0  0  0  0  0  0  0  0  0  0
   57.3110   34.1580   45.0230 C   0  0  0  0  0  0  0  0  0  0  0  0
   56.9930   33.5330   46.1880 N   0  0  0  0  0  0  0  0  0  0  0  0
   57.8790   33.4430   47.2160 C   0  0  0  0  0  0  0  0  0  0  0  0
   62.3570   33.2210   47.1140 C   0  0  0  0  0  0  0  0  0  0  0  0
   62.2110   33.8660   46.0380 O   0  0  0  0  0  0  0  0  0  0  0  0
   63.7410   32.7580   47.5060 C   0  0  0  0  0  0  0  0  0  0  0  0
   64.0640   33.0850   48.9330 C   0  0  0  0  0  0  0  0  0  0  0  0
   63.3290   33.9230   49.7620 C   0  0  0  0  0  0  0  0  0  0  0  0
   63.8370   33.9920   51.0650 C   0  0  0  0  0  0  0  0  0  0  0  0
   64.9620   33.2030   51.2660 C   0  0  0  0  0  0  0  0  0  0  0  0
   65.3220   32.4140   49.8240 S   0  0  0  0  0  0  0  0  0  0  0  0
   56.6151   26.9754   46.7200 H   0  0  0  0  0  0  0  0  0  0  0  0
   56.0280   26.1819   45.2193 H   0  0  0  0  0  0  0  0  0  0  0  0
   57.5992   27.0525   45.2193 H   0  0  0  0  0  0  0  0  0  0  0  0
   55.1998   29.2606   42.8457 H   0  0  0  0  0  0  0  0  0  0  0  0
   56.3149   31.1626   41.6876 H   0  0  0  0  0  0  0  0  0  0  0  0
   58.2654   32.3033   42.7434 H   0  0  0  0  0  0  0  0  0  0  0  0
   59.1045   31.5457   44.9637 H   0  0  0  0  0  0  0  0  0  0  0  0
   57.3505   29.1925   47.1480 H   0  0  0  0  0  0  0  0  0  0  0  0
   58.8797   28.6971   46.3358 H   0  0  0  0  0  0  0  0  0  0  0  0
   60.2900   31.4841   49.1931 H   0  0  0  0  0  0  0  0  0  0  0  0
   61.9130   31.0260   48.5606 H   0  0  0  0  0  0  0  0  0  0  0  0
   59.6332   33.5959   49.1403 H   0  0  0  0  0  0  0  0  0  0  0  0
   60.6491   34.8702   48.3546 H   0  0  0  0  0  0  0  0  0  0  0  0
   60.5083   35.0785   45.7727 H   0  0  0  0  0  0  0  0  0  0  0  0
   58.8410   35.2248   43.9134 H   0  0  0  0  0  0  0  0  0  0  0  0
   56.5706   34.2185   44.2117 H   0  0  0  0  0  0  0  0  0  0  0  0
   57.5933   32.9211   48.1412 H   0  0  0  0  0  0  0  0  0  0  0  0
   63.8019   31.6682   47.3697 H   0  0  0  0  0  0  0  0  0  0  0  0
   64.4665   33.2823   46.8666 H   0  0  0  0  0  0  0  0  0  0  0  0
   62.4385   34.4761   49.4287 H   0  0  0  0  0  0  0  0  0  0  0  0
   63.3876   34.6123   51.8545 H   0  0  0  0  0  0  0  0  0  0  0  0
   65.5225   33.1097   52.2079 H   0  0  0  0  0  0  0  0  0  0  0  0
  1  2  1  0
  2  3  1  0
  3  4  2  0
  4  5  1  0
  5  6  2  0
  6  7  1  0
  7  8  2  0
  8  9  1  0
  9 10  1  0
 10 11  1  0
 11 12  2  0
 11 13  1  0
 13 14  1  0
 14 15  1  0
 15 16  1  0
 16 17  2  0
 17 18  1  0
 18 19  2  0
 19 20  1  0
 20 21  2  0
 14 22  1  0
 22 23  2  0
 22 24  1  0
 24 25  1  0
 25 26  2  0
 26 27  1  0
 27 28  2  0
 28 29  1  0
  8  3  1  0
 21 16  1  0
 29 25  1  0
  1 30  1  0
  1 31  1  0
  1 32  1  0
  4 33  1  0
  5 34  1  0
  6 35  1  0
  7 36  1  0
  9 37  1  0
  9 38  1  0
 13 39  1  0
 13 40  1  0
 15 41  1  0
 15 42  1  0
 17 43  1  0
 18 44  1  0
 19 45  1  0
 21 46  1  0
 24 47  1  0
 24 48  1  0
 26 49  1  0
 27 50  1  0
 28 51  1  0
M  CHG  1  10  -1
M  END
>  <UniqueID>  (30) 
29

>  <SMILES>  (30) 
COc1ccccc1C[N-]C(=O)CN(Cc1cccnc1)C(=O)Cc1cccs1

>  <Energy>  (30) 
74.45482230530948

>  <Genealogy>  (30) 
COc1ccccc1C[N-]C(=O)CN(Cc1cccnc1)C(=O)Cc1cccs1 (protonated)
COc1ccccc1C[N-]C(=O)CN(Cc1cccnc1)C(=O)Cc1cccs1 (3D coordinates assigned)
COc1ccccc1C[N-]C(=O)CN(Cc1cccnc1)C(=O)Cc1cccs1 (optimized conformer: 74.45482230530948 kcal/mol)

>  <smiles>  (30) 
COc1ccccc1CNC(=O)CN(Cc1cccnc1)C(=O)Cc1cccs1

>  <score_type>  (30) 
oracle

>  <origin>  (30) 
adg

>  <m_score__min__energy>  (30) 
-10.220000000000001

>  <m_primary>  (30) 
energy

$$$$
30:0
     RDKit          3D

 37 38  0  0  0  0  0  0  0  0999 V2000
   56.2360   31.4320   44.2610 N   0  0  0  0  0  0  0  0  0  0  0  0
   56.6650   29.7590   44.1850 S   0  0  0  0  0  0  0  0  0  0  0  0
   55.6290   28.9370   44.8980 O   0  0  0  0  0  0  0  0  0  0  0  0
   56.7050   29.3310   42.7440 O   0  0  0  0  0  0  0  0  0  0  0  0
   58.2460   29.5110   44.9390 C   0  0  0  0  0  0  0  0  0  0  0  0
   59.0280   28.4080   44.5600 C   0  0  0  0  0  0  0  0  0  0  0  0
   60.2810   28.1990   45.1370 C   0  0  0  0  0  0  0  0  0  0  0  0
   60.7680   29.0910   46.0930 C   0  0  0  0  0  0  0  0  0  0  0  0
   60.0030   30.1940   46.4760 C   0  0  0  0  0  0  0  0  0  0  0  0
   58.7360   30.4160   45.9040 C   0  0  0  0  0  0  0  0  0  0  0  0
   57.9350   31.5460   46.2780 N   0  0  0  0  0  0  0  0  0  0  0  0
   58.0840   33.1480   45.6320 S   0  0  0  0  0  0  0  0  0  0  0  0
   56.7190   33.7090   45.3520 O   0  0  0  0  0  0  0  0  0  0  0  0
   58.8890   33.1170   44.3630 O   0  0  0  0  0  0  0  0  0  0  0  0
   58.9050   34.1950   46.8300 C   0  0  0  0  0  0  0  0  0  0  0  0
   60.2960   34.6420   46.3590 C   0  0  0  0  0  0  0  0  0  0  0  0
   61.3960   33.7860   46.9330 C   0  0  0  0  0  0  0  0  0  0  0  0
   61.1380   32.9460   48.0290 C   0  0  0  0  0  0  0  0  0  0  0  0
   62.1630   32.1680   48.5770 C   0  0  0  0  0  0  0  0  0  0  0  0
   63.4500   32.2250   48.0370 C   0  0  0  0  0  0  0  0  0  0  0  0
   63.7160   33.0600   46.9480 C   0  0  0  0  0  0  0  0  0  0  0  0
   62.6930   33.8380   46.3970 C   0  0  0  0  0  0  0  0  0  0  0  0
   57.0960   31.9790   44.0330 H   0  0  0  0  0  0  0  0  0  0  0  0
   55.9970   31.6460   45.2550 H   0  0  0  0  0  0  0  0  0  0  0  0
   58.6504   27.7044   43.8035 H   0  0  0  0  0  0  0  0  0  0  0  0
   60.8856   27.3301   44.8379 H   0  0  0  0  0  0  0  0  0  0  0  0
   61.7566   28.9247   46.5457 H   0  0  0  0  0  0  0  0  0  0  0  0
   60.3927   30.8942   47.2296 H   0  0  0  0  0  0  0  0  0  0  0  0
   58.2861   35.0880   47.0019 H   0  0  0  0  0  0  0  0  0  0  0  0
   59.0346   33.6113   47.7533 H   0  0  0  0  0  0  0  0  0  0  0  0
   60.3350   34.5794   45.2615 H   0  0  0  0  0  0  0  0  0  0  0  0
   60.4546   35.6730   46.7081 H   0  0  0  0  0  0  0  0  0  0  0  0
   60.1261   32.8999   48.4578 H   0  0  0  0  0  0  0  0  0  0  0  0
   61.9554   31.5105   49.4341 H   0  0  0  0  0  0  0  0  0  0  0  0
   64.2549   31.6122   48.4691 H   0  0  0  0  0  0  0  0  0  0  0  0
   64.7302   33.1051   46.5244 H   0  0  0  0  0  0  0  0  0  0  0  0
   62.9052   34.4938   45.5397 H   0  0  0  0  0  0  0  0  0  0  0  0
  1  2  1  0
  2  3  2  0
  2  4  2  0
  2  5  1  0
  5  6  2  0
  6  7  1  0
  7  8  2  0
  8  9  1  0
  9 10  2  0
 10 11  1  0
 11 12  1  0
 12 13  2  0
 12 14  2  0
 12 15  1  0
 15 16  1  0
 16 17  1  0
 17 18  2  0
 18 19  1  0
 19 20  2  0
 20 21  1  0
 21 22  2  0
 10  5  1  0
 22 17  1  0
  1 23  1  0
  1 24  1  0
  6 25  1  0
  7 26  1  0
  8 27  1  0
  9 28  1  0
 15 29  1  0
 15 30  1  0
 16 31  1  0
 16 32  1  0
 18 33  1  0
 19 34  1  0
 20 35  1  0
 21 36  1  0
 22 37  1  0
M  CHG  1  11  -1
M  END
>  <UniqueID>  (31) 
30

>  <SMILES>  (31) 
NS(=O)(=O)c1ccccc1[N-]S(=O)(=O)CCc1ccccc1

>  <Energy>  (31) 
32.67881626307019

>  <Genealogy>  (31) 
NS(=O)(=O)c1ccccc1[N-]S(=O)(=O)CCc1ccccc1 (protonated)
NS(=O)(=O)c1ccccc1[N-]S(=O)(=O)CCc1ccccc1 (3D coordinates assigned)
NS(=O)(=O)c1ccccc1[N-]S(=O)(=O)CCc1ccccc1 (optimized conformer: 32.67881626307019 kcal/mol)

>  <smiles>  (31) 
NS(=O)(=O)c1ccccc1NS(=O)(=O)CCc1ccccc1

>  <score_type>  (31) 
oracle

>  <origin>  (31) 
adg

>  <m_score__min__energy>  (31) 
-9.0199999999999996

>  <m_primary>  (31) 
energy

$$$$
31:0
     RDKit          3D

 49 52  0  0  0  0  0  0  0  0999 V2000
   58.4330   29.5790   47.4730 O   0  0  0  0  0  0  0  0  0  0  0  0
   58.1830   29.2970   46.2710 C   0  0  0  0  0  0  0  0  0  0  0  0
   57.9860   30.3820   45.2940 C   0  0  0  0  0  0  0  0  0  0  0  0
   57.3140   30.1310   44.0860 C   0  0  0  0  0  0  0  0  0  0  0  0
   57.1820   31.1420   43.1330 C   0  0  0  0  0  0  0  0  0  0  0  0
   57.7540   32.3950   43.3610 C   0  0  0  0  0  0  0  0  0  0  0  0
   58.4570   32.6490   44.5460 C   0  0  0  0  0  0  0  0  0  0  0  0
   59.1510   33.8940   44.6880 N   0  0  0  0  0  0  0  0  0  0  0  0
   59.5960   34.5930   46.2070 S   0  0  0  0  0  0  0  0  0  0  0  0
   58.4200   34.5620   47.1370 O   0  0  0  0  0  0  0  0  0  0  0  0
   60.0140   36.0230   45.9930 O   0  0  0  0  0  0  0  0  0  0  0  0
   60.9490   33.7040   46.8940 C   0  0  0  0  0  0  0  0  0  0  0  0
   60.8570   32.6520   47.7930 C   0  0  0  0  0  0  0  0  0  0  0  0
   62.0930   32.0390   48.0390 C   0  0  0  0  0  0  0  0  0  0  0  0
   63.1490   32.6060   47.3360 C   0  0  0  0  0  0  0  0  0  0  0  0
   62.5460   33.8610   46.3980 S   0  0  0  0  0  0  0  0  0  0  0  0
   58.5240   31.6540   45.5330 C   0  0  0  0  0  0  0  0  0  0  0  0
   58.1180   27.9240   45.8550 N   0  0  0  0  0  0  0  0  0  0  0  0
   58.8870   27.4770   44.6870 C   0  0  0  0  0  0  0  0  0  0  0  0
   58.0680   26.4660   43.8900 C   0  0  0  0  0  0  0  0  0  0  0  0
   57.5460   25.4270   44.7860 N   0  0  0  0  0  0  0  0  0  0  0  0
   57.3920   24.0870   44.2820 C   0  0  0  0  0  0  0  0  0  0  0  0
   56.3790   23.7860   43.3520 C   0  0  0  0  0  0  0  0  0  0  0  0
   56.2560   22.4920   42.8380 C   0  0  0  0  0  0  0  0  0  0  0  0
   57.1370   21.4870   43.2490 C   0  0  0  0  0  0  0  0  0  0  0  0
   58.1390   21.7730   44.1810 C   0  0  0  0  0  0  0  0  0  0  0  0
   58.2670   23.0670   44.7000 C   0  0  0  0  0  0  0  0  0  0  0  0
   59.2280   23.3210   45.6240 F   0  0  0  0  0  0  0  0  0  0  0  0
   56.8020   25.8560   45.9790 C   0  0  0  0  0  0  0  0  0  0  0  0
   57.6020   26.8980   46.7660 C   0  0  0  0  0  0  0  0  0  0  0  0
   56.8906   29.1347   43.8907 H   0  0  0  0  0  0  0  0  0  0  0  0
   56.6274   30.9516   42.2023 H   0  0  0  0  0  0  0  0  0  0  0  0
   57.6521   33.1879   42.6054 H   0  0  0  0  0  0  0  0  0  0  0  0
   59.9148   32.3329   48.2626 H   0  0  0  0  0  0  0  0  0  0  0  0
   62.2158   31.1879   48.7250 H   0  0  0  0  0  0  0  0  0  0  0  0
   64.2006   32.2870   47.3856 H   0  0  0  0  0  0  0  0  0  0  0  0
   59.0013   31.8734   46.4995 H   0  0  0  0  0  0  0  0  0  0  0  0
   59.1205   28.3425   44.0496 H   0  0  0  0  0  0  0  0  0  0  0  0
   59.8214   27.0047   45.0244 H   0  0  0  0  0  0  0  0  0  0  0  0
   57.2281   26.9815   43.4012 H   0  0  0  0  0  0  0  0  0  0  0  0
   58.7111   25.9984   43.1298 H   0  0  0  0  0  0  0  0  0  0  0  0
   55.6813   24.5724   43.0284 H   0  0  0  0  0  0  0  0  0  0  0  0
   55.4646   22.2639   42.1088 H   0  0  0  0  0  0  0  0  0  0  0  0
   57.0416   20.4708   42.8388 H   0  0  0  0  0  0  0  0  0  0  0  0
   58.8280   20.9800   44.5071 H   0  0  0  0  0  0  0  0  0  0  0  0
   55.8427   26.2956   45.6684 H   0  0  0  0  0  0  0  0  0  0  0  0
   56.6284   24.9812   46.6228 H   0  0  0  0  0  0  0  0  0  0  0  0
   56.9487   27.3702   47.5145 H   0  0  0  0  0  0  0  0  0  0  0  0
   58.4459   26.4025   47.2683 H   0  0  0  0  0  0  0  0  0  0  0  0
  1  2  2  0
  2  3  1  0
  3  4  2  0
  4  5  1  0
  5  6  2  0
  6  7  1  0
  7  8  1  0
  8  9  1  0
  9 10  2  0
  9 11  2  0
  9 12  1  0
 12 13  2  0
 13 14  1  0
 14 15  2  0
 15 16  1  0
  7 17  2  0
  2 18  1  0
 18 19  1  0
 19 20  1  0
 20 21  1  0
 21 22  1  0
 22 23  2  0
 23 24  1  0
 24 25  2  0
 25 26  1  0
 26 27  2  0
 27 28  1  0
 21 29  1  0
 29 30  1  0
 17  3  1  0
 30 18  1  0
 16 12  1  0
 27 22  1  0
  4 31  1  0
  5 32  1  0
  6 33  1  0
 13 34  1  0
 14 35  1  0
 15 36  1  0
 17 37  1  0
 19 38  1  0
 19 39  1  0
 20 40  1  0
 20 41  1  0
 23 42  1  0
 24 43  1  0
 25 44  1  0
 26 45  1  0
 29 46  1  0
 29 47  1  0
 30 48  1  0
 30 49  1  0
M  CHG  1   8  -1
M  END
>  <UniqueID>  (32) 
31

>  <SMILES>  (32) 
O=C(c1cccc([N-]S(=O)(=O)c2cccs2)c1)N1CCN(c2ccccc2F)CC1

>  <Energy>  (32) 
90.88488276935934

>  <Genealogy>  (32) 
O=C(c1cccc([N-]S(=O)(=O)c2cccs2)c1)N1CCN(c2ccccc2F)CC1 (protonated)
O=C(c1cccc([N-]S(=O)(=O)c2cccs2)c1)N1CCN(c2ccccc2F)CC1 (3D coordinates assigned)
O=C(c1cccc([N-]S(=O)(=O)c2cccs2)c1)N1CCN(c2ccccc2F)CC1 (nonaromatic ring conformer: 90.88488276935934 kcal/mol)

>  <smiles>  (32) 
O=C(c1cccc(NS(=O)(=O)c2cccs2)c1)N1CCN(c2ccccc2F)CC1

>  <score_type>  (32) 
oracle

>  <origin>  (32) 
adg

>  <m_score__min__energy>  (32) 
-10.85

>  <m_primary>  (32) 
energy

$$$$
32:0
     RDKit          3D

 42 44  0  0  0  0  0  0  0  0999 V2000
   56.8050   34.4740   44.9170 C   0  0  0  0  0  0  0  0  0  0  0  0
   57.7690   33.6190   44.3120 O   0  0  0  0  0  0  0  0  0  0  0  0
   57.9430   32.2620   44.6290 C   0  0  0  0  0  0  0  0  0  0  0  0
   57.3350   31.2400   43.8770 C   0  0  0  0  0  0  0  0  0  0  0  0
   57.5280   29.9000   44.2170 C   0  0  0  0  0  0  0  0  0  0  0  0
   58.3380   29.5500   45.3080 C   0  0  0  0  0  0  0  0  0  0  0  0
   58.5400   28.1320   45.6900 C   0  0  0  0  0  0  0  0  0  0  0  0
   59.7100   27.6600   45.6970 O   0  0  0  0  0  0  0  0  0  0  0  0
   57.4150   27.2430   46.0400 C   0  0  0  0  0  0  0  0  0  0  0  0
   57.4940   26.1100   46.8210 C   0  0  0  0  0  0  0  0  0  0  0  0
   56.2800   25.5340   46.8880 N   0  0  0  0  0  0  0  0  0  0  0  0
   55.5080   26.3410   46.1330 C   0  0  0  0  0  0  0  0  0  0  0  0
   54.2810   26.1290   45.9480 O   0  0  0  0  0  0  0  0  0  0  0  0
   56.1540   27.3920   45.5910 N   0  0  0  0  0  0  0  0  0  0  0  0
   58.9310   30.5690   46.0700 C   0  0  0  0  0  0  0  0  0  0  0  0
   58.7460   31.9180   45.7320 C   0  0  0  0  0  0  0  0  0  0  0  0
   59.5280   33.1800   46.6890 S   0  0  0  0  0  0  0  0  0  0  0  0
   59.4240   34.4810   45.9430 O   0  0  0  0  0  0  0  0  0  0  0  0
   58.8400   33.3240   48.0200 O   0  0  0  0  0  0  0  0  0  0  0  0
   61.2060   32.7720   46.9380 N   0  0  0  0  0  0  0  0  0  0  0  0
   61.4730   32.5840   48.3720 C   0  0  0  0  0  0  0  0  0  0  0  0
   62.9180   32.0880   48.5830 C   0  0  0  0  0  0  0  0  0  0  0  0
   63.7740   32.3340   47.4080 N   0  0  0  0  0  0  0  0  0  0  0  0
   63.5370   33.6690   46.8410 C   0  0  0  0  0  0  0  0  0  0  0  0
   62.0690   33.8340   46.3870 C   0  0  0  0  0  0  0  0  0  0  0  0
   56.8865   34.4018   46.0116 H   0  0  0  0  0  0  0  0  0  0  0  0
   56.9878   35.5124   44.6035 H   0  0  0  0  0  0  0  0  0  0  0  0
   55.7959   34.1685   44.6035 H   0  0  0  0  0  0  0  0  0  0  0  0
   56.7029   31.4989   43.0148 H   0  0  0  0  0  0  0  0  0  0  0  0
   57.0409   29.1116   43.6245 H   0  0  0  0  0  0  0  0  0  0  0  0
   58.4048   25.7362   47.3115 H   0  0  0  0  0  0  0  0  0  0  0  0
   59.5478   30.3067   46.9422 H   0  0  0  0  0  0  0  0  0  0  0  0
   61.3373   33.5418   48.8957 H   0  0  0  0  0  0  0  0  0  0  0  0
   60.7739   31.8352   48.7726 H   0  0  0  0  0  0  0  0  0  0  0  0
   63.3483   32.6117   49.4494 H   0  0  0  0  0  0  0  0  0  0  0  0
   62.8788   31.0011   48.7477 H   0  0  0  0  0  0  0  0  0  0  0  0
   64.7770   32.2600   47.6960 H   0  0  0  0  0  0  0  0  0  0  0  0
   63.5900   31.6070   46.6770 H   0  0  0  0  0  0  0  0  0  0  0  0
   63.7634   34.4279   47.6045 H   0  0  0  0  0  0  0  0  0  0  0  0
   64.1879   33.7938   45.9631 H   0  0  0  0  0  0  0  0  0  0  0  0
   61.6969   34.8103   46.7309 H   0  0  0  0  0  0  0  0  0  0  0  0
   62.0392   33.7658   45.2895 H   0  0  0  0  0  0  0  0  0  0  0  0
  1  2  1  0
  2  3  1  0
  3  4  2  0
  4  5  1  0
  5  6  2  0
  6  7  1  0
  7  8  2  0
  7  9  1  0
  9 10  2  0
 10 11  1  0
 11 12  1  0
 12 13  2  0
 12 14  1  0
  6 15  1  0
 15 16  2  0
 16 17  1  0
 17 18  2  0
 17 19  2  0
 17 20  1  0
 20 21  1  0
 21 22  1  0
 22 23  1  0
 23 24  1  0
 24 25  1  0
 16  3  1  0
 25 20  1  0
 14  9  1  0
  1 26  1  0
  1 27  1  0
  1 28  1  0
  4 29  1  0
  5 30  1  0
 10 31  1  0
 15 32  1  0
 21 33  1  0
 21 34  1  0
 22 35  1  0
 22 36  1  0
 23 37  1  0
 23 38  1  0
 24 39  1  0
 24 40  1  0
 25 41  1  0
 25 42  1  0
M  CHG  3  11  -1  14  -1  23   1
M  END
>  <UniqueID>  (33) 
32

>  <SMILES>  (33) 
COc1ccc(C(=O)c2c[n-]c(=O)[n-]2)cc1S(=O)(=O)N1CC[NH2+]CC1

>  <Energy>  (33) 
79.40156701159958

>  <Genealogy>  (33) 
COc1ccc(C(=O)c2c[n-]c(=O)[n-]2)cc1S(=O)(=O)N1CC[NH2+]CC1 (protonated)
COc1ccc(C(=O)c2c[n-]c(=O)[n-]2)cc1S(=O)(=O)N1CC[NH2+]CC1 (3D coordinates assigned)
COc1ccc(C(=O)c2c[n-]c(=O)[n-]2)cc1S(=O)(=O)N1CC[NH2+]CC1 (nonaromatic ring conformer: 79.40156701159958 kcal/mol)

>  <smiles>  (33) 
COc1ccc(C(=O)c2c[nH]c(=O)[nH]2)cc1S(=O)(=O)N1CCNCC1

>  <score_type>  (33) 
oracle

>  <origin>  (33) 
adg

>  <m_score__min__energy>  (33) 
-10.93

>  <m_primary>  (33) 
energy

$$$$
33:0
     RDKit          3D

 57 60  0  0  0  0  0  0  0  0999 V2000
   59.8290   31.5450   49.9650 C   0  0  0  0  0  0  0  0  0  0  0  0
   60.4980   31.0520   48.7650 N   0  0  0  0  0  0  0  0  0  0  0  0
   61.6290   31.5280   48.2170 C   0  0  0  0  0  0  0  0  0  0  0  0
   61.9300   30.8460   47.0960 N   0  0  0  0  0  0  0  0  0  0  0  0
   60.9940   29.9280   46.9040 N   0  0  0  0  0  0  0  0  0  0  0  0
   60.1170   30.0730   47.9190 C   0  0  0  0  0  0  0  0  0  0  0  0
   58.6600   29.0390   48.1280 S   0  0  0  0  0  0  0  0  0  0  0  0
   59.5880   27.4660   48.1680 C   0  0  0  0  0  0  0  0  0  0  0  0
   59.9080   26.9630   46.7830 C   0  0  0  0  0  0  0  0  0  0  0  0
   61.1200   26.8480   46.4480 O   0  0  0  0  0  0  0  0  0  0  0  0
   58.8690   26.7230   45.8070 N   0  0  0  0  0  0  0  0  0  0  0  0
   58.6640   25.3860   45.2310 C   0  0  0  0  0  0  0  0  0  0  0  0
   57.6990   24.5920   46.0690 C   0  0  0  0  0  0  0  0  0  0  0  0
   56.6920   23.8310   45.4540 C   0  0  0  0  0  0  0  0  0  0  0  0
   55.7660   23.1270   46.2300 C   0  0  0  0  0  0  0  0  0  0  0  0
   55.8400   23.1800   47.6240 C   0  0  0  0  0  0  0  0  0  0  0  0
   54.9430   22.4970   48.3760 F   0  0  0  0  0  0  0  0  0  0  0  0
   56.8400   23.9360   48.2430 C   0  0  0  0  0  0  0  0  0  0  0  0
   57.7700   24.6390   47.4700 C   0  0  0  0  0  0  0  0  0  0  0  0
   58.0150   27.7940   45.3710 C   0  0  0  0  0  0  0  0  0  0  0  0
   58.5520   28.9520   44.7740 C   0  0  0  0  0  0  0  0  0  0  0  0
   59.9760   29.0380   44.5710 N   0  0  0  0  0  0  0  0  0  0  0  0
   57.7130   29.9920   44.4210 N   0  0  0  0  0  0  0  0  0  0  0  0
   58.2500   31.2340   43.8210 C   0  0  0  0  0  0  0  0  0  0  0  0
   58.3990   32.3280   44.8510 C   0  0  0  0  0  0  0  0  0  0  0  0
   58.8710   33.6030   44.4860 C   0  0  0  0  0  0  0  0  0  0  0  0
   59.0210   34.6040   45.4480 C   0  0  0  0  0  0  0  0  0  0  0  0
   58.7170   34.3380   46.7870 C   0  0  0  0  0  0  0  0  0  0  0  0
   58.2720   33.0700   47.1640 C   0  0  0  0  0  0  0  0  0  0  0  0
   58.1140   32.0660   46.2040 C   0  0  0  0  0  0  0  0  0  0  0  0
   56.3610   29.8810   44.6590 C   0  0  0  0  0  0  0  0  0  0  0  0
   55.5710   30.8150   44.3540 O   0  0  0  0  0  0  0  0  0  0  0  0
   55.8520   28.7660   45.2370 N   0  0  0  0  0  0  0  0  0  0  0  0
   56.6400   27.7320   45.6020 C   0  0  0  0  0  0  0  0  0  0  0  0
   56.1290   26.7250   46.1580 O   0  0  0  0  0  0  0  0  0  0  0  0
   60.3473   31.1630   50.8569 H   0  0  0  0  0  0  0  0  0  0  0  0
   59.8506   32.6448   49.9712 H   0  0  0  0  0  0  0  0  0  0  0  0
   58.7849   31.1987   49.9712 H   0  0  0  0  0  0  0  0  0  0  0  0
   62.2244   32.3574   48.6264 H   0  0  0  0  0  0  0  0  0  0  0  0
   62.7580   30.9970   46.4730 H   0  0  0  0  0  0  0  0  0  0  0  0
   60.5293   27.6229   48.7150 H   0  0  0  0  0  0  0  0  0  0  0  0
   58.9590   26.7132   48.6657 H   0  0  0  0  0  0  0  0  0  0  0  0
   58.2596   25.4887   44.2132 H   0  0  0  0  0  0  0  0  0  0  0  0
   59.6290   24.8587   45.2050 H   0  0  0  0  0  0  0  0  0  0  0  0
   56.6312   23.7884   44.3565 H   0  0  0  0  0  0  0  0  0  0  0  0
   54.9796   22.5317   45.7430 H   0  0  0  0  0  0  0  0  0  0  0  0
   56.8956   23.9781   49.3408 H   0  0  0  0  0  0  0  0  0  0  0  0
   58.5579   25.2293   47.9607 H   0  0  0  0  0  0  0  0  0  0  0  0
   60.4090   29.6090   43.8160 H   0  0  0  0  0  0  0  0  0  0  0  0
   60.6470   28.5970   45.2390 H   0  0  0  0  0  0  0  0  0  0  0  0
   59.2354   31.0211   43.3809 H   0  0  0  0  0  0  0  0  0  0  0  0
   57.5432   31.5787   43.0518 H   0  0  0  0  0  0  0  0  0  0  0  0
   59.1233   33.8122   43.4360 H   0  0  0  0  0  0  0  0  0  0  0  0
   59.3782   35.6016   45.1527 H   0  0  0  0  0  0  0  0  0  0  0  0
   58.8287   35.1287   47.5435 H   0  0  0  0  0  0  0  0  0  0  0  0
   58.0449   32.8600   48.2196 H   0  0  0  0  0  0  0  0  0  0  0  0
   57.7657   31.0677   46.5073 H   0  0  0  0  0  0  0  0  0  0  0  0
  1  2  1  0
  2  3  1  0
  3  4  2  0
  4  5  1  0
  5  6  2  0
  6  7  1  0
  7  8  1  0
  8  9  1  0
  9 10  2  0
  9 11  1  0
 11 12  1  0
 12 13  1  0
 13 14  2  0
 14 15  1  0
 15 16  2  0
 16 17  1  0
 16 18  1  0
 18 19  2  0
 11 20  1  0
 20 21  2  0
 21 22  1  0
 21 23  1  0
 23 24  1  0
 24 25  1  0
 25 26  2  0
 26 27  1  0
 27 28  2  0
 28 29  1  0
 29 30  2  0
 23 31  1  0
 31 32  2  0
 31 33  1  0
 33 34  1  0
 34 35  2  0
  6  2  1  0
 19 13  1  0
 34 20  1  0
 30 25  1  0
  1 36  1  0
  1 37  1  0
  1 38  1  0
  3 39  1  0
  4 40  1  0
  8 41  1  0
  8 42  1  0
 12 43  1  0
 12 44  1  0
 14 45  1  0
 15 46  1  0
 18 47  1  0
 19 48  1  0
 22 49  1  0
 22 50  1  0
 24 51  1  0
 24 52  1  0
 26 53  1  0
 27 54  1  0
 28 55  1  0
 29 56  1  0
 30 57  1  0
M  CHG  2   4   1  33  -1
M  END
>  <UniqueID>  (34) 
33

>  <SMILES>  (34) 
Cn1c[nH+]nc1SCC(=O)N(Cc1ccc(F)cc1)c1c(N)n(Cc2ccccc2)c(=O)[n-]c1=O

>  <Energy>  (34) 
102.01411939868925

>  <Genealogy>  (34) 
Cn1c[nH+]nc1SCC(=O)N(Cc1ccc(F)cc1)c1c(N)n(Cc2ccccc2)c(=O)[n-]c1=O (protonated)
Cn1c[nH+]nc1SCC(=O)N(Cc1ccc(F)cc1)c1c(N)n(Cc2ccccc2)c(=O)[n-]c1=O (3D coordinates assigned)
Cn1c[nH+]nc1SCC(=O)N(Cc1ccc(F)cc1)c1c(N)n(Cc2ccccc2)c(=O)[n-]c1=O (optimized conformer: 102.01411939868925 kcal/mol)

>  <smiles>  (34) 
Cn1cnnc1SCC(=O)N(Cc1ccc(F)cc1)c1c(N)n(Cc2ccccc2)c(=O)[nH]c1=O

>  <score_type>  (34) 
oracle

>  <origin>  (34) 
adg

>  <m_score__min__energy>  (34) 
-8.9900000000000002

>  <m_primary>  (34) 
energy

$$$$
34:0
     RDKit          3D

 52 55  0  0  0  0  0  0  0  0999 V2000
   58.8655   35.0720   43.8330 H   0  0  0  0  0  0  0  0  0  0  0  0
   58.9320   34.7000   44.8660 C   0  0  0  0  0  0  0  0  0  0  0  0
   58.3090   33.5430   45.2130 N   0  0  0  0  0  0  0  0  0  0  0  0
   58.3700   33.0390   46.4770 C   0  0  0  0  0  0  0  0  0  0  0  0
   57.6950   31.8580   46.8200 O   0  0  0  0  0  0  0  0  0  0  0  0
   57.8810   30.5920   46.2470 C   0  0  0  0  0  0  0  0  0  0  0  0
   57.0710   30.1440   45.2470 N   0  0  0  0  0  0  0  0  0  0  0  0
   57.2170   28.9090   44.7010 C   0  0  0  0  0  0  0  0  0  0  0  0
   56.5540   28.5873   43.8844 H   0  0  0  0  0  0  0  0  0  0  0  0
   58.2050   28.0500   45.1740 C   0  0  0  0  0  0  0  0  0  0  0  0
   58.3189   27.0442   44.7434 H   0  0  0  0  0  0  0  0  0  0  0  0
   59.0500   28.4770   46.2000 C   0  0  0  0  0  0  0  0  0  0  0  0
   59.8235   27.8001   46.5918 H   0  0  0  0  0  0  0  0  0  0  0  0
   58.9140   29.7700   46.7330 C   0  0  0  0  0  0  0  0  0  0  0  0
   59.7530   30.2380   47.8080 N   0  0  0  0  0  0  0  0  0  0  0  0
   59.2950   30.4840   48.7120 H   0  0  0  0  0  0  0  0  0  0  0  0
   61.1510   30.5470   47.6890 C   0  0  0  0  0  0  0  0  0  0  0  0
   61.6880   30.6430   46.5520 O   0  0  0  0  0  0  0  0  0  0  0  0
   61.9450   30.8910   48.8920 C   0  0  0  0  0  0  0  0  0  0  0  0
   62.8230   31.9860   48.8060 C   0  0  0  0  0  0  0  0  0  0  0  0
   62.9356   32.5181   47.8498 H   0  0  0  0  0  0  0  0  0  0  0  0
   63.5530   32.4060   49.9180 C   0  0  0  0  0  0  0  0  0  0  0  0
   64.2284   33.2705   49.8378 H   0  0  0  0  0  0  0  0  0  0  0  0
   63.4270   31.7310   51.1300 C   0  0  0  0  0  0  0  0  0  0  0  0
   63.9943   32.0702   52.0093 H   0  0  0  0  0  0  0  0  0  0  0  0
   62.5820   30.6250   51.2300 C   0  0  0  0  0  0  0  0  0  0  0  0
   62.4971   30.0915   52.1882 H   0  0  0  0  0  0  0  0  0  0  0  0
   61.8380   30.1840   50.1220 C   0  0  0  0  0  0  0  0  0  0  0  0
   61.0150   28.9260   50.2900 C   0  0  0  0  0  0  0  0  0  0  0  0
   61.0302   28.3544   49.3503 H   0  0  0  0  0  0  0  0  0  0  0  0
   61.4441   28.3241   51.1046 H   0  0  0  0  0  0  0  0  0  0  0  0
   59.6340   29.2640   50.6260 N   0  0  0  0  0  0  0  0  0  0  0  0
   59.6370   30.0380   51.3270 H   0  0  0  0  0  0  0  0  0  0  0  0
   59.1780   29.6410   49.7640 H   0  0  0  0  0  0  0  0  0  0  0  0
   59.1020   33.7230   47.4660 C   0  0  0  0  0  0  0  0  0  0  0  0
   59.1880   33.1930   48.8450 C   0  0  0  0  0  0  0  0  0  0  0  0
   58.3410   32.2040   49.2410 N   0  0  0  0  0  0  0  0  0  0  0  0
   58.3690   31.7080   50.5100 C   0  0  0  0  0  0  0  0  0  0  0  0
   57.5720   30.7490   50.8700 N   0  0  0  0  0  0  0  0  0  0  0  0
   56.6590   30.8320   52.0050 C   0  0  0  0  0  0  0  0  0  0  0  0
   57.2330   30.7798   52.9419 H   0  0  0  0  0  0  0  0  0  0  0  0
   56.1091   31.7838   51.9644 H   0  0  0  0  0  0  0  0  0  0  0  0
   55.9465   29.9949   51.9644 H   0  0  0  0  0  0  0  0  0  0  0  0
   59.2530   32.2140   51.4090 N   0  0  0  0  0  0  0  0  0  0  0  0
   60.1190   33.2000   51.0600 C   0  0  0  0  0  0  0  0  0  0  0  0
   60.8268   33.5976   51.8022 H   0  0  0  0  0  0  0  0  0  0  0  0
   60.1120   33.7090   49.7620 C   0  0  0  0  0  0  0  0  0  0  0  0
   60.8173   34.4990   49.4646 H   0  0  0  0  0  0  0  0  0  0  0  0
   59.7380   34.9270   47.1230 C   0  0  0  0  0  0  0  0  0  0  0  0
   60.3023   35.4857   47.8842 H   0  0  0  0  0  0  0  0  0  0  0  0
   59.6560   35.4160   45.8200 C   0  0  0  0  0  0  0  0  0  0  0  0
   60.1568   36.3565   45.5468 H   0  0  0  0  0  0  0  0  0  0  0  0
  1  2  1  0
  2  3  2  0
  3  4  1  0
  4  5  1  0
  5  6  1  0
  6  7  2  0
  7  8  1  0
  8  9  1  0
  8 10  2  0
 10 11  1  0
 10 12  1  0
 12 13  1  0
 12 14  2  0
 14 15  1  0
 15 16  1  0
 15 17  1  0
 17 18  2  0
 17 19  1  0
 19 20  2  0
 20 21  1  0
 20 22  1  0
 22 23  1  0
 22 24  2  0
 24 25  1  0
 24 26  1  0
 26 27  1  0
 26 28  2  0
 28 29  1  0
 29 30  1  0
 29 31  1  0
 29 32  1  0
 32 33  1  0
 32 34  1  0
  4 35  2  0
 35 36  1  0
 36 37  2  0
 37 38  1  0
 38 39  2  0
 39 40  1  0
 40 41  1  0
 40 42  1  0
 40 43  1  0
 38 44  1  0
 44 45  1  0
 45 46  1  0
 45 47  2  0
 47 48  1  0
 35 49  1  0
 49 50  1  0
 49 51  2  0
 51 52  1  0
 51  2  1  0
 14  6  1  0
 28 19  1  0
 47 36  1  0
M  CHG  1  44  -1
M  END
>  <UniqueID>  (35) 
34

>  <SMILES>  (35) 
C/N=c1\nc(-c2cccnc2Oc2ncccc2NC(=O)c2ccccc2CN)cc[n-]1

>  <Energy>  (35) 
69.78553719436002

>  <Genealogy>  (35) 
CN=c1nc(-c2cccnc2Oc2ncccc2NC(=O)c2ccccc2CN)cc[n-]1 (protonated)
C/N=c1\nc(-c2cccnc2Oc2ncccc2NC(=O)c2ccccc2CN)cc[n-]1 (cis-trans isomerization)
C/N=c1\nc(-c2cccnc2Oc2ncccc2NC(=O)c2ccccc2CN)cc[n-]1 (3D coordinates assigned)
C/N=c1\nc(-c2cccnc2Oc2ncccc2NC(=O)c2ccccc2CN)cc[n-]1 (optimized conformer: 69.78553719436002 kcal/mol)

>  <smiles>  (35) 
CN=c1nc(-c2cccnc2Oc2ncccc2NC(=O)c2ccccc2CN)cc[nH]1

>  <score_type>  (35) 
oracle

>  <origin>  (35) 
adg

>  <m_score__min__energy>  (35) 
-10

>  <m_primary>  (35) 
energy

$$$$
35:0
     RDKit          3D

 54 56  0  0  0  0  0  0  0  0999 V2000
   58.5424   34.4015   51.8889 H   0  0  0  0  0  0  0  0  0  0  0  0
   58.7670   33.3590   51.6190 C   0  0  0  0  0  0  0  0  0  0  0  0
   60.0360   33.0190   51.1470 C   0  0  0  0  0  0  0  0  0  0  0  0
   60.8034   33.7980   51.0277 H   0  0  0  0  0  0  0  0  0  0  0  0
   60.3360   31.6860   50.8240 C   0  0  0  0  0  0  0  0  0  0  0  0
   61.6130   31.3260   50.2770 N   0  0  0  0  0  0  0  0  0  0  0  0
   62.3160   31.9970   49.4070 C   0  0  0  0  0  0  0  0  0  0  0  0
   61.8390   32.1040   48.0890 C   0  0  0  0  0  0  0  0  0  0  0  0
   60.5970   31.4980   47.7180 N   0  0  0  0  0  0  0  0  0  0  0  0
   59.2120   32.4420   47.2800 S   0  0  0  0  0  0  0  0  0  0  0  0
   58.3380   32.6130   48.4900 O   0  0  0  0  0  0  0  0  0  0  0  0
   59.6640   33.8150   46.8670 O   0  0  0  0  0  0  0  0  0  0  0  0
   58.2980   31.6410   45.9640 C   0  0  0  0  0  0  0  0  0  0  0  0
   57.7270   32.4130   44.9150 C   0  0  0  0  0  0  0  0  0  0  0  0
   57.7950   33.9200   44.8860 C   0  0  0  0  0  0  0  0  0  0  0  0
   57.8124   34.3061   45.9159 H   0  0  0  0  0  0  0  0  0  0  0  0
   58.7083   34.2358   44.3605 H   0  0  0  0  0  0  0  0  0  0  0  0
   56.9138   34.3168   44.3605 H   0  0  0  0  0  0  0  0  0  0  0  0
   57.0790   31.7730   43.8510 C   0  0  0  0  0  0  0  0  0  0  0  0
   56.6706   32.3757   43.0264 H   0  0  0  0  0  0  0  0  0  0  0  0
   56.9420   30.3840   43.8180 C   0  0  0  0  0  0  0  0  0  0  0  0
   56.2700   29.7260   42.6440 C   0  0  0  0  0  0  0  0  0  0  0  0
   55.5279   28.9993   43.0063 H   0  0  0  0  0  0  0  0  0  0  0  0
   55.7670   30.4905   42.0336 H   0  0  0  0  0  0  0  0  0  0  0  0
   57.0237   29.2070   42.0336 H   0  0  0  0  0  0  0  0  0  0  0  0
   57.4670   29.6110   44.8620 C   0  0  0  0  0  0  0  0  0  0  0  0
   57.3450   28.2190   44.8010 O   0  0  0  0  0  0  0  0  0  0  0  0
   58.2320   27.4300   44.0190 C   0  0  0  0  0  0  0  0  0  0  0  0
   58.8871   26.8473   44.6834 H   0  0  0  0  0  0  0  0  0  0  0  0
   57.6507   26.7450   43.3843 H   0  0  0  0  0  0  0  0  0  0  0  0
   58.8446   28.0871   43.3843 H   0  0  0  0  0  0  0  0  0  0  0  0
   58.0960   30.2300   45.9660 C   0  0  0  0  0  0  0  0  0  0  0  0
   58.5460   29.3640   47.1210 C   0  0  0  0  0  0  0  0  0  0  0  0
   58.2899   29.8569   48.0704 H   0  0  0  0  0  0  0  0  0  0  0  0
   58.0408   28.3884   47.0664 H   0  0  0  0  0  0  0  0  0  0  0  0
   59.6347   29.2167   47.0664 H   0  0  0  0  0  0  0  0  0  0  0  0
   62.5800   32.8220   47.1450 C   0  0  0  0  0  0  0  0  0  0  0  0
   62.2181   32.9069   46.1097 H   0  0  0  0  0  0  0  0  0  0  0  0
   63.7760   33.4290   47.5170 C   0  0  0  0  0  0  0  0  0  0  0  0
   64.3561   34.0083   46.7836 H   0  0  0  0  0  0  0  0  0  0  0  0
   64.2320   33.2960   48.8280 C   0  0  0  0  0  0  0  0  0  0  0  0
   65.1793   33.7675   49.1286 H   0  0  0  0  0  0  0  0  0  0  0  0
   63.5100   32.5850   49.7380 N   0  0  0  0  0  0  0  0  0  0  0  0
   63.9210   32.4780   50.6900 H   0  0  0  0  0  0  0  0  0  0  0  0
   59.3340   30.7110   50.9200 C   0  0  0  0  0  0  0  0  0  0  0  0
   59.5498   29.6747   50.6209 H   0  0  0  0  0  0  0  0  0  0  0  0
   58.0520   31.0490   51.3970 C   0  0  0  0  0  0  0  0  0  0  0  0
   57.0240   30.1020   51.5300 O   0  0  0  0  0  0  0  0  0  0  0  0
   55.8920   30.2620   52.3770 C   0  0  0  0  0  0  0  0  0  0  0  0
   56.2116   30.2168   53.4286 H   0  0  0  0  0  0  0  0  0  0  0  0
   55.4203   31.2357   52.1786 H   0  0  0  0  0  0  0  0  0  0  0  0
   55.1689   29.4571   52.1786 H   0  0  0  0  0  0  0  0  0  0  0  0
   57.7820   32.3770   51.7490 C   0  0  0  0  0  0  0  0  0  0  0  0
   56.7869   32.6491   52.1307 H   0  0  0  0  0  0  0  0  0  0  0  0
  1  2  1  0
  2  3  2  0
  3  4  1  0
  3  5  1  0
  5  6  1  0
  6  7  2  0
  7  8  1  0
  8  9  1  0
  9 10  1  0
 10 11  2  0
 10 12  2  0
 10 13  1  0
 13 14  2  0
 14 15  1  0
 15 16  1  0
 15 17  1  0
 15 18  1  0
 14 19  1  0
 19 20  1  0
 19 21  2  0
 21 22  1  0
 22 23  1  0
 22 24  1  0
 22 25  1  0
 21 26  1  0
 26 27  1  0
 27 28  1  0
 28 29  1  0
 28 30  1  0
 28 31  1  0
 26 32  2  0
 32 33  1  0
 33 34  1  0
 33 35  1  0
 33 36  1  0
  8 37  2  0
 37 38  1  0
 37 39  1  0
 39 40  1  0
 39 41  2  0
 41 42  1  0
 41 43  1  0
 43 44  1  0
  5 45  2  0
 45 46  1  0
 45 47  1  0
 47 48  1  0
 48 49  1  0
 49 50  1  0
 49 51  1  0
 49 52  1  0
 47 53  2  0
 53 54  1  0
 53  2  1  0
 43  7  1  0
 32 13  1  0
M  CHG  1   9  -1
M  END
>  <UniqueID>  (36) 
35

>  <SMILES>  (36) 
COc1cccc(/N=c2\[nH]cccc2[N-]S(=O)(=O)c2c(C)cc(C)c(OC)c2C)c1

>  <Energy>  (36) 
85.41356732335841

>  <Genealogy>  (36) 
COc1cccc(N=c2[nH]cccc2[N-]S(=O)(=O)c2c(C)cc(C)c(OC)c2C)c1 (protonated)
COc1cccc(/N=c2\[nH]cccc2[N-]S(=O)(=O)c2c(C)cc(C)c(OC)c2C)c1 (cis-trans isomerization)
COc1cccc(/N=c2\[nH]cccc2[N-]S(=O)(=O)c2c(C)cc(C)c(OC)c2C)c1 (3D coordinates assigned)
COc1cccc(/N=c2\[nH]cccc2[N-]S(=O)(=O)c2c(C)cc(C)c(OC)c2C)c1 (optimized conformer: 85.41356732335841 kcal/mol)

>  <smiles>  (36) 
COc1cccc(N=c2[nH]cccc2NS(=O)(=O)c2c(C)cc(C)c(OC)c2C)c1

>  <score_type>  (36) 
oracle

>  <origin>  (36) 
adg

>  <m_score__min__energy>  (36) 
-9.8399999999999999

>  <m_primary>  (36) 
energy

$$$$
36:0
     RDKit          3D

 29 31  0  0  0  0  0  0  0  0999 V2000
   54.9800   25.4820   46.0090 O   0  0  0  0  0  0  0  0  0  0  0  0
   55.9770   26.2490   46.0050 C   0  0  0  0  0  0  0  0  0  0  0  0
   55.9280   27.5150   45.5480 N   0  0  0  0  0  0  0  0  0  0  0  0
   57.1380   28.1360   45.6490 C   0  0  0  0  0  0  0  0  0  0  0  0
   57.3250   29.5420   45.2080 C   0  0  0  0  0  0  0  0  0  0  0  0
   57.0140   29.9490   43.8960 C   0  0  0  0  0  0  0  0  0  0  0  0
   57.1850   31.2800   43.5090 C   0  0  0  0  0  0  0  0  0  0  0  0
   57.6590   32.2220   44.4230 C   0  0  0  0  0  0  0  0  0  0  0  0
   57.9660   31.8440   45.7330 C   0  0  0  0  0  0  0  0  0  0  0  0
   58.4310   32.8500   46.6450 N   0  0  0  0  0  0  0  0  0  0  0  0
   59.7290   33.9580   46.3340 S   0  0  0  0  0  0  0  0  0  0  0  0
   59.5050   35.2180   47.1210 O   0  0  0  0  0  0  0  0  0  0  0  0
   59.7570   34.2920   44.8680 O   0  0  0  0  0  0  0  0  0  0  0  0
   61.2550   33.2450   46.8220 C   0  0  0  0  0  0  0  0  0  0  0  0
   61.4050   32.0340   47.4780 C   0  0  0  0  0  0  0  0  0  0  0  0
   62.7460   31.6950   47.6960 C   0  0  0  0  0  0  0  0  0  0  0  0
   63.6450   32.6360   47.2080 C   0  0  0  0  0  0  0  0  0  0  0  0
   62.7720   33.8900   46.5030 S   0  0  0  0  0  0  0  0  0  0  0  0
   57.8060   30.5020   46.1190 C   0  0  0  0  0  0  0  0  0  0  0  0
   58.1490   27.3380   46.2000 C   0  0  0  0  0  0  0  0  0  0  0  0
   57.5010   25.8270   46.5590 S   0  0  0  0  0  0  0  0  0  0  0  0
   56.6340   29.2138   43.1714 H   0  0  0  0  0  0  0  0  0  0  0  0
   56.9452   31.5868   42.4802 H   0  0  0  0  0  0  0  0  0  0  0  0
   57.7918   33.2683   44.1105 H   0  0  0  0  0  0  0  0  0  0  0  0
   60.5598   31.4051   47.7943 H   0  0  0  0  0  0  0  0  0  0  0  0
   63.0584   30.7714   48.2053 H   0  0  0  0  0  0  0  0  0  0  0  0
   64.7413   32.5719   47.2718 H   0  0  0  0  0  0  0  0  0  0  0  0
   58.0596   30.1979   47.1453 H   0  0  0  0  0  0  0  0  0  0  0  0
   59.1910   27.6471   46.3695 H   0  0  0  0  0  0  0  0  0  0  0  0
  1  2  2  0
  2  3  1  0
  3  4  1  0
  4  5  1  0
  5  6  2  0
  6  7  1  0
  7  8  2  0
  8  9  1  0
  9 10  1  0
 10 11  1  0
 11 12  2  0
 11 13  2  0
 11 14  1  0
 14 15  2  0
 15 16  1  0
 16 17  2  0
 17 18  1  0
  9 19  2  0
  4 20  2  0
 20 21  1  0
 21  2  1  0
 19  5  1  0
 18 14  1  0
  6 22  1  0
  7 23  1  0
  8 24  1  0
 15 25  1  0
 16 26  1  0
 17 27  1  0
 19 28  1  0
 20 29  1  0
M  CHG  2   3  -1  10  -1
M  END
>  <UniqueID>  (37) 
36

>  <SMILES>  (37) 
O=c1[n-]c(-c2cccc([N-]S(=O)(=O)c3cccs3)c2)cs1

>  <Energy>  (37) 
92.99137017199426

>  <Genealogy>  (37) 
O=c1[n-]c(-c2cccc([N-]S(=O)(=O)c3cccs3)c2)cs1 (protonated)
O=c1[n-]c(-c2cccc([N-]S(=O)(=O)c3cccs3)c2)cs1 (3D coordinates assigned)
O=c1[n-]c(-c2cccc([N-]S(=O)(=O)c3cccs3)c2)cs1 (optimized conformer: 92.99137017199426 kcal/mol)

>  <smiles>  (37) 
O=c1[nH]c(-c2cccc(NS(=O)(=O)c3cccs3)c2)cs1

>  <score_type>  (37) 
oracle

>  <origin>  (37) 
adg

>  <m_score__min__energy>  (37) 
-11.039999999999999

>  <m_primary>  (37) 
energy

$$$$
37:0
     RDKit          3D

 48 50  0  0  0  0  0  0  0  0999 V2000
   55.8480   28.3260   45.2330 O   0  0  0  0  0  0  0  0  0  0  0  0
   56.5820   29.3260   45.0240 C   0  0  0  0  0  0  0  0  0  0  0  0
   56.0050   30.5650   44.7770 O   0  0  0  0  0  0  0  0  0  0  0  0
   58.0690   29.1800   45.0140 C   0  0  0  0  0  0  0  0  0  0  0  0
   58.6240   28.1760   46.4350 S   0  0  0  0  0  0  0  0  0  0  0  0
   58.8400   29.5760   47.5390 C   0  0  0  0  0  0  0  0  0  0  0  0
   59.3490   30.7820   47.0480 C   0  0  0  0  0  0  0  0  0  0  0  0
   59.5290   31.8760   47.9080 C   0  0  0  0  0  0  0  0  0  0  0  0
   60.1310   33.1540   47.3900 C   0  0  0  0  0  0  0  0  0  0  0  0
   61.5870   33.2300   47.7580 C   0  0  0  0  0  0  0  0  0  0  0  0
   62.5680   33.3350   46.7570 C   0  0  0  0  0  0  0  0  0  0  0  0
   63.9180   33.4410   47.1030 C   0  0  0  0  0  0  0  0  0  0  0  0
   64.2980   33.4530   48.4490 C   0  0  0  0  0  0  0  0  0  0  0  0
   63.3280   33.3610   49.4500 C   0  0  0  0  0  0  0  0  0  0  0  0
   61.9760   33.2540   49.1080 C   0  0  0  0  0  0  0  0  0  0  0  0
   59.2090   31.7450   49.2690 C   0  0  0  0  0  0  0  0  0  0  0  0
   58.6810   30.5390   49.7640 C   0  0  0  0  0  0  0  0  0  0  0  0
   58.3600   30.3620   51.1520 N   0  0  0  0  0  0  0  0  0  0  0  0
   57.0650   30.0940   51.7010 C   0  0  0  0  0  0  0  0  0  0  0  0
   56.8900   29.1150   52.4760 O   0  0  0  0  0  0  0  0  0  0  0  0
   55.9720   30.9580   51.3630 N   0  0  0  0  0  0  0  0  0  0  0  0
   54.6810   30.9160   51.9960 C   0  0  0  0  0  0  0  0  0  0  0  0
   54.5110   30.1470   53.1550 C   0  0  0  0  0  0  0  0  0  0  0  0
   53.2630   30.0730   53.7770 C   0  0  0  0  0  0  0  0  0  0  0  0
   52.1680   30.7530   53.2390 C   0  0  0  0  0  0  0  0  0  0  0  0
   52.3100   31.5100   52.0630 C   0  0  0  0  0  0  0  0  0  0  0  0
   51.1490   32.2160   51.4780 C   0  0  0  0  0  0  0  0  0  0  0  0
   50.2620   32.7170   52.2200 O   0  0  0  0  0  0  0  0  0  0  0  0
   51.0210   32.3410   50.0990 O   0  0  0  0  0  0  0  0  0  0  0  0
   53.5710   31.5800   51.4420 C   0  0  0  0  0  0  0  0  0  0  0  0
   58.5220   29.4530   48.8960 C   0  0  0  0  0  0  0  0  0  0  0  0
   58.3779   28.6873   44.0803 H   0  0  0  0  0  0  0  0  0  0  0  0
   58.5245   30.1787   45.0851 H   0  0  0  0  0  0  0  0  0  0  0  0
   59.6094   30.8736   45.9832 H   0  0  0  0  0  0  0  0  0  0  0  0
   60.0311   33.1848   46.2950 H   0  0  0  0  0  0  0  0  0  0  0  0
   59.6025   34.0074   47.8400 H   0  0  0  0  0  0  0  0  0  0  0  0
   62.2722   33.3337   45.6975 H   0  0  0  0  0  0  0  0  0  0  0  0
   64.6826   33.5151   46.3157 H   0  0  0  0  0  0  0  0  0  0  0  0
   65.3611   33.5349   48.7194 H   0  0  0  0  0  0  0  0  0  0  0  0
   63.6278   33.3727   50.5083 H   0  0  0  0  0  0  0  0  0  0  0  0
   61.2143   33.1884   49.8989 H   0  0  0  0  0  0  0  0  0  0  0  0
   59.3724   32.5912   49.9526 H   0  0  0  0  0  0  0  0  0  0  0  0
   56.0980   31.5930   50.5420 H   0  0  0  0  0  0  0  0  0  0  0  0
   55.3658   29.5984   53.5774 H   0  0  0  0  0  0  0  0  0  0  0  0
   53.1419   29.4772   54.6937 H   0  0  0  0  0  0  0  0  0  0  0  0
   51.1894   30.6959   53.7381 H   0  0  0  0  0  0  0  0  0  0  0  0
   53.6900   32.1594   50.5146 H   0  0  0  0  0  0  0  0  0  0  0  0
   58.1441   28.4953   49.2834 H   0  0  0  0  0  0  0  0  0  0  0  0
  1  2  2  0
  2  3  1  0
  2  4  1  0
  4  5  1  0
  5  6  1  0
  6  7  2  0
  7  8  1  0
  8  9  1  0
  9 10  1  0
 10 11  2  0
 11 12  1  0
 12 13  2  0
 13 14  1  0
 14 15  2  0
  8 16  2  0
 16 17  1  0
 17 18  1  0
 18 19  1  0
 19 20  2  0
 19 21  1  0
 21 22  1  0
 22 23  2  0
 23 24  1  0
 24 25  2  0
 25 26  1  0
 26 27  1  0
 27 28  2  0
 27 29  1  0
 26 30  2  0
 17 31  2  0
 31  6  1  0
 15 10  1  0
 30 22  1  0
  4 32  1  0
  4 33  1  0
  7 34  1  0
  9 35  1  0
  9 36  1  0
 11 37  1  0
 12 38  1  0
 13 39  1  0
 14 40  1  0
 15 41  1  0
 16 42  1  0
 21 43  1  0
 23 44  1  0
 24 45  1  0
 25 46  1  0
 30 47  1  0
 31 48  1  0
M  CHG  3   3  -1  18  -1  29  -1
M  END
>  <UniqueID>  (38) 
37

>  <SMILES>  (38) 
O=C([O-])CSc1cc(Cc2ccccc2)cc([N-]C(=O)Nc2cccc(C(=O)[O-])c2)c1

>  <Energy>  (38) 
51.221999512207184

>  <Genealogy>  (38) 
O=C([O-])CSc1cc(Cc2ccccc2)cc([N-]C(=O)Nc2cccc(C(=O)[O-])c2)c1 (protonated)
O=C([O-])CSc1cc(Cc2ccccc2)cc([N-]C(=O)Nc2cccc(C(=O)[O-])c2)c1 (3D coordinates assigned)
O=C([O-])CSc1cc(Cc2ccccc2)cc([N-]C(=O)Nc2cccc(C(=O)[O-])c2)c1 (optimized conformer: 51.221999512207184 kcal/mol)

>  <smiles>  (38) 
O=C(O)CSc1cc(Cc2ccccc2)cc(NC(=O)Nc2cccc(C(=O)O)c2)c1

>  <score_type>  (38) 
oracle

>  <origin>  (38) 
adg

>  <m_score__min__energy>  (38) 
-16.960000000000001

>  <m_primary>  (38) 
energy

$$$$
38:0
     RDKit          3D

 28 29  0  0  0  0  0  0  0  0999 V2000
   56.8220   30.4140   43.6050 C   0  0  0  0  0  0  0  0  0  0  0  0
   56.9050   30.7230   44.9920 O   0  0  0  0  0  0  0  0  0  0  0  0
   57.8300   31.6170   45.5520 C   0  0  0  0  0  0  0  0  0  0  0  0
   58.5390   31.2140   46.6890 C   0  0  0  0  0  0  0  0  0  0  0  0
   59.4730   32.0670   47.2830 C   0  0  0  0  0  0  0  0  0  0  0  0
   59.7210   33.3390   46.7370 C   0  0  0  0  0  0  0  0  0  0  0  0
   60.6430   34.2220   47.3220 O   0  0  0  0  0  0  0  0  0  0  0  0
   61.8240   33.8430   47.9730 C   0  0  0  0  0  0  0  0  0  0  0  0
   62.9000   33.3850   47.2050 C   0  0  0  0  0  0  0  0  0  0  0  0
   64.0640   33.0060   47.8020 N   0  0  0  0  0  0  0  0  0  0  0  0
   64.2150   33.0460   49.1560 C   0  0  0  0  0  0  0  0  0  0  0  0
   65.4590   32.6390   49.7570 C   0  0  0  0  0  0  0  0  0  0  0  0
   66.4580   32.3120   50.2400 N   0  0  0  0  0  0  0  0  0  0  0  0
   63.1570   33.4720   49.9650 C   0  0  0  0  0  0  0  0  0  0  0  0
   61.9520   33.8610   49.3750 C   0  0  0  0  0  0  0  0  0  0  0  0
   60.9830   34.2010   50.1050 O   0  0  0  0  0  0  0  0  0  0  0  0
   59.0000   33.7530   45.6070 C   0  0  0  0  0  0  0  0  0  0  0  0
   59.2700   35.3440   44.9150 Cl  0  0  0  0  0  0  0  0  0  0  0  0
   58.0640   32.8960   45.0140 C   0  0  0  0  0  0  0  0  0  0  0  0
   56.5385   29.3584   43.4808 H   0  0  0  0  0  0  0  0  0  0  0  0
   56.0643   31.0554   43.1312 H   0  0  0  0  0  0  0  0  0  0  0  0
   57.7991   30.5894   43.1312 H   0  0  0  0  0  0  0  0  0  0  0  0
   58.3597   30.2175   47.1188 H   0  0  0  0  0  0  0  0  0  0  0  0
   60.0169   31.7419   48.1821 H   0  0  0  0  0  0  0  0  0  0  0  0
   62.8051   33.3306   46.1105 H   0  0  0  0  0  0  0  0  0  0  0  0
   64.8520   32.6780   47.1990 H   0  0  0  0  0  0  0  0  0  0  0  0
   63.2728   33.5006   51.0585 H   0  0  0  0  0  0  0  0  0  0  0  0
   57.5089   33.2246   44.1230 H   0  0  0  0  0  0  0  0  0  0  0  0
  1  2  1  0
  2  3  1  0
  3  4  2  0
  4  5  1  0
  5  6  2  0
  6  7  1  0
  7  8  1  0
  8  9  2  0
  9 10  1  0
 10 11  1  0
 11 12  1  0
 12 13  3  0
 11 14  2  0
 14 15  1  0
 15 16  2  0
  6 17  1  0
 17 18  1  0
 17 19  2  0
 19  3  1  0
 15  8  1  0
  1 20  1  0
  1 21  1  0
  1 22  1  0
  4 23  1  0
  5 24  1  0
  9 25  1  0
 10 26  1  0
 14 27  1  0
 19 28  1  0
M  END
>  <UniqueID>  (39) 
38

>  <SMILES>  (39) 
COc1ccc(Oc2c[nH]c(C#N)cc2=O)c(Cl)c1

>  <Energy>  (39) 
35.91891675475816

>  <Genealogy>  (39) 
COc1ccc(Oc2c[nH]c(C#N)cc2=O)c(Cl)c1 (3D coordinates assigned)
COc1ccc(Oc2c[nH]c(C#N)cc2=O)c(Cl)c1 (optimized conformer: 35.91891675475816 kcal/mol)

>  <smiles>  (39) 
COc1ccc(Oc2c[nH]c(C#N)cc2=O)c(Cl)c1

>  <score_type>  (39) 
oracle

>  <origin>  (39) 
adg

>  <m_score__min__energy>  (39) 
-6.29

>  <m_primary>  (39) 
energy

$$$$
39:0
     RDKit          3D

 41 43  0  0  0  0  0  0  0  0999 V2000
   56.3180   29.6950   42.6730 C   0  0  0  0  0  0  0  0  0  0  0  0
   57.2170   29.1330   43.7400 C   0  0  0  0  0  0  0  0  0  0  0  0
   57.7700   27.8520   43.5840 C   0  0  0  0  0  0  0  0  0  0  0  0
   58.6220   27.3280   44.5540 C   0  0  0  0  0  0  0  0  0  0  0  0
   58.9220   28.0670   45.6980 C   0  0  0  0  0  0  0  0  0  0  0  0
   58.3720   29.3450   45.8860 C   0  0  0  0  0  0  0  0  0  0  0  0
   58.6840   30.0890   47.1570 C   0  0  0  0  0  0  0  0  0  0  0  0
   57.5460   29.9010   44.8780 C   0  0  0  0  0  0  0  0  0  0  0  0
   56.9980   31.2210   45.0100 N   0  0  0  0  0  0  0  0  0  0  0  0
   57.5980   32.3940   44.4560 C   0  0  0  0  0  0  0  0  0  0  0  0
   57.4020   32.7030   43.2480 O   0  0  0  0  0  0  0  0  0  0  0  0
   58.4220   33.2550   45.3100 C   0  0  0  0  0  0  0  0  0  0  0  0
   58.7540   34.5720   45.0600 C   0  0  0  0  0  0  0  0  0  0  0  0
   59.5410   34.9670   46.1200 C   0  0  0  0  0  0  0  0  0  0  0  0
   59.6330   33.8660   46.9560 C   0  0  0  0  0  0  0  0  0  0  0  0
   60.4000   33.7660   48.2180 C   0  0  0  0  0  0  0  0  0  0  0  0
   59.6860   33.7610   49.4280 C   0  0  0  0  0  0  0  0  0  0  0  0
   60.3520   33.6650   50.6610 C   0  0  0  0  0  0  0  0  0  0  0  0
   59.5660   33.5990   51.9480 C   0  0  0  0  0  0  0  0  0  0  0  0
   58.9700   32.3580   52.0910 F   0  0  0  0  0  0  0  0  0  0  0  0
   60.4200   33.8140   53.0130 F   0  0  0  0  0  0  0  0  0  0  0  0
   58.5710   34.5610   51.9660 F   0  0  0  0  0  0  0  0  0  0  0  0
   61.7480   33.5340   50.6730 C   0  0  0  0  0  0  0  0  0  0  0  0
   62.4700   33.5610   49.4790 C   0  0  0  0  0  0  0  0  0  0  0  0
   61.8110   33.6870   48.2510 C   0  0  0  0  0  0  0  0  0  0  0  0
   62.8040   33.8270   46.8030 Cl  0  0  0  0  0  0  0  0  0  0  0  0
   58.9620   32.8610   46.4390 O   0  0  0  0  0  0  0  0  0  0  0  0
   55.4750   30.2220   43.1439 H   0  0  0  0  0  0  0  0  0  0  0  0
   56.8869   30.3986   42.0474 H   0  0  0  0  0  0  0  0  0  0  0  0
   55.9347   28.8754   42.0474 H   0  0  0  0  0  0  0  0  0  0  0  0
   57.5290   27.2581   42.6900 H   0  0  0  0  0  0  0  0  0  0  0  0
   59.0595   26.3281   44.4170 H   0  0  0  0  0  0  0  0  0  0  0  0
   59.5949   27.6452   46.4591 H   0  0  0  0  0  0  0  0  0  0  0  0
   58.4214   29.4627   48.0224 H   0  0  0  0  0  0  0  0  0  0  0  0
   59.7576   30.3266   47.1887 H   0  0  0  0  0  0  0  0  0  0  0  0
   58.1010   31.0213   47.1887 H   0  0  0  0  0  0  0  0  0  0  0  0
   58.4527   35.1798   44.1941 H   0  0  0  0  0  0  0  0  0  0  0  0
   60.0018   35.9543   46.2714 H   0  0  0  0  0  0  0  0  0  0  0  0
   58.5885   33.8334   49.4095 H   0  0  0  0  0  0  0  0  0  0  0  0
   62.2772   33.4092   51.6292 H   0  0  0  0  0  0  0  0  0  0  0  0
   63.5669   33.4825   49.5034 H   0  0  0  0  0  0  0  0  0  0  0  0
  1  2  1  0
  2  3  2  0
  3  4  1  0
  4  5  2  0
  5  6  1  0
  6  7  1  0
  6  8  2  0
  8  9  1  0
  9 10  1  0
 10 11  2  0
 10 12  1  0
 12 13  2  0
 13 14  1  0
 14 15  2  0
 15 16  1  0
 16 17  2  0
 17 18  1  0
 18 19  1  0
 19 20  1  0
 19 21  1  0
 19 22  1  0
 18 23  2  0
 23 24  1  0
 24 25  2  0
 25 26  1  0
 15 27  1  0
  8  2  1  0
 27 12  1  0
 25 16  1  0
  1 28  1  0
  1 29  1  0
  1 30  1  0
  3 31  1  0
  4 32  1  0
  5 33  1  0
  7 34  1  0
  7 35  1  0
  7 36  1  0
 13 37  1  0
 14 38  1  0
 17 39  1  0
 23 40  1  0
 24 41  1  0
M  CHG  1   9  -1
M  END
>  <UniqueID>  (40) 
39

>  <SMILES>  (40) 
Cc1cccc(C)c1[N-]C(=O)c1ccc(-c2cc(C(F)(F)F)ccc2Cl)o1

>  <Energy>  (40) 
81.29508171332968

>  <Genealogy>  (40) 
Cc1cccc(C)c1[N-]C(=O)c1ccc(-c2cc(C(F)(F)F)ccc2Cl)o1 (protonated)
Cc1cccc(C)c1[N-]C(=O)c1ccc(-c2cc(C(F)(F)F)ccc2Cl)o1 (3D coordinates assigned)
Cc1cccc(C)c1[N-]C(=O)c1ccc(-c2cc(C(F)(F)F)ccc2Cl)o1 (optimized conformer: 81.29508171332968 kcal/mol)

>  <smiles>  (40) 
Cc1cccc(C)c1NC(=O)c1ccc(-c2cc(C(F)(F)F)ccc2Cl)o1

>  <score_type>  (40) 
oracle

>  <origin>  (40) 
adg

>  <m_score__min__energy>  (40) 
-9.9000000000000004

>  <m_primary>  (40) 
energy

$$$$
40:0
     RDKit          3D

 33 35  0  0  0  0  0  0  0  0999 V2000
   52.7140   22.5000   46.0210 C   0  0  0  0  0  0  0  0  0  0  0  0
   53.9780   22.2460   45.4150 O   0  0  0  0  0  0  0  0  0  0  0  0
   54.9390   23.2310   45.1390 C   0  0  0  0  0  0  0  0  0  0  0  0
   54.9250   24.4890   45.7890 C   0  0  0  0  0  0  0  0  0  0  0  0
   55.9070   25.4250   45.4710 C   0  0  0  0  0  0  0  0  0  0  0  0
   55.9940   26.6600   46.0250 N   0  0  0  0  0  0  0  0  0  0  0  0
   57.0490   27.3380   45.5110 C   0  0  0  0  0  0  0  0  0  0  0  0
   57.3620   28.5480   45.8560 N   0  0  0  0  0  0  0  0  0  0  0  0
   57.0160   29.9320   44.8700 S   0  0  0  0  0  0  0  0  0  0  0  0
   57.5310   29.6940   43.4780 O   0  0  0  0  0  0  0  0  0  0  0  0
   55.5320   30.1470   44.8120 O   0  0  0  0  0  0  0  0  0  0  0  0
   57.7750   31.3560   45.5580 C   0  0  0  0  0  0  0  0  0  0  0  0
   58.7960   31.3500   46.4970 C   0  0  0  0  0  0  0  0  0  0  0  0
   59.2340   32.6350   46.8330 C   0  0  0  0  0  0  0  0  0  0  0  0
   58.5620   33.6480   46.1570 C   0  0  0  0  0  0  0  0  0  0  0  0
   57.4240   32.9430   45.1380 S   0  0  0  0  0  0  0  0  0  0  0  0
   57.9100   26.4460   44.3630 S   0  0  0  0  0  0  0  0  0  0  0  0
   56.8800   25.1290   44.5330 C   0  0  0  0  0  0  0  0  0  0  0  0
   56.9260   23.9050   43.8750 C   0  0  0  0  0  0  0  0  0  0  0  0
   55.9390   22.9390   44.1820 C   0  0  0  0  0  0  0  0  0  0  0  0
   55.9180   21.6810   43.5600 O   0  0  0  0  0  0  0  0  0  0  0  0
   57.0650   21.0250   43.0300 C   0  0  0  0  0  0  0  0  0  0  0  0
   52.8212   22.4785   47.1156 H   0  0  0  0  0  0  0  0  0  0  0  0
   52.3494   23.4894   45.7077 H   0  0  0  0  0  0  0  0  0  0  0  0
   51.9955   21.7283   45.7077 H   0  0  0  0  0  0  0  0  0  0  0  0
   54.1504   24.7238   46.5339 H   0  0  0  0  0  0  0  0  0  0  0  0
   59.2168   30.4313   46.9316 H   0  0  0  0  0  0  0  0  0  0  0  0
   60.0343   32.8265   47.5629 H   0  0  0  0  0  0  0  0  0  0  0  0
   58.7438   34.7270   46.2696 H   0  0  0  0  0  0  0  0  0  0  0  0
   57.7106   23.6929   43.1338 H   0  0  0  0  0  0  0  0  0  0  0  0
   57.6955   20.6644   43.8560 H   0  0  0  0  0  0  0  0  0  0  0  0
   56.7469   20.1722   42.4122 H   0  0  0  0  0  0  0  0  0  0  0  0
   57.6387   21.7315   42.4122 H   0  0  0  0  0  0  0  0  0  0  0  0
  1  2  1  0
  2  3  1  0
  3  4  2  0
  4  5  1  0
  5  6  1  0
  6  7  1  0
  7  8  2  3
  8  9  1  0
  9 10  2  0
  9 11  2  0
  9 12  1  0
 12 13  2  0
 13 14  1  0
 14 15  2  0
 15 16  1  0
  7 17  1  0
 17 18  1  0
 18 19  1  0
 19 20  2  0
 20 21  1  0
 21 22  1  0
 20  3  1  0
 18  5  2  0
 16 12  1  0
  1 23  1  0
  1 24  1  0
  1 25  1  0
  4 26  1  0
 13 27  1  0
 14 28  1  0
 15 29  1  0
 19 30  1  0
 22 31  1  0
 22 32  1  0
 22 33  1  0
M  CHG  1   6  -1
M  END
>  <UniqueID>  (41) 
40

>  <SMILES>  (41) 
COc1cc2[n-]c(=NS(=O)(=O)c3cccs3)sc2cc1OC

>  <Energy>  (41) 
97.05289161287207

>  <Genealogy>  (41) 
COc1cc2[n-]c(=NS(=O)(=O)c3cccs3)sc2cc1OC (protonated)
COc1cc2[n-]c(=NS(=O)(=O)c3cccs3)sc2cc1OC (3D coordinates assigned)
COc1cc2[n-]c(=NS(=O)(=O)c3cccs3)sc2cc1OC (optimized conformer: 97.05289161287207 kcal/mol)

>  <smiles>  (41) 
COc1cc2[nH]c(=NS(=O)(=O)c3cccs3)sc2cc1OC

>  <score_type>  (41) 
oracle

>  <origin>  (41) 
adg

>  <m_score__min__energy>  (41) 
-9.3300000000000001

>  <m_primary>  (41) 
energy

$$$$
41:0
     RDKit          3D

 41 42  0  0  0  0  0  0  0  0999 V2000
   58.8210   32.7680   48.1080 C   0  0  0  0  0  0  0  0  0  0  0  0
   58.4840   32.6300   46.6530 C   0  0  0  0  0  0  0  0  0  0  0  0
   58.3740   33.7690   45.8420 C   0  0  0  0  0  0  0  0  0  0  0  0
   58.0130   33.6440   44.4970 C   0  0  0  0  0  0  0  0  0  0  0  0
   57.7520   32.3830   43.9550 C   0  0  0  0  0  0  0  0  0  0  0  0
   57.8530   31.2340   44.7560 C   0  0  0  0  0  0  0  0  0  0  0  0
   57.5230   29.8820   44.1860 C   0  0  0  0  0  0  0  0  0  0  0  0
   56.1370   29.4840   44.5820 C   0  0  0  0  0  0  0  0  0  0  0  0
   55.1860   30.2950   44.4150 O   0  0  0  0  0  0  0  0  0  0  0  0
   55.9280   28.2310   45.2460 N   0  0  0  0  0  0  0  0  0  0  0  0
   56.9390   27.2890   45.6330 C   0  0  0  0  0  0  0  0  0  0  0  0
   57.7620   27.6010   46.7210 C   0  0  0  0  0  0  0  0  0  0  0  0
   58.7680   26.7190   47.1220 C   0  0  0  0  0  0  0  0  0  0  0  0
   58.9640   25.5210   46.4330 C   0  0  0  0  0  0  0  0  0  0  0  0
   58.1640   25.1940   45.3310 C   0  0  0  0  0  0  0  0  0  0  0  0
   58.4180   23.9790   44.6730 O   0  0  0  0  0  0  0  0  0  0  0  0
   57.8490   22.7090   45.0000 C   0  0  0  0  0  0  0  0  0  0  0  0
   56.4640   22.8700   45.6240 C   0  0  0  0  0  0  0  0  0  0  0  0
   55.5420   23.3790   44.6660 O   0  0  0  0  0  0  0  0  0  0  0  0
   54.3550   23.9780   45.0380 N   0  0  0  0  0  0  0  0  0  0  0  0
   53.2610   23.4070   44.8530 O   0  0  0  0  0  0  0  0  0  0  0  0
   54.3800   25.2200   45.6250 O   0  0  0  0  0  0  0  0  0  0  0  0
   57.1600   26.0950   44.9220 C   0  0  0  0  0  0  0  0  0  0  0  0
   58.2030   31.3650   46.1100 C   0  0  0  0  0  0  0  0  0  0  0  0
   57.9724   32.4205   48.7155 H   0  0  0  0  0  0  0  0  0  0  0  0
   59.7093   32.1612   48.3378 H   0  0  0  0  0  0  0  0  0  0  0  0
   59.0285   33.8235   48.3378 H   0  0  0  0  0  0  0  0  0  0  0  0
   58.5725   34.7645   46.2657 H   0  0  0  0  0  0  0  0  0  0  0  0
   57.9343   34.5404   43.8643 H   0  0  0  0  0  0  0  0  0  0  0  0
   57.4663   32.2899   42.8968 H   0  0  0  0  0  0  0  0  0  0  0  0
   57.5907   29.9229   43.0889 H   0  0  0  0  0  0  0  0  0  0  0  0
   58.2366   29.1417   44.5767 H   0  0  0  0  0  0  0  0  0  0  0  0
   57.6157   28.5466   47.2637 H   0  0  0  0  0  0  0  0  0  0  0  0
   59.4067   26.9688   47.9820 H   0  0  0  0  0  0  0  0  0  0  0  0
   59.7536   24.8278   46.7584 H   0  0  0  0  0  0  0  0  0  0  0  0
   57.7620   22.1077   44.0830 H   0  0  0  0  0  0  0  0  0  0  0  0
   58.5044   22.2103   45.7292 H   0  0  0  0  0  0  0  0  0  0  0  0
   56.1117   21.8910   45.9810 H   0  0  0  0  0  0  0  0  0  0  0  0
   56.5319   23.5775   46.4635 H   0  0  0  0  0  0  0  0  0  0  0  0
   56.5446   25.8629   44.0403 H   0  0  0  0  0  0  0  0  0  0  0  0
   58.2574   30.4715   46.7493 H   0  0  0  0  0  0  0  0  0  0  0  0
  1  2  1  0
  2  3  2  0
  3  4  1  0
  4  5  2  0
  5  6  1  0
  6  7  1  0
  7  8  1  0
  8  9  2  0
  8 10  1  0
 10 11  1  0
 11 12  2  0
 12 13  1  0
 13 14  2  0
 14 15  1  0
 15 16  1  0
 16 17  1  0
 17 18  1  0
 18 19  1  0
 19 20  1  0
 20 21  2  0
 20 22  1  0
 15 23  2  0
  6 24  2  0
 24  2  1  0
 23 11  1  0
  1 25  1  0
  1 26  1  0
  1 27  1  0
  3 28  1  0
  4 29  1  0
  5 30  1  0
  7 31  1  0
  7 32  1  0
 12 33  1  0
 13 34  1  0
 14 35  1  0
 17 36  1  0
 17 37  1  0
 18 38  1  0
 18 39  1  0
 23 40  1  0
 24 41  1  0
M  CHG  3  10  -1  20   1  22  -1
M  END
>  <UniqueID>  (42) 
41

>  <SMILES>  (42) 
Cc1cccc(CC(=O)[N-]c2cccc(OCCO[N+](=O)[O-])c2)c1

>  <Energy>  (42) 
38.43535026182737

>  <Genealogy>  (42) 
Cc1cccc(CC(=O)[N-]c2cccc(OCCO[N+](=O)[O-])c2)c1 (protonated)
Cc1cccc(CC(=O)[N-]c2cccc(OCCO[N+](=O)[O-])c2)c1 (3D coordinates assigned)
Cc1cccc(CC(=O)[N-]c2cccc(OCCO[N+](=O)[O-])c2)c1 (optimized conformer: 38.43535026182737 kcal/mol)

>  <smiles>  (42) 
Cc1cccc(CC(=O)Nc2cccc(OCCO[N+](=O)[O-])c2)c1

>  <score_type>  (42) 
oracle

>  <origin>  (42) 
adg

>  <m_score__min__energy>  (42) 
-9.7599999999999998

>  <m_primary>  (42) 
energy

$$$$
42:0
     RDKit          3D

 32 34  0  0  0  0  0  0  0  0999 V2000
   56.1850   34.7070   45.6330 H   0  0  0  0  0  0  0  0  0  0  0  0
   56.7510   31.7040   44.8680 N   0  0  0  0  0  0  0  0  0  0  0  0
   57.2310   32.9790   45.3260 C   0  0  0  0  0  0  0  0  0  0  0  0
   56.6170   34.0530   44.9430 N   0  0  0  0  0  0  0  0  0  0  0  0
   57.3200   30.5560   45.0870 C   0  0  0  0  0  0  0  0  0  0  0  0
   56.6000   29.4410   45.3500 N   0  0  0  0  0  0  0  0  0  0  0  0
   57.4130   28.3770   45.5780 C   0  0  0  0  0  0  0  0  0  0  0  0
   56.9600   27.0860   45.8710 C   0  0  0  0  0  0  0  0  0  0  0  0
   55.5810   26.8440   45.9380 O   0  0  0  0  0  0  0  0  0  0  0  0
   54.9700   25.5970   45.6230 C   0  0  0  0  0  0  0  0  0  0  0  0
   54.7117   25.0699   46.5533 H   0  0  0  0  0  0  0  0  0  0  0  0
   54.0566   25.7741   45.0362 H   0  0  0  0  0  0  0  0  0  0  0  0
   55.6697   24.9837   45.0362 H   0  0  0  0  0  0  0  0  0  0  0  0
   57.9270   26.0750   46.0880 C   0  0  0  0  0  0  0  0  0  0  0  0
   57.6009   25.0504   46.3199 H   0  0  0  0  0  0  0  0  0  0  0  0
   59.3020   26.3680   46.0100 C   0  0  0  0  0  0  0  0  0  0  0  0
   60.0408   25.5710   46.1800 H   0  0  0  0  0  0  0  0  0  0  0  0
   59.7360   27.6690   45.7170 C   0  0  0  0  0  0  0  0  0  0  0  0
   60.8081   27.9076   45.6566 H   0  0  0  0  0  0  0  0  0  0  0  0
   58.7720   28.6490   45.5050 C   0  0  0  0  0  0  0  0  0  0  0  0
   58.9970   30.2730   45.1470 S   0  0  0  0  0  0  0  0  0  0  0  0
   58.4700   33.0990   46.1340 C   0  0  0  0  0  0  0  0  0  0  0  0
   59.5980   33.7650   45.6190 C   0  0  0  0  0  0  0  0  0  0  0  0
   59.5622   34.1981   44.6085 H   0  0  0  0  0  0  0  0  0  0  0  0
   60.7630   33.8800   46.3820 C   0  0  0  0  0  0  0  0  0  0  0  0
   61.6418   34.3965   45.9685 H   0  0  0  0  0  0  0  0  0  0  0  0
   60.8130   33.3390   47.6710 C   0  0  0  0  0  0  0  0  0  0  0  0
   62.4060   33.4970   48.7120 Br  0  0  0  0  0  0  0  0  0  0  0  0
   59.6950   32.6860   48.1970 C   0  0  0  0  0  0  0  0  0  0  0  0
   59.7335   32.2631   49.2117 H   0  0  0  0  0  0  0  0  0  0  0  0
   58.5270   32.5690   47.4360 C   0  0  0  0  0  0  0  0  0  0  0  0
   57.6481   32.0597   47.8580 H   0  0  0  0  0  0  0  0  0  0  0  0
  1  2  1  0
  2  3  2  0
  3  4  1  0
  4  5  2  0
  5  6  1  0
  6  7  1  0
  7  8  2  0
  8  9  1  0
  9 10  1  0
 10 11  1  0
 10 12  1  0
 10 13  1  0
  8 14  1  0
 14 15  1  0
 14 16  2  0
 16 17  1  0
 16 18  1  0
 18 19  1  0
 18 20  2  0
 20 21  1  0
  3 22  1  0
 22 23  2  0
 23 24  1  0
 23 25  1  0
 25 26  1  0
 25 27  2  0
 27 28  1  0
 27 29  1  0
 29 30  1  0
 29 31  2  0
 31 32  1  0
 21  5  1  0
 31 22  1  0
 20  7  1  0
M  CHG  1   6  -1
M  END
>  <UniqueID>  (43) 
42

>  <SMILES>  (43) 
[H]/N=C(\N=c1\[n-]c2c(OC)cccc2s1)c1ccc(Br)cc1

>  <Energy>  (43) 
76.79478424458371

>  <Genealogy>  (43) 
COc1cccc2sc(=NC(=N)c3ccc(Br)cc3)[n-]c12 (protonated)
[H]/N=C(\N=c1\[n-]c2c(OC)cccc2s1)c1ccc(Br)cc1 (cis-trans isomerization)
[H]/N=C(\N=c1\[n-]c2c(OC)cccc2s1)c1ccc(Br)cc1 (3D coordinates assigned)
[H]/N=C(\N=c1\[n-]c2c(OC)cccc2s1)c1ccc(Br)cc1 (optimized conformer: 76.79478424458371 kcal/mol)

>  <smiles>  (43) 
COc1cccc2sc(=NC(=N)c3ccc(Br)cc3)[nH]c12

>  <score_type>  (43) 
oracle

>  <origin>  (43) 
adg

>  <m_score__min__energy>  (43) 
-10.039999999999999

>  <m_primary>  (43) 
energy

$$$$
43:0
     RDKit          3D

 45 47  0  0  0  0  0  0  0  0999 V2000
   57.7630   24.7660   47.8680 O   0  0  0  0  0  0  0  0  0  0  0  0
   58.0880   25.9020   47.4300 C   0  0  0  0  0  0  0  0  0  0  0  0
   57.0540   26.7850   46.7700 C   0  0  0  0  0  0  0  0  0  0  0  0
   56.3160   26.0940   45.6200 C   0  0  0  0  0  0  0  0  0  0  0  0
   54.9040   25.9300   45.9610 N   0  0  0  0  0  0  0  0  0  0  0  0
   54.4880   24.2430   45.9560 S   0  0  0  0  0  0  0  0  0  0  0  0
   53.1040   24.0760   45.3960 O   0  0  0  0  0  0  0  0  0  0  0  0
   54.5110   23.7190   47.3660 O   0  0  0  0  0  0  0  0  0  0  0  0
   55.6260   23.3500   44.9500 C   0  0  0  0  0  0  0  0  0  0  0  0
   55.4940   23.3410   43.5530 C   0  0  0  0  0  0  0  0  0  0  0  0
   56.3970   22.6150   42.7680 C   0  0  0  0  0  0  0  0  0  0  0  0
   57.4330   21.8970   43.3750 C   0  0  0  0  0  0  0  0  0  0  0  0
   57.5690   21.9070   44.7670 C   0  0  0  0  0  0  0  0  0  0  0  0
   56.6670   22.6310   45.5540 C   0  0  0  0  0  0  0  0  0  0  0  0
   59.4290   26.3570   47.6370 N   0  0  0  0  0  0  0  0  0  0  0  0
   60.0640   27.4170   46.8640 C   0  0  0  0  0  0  0  0  0  0  0  0
   59.4910   28.7690   47.2830 C   0  0  0  0  0  0  0  0  0  0  0  0
   59.0420   29.5460   46.0820 C   0  0  0  0  0  0  0  0  0  0  0  0
   58.8480   29.0490   44.7970 C   0  0  0  0  0  0  0  0  0  0  0  0
   58.3650   30.0170   43.9840 N   0  0  0  0  0  0  0  0  0  0  0  0
   58.2400   31.1160   44.7490 C   0  0  0  0  0  0  0  0  0  0  0  0
   57.7590   32.3660   44.3600 C   0  0  0  0  0  0  0  0  0  0  0  0
   57.6920   33.3770   45.3370 C   0  0  0  0  0  0  0  0  0  0  0  0
   58.0980   33.1180   46.6650 C   0  0  0  0  0  0  0  0  0  0  0  0
   58.5760   31.8450   47.0290 C   0  0  0  0  0  0  0  0  0  0  0  0
   58.6380   30.8660   46.0370 C   0  0  0  0  0  0  0  0  0  0  0  0
   56.3161   27.0859   47.5282 H   0  0  0  0  0  0  0  0  0  0  0  0
   57.5856   27.6491   46.3448 H   0  0  0  0  0  0  0  0  0  0  0  0
   56.4026   26.7069   44.7107 H   0  0  0  0  0  0  0  0  0  0  0  0
   56.7634   25.1043   45.4459 H   0  0  0  0  0  0  0  0  0  0  0  0
   54.6799   23.9051   43.0744 H   0  0  0  0  0  0  0  0  0  0  0  0
   56.2921   22.6089   41.6730 H   0  0  0  0  0  0  0  0  0  0  0  0
   58.1407   21.3245   42.7574 H   0  0  0  0  0  0  0  0  0  0  0  0
   58.3859   21.3451   45.2434 H   0  0  0  0  0  0  0  0  0  0  0  0
   56.7748   22.6361   46.6487 H   0  0  0  0  0  0  0  0  0  0  0  0
   61.1483   27.4057   47.0487 H   0  0  0  0  0  0  0  0  0  0  0  0
   59.8715   27.2543   45.7933 H   0  0  0  0  0  0  0  0  0  0  0  0
   58.6319   28.6065   47.9505 H   0  0  0  0  0  0  0  0  0  0  0  0
   60.2738   29.3405   47.8032 H   0  0  0  0  0  0  0  0  0  0  0  0
   59.0577   28.0150   44.4858 H   0  0  0  0  0  0  0  0  0  0  0  0
   58.1210   29.9210   42.9730 H   0  0  0  0  0  0  0  0  0  0  0  0
   57.4424   32.5555   43.3237 H   0  0  0  0  0  0  0  0  0  0  0  0
   57.3208   34.3760   45.0645 H   0  0  0  0  0  0  0  0  0  0  0  0
   58.0402   33.9163   47.4196 H   0  0  0  0  0  0  0  0  0  0  0  0
   58.8901   31.6294   48.0609 H   0  0  0  0  0  0  0  0  0  0  0  0
  1  2  2  0
  2  3  1  0
  3  4  1  0
  4  5  1  0
  5  6  1  0
  6  7  2  0
  6  8  2  0
  6  9  1  0
  9 10  2  0
 10 11  1  0
 11 12  2  0
 12 13  1  0
 13 14  2  0
  2 15  1  0
 15 16  1  0
 16 17  1  0
 17 18  1  0
 18 19  2  0
 19 20  1  0
 20 21  1  0
 21 22  2  0
 22 23  1  0
 23 24  2  0
 24 25  1  0
 25 26  2  0
 14  9  1  0
 26 18  1  0
 26 21  1  0
  3 27  1  0
  3 28  1  0
  4 29  1  0
  4 30  1  0
 10 31  1  0
 11 32  1  0
 12 33  1  0
 13 34  1  0
 14 35  1  0
 16 36  1  0
 16 37  1  0
 17 38  1  0
 17 39  1  0
 19 40  1  0
 20 41  1  0
 22 42  1  0
 23 43  1  0
 24 44  1  0
 25 45  1  0
M  CHG  2   5  -1  15  -1
M  END
>  <UniqueID>  (44) 
43

>  <SMILES>  (44) 
O=C(CC[N-]S(=O)(=O)c1ccccc1)[N-]CCc1c[nH]c2ccccc12

>  <Energy>  (44) 
71.04670602720459

>  <Genealogy>  (44) 
O=C(CC[N-]S(=O)(=O)c1ccccc1)[N-]CCc1c[nH]c2ccccc12 (protonated)
O=C(CC[N-]S(=O)(=O)c1ccccc1)[N-]CCc1c[nH]c2ccccc12 (3D coordinates assigned)
O=C(CC[N-]S(=O)(=O)c1ccccc1)[N-]CCc1c[nH]c2ccccc12 (optimized conformer: 71.04670602720459 kcal/mol)

>  <smiles>  (44) 
O=C(CCNS(=O)(=O)c1ccccc1)NCCc1c[nH]c2ccccc12

>  <score_type>  (44) 
oracle

>  <origin>  (44) 
adg

>  <m_score__min__energy>  (44) 
-12.380000000000001

>  <m_primary>  (44) 
energy

$$$$
44:0
     RDKit          3D

 39 41  0  0  0  0  0  0  0  0999 V2000
   59.3560   28.3080   46.0750 O   0  0  0  0  0  0  0  0  0  0  0  0
   58.3740   28.6300   45.3510 C   0  0  0  0  0  0  0  0  0  0  0  0
   57.5130   27.6080   44.8210 N   0  0  0  0  0  0  0  0  0  0  0  0
   57.3990   26.2900   45.3880 C   0  0  0  0  0  0  0  0  0  0  0  0
   58.4990   25.4120   45.4140 C   0  0  0  0  0  0  0  0  0  0  0  0
   58.3760   24.1440   45.9920 C   0  0  0  0  0  0  0  0  0  0  0  0
   57.1630   23.7470   46.5580 C   0  0  0  0  0  0  0  0  0  0  0  0
   56.0720   24.6180   46.5540 C   0  0  0  0  0  0  0  0  0  0  0  0
   56.1880   25.8870   45.9790 C   0  0  0  0  0  0  0  0  0  0  0  0
   55.1150   26.7190   45.9830 F   0  0  0  0  0  0  0  0  0  0  0  0
   58.1530   30.0590   45.0160 C   0  0  0  0  0  0  0  0  0  0  0  0
   57.9310   30.4460   43.6830 C   0  0  0  0  0  0  0  0  0  0  0  0
   57.7160   31.7900   43.3620 C   0  0  0  0  0  0  0  0  0  0  0  0
   57.4250   32.2560   41.6960 Cl  0  0  0  0  0  0  0  0  0  0  0  0
   57.7290   32.7610   44.3650 C   0  0  0  0  0  0  0  0  0  0  0  0
   57.9690   32.3970   45.6980 C   0  0  0  0  0  0  0  0  0  0  0  0
   57.9550   33.4370   46.7880 C   0  0  0  0  0  0  0  0  0  0  0  0
   59.2220   33.4050   47.5370 N   0  0  0  0  0  0  0  0  0  0  0  0
   59.1830   33.2470   48.8970 C   0  0  0  0  0  0  0  0  0  0  0  0
   60.3590   33.2450   49.6480 C   0  0  0  0  0  0  0  0  0  0  0  0
   61.5820   33.4100   49.0070 C   0  0  0  0  0  0  0  0  0  0  0  0
   61.6220   33.5790   47.6240 C   0  0  0  0  0  0  0  0  0  0  0  0
   63.3120   33.8160   46.7530 Br  0  0  0  0  0  0  0  0  0  0  0  0
   60.4240   33.5780   46.8930 C   0  0  0  0  0  0  0  0  0  0  0  0
   60.4640   33.7380   45.6430 O   0  0  0  0  0  0  0  0  0  0  0  0
   58.1770   31.0460   46.0180 C   0  0  0  0  0  0  0  0  0  0  0  0
   57.0270   27.7980   43.9150 H   0  0  0  0  0  0  0  0  0  0  0  0
   59.4594   25.7243   44.9780 H   0  0  0  0  0  0  0  0  0  0  0  0
   59.2363   23.4586   46.0006 H   0  0  0  0  0  0  0  0  0  0  0  0
   57.0669   22.7475   47.0073 H   0  0  0  0  0  0  0  0  0  0  0  0
   55.1185   24.3050   47.0045 H   0  0  0  0  0  0  0  0  0  0  0  0
   57.9264   29.6867   42.8871 H   0  0  0  0  0  0  0  0  0  0  0  0
   57.5503   33.8157   44.1088 H   0  0  0  0  0  0  0  0  0  0  0  0
   57.8234   34.4325   46.3388 H   0  0  0  0  0  0  0  0  0  0  0  0
   57.1248   33.2235   47.4774 H   0  0  0  0  0  0  0  0  0  0  0  0
   58.2143   33.1203   49.4025 H   0  0  0  0  0  0  0  0  0  0  0  0
   60.3190   33.1138   50.7394 H   0  0  0  0  0  0  0  0  0  0  0  0
   62.5150   33.4072   49.5896 H   0  0  0  0  0  0  0  0  0  0  0  0
   58.3606   30.7562   47.0631 H   0  0  0  0  0  0  0  0  0  0  0  0
  1  2  2  0
  2  3  1  0
  3  4  1  0
  4  5  2  0
  5  6  1  0
  6  7  2  0
  7  8  1  0
  8  9  2  0
  9 10  1  0
  2 11  1  0
 11 12  2  0
 12 13  1  0
 13 14  1  0
 13 15  2  0
 15 16  1  0
 16 17  1  0
 17 18  1  0
 18 19  1  0
 19 20  2  0
 20 21  1  0
 21 22  2  0
 22 23  1  0
 22 24  1  0
 24 25  2  0
 16 26  2  0
  9  4  1  0
 26 11  1  0
 24 18  1  0
  3 27  1  0
  5 28  1  0
  6 29  1  0
  7 30  1  0
  8 31  1  0
 12 32  1  0
 15 33  1  0
 17 34  1  0
 17 35  1  0
 19 36  1  0
 20 37  1  0
 21 38  1  0
 26 39  1  0
M  END
>  <UniqueID>  (45) 
44

>  <SMILES>  (45) 
O=C(Nc1ccccc1F)c1cc(Cl)cc(Cn2cccc(Br)c2=O)c1

>  <Energy>  (45) 
49.36481657941767

>  <Genealogy>  (45) 
O=C(Nc1ccccc1F)c1cc(Cl)cc(Cn2cccc(Br)c2=O)c1 (3D coordinates assigned)
O=C(Nc1ccccc1F)c1cc(Cl)cc(Cn2cccc(Br)c2=O)c1 (optimized conformer: 49.36481657941767 kcal/mol)

>  <smiles>  (45) 
O=C(Nc1ccccc1F)c1cc(Cl)cc(Cn2cccc(Br)c2=O)c1

>  <score_type>  (45) 
oracle

>  <origin>  (45) 
adg

>  <m_score__min__energy>  (45) 
-8.9000000000000004

>  <m_primary>  (45) 
energy

$$$$
45:0
     RDKit          3D

 35 37  0  0  0  0  0  0  0  0999 V2000
   65.5390   35.0780   52.3540 C   0  0  0  0  0  0  0  0  0  0  0  0
   66.4090   34.2760   51.4930 N   0  0  0  0  0  0  0  0  0  0  0  0
   67.8680   34.3650   51.6050 C   0  0  0  0  0  0  0  0  0  0  0  0
   65.8200   33.3840   50.5310 C   0  0  0  0  0  0  0  0  0  0  0  0
   66.5570   32.7010   49.7680 O   0  0  0  0  0  0  0  0  0  0  0  0
   64.4260   33.3110   50.4130 O   0  0  0  0  0  0  0  0  0  0  0  0
   63.7360   33.3290   49.1950 C   0  0  0  0  0  0  0  0  0  0  0  0
   64.4110   33.0990   48.0280 N   0  0  0  0  0  0  0  0  0  0  0  0
   63.7670   33.0960   46.8170 C   0  0  0  0  0  0  0  0  0  0  0  0
   62.4270   33.3560   46.7400 N   0  0  0  0  0  0  0  0  0  0  0  0
   61.7590   33.6210   47.8880 C   0  0  0  0  0  0  0  0  0  0  0  0
   62.3700   33.6060   49.1010 C   0  0  0  0  0  0  0  0  0  0  0  0
   61.3800   33.9270   50.0090 C   0  0  0  0  0  0  0  0  0  0  0  0
   60.2190   34.1000   49.3300 N   0  0  0  0  0  0  0  0  0  0  0  0
   60.4530   33.9180   48.0330 N   0  0  0  0  0  0  0  0  0  0  0  0
   59.4380   34.0210   47.0170 C   0  0  0  0  0  0  0  0  0  0  0  0
   58.1970   33.3870   47.2030 C   0  0  0  0  0  0  0  0  0  0  0  0
   57.1980   33.4840   46.2300 C   0  0  0  0  0  0  0  0  0  0  0  0
   57.4230   34.2230   45.0680 C   0  0  0  0  0  0  0  0  0  0  0  0
   58.6450   34.8720   44.8770 C   0  0  0  0  0  0  0  0  0  0  0  0
   59.6480   34.7770   45.8480 C   0  0  0  0  0  0  0  0  0  0  0  0
   65.7697   34.8654   53.4083 H   0  0  0  0  0  0  0  0  0  0  0  0
   65.7054   36.1461   52.1504 H   0  0  0  0  0  0  0  0  0  0  0  0
   64.4879   34.8254   52.1504 H   0  0  0  0  0  0  0  0  0  0  0  0
   68.1538   34.3824   52.6671 H   0  0  0  0  0  0  0  0  0  0  0  0
   68.3271   33.4932   51.1160 H   0  0  0  0  0  0  0  0  0  0  0  0
   68.2178   35.2862   51.1160 H   0  0  0  0  0  0  0  0  0  0  0  0
   65.4360   32.9020   48.0600 H   0  0  0  0  0  0  0  0  0  0  0  0
   64.3341   32.8824   45.8990 H   0  0  0  0  0  0  0  0  0  0  0  0
   61.5109   34.0255   51.0967 H   0  0  0  0  0  0  0  0  0  0  0  0
   58.0108   32.8103   48.1210 H   0  0  0  0  0  0  0  0  0  0  0  0
   56.2334   32.9772   46.3806 H   0  0  0  0  0  0  0  0  0  0  0  0
   56.6372   34.2945   44.3016 H   0  0  0  0  0  0  0  0  0  0  0  0
   58.8190   35.4582   43.9626 H   0  0  0  0  0  0  0  0  0  0  0  0
   60.6061   35.2960   45.6971 H   0  0  0  0  0  0  0  0  0  0  0  0
  1  2  1  0
  2  3  1  0
  2  4  1  0
  4  5  2  0
  4  6  1  0
  6  7  1  0
  7  8  2  0
  8  9  1  0
  9 10  2  0
 10 11  1  0
 11 12  2  0
 12 13  1  0
 13 14  2  0
 14 15  1  0
 15 16  1  0
 16 17  2  0
 17 18  1  0
 18 19  2  0
 19 20  1  0
 20 21  2  0
 12  7  1  0
 21 16  1  0
 15 11  1  0
  1 22  1  0
  1 23  1  0
  1 24  1  0
  3 25  1  0
  3 26  1  0
  3 27  1  0
  8 28  1  0
  9 29  1  0
 13 30  1  0
 17 31  1  0
 18 32  1  0
 19 33  1  0
 20 34  1  0
 21 35  1  0
M  CHG  1   8   1
M  END
>  <UniqueID>  (46) 
45

>  <SMILES>  (46) 
CN(C)C(=O)Oc1[nH+]cnc2c1cnn2-c1ccccc1

>  <Energy>  (46) 
85.39348873311039

>  <Genealogy>  (46) 
CN(C)C(=O)Oc1[nH+]cnc2c1cnn2-c1ccccc1 (protonated)
CN(C)C(=O)Oc1[nH+]cnc2c1cnn2-c1ccccc1 (3D coordinates assigned)
CN(C)C(=O)Oc1[nH+]cnc2c1cnn2-c1ccccc1 (optimized conformer: 85.39348873311039 kcal/mol)

>  <smiles>  (46) 
CN(C)C(=O)Oc1ncnc2c1cnn2-c1ccccc1

>  <score_type>  (46) 
oracle

>  <origin>  (46) 
adg

>  <m_score__min__energy>  (46) 
-5.5899999999999999

>  <m_primary>  (46) 
energy

$$$$
46:0
     RDKit          3D

 35 36  0  0  0  0  0  0  0  0999 V2000
   54.3615   23.6658   46.1688 H   0  0  0  0  0  0  0  0  0  0  0  0
   54.9160   24.5980   45.9860 C   0  0  0  0  0  0  0  0  0  0  0  0
   54.3660   25.8260   45.8910 N   0  0  0  0  0  0  0  0  0  0  0  0
   55.3370   26.7000   45.6700 N   0  0  0  0  0  0  0  0  0  0  0  0
   55.1580   27.7200   45.5610 H   0  0  0  0  0  0  0  0  0  0  0  0
   56.5120   26.0400   45.6190 C   0  0  0  0  0  0  0  0  0  0  0  0
   57.6880   26.5680   45.4210 N   0  0  0  0  0  0  0  0  0  0  0  0
   58.4310   27.4640   46.2630 C   0  0  0  0  0  0  0  0  0  0  0  0
   59.6150   27.2150   46.6090 O   0  0  0  0  0  0  0  0  0  0  0  0
   57.7960   28.7460   46.7020 C   0  0  0  0  0  0  0  0  0  0  0  0
   57.3210   28.5982   47.6831 H   0  0  0  0  0  0  0  0  0  0  0  0
   58.5711   29.5234   46.7715 H   0  0  0  0  0  0  0  0  0  0  0  0
   56.8080   29.1590   45.7580 O   0  0  0  0  0  0  0  0  0  0  0  0
   57.0230   30.0480   44.6900 C   0  0  0  0  0  0  0  0  0  0  0  0
   56.4760   29.7240   43.4400 C   0  0  0  0  0  0  0  0  0  0  0  0
   55.9062   28.7910   43.3184 H   0  0  0  0  0  0  0  0  0  0  0  0
   56.6500   30.5790   42.3470 C   0  0  0  0  0  0  0  0  0  0  0  0
   56.2135   30.3183   41.3715 H   0  0  0  0  0  0  0  0  0  0  0  0
   57.3760   31.7620   42.4910 C   0  0  0  0  0  0  0  0  0  0  0  0
   57.5084   32.4349   41.6310 H   0  0  0  0  0  0  0  0  0  0  0  0
   57.9350   32.0910   43.7300 C   0  0  0  0  0  0  0  0  0  0  0  0
   58.6460   33.2370   43.8680 F   0  0  0  0  0  0  0  0  0  0  0  0
   57.7660   31.2390   44.8250 C   0  0  0  0  0  0  0  0  0  0  0  0
   58.2141   31.4984   45.7955 H   0  0  0  0  0  0  0  0  0  0  0  0
   56.2840   24.6930   45.8180 C   0  0  0  0  0  0  0  0  0  0  0  0
   57.2570   23.5900   45.8600 C   0  0  0  0  0  0  0  0  0  0  0  0
   57.4870   22.9900   46.9450 O   0  0  0  0  0  0  0  0  0  0  0  0
   57.9160   23.2100   44.6850 O   0  0  0  0  0  0  0  0  0  0  0  0
   57.3780   22.2780   43.7480 C   0  0  0  0  0  0  0  0  0  0  0  0
   57.0058   21.3958   44.2894 H   0  0  0  0  0  0  0  0  0  0  0  0
   58.1712   21.9871   43.0436 H   0  0  0  0  0  0  0  0  0  0  0  0
   56.2310   22.9040   42.9630 C   0  0  0  0  0  0  0  0  0  0  0  0
   55.4863   23.3104   43.6632 H   0  0  0  0  0  0  0  0  0  0  0  0
   56.6198   23.7150   42.3297 H   0  0  0  0  0  0  0  0  0  0  0  0
   55.7592   22.1383   42.3297 H   0  0  0  0  0  0  0  0  0  0  0  0
  1  2  1  0
  2  3  1  0
  3  4  1  0
  4  5  1  0
  4  6  1  0
  6  7  2  0
  7  8  1  0
  8  9  2  0
  8 10  1  0
 10 11  1  0
 10 12  1  0
 10 13  1  0
 13 14  1  0
 14 15  2  0
 15 16  1  0
 15 17  1  0
 17 18  1  0
 17 19  2  0
 19 20  1  0
 19 21  1  0
 21 22  1  0
 21 23  2  0
 23 24  1  0
  6 25  1  0
 25 26  1  0
 26 27  2  0
 26 28  1  0
 28 29  1  0
 29 30  1  0
 29 31  1  0
 29 32  1  0
 32 33  1  0
 32 34  1  0
 32 35  1  0
 25  2  2  0
 23 14  1  0
M  CHG  1   3  -1
M  END
>  <UniqueID>  (47) 
46

>  <SMILES>  (47) 
CCOC(=O)c1c[n-][nH]/c1=N\C(=O)COc1cccc(F)c1

>  <Energy>  (47) 
65.34264834333115

>  <Genealogy>  (47) 
CCOC(=O)c1c[n-][nH]c1=NC(=O)COc1cccc(F)c1 (protonated)
CCOC(=O)c1c[n-][nH]/c1=N\C(=O)COc1cccc(F)c1 (cis-trans isomerization)
CCOC(=O)c1c[n-][nH]/c1=N\C(=O)COc1cccc(F)c1 (3D coordinates assigned)
CCOC(=O)c1c[n-][nH]/c1=N\C(=O)COc1cccc(F)c1 (optimized conformer: 65.34264834333115 kcal/mol)

>  <smiles>  (47) 
CCOC(=O)c1c[nH][nH]c1=NC(=O)COc1cccc(F)c1

>  <score_type>  (47) 
oracle

>  <origin>  (47) 
adg

>  <m_score__min__energy>  (47) 
-9.4700000000000006

>  <m_primary>  (47) 
energy

$$$$
47:0
     RDKit          3D

 48 51  0  0  0  0  0  0  0  0999 V2000
   59.2790   33.3970   49.2880 C   0  0  0  0  0  0  0  0  0  0  0  0
   59.9730   32.8140   48.0400 C   0  0  1  0  0  0  0  0  0  0  0  0
   60.3680   31.3300   48.3100 C   0  0  0  0  0  0  0  0  0  0  0  0
   60.6370   30.5610   47.0120 C   0  0  0  0  0  0  0  0  0  0  0  0
   59.3860   30.5070   46.0900 C   0  0  2  0  0  0  0  0  0  0  0  0
   58.3880   31.6690   46.3570 C   0  0  2  0  0  0  0  0  0  0  0  0
   57.4160   31.8250   45.1520 C   0  0  0  0  0  0  0  0  0  0  0  0
   56.9480   30.4610   44.5730 C   0  0  0  0  0  0  0  0  0  0  0  0
   57.1410   29.3380   45.6060 C   0  0  1  0  0  0  0  0  0  0  0  0
   56.5150   28.0780   45.2400 N   0  0  0  0  0  0  0  0  0  0  0  0
   56.6680   26.9740   46.1410 C   0  0  0  0  0  0  0  0  0  0  0  0
   55.9120   25.9720   46.0290 O   0  0  0  0  0  0  0  0  0  0  0  0
   57.7750   26.9580   47.1770 C   0  0  0  0  0  0  0  0  0  0  0  0
   58.5960   28.2770   47.2960 C   0  0  0  0  0  0  0  0  0  0  0  0
   58.6440   29.1060   45.9760 C   0  0  2  0  0  0  0  0  0  0  0  0
   59.3830   28.2730   44.8870 C   0  0  0  0  0  0  0  0  0  0  0  0
   59.0810   32.9920   46.7720 C   0  0  2  0  0  0  0  0  0  0  0  0
   59.9690   33.6250   45.6740 C   0  0  0  0  0  0  0  0  0  0  0  0
   61.1830   34.2330   46.3650 C   0  0  0  0  0  0  0  0  0  0  0  0
   61.1860   33.6300   47.7170 C   0  0  0  0  0  0  0  0  0  0  0  0
   62.1060   33.8000   48.5040 O   0  0  0  0  0  0  0  0  0  0  0  0
   59.7565   32.9958   50.1941 H   0  0  0  0  0  0  0  0  0  0  0  0
   59.3705   34.4932   49.2800 H   0  0  0  0  0  0  0  0  0  0  0  0
   58.2151   33.1178   49.2800 H   0  0  0  0  0  0  0  0  0  0  0  0
   59.5469   30.8370   48.8510 H   0  0  0  0  0  0  0  0  0  0  0  0
   61.2941   31.3281   48.9036 H   0  0  0  0  0  0  0  0  0  0  0  0
   60.9351   29.5328   47.2649 H   0  0  0  0  0  0  0  0  0  0  0  0
   61.4348   31.0872   46.4674 H   0  0  0  0  0  0  0  0  0  0  0  0
   59.8244   30.6502   45.0914 H   0  0  0  0  0  0  0  0  0  0  0  0
   57.7855   31.4011   47.2375 H   0  0  0  0  0  0  0  0  0  0  0  0
   57.9292   32.3863   44.3573 H   0  0  0  0  0  0  0  0  0  0  0  0
   56.5224   32.3541   45.5147 H   0  0  0  0  0  0  0  0  0  0  0  0
   57.5369   30.2293   43.6733 H   0  0  0  0  0  0  0  0  0  0  0  0
   55.8794   30.5310   44.3216 H   0  0  0  0  0  0  0  0  0  0  0  0
   56.6157   29.7081   46.4988 H   0  0  0  0  0  0  0  0  0  0  0  0
   55.8990   27.9990   44.4000 H   0  0  0  0  0  0  0  0  0  0  0  0
   58.4712   26.1468   46.9177 H   0  0  0  0  0  0  0  0  0  0  0  0
   57.2792   26.8200   48.1492 H   0  0  0  0  0  0  0  0  0  0  0  0
   59.6265   28.0201   47.5826 H   0  0  0  0  0  0  0  0  0  0  0  0
   58.0943   28.9013   48.0500 H   0  0  0  0  0  0  0  0  0  0  0  0
   60.0382   27.5345   45.3721 H   0  0  0  0  0  0  0  0  0  0  0  0
   58.6445   27.7521   44.2599 H   0  0  0  0  0  0  0  0  0  0  0  0
   59.9882   28.9442   44.2599 H   0  0  0  0  0  0  0  0  0  0  0  0
   58.2362   33.6677   46.9712 H   0  0  0  0  0  0  0  0  0  0  0  0
   59.4083   34.4074   45.1415 H   0  0  0  0  0  0  0  0  0  0  0  0
   60.2790   32.8668   44.9398 H   0  0  0  0  0  0  0  0  0  0  0  0
   61.0861   35.3269   46.4282 H   0  0  0  0  0  0  0  0  0  0  0  0
   62.1165   34.0342   45.8182 H   0  0  0  0  0  0  0  0  0  0  0  0
  2  1  1  1
  2  3  1  0
  3  4  1  0
  4  5  1  0
  5  6  1  0
  6  7  1  0
  7  8  1  0
  8  9  1  0
  9 10  1  0
 10 11  1  0
 11 12  2  0
 11 13  1  0
 13 14  1  0
 14 15  1  0
 15 16  1  6
  6 17  1  0
 17 18  1  0
 18 19  1  0
 19 20  1  0
 20 21  2  0
 17  2  1  0
 20  2  1  0
 15  5  1  0
 15  9  1  0
  1 22  1  0
  1 23  1  0
  1 24  1  0
  3 25  1  0
  3 26  1  0
  4 27  1  0
  4 28  1  0
  5 29  1  6
  6 30  1  1
  7 31  1  0
  7 32  1  0
  8 33  1  0
  8 34  1  0
  9 35  1  1
 10 36  1  0
 13 37  1  0
 13 38  1  0
 14 39  1  0
 14 40  1  0
 16 41  1  0
 16 42  1  0
 16 43  1  0
 17 44  1  1
 18 45  1  0
 18 46  1  0
 19 47  1  0
 19 48  1  0
M  END
>  <UniqueID>  (48) 
47

>  <SMILES>  (48) 
CC12CCC(=O)NC1CCC1C3CCC(=O)[C@]3(C)CC[C@H]12

>  <Energy>  (48) 
73.52094485242604

>  <Genealogy>  (48) 
CC12CCC(=O)NC1CCC1C3CCC(=O)[C@]3(C)CC[C@H]12 (chirality)
CC12CCC(=O)NC1CCC1C3CCC(=O)[C@]3(C)CC[C@H]12 (3D coordinates assigned)
CC12CCC(=O)NC1CCC1C3CCC(=O)[C@]3(C)CC[C@H]12 (nonaromatic ring conformer: 73.52094485242604 kcal/mol)

>  <smiles>  (48) 
CC12CCC3C(CCC4NC(=O)CCC43C)C1CCC2=O

>  <score_type>  (48) 
oracle

>  <origin>  (48) 
adg

>  <m_score__min__energy>  (48) 
-8.6400000000000006

>  <m_primary>  (48) 
energy

$$$$
48:0
     RDKit          3D

 65 69  0  0  0  0  0  0  0  0999 V2000
   63.3770   25.7920   54.7160 O   0  0  0  0  0  0  0  0  0  0  0  0
   62.6930   25.3280   53.7600 C   0  0  0  0  0  0  0  0  0  0  0  0
   62.3480   23.9330   53.7480 N   0  0  0  0  0  0  0  0  0  0  0  0
   62.6080   23.0600   54.8910 C   0  0  0  0  0  0  0  0  0  0  0  0
   62.1620   21.6060   54.6190 C   0  0  0  0  0  0  0  0  0  0  0  0
   61.7580   21.3040   53.2220 N   0  0  0  0  0  0  0  0  0  0  0  0
   62.1440   19.9670   52.7350 C   0  0  0  0  0  0  0  0  0  0  0  0
   61.9710   19.8840   51.2040 C   0  0  0  0  0  0  0  0  0  0  0  0
   61.0550   20.9170   50.6890 N   0  0  0  0  0  0  0  0  0  0  0  0
   59.8960   21.0680   51.5730 C   0  0  0  0  0  0  0  0  0  0  0  0
   60.3460   21.6330   52.9330 C   0  0  0  0  0  0  0  0  0  0  0  0
   62.2510   26.2400   52.6760 C   0  0  0  0  0  0  0  0  0  0  0  0
   62.3880   27.6490   52.8350 C   0  0  0  0  0  0  0  0  0  0  0  0
   61.9260   28.5370   51.8450 C   0  0  0  0  0  0  0  0  0  0  0  0
   62.0910   30.4280   52.0590 Br  0  0  0  0  0  0  0  0  0  0  0  0
   61.3290   27.9860   50.7160 C   0  0  0  0  0  0  0  0  0  0  0  0
   60.8040   28.5910   49.6870 O   0  0  0  0  0  0  0  0  0  0  0  0
   60.3470   27.6290   48.8960 C   0  0  0  0  0  0  0  0  0  0  0  0
   59.6560   27.8900   47.6170 C   0  0  0  0  0  0  0  0  0  0  0  0
   60.3840   28.2370   46.4660 C   0  0  0  0  0  0  0  0  0  0  0  0
   59.7270   28.4600   45.2520 C   0  0  0  0  0  0  0  0  0  0  0  0
   58.3290   28.3400   45.1710 C   0  0  0  0  0  0  0  0  0  0  0  0
   57.6110   28.5420   43.9450 N   0  0  0  0  0  0  0  0  0  0  0  0
   56.6700   29.9420   43.5450 S   0  0  0  0  0  0  0  0  0  0  0  0
   55.6780   30.2210   44.6390 O   0  0  0  0  0  0  0  0  0  0  0  0
   55.9230   29.6600   42.2710 O   0  0  0  0  0  0  0  0  0  0  0  0
   57.7470   31.3510   43.3080 C   0  0  0  0  0  0  0  0  0  0  0  0
   57.9150   32.1190   44.5900 C   0  0  0  0  0  0  0  0  0  0  0  0
   58.3450   31.4660   45.7570 C   0  0  0  0  0  0  0  0  0  0  0  0
   58.4710   32.1780   46.9560 C   0  0  0  0  0  0  0  0  0  0  0  0
   58.1600   33.5400   46.9980 C   0  0  0  0  0  0  0  0  0  0  0  0
   57.7210   34.1940   45.8420 C   0  0  0  0  0  0  0  0  0  0  0  0
   57.5940   33.4870   44.6420 C   0  0  0  0  0  0  0  0  0  0  0  0
   57.6030   28.0090   46.3210 C   0  0  0  0  0  0  0  0  0  0  0  0
   58.2600   27.7790   47.5340 C   0  0  0  0  0  0  0  0  0  0  0  0
   60.5680   26.3810   49.3910 N   0  0  0  0  0  0  0  0  0  0  0  0
   61.1960   26.6440   50.5490 C   0  0  0  0  0  0  0  0  0  0  0  0
   61.6430   25.7330   51.5000 C   0  0  0  0  0  0  0  0  0  0  0  0
   62.1260   23.4820   52.8340 H   0  0  0  0  0  0  0  0  0  0  0  0
   63.6869   23.0668   55.1054 H   0  0  0  0  0  0  0  0  0  0  0  0
   62.0309   23.4389   55.7474 H   0  0  0  0  0  0  0  0  0  0  0  0
   62.9995   20.9419   54.8791 H   0  0  0  0  0  0  0  0  0  0  0  0
   61.2610   21.4507   55.2306 H   0  0  0  0  0  0  0  0  0  0  0  0
   63.1966   19.7771   52.9920 H   0  0  0  0  0  0  0  0  0  0  0  0
   61.4983   19.2133   53.2094 H   0  0  0  0  0  0  0  0  0  0  0  0
   62.9546   20.0145   50.7291 H   0  0  0  0  0  0  0  0  0  0  0  0
   61.5381   18.9010   50.9666 H   0  0  0  0  0  0  0  0  0  0  0  0
   60.7110   20.6090   49.7500 H   0  0  0  0  0  0  0  0  0  0  0  0
   59.1731   21.7575   51.1125 H   0  0  0  0  0  0  0  0  0  0  0  0
   59.4260   20.0853   51.7260 H   0  0  0  0  0  0  0  0  0  0  0  0
   60.2303   22.7268   52.9204 H   0  0  0  0  0  0  0  0  0  0  0  0
   59.7211   21.1793   53.7163 H   0  0  0  0  0  0  0  0  0  0  0  0
   62.8613   28.0487   53.7439 H   0  0  0  0  0  0  0  0  0  0  0  0
   61.4784   28.3338   46.5205 H   0  0  0  0  0  0  0  0  0  0  0  0
   60.3065   28.7304   44.3570 H   0  0  0  0  0  0  0  0  0  0  0  0
   58.7318   30.9985   42.9676 H   0  0  0  0  0  0  0  0  0  0  0  0
   57.2963   32.0157   42.5563 H   0  0  0  0  0  0  0  0  0  0  0  0
   58.5834   30.3925   45.7288 H   0  0  0  0  0  0  0  0  0  0  0  0
   58.8152   31.6648   47.8660 H   0  0  0  0  0  0  0  0  0  0  0  0
   58.2605   34.0980   47.9406 H   0  0  0  0  0  0  0  0  0  0  0  0
   57.4754   35.2657   45.8768 H   0  0  0  0  0  0  0  0  0  0  0  0
   57.2420   34.0026   43.7363 H   0  0  0  0  0  0  0  0  0  0  0  0
   56.5071   27.9291   46.2703 H   0  0  0  0  0  0  0  0  0  0  0  0
   57.6788   27.5095   48.4282 H   0  0  0  0  0  0  0  0  0  0  0  0
   61.5281   24.6502   51.3442 H   0  0  0  0  0  0  0  0  0  0  0  0
  1  2  2  0
  2  3  1  0
  3  4  1  0
  4  5  1  0
  5  6  1  0
  6  7  1  0
  7  8  1  0
  8  9  1  0
  9 10  1  0
 10 11  1  0
  2 12  1  0
 12 13  2  0
 13 14  1  0
 14 15  1  0
 14 16  2  0
 16 17  1  0
 17 18  1  0
 18 19  1  0
 19 20  2  0
 20 21  1  0
 21 22  2  0
 22 23  1  0
 23 24  1  0
 24 25  2  0
 24 26  2  0
 24 27  1  0
 27 28  1  0
 28 29  2  0
 29 30  1  0
 30 31  2  0
 31 32  1  0
 32 33  2  0
 22 34  1  0
 34 35  2  0
 18 36  2  0
 36 37  1  0
 37 38  2  0
 11  6  1  0
 38 12  1  0
 37 16  1  0
 35 19  1  0
 33 28  1  0
  3 39  1  0
  4 40  1  0
  4 41  1  0
  5 42  1  0
  5 43  1  0
  7 44  1  0
  7 45  1  0
  8 46  1  0
  8 47  1  0
  9 48  1  0
 10 49  1  0
 10 50  1  0
 11 51  1  0
 11 52  1  0
 13 53  1  0
 20 54  1  0
 21 55  1  0
 27 56  1  0
 27 57  1  0
 29 58  1  0
 30 59  1  0
 31 60  1  0
 32 61  1  0
 33 62  1  0
 34 63  1  0
 35 64  1  0
 38 65  1  0
M  CHG  1  23  -1
M  END
>  <UniqueID>  (49) 
48

>  <SMILES>  (49) 
O=C(NCCN1CCNCC1)c1cc(Br)c2oc(-c3ccc([N-]S(=O)(=O)Cc4ccccc4)cc3)nc2c1

>  <Energy>  (49) 
118.00521987328287

>  <Genealogy>  (49) 
O=C(NCCN1CCNCC1)c1cc(Br)c2oc(-c3ccc([N-]S(=O)(=O)Cc4ccccc4)cc3)nc2c1 (protonated)
O=C(NCCN1CCNCC1)c1cc(Br)c2oc(-c3ccc([N-]S(=O)(=O)Cc4ccccc4)cc3)nc2c1 (3D coordinates assigned)
O=C(NCCN1CCNCC1)c1cc(Br)c2oc(-c3ccc([N-]S(=O)(=O)Cc4ccccc4)cc3)nc2c1 (nonaromatic ring conformer: 118.00521987328287 kcal/mol)

>  <smiles>  (49) 
O=C(NCCN1CCNCC1)c1cc(Br)c2oc(-c3ccc(NS(=O)(=O)Cc4ccccc4)cc3)nc2c1

>  <score_type>  (49) 
oracle

>  <origin>  (49) 
adg

>  <m_score__min__energy>  (49) 
-10.050000000000001

>  <m_primary>  (49) 
energy

$$$$
49:0
     RDKit          3D

 43 45  0  0  0  0  0  0  0  0999 V2000
   57.4790   29.6220   52.7950 C   0  0  0  0  0  0  0  0  0  0  0  0
   58.6840   29.6510   51.9570 N   0  0  0  0  0  0  0  0  0  0  0  0
   59.8480   28.8550   52.3620 C   0  0  0  0  0  0  0  0  0  0  0  0
   58.7230   30.4560   50.7490 C   0  0  0  0  0  0  0  0  0  0  0  0
   58.9310   29.8610   49.4890 C   0  0  0  0  0  0  0  0  0  0  0  0
   58.9680   30.6350   48.3270 C   0  0  0  0  0  0  0  0  0  0  0  0
   58.8030   32.0310   48.3870 C   0  0  0  0  0  0  0  0  0  0  0  0
   58.8360   32.8750   47.1630 C   0  0  0  0  0  0  0  0  0  0  0  0
   59.0370   34.2610   47.1630 C   0  0  0  0  0  0  0  0  0  0  0  0
   58.9880   34.8020   45.5690 S   0  0  0  0  0  0  0  0  0  0  0  0
   58.7170   33.2690   44.9520 C   0  0  0  0  0  0  0  0  0  0  0  0
   58.5780   33.0190   43.6840 N   0  0  0  0  0  0  0  0  0  0  0  0
   57.7180   32.0230   43.1030 C   0  0  0  0  0  0  0  0  0  0  0  0
   57.1400   32.2420   42.0030 O   0  0  0  0  0  0  0  0  0  0  0  0
   57.5100   30.7320   43.8000 C   0  0  0  0  0  0  0  0  0  0  0  0
   56.2130   30.3050   44.1420 C   0  0  0  0  0  0  0  0  0  0  0  0
   56.0160   29.0850   44.7960 C   0  0  0  0  0  0  0  0  0  0  0  0
   57.1090   28.2720   45.1160 C   0  0  0  0  0  0  0  0  0  0  0  0
   56.8610   26.7420   45.9510 S   0  0  0  0  0  0  0  0  0  0  0  0
   55.1720   26.3830   46.0100 N   0  0  0  0  0  0  0  0  0  0  0  0
   57.4050   26.8300   47.3500 O   0  0  0  0  0  0  0  0  0  0  0  0
   57.5820   25.6410   45.2240 O   0  0  0  0  0  0  0  0  0  0  0  0
   58.4030   28.6920   44.7880 C   0  0  0  0  0  0  0  0  0  0  0  0
   58.6040   29.9120   44.1330 C   0  0  0  0  0  0  0  0  0  0  0  0
   58.6580   32.3350   45.9260 N   0  0  0  0  0  0  0  0  0  0  0  0
   58.5890   32.6270   49.6410 C   0  0  0  0  0  0  0  0  0  0  0  0
   58.5510   31.8530   50.8040 C   0  0  0  0  0  0  0  0  0  0  0  0
   57.7699   29.6290   53.8558 H   0  0  0  0  0  0  0  0  0  0  0  0
   56.8605   30.5055   52.5785 H   0  0  0  0  0  0  0  0  0  0  0  0
   56.9037   28.7098   52.5785 H   0  0  0  0  0  0  0  0  0  0  0  0
   59.9026   28.8177   53.4600 H   0  0  0  0  0  0  0  0  0  0  0  0
   59.7501   27.8339   51.9648 H   0  0  0  0  0  0  0  0  0  0  0  0
   60.7640   29.3166   51.9648 H   0  0  0  0  0  0  0  0  0  0  0  0
   59.0662   28.7716   49.4194 H   0  0  0  0  0  0  0  0  0  0  0  0
   59.1279   30.1477   47.3539 H   0  0  0  0  0  0  0  0  0  0  0  0
   59.1991   34.8886   48.0517 H   0  0  0  0  0  0  0  0  0  0  0  0
   55.3474   30.9363   43.8927 H   0  0  0  0  0  0  0  0  0  0  0  0
   54.9978   28.7630   45.0600 H   0  0  0  0  0  0  0  0  0  0  0  0
   54.7350   27.0770   46.6560 H   0  0  0  0  0  0  0  0  0  0  0  0
   59.2658   28.0604   45.0462 H   0  0  0  0  0  0  0  0  0  0  0  0
   59.6246   30.2324   43.8765 H   0  0  0  0  0  0  0  0  0  0  0  0
   58.4497   33.7161   49.7083 H   0  0  0  0  0  0  0  0  0  0  0  0
   58.3845   32.3413   51.7755 H   0  0  0  0  0  0  0  0  0  0  0  0
  1  2  1  0
  2  3  1  0
  2  4  1  0
  4  5  2  0
  5  6  1  0
  6  7  2  0
  7  8  1  0
  8  9  2  0
  9 10  1  0
 10 11  1  0
 11 12  2  3
 12 13  1  0
 13 14  2  0
 13 15  1  0
 15 16  2  0
 16 17  1  0
 17 18  2  0
 18 19  1  0
 19 20  1  0
 19 21  2  0
 19 22  2  0
 18 23  1  0
 23 24  2  0
 11 25  1  0
  7 26  1  0
 26 27  2  0
 27  4  1  0
 25  8  1  0
 24 15  1  0
  1 28  1  0
  1 29  1  0
  1 30  1  0
  3 31  1  0
  3 32  1  0
  3 33  1  0
  5 34  1  0
  6 35  1  0
  9 36  1  0
 16 37  1  0
 17 38  1  0
 20 39  1  0
 23 40  1  0
 24 41  1  0
 26 42  1  0
 27 43  1  0
M  CHG  2  20  -1  25  -1
M  END
>  <UniqueID>  (50) 
49

>  <SMILES>  (50) 
CN(C)c1ccc(-c2csc(=NC(=O)c3ccc(S([NH-])(=O)=O)cc3)[n-]2)cc1

>  <Energy>  (50) 
81.63280603709342

>  <Genealogy>  (50) 
CN(C)c1ccc(-c2csc(=NC(=O)c3ccc(S([NH-])(=O)=O)cc3)[n-]2)cc1 (protonated)
CN(C)c1ccc(-c2csc(=NC(=O)c3ccc(S([NH-])(=O)=O)cc3)[n-]2)cc1 (3D coordinates assigned)
CN(C)c1ccc(-c2csc(=NC(=O)c3ccc(S([NH-])(=O)=O)cc3)[n-]2)cc1 (optimized conformer: 81.63280603709342 kcal/mol)

>  <smiles>  (50) 
CN(C)c1ccc(-c2csc(=NC(=O)c3ccc(S(N)(=O)=O)cc3)[nH]2)cc1

>  <score_type>  (50) 
oracle

>  <origin>  (50) 
adg

>  <m_score__min__energy>  (50) 
-12.77

>  <m_primary>  (50) 
energy

$$$$
50:0
     RDKit          3D

 33 34  0  0  0  0  0  0  0  0999 V2000
   54.9610   24.2730   47.3970 H   0  0  0  0  0  0  0  0  0  0  0  0
   55.9660   24.3860   47.3360 O   0  0  0  0  0  0  0  0  0  0  0  0
   56.5500   25.5280   46.7880 C   0  0  0  0  0  0  0  0  0  0  0  0
   57.9340   25.7030   46.8920 C   0  0  0  0  0  0  0  0  0  0  0  0
   58.5446   24.9444   47.4036 H   0  0  0  0  0  0  0  0  0  0  0  0
   58.5450   26.8370   46.3490 C   0  0  0  0  0  0  0  0  0  0  0  0
   59.6368   26.9546   46.4131 H   0  0  0  0  0  0  0  0  0  0  0  0
   57.7720   27.8250   45.7230 C   0  0  0  0  0  0  0  0  0  0  0  0
   58.4420   28.9860   45.1040 C   0  0  0  0  0  0  0  0  0  0  0  0
   59.5005   29.1529   45.3526 H   0  0  0  0  0  0  0  0  0  0  0  0
   57.8600   29.8530   44.2620 C   0  0  0  0  0  0  0  0  0  0  0  0
   58.3423   30.0123   43.2863 H   0  0  0  0  0  0  0  0  0  0  0  0
   56.6260   30.6090   44.5400 C   0  0  0  0  0  0  0  0  0  0  0  0
   55.5140   30.0330   44.3980 O   0  0  0  0  0  0  0  0  0  0  0  0
   56.6760   32.0010   44.8750 N   0  0  0  0  0  0  0  0  0  0  0  0
   57.6960   32.9180   44.3810 C   0  0  0  0  0  0  0  0  0  0  0  0
   58.4141   32.3620   43.7604 H   0  0  0  0  0  0  0  0  0  0  0  0
   57.2116   33.7042   43.7834 H   0  0  0  0  0  0  0  0  0  0  0  0
   58.4240   33.5560   45.5310 C   0  0  0  0  0  0  0  0  0  0  0  0
   58.3270   33.0170   46.8260 C   0  0  0  0  0  0  0  0  0  0  0  0
   57.6963   32.1341   47.0067 H   0  0  0  0  0  0  0  0  0  0  0  0
   59.0300   33.6000   47.8850 C   0  0  0  0  0  0  0  0  0  0  0  0
   58.9501   33.1757   48.8967 H   0  0  0  0  0  0  0  0  0  0  0  0
   59.8340   34.7210   47.6600 C   0  0  0  0  0  0  0  0  0  0  0  0
   60.3841   35.1797   48.4948 H   0  0  0  0  0  0  0  0  0  0  0  0
   59.9390   35.2590   46.3750 C   0  0  0  0  0  0  0  0  0  0  0  0
   60.5720   36.1413   46.1992 H   0  0  0  0  0  0  0  0  0  0  0  0
   59.2410   34.6780   45.3120 C   0  0  0  0  0  0  0  0  0  0  0  0
   59.3318   35.1008   44.3006 H   0  0  0  0  0  0  0  0  0  0  0  0
   56.3840   27.6410   45.6040 C   0  0  0  0  0  0  0  0  0  0  0  0
   55.7736   28.4004   45.0934 H   0  0  0  0  0  0  0  0  0  0  0  0
   55.7740   26.4980   46.1310 C   0  0  0  0  0  0  0  0  0  0  0  0
   54.4020   26.3250   45.9900 O   0  0  0  0  0  0  0  0  0  0  0  0
  1  2  1  0
  2  3  1  0
  3  4  2  0
  4  5  1  0
  4  6  1  0
  6  7  1  0
  6  8  2  0
  8  9  1  0
  9 10  1  0
  9 11  2  0
 11 12  1  0
 11 13  1  0
 13 14  2  0
 13 15  1  0
 15 16  1  0
 16 17  1  0
 16 18  1  0
 16 19  1  0
 19 20  2  0
 20 21  1  0
 20 22  1  0
 22 23  1  0
 22 24  2  0
 24 25  1  0
 24 26  1  0
 26 27  1  0
 26 28  2  0
 28 29  1  0
  8 30  1  0
 30 31  1  0
 30 32  2  0
 32 33  1  0
 32  3  1  0
 28 19  1  0
M  CHG  2  15  -1  33  -1
M  END
>  <UniqueID>  (51) 
50

>  <SMILES>  (51) 
O=C(/C=C\c1ccc(O)c([O-])c1)[N-]Cc1ccccc1

>  <Energy>  (51) 
37.01997348950426

>  <Genealogy>  (51) 
O=C(C=Cc1ccc(O)c([O-])c1)[N-]Cc1ccccc1 (protonated)
O=C(/C=C\c1ccc(O)c([O-])c1)[N-]Cc1ccccc1 (cis-trans isomerization)
O=C(/C=C\c1ccc(O)c([O-])c1)[N-]Cc1ccccc1 (3D coordinates assigned)
O=C(/C=C\c1ccc(O)c([O-])c1)[N-]Cc1ccccc1 (optimized conformer: 37.01997348950426 kcal/mol)

>  <smiles>  (51) 
O=C(C=Cc1ccc(O)c(O)c1)NCc1ccccc1

>  <score_type>  (51) 
oracle

>  <origin>  (51) 
adg

>  <m_score__min__energy>  (51) 
-12.57

>  <m_primary>  (51) 
energy

$$$$
51:0
     RDKit          3D

 43 44  0  0  0  0  0  0  0  0999 V2000
   60.1790   33.8830   48.1060 C   0  0  0  0  0  0  0  0  0  0  0  0
   59.3210   33.5810   46.9040 C   0  0  0  0  0  0  0  0  0  0  0  0
   59.0770   34.6090   45.9790 C   0  0  0  0  0  0  0  0  0  0  0  0
   58.2860   34.3810   44.8580 C   0  0  0  0  0  0  0  0  0  0  0  0
   57.7430   33.1200   44.6280 C   0  0  0  0  0  0  0  0  0  0  0  0
   57.9730   32.0660   45.5270 C   0  0  0  0  0  0  0  0  0  0  0  0
   57.4240   30.7340   45.1860 C   0  0  0  0  0  0  0  0  0  0  0  0
   56.2240   30.6390   44.8070 O   0  0  0  0  0  0  0  0  0  0  0  0
   58.2620   29.5690   45.2280 N   0  0  0  0  0  0  0  0  0  0  0  0
   57.7680   28.2170   44.9550 C   0  0  0  0  0  0  0  0  0  0  0  0
   57.3840   27.4800   46.2610 C   0  0  1  0  0  0  0  0  0  0  0  0
   56.4760   26.3270   45.9030 C   0  0  0  0  0  0  0  0  0  0  0  0
   56.8850   25.0810   45.4730 C   0  0  0  0  0  0  0  0  0  0  0  0
   55.7300   24.3520   45.2910 C   0  0  0  0  0  0  0  0  0  0  0  0
   54.6890   25.1950   45.6250 C   0  0  0  0  0  0  0  0  0  0  0  0
   55.1640   26.3640   45.9870 O   0  0  0  0  0  0  0  0  0  0  0  0
   58.5740   27.0060   47.0250 N   0  0  0  0  0  0  0  0  0  0  0  0
   58.9690   27.9950   48.0500 C   0  0  0  0  0  0  0  0  0  0  0  0
   59.7330   26.7750   46.1390 C   0  0  0  0  0  0  0  0  0  0  0  0
   58.7240   32.3060   46.7120 C   0  0  0  0  0  0  0  0  0  0  0  0
   58.8880   31.2260   47.7590 C   0  0  0  0  0  0  0  0  0  0  0  0
   59.6076   33.6819   49.0242 H   0  0  0  0  0  0  0  0  0  0  0  0
   61.0759   33.2465   48.0855 H   0  0  0  0  0  0  0  0  0  0  0  0
   60.4796   34.9409   48.0855 H   0  0  0  0  0  0  0  0  0  0  0  0
   59.5158   35.6043   46.1426 H   0  0  0  0  0  0  0  0  0  0  0  0
   58.0888   35.2000   44.1506 H   0  0  0  0  0  0  0  0  0  0  0  0
   57.1274   32.9474   43.7328 H   0  0  0  0  0  0  0  0  0  0  0  0
   59.2940   29.7090   45.3100 H   0  0  0  0  0  0  0  0  0  0  0  0
   56.8808   28.2842   44.3082 H   0  0  0  0  0  0  0  0  0  0  0  0
   58.5701   27.6492   44.4608 H   0  0  0  0  0  0  0  0  0  0  0  0
   56.8644   28.1866   46.9249 H   0  0  0  0  0  0  0  0  0  0  0  0
   57.9182   24.7406   45.3096 H   0  0  0  0  0  0  0  0  0  0  0  0
   55.6530   23.3094   44.9488 H   0  0  0  0  0  0  0  0  0  0  0  0
   53.6225   24.9275   45.5927 H   0  0  0  0  0  0  0  0  0  0  0  0
   58.8002   27.5725   49.0515 H   0  0  0  0  0  0  0  0  0  0  0  0
   60.0344   28.2412   47.9307 H   0  0  0  0  0  0  0  0  0  0  0  0
   58.3663   28.9074   47.9307 H   0  0  0  0  0  0  0  0  0  0  0  0
   60.6308   26.5961   46.7488 H   0  0  0  0  0  0  0  0  0  0  0  0
   59.5401   25.8976   45.5042 H   0  0  0  0  0  0  0  0  0  0  0  0
   59.8912   27.6593   45.5042 H   0  0  0  0  0  0  0  0  0  0  0  0
   58.8200   31.6738   48.7614 H   0  0  0  0  0  0  0  0  0  0  0  0
   58.0936   30.4747   47.6384 H   0  0  0  0  0  0  0  0  0  0  0  0
   59.8696   30.7444   47.6384 H   0  0  0  0  0  0  0  0  0  0  0  0
  1  2  1  0
  2  3  2  0
  3  4  1  0
  4  5  2  0
  5  6  1  0
  6  7  1  0
  7  8  2  0
  7  9  1  0
  9 10  1  0
 10 11  1  0
 11 12  1  0
 12 13  2  0
 13 14  1  0
 14 15  2  0
 15 16  1  0
 11 17  1  0
 17 18  1  0
 17 19  1  0
  6 20  2  0
 20 21  1  0
 20  2  1  0
 16 12  1  0
  1 22  1  0
  1 23  1  0
  1 24  1  0
  3 25  1  0
  4 26  1  0
  5 27  1  0
  9 28  1  0
 10 29  1  0
 10 30  1  0
 11 31  1  1
 13 32  1  0
 14 33  1  0
 15 34  1  0
 18 35  1  0
 18 36  1  0
 18 37  1  0
 19 38  1  0
 19 39  1  0
 19 40  1  0
 21 41  1  0
 21 42  1  0
 21 43  1  0
M  END
>  <UniqueID>  (52) 
51

>  <SMILES>  (52) 
Cc1cccc(C(=O)NC[C@@H](c2ccco2)N(C)C)c1C

>  <Energy>  (52) 
76.15979131155186

>  <Genealogy>  (52) 
Cc1cccc(C(=O)NC[C@@H](c2ccco2)N(C)C)c1C (chirality)
Cc1cccc(C(=O)NC[C@@H](c2ccco2)N(C)C)c1C (3D coordinates assigned)
Cc1cccc(C(=O)NC[C@@H](c2ccco2)N(C)C)c1C (optimized conformer: 76.15979131155186 kcal/mol)

>  <smiles>  (52) 
Cc1cccc(C(=O)NCC(c2ccco2)N(C)C)c1C

>  <score_type>  (52) 
oracle

>  <origin>  (52) 
adg

>  <m_score__min__energy>  (52) 
-7.6600000000000001

>  <m_primary>  (52) 
energy

$$$$
52:0
     RDKit          3D

 64 67  0  0  1  0  0  0  0  0999 V2000
   59.0600   30.3680   51.7710 C   0  0  0  0  0  0  0  0  0  0  0  0
   60.1050   30.1790   50.8400 O   0  0  0  0  0  0  0  0  0  0  0  0
   59.9040   29.4920   49.6520 C   0  0  0  0  0  0  0  0  0  0  0  0
   58.9100   29.7960   48.7510 C   0  0  0  0  0  0  0  0  0  0  0  0
   58.7340   29.0870   47.5640 C   0  0  0  0  0  0  0  0  0  0  0  0
   59.5780   28.0400   47.2650 C   0  0  0  0  0  0  0  0  0  0  0  0
   59.4830   27.2230   46.0410 C   0  0  0  0  0  0  0  0  0  0  0  0
   59.7070   28.1950   44.5200 S   0  0  0  0  0  0  0  0  0  0  0  0
   58.4470   29.4560   44.4560 C   0  0  0  0  0  0  0  0  0  0  0  0
   57.2420   29.0980   43.9470 N   0  0  0  0  0  0  0  0  0  0  0  0
   56.2380   29.9910   43.8650 C   0  0  0  0  0  0  0  0  0  0  0  0
   55.0720   29.7160   43.3920 N   0  0  0  0  0  0  0  0  0  0  0  0
   56.4790   31.2390   44.3030 N   0  0  0  0  0  0  0  0  0  0  0  0
   57.6960   31.5930   44.8140 C   0  0  0  0  0  0  0  0  0  0  0  0
   57.7940   32.8200   45.1990 N   0  0  0  0  0  0  0  0  0  0  0  0
   58.5810   33.0920   46.3520 C   0  0  0  0  0  0  0  0  0  0  0  0
   58.2200   32.7020   47.6260 C   0  0  0  0  0  0  0  0  0  0  0  0
   58.9910   32.9710   48.7430 C   0  0  0  0  0  0  0  0  0  0  0  0
   60.1750   33.6590   48.5890 C   0  0  0  0  0  0  0  0  0  0  0  0
   60.9740   33.9360   49.7730 C   0  0  0  0  0  0  0  0  0  0  0  0
   61.7210   34.9520   49.7450 O   0  0  0  0  0  0  0  0  0  0  0  0
   60.9690   33.1530   50.9410 N   0  0  0  0  0  0  0  0  0  0  0  0
   61.8240   33.5500   52.0560 C   0  0  0  0  0  0  0  0  0  0  0  0
   63.1810   32.9090   51.8140 C   0  0  0  0  0  0  0  0  0  0  0  0
   63.0300   31.6890   50.9340 C   0  0  0  0  0  0  0  0  0  0  0  0
   63.2170   32.0260   49.5000 C   0  0  0  0  0  0  0  0  0  0  0  0
   63.9910   33.0950   49.0900 C   0  0  0  0  0  0  0  0  0  0  0  0
   64.1520   33.3910   47.7560 C   0  0  0  0  0  0  0  0  0  0  0  0
   63.5390   32.6220   46.7840 C   0  0  0  0  0  0  0  0  0  0  0  0
   62.7550   31.5410   47.1650 C   0  0  0  0  0  0  0  0  0  0  0  0
   62.6160   31.2730   48.5290 C   0  0  0  0  0  0  0  0  0  0  0  0
   60.5460   34.0550   47.3240 C   0  0  0  0  0  0  0  0  0  0  0  0
   59.7800   33.7890   46.2010 C   0  0  0  0  0  0  0  0  0  0  0  0
   58.6990   30.7020   44.8970 N   0  0  0  0  0  0  0  0  0  0  0  0
   60.5700   27.7460   48.1780 C   0  0  0  0  0  0  0  0  0  0  0  0
   60.7510   28.4430   49.3530 C   0  0  0  0  0  0  0  0  0  0  0  0
   59.4615   30.2954   52.7926 H   0  0  0  0  0  0  0  0  0  0  0  0
   58.6122   31.3617   51.6228 H   0  0  0  0  0  0  0  0  0  0  0  0
   58.2925   29.5941   51.6228 H   0  0  0  0  0  0  0  0  0  0  0  0
   58.2286   30.6298   48.9757 H   0  0  0  0  0  0  0  0  0  0  0  0
   57.9260   29.3618   46.8700 H   0  0  0  0  0  0  0  0  0  0  0  0
   60.2597   26.4449   46.0775 H   0  0  0  0  0  0  0  0  0  0  0  0
   58.4715   26.7917   46.0104 H   0  0  0  0  0  0  0  0  0  0  0  0
   54.9090   29.0750   42.5950 H   0  0  0  0  0  0  0  0  0  0  0  0
   55.6980   31.9400   44.2400 H   0  0  0  0  0  0  0  0  0  0  0  0
   57.2765   32.1524   47.7593 H   0  0  0  0  0  0  0  0  0  0  0  0
   58.6635   32.6404   49.7397 H   0  0  0  0  0  0  0  0  0  0  0  0
   60.3520   32.3110   50.9690 H   0  0  0  0  0  0  0  0  0  0  0  0
   61.9220   34.6452   52.0876 H   0  0  0  0  0  0  0  0  0  0  0  0
   61.3982   33.2254   53.0169 H   0  0  0  0  0  0  0  0  0  0  0  0
   63.8431   33.6348   51.3192 H   0  0  0  0  0  0  0  0  0  0  0  0
   63.6129   32.6055   52.7790 H   0  0  0  0  0  0  0  0  0  0  0  0
   63.7824   30.9418   51.2267 H   0  0  0  0  0  0  0  0  0  0  0  0
   62.0125   31.2923   51.0655 H   0  0  0  0  0  0  0  0  0  0  0  0
   64.4882   33.7216   49.8451 H   0  0  0  0  0  0  0  0  0  0  0  0
   64.7747   34.2481   47.4598 H   0  0  0  0  0  0  0  0  0  0  0  0
   63.6711   32.8642   45.7192 H   0  0  0  0  0  0  0  0  0  0  0  0
   62.2565   30.9122   46.4126 H   0  0  0  0  0  0  0  0  0  0  0  0
   61.9955   30.4182   48.8359 H   0  0  0  0  0  0  0  0  0  0  0  0
   61.4901   34.6056   47.1997 H   0  0  0  0  0  0  0  0  0  0  0  0
   60.1117   34.1219   45.2064 H   0  0  0  0  0  0  0  0  0  0  0  0
   59.6140   30.9870   45.2870 H   0  0  0  0  0  0  0  0  0  0  0  0
   61.2519   26.9118   47.9564 H   0  0  0  0  0  0  0  0  0  0  0  0
   61.5606   28.1670   50.0446 H   0  0  0  0  0  0  0  0  0  0  0  0
  1  2  1  0
  2  3  1  0
  3  4  2  0
  4  5  1  0
  5  6  2  0
  6  7  1  0
  7  8  1  0
  8  9  1  0
  9 10  2  0
 10 11  1  0
 11 12  2  3
 11 13  1  0
 13 14  1  0
 14 15  2  0
 15 16  1  0
 16 17  2  0
 17 18  1  0
 18 19  2  0
 19 20  1  0
 20 21  2  0
 20 22  1  0
 22 23  1  0
 23 24  1  0
 24 25  1  0
 25 26  1  0
 26 27  2  0
 27 28  1  0
 28 29  2  0
 29 30  1  0
 30 31  2  0
 19 32  1  0
 32 33  2  0
 14 34  1  0
  6 35  1  0
 35 36  2  0
 36  3  1  0
 34  9  1  0
 33 16  1  0
 31 26  1  0
  1 37  1  0
  1 38  1  0
  1 39  1  0
  4 40  1  0
  5 41  1  0
  7 42  1  0
  7 43  1  0
 12 44  1  0
 13 45  1  0
 17 46  1  0
 18 47  1  0
 22 48  1  0
 23 49  1  0
 23 50  1  0
 24 51  1  0
 24 52  1  0
 25 53  1  0
 25 54  1  0
 27 55  1  0
 28 56  1  0
 29 57  1  0
 30 58  1  0
 31 59  1  0
 32 60  1  0
 33 61  1  0
 34 62  1  0
 35 63  1  0
 36 64  1  0
M  END
>  <smiles>  (53) 
COc1ccc(CSc2nc(=N)[nH]c(=Nc3ccc(C(=O)NCCCc4ccccc4)cc3)[nH]2)cc1

>  <score_type>  (53) 
oracle

>  <origin>  (53) 
adg

>  <m_score__min__energy>  (53) 
-9.6600000000000001

>  <m_primary>  (53) 
energy

$$$$
53:0
     RDKit          3D

 25 27  0  0  0  0  0  0  0  0999 V2000
   56.4580   28.9720   42.4150 N   0  0  0  0  0  0  0  0  0  0  0  0
   56.9920   29.8870   43.3740 C   0  0  0  0  0  0  0  0  0  0  0  0
   57.2280   29.4650   44.7040 C   0  0  0  0  0  0  0  0  0  0  0  0
   57.7550   30.3530   45.6590 C   0  0  0  0  0  0  0  0  0  0  0  0
   58.0190   31.6660   45.2610 C   0  0  0  0  0  0  0  0  0  0  0  0
   57.8200   32.0690   43.9540 C   0  0  0  0  0  0  0  0  0  0  0  0
   57.3000   31.2080   42.9910 C   0  0  0  0  0  0  0  0  0  0  0  0
   58.2030   33.3130   43.7720 O   0  0  0  0  0  0  0  0  0  0  0  0
   58.6510   33.7440   44.9320 C   0  0  0  0  0  0  0  0  0  0  0  0
   59.1880   35.0000   45.1960 C   0  0  0  0  0  0  0  0  0  0  0  0
   59.6410   35.2650   46.4960 C   0  0  0  0  0  0  0  0  0  0  0  0
   59.5290   34.2900   47.5090 C   0  0  0  0  0  0  0  0  0  0  0  0
   59.9470   34.5930   48.7640 F   0  0  0  0  0  0  0  0  0  0  0  0
   58.9560   33.0260   47.2360 C   0  0  0  0  0  0  0  0  0  0  0  0
   58.7530   32.0880   48.2970 N   0  0  0  0  0  0  0  0  0  0  0  0
   58.5460   32.7730   45.9130 C   0  0  0  0  0  0  0  0  0  0  0  0
   55.8750   29.3110   41.6180 H   0  0  0  0  0  0  0  0  0  0  0  0
   56.6410   27.9460   42.4960 H   0  0  0  0  0  0  0  0  0  0  0  0
   56.9964   28.4296   44.9945 H   0  0  0  0  0  0  0  0  0  0  0  0
   57.9536   30.0233   46.6895 H   0  0  0  0  0  0  0  0  0  0  0  0
   57.1340   31.5498   41.9587 H   0  0  0  0  0  0  0  0  0  0  0  0
   59.2552   35.7635   44.4070 H   0  0  0  0  0  0  0  0  0  0  0  0
   60.0881   36.2428   46.7282 H   0  0  0  0  0  0  0  0  0  0  0  0
   58.2150   32.3480   49.1490 H   0  0  0  0  0  0  0  0  0  0  0  0
   59.3150   31.2090   48.3400 H   0  0  0  0  0  0  0  0  0  0  0  0
  1  2  1  0
  2  3  2  0
  3  4  1  0
  4  5  2  0
  5  6  1  0
  6  7  2  0
  6  8  1  0
  8  9  1  0
  9 10  2  0
 10 11  1  0
 11 12  2  0
 12 13  1  0
 12 14  1  0
 14 15  1  0
 14 16  2  0
  7  2  1  0
 16  9  1  0
 16  5  1  0
  1 17  1  0
  1 18  1  0
  3 19  1  0
  4 20  1  0
  7 21  1  0
 10 22  1  0
 11 23  1  0
 15 24  1  0
 15 25  1  0
M  END
>  <UniqueID>  (54) 
52

>  <SMILES>  (54) 
Nc1ccc2c(c1)oc1ccc(F)c(N)c12

>  <Energy>  (54) 
72.11439514507107

>  <Genealogy>  (54) 
Nc1ccc2c(c1)oc1ccc(F)c(N)c12 (3D coordinates assigned)
Nc1ccc2c(c1)oc1ccc(F)c(N)c12 (optimized conformer: 72.11439514507107 kcal/mol)

>  <smiles>  (54) 
Nc1ccc2c(c1)oc1ccc(F)c(N)c12

>  <score_type>  (54) 
oracle

>  <origin>  (54) 
adg

>  <m_score__min__energy>  (54) 
-5.8399999999999999

>  <m_primary>  (54) 
energy

$$$$
54:0
     RDKit          3D

 39 41  0  0  0  0  0  0  0  0999 V2000
   59.2820   35.2500   45.1400 C   0  0  0  0  0  0  0  0  0  0  0  0
   57.8880   34.1460   45.2130 S   0  0  0  0  0  0  0  0  0  0  0  0
   56.6230   34.8730   44.8480 O   0  0  0  0  0  0  0  0  0  0  0  0
   57.7580   33.6240   46.6150 O   0  0  0  0  0  0  0  0  0  0  0  0
   58.1300   32.8050   44.1400 N   0  0  0  0  0  0  0  0  0  0  0  0
   57.8190   31.4350   44.4310 C   0  0  0  0  0  0  0  0  0  0  0  0
   56.8400   30.7860   43.6400 C   0  0  0  0  0  0  0  0  0  0  0  0
   56.4880   29.4460   43.8820 C   0  0  0  0  0  0  0  0  0  0  0  0
   57.1330   28.7810   44.9210 C   0  0  0  0  0  0  0  0  0  0  0  0
   56.9490   27.5110   45.3150 N   0  0  0  0  0  0  0  0  0  0  0  0
   57.7910   27.3260   46.3610 C   0  0  0  0  0  0  0  0  0  0  0  0
   57.9160   26.0460   47.0850 C   0  0  0  0  0  0  0  0  0  0  0  0
   58.8320   25.9100   47.9370 O   0  0  0  0  0  0  0  0  0  0  0  0
   56.9900   24.9680   46.8910 N   0  0  0  0  0  0  0  0  0  0  0  0
   56.8530   24.1700   45.7030 C   0  0  0  0  0  0  0  0  0  0  0  0
   57.9360   23.3900   45.2560 C   0  0  0  0  0  0  0  0  0  0  0  0
   57.8200   22.5990   44.1140 C   0  0  0  0  0  0  0  0  0  0  0  0
   56.6190   22.5620   43.4120 C   0  0  0  0  0  0  0  0  0  0  0  0
   56.5090   21.7910   42.3020 F   0  0  0  0  0  0  0  0  0  0  0  0
   55.5260   23.3090   43.8530 C   0  0  0  0  0  0  0  0  0  0  0  0
   55.6160   24.1170   45.0050 C   0  0  0  0  0  0  0  0  0  0  0  0
   54.4150   24.8920   45.4330 C   0  0  0  0  0  0  0  0  0  0  0  0
   54.5250   26.2210   45.9390 N   0  0  0  0  0  0  0  0  0  0  0  0
   53.2690   24.3720   45.3510 O   0  0  0  0  0  0  0  0  0  0  0  0
   58.5270   28.4830   46.6160 C   0  0  0  0  0  0  0  0  0  0  0  0
   58.0830   29.4000   45.6880 C   0  0  0  0  0  0  0  0  0  0  0  0
   58.4580   30.7240   45.4750 C   0  0  0  0  0  0  0  0  0  0  0  0
   59.6025   35.5039   46.1612 H   0  0  0  0  0  0  0  0  0  0  0  0
   60.1101   34.7602   44.6068 H   0  0  0  0  0  0  0  0  0  0  0  0
   58.9949   36.1683   44.6068 H   0  0  0  0  0  0  0  0  0  0  0  0
   56.3481   31.3374   42.8252 H   0  0  0  0  0  0  0  0  0  0  0  0
   55.7273   28.9396   43.2698 H   0  0  0  0  0  0  0  0  0  0  0  0
   56.2880   26.8150   44.9040 H   0  0  0  0  0  0  0  0  0  0  0  0
   58.8840   23.4047   45.8137 H   0  0  0  0  0  0  0  0  0  0  0  0
   58.6779   22.0040   43.7677 H   0  0  0  0  0  0  0  0  0  0  0  0
   54.5799   23.2669   43.2935 H   0  0  0  0  0  0  0  0  0  0  0  0
   53.7050   26.7020   46.3710 H   0  0  0  0  0  0  0  0  0  0  0  0
   59.2948   28.6313   47.3896 H   0  0  0  0  0  0  0  0  0  0  0  0
   59.2272   31.2027   46.0989 H   0  0  0  0  0  0  0  0  0  0  0  0
  1  2  1  0
  2  3  2  0
  2  4  2  0
  2  5  1  0
  5  6  1  0
  6  7  2  0
  7  8  1  0
  8  9  2  0
  9 10  1  0
 10 11  1  0
 11 12  1  0
 12 13  2  0
 12 14  1  0
 14 15  1  0
 15 16  2  0
 16 17  1  0
 17 18  2  0
 18 19  1  0
 18 20  1  0
 20 21  2  0
 21 22  1  0
 22 23  1  0
 22 24  2  0
 11 25  2  0
 25 26  1  0
 26 27  2  0
 27  6  1  0
 26  9  1  0
 21 15  1  0
  1 28  1  0
  1 29  1  0
  1 30  1  0
  7 31  1  0
  8 32  1  0
 10 33  1  0
 16 34  1  0
 17 35  1  0
 20 36  1  0
 23 37  1  0
 25 38  1  0
 27 39  1  0
M  CHG  3   5  -1  14  -1  23  -1
M  END
>  <UniqueID>  (55) 
53

>  <SMILES>  (55) 
CS(=O)(=O)[N-]c1ccc2[nH]c(C(=O)[N-]c3ccc(F)cc3C([NH-])=O)cc2c1

>  <Energy>  (55) 
81.11197547070087

>  <Genealogy>  (55) 
CS(=O)(=O)[N-]c1ccc2[nH]c(C(=O)[N-]c3ccc(F)cc3C([NH-])=O)cc2c1 (protonated)
CS(=O)(=O)[N-]c1ccc2[nH]c(C(=O)[N-]c3ccc(F)cc3C([NH-])=O)cc2c1 (3D coordinates assigned)
CS(=O)(=O)[N-]c1ccc2[nH]c(C(=O)[N-]c3ccc(F)cc3C([NH-])=O)cc2c1 (optimized conformer: 81.11197547070087 kcal/mol)

>  <smiles>  (55) 
CS(=O)(=O)Nc1ccc2[nH]c(C(=O)Nc3ccc(F)cc3C(N)=O)cc2c1

>  <score_type>  (55) 
oracle

>  <origin>  (55) 
adg

>  <m_score__min__energy>  (55) 
-14.289999999999999

>  <m_primary>  (55) 
energy

$$$$
55:0
     RDKit          3D

 41 43  0  0  0  0  0  0  0  0999 V2000
   55.3950   25.2890   45.7410 C   0  0  0  0  0  0  0  0  0  0  0  0
   55.7360   26.6460   46.0050 O   0  0  0  0  0  0  0  0  0  0  0  0
   57.0480   27.1020   46.1910 C   0  0  0  0  0  0  0  0  0  0  0  0
   57.7690   26.5770   47.2700 C   0  0  0  0  0  0  0  0  0  0  0  0
   59.1200   26.8890   47.4420 C   0  0  0  0  0  0  0  0  0  0  0  0
   59.7590   27.7370   46.5380 C   0  0  0  0  0  0  0  0  0  0  0  0
   59.0420   28.2990   45.4800 C   0  0  0  0  0  0  0  0  0  0  0  0
   57.6770   28.0290   45.3220 C   0  0  0  0  0  0  0  0  0  0  0  0
   56.9640   28.7250   44.2910 N   0  0  0  0  0  0  0  0  0  0  0  0
   56.3770   30.0270   44.4290 C   0  0  0  0  0  0  0  0  0  0  0  0
   55.1250   30.1380   44.3750 O   0  0  0  0  0  0  0  0  0  0  0  0
   57.1930   31.2330   44.6630 C   0  0  0  0  0  0  0  0  0  0  0  0
   57.4660   31.5940   45.9440 N   0  0  0  0  0  0  0  0  0  0  0  0
   58.2180   32.6890   46.2230 C   0  0  0  0  0  0  0  0  0  0  0  0
   58.5690   33.1250   47.9220 S   0  0  0  0  0  0  0  0  0  0  0  0
   59.8640   31.8570   48.1500 C   0  0  0  0  0  0  0  0  0  0  0  0
   61.2400   32.4130   47.8750 C   0  0  0  0  0  0  0  0  0  0  0  0
   61.4240   33.2880   46.7910 C   0  0  0  0  0  0  0  0  0  0  0  0
   62.6860   33.8150   46.5080 C   0  0  0  0  0  0  0  0  0  0  0  0
   63.7810   33.4730   47.3040 C   0  0  0  0  0  0  0  0  0  0  0  0
   63.6120   32.6070   48.3890 C   0  0  0  0  0  0  0  0  0  0  0  0
   62.3500   32.0750   48.6820 C   0  0  0  0  0  0  0  0  0  0  0  0
   62.2020   30.9820   50.0550 Cl  0  0  0  0  0  0  0  0  0  0  0  0
   58.7040   33.4560   45.2160 N   0  0  0  0  0  0  0  0  0  0  0  0
   58.4450   33.1470   43.9190 C   0  0  0  0  0  0  0  0  0  0  0  0
   57.6700   32.0300   43.6070 C   0  0  0  0  0  0  0  0  0  0  0  0
   57.2470   31.7270   41.9270 Cl  0  0  0  0  0  0  0  0  0  0  0  0
   55.2603   24.7531   46.6921 H   0  0  0  0  0  0  0  0  0  0  0  0
   54.4596   25.2517   45.1635 H   0  0  0  0  0  0  0  0  0  0  0  0
   56.2017   24.8139   45.1635 H   0  0  0  0  0  0  0  0  0  0  0  0
   57.2673   25.9127   47.9890 H   0  0  0  0  0  0  0  0  0  0  0  0
   59.6791   26.4661   48.2897 H   0  0  0  0  0  0  0  0  0  0  0  0
   60.8287   27.9633   46.6586 H   0  0  0  0  0  0  0  0  0  0  0  0
   59.5536   28.9595   44.7645 H   0  0  0  0  0  0  0  0  0  0  0  0
   59.8272   31.4915   49.1869 H   0  0  0  0  0  0  0  0  0  0  0  0
   59.6745   31.0397   47.4386 H   0  0  0  0  0  0  0  0  0  0  0  0
   60.5658   33.5605   46.1592 H   0  0  0  0  0  0  0  0  0  0  0  0
   62.8174   34.5000   45.6574 H   0  0  0  0  0  0  0  0  0  0  0  0
   64.7758   33.8844   47.0778 H   0  0  0  0  0  0  0  0  0  0  0  0
   64.4758   32.3420   49.0163 H   0  0  0  0  0  0  0  0  0  0  0  0
   58.8471   33.7787   43.1132 H   0  0  0  0  0  0  0  0  0  0  0  0
  1  2  1  0
  2  3  1  0
  3  4  2  0
  4  5  1  0
  5  6  2  0
  6  7  1  0
  7  8  2  0
  8  9  1  0
  9 10  1  0
 10 11  2  0
 10 12  1  0
 12 13  2  0
 13 14  1  0
 14 15  1  0
 15 16  1  0
 16 17  1  0
 17 18  2  0
 18 19  1  0
 19 20  2  0
 20 21  1  0
 21 22  2  0
 22 23  1  0
 14 24  2  0
 24 25  1  0
 25 26  2  0
 26 27  1  0
  8  3  1  0
 26 12  1  0
 22 17  1  0
  1 28  1  0
  1 29  1  0
  1 30  1  0
  4 31  1  0
  5 32  1  0
  6 33  1  0
  7 34  1  0
 16 35  1  0
 16 36  1  0
 18 37  1  0
 19 38  1  0
 20 39  1  0
 21 40  1  0
 25 41  1  0
M  CHG  1   9  -1
M  END
>  <UniqueID>  (56) 
54

>  <SMILES>  (56) 
COc1ccccc1[N-]C(=O)c1nc(SCc2ccccc2Cl)ncc1Cl

>  <Energy>  (56) 
56.3378674921551

>  <Genealogy>  (56) 
COc1ccccc1[N-]C(=O)c1nc(SCc2ccccc2Cl)ncc1Cl (protonated)
COc1ccccc1[N-]C(=O)c1nc(SCc2ccccc2Cl)ncc1Cl (3D coordinates assigned)
COc1ccccc1[N-]C(=O)c1nc(SCc2ccccc2Cl)ncc1Cl (optimized conformer: 56.3378674921551 kcal/mol)

>  <smiles>  (56) 
COc1ccccc1NC(=O)c1nc(SCc2ccccc2Cl)ncc1Cl

>  <score_type>  (56) 
oracle

>  <origin>  (56) 
adg

>  <m_score__min__energy>  (56) 
-12.23

>  <m_primary>  (56) 
energy

$$$$
56:0
     RDKit          3D

 26 28  0  0  0  0  0  0  0  0999 V2000
   56.6650   28.4690   45.2540 C   0  0  0  0  0  0  0  0  0  0  0  0
   56.0360   29.6530   44.7740 O   0  0  0  0  0  0  0  0  0  0  0  0
   56.6850   30.6390   44.0180 C   0  0  0  0  0  0  0  0  0  0  0  0
   56.7140   30.6330   42.6010 C   0  0  0  0  0  0  0  0  0  0  0  0
   57.3840   31.6520   41.8890 C   0  0  0  0  0  0  0  0  0  0  0  0
   58.0360   32.6940   42.5730 C   0  0  0  0  0  0  0  0  0  0  0  0
   57.9940   32.6780   43.9650 C   0  0  0  0  0  0  0  0  0  0  0  0
   57.3410   31.6860   44.6690 C   0  0  0  0  0  0  0  0  0  0  0  0
   57.4380   31.8850   46.0040 N   0  0  0  0  0  0  0  0  0  0  0  0
   58.1610   33.0180   46.1330 C   0  0  0  0  0  0  0  0  0  0  0  0
   58.5350   33.6460   47.3200 C   0  0  0  0  0  0  0  0  0  0  0  0
   59.2940   34.8280   47.2290 C   0  0  0  0  0  0  0  0  0  0  0  0
   59.6600   35.3520   45.9680 C   0  0  0  0  0  0  0  0  0  0  0  0
   59.2710   34.7020   44.7840 C   0  0  0  0  0  0  0  0  0  0  0  0
   58.5200   33.5340   44.9040 C   0  0  0  0  0  0  0  0  0  0  0  0
   56.6630   28.4729   46.3540 H   0  0  0  0  0  0  0  0  0  0  0  0
   56.1158   27.5884   44.8894 H   0  0  0  0  0  0  0  0  0  0  0  0
   57.7021   28.4312   44.8894 H   0  0  0  0  0  0  0  0  0  0  0  0
   56.2092   29.8259   42.0499 H   0  0  0  0  0  0  0  0  0  0  0  0
   57.3961   31.6307   40.7893 H   0  0  0  0  0  0  0  0  0  0  0  0
   58.5602   33.4928   42.0280 H   0  0  0  0  0  0  0  0  0  0  0  0
   57.0410   31.2940   46.7670 H   0  0  0  0  0  0  0  0  0  0  0  0
   58.2461   33.2310   48.2969 H   0  0  0  0  0  0  0  0  0  0  0  0
   59.6050   35.3484   48.1469 H   0  0  0  0  0  0  0  0  0  0  0  0
   60.2542   36.2761   45.9130 H   0  0  0  0  0  0  0  0  0  0  0  0
   59.5495   35.1011   43.7975 H   0  0  0  0  0  0  0  0  0  0  0  0
  1  2  1  0
  2  3  1  0
  3  4  2  0
  4  5  1  0
  5  6  2  0
  6  7  1  0
  7  8  2  0
  8  9  1  0
  9 10  1  0
 10 11  2  0
 11 12  1  0
 12 13  2  0
 13 14  1  0
 14 15  2  0
  8  3  1  0
 15 10  1  0
 15  7  1  0
  1 16  1  0
  1 17  1  0
  1 18  1  0
  4 19  1  0
  5 20  1  0
  6 21  1  0
  9 22  1  0
 11 23  1  0
 12 24  1  0
 13 25  1  0
 14 26  1  0
M  END
>  <UniqueID>  (57) 
55

>  <SMILES>  (57) 
COc1cccc2c1[nH]c1ccccc12

>  <Energy>  (57) 
68.10265540075821

>  <Genealogy>  (57) 
COc1cccc2c1[nH]c1ccccc12 (3D coordinates assigned)
COc1cccc2c1[nH]c1ccccc12 (optimized conformer: 68.10265540075821 kcal/mol)

>  <smiles>  (57) 
COc1cccc2c1[nH]c1ccccc12

>  <score_type>  (57) 
oracle

>  <origin>  (57) 
adg

>  <m_score__min__energy>  (57) 
-6.7300000000000004

>  <m_primary>  (57) 
energy

$$$$
57:0
     RDKit          3D

 45 48  0  0  0  0  0  0  0  0999 V2000
   60.9560   28.6200   46.0660 H   0  0  0  0  0  0  0  0  0  0  0  0
   60.1510   28.0110   46.1520 O   0  0  0  0  0  0  0  0  0  0  0  0
   58.8690   28.4220   45.8330 N   0  0  0  0  0  0  0  0  0  0  0  0
   58.6200   29.7160   45.4670 C   0  0  0  0  0  0  0  0  0  0  0  0
   59.5950   30.5780   45.4120 N   0  0  0  0  0  0  0  0  0  0  0  0
   60.0200   31.4700   46.4940 C   0  0  0  0  0  0  0  0  0  0  0  0
   59.6506   31.0731   47.4511 H   0  0  0  0  0  0  0  0  0  0  0  0
   61.1189   31.5198   46.4905 H   0  0  0  0  0  0  0  0  0  0  0  0
   59.4690   32.8950   46.2960 C   0  0  2  0  0  0  0  0  0  0  0  0
   60.3246   33.5798   46.3908 H   0  0  0  0  0  0  0  0  0  0  0  0
   58.4940   33.1690   47.2820 O   0  0  0  0  0  0  0  0  0  0  0  0
   57.2970   33.5160   46.6250 C   0  0  0  0  0  0  0  0  0  0  0  0
   57.1382   34.6019   46.7004 H   0  0  0  0  0  0  0  0  0  0  0  0
   56.4531   32.9901   47.0954 H   0  0  0  0  0  0  0  0  0  0  0  0
   57.3920   33.1190   45.1670 C   0  0  0  0  0  0  0  0  0  0  0  0
   56.8780   33.8488   44.5241 H   0  0  0  0  0  0  0  0  0  0  0  0
   56.9170   32.1510   44.9492 H   0  0  0  0  0  0  0  0  0  0  0  0
   58.8670   33.1230   44.9130 C   0  0  0  0  0  0  0  0  0  0  0  0
   59.1915   34.0885   44.4976 H   0  0  0  0  0  0  0  0  0  0  0  0
   59.1770   32.3627   44.1809 H   0  0  0  0  0  0  0  0  0  0  0  0
   57.3530   30.0950   45.1590 N   0  0  0  0  0  0  0  0  0  0  0  0
   56.3280   29.2150   45.2180 C   0  0  0  0  0  0  0  0  0  0  0  0
   55.1640   29.6020   44.9310 O   0  0  0  0  0  0  0  0  0  0  0  0
   56.5590   27.9250   45.5860 N   0  0  0  0  0  0  0  0  0  0  0  0
   55.5390   27.0620   45.6400 N   0  0  0  0  0  0  0  0  0  0  0  0
   55.7070   25.7630   45.9990 C   0  0  0  0  0  0  0  0  0  0  0  0
   54.7110   24.9940   46.0130 O   0  0  0  0  0  0  0  0  0  0  0  0
   56.9860   25.2960   46.3300 C   0  0  0  0  0  0  0  0  0  0  0  0
   57.2140   23.9320   46.7270 N   0  0  0  0  0  0  0  0  0  0  0  0
   57.9840   23.0190   45.8780 C   0  0  0  0  0  0  0  0  0  0  0  0
   57.8962   23.3332   44.8275 H   0  0  0  0  0  0  0  0  0  0  0  0
   59.0415   23.0412   46.1798 H   0  0  0  0  0  0  0  0  0  0  0  0
   57.4380   21.5960   46.0330 C   0  0  0  0  0  0  0  0  0  0  0  0
   56.4258   21.5495   45.6048 H   0  0  0  0  0  0  0  0  0  0  0  0
   58.1089   20.9016   45.5061 H   0  0  0  0  0  0  0  0  0  0  0  0
   57.3820   21.2250   47.3980 O   0  0  0  0  0  0  0  0  0  0  0  0
   56.4490   22.0420   48.0800 C   0  0  0  0  0  0  0  0  0  0  0  0
   55.4749   21.9771   47.5731 H   0  0  0  0  0  0  0  0  0  0  0  0
   56.3652   21.6893   49.1185 H   0  0  0  0  0  0  0  0  0  0  0  0
   56.9110   23.5020   48.0940 C   0  0  0  0  0  0  0  0  0  0  0  0
   56.1129   24.1351   48.5090 H   0  0  0  0  0  0  0  0  0  0  0  0
   57.8136   23.5947   48.7158 H   0  0  0  0  0  0  0  0  0  0  0  0
   58.0570   26.1920   46.2710 C   0  0  0  0  0  0  0  0  0  0  0  0
   59.0729   25.8521   46.5207 H   0  0  0  0  0  0  0  0  0  0  0  0
   57.8360   27.5260   45.8930 C   0  0  0  0  0  0  0  0  0  0  0  0
  1  2  1  0
  2  3  1  0
  3  4  1  0
  4  5  2  0
  5  6  1  0
  6  7  1  0
  6  8  1  0
  6  9  1  0
  9 10  1  1
  9 11  1  0
 11 12  1  0
 12 13  1  0
 12 14  1  0
 12 15  1  0
 15 16  1  0
 15 17  1  0
 15 18  1  0
 18 19  1  0
 18 20  1  0
  4 21  1  0
 21 22  1  0
 22 23  2  0
 22 24  1  0
 24 25  1  0
 25 26  1  0
 26 27  2  0
 26 28  1  0
 28 29  1  0
 29 30  1  0
 30 31  1  0
 30 32  1  0
 30 33  1  0
 33 34  1  0
 33 35  1  0
 33 36  1  0
 36 37  1  0
 37 38  1  0
 37 39  1  0
 37 40  1  0
 40 41  1  0
 40 42  1  0
 28 43  2  0
 43 44  1  0
 43 45  1  0
 45  3  2  0
 18  9  1  0
 45 24  1  0
 40 29  1  0
M  CHG  3   3   1  21  -1  25  -1
M  END
>  <UniqueID>  (58) 
56

>  <SMILES>  (58) 
O=c1[n-]n2c(=O)[n-]/c(=N\C[C@H]3CCCO3)[n+](O)c2cc1N1CCOCC1

>  <Energy>  (58) 
59.53263941831221

>  <Genealogy>  (58) 
O=c1[n-]n2c(=O)[n-]c(=NCC3CCCO3)[n+](O)c2cc1N1CCOCC1 (protonated)
O=c1[n-]n2c(=O)[n-]c(=NC[C@H]3CCCO3)[n+](O)c2cc1N1CCOCC1 (chirality)
O=c1[n-]n2c(=O)[n-]/c(=N\C[C@H]3CCCO3)[n+](O)c2cc1N1CCOCC1 (cis-trans isomerization)
O=c1[n-]n2c(=O)[n-]/c(=N\C[C@H]3CCCO3)[n+](O)c2cc1N1CCOCC1 (3D coordinates assigned)
O=c1[n-]n2c(=O)[n-]/c(=N\C[C@H]3CCCO3)[n+](O)c2cc1N1CCOCC1 (nonaromatic ring conformer: 59.53263941831221 kcal/mol)

>  <smiles>  (58) 
O=c1[nH]n2c(=O)[nH]c(=NCC3CCCO3)[n+]([O-])c2cc1N1CCOCC1

>  <score_type>  (58) 
oracle

>  <origin>  (58) 
adg

>  <m_score__min__energy>  (58) 
-9.8800000000000008

>  <m_primary>  (58) 
energy

$$$$
58:0
     RDKit          3D

 23 24  0  0  0  0  0  0  0  0999 V2000
   55.4810   28.6860   42.1890 H   0  0  0  0  0  0  0  0  0  0  0  0
   56.2980   29.3360   42.2460 N   0  0  0  0  0  0  0  0  0  0  0  0
   56.7160   29.8300   43.3690 C   0  0  0  0  0  0  0  0  0  0  0  0
   57.0610   28.9920   44.4400 C   0  0  0  0  0  0  0  0  0  0  0  0
   56.9806   27.8996   44.3388 H   0  0  0  0  0  0  0  0  0  0  0  0
   57.5080   29.5590   45.6370 C   0  0  0  0  0  0  0  0  0  0  0  0
   57.7832   28.9116   46.4827 H   0  0  0  0  0  0  0  0  0  0  0  0
   57.6030   30.9110   45.7570 N   0  0  0  0  0  0  0  0  0  0  0  0
   57.2730   31.7440   44.7340 C   0  0  0  0  0  0  0  0  0  0  0  0
   57.4100   33.5150   44.9550 S   0  0  0  0  0  0  0  0  0  0  0  0
   58.6070   33.3470   46.2790 C   0  0  0  0  0  0  0  0  0  0  0  0
   58.1850   32.9680   47.5600 C   0  0  0  0  0  0  0  0  0  0  0  0
   57.1188   32.7796   47.7544 H   0  0  0  0  0  0  0  0  0  0  0  0
   59.1200   32.8290   48.5930 C   0  0  0  0  0  0  0  0  0  0  0  0
   58.5910   32.3470   50.1940 Cl  0  0  0  0  0  0  0  0  0  0  0  0
   60.4750   33.0740   48.3460 C   0  0  0  0  0  0  0  0  0  0  0  0
   61.2096   32.9662   49.1577 H   0  0  0  0  0  0  0  0  0  0  0  0
   60.8970   33.4560   47.0680 C   0  0  0  0  0  0  0  0  0  0  0  0
   62.5970   33.7610   46.7590 Cl  0  0  0  0  0  0  0  0  0  0  0  0
   59.9630   33.5940   46.0350 C   0  0  0  0  0  0  0  0  0  0  0  0
   60.2946   33.8967   45.0308 H   0  0  0  0  0  0  0  0  0  0  0  0
   56.8240   31.2170   43.5190 C   0  0  0  0  0  0  0  0  0  0  0  0
   56.5580   31.8871   42.6882 H   0  0  0  0  0  0  0  0  0  0  0  0
  1  2  1  0
  2  3  2  0
  3  4  1  0
  4  5  1  0
  4  6  2  0
  6  7  1  0
  6  8  1  0
  8  9  1  0
  9 10  1  0
 10 11  1  0
 11 12  2  0
 12 13  1  0
 12 14  1  0
 14 15  1  0
 14 16  2  0
 16 17  1  0
 16 18  1  0
 18 19  1  0
 18 20  2  0
 20 21  1  0
  9 22  2  0
 22 23  1  0
 22  3  1  0
 20 11  1  0
M  CHG  1   8  -1
M  END
>  <UniqueID>  (59) 
57

>  <SMILES>  (59) 
[H]/N=c1\cc[n-]c(Sc2cc(Cl)cc(Cl)c2)c1

>  <Energy>  (59) 
20.208548723711488

>  <Genealogy>  (59) 
N=c1cc[n-]c(Sc2cc(Cl)cc(Cl)c2)c1 (protonated)
[H]/N=c1\cc[n-]c(Sc2cc(Cl)cc(Cl)c2)c1 (cis-trans isomerization)
[H]/N=c1\cc[n-]c(Sc2cc(Cl)cc(Cl)c2)c1 (3D coordinates assigned)
[H]/N=c1\cc[n-]c(Sc2cc(Cl)cc(Cl)c2)c1 (optimized conformer: 20.208548723711488 kcal/mol)

>  <smiles>  (59) 
N=c1cc[nH]c(Sc2cc(Cl)cc(Cl)c2)c1

>  <score_type>  (59) 
oracle

>  <origin>  (59) 
adg

>  <m_score__min__energy>  (59) 
-8.2599999999999998

>  <m_primary>  (59) 
energy

$$$$
59:0
     RDKit          3D

 41 43  0  0  0  0  0  0  0  0999 V2000
   52.5800   23.9630   45.0080 C   0  0  0  0  0  0  0  0  0  0  0  0
   53.5060   22.9370   45.3360 O   0  0  0  0  0  0  0  0  0  0  0  0
   54.8970   23.0110   45.1530 C   0  0  0  0  0  0  0  0  0  0  0  0
   55.6280   21.8380   44.8610 C   0  0  0  0  0  0  0  0  0  0  0  0
   56.9380   21.9380   44.4580 C   0  0  0  0  0  0  0  0  0  0  0  0
   57.4050   23.1980   44.1830 C   0  0  0  0  0  0  0  0  0  0  0  0
   56.6180   24.3160   44.5110 C   0  0  0  0  0  0  0  0  0  0  0  0
   55.4500   24.2950   45.4540 C   0  0  0  0  0  0  0  0  0  0  0  0
   55.9820   25.6560   45.7730 C   0  0  0  0  0  0  0  0  0  0  0  0
   55.1600   26.5870   45.9930 O   0  0  0  0  0  0  0  0  0  0  0  0
   57.3960   25.8590   46.0000 N   0  0  0  0  0  0  0  0  0  0  0  0
   58.0670   27.1140   45.7910 C   0  0  0  0  0  0  0  0  0  0  0  0
   59.4660   27.1970   45.6860 C   0  0  0  0  0  0  0  0  0  0  0  0
   60.0850   28.4350   45.5130 C   0  0  0  0  0  0  0  0  0  0  0  0
   59.3210   29.5940   45.3860 C   0  0  0  0  0  0  0  0  0  0  0  0
   57.9240   29.5220   45.4420 C   0  0  0  0  0  0  0  0  0  0  0  0
   57.1280   30.6710   45.3270 O   0  0  0  0  0  0  0  0  0  0  0  0
   57.6090   31.9750   45.4740 C   0  0  0  0  0  0  0  0  0  0  0  0
   57.7940   32.5330   46.7540 C   0  0  0  0  0  0  0  0  0  0  0  0
   58.3030   33.8260   46.8940 C   0  0  0  0  0  0  0  0  0  0  0  0
   58.6370   34.5700   45.7590 C   0  0  0  0  0  0  0  0  0  0  0  0
   58.4600   34.0170   44.4850 C   0  0  0  0  0  0  0  0  0  0  0  0
   57.9610   32.7200   44.3380 C   0  0  0  0  0  0  0  0  0  0  0  0
   57.7680   32.0500   42.7310 Cl  0  0  0  0  0  0  0  0  0  0  0  0
   57.3060   28.2820   45.6510 C   0  0  0  0  0  0  0  0  0  0  0  0
   52.1805   24.4056   45.9324 H   0  0  0  0  0  0  0  0  0  0  0  0
   53.0879   24.7407   44.4188 H   0  0  0  0  0  0  0  0  0  0  0  0
   51.7545   23.5372   44.4188 H   0  0  0  0  0  0  0  0  0  0  0  0
   55.1517   20.8510   44.9556 H   0  0  0  0  0  0  0  0  0  0  0  0
   57.5808   21.0507   44.3607 H   0  0  0  0  0  0  0  0  0  0  0  0
   58.3885   23.3329   43.7091 H   0  0  0  0  0  0  0  0  0  0  0  0
   56.8771   25.2768   44.0422 H   0  0  0  0  0  0  0  0  0  0  0  0
   57.9890   24.9980   46.0360 H   0  0  0  0  0  0  0  0  0  0  0  0
   60.0750   26.2826   45.7404 H   0  0  0  0  0  0  0  0  0  0  0  0
   61.1826   28.4971   45.4766 H   0  0  0  0  0  0  0  0  0  0  0  0
   59.8160   30.5657   45.2417 H   0  0  0  0  0  0  0  0  0  0  0  0
   57.5361   31.9470   47.6485 H   0  0  0  0  0  0  0  0  0  0  0  0
   58.4408   34.2582   47.8961 H   0  0  0  0  0  0  0  0  0  0  0  0
   59.0383   35.5885   45.8665 H   0  0  0  0  0  0  0  0  0  0  0  0
   58.7156   34.6079   43.5931 H   0  0  0  0  0  0  0  0  0  0  0  0
   56.2089   28.2248   45.7059 H   0  0  0  0  0  0  0  0  0  0  0  0
  1  2  1  0
  2  3  1  0
  3  4  2  0
  4  5  1  0
  5  6  2  0
  6  7  1  0
  7  8  2  0
  8  9  1  0
  9 10  2  0
  9 11  1  0
 11 12  1  0
 12 13  2  0
 13 14  1  0
 14 15  2  0
 15 16  1  0
 16 17  1  0
 17 18  1  0
 18 19  2  0
 19 20  1  0
 20 21  2  0
 21 22  1  0
 22 23  2  0
 23 24  1  0
 16 25  2  0
  8  3  1  0
 25 12  1  0
 23 18  1  0
  1 26  1  0
  1 27  1  0
  1 28  1  0
  4 29  1  0
  5 30  1  0
  6 31  1  0
  7 32  1  0
 11 33  1  0
 13 34  1  0
 14 35  1  0
 15 36  1  0
 19 37  1  0
 20 38  1  0
 21 39  1  0
 22 40  1  0
 25 41  1  0
M  END
>  <UniqueID>  (60) 
58

>  <SMILES>  (60) 
COc1ccccc1C(=O)Nc1cccc(Oc2ccccc2Cl)c1

>  <Energy>  (60) 
204.3096684619475

>  <Genealogy>  (60) 
COc1ccccc1C(=O)Nc1cccc(Oc2ccccc2Cl)c1 (3D coordinates assigned)
COc1ccccc1C(=O)Nc1cccc(Oc2ccccc2Cl)c1 (optimized conformer: 204.3096684619475 kcal/mol)

>  <smiles>  (60) 
COc1ccccc1C(=O)Nc1cccc(Oc2ccccc2Cl)c1

>  <score_type>  (60) 
oracle

>  <origin>  (60) 
adg

>  <m_score__min__energy>  (60) 
-8.7799999999999994

>  <m_primary>  (60) 
energy

$$$$
60:0
     RDKit          3D

 50 52  0  0  0  0  0  0  0  0999 V2000
   62.7400   33.8570   49.7840 C   0  0  0  0  0  0  0  0  0  0  0  0
   61.7870   33.8160   48.6260 C   0  0  0  0  0  0  0  0  0  0  0  0
   60.6150   34.5860   48.6500 C   0  0  0  0  0  0  0  0  0  0  0  0
   59.7450   34.5760   47.5560 C   0  0  0  0  0  0  0  0  0  0  0  0
   60.0350   33.8000   46.4250 C   0  0  0  0  0  0  0  0  0  0  0  0
   59.1060   33.8130   45.2390 C   0  0  0  0  0  0  0  0  0  0  0  0
   57.6670   33.4790   45.6490 C   0  0  0  0  0  0  0  0  0  0  0  0
   57.2230   32.2240   45.0420 N   0  0  0  0  0  0  0  0  0  0  0  0
   57.4390   31.9150   43.6570 C   0  0  0  0  0  0  0  0  0  0  0  0
   58.0020   32.7530   42.9010 O   0  0  0  0  0  0  0  0  0  0  0  0
   56.9140   30.6270   43.0840 C   0  0  0  0  0  0  0  0  0  0  0  0
   56.6370   29.5660   44.1600 C   0  0  0  0  0  0  0  0  0  0  0  0
   57.8440   29.2660   44.9400 N   0  0  0  0  0  0  0  0  0  0  0  0
   58.0090   29.8840   46.1140 N   0  0  0  0  0  0  0  0  0  0  0  0
   59.0930   29.6690   46.9110 C   0  0  0  0  0  0  0  0  0  0  0  0
   59.1850   30.3650   48.2170 C   0  0  0  0  0  0  0  0  0  0  0  0
   58.5190   31.5910   48.3910 C   0  0  0  0  0  0  0  0  0  0  0  0
   58.5780   32.2640   49.6140 C   0  0  0  0  0  0  0  0  0  0  0  0
   59.3140   31.7310   50.6720 C   0  0  0  0  0  0  0  0  0  0  0  0
   60.0020   30.5260   50.5070 C   0  0  0  0  0  0  0  0  0  0  0  0
   59.9460   29.8440   49.2870 C   0  0  0  0  0  0  0  0  0  0  0  0
   60.6740   28.7090   49.1420 F   0  0  0  0  0  0  0  0  0  0  0  0
   60.0600   28.7450   46.4940 C   0  0  0  0  0  0  0  0  0  0  0  0
   59.9000   28.0960   45.2750 C   0  0  0  0  0  0  0  0  0  0  0  0
   58.7760   28.3660   44.4950 C   0  0  0  0  0  0  0  0  0  0  0  0
   58.6310   27.7740   43.3910 O   0  0  0  0  0  0  0  0  0  0  0  0
   61.2240   33.0550   46.3880 C   0  0  0  0  0  0  0  0  0  0  0  0
   62.0950   33.0650   47.4820 C   0  0  0  0  0  0  0  0  0  0  0  0
   62.1732   33.8326   50.7264 H   0  0  0  0  0  0  0  0  0  0  0  0
   63.4114   32.9869   49.7373 H   0  0  0  0  0  0  0  0  0  0  0  0
   63.3342   34.7815   49.7373 H   0  0  0  0  0  0  0  0  0  0  0  0
   60.3798   35.1995   49.5322 H   0  0  0  0  0  0  0  0  0  0  0  0
   58.8267   35.1810   47.5827 H   0  0  0  0  0  0  0  0  0  0  0  0
   59.1243   34.8132   44.7815 H   0  0  0  0  0  0  0  0  0  0  0  0
   59.4475   33.0494   44.5246 H   0  0  0  0  0  0  0  0  0  0  0  0
   57.6182   33.3853   46.7439 H   0  0  0  0  0  0  0  0  0  0  0  0
   57.0081   34.2877   45.2999 H   0  0  0  0  0  0  0  0  0  0  0  0
   56.6730   31.5590   45.6320 H   0  0  0  0  0  0  0  0  0  0  0  0
   55.9767   30.8370   42.5480 H   0  0  0  0  0  0  0  0  0  0  0  0
   57.6865   30.2240   42.4126 H   0  0  0  0  0  0  0  0  0  0  0  0
   55.8561   29.9399   44.8386 H   0  0  0  0  0  0  0  0  0  0  0  0
   56.3100   28.6427   43.6595 H   0  0  0  0  0  0  0  0  0  0  0  0
   57.9467   32.0239   47.5573 H   0  0  0  0  0  0  0  0  0  0  0  0
   58.0428   33.2163   49.7427 H   0  0  0  0  0  0  0  0  0  0  0  0
   59.3529   32.2591   51.6362 H   0  0  0  0  0  0  0  0  0  0  0  0
   60.5898   30.1122   51.3396 H   0  0  0  0  0  0  0  0  0  0  0  0
   60.9366   28.5352   47.1245 H   0  0  0  0  0  0  0  0  0  0  0  0
   60.6546   27.3747   44.9282 H   0  0  0  0  0  0  0  0  0  0  0  0
   61.4715   32.4614   45.4956 H   0  0  0  0  0  0  0  0  0  0  0  0
   63.0264   32.4810   47.4452 H   0  0  0  0  0  0  0  0  0  0  0  0
  1  2  1  0
  2  3  2  0
  3  4  1  0
  4  5  2  0
  5  6  1  0
  6  7  1  0
  7  8  1  0
  8  9  1  0
  9 10  2  0
  9 11  1  0
 11 12  1  0
 12 13  1  0
 13 14  1  0
 14 15  2  0
 15 16  1  0
 16 17  2  0
 17 18  1  0
 18 19  2  0
 19 20  1  0
 20 21  2  0
 21 22  1  0
 15 23  1  0
 23 24  2  0
 24 25  1  0
 25 26  2  0
  5 27  1  0
 27 28  2  0
 28  2  1  0
 25 13  1  0
 21 16  1  0
  1 29  1  0
  1 30  1  0
  1 31  1  0
  3 32  1  0
  4 33  1  0
  6 34  1  0
  6 35  1  0
  7 36  1  0
  7 37  1  0
  8 38  1  0
 11 39  1  0
 11 40  1  0
 12 41  1  0
 12 42  1  0
 17 43  1  0
 18 44  1  0
 19 45  1  0
 20 46  1  0
 23 47  1  0
 24 48  1  0
 27 49  1  0
 28 50  1  0
M  END
>  <UniqueID>  (61) 
59

>  <SMILES>  (61) 
Cc1ccc(CCNC(=O)CCn2nc(-c3ccccc3F)ccc2=O)cc1

>  <Energy>  (61) 
46.2093830878833

>  <Genealogy>  (61) 
Cc1ccc(CCNC(=O)CCn2nc(-c3ccccc3F)ccc2=O)cc1 (3D coordinates assigned)
Cc1ccc(CCNC(=O)CCn2nc(-c3ccccc3F)ccc2=O)cc1 (optimized conformer: 46.2093830878833 kcal/mol)

>  <smiles>  (61) 
Cc1ccc(CCNC(=O)CCn2nc(-c3ccccc3F)ccc2=O)cc1

>  <score_type>  (61) 
oracle

>  <origin>  (61) 
adg

>  <m_score__min__energy>  (61) 
-9.0299999999999994

>  <m_primary>  (61) 
energy

$$$$
61:0
     RDKit          3D

 48 50  0  0  0  0  0  0  0  0999 V2000
   58.5630   31.8330   50.1630 C   0  0  0  0  0  0  0  0  0  0  0  0
   59.9670   31.6130   50.2470 O   0  0  0  0  0  0  0  0  0  0  0  0
   60.8870   31.9640   49.2460 C   0  0  0  0  0  0  0  0  0  0  0  0
   61.6620   33.1390   49.3230 C   0  0  0  0  0  0  0  0  0  0  0  0
   62.5600   33.4610   48.3030 C   0  0  0  0  0  0  0  0  0  0  0  0
   62.6880   32.6240   47.1940 C   0  0  0  0  0  0  0  0  0  0  0  0
   61.9270   31.4570   47.1070 C   0  0  0  0  0  0  0  0  0  0  0  0
   61.0380   31.1090   48.1400 C   0  0  0  0  0  0  0  0  0  0  0  0
   60.2300   29.9240   48.0610 N   0  0  0  0  0  0  0  0  0  0  0  0
   59.0260   29.7680   47.2990 C   0  0  0  0  0  0  0  0  0  0  0  0
   58.1910   30.7110   47.2910 O   0  0  0  0  0  0  0  0  0  0  0  0
   58.7100   28.5110   46.5840 C   0  0  0  0  0  0  0  0  0  0  0  0
   59.5380   27.3750   46.6100 C   0  0  0  0  0  0  0  0  0  0  0  0
   59.0520   26.3080   45.8650 C   0  0  0  0  0  0  0  0  0  0  0  0
   57.5900   26.7640   45.1730 S   0  0  0  0  0  0  0  0  0  0  0  0
   57.5470   28.3100   45.8410 C   0  0  0  0  0  0  0  0  0  0  0  0
   56.5830   29.3330   45.5520 N   0  0  0  0  0  0  0  0  0  0  0  0
   55.9750   29.6360   44.2890 C   0  0  0  0  0  0  0  0  0  0  0  0
   54.7660   29.3280   44.1140 O   0  0  0  0  0  0  0  0  0  0  0  0
   56.7380   30.2370   43.1450 C   0  0  0  0  0  0  0  0  0  0  0  0
   57.8380   31.5220   43.7190 S   0  0  0  0  0  0  0  0  0  0  0  0
   58.3340   32.3410   42.5600 O   0  0  0  0  0  0  0  0  0  0  0  0
   59.0120   30.8940   44.4180 O   0  0  0  0  0  0  0  0  0  0  0  0
   56.9560   32.5740   44.8600 C   0  0  0  0  0  0  0  0  0  0  0  0
   57.9120   33.4710   45.5940 C   0  0  0  0  0  0  0  0  0  0  0  0
   58.8100   34.2850   44.8820 C   0  0  0  0  0  0  0  0  0  0  0  0
   59.7220   35.0950   45.5660 C   0  0  0  0  0  0  0  0  0  0  0  0
   59.7510   35.0910   46.9640 C   0  0  0  0  0  0  0  0  0  0  0  0
   58.8690   34.2750   47.6800 C   0  0  0  0  0  0  0  0  0  0  0  0
   57.9550   33.4640   46.9990 C   0  0  0  0  0  0  0  0  0  0  0  0
   58.1409   31.8991   51.1766 H   0  0  0  0  0  0  0  0  0  0  0  0
   58.3706   32.7722   49.6237 H   0  0  0  0  0  0  0  0  0  0  0  0
   58.0926   30.9976   49.6237 H   0  0  0  0  0  0  0  0  0  0  0  0
   61.5589   33.8061   50.1915 H   0  0  0  0  0  0  0  0  0  0  0  0
   63.1671   34.3755   48.3740 H   0  0  0  0  0  0  0  0  0  0  0  0
   63.3893   32.8840   46.3874 H   0  0  0  0  0  0  0  0  0  0  0  0
   62.0231   30.8059   46.2256 H   0  0  0  0  0  0  0  0  0  0  0  0
   60.4844   27.3348   47.1693 H   0  0  0  0  0  0  0  0  0  0  0  0
   59.5414   25.3299   45.7478 H   0  0  0  0  0  0  0  0  0  0  0  0
   57.3287   29.4502   42.6530 H   0  0  0  0  0  0  0  0  0  0  0  0
   56.0210   30.6780   42.4369 H   0  0  0  0  0  0  0  0  0  0  0  0
   56.2367   33.1910   44.3016 H   0  0  0  0  0  0  0  0  0  0  0  0
   56.4276   31.9433   45.5901 H   0  0  0  0  0  0  0  0  0  0  0  0
   58.7953   34.2849   43.7821 H   0  0  0  0  0  0  0  0  0  0  0  0
   60.4171   35.7358   45.0038 H   0  0  0  0  0  0  0  0  0  0  0  0
   60.4677   35.7298   47.5009 H   0  0  0  0  0  0  0  0  0  0  0  0
   58.8941   34.2710   48.7797 H   0  0  0  0  0  0  0  0  0  0  0  0
   57.2674   32.8184   47.5651 H   0  0  0  0  0  0  0  0  0  0  0  0
  1  2  1  0
  2  3  1  0
  3  4  2  0
  4  5  1  0
  5  6  2  0
  6  7  1  0
  7  8  2  0
  8  9  1  0
  9 10  1  0
 10 11  2  0
 10 12  1  0
 12 13  1  0
 13 14  2  0
 14 15  1  0
 15 16  1  0
 16 17  1  0
 17 18  1  0
 18 19  2  0
 18 20  1  0
 20 21  1  0
 21 22  2  0
 21 23  2  0
 21 24  1  0
 24 25  1  0
 25 26  2  0
 26 27  1  0
 27 28  2  0
 28 29  1  0
 29 30  2  0
  8  3  1  0
 16 12  2  0
 30 25  1  0
  1 31  1  0
  1 32  1  0
  1 33  1  0
  4 34  1  0
  5 35  1  0
  6 36  1  0
  7 37  1  0
 13 38  1  0
 14 39  1  0
 20 40  1  0
 20 41  1  0
 24 42  1  0
 24 43  1  0
 26 44  1  0
 27 45  1  0
 28 46  1  0
 29 47  1  0
 30 48  1  0
M  CHG  2   9  -1  17  -1
M  END
>  <UniqueID>  (62) 
60

>  <SMILES>  (62) 
COc1ccccc1[N-]C(=O)c1ccsc1[N-]C(=O)CS(=O)(=O)Cc1ccccc1

>  <Energy>  (62) 
77.84449831617859

>  <Genealogy>  (62) 
COc1ccccc1[N-]C(=O)c1ccsc1[N-]C(=O)CS(=O)(=O)Cc1ccccc1 (protonated)
COc1ccccc1[N-]C(=O)c1ccsc1[N-]C(=O)CS(=O)(=O)Cc1ccccc1 (3D coordinates assigned)
COc1ccccc1[N-]C(=O)c1ccsc1[N-]C(=O)CS(=O)(=O)Cc1ccccc1 (optimized conformer: 77.84449831617859 kcal/mol)

>  <smiles>  (62) 
COc1ccccc1NC(=O)c1ccsc1NC(=O)CS(=O)(=O)Cc1ccccc1

>  <score_type>  (62) 
oracle

>  <origin>  (62) 
adg

>  <m_score__min__energy>  (62) 
-13.970000000000001

>  <m_primary>  (62) 
energy

$$$$
62:0
     RDKit          3D

 61 65  0  0  0  0  0  0  0  0999 V2000
   58.2190   33.8400   44.0100 O   0  0  0  0  0  0  0  0  0  0  0  0
   58.5330   33.5340   45.1900 C   0  0  0  0  0  0  0  0  0  0  0  0
   58.8030   34.5830   46.1310 N   0  0  0  0  0  0  0  0  0  0  0  0
   60.1370   35.0220   46.5350 C   0  0  0  0  0  0  0  0  0  0  0  0
   60.4830   34.5040   47.9350 C   0  0  0  0  0  0  0  0  0  0  0  0
   61.8320   33.8560   47.9390 C   0  0  0  0  0  0  0  0  0  0  0  0
   62.5530   33.4580   46.8180 C   0  0  0  0  0  0  0  0  0  0  0  0
   63.7710   32.9970   47.1800 N   0  0  0  0  0  0  0  0  0  0  0  0
   63.8300   33.1150   48.5190 C   0  0  0  0  0  0  0  0  0  0  0  0
   64.9010   32.7910   49.3500 C   0  0  0  0  0  0  0  0  0  0  0  0
   64.7570   33.0200   50.7290 C   0  0  0  0  0  0  0  0  0  0  0  0
   63.5600   33.5690   51.2420 C   0  0  0  0  0  0  0  0  0  0  0  0
   63.3990   33.8520   52.9660 Cl  0  0  0  0  0  0  0  0  0  0  0  0
   62.4960   33.8910   50.3790 C   0  0  0  0  0  0  0  0  0  0  0  0
   62.6660   33.6420   49.0180 C   0  0  0  0  0  0  0  0  0  0  0  0
   58.5700   32.1110   45.5800 C   0  0  0  0  0  0  0  0  0  0  0  0
   59.4780   31.6810   46.5540 C   0  0  0  0  0  0  0  0  0  0  0  0
   59.5750   30.3250   46.8730 C   0  0  0  0  0  0  0  0  0  0  0  0
   58.7490   29.3810   46.2430 C   0  0  0  0  0  0  0  0  0  0  0  0
   58.9660   27.9810   46.4930 N   0  0  0  0  0  0  0  0  0  0  0  0
   59.9260   27.2300   45.6690 C   0  0  0  0  0  0  0  0  0  0  0  0
   59.8160   25.7240   45.9340 C   0  0  0  0  0  0  0  0  0  0  0  0
   58.3980   25.3410   45.9710 N   0  0  0  0  0  0  0  0  0  0  0  0
   57.8570   24.3830   45.0390 C   0  0  0  0  0  0  0  0  0  0  0  0
   58.1830   23.0200   45.1470 C   0  0  0  0  0  0  0  0  0  0  0  0
   57.6960   22.1180   44.1990 C   0  0  0  0  0  0  0  0  0  0  0  0
   56.8980   22.5740   43.1520 C   0  0  0  0  0  0  0  0  0  0  0  0
   56.5950   23.9330   43.0680 C   0  0  0  0  0  0  0  0  0  0  0  0
   57.0740   24.8030   44.0020 N   0  0  0  0  0  0  0  0  0  0  0  0
   57.4790   26.0610   46.8690 C   0  0  0  0  0  0  0  0  0  0  0  0
   58.1540   27.2830   47.5000 C   0  0  0  0  0  0  0  0  0  0  0  0
   57.7880   29.8150   45.2980 C   0  0  0  0  0  0  0  0  0  0  0  0
   56.8850   28.8920   44.6700 N   0  0  0  0  0  0  0  0  0  0  0  0
   57.3170   27.9040   44.0400 O   0  0  0  0  0  0  0  0  0  0  0  0
   55.5260   29.0390   44.8270 O   0  0  0  0  0  0  0  0  0  0  0  0
   57.7120   31.1810   44.9750 C   0  0  0  0  0  0  0  0  0  0  0  0
   60.8756   34.6376   45.8162 H   0  0  0  0  0  0  0  0  0  0  0  0
   60.1544   36.1217   46.5532 H   0  0  0  0  0  0  0  0  0  0  0  0
   60.4848   35.3468   48.6419 H   0  0  0  0  0  0  0  0  0  0  0  0
   59.7309   33.7586   48.2330 H   0  0  0  0  0  0  0  0  0  0  0  0
   62.1841   33.5109   45.7831 H   0  0  0  0  0  0  0  0  0  0  0  0
   64.5200   32.6400   46.5440 H   0  0  0  0  0  0  0  0  0  0  0  0
   65.8301   32.3691   48.9392 H   0  0  0  0  0  0  0  0  0  0  0  0
   65.5811   32.7704   51.4135 H   0  0  0  0  0  0  0  0  0  0  0  0
   61.5618   34.3245   50.7654 H   0  0  0  0  0  0  0  0  0  0  0  0
   60.1170   32.4130   47.0697 H   0  0  0  0  0  0  0  0  0  0  0  0
   60.3058   29.9934   47.6253 H   0  0  0  0  0  0  0  0  0  0  0  0
   59.7178   27.4246   44.6066 H   0  0  0  0  0  0  0  0  0  0  0  0
   60.9433   27.5585   45.9284 H   0  0  0  0  0  0  0  0  0  0  0  0
   60.3253   25.1712   45.1309 H   0  0  0  0  0  0  0  0  0  0  0  0
   60.2885   25.4834   46.8978 H   0  0  0  0  0  0  0  0  0  0  0  0
   58.8176   22.6663   45.9729 H   0  0  0  0  0  0  0  0  0  0  0  0
   57.9420   21.0488   44.2787 H   0  0  0  0  0  0  0  0  0  0  0  0
   56.5113   21.8704   42.4001 H   0  0  0  0  0  0  0  0  0  0  0  0
   55.9670   24.3043   42.2448 H   0  0  0  0  0  0  0  0  0  0  0  0
   56.8220   25.8120   43.9110 H   0  0  0  0  0  0  0  0  0  0  0  0
   56.6035   26.3941   46.2924 H   0  0  0  0  0  0  0  0  0  0  0  0
   57.1786   25.3770   47.6764 H   0  0  0  0  0  0  0  0  0  0  0  0
   57.3835   27.9670   47.8854 H   0  0  0  0  0  0  0  0  0  0  0  0
   58.8036   26.9530   48.3240 H   0  0  0  0  0  0  0  0  0  0  0  0
   56.9705   31.5247   44.2387 H   0  0  0  0  0  0  0  0  0  0  0  0
  1  2  2  0
  2  3  1  0
  3  4  1  0
  4  5  1  0
  5  6  1  0
  6  7  2  0
  7  8  1  0
  8  9  1  0
  9 10  2  0
 10 11  1  0
 11 12  2  0
 12 13  1  0
 12 14  1  0
 14 15  2  0
  2 16  1  0
 16 17  2  0
 17 18  1  0
 18 19  2  0
 19 20  1  0
 20 21  1  0
 21 22  1  0
 22 23  1  0
 23 24  1  0
 24 25  2  0
 25 26  1  0
 26 27  2  0
 27 28  1  0
 28 29  2  0
 23 30  1  0
 30 31  1  0
 19 32  1  0
 32 33  1  0
 33 34  2  0
 33 35  1  0
 32 36  2  0
 15  6  1  0
 36 16  1  0
 15  9  1  0
 31 20  1  0
 29 24  1  0
  4 37  1  0
  4 38  1  0
  5 39  1  0
  5 40  1  0
  7 41  1  0
  8 42  1  0
 10 43  1  0
 11 44  1  0
 14 45  1  0
 17 46  1  0
 18 47  1  0
 21 48  1  0
 21 49  1  0
 22 50  1  0
 22 51  1  0
 25 52  1  0
 26 53  1  0
 27 54  1  0
 28 55  1  0
 29 56  1  0
 30 57  1  0
 30 58  1  0
 31 59  1  0
 31 60  1  0
 36 61  1  0
M  CHG  4   3  -1  29   1  33   1  35  -1
M  END
>  <UniqueID>  (63) 
61

>  <SMILES>  (63) 
O=C([N-]CCc1c[nH]c2ccc(Cl)cc12)c1ccc(N2CCN(c3cccc[nH+]3)CC2)c([N+](=O)[O-])c1

>  <Energy>  (63) 
112.63799662947554

>  <Genealogy>  (63) 
O=C([N-]CCc1c[nH]c2ccc(Cl)cc12)c1ccc(N2CCN(c3cccc[nH+]3)CC2)c([N+](=O)[O-])c1 (protonated)
O=C([N-]CCc1c[nH]c2ccc(Cl)cc12)c1ccc(N2CCN(c3cccc[nH+]3)CC2)c([N+](=O)[O-])c1 (3D coordinates assigned)
O=C([N-]CCc1c[nH]c2ccc(Cl)cc12)c1ccc(N2CCN(c3cccc[nH+]3)CC2)c([N+](=O)[O-])c1 (nonaromatic ring conformer: 112.63799662947554 kcal/mol)

>  <smiles>  (63) 
O=C(NCCc1c[nH]c2ccc(Cl)cc12)c1ccc(N2CCN(c3ccccn3)CC2)c([N+](=O)[O-])c1

>  <score_type>  (63) 
oracle

>  <origin>  (63) 
adg

>  <m_score__min__energy>  (63) 
-10.1

>  <m_primary>  (63) 
energy

$$$$
63:0
     RDKit          3D

 53 56  0  0  0  0  0  0  0  0999 V2000
   57.1780   29.6950   52.3440 C   0  0  0  0  0  0  0  0  0  0  0  0
   57.8160   30.1080   51.1420 O   0  0  0  0  0  0  0  0  0  0  0  0
   58.4430   31.3530   50.9560 C   0  0  0  0  0  0  0  0  0  0  0  0
   58.5910   32.2700   52.0160 C   0  0  0  0  0  0  0  0  0  0  0  0
   59.1910   33.5110   51.7990 C   0  0  0  0  0  0  0  0  0  0  0  0
   59.6540   33.8520   50.5280 C   0  0  0  0  0  0  0  0  0  0  0  0
   59.5190   32.9510   49.4710 C   0  0  0  0  0  0  0  0  0  0  0  0
   58.9180   31.6980   49.6710 C   0  0  0  0  0  0  0  0  0  0  0  0
   58.7990   30.7440   48.5440 C   0  0  0  0  0  0  0  0  0  0  0  0
   58.7990   29.4060   48.6830 N   0  0  0  0  0  0  0  0  0  0  0  0
   58.5860   28.9300   47.4390 C   0  0  0  0  0  0  0  0  0  0  0  0
   58.5350   27.4670   47.0960 C   0  0  0  0  0  0  0  0  0  0  0  0
   59.9120   26.7970   47.3400 C   0  0  0  0  0  0  0  0  0  0  0  0
   60.3280   25.8110   46.2350 C   0  0  0  0  0  0  0  0  0  0  0  0
   59.1700   25.0560   45.7280 N   0  0  0  0  0  0  0  0  0  0  0  0
   59.2780   23.6360   45.4790 C   0  0  0  0  0  0  0  0  0  0  0  0
   58.0930   22.8280   45.0400 C   0  0  0  0  0  0  0  0  0  0  0  0
   60.3850   23.0490   45.6240 O   0  0  0  0  0  0  0  0  0  0  0  0
   57.9510   25.7810   45.3280 C   0  0  0  0  0  0  0  0  0  0  0  0
   58.0410   27.2770   45.6540 C   0  0  0  0  0  0  0  0  0  0  0  0
   58.4520   29.8960   46.5580 O   0  0  0  0  0  0  0  0  0  0  0  0
   58.5830   31.0300   47.2050 C   0  0  0  0  0  0  0  0  0  0  0  0
   58.4580   32.6380   46.4240 S   0  0  0  0  0  0  0  0  0  0  0  0
   57.7500   31.9490   44.9320 C   0  0  0  0  0  0  0  0  0  0  0  0
   56.7430   31.0510   44.9390 N   0  0  0  0  0  0  0  0  0  0  0  0
   56.3960   30.6760   43.6780 C   0  0  0  0  0  0  0  0  0  0  0  0
   55.2860   29.7110   43.4210 C   0  0  0  0  0  0  0  0  0  0  0  0
   57.1170   31.2900   42.6570 C   0  0  0  0  0  0  0  0  0  0  0  0
   58.2360   32.3240   43.3690 S   0  0  0  0  0  0  0  0  0  0  0  0
   57.7494   30.0649   53.2082 H   0  0  0  0  0  0  0  0  0  0  0  0
   56.1575   30.1043   52.3768 H   0  0  0  0  0  0  0  0  0  0  0  0
   57.1336   28.5964   52.3768 H   0  0  0  0  0  0  0  0  0  0  0  0
   58.2311   32.0056   53.0213 H   0  0  0  0  0  0  0  0  0  0  0  0
   59.2991   34.2217   52.6316 H   0  0  0  0  0  0  0  0  0  0  0  0
   60.1256   34.8313   50.3590 H   0  0  0  0  0  0  0  0  0  0  0  0
   59.8871   33.2251   48.4713 H   0  0  0  0  0  0  0  0  0  0  0  0
   58.9430   28.8520   49.5570 H   0  0  0  0  0  0  0  0  0  0  0  0
   57.8148   26.9664   47.7598 H   0  0  0  0  0  0  0  0  0  0  0  0
   60.6750   27.5866   47.4053 H   0  0  0  0  0  0  0  0  0  0  0  0
   59.8253   26.2169   48.2706 H   0  0  0  0  0  0  0  0  0  0  0  0
   60.7805   26.3732   45.4049 H   0  0  0  0  0  0  0  0  0  0  0  0
   61.0488   25.0971   46.6601 H   0  0  0  0  0  0  0  0  0  0  0  0
   57.5525   22.4595   45.9244 H   0  0  0  0  0  0  0  0  0  0  0  0
   57.4227   23.4580   44.4368 H   0  0  0  0  0  0  0  0  0  0  0  0
   58.4347   21.9739   44.4368 H   0  0  0  0  0  0  0  0  0  0  0  0
   57.8059   25.6615   44.2442 H   0  0  0  0  0  0  0  0  0  0  0  0
   57.1046   25.3603   45.8907 H   0  0  0  0  0  0  0  0  0  0  0  0
   58.7448   27.7601   44.9603 H   0  0  0  0  0  0  0  0  0  0  0  0
   57.0451   27.7320   45.5486 H   0  0  0  0  0  0  0  0  0  0  0  0
   54.8787   29.3569   44.3795 H   0  0  0  0  0  0  0  0  0  0  0  0
   54.4915   30.2104   42.8471 H   0  0  0  0  0  0  0  0  0  0  0  0
   55.6700   28.8548   42.8471 H   0  0  0  0  0  0  0  0  0  0  0  0
   56.9792   31.1277   41.5778 H   0  0  0  0  0  0  0  0  0  0  0  0
  1  2  1  0
  2  3  1  0
  3  4  2  0
  4  5  1  0
  5  6  2  0
  6  7  1  0
  7  8  2  0
  8  9  1  0
  9 10  1  0
 10 11  2  0
 11 12  1  0
 12 13  1  0
 13 14  1  0
 14 15  1  0
 15 16  1  0
 16 17  1  0
 16 18  2  0
 15 19  1  0
 19 20  1  0
 11 21  1  0
 21 22  1  0
 22 23  1  0
 23 24  1  0
 24 25  2  0
 25 26  1  0
 26 27  1  0
 26 28  2  0
 28 29  1  0
  8  3  1  0
 22  9  2  0
 29 24  1  0
 20 12  1  0
  1 30  1  0
  1 31  1  0
  1 32  1  0
  4 33  1  0
  5 34  1  0
  6 35  1  0
  7 36  1  0
 10 37  1  0
 12 38  1  0
 13 39  1  0
 13 40  1  0
 14 41  1  0
 14 42  1  0
 17 43  1  0
 17 44  1  0
 17 45  1  0
 19 46  1  0
 19 47  1  0
 20 48  1  0
 20 49  1  0
 27 50  1  0
 27 51  1  0
 27 52  1  0
 28 53  1  0
M  CHG  1  10   1
M  END
>  <UniqueID>  (64) 
62

>  <SMILES>  (64) 
COc1ccccc1-c1[nH+]c(C2CCN(C(C)=O)CC2)oc1Sc1nc(C)cs1

>  <Energy>  (64) 
116.81562099458347

>  <Genealogy>  (64) 
COc1ccccc1-c1[nH+]c(C2CCN(C(C)=O)CC2)oc1Sc1nc(C)cs1 (protonated)
COc1ccccc1-c1[nH+]c(C2CCN(C(C)=O)CC2)oc1Sc1nc(C)cs1 (3D coordinates assigned)
COc1ccccc1-c1[nH+]c(C2CCN(C(C)=O)CC2)oc1Sc1nc(C)cs1 (nonaromatic ring conformer: 116.81562099458347 kcal/mol)

>  <smiles>  (64) 
COc1ccccc1-c1nc(C2CCN(C(C)=O)CC2)oc1Sc1nc(C)cs1

>  <score_type>  (64) 
oracle

>  <origin>  (64) 
adg

>  <m_score__min__energy>  (64) 
-6.9400000000000004

>  <m_primary>  (64) 
energy

$$$$
64:0
     RDKit          3D

 19 19  0  0  0  0  0  0  0  0999 V2000
   58.3590   29.4910   44.4800 C   0  0  0  0  0  0  0  0  0  0  0  0
   57.2220   30.8410   44.2590 S   0  0  0  0  0  0  0  0  0  0  0  0
   55.8940   30.4850   44.8670 O   0  0  0  0  0  0  0  0  0  0  0  0
   57.0260   31.0980   42.7900 O   0  0  0  0  0  0  0  0  0  0  0  0
   57.8660   32.2820   45.0360 C   0  0  0  0  0  0  0  0  0  0  0  0
   58.1350   32.2820   46.4120 C   0  0  0  0  0  0  0  0  0  0  0  0
   58.6600   33.4220   47.0260 C   0  0  0  0  0  0  0  0  0  0  0  0
   58.9250   34.5710   46.2680 C   0  0  0  0  0  0  0  0  0  0  0  0
   59.4480   35.7140   46.8690 O   0  0  0  0  0  0  0  0  0  0  0  0
   58.6640   34.5710   44.8940 C   0  0  0  0  0  0  0  0  0  0  0  0
   58.1390   33.4290   44.2780 C   0  0  0  0  0  0  0  0  0  0  0  0
   58.5104   29.3113   45.5546 H   0  0  0  0  0  0  0  0  0  0  0  0
   57.9479   28.5849   44.0110 H   0  0  0  0  0  0  0  0  0  0  0  0
   59.3218   29.7420   44.0110 H   0  0  0  0  0  0  0  0  0  0  0  0
   57.9320   31.3815   47.0102 H   0  0  0  0  0  0  0  0  0  0  0  0
   58.8658   33.4178   48.1066 H   0  0  0  0  0  0  0  0  0  0  0  0
   58.8950   36.2820   47.5000 H   0  0  0  0  0  0  0  0  0  0  0  0
   58.8718   35.4706   44.2960 H   0  0  0  0  0  0  0  0  0  0  0  0
   57.9401   33.4317   43.1961 H   0  0  0  0  0  0  0  0  0  0  0  0
  1  2  1  0
  2  3  2  0
  2  4  2  0
  2  5  1  0
  5  6  2  0
  6  7  1  0
  7  8  2  0
  8  9  1  0
  8 10  1  0
 10 11  2  0
 11  5  1  0
  1 12  1  0
  1 13  1  0
  1 14  1  0
  6 15  1  0
  7 16  1  0
  9 17  1  0
 10 18  1  0
 11 19  1  0
M  END
>  <UniqueID>  (65) 
63

>  <SMILES>  (65) 
CS(=O)(=O)c1ccc(O)cc1

>  <Energy>  (65) 
14.306977964248341

>  <Genealogy>  (65) 
CS(=O)(=O)c1ccc(O)cc1 (3D coordinates assigned)
CS(=O)(=O)c1ccc(O)cc1 (optimized conformer: 14.306977964248341 kcal/mol)

>  <smiles>  (65) 
CS(=O)(=O)c1ccc(O)cc1

>  <score_type>  (65) 
oracle

>  <origin>  (65) 
adg

>  <m_score__min__energy>  (65) 
-5.75

>  <m_primary>  (65) 
energy

$$$$
65:0
     RDKit          3D

 42 44  0  0  0  0  0  0  0  0999 V2000
   55.5210   22.3730   43.7990 O   0  0  0  0  0  0  0  0  0  0  0  0
   54.9660   23.1700   44.6010 C   0  0  0  0  0  0  0  0  0  0  0  0
   53.6140   23.0120   44.8890 O   0  0  0  0  0  0  0  0  0  0  0  0
   55.7440   24.2550   45.2220 C   0  0  0  0  0  0  0  0  0  0  0  0
   57.1430   24.2050   45.2730 C   0  0  0  0  0  0  0  0  0  0  0  0
   57.8270   25.2600   45.8790 C   0  0  0  0  0  0  0  0  0  0  0  0
   59.6130   25.2370   45.9840 S   0  0  0  0  0  0  0  0  0  0  0  0
   59.6680   26.8440   46.7730 C   0  0  0  0  0  0  0  0  0  0  0  0
   59.8500   27.0730   48.1220 C   0  0  0  0  0  0  0  0  0  0  0  0
   59.8270   28.4440   48.2730 C   0  0  0  0  0  0  0  0  0  0  0  0
   59.9510   29.0980   49.4980 O   0  0  0  0  0  0  0  0  0  0  0  0
   59.6440   29.0630   47.0860 N   0  0  0  0  0  0  0  0  0  0  0  0
   59.5390   30.4790   46.8780 C   0  0  0  0  0  0  0  0  0  0  0  0
   60.6710   31.2960   47.0050 C   0  0  0  0  0  0  0  0  0  0  0  0
   60.5700   32.6740   46.7930 C   0  0  0  0  0  0  0  0  0  0  0  0
   59.3370   33.2430   46.4550 C   0  0  0  0  0  0  0  0  0  0  0  0
   59.2150   34.9710   46.1790 Cl  0  0  0  0  0  0  0  0  0  0  0  0
   58.2040   32.4330   46.3350 C   0  0  0  0  0  0  0  0  0  0  0  0
   58.3020   31.0550   46.5500 C   0  0  0  0  0  0  0  0  0  0  0  0
   59.5470   28.0780   46.1620 C   0  0  0  0  0  0  0  0  0  0  0  0
   59.4020   28.2770   44.7460 N   0  0  0  0  0  0  0  0  0  0  0  0
   58.2010   28.1610   44.1200 O   0  0  0  0  0  0  0  0  0  0  0  0
   57.7840   29.4650   43.7990 C   0  0  0  0  0  0  0  0  0  0  0  0
   56.2740   29.5810   43.9910 C   0  0  0  0  0  0  0  0  0  0  0  0
   55.8360   28.6980   44.9890 O   0  0  0  0  0  0  0  0  0  0  0  0
   57.1350   26.3070   46.3990 N   0  0  0  0  0  0  0  0  0  0  0  0
   55.7790   26.3430   46.3410 C   0  0  0  0  0  0  0  0  0  0  0  0
   55.0960   25.3250   45.7580 N   0  0  0  0  0  0  0  0  0  0  0  0
   57.6907   23.3526   44.8447 H   0  0  0  0  0  0  0  0  0  0  0  0
   59.9852   26.3194   48.9119 H   0  0  0  0  0  0  0  0  0  0  0  0
   60.3290   28.6330   50.3130 H   0  0  0  0  0  0  0  0  0  0  0  0
   61.6411   30.8516   47.2721 H   0  0  0  0  0  0  0  0  0  0  0  0
   61.4607   33.3118   46.8920 H   0  0  0  0  0  0  0  0  0  0  0  0
   57.2343   32.8803   46.0711 H   0  0  0  0  0  0  0  0  0  0  0  0
   57.4075   30.4209   46.4619 H   0  0  0  0  0  0  0  0  0  0  0  0
   60.2460   28.4910   44.1700 H   0  0  0  0  0  0  0  0  0  0  0  0
   58.2931   30.1847   44.4569 H   0  0  0  0  0  0  0  0  0  0  0  0
   58.0369   29.6820   42.7507 H   0  0  0  0  0  0  0  0  0  0  0  0
   56.0246   30.6114   44.2845 H   0  0  0  0  0  0  0  0  0  0  0  0
   55.7745   29.3245   43.0451 H   0  0  0  0  0  0  0  0  0  0  0  0
   56.3310   27.8470   44.8550 H   0  0  0  0  0  0  0  0  0  0  0  0
   55.2333   27.1979   46.7668 H   0  0  0  0  0  0  0  0  0  0  0  0
  1  2  2  0
  2  3  1  0
  2  4  1  0
  4  5  2  0
  5  6  1  0
  6  7  1  0
  7  8  1  0
  8  9  1  0
  9 10  2  0
 10 11  1  0
 10 12  1  0
 12 13  1  0
 13 14  2  0
 14 15  1  0
 15 16  2  0
 16 17  1  0
 16 18  1  0
 18 19  2  0
 12 20  1  0
 20 21  1  0
 21 22  1  0
 22 23  1  0
 23 24  1  0
 24 25  1  0
  6 26  2  0
 26 27  1  0
 27 28  2  0
 28  4  1  0
 20  8  2  0
 19 13  1  0
  5 29  1  0
  9 30  1  0
 11 31  1  0
 14 32  1  0
 15 33  1  0
 18 34  1  0
 19 35  1  0
 21 36  1  0
 23 37  1  0
 23 38  1  0
 24 39  1  0
 24 40  1  0
 25 41  1  0
 27 42  1  0
M  CHG  1   3  -1
M  END
>  <UniqueID>  (66) 
64

>  <SMILES>  (66) 
O=C([O-])c1cc(Sc2cc(O)n(-c3ccc(Cl)cc3)c2NOCCO)ncn1

>  <Energy>  (66) 
69.44695162736025

>  <Genealogy>  (66) 
O=C([O-])c1cc(Sc2cc(O)n(-c3ccc(Cl)cc3)c2NOCCO)ncn1 (protonated)
O=C([O-])c1cc(Sc2cc(O)n(-c3ccc(Cl)cc3)c2NOCCO)ncn1 (3D coordinates assigned)
O=C([O-])c1cc(Sc2cc(O)n(-c3ccc(Cl)cc3)c2NOCCO)ncn1 (optimized conformer: 69.44695162736025 kcal/mol)

>  <smiles>  (66) 
O=C(O)c1cc(Sc2cc(O)n(-c3ccc(Cl)cc3)c2NOCCO)ncn1

>  <score_type>  (66) 
oracle

>  <origin>  (66) 
adg

>  <m_score__min__energy>  (66) 
-9.7799999999999994

>  <m_primary>  (66) 
energy

$$$$
66:0
     RDKit          3D

 44 44  0  0  1  0  0  0  0  0999 V2000
   57.4450   20.8440   44.6250 N   0  0  0  0  0  0  0  0  0  0  0  0
   56.5300   22.2190   44.1120 S   0  0  0  0  0  0  0  0  0  0  0  0
   56.2690   22.1730   42.6250 O   0  0  0  0  0  0  0  0  0  0  0  0
   55.2100   22.1720   44.8480 O   0  0  0  0  0  0  0  0  0  0  0  0
   57.3190   23.7180   44.5690 C   0  0  0  0  0  0  0  0  0  0  0  0
   57.2650   24.8280   43.7490 C   0  0  0  0  0  0  0  0  0  0  0  0
   57.8940   26.0250   44.1100 C   0  0  0  0  0  0  0  0  0  0  0  0
   58.5820   26.1040   45.3030 C   0  0  0  0  0  0  0  0  0  0  0  0
   59.2170   27.3760   45.6240 C   0  0  0  0  0  0  0  0  0  0  0  0
   60.3600   27.3440   46.1490 O   0  0  0  0  0  0  0  0  0  0  0  0
   58.6130   28.6370   45.3750 N   0  0  0  0  0  0  0  0  0  0  0  0
   59.3600   29.8540   45.7460 C   0  0  0  0  0  0  0  0  0  0  0  0
   58.3290   30.8640   46.1880 C   0  0  0  0  0  0  0  0  0  0  0  0
   58.6440   32.2300   45.5990 C   0  0  0  0  0  0  0  0  0  0  0  0
   57.6500   32.6550   44.5900 C   0  0  0  0  0  0  0  0  0  0  0  0
   57.9600   32.2240   43.2000 C   0  0  0  0  0  0  0  0  0  0  0  0
   57.1030   31.2120   42.5580 C   0  0  0  0  0  0  0  0  0  0  0  0
   56.7160   30.0300   43.3110 C   0  0  0  0  0  0  0  0  0  0  0  0
   57.0840   28.7780   42.8350 O   0  0  0  0  0  0  0  0  0  0  0  0
   56.0320   30.0730   44.4230 N   0  0  0  0  0  0  0  0  0  0  0  0
   55.5240   28.9120   44.9780 O   0  0  0  0  0  0  0  0  0  0  0  0
   58.6500   25.0090   46.1350 C   0  0  0  0  0  0  0  0  0  0  0  0
   58.0240   23.8340   45.7680 C   0  0  0  0  0  0  0  0  0  0  0  0
   58.4770   20.9890   44.5340 H   0  0  0  0  0  0  0  0  0  0  0  0
   57.1430   19.9620   44.1470 H   0  0  0  0  0  0  0  0  0  0  0  0
   56.7184   24.7703   42.7961 H   0  0  0  0  0  0  0  0  0  0  0  0
   57.8399   26.8995   43.4449 H   0  0  0  0  0  0  0  0  0  0  0  0
   57.6680   28.6780   44.9420 H   0  0  0  0  0  0  0  0  0  0  0  0
   60.0579   29.6370   46.5681 H   0  0  0  0  0  0  0  0  0  0  0  0
   59.9544   30.2321   44.9011 H   0  0  0  0  0  0  0  0  0  0  0  0
   57.3346   30.5415   45.8456 H   0  0  0  0  0  0  0  0  0  0  0  0
   58.3442   30.9348   47.2856 H   0  0  0  0  0  0  0  0  0  0  0  0
   58.6590   32.9700   46.4127 H   0  0  0  0  0  0  0  0  0  0  0  0
   59.6204   32.1603   45.0973 H   0  0  0  0  0  0  0  0  0  0  0  0
   56.6735   32.2337   44.8708 H   0  0  0  0  0  0  0  0  0  0  0  0
   57.6583   33.7550   44.5861 H   0  0  0  0  0  0  0  0  0  0  0  0
   57.9250   33.1238   42.5682 H   0  0  0  0  0  0  0  0  0  0  0  0
   58.9358   31.7244   43.2902 H   0  0  0  0  0  0  0  0  0  0  0  0
   56.1747   31.7203   42.2581 H   0  0  0  0  0  0  0  0  0  0  0  0
   57.7313   30.8125   41.7483 H   0  0  0  0  0  0  0  0  0  0  0  0
   56.6650   27.9710   43.2750 H   0  0  0  0  0  0  0  0  0  0  0  0
   54.7390   28.4950   44.4950 H   0  0  0  0  0  0  0  0  0  0  0  0
   59.1995   25.0697   47.0860 H   0  0  0  0  0  0  0  0  0  0  0  0
   58.0827   22.9649   46.4397 H   0  0  0  0  0  0  0  0  0  0  0  0
  1  2  1  0
  2  3  2  0
  2  4  2  0
  2  5  1  0
  5  6  2  0
  6  7  1  0
  7  8  2  0
  8  9  1  0
  9 10  2  0
  9 11  1  0
 11 12  1  0
 12 13  1  0
 13 14  1  0
 14 15  1  0
 15 16  1  0
 16 17  1  0
 17 18  1  0
 18 19  1  0
 18 20  2  0
 20 21  1  0
  8 22  1  0
 22 23  2  0
 23  5  1  0
  1 24  1  0
  1 25  1  0
  6 26  1  0
  7 27  1  0
 11 28  1  0
 12 29  1  0
 12 30  1  0
 13 31  1  0
 13 32  1  0
 14 33  1  0
 14 34  1  0
 15 35  1  0
 15 36  1  0
 16 37  1  0
 16 38  1  0
 17 39  1  0
 17 40  1  0
 19 41  1  0
 21 42  1  0
 22 43  1  0
 23 44  1  0
M  END
>  <smiles>  (67) 
NS(=O)(=O)c1ccc(C(=O)NCCCCCCC(O)=NO)cc1

>  <score_type>  (67) 
oracle

>  <origin>  (67) 
adg

>  <m_score__min__energy>  (67) 
-8.3499999999999996

>  <m_primary>  (67) 
energy

$$$$
67:0
     RDKit          3D

 42 44  0  0  0  0  0  0  0  0999 V2000
   56.6030   20.6880   43.1630 C   0  0  0  0  0  0  0  0  0  0  0  0
   56.0080   21.6870   43.9870 O   0  0  0  0  0  0  0  0  0  0  0  0
   56.5790   22.9420   44.2500 C   0  0  0  0  0  0  0  0  0  0  0  0
   56.8530   23.3850   45.5600 C   0  0  0  0  0  0  0  0  0  0  0  0
   57.4350   24.6390   45.7690 C   0  0  0  0  0  0  0  0  0  0  0  0
   57.7360   25.4780   44.6820 C   0  0  0  0  0  0  0  0  0  0  0  0
   58.4180   26.8060   44.9120 C   0  0  1  0  0  0  0  0  0  0  0  0
   57.9430   27.8170   43.8510 C   0  0  0  0  0  0  0  0  0  0  0  0
   58.3920   29.2230   44.0540 N   0  0  1  0  0  0  0  0  0  0  0  0
   57.3230   30.0720   44.5660 C   0  0  0  0  0  0  0  0  0  0  0  0
   57.4700   31.5740   44.5830 C   0  0  0  0  0  0  0  0  0  0  0  0
   56.2590   29.5870   44.9370 O   0  0  0  0  0  0  0  0  0  0  0  0
   59.6900   29.3920   44.7550 C   0  0  0  0  0  0  0  0  0  0  0  0
   59.6500   29.2190   46.2660 C   0  0  0  0  0  0  0  0  0  0  0  0
   60.4110   30.1050   47.0540 C   0  0  0  0  0  0  0  0  0  0  0  0
   60.3750   30.0350   48.4480 C   0  0  0  0  0  0  0  0  0  0  0  0
   59.5790   29.0800   49.0800 C   0  0  0  0  0  0  0  0  0  0  0  0
   58.8380   28.1770   48.3180 C   0  0  0  0  0  0  0  0  0  0  0  0
   58.8840   28.2160   46.9180 C   0  0  0  0  0  0  0  0  0  0  0  0
   58.1310   27.2590   46.2290 O   0  0  0  0  0  0  0  0  0  0  0  0
   57.4640   25.0270   43.3790 C   0  0  0  0  0  0  0  0  0  0  0  0
   56.8910   23.7710   43.1680 C   0  0  0  0  0  0  0  0  0  0  0  0
   57.0629   19.9158   43.7972 H   0  0  0  0  0  0  0  0  0  0  0  0
   55.8310   20.2290   42.5279 H   0  0  0  0  0  0  0  0  0  0  0  0
   57.3743   21.1482   42.5279 H   0  0  0  0  0  0  0  0  0  0  0  0
   56.6085   22.7430   46.4191 H   0  0  0  0  0  0  0  0  0  0  0  0
   57.6593   24.9720   46.7931 H   0  0  0  0  0  0  0  0  0  0  0  0
   59.5084   26.6976   44.8154 H   0  0  0  0  0  0  0  0  0  0  0  0
   58.3160   27.4807   42.8724 H   0  0  0  0  0  0  0  0  0  0  0  0
   56.8458   27.8381   43.9259 H   0  0  0  0  0  0  0  0  0  0  0  0
   58.5920   29.5780   43.0850 H   0  0  0  0  0  0  0  0  0  0  0  0
   57.5046   31.9273   45.6242 H   0  0  0  0  0  0  0  0  0  0  0  0
   58.4002   31.8572   44.0686 H   0  0  0  0  0  0  0  0  0  0  0  0
   56.6124   32.0322   44.0686 H   0  0  0  0  0  0  0  0  0  0  0  0
   60.3931   28.6503   44.3482 H   0  0  0  0  0  0  0  0  0  0  0  0
   59.9922   30.4351   44.5801 H   0  0  0  0  0  0  0  0  0  0  0  0
   61.0417   30.8617   46.5646 H   0  0  0  0  0  0  0  0  0  0  0  0
   60.9754   30.7341   49.0487 H   0  0  0  0  0  0  0  0  0  0  0  0
   59.5356   29.0390   50.1784 H   0  0  0  0  0  0  0  0  0  0  0  0
   58.2109   27.4263   48.8212 H   0  0  0  0  0  0  0  0  0  0  0  0
   57.7044   25.6685   42.5184 H   0  0  0  0  0  0  0  0  0  0  0  0
   56.6835   23.4312   42.1426 H   0  0  0  0  0  0  0  0  0  0  0  0
  1  2  1  0
  2  3  1  0
  3  4  2  0
  4  5  1  0
  5  6  2  0
  6  7  1  0
  7  8  1  0
  8  9  1  0
  9 10  1  0
 10 11  1  0
 10 12  2  0
  9 13  1  0
 13 14  1  0
 14 15  2  0
 15 16  1  0
 16 17  2  0
 17 18  1  0
 18 19  2  0
 19 20  1  0
  6 21  1  0
 21 22  2  0
 22  3  1  0
 20  7  1  0
 19 14  1  0
  1 23  1  0
  1 24  1  0
  1 25  1  0
  4 26  1  0
  5 27  1  0
  7 28  1  1
  8 29  1  0
  8 30  1  0
  9 31  1  6
 11 32  1  0
 11 33  1  0
 11 34  1  0
 13 35  1  0
 13 36  1  0
 15 37  1  0
 16 38  1  0
 17 39  1  0
 18 40  1  0
 21 41  1  0
 22 42  1  0
M  CHG  1   9   1
M  END
>  <UniqueID>  (68) 
65

>  <SMILES>  (68) 
COc1ccc([C@H]2C[N@@H+](C(C)=O)Cc3ccccc3O2)cc1

>  <Energy>  (68) 
61.23547937229501

>  <Genealogy>  (68) 
COc1ccc(C2C[NH+](C(C)=O)Cc3ccccc3O2)cc1 (protonated)
COc1ccc([C@H]2C[N@@H+](C(C)=O)Cc3ccccc3O2)cc1 (chirality)
COc1ccc([C@H]2C[N@@H+](C(C)=O)Cc3ccccc3O2)cc1 (3D coordinates assigned)
COc1ccc([C@H]2C[N@@H+](C(C)=O)Cc3ccccc3O2)cc1 (nonaromatic ring conformer: 61.23547937229501 kcal/mol)

>  <smiles>  (68) 
COc1ccc(C2CN(C(C)=O)Cc3ccccc3O2)cc1

>  <score_type>  (68) 
oracle

>  <origin>  (68) 
adg

>  <m_score__min__energy>  (68) 
-3.9199999999999999

>  <m_primary>  (68) 
energy

$$$$
68:0
     RDKit          3D

 48 50  0  0  0  0  0  0  0  0999 V2000
   61.0870   31.0060   46.4200 O   0  0  0  0  0  0  0  0  0  0  0  0
   60.1570   30.3490   46.9690 C   0  0  0  0  0  0  0  0  0  0  0  0
   60.1580   30.1590   48.3520 O   0  0  0  0  0  0  0  0  0  0  0  0
   60.1860   31.2370   49.2830 C   0  0  0  0  0  0  0  0  0  0  0  0
   58.9090   32.0650   49.1560 C   0  0  0  0  0  0  0  0  0  0  0  0
   59.0270   33.0750   48.0430 C   0  0  0  0  0  0  0  0  0  0  0  0
   60.2660   33.6720   47.7530 C   0  0  0  0  0  0  0  0  0  0  0  0
   60.3810   34.5760   46.6930 C   0  0  0  0  0  0  0  0  0  0  0  0
   59.2630   34.8870   45.9130 C   0  0  0  0  0  0  0  0  0  0  0  0
   58.0300   34.2900   46.1890 C   0  0  0  0  0  0  0  0  0  0  0  0
   57.9110   33.3830   47.2470 C   0  0  0  0  0  0  0  0  0  0  0  0
   59.1030   29.7830   46.1680 N   0  0  0  0  0  0  0  0  0  0  0  0
   57.8390   30.5060   45.9810 C   0  0  0  0  0  0  0  0  0  0  0  0
   57.6890   30.9080   44.5400 C   0  0  0  0  0  0  0  0  0  0  0  0
   56.8440   30.1830   43.6830 C   0  0  0  0  0  0  0  0  0  0  0  0
   56.6590   30.5970   42.3610 C   0  0  0  0  0  0  0  0  0  0  0  0
   57.3050   31.7430   41.8870 C   0  0  0  0  0  0  0  0  0  0  0  0
   57.1170   32.1550   40.5740 O   0  0  0  0  0  0  0  0  0  0  0  0
   58.1370   32.4770   42.7380 C   0  0  0  0  0  0  0  0  0  0  0  0
   58.3270   32.0650   44.0610 C   0  0  0  0  0  0  0  0  0  0  0  0
   59.3050   28.5470   45.4630 C   0  0  0  0  0  0  0  0  0  0  0  0
   60.2920   28.4380   44.6860 O   0  0  0  0  0  0  0  0  0  0  0  0
   58.3950   27.3910   45.6600 C   0  0  0  0  0  0  0  0  0  0  0  0
   58.9040   26.0790   45.7260 C   0  0  0  0  0  0  0  0  0  0  0  0
   58.0390   24.9940   45.8950 C   0  0  0  0  0  0  0  0  0  0  0  0
   56.6620   25.2020   45.9950 C   0  0  0  0  0  0  0  0  0  0  0  0
   56.1450   26.4980   45.9230 C   0  0  0  0  0  0  0  0  0  0  0  0
   54.7740   26.7040   46.0200 O   0  0  0  0  0  0  0  0  0  0  0  0
   57.0060   27.5880   45.7530 C   0  0  0  0  0  0  0  0  0  0  0  0
   60.2605   30.8353   50.3043 H   0  0  0  0  0  0  0  0  0  0  0  0
   61.0556   31.8766   49.0713 H   0  0  0  0  0  0  0  0  0  0  0  0
   58.0645   31.3930   48.9436 H   0  0  0  0  0  0  0  0  0  0  0  0
   58.7456   32.6034   50.1012 H   0  0  0  0  0  0  0  0  0  0  0  0
   61.1484   33.4269   48.3624 H   0  0  0  0  0  0  0  0  0  0  0  0
   61.3521   35.0432   46.4723 H   0  0  0  0  0  0  0  0  0  0  0  0
   59.3540   35.6018   45.0819 H   0  0  0  0  0  0  0  0  0  0  0  0
   57.1517   34.5338   45.5732 H   0  0  0  0  0  0  0  0  0  0  0  0
   56.9406   32.9093   47.4565 H   0  0  0  0  0  0  0  0  0  0  0  0
   57.0002   29.8546   46.2673 H   0  0  0  0  0  0  0  0  0  0  0  0
   57.8405   31.4079   46.6108 H   0  0  0  0  0  0  0  0  0  0  0  0
   56.3261   29.2862   44.0539 H   0  0  0  0  0  0  0  0  0  0  0  0
   56.0037   30.0200   41.6919 H   0  0  0  0  0  0  0  0  0  0  0  0
   58.6430   33.3802   42.3662 H   0  0  0  0  0  0  0  0  0  0  0  0
   58.9779   32.6484   44.7288 H   0  0  0  0  0  0  0  0  0  0  0  0
   59.9875   25.9076   45.6441 H   0  0  0  0  0  0  0  0  0  0  0  0
   58.4445   23.9729   45.9494 H   0  0  0  0  0  0  0  0  0  0  0  0
   55.9845   24.3460   46.1304 H   0  0  0  0  0  0  0  0  0  0  0  0
   56.5933   28.6058   45.6917 H   0  0  0  0  0  0  0  0  0  0  0  0
  1  2  2  0
  2  3  1  0
  3  4  1  0
  4  5  1  0
  5  6  1  0
  6  7  2  0
  7  8  1  0
  8  9  2  0
  9 10  1  0
 10 11  2  0
  2 12  1  0
 12 13  1  0
 13 14  1  0
 14 15  2  0
 15 16  1  0
 16 17  2  0
 17 18  1  0
 17 19  1  0
 19 20  2  0
 12 21  1  0
 21 22  2  0
 21 23  1  0
 23 24  2  0
 24 25  1  0
 25 26  2  0
 26 27  1  0
 27 28  1  0
 27 29  2  0
 11  6  1  0
 20 14  1  0
 29 23  1  0
  4 30  1  0
  4 31  1  0
  5 32  1  0
  5 33  1  0
  7 34  1  0
  8 35  1  0
  9 36  1  0
 10 37  1  0
 11 38  1  0
 13 39  1  0
 13 40  1  0
 15 41  1  0
 16 42  1  0
 19 43  1  0
 20 44  1  0
 24 45  1  0
 25 46  1  0
 26 47  1  0
 29 48  1  0
M  CHG  2  18  -1  28  -1
M  END
>  <UniqueID>  (69) 
66

>  <SMILES>  (69) 
O=C(OCCc1ccccc1)N(Cc1ccc([O-])cc1)C(=O)c1cccc([O-])c1

>  <Energy>  (69) 
48.34857345841183

>  <Genealogy>  (69) 
O=C(OCCc1ccccc1)N(Cc1ccc([O-])cc1)C(=O)c1cccc([O-])c1 (protonated)
O=C(OCCc1ccccc1)N(Cc1ccc([O-])cc1)C(=O)c1cccc([O-])c1 (3D coordinates assigned)
O=C(OCCc1ccccc1)N(Cc1ccc([O-])cc1)C(=O)c1cccc([O-])c1 (optimized conformer: 48.34857345841183 kcal/mol)

>  <smiles>  (69) 
O=C(OCCc1ccccc1)N(Cc1ccc(O)cc1)C(=O)c1cccc(O)c1

>  <score_type>  (69) 
oracle

>  <origin>  (69) 
adg

>  <m_score__min__energy>  (69) 
-13.470000000000001

>  <m_primary>  (69) 
energy

$$$$
69:0
     RDKit          3D

 51 55  0  0  0  0  0  0  0  0999 V2000
   59.4259   27.3470   43.8606 H   0  0  0  0  0  0  0  0  0  0  0  0
   58.5130   27.2350   44.4640 C   0  0  0  0  0  0  0  0  0  0  0  0
   58.1050   25.8940   45.3950 S   0  0  0  0  0  0  0  0  0  0  0  0
   56.6610   26.5730   45.9090 C   0  0  0  0  0  0  0  0  0  0  0  0
   55.8270   25.9760   46.7030 N   0  0  0  0  0  0  0  0  0  0  0  0
   55.9050   24.5800   47.0090 C   0  0  0  0  0  0  0  0  0  0  0  0
   56.8160   24.1490   47.9860 C   0  0  0  0  0  0  0  0  0  0  0  0
   57.4642   24.8809   48.4903 H   0  0  0  0  0  0  0  0  0  0  0  0
   56.9040   22.7980   48.3210 C   0  0  0  0  0  0  0  0  0  0  0  0
   57.6182   22.4678   49.0897 H   0  0  0  0  0  0  0  0  0  0  0  0
   56.0870   21.8650   47.6820 C   0  0  0  0  0  0  0  0  0  0  0  0
   56.1543   20.8009   47.9525 H   0  0  0  0  0  0  0  0  0  0  0  0
   55.1840   22.2780   46.7000 C   0  0  0  0  0  0  0  0  0  0  0  0
   54.5401   21.5361   46.2050 H   0  0  0  0  0  0  0  0  0  0  0  0
   55.0900   23.6380   46.3370 C   0  0  0  0  0  0  0  0  0  0  0  0
   54.0860   24.0850   45.2950 C   0  0  0  0  0  0  0  0  0  0  0  0
   54.6790   24.0620   44.0460 F   0  0  0  0  0  0  0  0  0  0  0  0
   52.9920   23.2370   45.2930 F   0  0  0  0  0  0  0  0  0  0  0  0
   53.6310   25.3680   45.5460 F   0  0  0  0  0  0  0  0  0  0  0  0
   56.4660   27.8090   45.3990 N   0  0  0  0  0  0  0  0  0  0  0  0
   57.4930   28.1820   44.5890 C   0  0  0  0  0  0  0  0  0  0  0  0
   57.5250   29.5110   43.9560 C   0  0  0  0  0  0  0  0  0  0  0  0
   56.6200   29.9490   42.6070 S   0  0  0  0  0  0  0  0  0  0  0  0
   57.0540   31.5740   42.6840 C   0  0  0  0  0  0  0  0  0  0  0  0
   56.7260   32.3669   41.9958 H   0  0  0  0  0  0  0  0  0  0  0  0
   57.9030   31.7330   43.7760 C   0  0  0  0  0  0  0  0  0  0  0  0
   58.3130   33.0800   44.3050 C   0  0  0  0  0  0  0  0  0  0  0  0
   59.4107   33.1494   44.2936 H   0  0  0  0  0  0  0  0  0  0  0  0
   57.8649   33.8534   43.6639 H   0  0  0  0  0  0  0  0  0  0  0  0
   57.8130   33.2970   45.7450 C   0  0  0  0  0  0  0  0  0  0  0  0
   57.3198   34.2783   45.8071 H   0  0  0  0  0  0  0  0  0  0  0  0
   57.1105   32.4867   45.9900 H   0  0  0  0  0  0  0  0  0  0  0  0
   58.9470   33.2550   46.7420 C   0  0  0  0  0  0  0  0  0  0  0  0
   58.6880   33.4150   48.1120 C   0  0  0  0  0  0  0  0  0  0  0  0
   57.6493   33.4216   48.4740 H   0  0  0  0  0  0  0  0  0  0  0  0
   59.7400   33.5660   49.0200 C   0  0  0  0  0  0  0  0  0  0  0  0
   59.5263   33.6750   50.0935 H   0  0  0  0  0  0  0  0  0  0  0  0
   61.0660   33.5790   48.5670 C   0  0  0  0  0  0  0  0  0  0  0  0
   62.1290   33.7890   49.4620 C   0  0  0  0  0  0  0  0  0  0  0  0
   61.9260   33.9158   50.5356 H   0  0  0  0  0  0  0  0  0  0  0  0
   63.4440   33.8370   48.9900 C   0  0  0  0  0  0  0  0  0  0  0  0
   64.2727   34.0053   49.6935 H   0  0  0  0  0  0  0  0  0  0  0  0
   63.7100   33.6720   47.6280 C   0  0  0  0  0  0  0  0  0  0  0  0
   64.7467   33.7139   47.2627 H   0  0  0  0  0  0  0  0  0  0  0  0
   62.6630   33.4540   46.7290 C   0  0  0  0  0  0  0  0  0  0  0  0
   62.8781   33.3211   45.6585 H   0  0  0  0  0  0  0  0  0  0  0  0
   61.3370   33.4040   47.1880 C   0  0  0  0  0  0  0  0  0  0  0  0
   60.2770   33.2190   46.2900 C   0  0  0  0  0  0  0  0  0  0  0  0
   60.4875   33.0445   45.2245 H   0  0  0  0  0  0  0  0  0  0  0  0
   58.1720   30.5860   44.4600 N   0  0  0  0  0  0  0  0  0  0  0  0
   58.7610   30.5640   45.3210 H   0  0  0  0  0  0  0  0  0  0  0  0
  1  2  1  0
  2  3  1  0
  3  4  1  0
  4  5  2  0
  5  6  1  0
  6  7  2  0
  7  8  1  0
  7  9  1  0
  9 10  1  0
  9 11  2  0
 11 12  1  0
 11 13  1  0
 13 14  1  0
 13 15  2  0
 15 16  1  0
 16 17  1  0
 16 18  1  0
 16 19  1  0
  4 20  1  0
 20 21  1  0
 21 22  1  0
 22 23  1  0
 23 24  1  0
 24 25  1  0
 24 26  2  0
 26 27  1  0
 27 28  1  0
 27 29  1  0
 27 30  1  0
 30 31  1  0
 30 32  1  0
 30 33  1  0
 33 34  2  0
 34 35  1  0
 34 36  1  0
 36 37  1  0
 36 38  2  0
 38 39  1  0
 39 40  1  0
 39 41  2  0
 41 42  1  0
 41 43  1  0
 43 44  1  0
 43 45  2  0
 45 46  1  0
 45 47  1  0
 47 48  2  0
 48 49  1  0
 26 50  1  0
 50 51  1  0
 21  2  2  0
 50 22  2  0
 15  6  1  0
 48 33  1  0
 47 38  1  0
M  CHG  2  20  -1  50   1
M  END
>  <UniqueID>  (70) 
67

>  <SMILES>  (70) 
FC(F)(F)c1ccccc1/N=c1\[n-]c(-c2[nH+]c(CCc3ccc4ccccc4c3)cs2)cs1

>  <Energy>  (70) 
122.74684424906295

>  <Genealogy>  (70) 
FC(F)(F)c1ccccc1N=c1[n-]c(-c2[nH+]c(CCc3ccc4ccccc4c3)cs2)cs1 (protonated)
FC(F)(F)c1ccccc1/N=c1\[n-]c(-c2[nH+]c(CCc3ccc4ccccc4c3)cs2)cs1 (cis-trans isomerization)
FC(F)(F)c1ccccc1/N=c1\[n-]c(-c2[nH+]c(CCc3ccc4ccccc4c3)cs2)cs1 (3D coordinates assigned)
FC(F)(F)c1ccccc1/N=c1\[n-]c(-c2[nH+]c(CCc3ccc4ccccc4c3)cs2)cs1 (optimized conformer: 122.74684424906295 kcal/mol)

>  <smiles>  (70) 
FC(F)(F)c1ccccc1N=c1[nH]c(-c2nc(CCc3ccc4ccccc4c3)cs2)cs1

>  <score_type>  (70) 
oracle

>  <origin>  (70) 
adg

>  <m_score__min__energy>  (70) 
-10.380000000000001

>  <m_primary>  (70) 
energy

$$$$
70:0
     RDKit          3D

 61 63  0  0  0  0  0  0  0  0999 V2000
   61.2580   32.0770   51.5110 C   0  0  0  0  0  0  0  0  0  0  0  0
   62.0820   31.5350   50.4200 N   0  0  0  0  0  0  0  0  0  0  0  0
   61.2700   30.6290   49.5770 C   0  0  0  0  0  0  0  0  0  0  0  0
   59.8050   31.0840   49.4870 C   0  0  0  0  0  0  0  0  0  0  0  0
   58.8060   29.9670   49.6680 C   0  0  0  0  0  0  0  0  0  0  0  0
   57.8600   30.1010   50.4890 O   0  0  0  0  0  0  0  0  0  0  0  0
   58.9350   28.7050   48.9920 N   0  0  0  0  0  0  0  0  0  0  0  0
   59.0910   28.4280   47.5600 C   0  0  1  0  0  0  0  0  0  0  0  0
   60.2430   27.4350   47.3100 C   0  0  0  0  0  0  0  0  0  0  0  0
   60.0630   26.7110   45.9800 C   0  0  0  0  0  0  0  0  0  0  0  0
   58.7850   25.8710   46.0170 C   0  0  0  0  0  0  0  0  0  0  0  0
   57.6370   26.6220   46.5520 N   0  0  0  0  0  0  0  0  0  0  0  0
   56.3490   25.9730   46.5880 C   0  0  0  0  0  0  0  0  0  0  0  0
   55.2110   26.5980   45.9940 N   0  0  0  0  0  0  0  0  0  0  0  0
   56.2150   24.8440   47.1350 O   0  0  0  0  0  0  0  0  0  0  0  0
   57.7460   28.0570   46.8750 C   0  0  0  0  0  0  0  0  0  0  0  0
   62.7480   32.8690   49.4950 S   0  0  0  0  0  0  0  0  0  0  0  0
   63.1180   33.9860   50.4330 O   0  0  0  0  0  0  0  0  0  0  0  0
   64.0040   32.4410   48.7900 O   0  0  0  0  0  0  0  0  0  0  0  0
   61.5990   33.4900   48.3040 C   0  0  0  0  0  0  0  0  0  0  0  0
   61.8430   33.3230   46.9360 C   0  0  0  0  0  0  0  0  0  0  0  0
   60.9280   33.7990   45.9930 C   0  0  0  0  0  0  0  0  0  0  0  0
   59.7550   34.4570   46.4110 C   0  0  0  0  0  0  0  0  0  0  0  0
   58.8030   34.9560   45.5070 O   0  0  0  0  0  0  0  0  0  0  0  0
   57.6990   34.2170   44.9770 C   0  0  0  0  0  0  0  0  0  0  0  0
   58.1760   33.2010   43.9320 C   0  0  0  0  0  0  0  0  0  0  0  0
   58.1250   31.8230   44.5910 C   0  0  0  0  0  0  0  0  0  0  0  0
   57.7890   32.0580   46.0550 C   0  0  0  0  0  0  0  0  0  0  0  0
   57.0700   33.3920   46.0900 C   0  0  0  0  0  0  0  0  0  0  0  0
   59.5180   34.6220   47.7800 C   0  0  0  0  0  0  0  0  0  0  0  0
   60.4260   34.1320   48.7230 C   0  0  0  0  0  0  0  0  0  0  0  0
   61.6953   31.7893   52.4785 H   0  0  0  0  0  0  0  0  0  0  0  0
   61.2248   33.1739   51.4353 H   0  0  0  0  0  0  0  0  0  0  0  0
   60.2376   31.6731   51.4353 H   0  0  0  0  0  0  0  0  0  0  0  0
   61.6981   30.6080   48.5639 H   0  0  0  0  0  0  0  0  0  0  0  0
   61.2875   29.6302   50.0376 H   0  0  0  0  0  0  0  0  0  0  0  0
   59.6276   31.8375   50.2685 H   0  0  0  0  0  0  0  0  0  0  0  0
   59.6565   31.4844   48.4733 H   0  0  0  0  0  0  0  0  0  0  0  0
   59.3921   29.3598   47.0588 H   0  0  0  0  0  0  0  0  0  0  0  0
   61.1951   27.9857   47.2936 H   0  0  0  0  0  0  0  0  0  0  0  0
   60.2429   26.6883   48.1177 H   0  0  0  0  0  0  0  0  0  0  0  0
   59.9910   27.4501   45.1685 H   0  0  0  0  0  0  0  0  0  0  0  0
   60.9262   26.0520   45.8051 H   0  0  0  0  0  0  0  0  0  0  0  0
   58.5475   25.5434   44.9941 H   0  0  0  0  0  0  0  0  0  0  0  0
   58.9654   25.0137   46.6822 H   0  0  0  0  0  0  0  0  0  0  0  0
   54.4730   27.0430   46.5840 H   0  0  0  0  0  0  0  0  0  0  0  0
   57.6576   28.6334   45.9423 H   0  0  0  0  0  0  0  0  0  0  0  0
   56.9401   28.2953   47.5847 H   0  0  0  0  0  0  0  0  0  0  0  0
   62.7593   32.8147   46.6015 H   0  0  0  0  0  0  0  0  0  0  0  0
   61.1248   33.6592   44.9198 H   0  0  0  0  0  0  0  0  0  0  0  0
   56.9964   34.9391   44.5356 H   0  0  0  0  0  0  0  0  0  0  0  0
   57.5144   33.2241   43.0535 H   0  0  0  0  0  0  0  0  0  0  0  0
   59.1958   33.4362   43.5935 H   0  0  0  0  0  0  0  0  0  0  0  0
   57.3490   31.2036   44.1175 H   0  0  0  0  0  0  0  0  0  0  0  0
   59.0832   31.2939   44.4823 H   0  0  0  0  0  0  0  0  0  0  0  0
   57.1359   31.2580   46.4339 H   0  0  0  0  0  0  0  0  0  0  0  0
   58.6889   32.0599   46.6876 H   0  0  0  0  0  0  0  0  0  0  0  0
   55.9941   33.2546   45.9067 H   0  0  0  0  0  0  0  0  0  0  0  0
   57.1660   33.8838   47.0692 H   0  0  0  0  0  0  0  0  0  0  0  0
   58.6091   35.1419   48.1172 H   0  0  0  0  0  0  0  0  0  0  0  0
   60.2192   34.2507   49.7969 H   0  0  0  0  0  0  0  0  0  0  0  0
  1  2  1  0
  2  3  1  0
  3  4  1  0
  4  5  1  0
  5  6  2  0
  5  7  1  0
  7  8  1  0
  8  9  1  0
  9 10  1  0
 10 11  1  0
 11 12  1  0
 12 13  1  0
 13 14  1  0
 13 15  2  0
 12 16  1  0
  2 17  1  0
 17 18  2  0
 17 19  2  0
 17 20  1  0
 20 21  2  0
 21 22  1  0
 22 23  2  0
 23 24  1  0
 24 25  1  0
 25 26  1  0
 26 27  1  0
 27 28  1  0
 28 29  1  0
 23 30  1  0
 30 31  2  0
 16  8  1  0
 31 20  1  0
 29 25  1  0
  1 32  1  0
  1 33  1  0
  1 34  1  0
  3 35  1  0
  3 36  1  0
  4 37  1  0
  4 38  1  0
  8 39  1  6
  9 40  1  0
  9 41  1  0
 10 42  1  0
 10 43  1  0
 11 44  1  0
 11 45  1  0
 14 46  1  0
 16 47  1  0
 16 48  1  0
 21 49  1  0
 22 50  1  0
 25 51  1  0
 26 52  1  0
 26 53  1  0
 27 54  1  0
 27 55  1  0
 28 56  1  0
 28 57  1  0
 29 58  1  0
 29 59  1  0
 30 60  1  0
 31 61  1  0
M  CHG  2   7  -1  14  -1
M  END
>  <UniqueID>  (71) 
68

>  <SMILES>  (71) 
CN(CCC(=O)[N-][C@H]1CCCN(C([NH-])=O)C1)S(=O)(=O)c1ccc(OC2CCCC2)cc1

>  <Energy>  (71) 
61.339444091364165

>  <Genealogy>  (71) 
CN(CCC(=O)[N-]C1CCCN(C([NH-])=O)C1)S(=O)(=O)c1ccc(OC2CCCC2)cc1 (protonated)
CN(CCC(=O)[N-][C@H]1CCCN(C([NH-])=O)C1)S(=O)(=O)c1ccc(OC2CCCC2)cc1 (chirality)
CN(CCC(=O)[N-][C@H]1CCCN(C([NH-])=O)C1)S(=O)(=O)c1ccc(OC2CCCC2)cc1 (3D coordinates assigned)
CN(CCC(=O)[N-][C@H]1CCCN(C([NH-])=O)C1)S(=O)(=O)c1ccc(OC2CCCC2)cc1 (nonaromatic ring conformer: 61.339444091364165 kcal/mol)

>  <smiles>  (71) 
CN(CCC(=O)NC1CCCN(C(N)=O)C1)S(=O)(=O)c1ccc(OC2CCCC2)cc1

>  <score_type>  (71) 
oracle

>  <origin>  (71) 
adg

>  <m_score__min__energy>  (71) 
-13.56

>  <m_primary>  (71) 
energy

$$$$
71:0
     RDKit          3D

 25 26  0  0  0  0  0  0  0  0999 V2000
   59.1650   33.9310   44.1050 C   0  0  0  0  0  0  0  0  0  0  0  0
   58.3400   32.7310   44.4640 C   0  0  0  0  0  0  0  0  0  0  0  0
   57.6140   31.9580   43.5770 C   0  0  0  0  0  0  0  0  0  0  0  0
   57.5050   32.1940   41.6770 Br  0  0  0  0  0  0  0  0  0  0  0  0
   56.9910   31.0050   44.3710 C   0  0  0  0  0  0  0  0  0  0  0  0
   56.0810   29.9300   43.9430 C   0  0  0  0  0  0  0  0  0  0  0  0
   55.4070   29.1130   44.8960 N   0  0  0  0  0  0  0  0  0  0  0  0
   55.8950   29.7270   42.7130 O   0  0  0  0  0  0  0  0  0  0  0  0
   57.3390   31.1990   45.6590 N   0  0  0  0  0  0  0  0  0  0  0  0
   58.1660   32.2320   45.7110 N   0  0  0  0  0  0  0  0  0  0  0  0
   58.7360   32.7090   46.9410 C   0  0  0  0  0  0  0  0  0  0  0  0
   58.8640   34.0860   47.1930 C   0  0  0  0  0  0  0  0  0  0  0  0
   59.4420   34.5340   48.3850 C   0  0  0  0  0  0  0  0  0  0  0  0
   59.9070   33.6130   49.3290 C   0  0  0  0  0  0  0  0  0  0  0  0
   59.8010   32.2430   49.0770 C   0  0  0  0  0  0  0  0  0  0  0  0
   59.2250   31.7920   47.8850 C   0  0  0  0  0  0  0  0  0  0  0  0
   59.5073   34.4289   45.0242 H   0  0  0  0  0  0  0  0  0  0  0  0
   60.0365   33.6133   43.5138 H   0  0  0  0  0  0  0  0  0  0  0  0
   58.5563   34.6309   43.5138 H   0  0  0  0  0  0  0  0  0  0  0  0
   54.4390   29.3420   45.2110 H   0  0  0  0  0  0  0  0  0  0  0  0
   58.5080   34.8142   46.4494 H   0  0  0  0  0  0  0  0  0  0  0  0
   59.5310   35.6128   48.5804 H   0  0  0  0  0  0  0  0  0  0  0  0
   60.3557   33.9669   50.2689 H   0  0  0  0  0  0  0  0  0  0  0  0
   60.1710   31.5181   49.8170 H   0  0  0  0  0  0  0  0  0  0  0  0
   59.1547   30.7125   47.6859 H   0  0  0  0  0  0  0  0  0  0  0  0
  1  2  1  0
  2  3  2  0
  3  4  1  0
  3  5  1  0
  5  6  1  0
  6  7  1  0
  6  8  2  0
  5  9  2  0
  9 10  1  0
 10 11  1  0
 11 12  2  0
 12 13  1  0
 13 14  2  0
 14 15  1  0
 15 16  2  0
 10  2  1  0
 16 11  1  0
  1 17  1  0
  1 18  1  0
  1 19  1  0
  7 20  1  0
 12 21  1  0
 13 22  1  0
 14 23  1  0
 15 24  1  0
 16 25  1  0
M  CHG  1   7  -1
M  END
>  <UniqueID>  (72) 
69

>  <SMILES>  (72) 
Cc1c(Br)c(C([NH-])=O)nn1-c1ccccc1

>  <Energy>  (72) 
60.39437623283443

>  <Genealogy>  (72) 
Cc1c(Br)c(C([NH-])=O)nn1-c1ccccc1 (protonated)
Cc1c(Br)c(C([NH-])=O)nn1-c1ccccc1 (3D coordinates assigned)
Cc1c(Br)c(C([NH-])=O)nn1-c1ccccc1 (optimized conformer: 60.39437623283443 kcal/mol)

>  <smiles>  (72) 
Cc1c(Br)c(C(N)=O)nn1-c1ccccc1

>  <score_type>  (72) 
oracle

>  <origin>  (72) 
adg

>  <m_score__min__energy>  (72) 
-10.26

>  <m_primary>  (72) 
energy

$$$$
72:0
     RDKit          3D

 58 61  0  0  0  0  0  0  0  0999 V2000
   60.1360   30.6440   46.5630 H   0  0  0  0  0  0  0  0  0  0  0  0
   60.6570   30.6290   47.4090 O   0  0  0  0  0  0  0  0  0  0  0  0
   60.4940   31.8770   48.0470 C   0  0  0  0  0  0  0  0  0  0  0  0
   59.5650   31.7330   49.2640 C   0  0  0  0  0  0  0  0  0  0  0  0
   59.0820   30.4670   49.6640 C   0  0  0  0  0  0  0  0  0  0  0  0
   59.3320   29.5769   49.0680 H   0  0  0  0  0  0  0  0  0  0  0  0
   58.2910   30.3320   50.8070 C   0  0  0  0  0  0  0  0  0  0  0  0
   57.9065   29.3422   51.0943 H   0  0  0  0  0  0  0  0  0  0  0  0
   57.9870   31.4500   51.5860 C   0  0  0  0  0  0  0  0  0  0  0  0
   57.3569   31.3425   52.4812 H   0  0  0  0  0  0  0  0  0  0  0  0
   58.4830   32.7030   51.2280 C   0  0  0  0  0  0  0  0  0  0  0  0
   58.2493   33.5824   51.8461 H   0  0  0  0  0  0  0  0  0  0  0  0
   59.2770   32.8450   50.0850 C   0  0  0  0  0  0  0  0  0  0  0  0
   59.6814   33.8339   49.8230 H   0  0  0  0  0  0  0  0  0  0  0  0
   61.9100   32.3670   48.4140 C   0  0  0  0  0  0  0  0  0  0  0  0
   62.4450   32.1400   49.7010 C   0  0  0  0  0  0  0  0  0  0  0  0
   61.8247   31.6558   50.4696 H   0  0  0  0  0  0  0  0  0  0  0  0
   63.7530   32.5230   50.0100 C   0  0  0  0  0  0  0  0  0  0  0  0
   64.1423   32.3747   51.0281 H   0  0  0  0  0  0  0  0  0  0  0  0
   64.5660   33.0930   49.0300 C   0  0  0  0  0  0  0  0  0  0  0  0
   65.5886   33.4120   49.2801 H   0  0  0  0  0  0  0  0  0  0  0  0
   64.0810   33.2580   47.7330 C   0  0  0  0  0  0  0  0  0  0  0  0
   64.7292   33.6884   46.9554 H   0  0  0  0  0  0  0  0  0  0  0  0
   62.7740   32.8780   47.4190 C   0  0  0  0  0  0  0  0  0  0  0  0
   62.4128   32.9777   46.3848 H   0  0  0  0  0  0  0  0  0  0  0  0
   59.7810   32.8370   47.0850 C   0  0  0  0  0  0  0  0  0  0  0  0
   59.9700   34.2300   47.1840 C   0  0  0  0  0  0  0  0  0  0  0  0
   60.5929   34.6384   47.9935 H   0  0  0  0  0  0  0  0  0  0  0  0
   59.3760   35.0960   46.2670 C   0  0  0  0  0  0  0  0  0  0  0  0
   59.5261   36.1815   46.3630 H   0  0  0  0  0  0  0  0  0  0  0  0
   58.5920   34.5930   45.2280 C   0  0  0  0  0  0  0  0  0  0  0  0
   58.1274   35.2852   44.5103 H   0  0  0  0  0  0  0  0  0  0  0  0
   58.3920   33.2120   45.0920 C   0  0  0  0  0  0  0  0  0  0  0  0
   57.5650   32.7200   43.9630 C   0  0  0  0  0  0  0  0  0  0  0  0
   56.7794   33.3795   43.5657 H   0  0  0  0  0  0  0  0  0  0  0  0
   57.7260   31.5110   43.4010 C   0  0  0  0  0  0  0  0  0  0  0  0
   57.7884   31.4582   42.3040 H   0  0  0  0  0  0  0  0  0  0  0  0
   57.8250   30.2450   44.1610 C   0  0  0  0  0  0  0  0  0  0  0  0
   59.0420   29.8360   44.5180 O   0  0  0  0  0  0  0  0  0  0  0  0
   59.2640   28.7160   45.2040 C   0  0  0  0  0  0  0  0  0  0  0  0
   60.6710   28.3450   45.5680 C   0  0  0  0  0  0  0  0  0  0  0  0
   61.1538   29.1995   46.0648 H   0  0  0  0  0  0  0  0  0  0  0  0
   61.2182   28.0812   44.6509 H   0  0  0  0  0  0  0  0  0  0  0  0
   60.6800   27.1410   46.5140 C   0  0  0  0  0  0  0  0  0  0  0  0
   61.6619   26.6482   46.4587 H   0  0  0  0  0  0  0  0  0  0  0  0
   59.8820   26.4493   46.2062 H   0  0  0  0  0  0  0  0  0  0  0  0
   60.4190   27.5710   47.9540 C   0  0  0  0  0  0  0  0  0  0  0  0
   60.8643   26.8374   48.6422 H   0  0  0  0  0  0  0  0  0  0  0  0
   60.8700   28.5589   48.1292 H   0  0  0  0  0  0  0  0  0  0  0  0
   59.3345   27.6268   48.1292 H   0  0  0  0  0  0  0  0  0  0  0  0
   58.1870   27.9140   45.6030 C   0  0  0  0  0  0  0  0  0  0  0  0
   58.3581   26.9899   46.1746 H   0  0  0  0  0  0  0  0  0  0  0  0
   56.8940   28.3090   45.2620 C   0  0  0  0  0  0  0  0  0  0  0  0
   55.9050   27.6110   45.6140 O   0  0  0  0  0  0  0  0  0  0  0  0
   56.7010   29.4830   44.5350 C   0  0  0  0  0  0  0  0  0  0  0  0
   55.6875   29.8088   44.2581 H   0  0  0  0  0  0  0  0  0  0  0  0
   59.0150   32.3400   46.0070 C   0  0  0  0  0  0  0  0  0  0  0  0
   58.9029   31.2532   45.8796 H   0  0  0  0  0  0  0  0  0  0  0  0
  1  2  1  0
  2  3  1  0
  3  4  1  0
  4  5  2  0
  5  6  1  0
  5  7  1  0
  7  8  1  0
  7  9  2  0
  9 10  1  0
  9 11  1  0
 11 12  1  0
 11 13  2  0
 13 14  1  0
  3 15  1  0
 15 16  2  0
 16 17  1  0
 16 18  1  0
 18 19  1  0
 18 20  2  0
 20 21  1  0
 20 22  1  0
 22 23  1  0
 22 24  2  0
 24 25  1  0
  3 26  1  0
 26 27  2  0
 27 28  1  0
 27 29  1  0
 29 30  1  0
 29 31  2  0
 31 32  1  0
 31 33  1  0
 33 34  1  0
 34 35  1  0
 34 36  2  0
 36 37  1  0
 36 38  1  0
 38 39  1  0
 39 40  1  0
 40 41  1  0
 41 42  1  0
 41 43  1  0
 41 44  1  0
 44 45  1  0
 44 46  1  0
 44 47  1  0
 47 48  1  0
 47 49  1  0
 47 50  1  0
 40 51  2  0
 51 52  1  0
 51 53  1  0
 53 54  2  0
 53 55  1  0
 55 56  1  0
 33 57  2  0
 57 58  1  0
 13  4  1  0
 24 15  1  0
 57 26  1  0
 55 38  2  0
M  END
>  <UniqueID>  (73) 
70

>  <SMILES>  (73) 
CCCc1cc(=O)cc(/C=C/c2cccc(C(O)(c3ccccc3)c3ccccc3)c2)o1

>  <Energy>  (73) 
73.93592635246034

>  <Genealogy>  (73) 
CCCc1cc(=O)cc(/C=C/c2cccc(C(O)(c3ccccc3)c3ccccc3)c2)o1 (cis-trans isomerization)
CCCc1cc(=O)cc(/C=C/c2cccc(C(O)(c3ccccc3)c3ccccc3)c2)o1 (3D coordinates assigned)
CCCc1cc(=O)cc(/C=C/c2cccc(C(O)(c3ccccc3)c3ccccc3)c2)o1 (optimized conformer: 73.93592635246034 kcal/mol)

>  <smiles>  (73) 
CCCc1cc(=O)cc(C=Cc2cccc(C(O)(c3ccccc3)c3ccccc3)c2)o1

>  <score_type>  (73) 
oracle

>  <origin>  (73) 
adg

>  <m_score__min__energy>  (73) 
-10.119999999999999

>  <m_primary>  (73) 
energy

$$$$
73:0
     RDKit          3D

 54 57  0  0  0  0  0  0  0  0999 V2000
   55.3020   23.0510   47.6010 C   0  0  0  0  0  0  0  0  0  0  0  0
   56.7360   22.7280   47.8590 C   0  0  0  0  0  0  0  0  0  0  0  0
   57.0420   21.6030   48.3320 O   0  0  0  0  0  0  0  0  0  0  0  0
   57.7460   23.6680   47.4730 N   0  0  0  0  0  0  0  0  0  0  0  0
   57.6110   24.7750   46.5650 C   0  0  0  0  0  0  0  0  0  0  0  0
   57.2100   26.0120   47.0820 C   0  0  0  0  0  0  0  0  0  0  0  0
   57.0930   27.1260   46.2480 C   0  0  0  0  0  0  0  0  0  0  0  0
   57.3970   27.0300   44.8850 C   0  0  0  0  0  0  0  0  0  0  0  0
   57.2370   28.2010   44.0690 N   0  0  0  0  0  0  0  0  0  0  0  0
   56.4890   29.3880   44.3660 C   0  0  0  0  0  0  0  0  0  0  0  0
   55.3530   29.3240   44.9070 O   0  0  0  0  0  0  0  0  0  0  0  0
   57.0620   30.7220   44.0160 C   0  0  0  0  0  0  0  0  0  0  0  0
   57.8330   31.4950   45.4820 S   0  0  0  0  0  0  0  0  0  0  0  0
   58.9720   30.1370   45.8020 C   0  0  0  0  0  0  0  0  0  0  0  0
   59.6470   29.5470   44.7250 C   0  0  0  0  0  0  0  0  0  0  0  0
   60.5300   28.4870   44.9430 C   0  0  0  0  0  0  0  0  0  0  0  0
   60.7400   28.0080   46.2370 C   0  0  0  0  0  0  0  0  0  0  0  0
   60.0840   28.6020   47.3190 C   0  0  0  0  0  0  0  0  0  0  0  0
   59.2140   29.6880   47.1140 C   0  0  0  0  0  0  0  0  0  0  0  0
   58.5270   30.3120   48.2080 N   0  0  0  0  0  0  0  0  0  0  0  0
   58.9110   31.5260   48.8680 C   0  0  0  0  0  0  0  0  0  0  0  0
   58.8650   31.6050   50.1250 O   0  0  0  0  0  0  0  0  0  0  0  0
   59.4830   32.6380   48.0740 C   0  0  0  0  0  0  0  0  0  0  0  0
   58.6020   33.6230   47.5950 C   0  0  0  0  0  0  0  0  0  0  0  0
   59.0560   34.6540   46.7740 C   0  0  0  0  0  0  0  0  0  0  0  0
   60.3960   34.7180   46.4030 C   0  0  0  0  0  0  0  0  0  0  0  0
   61.3060   33.7640   46.8750 C   0  0  0  0  0  0  0  0  0  0  0  0
   62.6570   33.8430   46.5000 C   0  0  0  0  0  0  0  0  0  0  0  0
   63.5810   32.9250   47.0000 C   0  0  0  0  0  0  0  0  0  0  0  0
   63.1720   31.9380   47.8940 C   0  0  0  0  0  0  0  0  0  0  0  0
   61.8290   31.8390   48.2700 C   0  0  0  0  0  0  0  0  0  0  0  0
   60.8660   32.7250   47.7420 C   0  0  0  0  0  0  0  0  0  0  0  0
   57.7940   25.7870   44.3590 C   0  0  0  0  0  0  0  0  0  0  0  0
   57.9140   24.6720   45.1950 C   0  0  0  0  0  0  0  0  0  0  0  0
   54.7748   23.1698   48.5591 H   0  0  0  0  0  0  0  0  0  0  0  0
   55.2345   23.9869   47.0269 H   0  0  0  0  0  0  0  0  0  0  0  0
   54.8398   22.2345   47.0269 H   0  0  0  0  0  0  0  0  0  0  0  0
   56.9850   26.1077   48.1545 H   0  0  0  0  0  0  0  0  0  0  0  0
   56.7591   28.0872   46.6658 H   0  0  0  0  0  0  0  0  0  0  0  0
   57.8231   30.5942   43.2322 H   0  0  0  0  0  0  0  0  0  0  0  0
   56.2515   31.3731   43.6565 H   0  0  0  0  0  0  0  0  0  0  0  0
   59.4808   29.9202   43.7037 H   0  0  0  0  0  0  0  0  0  0  0  0
   61.0601   28.0296   44.0946 H   0  0  0  0  0  0  0  0  0  0  0  0
   61.4226   27.1620   46.4056 H   0  0  0  0  0  0  0  0  0  0  0  0
   60.2491   28.2180   48.3365 H   0  0  0  0  0  0  0  0  0  0  0  0
   57.5384   33.5796   47.8722 H   0  0  0  0  0  0  0  0  0  0  0  0
   58.3521   35.4205   46.4177 H   0  0  0  0  0  0  0  0  0  0  0  0
   60.7417   35.5215   45.7361 H   0  0  0  0  0  0  0  0  0  0  0  0
   62.9882   34.6322   45.8090 H   0  0  0  0  0  0  0  0  0  0  0  0
   64.6343   32.9807   46.6878 H   0  0  0  0  0  0  0  0  0  0  0  0
   63.9092   31.2332   48.3061 H   0  0  0  0  0  0  0  0  0  0  0  0
   61.5198   31.0623   48.9849 H   0  0  0  0  0  0  0  0  0  0  0  0
   58.0111   25.6915   43.2849 H   0  0  0  0  0  0  0  0  0  0  0  0
   58.2470   23.7096   44.7791 H   0  0  0  0  0  0  0  0  0  0  0  0
  1  2  1  0
  2  3  2  0
  2  4  1  0
  4  5  1  0
  5  6  2  0
  6  7  1  0
  7  8  2  0
  8  9  1  0
  9 10  1  0
 10 11  2  0
 10 12  1  0
 12 13  1  0
 13 14  1  0
 14 15  2  0
 15 16  1  0
 16 17  2  0
 17 18  1  0
 18 19  2  0
 19 20  1  0
 20 21  1  0
 21 22  2  0
 21 23  1  0
 23 24  2  0
 24 25  1  0
 25 26  2  0
 26 27  1  0
 27 28  2  0
 28 29  1  0
 29 30  2  0
 30 31  1  0
 31 32  2  0
  8 33  1  0
 33 34  2  0
 34  5  1  0
 19 14  1  0
 32 23  1  0
 32 27  1  0
  1 35  1  0
  1 36  1  0
  1 37  1  0
  6 38  1  0
  7 39  1  0
 12 40  1  0
 12 41  1  0
 15 42  1  0
 16 43  1  0
 17 44  1  0
 18 45  1  0
 24 46  1  0
 25 47  1  0
 26 48  1  0
 28 49  1  0
 29 50  1  0
 30 51  1  0
 31 52  1  0
 33 53  1  0
 34 54  1  0
M  CHG  3   4  -1   9  -1  20  -1
M  END
>  <UniqueID>  (74) 
71

>  <SMILES>  (74) 
CC(=O)[N-]c1ccc([N-]C(=O)CSc2ccccc2[N-]C(=O)c2cccc3ccccc23)cc1

>  <Energy>  (74) 
65.86413000196191

>  <Genealogy>  (74) 
CC(=O)[N-]c1ccc([N-]C(=O)CSc2ccccc2[N-]C(=O)c2cccc3ccccc23)cc1 (protonated)
CC(=O)[N-]c1ccc([N-]C(=O)CSc2ccccc2[N-]C(=O)c2cccc3ccccc23)cc1 (3D coordinates assigned)
CC(=O)[N-]c1ccc([N-]C(=O)CSc2ccccc2[N-]C(=O)c2cccc3ccccc23)cc1 (optimized conformer: 65.86413000196191 kcal/mol)

>  <smiles>  (74) 
CC(=O)Nc1ccc(NC(=O)CSc2ccccc2NC(=O)c2cccc3ccccc23)cc1

>  <score_type>  (74) 
oracle

>  <origin>  (74) 
adg

>  <m_score__min__energy>  (74) 
-14.42

>  <m_primary>  (74) 
energy

$$$$
74:0
     RDKit          3D

 27 28  0  0  0  0  0  0  0  0999 V2000
   56.1423   29.4686   41.8389 H   0  0  0  0  0  0  0  0  0  0  0  0
   56.4820   30.2150   42.5720 C   0  0  0  0  0  0  0  0  0  0  0  0
   57.4010   31.5870   42.2340 S   0  0  0  0  0  0  0  0  0  0  0  0
   57.4320   32.0880   43.8440 C   0  0  0  0  0  0  0  0  0  0  0  0
   58.0140   33.1550   44.3030 N   0  0  0  0  0  0  0  0  0  0  0  0
   58.2700   33.4800   45.9880 S   0  0  0  0  0  0  0  0  0  0  0  0
   58.5160   34.9510   46.1740 O   0  0  0  0  0  0  0  0  0  0  0  0
   57.0370   33.0940   46.7550 O   0  0  0  0  0  0  0  0  0  0  0  0
   59.6780   32.5900   46.5710 C   0  0  0  0  0  0  0  0  0  0  0  0
   60.9010   33.2570   46.7490 C   0  0  0  0  0  0  0  0  0  0  0  0
   60.9792   34.3281   46.5111 H   0  0  0  0  0  0  0  0  0  0  0  0
   62.0180   32.5690   47.2260 C   0  0  0  0  0  0  0  0  0  0  0  0
   63.6740   33.4880   47.4710 Br  0  0  0  0  0  0  0  0  0  0  0  0
   61.9240   31.2080   47.5260 C   0  0  0  0  0  0  0  0  0  0  0  0
   62.8046   30.6667   47.9024 H   0  0  0  0  0  0  0  0  0  0  0  0
   60.7140   30.5330   47.3490 C   0  0  0  0  0  0  0  0  0  0  0  0
   60.6465   29.4609   47.5857 H   0  0  0  0  0  0  0  0  0  0  0  0
   59.5790   31.2170   46.8690 C   0  0  0  0  0  0  0  0  0  0  0  0
   58.3490   30.5670   46.6780 O   0  0  0  0  0  0  0  0  0  0  0  0
   58.1930   29.1600   46.5250 C   0  0  0  0  0  0  0  0  0  0  0  0
   58.1405   28.6869   47.5167 H   0  0  0  0  0  0  0  0  0  0  0  0
   57.2663   28.9520   45.9701 H   0  0  0  0  0  0  0  0  0  0  0  0
   59.0516   28.7541   45.9701 H   0  0  0  0  0  0  0  0  0  0  0  0
   56.7560   31.2300   44.6360 N   0  0  0  0  0  0  0  0  0  0  0  0
   56.6480   31.3480   45.6680 H   0  0  0  0  0  0  0  0  0  0  0  0
   56.2280   30.1910   43.9390 C   0  0  0  0  0  0  0  0  0  0  0  0
   55.6442   29.3917   44.4189 H   0  0  0  0  0  0  0  0  0  0  0  0
  1  2  1  0
  2  3  1  0
  3  4  1  0
  4  5  2  0
  5  6  1  0
  6  7  2  0
  6  8  2  0
  6  9  1  0
  9 10  2  0
 10 11  1  0
 10 12  1  0
 12 13  1  0
 12 14  2  0
 14 15  1  0
 14 16  1  0
 16 17  1  0
 16 18  2  0
 18 19  1  0
 19 20  1  0
 20 21  1  0
 20 22  1  0
 20 23  1  0
  4 24  1  0
 24 25  1  0
 24 26  1  0
 26 27  1  0
 26  2  2  0
 18  9  1  0
M  END
>  <UniqueID>  (75) 
72

>  <SMILES>  (75) 
COc1ccc(Br)cc1S(=O)(=O)/N=c1/[nH]ccs1

>  <Energy>  (75) 
60.01512698174577

>  <Genealogy>  (75) 
COc1ccc(Br)cc1S(=O)(=O)/N=c1/[nH]ccs1 (cis-trans isomerization)
COc1ccc(Br)cc1S(=O)(=O)/N=c1/[nH]ccs1 (3D coordinates assigned)
COc1ccc(Br)cc1S(=O)(=O)/N=c1/[nH]ccs1 (optimized conformer: 60.01512698174577 kcal/mol)

>  <smiles>  (75) 
COc1ccc(Br)cc1S(=O)(=O)N=c1[nH]ccs1

>  <score_type>  (75) 
oracle

>  <origin>  (75) 
adg

>  <m_score__min__energy>  (75) 
-7.25

>  <m_primary>  (75) 
energy

$$$$
75:0
     RDKit          3D

 38 40  0  0  0  0  0  0  0  0999 V2000
   62.4660   32.3230   47.4520 C   0  0  0  0  0  0  0  0  0  0  0  0
   61.4920   31.4440   48.2210 C   0  0  0  0  0  0  0  0  0  0  0  0
   60.9010   30.5030   47.3330 O   0  0  0  0  0  0  0  0  0  0  0  0
   59.5290   30.2350   47.3260 C   0  0  0  0  0  0  0  0  0  0  0  0
   58.9130   30.0080   48.4040 O   0  0  0  0  0  0  0  0  0  0  0  0
   58.7780   30.2830   46.0190 C   0  0  1  0  0  0  0  0  0  0  0  0
   58.0900   28.9540   45.7000 C   0  0  0  0  0  0  0  0  0  0  0  0
   58.7490   27.6560   45.9740 C   0  0  0  0  0  0  0  0  0  0  0  0
   58.0950   26.4390   46.1500 C   0  0  0  0  0  0  0  0  0  0  0  0
   58.9660   25.3590   46.3380 C   0  0  0  0  0  0  0  0  0  0  0  0
   60.3080   25.7100   46.3000 C   0  0  0  0  0  0  0  0  0  0  0  0
   60.4090   27.3650   46.0290 S   0  0  0  0  0  0  0  0  0  0  0  0
   56.9840   28.9320   45.0110 N   0  0  0  0  0  0  0  0  0  0  0  0
   56.3310   30.1190   44.5590 C   0  0  0  0  0  0  0  0  0  0  0  0
   55.3420   30.0410   43.7860 O   0  0  0  0  0  0  0  0  0  0  0  0
   56.8270   31.3890   44.9640 N   0  0  0  0  0  0  0  0  0  0  0  0
   57.7670   31.4610   46.0740 C   0  0  2  0  0  0  0  0  0  0  0  0
   58.4760   32.7980   46.0630 C   0  0  0  0  0  0  0  0  0  0  0  0
   58.8900   33.4020   47.2640 C   0  0  0  0  0  0  0  0  0  0  0  0
   59.4990   34.6620   47.2480 C   0  0  0  0  0  0  0  0  0  0  0  0
   59.6900   35.3320   46.0380 C   0  0  0  0  0  0  0  0  0  0  0  0
   59.2710   34.7470   44.8400 C   0  0  0  0  0  0  0  0  0  0  0  0
   58.6650   33.4870   44.8500 C   0  0  0  0  0  0  0  0  0  0  0  0
   63.0902   32.8863   48.1613 H   0  0  0  0  0  0  0  0  0  0  0  0
   63.1079   31.6925   46.8192 H   0  0  0  0  0  0  0  0  0  0  0  0
   61.9044   33.0260   46.8192 H   0  0  0  0  0  0  0  0  0  0  0  0
   62.0306   30.9090   49.0170 H   0  0  0  0  0  0  0  0  0  0  0  0
   60.7061   32.0707   48.6678 H   0  0  0  0  0  0  0  0  0  0  0  0
   59.4910   30.4510   45.1984 H   0  0  0  0  0  0  0  0  0  0  0  0
   56.9998   26.3362   46.1421 H   0  0  0  0  0  0  0  0  0  0  0  0
   58.6187   24.3280   46.5007 H   0  0  0  0  0  0  0  0  0  0  0  0
   61.1583   25.0236   46.4256 H   0  0  0  0  0  0  0  0  0  0  0  0
   57.2107   31.3722   47.0188 H   0  0  0  0  0  0  0  0  0  0  0  0
   58.7343   32.8815   48.2205 H   0  0  0  0  0  0  0  0  0  0  0  0
   59.8277   35.1251   48.1901 H   0  0  0  0  0  0  0  0  0  0  0  0
   60.1708   36.3213   46.0277 H   0  0  0  0  0  0  0  0  0  0  0  0
   59.4181   35.2784   43.8882 H   0  0  0  0  0  0  0  0  0  0  0  0
   58.3341   33.0316   43.9049 H   0  0  0  0  0  0  0  0  0  0  0  0
  1  2  1  0
  2  3  1  0
  3  4  1  0
  4  5  2  0
  4  6  1  0
  6  7  1  0
  7  8  1  0
  8  9  2  0
  9 10  1  0
 10 11  2  0
 11 12  1  0
  7 13  2  0
 13 14  1  0
 14 15  2  0
 14 16  1  0
 16 17  1  0
 17 18  1  0
 18 19  2  0
 19 20  1  0
 20 21  2  0
 21 22  1  0
 22 23  2  0
 17  6  1  0
 23 18  1  0
 12  8  1  0
  1 24  1  0
  1 25  1  0
  1 26  1  0
  2 27  1  0
  2 28  1  0
  6 29  1  6
  9 30  1  0
 10 31  1  0
 11 32  1  0
 17 33  1  1
 19 34  1  0
 20 35  1  0
 21 36  1  0
 22 37  1  0
 23 38  1  0
M  CHG  1  16  -1
M  END
>  <UniqueID>  (76) 
73

>  <SMILES>  (76) 
CCOC(=O)[C@H]1C(c2cccs2)=NC(=O)[N-][C@@H]1c1ccccc1

>  <Energy>  (76) 
63.013040618725604

>  <Genealogy>  (76) 
CCOC(=O)C1C(c2cccs2)=NC(=O)[N-]C1c1ccccc1 (protonated)
CCOC(=O)[C@H]1C(c2cccs2)=NC(=O)[N-][C@@H]1c1ccccc1 (chirality)
CCOC(=O)[C@H]1C(c2cccs2)=NC(=O)[N-][C@@H]1c1ccccc1 (3D coordinates assigned)
CCOC(=O)[C@H]1C(c2cccs2)=NC(=O)[N-][C@@H]1c1ccccc1 (nonaromatic ring conformer: 63.013040618725604 kcal/mol)

>  <smiles>  (76) 
CCOC(=O)C1C(c2cccs2)=NC(=O)NC1c1ccccc1

>  <score_type>  (76) 
oracle

>  <origin>  (76) 
adg

>  <m_score__min__energy>  (76) 
-8.7100000000000009

>  <m_primary>  (76) 
energy

$$$$
76:0
     RDKit          3D

 52 55  0  0  0  0  0  0  0  0999 V2000
   57.7770   27.7630   43.0470 C   0  0  0  0  0  0  0  0  0  0  0  0
   58.2110   28.0500   44.4630 C   0  0  0  0  0  0  0  0  0  0  0  0
   59.3610   27.4090   44.9590 C   0  0  0  0  0  0  0  0  0  0  0  0
   59.8100   27.6610   46.2550 C   0  0  0  0  0  0  0  0  0  0  0  0
   59.1210   28.5530   47.0760 C   0  0  0  0  0  0  0  0  0  0  0  0
   57.9780   29.1980   46.6050 C   0  0  0  0  0  0  0  0  0  0  0  0
   57.5010   28.9510   45.3050 C   0  0  0  0  0  0  0  0  0  0  0  0
   56.2750   29.6540   44.8680 C   0  0  0  0  0  0  0  0  0  0  0  0
   55.2050   29.0040   44.7260 O   0  0  0  0  0  0  0  0  0  0  0  0
   56.3090   31.0520   44.5520 N   0  0  0  0  0  0  0  0  0  0  0  0
   57.3840   31.6800   43.7920 C   0  0  0  0  0  0  0  0  0  0  0  0
   57.7670   33.0200   44.4270 C   0  0  0  0  0  0  0  0  0  0  0  0
   59.0660   32.9010   45.1250 N   0  0  0  0  0  0  0  0  0  0  0  0
   59.6320   34.1970   45.5390 C   0  0  0  0  0  0  0  0  0  0  0  0
   58.8900   34.7950   46.7550 C   0  0  0  0  0  0  0  0  0  0  0  0
   58.8850   33.8390   47.9630 C   0  0  0  0  0  0  0  0  0  0  0  0
   60.1650   33.7010   48.7200 N   0  0  0  0  0  0  0  0  0  0  0  0
   60.2510   33.8520   50.0780 C   0  0  0  0  0  0  0  0  0  0  0  0
   59.2700   34.1640   50.8050 O   0  0  0  0  0  0  0  0  0  0  0  0
   61.4900   33.6920   50.5940 N   0  0  0  0  0  0  0  0  0  0  0  0
   62.2370   33.4730   49.5070 C   0  0  0  0  0  0  0  0  0  0  0  0
   63.6180   33.2950   49.4870 C   0  0  0  0  0  0  0  0  0  0  0  0
   64.2470   33.1710   48.2410 C   0  0  0  0  0  0  0  0  0  0  0  0
   63.4920   33.2530   47.0560 C   0  0  0  0  0  0  0  0  0  0  0  0
   62.0990   33.4400   47.1030 C   0  0  0  0  0  0  0  0  0  0  0  0
   61.4700   33.5110   48.3640 C   0  0  0  0  0  0  0  0  0  0  0  0
   58.3380   32.4680   47.4970 C   0  0  0  0  0  0  0  0  0  0  0  0
   59.0590   31.9340   46.2460 C   0  0  0  0  0  0  0  0  0  0  0  0
   56.8595   27.1563   43.0605 H   0  0  0  0  0  0  0  0  0  0  0  0
   57.5821   28.7109   42.5240 H   0  0  0  0  0  0  0  0  0  0  0  0
   58.5729   27.2126   42.5240 H   0  0  0  0  0  0  0  0  0  0  0  0
   59.9106   26.7030   44.3191 H   0  0  0  0  0  0  0  0  0  0  0  0
   60.7110   27.1543   46.6310 H   0  0  0  0  0  0  0  0  0  0  0  0
   59.4799   28.7482   48.0973 H   0  0  0  0  0  0  0  0  0  0  0  0
   57.4446   29.9063   47.2559 H   0  0  0  0  0  0  0  0  0  0  0  0
   58.2612   31.0163   43.7868 H   0  0  0  0  0  0  0  0  0  0  0  0
   57.0404   31.8558   42.7619 H   0  0  0  0  0  0  0  0  0  0  0  0
   57.8455   33.7855   43.6410 H   0  0  0  0  0  0  0  0  0  0  0  0
   56.9933   33.3071   45.1543 H   0  0  0  0  0  0  0  0  0  0  0  0
   60.6897   34.0532   45.8048 H   0  0  0  0  0  0  0  0  0  0  0  0
   59.5228   34.8977   44.6982 H   0  0  0  0  0  0  0  0  0  0  0  0
   59.3867   35.7320   47.0471 H   0  0  0  0  0  0  0  0  0  0  0  0
   57.8450   34.9704   46.4595 H   0  0  0  0  0  0  0  0  0  0  0  0
   58.2275   34.3027   48.7131 H   0  0  0  0  0  0  0  0  0  0  0  0
   64.1975   33.2530   50.4210 H   0  0  0  0  0  0  0  0  0  0  0  0
   65.3338   33.0091   48.1889 H   0  0  0  0  0  0  0  0  0  0  0  0
   63.9971   33.1699   46.0824 H   0  0  0  0  0  0  0  0  0  0  0  0
   61.5124   33.5290   46.1767 H   0  0  0  0  0  0  0  0  0  0  0  0
   58.4661   31.7422   48.3136 H   0  0  0  0  0  0  0  0  0  0  0  0
   57.2781   32.6047   47.2363 H   0  0  0  0  0  0  0  0  0  0  0  0
   60.1000   31.7008   46.5142 H   0  0  0  0  0  0  0  0  0  0  0  0
   58.5123   31.0416   45.9071 H   0  0  0  0  0  0  0  0  0  0  0  0
  1  2  1  0
  2  3  2  0
  3  4  1  0
  4  5  2  0
  5  6  1  0
  6  7  2  0
  7  8  1  0
  8  9  2  0
  8 10  1  0
 10 11  1  0
 11 12  1  0
 12 13  1  0
 13 14  1  0
 14 15  1  0
 15 16  1  0
 16 17  1  0
 17 18  1  0
 18 19  2  0
 18 20  1  0
 20 21  1  0
 21 22  2  0
 22 23  1  0
 23 24  2  0
 24 25  1  0
 25 26  2  0
 16 27  1  0
 27 28  1  0
  7  2  1  0
 28 13  1  0
 26 17  1  0
 26 21  1  0
  1 29  1  0
  1 30  1  0
  1 31  1  0
  3 32  1  0
  4 33  1  0
  5 34  1  0
  6 35  1  0
 11 36  1  0
 11 37  1  0
 12 38  1  0
 12 39  1  0
 14 40  1  0
 14 41  1  0
 15 42  1  0
 15 43  1  0
 16 44  1  0
 22 45  1  0
 23 46  1  0
 24 47  1  0
 25 48  1  0
 27 49  1  0
 27 50  1  0
 28 51  1  0
 28 52  1  0
M  CHG  2  10  -1  20  -1
M  END
>  <UniqueID>  (77) 
74

>  <SMILES>  (77) 
Cc1ccccc1C(=O)[N-]CCN1CCC(n2c(=O)[n-]c3ccccc32)CC1

>  <Energy>  (77) 
112.85628337528792

>  <Genealogy>  (77) 
Cc1ccccc1C(=O)[N-]CCN1CCC(n2c(=O)[n-]c3ccccc32)CC1 (protonated)
Cc1ccccc1C(=O)[N-]CCN1CCC(n2c(=O)[n-]c3ccccc32)CC1 (3D coordinates assigned)
Cc1ccccc1C(=O)[N-]CCN1CCC(n2c(=O)[n-]c3ccccc32)CC1 (nonaromatic ring conformer: 112.85628337528792 kcal/mol)

>  <smiles>  (77) 
Cc1ccccc1C(=O)NCCN1CCC(n2c(=O)[nH]c3ccccc32)CC1

>  <score_type>  (77) 
oracle

>  <origin>  (77) 
adg

>  <m_score__min__energy>  (77) 
-11.99

>  <m_primary>  (77) 
energy

$$$$
77:0
     RDKit          3D

 64 69  0  0  0  0  0  0  0  0999 V2000
   51.4460   29.1060   53.7990 C   0  0  0  0  0  0  0  0  0  0  0  0
   52.7590   28.4620   53.6670 N   0  0  0  0  0  0  0  0  0  0  0  0
   52.9120   27.0620   54.0860 C   0  0  0  0  0  0  0  0  0  0  0  0
   53.8810   29.1890   53.1060 C   0  0  0  0  0  0  0  0  0  0  0  0
   53.6740   30.2120   52.1580 C   0  0  0  0  0  0  0  0  0  0  0  0
   54.7570   30.9150   51.6190 C   0  0  0  0  0  0  0  0  0  0  0  0
   56.0640   30.6350   52.0300 C   0  0  0  0  0  0  0  0  0  0  0  0
   57.1500   31.3710   51.4390 N   0  0  0  0  0  0  0  0  0  0  0  0
   58.0940   30.8960   50.6790 C   0  0  0  0  0  0  0  0  0  0  0  0
   58.9680   31.7210   50.0320 N   0  0  0  0  0  0  0  0  0  0  0  0
   59.9110   31.2260   49.1840 C   0  0  0  0  0  0  0  0  0  0  0  0
   60.8300   32.1500   48.4940 C   0  0  0  0  0  0  0  0  0  0  0  0
   60.6380   32.8580   47.2940 C   0  0  0  0  0  0  0  0  0  0  0  0
   59.3870   32.9740   46.5120 C   0  0  0  0  0  0  0  0  0  0  0  0
   58.5010   34.0430   46.7200 C   0  0  0  0  0  0  0  0  0  0  0  0
   57.3640   34.1780   45.9220 C   0  0  0  0  0  0  0  0  0  0  0  0
   57.1080   33.2590   44.9020 C   0  0  0  0  0  0  0  0  0  0  0  0
   57.9870   32.1890   44.6750 C   0  0  0  0  0  0  0  0  0  0  0  0
   57.7440   31.2270   43.6360 N   0  0  0  0  0  0  0  0  0  0  0  0
   56.8470   29.7640   43.9000 S   0  0  0  0  0  0  0  0  0  0  0  0
   55.5330   30.0990   44.5490 O   0  0  0  0  0  0  0  0  0  0  0  0
   56.5620   29.1180   42.5720 O   0  0  0  0  0  0  0  0  0  0  0  0
   57.7940   28.6520   44.8920 C   0  0  0  0  0  0  0  0  0  0  0  0
   59.1920   28.8000   44.9370 C   0  0  0  0  0  0  0  0  0  0  0  0
   59.9710   27.9310   45.7110 C   0  0  0  0  0  0  0  0  0  0  0  0
   59.3590   26.9130   46.4500 C   0  0  0  0  0  0  0  0  0  0  0  0
   57.9680   26.7600   46.4140 C   0  0  0  0  0  0  0  0  0  0  0  0
   57.1840   27.6220   45.6370 C   0  0  0  0  0  0  0  0  0  0  0  0
   55.8380   27.4510   45.6260 F   0  0  0  0  0  0  0  0  0  0  0  0
   59.1200   32.0510   45.4890 C   0  0  0  0  0  0  0  0  0  0  0  0
   61.7850   33.5130   46.9400 N   0  0  0  0  0  0  0  0  0  0  0  0
   62.6160   33.1850   47.9460 C   0  0  0  0  0  0  0  0  0  0  0  0
   64.2380   33.5190   48.2160 S   0  0  0  0  0  0  0  0  0  0  0  0
   64.2360   32.5510   49.6340 C   0  0  0  0  0  0  0  0  0  0  0  0
   62.9580   31.9990   49.8240 C   0  0  0  0  0  0  0  0  0  0  0  0
   62.0940   32.3960   48.8630 N   0  0  0  0  0  0  0  0  0  0  0  0
   59.9940   29.8450   48.9790 C   0  0  0  0  0  0  0  0  0  0  0  0
   59.0980   29.0150   49.6510 C   0  0  0  0  0  0  0  0  0  0  0  0
   58.1650   29.5520   50.4770 N   0  0  0  0  0  0  0  0  0  0  0  0
   56.2840   29.5930   52.9450 C   0  0  0  0  0  0  0  0  0  0  0  0
   55.2040   28.8830   53.4840 C   0  0  0  0  0  0  0  0  0  0  0  0
   51.2018   29.2258   54.8649 H   0  0  0  0  0  0  0  0  0  0  0  0
   51.4718   30.0937   53.3155 H   0  0  0  0  0  0  0  0  0  0  0  0
   50.6808   28.4810   53.3155 H   0  0  0  0  0  0  0  0  0  0  0  0
   52.9181   27.0066   55.1846 H   0  0  0  0  0  0  0  0  0  0  0  0
   52.0734   26.4681   53.6935 H   0  0  0  0  0  0  0  0  0  0  0  0
   53.8591   26.6632   53.6935 H   0  0  0  0  0  0  0  0  0  0  0  0
   52.6509   30.4599   51.8390 H   0  0  0  0  0  0  0  0  0  0  0  0
   54.5786   31.6955   50.8647 H   0  0  0  0  0  0  0  0  0  0  0  0
   58.7036   34.7764   47.5144 H   0  0  0  0  0  0  0  0  0  0  0  0
   56.6672   35.0110   46.0970 H   0  0  0  0  0  0  0  0  0  0  0  0
   56.2128   33.3745   44.2734 H   0  0  0  0  0  0  0  0  0  0  0  0
   57.9570   31.4890   42.6440 H   0  0  0  0  0  0  0  0  0  0  0  0
   59.6760   29.6026   44.3612 H   0  0  0  0  0  0  0  0  0  0  0  0
   61.0643   28.0489   45.7379 H   0  0  0  0  0  0  0  0  0  0  0  0
   59.9712   26.2323   47.0598 H   0  0  0  0  0  0  0  0  0  0  0  0
   57.4892   25.9601   46.9979 H   0  0  0  0  0  0  0  0  0  0  0  0
   59.8082   31.2089   45.3239 H   0  0  0  0  0  0  0  0  0  0  0  0
   65.1020   32.3881   50.2924 H   0  0  0  0  0  0  0  0  0  0  0  0
   62.6930   31.3263   50.6530 H   0  0  0  0  0  0  0  0  0  0  0  0
   60.7507   29.4225   48.3015 H   0  0  0  0  0  0  0  0  0  0  0  0
   59.1473   27.9250   49.5117 H   0  0  0  0  0  0  0  0  0  0  0  0
   57.3112   29.3327   53.2403 H   0  0  0  0  0  0  0  0  0  0  0  0
   55.3901   28.0779   54.2101 H   0  0  0  0  0  0  0  0  0  0  0  0
  1  2  1  0
  2  3  1  0
  2  4  1  0
  4  5  2  0
  5  6  1  0
  6  7  2  0
  7  8  1  0
  8  9  2  3
  9 10  1  0
 10 11  2  0
 11 12  1  0
 12 13  2  0
 13 14  1  0
 14 15  2  0
 15 16  1  0
 16 17  2  0
 17 18  1  0
 18 19  1  0
 19 20  1  0
 20 21  2  0
 20 22  2  0
 20 23  1  0
 23 24  2  0
 24 25  1  0
 25 26  2  0
 26 27  1  0
 27 28  2  0
 28 29  1  0
 18 30  2  0
 13 31  1  0
 31 32  2  0
 32 33  1  0
 33 34  1  0
 34 35  2  0
 35 36  1  0
 11 37  1  0
 37 38  2  0
 38 39  1  0
  7 40  1  0
 40 41  2  0
 41  4  1  0
 39  9  1  0
 36 12  1  0
 30 14  1  0
 36 32  1  0
 28 23  1  0
  1 42  1  0
  1 43  1  0
  1 44  1  0
  3 45  1  0
  3 46  1  0
  3 47  1  0
  5 48  1  0
  6 49  1  0
 15 50  1  0
 16 51  1  0
 17 52  1  0
 19 53  1  0
 24 54  1  0
 25 55  1  0
 26 56  1  0
 27 57  1  0
 30 58  1  0
 34 59  1  0
 35 60  1  0
 37 61  1  0
 38 62  1  0
 40 63  1  0
 41 64  1  0
M  CHG  1  39  -1
M  END
>  <UniqueID>  (78) 
75

>  <SMILES>  (78) 
CN(C)c1ccc(N=c2nc(-c3c(-c4cccc(NS(=O)(=O)c5ccccc5F)c4)nc4sccn34)cc[n-]2)cc1

>  <Energy>  (78) 
171.83051486697022

>  <Genealogy>  (78) 
CN(C)c1ccc(N=c2nc(-c3c(-c4cccc(NS(=O)(=O)c5ccccc5F)c4)nc4sccn34)cc[n-]2)cc1 (protonated)
CN(C)c1ccc(N=c2nc(-c3c(-c4cccc(NS(=O)(=O)c5ccccc5F)c4)nc4sccn34)cc[n-]2)cc1 (3D coordinates assigned)
CN(C)c1ccc(N=c2nc(-c3c(-c4cccc(NS(=O)(=O)c5ccccc5F)c4)nc4sccn34)cc[n-]2)cc1 (optimized conformer: 171.83051486697022 kcal/mol)

>  <smiles>  (78) 
CN(C)c1ccc(N=c2nc(-c3c(-c4cccc(NS(=O)(=O)c5ccccc5F)c4)nc4sccn34)cc[nH]2)cc1

>  <score_type>  (78) 
oracle

>  <origin>  (78) 
adg

>  <m_score__min__energy>  (78) 
-11.99

>  <m_primary>  (78) 
energy

$$$$
78:0
     RDKit          3D

 37 39  0  0  0  0  0  0  0  0999 V2000
   55.1430   26.2890   45.9900 O   0  0  0  0  0  0  0  0  0  0  0  0
   56.3420   25.9330   45.8250 C   0  0  0  0  0  0  0  0  0  0  0  0
   57.4280   26.8050   46.3950 C   0  0  0  0  0  0  0  0  0  0  0  0
   58.0120   27.6170   45.3770 O   0  0  0  0  0  0  0  0  0  0  0  0
   58.2830   28.9860   45.5090 C   0  0  0  0  0  0  0  0  0  0  0  0
   59.4140   29.5160   46.1600 C   0  0  0  0  0  0  0  0  0  0  0  0
   59.4530   30.9120   46.1630 C   0  0  0  0  0  0  0  0  0  0  0  0
   60.5050   31.7700   46.7670 C   0  0  0  0  0  0  0  0  0  0  0  0
   61.7530   31.2200   47.1200 C   0  0  0  0  0  0  0  0  0  0  0  0
   62.7470   32.0230   47.6890 C   0  0  0  0  0  0  0  0  0  0  0  0
   62.5120   33.3810   47.9070 C   0  0  0  0  0  0  0  0  0  0  0  0
   61.2820   33.9410   47.5560 C   0  0  0  0  0  0  0  0  0  0  0  0
   60.2830   33.1430   46.9890 C   0  0  0  0  0  0  0  0  0  0  0  0
   58.0850   31.4690   45.3490 S   0  0  0  0  0  0  0  0  0  0  0  0
   57.4330   29.9610   44.9940 C   0  0  0  0  0  0  0  0  0  0  0  0
   56.1710   29.7350   44.2740 C   0  0  0  0  0  0  0  0  0  0  0  0
   56.0140   30.2060   43.1180 O   0  0  0  0  0  0  0  0  0  0  0  0
   55.1440   29.0050   44.8600 O   0  0  0  0  0  0  0  0  0  0  0  0
   56.6400   24.6780   45.0830 C   0  0  0  0  0  0  0  0  0  0  0  0
   55.6960   24.0980   44.2120 C   0  0  0  0  0  0  0  0  0  0  0  0
   55.9920   22.9120   43.5320 C   0  0  0  0  0  0  0  0  0  0  0  0
   57.2310   22.2940   43.7070 C   0  0  0  0  0  0  0  0  0  0  0  0
   58.1780   22.8610   44.5630 C   0  0  0  0  0  0  0  0  0  0  0  0
   57.8870   24.0450   45.2460 C   0  0  0  0  0  0  0  0  0  0  0  0
   56.9986   27.4543   47.1722 H   0  0  0  0  0  0  0  0  0  0  0  0
   58.2095   26.1604   46.8237 H   0  0  0  0  0  0  0  0  0  0  0  0
   60.1920   28.8903   46.6218 H   0  0  0  0  0  0  0  0  0  0  0  0
   61.9472   30.1512   46.9469 H   0  0  0  0  0  0  0  0  0  0  0  0
   63.7165   31.5828   47.9653 H   0  0  0  0  0  0  0  0  0  0  0  0
   63.2953   34.0101   48.3551 H   0  0  0  0  0  0  0  0  0  0  0  0
   61.0983   35.0122   47.7258 H   0  0  0  0  0  0  0  0  0  0  0  0
   59.3167   33.5911   46.7144 H   0  0  0  0  0  0  0  0  0  0  0  0
   54.7189   24.5817   44.0658 H   0  0  0  0  0  0  0  0  0  0  0  0
   55.2464   22.4654   42.8577 H   0  0  0  0  0  0  0  0  0  0  0  0
   57.4616   21.3613   43.1714 H   0  0  0  0  0  0  0  0  0  0  0  0
   59.1550   22.3745   44.6998 H   0  0  0  0  0  0  0  0  0  0  0  0
   58.6388   24.4863   45.9168 H   0  0  0  0  0  0  0  0  0  0  0  0
  1  2  2  0
  2  3  1  0
  3  4  1  0
  4  5  1  0
  5  6  1  0
  6  7  2  0
  7  8  1  0
  8  9  2  0
  9 10  1  0
 10 11  2  0
 11 12  1  0
 12 13  2  0
  7 14  1  0
 14 15  1  0
 15 16  1  0
 16 17  2  0
 16 18  1  0
  2 19  1  0
 19 20  2  0
 20 21  1  0
 21 22  2  0
 22 23  1  0
 23 24  2  0
 15  5  2  0
 24 19  1  0
 13  8  1  0
  3 25  1  0
  3 26  1  0
  6 27  1  0
  9 28  1  0
 10 29  1  0
 11 30  1  0
 12 31  1  0
 13 32  1  0
 20 33  1  0
 21 34  1  0
 22 35  1  0
 23 36  1  0
 24 37  1  0
M  CHG  1  18  -1
M  END
>  <UniqueID>  (79) 
76

>  <SMILES>  (79) 
O=C(COc1cc(-c2ccccc2)sc1C(=O)[O-])c1ccccc1

>  <Energy>  (79) 
67.77946630939915

>  <Genealogy>  (79) 
O=C(COc1cc(-c2ccccc2)sc1C(=O)[O-])c1ccccc1 (protonated)
O=C(COc1cc(-c2ccccc2)sc1C(=O)[O-])c1ccccc1 (3D coordinates assigned)
O=C(COc1cc(-c2ccccc2)sc1C(=O)[O-])c1ccccc1 (optimized conformer: 67.77946630939915 kcal/mol)

>  <smiles>  (79) 
O=C(COc1cc(-c2ccccc2)sc1C(=O)O)c1ccccc1

>  <score_type>  (79) 
oracle

>  <origin>  (79) 
adg

>  <m_score__min__energy>  (79) 
-10.449999999999999

>  <m_primary>  (79) 
energy

$$$$
79:0
     RDKit          3D

 42 44  0  0  0  0  0  0  0  0999 V2000
   57.7800   32.1960   42.0760 C   0  0  0  0  0  0  0  0  0  0  0  0
   57.6040   31.8170   43.4800 N   0  0  0  0  0  0  0  0  0  0  0  0
   58.0090   32.7170   44.5340 C   0  0  0  0  0  0  0  0  0  0  0  0
   58.8840   33.7880   44.2700 C   0  0  0  0  0  0  0  0  0  0  0  0
   59.2600   34.6670   45.2890 C   0  0  0  0  0  0  0  0  0  0  0  0
   58.7680   34.4900   46.5840 C   0  0  0  0  0  0  0  0  0  0  0  0
   57.8960   33.4340   46.8600 C   0  0  0  0  0  0  0  0  0  0  0  0
   57.5160   32.5540   45.8440 C   0  0  0  0  0  0  0  0  0  0  0  0
   56.9590   30.2400   43.8460 S   0  0  0  0  0  0  0  0  0  0  0  0
   55.7580   30.3890   44.7380 O   0  0  0  0  0  0  0  0  0  0  0  0
   56.5290   29.5700   42.5710 O   0  0  0  0  0  0  0  0  0  0  0  0
   58.1690   29.2420   44.6480 C   0  0  0  0  0  0  0  0  0  0  0  0
   59.4940   29.6890   44.7230 C   0  0  0  0  0  0  0  0  0  0  0  0
   60.4650   28.9030   45.3460 C   0  0  0  0  0  0  0  0  0  0  0  0
   60.1210   27.6660   45.8960 C   0  0  0  0  0  0  0  0  0  0  0  0
   58.7950   27.2010   45.8330 C   0  0  0  0  0  0  0  0  0  0  0  0
   58.4300   25.8830   46.4010 C   0  0  0  0  0  0  0  0  0  0  0  0
   59.2690   24.9410   46.3980 O   0  0  0  0  0  0  0  0  0  0  0  0
   57.1580   25.7060   47.0450 N   0  0  0  0  0  0  0  0  0  0  0  0
   56.1670   24.9220   46.7140 C   0  0  0  0  0  0  0  0  0  0  0  0
   55.1430   25.4660   46.0030 N   0  0  0  0  0  0  0  0  0  0  0  0
   54.0650   24.7390   45.6140 C   0  0  0  0  0  0  0  0  0  0  0  0
   53.9980   23.3880   45.9430 C   0  0  0  0  0  0  0  0  0  0  0  0
   55.0190   22.8150   46.6310 N   0  0  0  0  0  0  0  0  0  0  0  0
   56.1110   23.5350   47.0140 C   0  0  0  0  0  0  0  0  0  0  0  0
   57.0620   22.9400   47.5870 O   0  0  0  0  0  0  0  0  0  0  0  0
   57.8230   28.0030   45.2060 C   0  0  0  0  0  0  0  0  0  0  0  0
   58.2427   33.1924   42.0204 H   0  0  0  0  0  0  0  0  0  0  0  0
   58.4293   31.4618   41.5766 H   0  0  0  0  0  0  0  0  0  0  0  0
   56.8001   32.2184   41.5766 H   0  0  0  0  0  0  0  0  0  0  0  0
   59.2751   33.9341   43.2523 H   0  0  0  0  0  0  0  0  0  0  0  0
   59.9447   35.4998   45.0708 H   0  0  0  0  0  0  0  0  0  0  0  0
   59.0667   35.1813   47.3858 H   0  0  0  0  0  0  0  0  0  0  0  0
   57.5078   33.2952   47.8798 H   0  0  0  0  0  0  0  0  0  0  0  0
   56.8263   31.7270   46.0683 H   0  0  0  0  0  0  0  0  0  0  0  0
   59.7703   30.6617   44.2900 H   0  0  0  0  0  0  0  0  0  0  0  0
   61.5042   29.2589   45.4040 H   0  0  0  0  0  0  0  0  0  0  0  0
   60.8927   27.0510   46.3820 H   0  0  0  0  0  0  0  0  0  0  0  0
   53.2520   25.2127   45.0442 H   0  0  0  0  0  0  0  0  0  0  0  0
   53.1241   22.7888   45.6477 H   0  0  0  0  0  0  0  0  0  0  0  0
   54.9670   21.7950   46.8530 H   0  0  0  0  0  0  0  0  0  0  0  0
   56.7811   27.6542   45.1532 H   0  0  0  0  0  0  0  0  0  0  0  0
  1  2  1  0
  2  3  1  0
  3  4  2  0
  4  5  1  0
  5  6  2  0
  6  7  1  0
  7  8  2  0
  2  9  1  0
  9 10  2  0
  9 11  2  0
  9 12  1  0
 12 13  2  0
 13 14  1  0
 14 15  2  0
 15 16  1  0
 16 17  1  0
 17 18  2  0
 17 19  1  0
 19 20  2  3
 20 21  1  0
 21 22  1  0
 22 23  2  0
 23 24  1  0
 24 25  1  0
 25 26  2  0
 16 27  2  0
  8  3  1  0
 27 12  1  0
 25 20  1  0
  1 28  1  0
  1 29  1  0
  1 30  1  0
  4 31  1  0
  5 32  1  0
  6 33  1  0
  7 34  1  0
  8 35  1  0
 13 36  1  0
 14 37  1  0
 15 38  1  0
 22 39  1  0
 23 40  1  0
 24 41  1  0
 27 42  1  0
M  CHG  1  21  -1
M  END
>  <UniqueID>  (80) 
77

>  <SMILES>  (80) 
CN(c1ccccc1)S(=O)(=O)c1cccc(C(=O)N=c2[n-]cc[nH]c2=O)c1

>  <Energy>  (80) 
62.595444803091844

>  <Genealogy>  (80) 
CN(c1ccccc1)S(=O)(=O)c1cccc(C(=O)N=c2[n-]cc[nH]c2=O)c1 (protonated)
CN(c1ccccc1)S(=O)(=O)c1cccc(C(=O)N=c2[n-]cc[nH]c2=O)c1 (3D coordinates assigned)
CN(c1ccccc1)S(=O)(=O)c1cccc(C(=O)N=c2[n-]cc[nH]c2=O)c1 (optimized conformer: 62.595444803091844 kcal/mol)

>  <smiles>  (80) 
CN(c1ccccc1)S(=O)(=O)c1cccc(C(=O)N=c2[nH]cc[nH]c2=O)c1

>  <score_type>  (80) 
oracle

>  <origin>  (80) 
adg

>  <m_score__min__energy>  (80) 
-11.470000000000001

>  <m_primary>  (80) 
energy

$$$$
80:0
     RDKit          3D

 57 60  0  0  0  0  0  0  0  0999 V2000
   60.7490   29.1360   48.5850 O   0  0  0  0  0  0  0  0  0  0  0  0
   60.5990   29.5060   47.3890 C   0  0  0  0  0  0  0  0  0  0  0  0
   61.3470   30.6210   46.8880 N   0  0  0  0  0  0  0  0  0  0  0  0
   62.1260   31.5520   47.6590 C   0  0  0  0  0  0  0  0  0  0  0  0
   62.5440   32.7910   47.1380 C   0  0  0  0  0  0  0  0  0  0  0  0
   63.2790   33.6760   47.9340 C   0  0  0  0  0  0  0  0  0  0  0  0
   63.5860   33.3420   49.2570 C   0  0  0  0  0  0  0  0  0  0  0  0
   64.2920   34.2050   50.0290 F   0  0  0  0  0  0  0  0  0  0  0  0
   63.1510   32.1250   49.7880 C   0  0  0  0  0  0  0  0  0  0  0  0
   62.4190   31.2370   48.9930 C   0  0  0  0  0  0  0  0  0  0  0  0
   59.6260   28.7990   46.5160 C   0  0  0  0  0  0  0  0  0  0  0  0
   58.6530   29.5400   45.8170 C   0  0  0  0  0  0  0  0  0  0  0  0
   57.7090   28.8970   45.0040 C   0  0  0  0  0  0  0  0  0  0  0  0
   56.4970   29.8330   44.1330 S   0  0  0  0  0  0  0  0  0  0  0  0
   55.1200   29.3180   44.4460 O   0  0  0  0  0  0  0  0  0  0  0  0
   56.7490   29.7080   42.6580 O   0  0  0  0  0  0  0  0  0  0  0  0
   56.6070   31.5050   44.5970 N   0  0  0  0  0  0  0  0  0  0  0  0
   57.8440   32.0940   44.0720 C   0  0  0  0  0  0  0  0  0  0  0  0
   57.9930   33.5320   44.5730 C   0  0  0  0  0  0  0  0  0  0  0  0
   58.5680   33.5580   45.9660 C   0  0  0  0  0  0  0  0  0  0  0  0
   58.2540   32.5410   46.8820 C   0  0  0  0  0  0  0  0  0  0  0  0
   58.7150   32.6140   48.2000 C   0  0  0  0  0  0  0  0  0  0  0  0
   59.4900   33.7030   48.6140 C   0  0  0  0  0  0  0  0  0  0  0  0
   60.0570   33.8090   50.3120 S   0  0  0  0  0  0  0  0  0  0  0  0
   59.1010   32.3800   50.8230 C   0  0  0  0  0  0  0  0  0  0  0  0
   57.8100   32.5450   51.3400 C   0  0  0  0  0  0  0  0  0  0  0  0
   57.0660   31.4280   51.7320 C   0  0  0  0  0  0  0  0  0  0  0  0
   57.6070   30.1440   51.6010 C   0  0  0  0  0  0  0  0  0  0  0  0
   58.8960   29.9780   51.0830 C   0  0  0  0  0  0  0  0  0  0  0  0
   59.6430   31.0940   50.6920 C   0  0  0  0  0  0  0  0  0  0  0  0
   59.8060   34.7190   47.7060 C   0  0  0  0  0  0  0  0  0  0  0  0
   59.3460   34.6500   46.3880 C   0  0  0  0  0  0  0  0  0  0  0  0
   57.7300   27.5030   44.8900 C   0  0  0  0  0  0  0  0  0  0  0  0
   58.6970   26.7570   45.5640 C   0  0  0  0  0  0  0  0  0  0  0  0
   59.6410   27.3940   46.3740 C   0  0  0  0  0  0  0  0  0  0  0  0
   60.5670   26.6300   47.0070 F   0  0  0  0  0  0  0  0  0  0  0  0
   62.2922   33.0640   46.1026 H   0  0  0  0  0  0  0  0  0  0  0  0
   63.6163   34.6370   47.5183 H   0  0  0  0  0  0  0  0  0  0  0  0
   63.3842   31.8653   50.8312 H   0  0  0  0  0  0  0  0  0  0  0  0
   62.0706   30.2841   49.4180 H   0  0  0  0  0  0  0  0  0  0  0  0
   58.6337   30.6359   45.9101 H   0  0  0  0  0  0  0  0  0  0  0  0
   56.6420   31.5390   45.6420 H   0  0  0  0  0  0  0  0  0  0  0  0
   58.7040   31.4987   44.4126 H   0  0  0  0  0  0  0  0  0  0  0  0
   57.8041   32.0971   42.9727 H   0  0  0  0  0  0  0  0  0  0  0  0
   58.6634   34.0818   43.8961 H   0  0  0  0  0  0  0  0  0  0  0  0
   56.9988   34.0023   44.5937 H   0  0  0  0  0  0  0  0  0  0  0  0
   57.6433   31.6840   46.5616 H   0  0  0  0  0  0  0  0  0  0  0  0
   58.4679   31.8136   48.9130 H   0  0  0  0  0  0  0  0  0  0  0  0
   57.3813   33.5533   51.4377 H   0  0  0  0  0  0  0  0  0  0  0  0
   56.0544   31.5586   52.1438 H   0  0  0  0  0  0  0  0  0  0  0  0
   57.0190   29.2656   51.9052 H   0  0  0  0  0  0  0  0  0  0  0  0
   59.3224   28.9689   50.9831 H   0  0  0  0  0  0  0  0  0  0  0  0
   60.6552   30.9625   50.2819 H   0  0  0  0  0  0  0  0  0  0  0  0
   60.4177   35.5739   48.0299 H   0  0  0  0  0  0  0  0  0  0  0  0
   59.5937   35.4532   45.6784 H   0  0  0  0  0  0  0  0  0  0  0  0
   56.9810   26.9930   44.2664 H   0  0  0  0  0  0  0  0  0  0  0  0
   58.7166   25.6623   45.4574 H   0  0  0  0  0  0  0  0  0  0  0  0
  1  2  2  0
  2  3  1  0
  3  4  1  0
  4  5  2  0
  5  6  1  0
  6  7  2  0
  7  8  1  0
  7  9  1  0
  9 10  2  0
  2 11  1  0
 11 12  2  0
 12 13  1  0
 13 14  1  0
 14 15  2  0
 14 16  2  0
 14 17  1  0
 17 18  1  0
 18 19  1  0
 19 20  1  0
 20 21  2  0
 21 22  1  0
 22 23  2  0
 23 24  1  0
 24 25  1  0
 25 26  2  0
 26 27  1  0
 27 28  2  0
 28 29  1  0
 29 30  2  0
 23 31  1  0
 31 32  2  0
 13 33  2  0
 33 34  1  0
 34 35  2  0
 35 36  1  0
 10  4  1  0
 35 11  1  0
 32 20  1  0
 30 25  1  0
  5 37  1  0
  6 38  1  0
  9 39  1  0
 10 40  1  0
 12 41  1  0
 17 42  1  0
 18 43  1  0
 18 44  1  0
 19 45  1  0
 19 46  1  0
 21 47  1  0
 22 48  1  0
 26 49  1  0
 27 50  1  0
 28 51  1  0
 29 52  1  0
 30 53  1  0
 31 54  1  0
 32 55  1  0
 33 56  1  0
 34 57  1  0
M  CHG  1   3  -1
M  END
>  <UniqueID>  (81) 
78

>  <SMILES>  (81) 
O=C([N-]c1ccc(F)cc1)c1cc(S(=O)(=O)NCCc2ccc(Sc3ccccc3)cc2)ccc1F

>  <Energy>  (81) 
55.58838265424192

>  <Genealogy>  (81) 
O=C([N-]c1ccc(F)cc1)c1cc(S(=O)(=O)NCCc2ccc(Sc3ccccc3)cc2)ccc1F (protonated)
O=C([N-]c1ccc(F)cc1)c1cc(S(=O)(=O)NCCc2ccc(Sc3ccccc3)cc2)ccc1F (3D coordinates assigned)
O=C([N-]c1ccc(F)cc1)c1cc(S(=O)(=O)NCCc2ccc(Sc3ccccc3)cc2)ccc1F (optimized conformer: 55.58838265424192 kcal/mol)

>  <smiles>  (81) 
O=C(Nc1ccc(F)cc1)c1cc(S(=O)(=O)NCCc2ccc(Sc3ccccc3)cc2)ccc1F

>  <score_type>  (81) 
oracle

>  <origin>  (81) 
adg

>  <m_score__min__energy>  (81) 
-11.720000000000001

>  <m_primary>  (81) 
energy

$$$$
81:0
     RDKit          3D

 48 50  0  0  0  0  0  0  0  0999 V2000
   57.4826   32.7938   42.9793 H   0  0  0  0  0  0  0  0  0  0  0  0
   57.9090   32.3300   43.8810 C   0  0  0  0  0  0  0  0  0  0  0  0
   58.0180   30.9980   43.9080 C   0  0  0  0  0  0  0  0  0  0  0  0
   59.0090   30.5292   43.8180 H   0  0  0  0  0  0  0  0  0  0  0  0
   56.5910   29.9920   44.0860 S   0  0  0  0  0  0  0  0  0  0  0  0
   56.2990   29.3210   42.7730 O   0  0  0  0  0  0  0  0  0  0  0  0
   55.4290   30.8550   44.4900 O   0  0  0  0  0  0  0  0  0  0  0  0
   56.8910   28.7860   45.2970 N   0  0  0  0  0  0  0  0  0  0  0  0
   58.0650   28.7160   46.1170 C   0  0  0  0  0  0  0  0  0  0  0  0
   58.8690   27.5720   46.0420 C   0  0  0  0  0  0  0  0  0  0  0  0
   58.5833   26.7446   45.3758 H   0  0  0  0  0  0  0  0  0  0  0  0
   60.0300   27.4770   46.8080 C   0  0  0  0  0  0  0  0  0  0  0  0
   60.6639   26.5812   46.7324 H   0  0  0  0  0  0  0  0  0  0  0  0
   60.3920   28.5140   47.6710 C   0  0  0  0  0  0  0  0  0  0  0  0
   61.3101   28.4314   48.2712 H   0  0  0  0  0  0  0  0  0  0  0  0
   59.5890   29.6620   47.7760 C   0  0  0  0  0  0  0  0  0  0  0  0
   59.9180   30.7180   48.7040 N   0  0  0  0  0  0  0  0  0  0  0  0
   60.9490   31.6590   48.3670 C   0  0  0  0  0  0  0  0  0  0  0  0
   60.9710   32.9340   48.9530 C   0  0  0  0  0  0  0  0  0  0  0  0
   60.1830   33.2242   49.6635 H   0  0  0  0  0  0  0  0  0  0  0  0
   61.9910   33.8370   48.6370 C   0  0  0  0  0  0  0  0  0  0  0  0
   62.0011   34.8369   49.0953 H   0  0  0  0  0  0  0  0  0  0  0  0
   62.9980   33.4700   47.7390 C   0  0  0  0  0  0  0  0  0  0  0  0
   63.7992   34.1813   47.4900 H   0  0  0  0  0  0  0  0  0  0  0  0
   62.9860   32.1990   47.1580 C   0  0  0  0  0  0  0  0  0  0  0  0
   63.7787   31.9100   46.4523 H   0  0  0  0  0  0  0  0  0  0  0  0
   61.9670   31.2940   47.4730 C   0  0  0  0  0  0  0  0  0  0  0  0
   61.9637   30.2924   47.0182 H   0  0  0  0  0  0  0  0  0  0  0  0
   58.9710   30.9880   50.1440 S   0  0  0  0  0  0  0  0  0  0  0  0
   58.0650   32.1750   49.9520 O   0  0  0  0  0  0  0  0  0  0  0  0
   58.1230   29.7810   50.4330 O   0  0  0  0  0  0  0  0  0  0  0  0
   60.0560   31.2790   51.5280 C   0  0  0  0  0  0  0  0  0  0  0  0
   59.5014   31.1303   52.4663 H   0  0  0  0  0  0  0  0  0  0  0  0
   60.9007   30.5757   51.4859 H   0  0  0  0  0  0  0  0  0  0  0  0
   60.4354   32.3106   51.4859 H   0  0  0  0  0  0  0  0  0  0  0  0
   58.4260   29.7570   46.9920 C   0  0  0  0  0  0  0  0  0  0  0  0
   57.7924   30.6534   47.0633 H   0  0  0  0  0  0  0  0  0  0  0  0
   58.3270   33.2230   44.9910 C   0  0  0  0  0  0  0  0  0  0  0  0
   59.2610   34.2650   44.8190 C   0  0  0  0  0  0  0  0  0  0  0  0
   59.7062   34.4435   43.8291 H   0  0  0  0  0  0  0  0  0  0  0  0
   59.6240   35.0730   45.9020 C   0  0  0  0  0  0  0  0  0  0  0  0
   60.3479   35.8887   45.7586 H   0  0  0  0  0  0  0  0  0  0  0  0
   59.0710   34.8480   47.1640 C   0  0  0  0  0  0  0  0  0  0  0  0
   59.3568   35.4872   48.0124 H   0  0  0  0  0  0  0  0  0  0  0  0
   58.1550   33.8110   47.3480 C   0  0  0  0  0  0  0  0  0  0  0  0
   57.7206   33.6321   48.3426 H   0  0  0  0  0  0  0  0  0  0  0  0
   57.7890   33.0000   46.2710 C   0  0  0  0  0  0  0  0  0  0  0  0
   57.0732   32.1792   46.4257 H   0  0  0  0  0  0  0  0  0  0  0  0
  1  2  1  0
  2  3  2  0
  3  4  1  0
  3  5  1  0
  5  6  2  0
  5  7  2  0
  5  8  1  0
  8  9  1  0
  9 10  2  0
 10 11  1  0
 10 12  1  0
 12 13  1  0
 12 14  2  0
 14 15  1  0
 14 16  1  0
 16 17  1  0
 17 18  1  0
 18 19  2  0
 19 20  1  0
 19 21  1  0
 21 22  1  0
 21 23  2  0
 23 24  1  0
 23 25  1  0
 25 26  1  0
 25 27  2  0
 27 28  1  0
 17 29  1  0
 29 30  2  0
 29 31  2  0
 29 32  1  0
 32 33  1  0
 32 34  1  0
 32 35  1  0
 16 36  2  0
 36 37  1  0
  2 38  1  0
 38 39  2  0
 39 40  1  0
 39 41  1  0
 41 42  1  0
 41 43  2  0
 43 44  1  0
 43 45  1  0
 45 46  1  0
 45 47  2  0
 47 48  1  0
 36  9  1  0
 47 38  1  0
 27 18  1  0
M  CHG  1   8  -1
M  END
>  <UniqueID>  (82) 
79

>  <SMILES>  (82) 
CS(=O)(=O)N(c1ccccc1)c1cccc([N-]S(=O)(=O)/C=C/c2ccccc2)c1

>  <Energy>  (82) 
62.64020806450196

>  <Genealogy>  (82) 
CS(=O)(=O)N(c1ccccc1)c1cccc([N-]S(=O)(=O)C=Cc2ccccc2)c1 (protonated)
CS(=O)(=O)N(c1ccccc1)c1cccc([N-]S(=O)(=O)/C=C/c2ccccc2)c1 (cis-trans isomerization)
CS(=O)(=O)N(c1ccccc1)c1cccc([N-]S(=O)(=O)/C=C/c2ccccc2)c1 (3D coordinates assigned)
CS(=O)(=O)N(c1ccccc1)c1cccc([N-]S(=O)(=O)/C=C/c2ccccc2)c1 (optimized conformer: 62.64020806450196 kcal/mol)

>  <smiles>  (82) 
CS(=O)(=O)N(c1ccccc1)c1cccc(NS(=O)(=O)C=Cc2ccccc2)c1

>  <score_type>  (82) 
oracle

>  <origin>  (82) 
adg

>  <m_score__min__energy>  (82) 
-10.76

>  <m_primary>  (82) 
energy

$$$$
82:0
     RDKit          3D

 29 29  0  0  0  0  0  0  0  0999 V2000
   58.8190   21.8540   43.8090 C   0  0  0  0  0  0  0  0  0  0  0  0
   59.0310   21.8880   45.2580 N   0  0  0  0  0  0  0  0  0  0  0  0
   57.7610   21.8220   45.9980 C   0  0  0  0  0  0  0  0  0  0  0  0
   57.0140   23.1410   45.9770 C   0  0  0  0  0  0  0  0  0  0  0  0
   55.6100   23.1180   45.9530 C   0  0  0  0  0  0  0  0  0  0  0  0
   54.8790   24.3030   45.9620 C   0  0  0  0  0  0  0  0  0  0  0  0
   55.5320   25.5350   45.9910 C   0  0  0  0  0  0  0  0  0  0  0  0
   54.7750   26.7010   46.0170 O   0  0  0  0  0  0  0  0  0  0  0  0
   56.9400   25.5900   46.0010 C   0  0  0  0  0  0  0  0  0  0  0  0
   57.6440   26.9270   46.0640 C   0  0  0  0  0  0  0  0  0  0  0  0
   57.3560   27.7460   44.8030 C   0  0  0  0  0  0  0  0  0  0  0  0
   56.5860   28.9830   45.1440 C   0  0  0  0  0  0  0  0  0  0  0  0
   57.1750   29.9770   45.6440 O   0  0  0  0  0  0  0  0  0  0  0  0
   55.2270   29.0560   44.8640 O   0  0  0  0  0  0  0  0  0  0  0  0
   57.6850   24.3900   46.0130 C   0  0  0  0  0  0  0  0  0  0  0  0
   59.0820   24.4700   46.0620 O   0  0  0  0  0  0  0  0  0  0  0  0
   57.7530   21.6830   43.5983 H   0  0  0  0  0  0  0  0  0  0  0  0
   59.1302   22.8135   43.3703 H   0  0  0  0  0  0  0  0  0  0  0  0
   59.4146   21.0399   43.3703 H   0  0  0  0  0  0  0  0  0  0  0  0
   59.6380   21.0770   45.5210 H   0  0  0  0  0  0  0  0  0  0  0  0
   57.1257   21.0483   45.5421 H   0  0  0  0  0  0  0  0  0  0  0  0
   57.9942   21.5838   47.0463 H   0  0  0  0  0  0  0  0  0  0  0  0
   55.0821   22.1533   45.9268 H   0  0  0  0  0  0  0  0  0  0  0  0
   53.7797   24.2673   45.9461 H   0  0  0  0  0  0  0  0  0  0  0  0
   57.2885   27.4819   46.9448 H   0  0  0  0  0  0  0  0  0  0  0  0
   58.7280   26.7546   46.1357 H   0  0  0  0  0  0  0  0  0  0  0  0
   58.3081   28.0311   44.3316 H   0  0  0  0  0  0  0  0  0  0  0  0
   56.7576   27.1346   44.1115 H   0  0  0  0  0  0  0  0  0  0  0  0
   59.6990   23.9270   45.4740 H   0  0  0  0  0  0  0  0  0  0  0  0
  1  2  1  0
  2  3  1  0
  3  4  1  0
  4  5  2  0
  5  6  1  0
  6  7  2  0
  7  8  1  0
  7  9  1  0
  9 10  1  0
 10 11  1  0
 11 12  1  0
 12 13  2  0
 12 14  1  0
  9 15  2  0
 15 16  1  0
 15  4  1  0
  1 17  1  0
  1 18  1  0
  1 19  1  0
  2 20  1  0
  3 21  1  0
  3 22  1  0
  5 23  1  0
  6 24  1  0
 10 25  1  0
 10 26  1  0
 11 27  1  0
 11 28  1  0
 16 29  1  0
M  CHG  2   8  -1  14  -1
M  END
>  <UniqueID>  (83) 
80

>  <SMILES>  (83) 
CNCc1ccc([O-])c(CCC(=O)[O-])c1O

>  <Energy>  (83) 
25.731177558825532

>  <Genealogy>  (83) 
CNCc1ccc([O-])c(CCC(=O)[O-])c1O (protonated)
CNCc1ccc([O-])c(CCC(=O)[O-])c1O (3D coordinates assigned)
CNCc1ccc([O-])c(CCC(=O)[O-])c1O (optimized conformer: 25.731177558825532 kcal/mol)

>  <smiles>  (83) 
CNCc1ccc(O)c(CCC(=O)O)c1O

>  <score_type>  (83) 
oracle

>  <origin>  (83) 
adg

>  <m_score__min__energy>  (83) 
-11.210000000000001

>  <m_primary>  (83) 
energy

$$$$
83:0
     RDKit          3D

 42 44  0  0  0  0  0  0  0  0999 V2000
   64.0267   34.3845   46.0581 H   0  0  0  0  0  0  0  0  0  0  0  0
   63.3700   33.8330   46.7470 C   0  0  0  0  0  0  0  0  0  0  0  0
   63.8990   33.2530   47.9000 C   0  0  0  0  0  0  0  0  0  0  0  0
   64.9710   33.3567   48.1240 H   0  0  0  0  0  0  0  0  0  0  0  0
   63.0700   32.5400   48.7720 C   0  0  0  0  0  0  0  0  0  0  0  0
   63.4948   32.0754   49.6741 H   0  0  0  0  0  0  0  0  0  0  0  0
   61.6920   32.4140   48.5000 C   0  0  0  0  0  0  0  0  0  0  0  0
   60.8230   31.6790   49.3260 O   0  0  0  0  0  0  0  0  0  0  0  0
   59.9620   32.2250   50.3250 C   0  0  0  0  0  0  0  0  0  0  0  0
   60.1209   33.3119   50.3826 H   0  0  0  0  0  0  0  0  0  0  0  0
   60.1973   31.7509   51.2893 H   0  0  0  0  0  0  0  0  0  0  0  0
   58.4990   31.9510   49.9910 C   0  0  0  0  0  0  0  0  0  0  0  0
   57.9242   31.8433   50.9226 H   0  0  0  0  0  0  0  0  0  0  0  0
   58.0936   32.7888   49.4048 H   0  0  0  0  0  0  0  0  0  0  0  0
   58.4243   31.0232   49.4048 H   0  0  0  0  0  0  0  0  0  0  0  0
   61.1610   33.0400   47.3580 C   0  0  0  0  0  0  0  0  0  0  0  0
   59.7800   32.8720   47.0290 N   0  0  0  0  0  0  0  0  0  0  0  0
   59.1490   31.7950   46.6430 C   0  0  0  0  0  0  0  0  0  0  0  0
   59.5350   30.5790   47.0930 N   0  0  0  0  0  0  0  0  0  0  0  0
   60.3220   30.3670   47.7450 H   0  0  0  0  0  0  0  0  0  0  0  0
   58.6630   29.7240   46.5380 C   0  0  0  0  0  0  0  0  0  0  0  0
   57.7640   30.4090   45.7800 C   0  0  0  0  0  0  0  0  0  0  0  0
   56.7110   29.7130   45.1800 C   0  0  0  0  0  0  0  0  0  0  0  0
   55.8310   30.2910   44.4900 O   0  0  0  0  0  0  0  0  0  0  0  0
   56.6470   28.3660   45.3660 N   0  0  0  0  0  0  0  0  0  0  0  0
   57.5690   27.6930   46.1210 C   0  0  0  0  0  0  0  0  0  0  0  0
   57.4480   26.4470   46.2610 O   0  0  0  0  0  0  0  0  0  0  0  0
   58.6050   28.3740   46.7230 N   0  0  0  0  0  0  0  0  0  0  0  0
   59.5960   27.6960   47.5710 C   0  0  0  0  0  0  0  0  0  0  0  0
   59.3494   27.8647   48.6296 H   0  0  0  0  0  0  0  0  0  0  0  0
   59.5829   26.6167   47.3590 H   0  0  0  0  0  0  0  0  0  0  0  0
   60.5972   28.0992   47.3590 H   0  0  0  0  0  0  0  0  0  0  0  0
   58.0540   31.7360   45.8100 N   0  0  0  0  0  0  0  0  0  0  0  0
   57.2050   32.8120   45.2720 C   0  0  0  0  0  0  0  0  0  0  0  0
   56.6735   32.4433   44.3823 H   0  0  0  0  0  0  0  0  0  0  0  0
   56.4840   33.1168   46.0448 H   0  0  0  0  0  0  0  0  0  0  0  0
   58.0530   34.0170   44.8860 C   0  0  0  0  0  0  0  0  0  0  0  0
   58.4084   34.5220   45.7963 H   0  0  0  0  0  0  0  0  0  0  0  0
   58.9160   33.6827   44.2915 H   0  0  0  0  0  0  0  0  0  0  0  0
   57.4470   34.7165   44.2915 H   0  0  0  0  0  0  0  0  0  0  0  0
   62.0080   33.7140   46.4670 C   0  0  0  0  0  0  0  0  0  0  0  0
   61.5977   34.1504   45.5444 H   0  0  0  0  0  0  0  0  0  0  0  0
  1  2  1  0
  2  3  2  0
  3  4  1  0
  3  5  1  0
  5  6  1  0
  5  7  2  0
  7  8  1  0
  8  9  1  0
  9 10  1  0
  9 11  1  0
  9 12  1  0
 12 13  1  0
 12 14  1  0
 12 15  1  0
  7 16  1  0
 16 17  1  0
 17 18  2  0
 18 19  1  0
 19 20  1  0
 19 21  1  0
 21 22  2  0
 22 23  1  0
 23 24  2  0
 23 25  1  0
 25 26  1  0
 26 27  2  0
 26 28  1  0
 28 29  1  0
 29 30  1  0
 29 31  1  0
 29 32  1  0
 22 33  1  0
 33 34  1  0
 34 35  1  0
 34 36  1  0
 34 37  1  0
 37 38  1  0
 37 39  1  0
 37 40  1  0
 16 41  2  0
 41 42  1  0
 41  2  1  0
 33 18  1  0
 28 21  1  0
M  CHG  1  25  -1
M  END
>  <UniqueID>  (84) 
81

>  <SMILES>  (84) 
CCOc1ccccc1/N=c1/[nH]c2c(c(=O)[n-]c(=O)n2C)n1CC

>  <Energy>  (84) 
99.41340376640947

>  <Genealogy>  (84) 
CCOc1ccccc1N=c1[nH]c2c(c(=O)[n-]c(=O)n2C)n1CC (protonated)
CCOc1ccccc1/N=c1/[nH]c2c(c(=O)[n-]c(=O)n2C)n1CC (cis-trans isomerization)
CCOc1ccccc1/N=c1/[nH]c2c(c(=O)[n-]c(=O)n2C)n1CC (3D coordinates assigned)
CCOc1ccccc1/N=c1/[nH]c2c(c(=O)[n-]c(=O)n2C)n1CC (optimized conformer: 99.41340376640947 kcal/mol)

>  <smiles>  (84) 
CCOc1ccccc1N=c1[nH]c2c(c(=O)[nH]c(=O)n2C)n1CC

>  <score_type>  (84) 
oracle

>  <origin>  (84) 
adg

>  <m_score__min__energy>  (84) 
-8.8900000000000006

>  <m_primary>  (84) 
energy

$$$$
84:0
     RDKit          3D

 39 41  0  0  0  0  0  0  0  0999 V2000
   60.3830   28.1120   49.3390 C   0  0  0  0  0  0  0  0  0  0  0  0
   59.8160   29.1470   48.4230 C   0  0  0  0  0  0  0  0  0  0  0  0
   59.8580   30.4380   48.6540 O   0  0  0  0  0  0  0  0  0  0  0  0
   59.2820   31.1070   47.6980 N   0  0  0  0  0  0  0  0  0  0  0  0
   58.8410   30.2130   46.7900 C   0  0  0  0  0  0  0  0  0  0  0  0
   58.2060   30.6120   45.5150 C   0  0  0  0  0  0  0  0  0  0  0  0
   58.4910   31.8700   44.9580 C   0  0  0  0  0  0  0  0  0  0  0  0
   57.9070   32.2550   43.7480 C   0  0  0  0  0  0  0  0  0  0  0  0
   57.0460   31.3830   43.0760 C   0  0  0  0  0  0  0  0  0  0  0  0
   56.7740   30.1210   43.6100 C   0  0  0  0  0  0  0  0  0  0  0  0
   57.3560   29.7330   44.8210 C   0  0  0  0  0  0  0  0  0  0  0  0
   59.1620   28.9330   47.2240 C   0  0  0  0  0  0  0  0  0  0  0  0
   58.8130   27.6290   46.6280 C   0  0  0  0  0  0  0  0  0  0  0  0
   59.7070   26.9730   46.0300 O   0  0  0  0  0  0  0  0  0  0  0  0
   57.4740   27.1150   46.7290 N   0  0  0  0  0  0  0  0  0  0  0  0
   57.0480   25.8710   46.1480 C   0  0  0  0  0  0  0  0  0  0  0  0
   57.9500   24.8080   45.9670 C   0  0  0  0  0  0  0  0  0  0  0  0
   57.5170   23.5920   45.4230 C   0  0  0  0  0  0  0  0  0  0  0  0
   58.6650   22.2780   45.1840 S   0  0  0  0  0  0  0  0  0  0  0  0
   58.3610   21.0300   46.3410 N   0  0  0  0  0  0  0  0  0  0  0  0
   60.0700   22.7840   45.3570 O   0  0  0  0  0  0  0  0  0  0  0  0
   58.5190   21.7230   43.7950 O   0  0  0  0  0  0  0  0  0  0  0  0
   56.1740   23.4340   45.0580 C   0  0  0  0  0  0  0  0  0  0  0  0
   55.2670   24.4760   45.2580 C   0  0  0  0  0  0  0  0  0  0  0  0
   55.6960   25.6890   45.8060 C   0  0  0  0  0  0  0  0  0  0  0  0
   54.7770   26.7150   45.9980 O   0  0  0  0  0  0  0  0  0  0  0  0
   60.2166   28.4157   50.3831 H   0  0  0  0  0  0  0  0  0  0  0  0
   59.8872   27.1476   49.1542 H   0  0  0  0  0  0  0  0  0  0  0  0
   61.4626   28.0106   49.1542 H   0  0  0  0  0  0  0  0  0  0  0  0
   59.1773   32.5554   45.4769 H   0  0  0  0  0  0  0  0  0  0  0  0
   58.1254   33.2461   43.3238 H   0  0  0  0  0  0  0  0  0  0  0  0
   56.5826   31.6903   42.1269 H   0  0  0  0  0  0  0  0  0  0  0  0
   56.1017   29.4321   43.0776 H   0  0  0  0  0  0  0  0  0  0  0  0
   57.1476   28.7345   45.2329 H   0  0  0  0  0  0  0  0  0  0  0  0
   56.7490   27.7050   47.1960 H   0  0  0  0  0  0  0  0  0  0  0  0
   59.0044   24.9322   46.2549 H   0  0  0  0  0  0  0  0  0  0  0  0
   59.1660   20.3660   46.2920 H   0  0  0  0  0  0  0  0  0  0  0  0
   55.8335   22.4874   44.6131 H   0  0  0  0  0  0  0  0  0  0  0  0
   54.2102   24.3425   44.9834 H   0  0  0  0  0  0  0  0  0  0  0  0
  1  2  1  0
  2  3  1  0
  3  4  1  0
  4  5  2  0
  5  6  1  0
  6  7  2  0
  7  8  1  0
  8  9  2  0
  9 10  1  0
 10 11  2  0
  5 12  1  0
 12 13  1  0
 13 14  2  0
 13 15  1  0
 15 16  1  0
 16 17  2  0
 17 18  1  0
 18 19  1  0
 19 20  1  0
 19 21  2  0
 19 22  2  0
 18 23  2  0
 23 24  1  0
 24 25  2  0
 25 26  1  0
 12  2  2  0
 25 16  1  0
 11  6  1  0
  1 27  1  0
  1 28  1  0
  1 29  1  0
  7 30  1  0
  8 31  1  0
  9 32  1  0
 10 33  1  0
 11 34  1  0
 15 35  1  0
 17 36  1  0
 20 37  1  0
 23 38  1  0
 24 39  1  0
M  CHG  2  20  -1  26  -1
M  END
>  <UniqueID>  (85) 
82

>  <SMILES>  (85) 
Cc1onc(-c2ccccc2)c1C(=O)Nc1cc(S([NH-])(=O)=O)ccc1[O-]

>  <Energy>  (85) 
81.66502560240242

>  <Genealogy>  (85) 
Cc1onc(-c2ccccc2)c1C(=O)Nc1cc(S([NH-])(=O)=O)ccc1[O-] (protonated)
Cc1onc(-c2ccccc2)c1C(=O)Nc1cc(S([NH-])(=O)=O)ccc1[O-] (3D coordinates assigned)
Cc1onc(-c2ccccc2)c1C(=O)Nc1cc(S([NH-])(=O)=O)ccc1[O-] (optimized conformer: 81.66502560240242 kcal/mol)

>  <smiles>  (85) 
Cc1onc(-c2ccccc2)c1C(=O)Nc1cc(S(N)(=O)=O)ccc1O

>  <score_type>  (85) 
oracle

>  <origin>  (85) 
adg

>  <m_score__min__energy>  (85) 
-13.130000000000001

>  <m_primary>  (85) 
energy

$$$$
85:0
     RDKit          3D

 52 55  0  0  0  0  0  0  0  0999 V2000
   59.3070   35.1440   46.7680 C   0  0  0  0  0  0  0  0  0  0  0  0
   58.3800   34.2420   45.9460 C   0  0  0  0  0  0  0  0  0  0  0  0
   59.0580   33.0000   45.5050 N   0  0  0  0  0  0  0  0  0  0  0  0
   58.1880   31.8470   45.3060 C   0  0  0  0  0  0  0  0  0  0  0  0
   57.0480   31.9260   44.4760 C   0  0  0  0  0  0  0  0  0  0  0  0
   56.1860   30.8440   44.3330 C   0  0  0  0  0  0  0  0  0  0  0  0
   56.4360   29.6470   44.9940 C   0  0  0  0  0  0  0  0  0  0  0  0
   55.5190   28.6110   44.8580 O   0  0  0  0  0  0  0  0  0  0  0  0
   57.6000   29.4990   45.7790 C   0  0  0  0  0  0  0  0  0  0  0  0
   58.5090   30.5820   45.8890 C   0  0  0  0  0  0  0  0  0  0  0  0
   59.8060   30.3320   46.5740 C   0  0  0  0  0  0  0  0  0  0  0  0
   60.8340   30.9780   46.2330 O   0  0  0  0  0  0  0  0  0  0  0  0
   59.9330   29.2180   47.5440 C   0  0  0  0  0  0  0  0  0  0  0  0
   60.9820   29.1620   48.4980 C   0  0  0  0  0  0  0  0  0  0  0  0
   61.8630   30.2840   48.6950 N   0  0  0  0  0  0  0  0  0  0  0  0
   62.1470   30.8520   50.0130 C   0  0  0  0  0  0  0  0  0  0  0  0
   61.1150   31.8940   50.3630 C   0  0  0  0  0  0  0  0  0  0  0  0
   60.6710   32.0150   51.6900 C   0  0  0  0  0  0  0  0  0  0  0  0
   59.7540   33.0060   52.0400 C   0  0  0  0  0  0  0  0  0  0  0  0
   59.2760   33.8910   51.0720 C   0  0  0  0  0  0  0  0  0  0  0  0
   59.7170   33.7880   49.7510 C   0  0  0  0  0  0  0  0  0  0  0  0
   60.6430   32.7920   49.3820 C   0  0  0  0  0  0  0  0  0  0  0  0
   61.1160   32.6710   48.0660 O   0  0  0  0  0  0  0  0  0  0  0  0
   62.2760   33.3240   47.5590 C   0  0  0  0  0  0  0  0  0  0  0  0
   61.1190   28.0210   49.3050 C   0  0  0  0  0  0  0  0  0  0  0  0
   60.2260   26.9570   49.1860 C   0  0  0  0  0  0  0  0  0  0  0  0
   59.1760   27.0230   48.2750 C   0  0  0  0  0  0  0  0  0  0  0  0
   59.0140   28.1510   47.4540 C   0  0  0  0  0  0  0  0  0  0  0  0
   57.8910   28.2240   46.4930 C   0  0  0  0  0  0  0  0  0  0  0  0
   57.1760   27.2040   46.2950 O   0  0  0  0  0  0  0  0  0  0  0  0
   59.1301   34.9719   47.8400 H   0  0  0  0  0  0  0  0  0  0  0  0
   60.3545   34.9101   46.5270 H   0  0  0  0  0  0  0  0  0  0  0  0
   59.1018   36.1975   46.5270 H   0  0  0  0  0  0  0  0  0  0  0  0
   57.5101   33.9715   46.5625 H   0  0  0  0  0  0  0  0  0  0  0  0
   58.0749   34.7987   45.0477 H   0  0  0  0  0  0  0  0  0  0  0  0
   59.7330   32.7720   46.2690 H   0  0  0  0  0  0  0  0  0  0  0  0
   59.6070   33.1630   44.6290 H   0  0  0  0  0  0  0  0  0  0  0  0
   56.8383   32.8595   43.9333 H   0  0  0  0  0  0  0  0  0  0  0  0
   55.2978   30.9363   43.6906 H   0  0  0  0  0  0  0  0  0  0  0  0
   62.3840   30.6690   47.8760 H   0  0  0  0  0  0  0  0  0  0  0  0
   62.1249   30.0509   50.7665 H   0  0  0  0  0  0  0  0  0  0  0  0
   63.1411   31.3225   49.9950 H   0  0  0  0  0  0  0  0  0  0  0  0
   61.0488   31.3240   52.4580 H   0  0  0  0  0  0  0  0  0  0  0  0
   59.4069   33.0903   53.0804 H   0  0  0  0  0  0  0  0  0  0  0  0
   58.5512   34.6703   51.3501 H   0  0  0  0  0  0  0  0  0  0  0  0
   59.3387   34.4896   48.9929 H   0  0  0  0  0  0  0  0  0  0  0  0
   62.8963   33.6732   48.3977 H   0  0  0  0  0  0  0  0  0  0  0  0
   62.8543   32.6189   46.9439 H   0  0  0  0  0  0  0  0  0  0  0  0
   61.9732   34.1842   46.9439 H   0  0  0  0  0  0  0  0  0  0  0  0
   61.9379   27.9662   50.0373 H   0  0  0  0  0  0  0  0  0  0  0  0
   60.3517   26.0627   49.8140 H   0  0  0  0  0  0  0  0  0  0  0  0
   58.4674   26.1852   48.1973 H   0  0  0  0  0  0  0  0  0  0  0  0
  1  2  1  0
  2  3  1  0
  3  4  1  0
  4  5  2  0
  5  6  1  0
  6  7  2  0
  7  8  1  0
  7  9  1  0
  9 10  2  0
 10 11  1  0
 11 12  2  0
 11 13  1  0
 13 14  2  0
 14 15  1  0
 15 16  1  0
 16 17  1  0
 17 18  2  0
 18 19  1  0
 19 20  2  0
 20 21  1  0
 21 22  2  0
 22 23  1  0
 23 24  1  0
 14 25  1  0
 25 26  2  0
 26 27  1  0
 27 28  2  0
 28 29  1  0
 29 30  2  0
 10  4  1  0
 28 13  1  0
 29  9  1  0
 22 17  1  0
  1 31  1  0
  1 32  1  0
  1 33  1  0
  2 34  1  0
  2 35  1  0
  3 36  1  0
  3 37  1  0
  5 38  1  0
  6 39  1  0
 15 40  1  0
 16 41  1  0
 16 42  1  0
 18 43  1  0
 19 44  1  0
 20 45  1  0
 21 46  1  0
 24 47  1  0
 24 48  1  0
 24 49  1  0
 25 50  1  0
 26 51  1  0
 27 52  1  0
M  CHG  2   3   1   8  -1
M  END
>  <UniqueID>  (86) 
83

>  <SMILES>  (86) 
CC[NH2+]c1ccc([O-])c2c1C(=O)c1c(NCc3ccccc3OC)cccc1C2=O

>  <Energy>  (86) 
77.62940625627579

>  <Genealogy>  (86) 
CC[NH2+]c1ccc([O-])c2c1C(=O)c1c(NCc3ccccc3OC)cccc1C2=O (protonated)
CC[NH2+]c1ccc([O-])c2c1C(=O)c1c(NCc3ccccc3OC)cccc1C2=O (3D coordinates assigned)
CC[NH2+]c1ccc([O-])c2c1C(=O)c1c(NCc3ccccc3OC)cccc1C2=O (nonaromatic ring conformer: 77.62940625627579 kcal/mol)

>  <smiles>  (86) 
CCNc1ccc(O)c2c1C(=O)c1c(NCc3ccccc3OC)cccc1C2=O

>  <score_type>  (86) 
oracle

>  <origin>  (86) 
adg

>  <m_score__min__energy>  (86) 
-9.5399999999999991

>  <m_primary>  (86) 
energy

$$$$
86:0
     RDKit          3D

 67 70  0  0  0  0  0  0  0  0999 V2000
   63.4280   29.4030   51.9300 C   0  0  0  0  0  0  0  0  0  0  0  0
   63.4460   30.8720   51.4650 C   0  0  0  0  0  0  0  0  0  0  0  0
   62.2200   31.3880   50.7810 N   0  0  1  0  0  0  0  0  0  0  0  0
   62.4700   32.4600   49.7700 C   0  0  0  0  0  0  0  0  0  0  0  0
   63.0130   32.0170   48.3730 C   0  0  2  0  0  0  0  0  0  0  0  0
   63.8620   33.1400   47.7050 C   0  0  0  0  0  0  0  0  0  0  0  0
   63.1590   33.8400   46.5360 C   0  0  0  0  0  0  0  0  0  0  0  0
   61.6570   33.9180   46.7820 C   0  0  0  0  0  0  0  0  0  0  0  0
   61.0500   32.5680   46.8120 N   0  0  0  0  0  0  0  0  0  0  0  0
   59.6900   32.5810   47.3920 C   0  0  0  0  0  0  0  0  0  0  0  0
   58.7120   31.8090   46.5280 C   0  0  0  0  0  0  0  0  0  0  0  0
   57.9200   32.5510   45.6380 C   0  0  0  0  0  0  0  0  0  0  0  0
   57.0070   31.9070   44.8050 C   0  0  0  0  0  0  0  0  0  0  0  0
   56.8740   30.5600   44.8510 N   0  0  0  0  0  0  0  0  0  0  0  0
   57.6050   29.7940   45.7030 C   0  0  0  0  0  0  0  0  0  0  0  0
   57.4130   28.4080   45.7100 C   0  0  0  0  0  0  0  0  0  0  0  0
   58.1360   27.6020   46.5880 C   0  0  0  0  0  0  0  0  0  0  0  0
   59.0530   28.1760   47.4670 C   0  0  0  0  0  0  0  0  0  0  0  0
   59.2640   29.5580   47.4670 C   0  0  0  0  0  0  0  0  0  0  0  0
   58.5470   30.3950   46.5810 C   0  0  0  0  0  0  0  0  0  0  0  0
   61.9120   31.5060   47.4020 C   0  0  0  0  0  0  0  0  0  0  0  0
   61.2220   30.4040   50.3710 C   0  0  0  0  0  0  0  0  0  0  0  0
   61.5070   29.5320   49.5070 O   0  0  0  0  0  0  0  0  0  0  0  0
   59.8280   30.3950   50.9290 C   0  0  0  0  0  0  0  0  0  0  0  0
   59.3540   29.3770   51.7800 C   0  0  0  0  0  0  0  0  0  0  0  0
   58.0710   29.4420   52.3300 C   0  0  0  0  0  0  0  0  0  0  0  0
   57.2120   30.5230   52.0490 C   0  0  0  0  0  0  0  0  0  0  0  0
   55.8820   30.5950   52.6310 N   0  0  0  0  0  0  0  0  0  0  0  0
   55.6840   30.4090   54.0740 C   0  0  0  0  0  0  0  0  0  0  0  0
   54.7090   30.8590   51.7860 C   0  0  0  0  0  0  0  0  0  0  0  0
   57.6830   31.5320   51.1860 C   0  0  0  0  0  0  0  0  0  0  0  0
   58.9640   31.4670   50.6360 C   0  0  0  0  0  0  0  0  0  0  0  0
   63.4276   29.3664   53.0294 H   0  0  0  0  0  0  0  0  0  0  0  0
   62.5237   28.9080   51.5463 H   0  0  0  0  0  0  0  0  0  0  0  0
   64.3199   28.8860   51.5463 H   0  0  0  0  0  0  0  0  0  0  0  0
   63.6176   31.4980   52.3530 H   0  0  0  0  0  0  0  0  0  0  0  0
   64.2368   30.9179   50.7018 H   0  0  0  0  0  0  0  0  0  0  0  0
   61.7540   31.8980   51.5660 H   0  0  0  0  0  0  0  0  0  0  0  0
   61.5178   32.9848   49.6029 H   0  0  0  0  0  0  0  0  0  0  0  0
   63.2736   33.0738   50.2030 H   0  0  0  0  0  0  0  0  0  0  0  0
   63.6652   31.1549   48.5766 H   0  0  0  0  0  0  0  0  0  0  0  0
   64.0990   33.8954   48.4687 H   0  0  0  0  0  0  0  0  0  0  0  0
   64.7610   32.6578   47.2936 H   0  0  0  0  0  0  0  0  0  0  0  0
   63.5612   34.8583   46.4298 H   0  0  0  0  0  0  0  0  0  0  0  0
   63.3382   33.2622   45.6173 H   0  0  0  0  0  0  0  0  0  0  0  0
   61.4765   34.4144   47.7469 H   0  0  0  0  0  0  0  0  0  0  0  0
   61.1982   34.4887   45.9612 H   0  0  0  0  0  0  0  0  0  0  0  0
   59.7230   32.1231   48.3916 H   0  0  0  0  0  0  0  0  0  0  0  0
   59.3493   33.6252   47.4516 H   0  0  0  0  0  0  0  0  0  0  0  0
   58.0204   33.6457   45.5978 H   0  0  0  0  0  0  0  0  0  0  0  0
   56.3921   32.4949   44.1076 H   0  0  0  0  0  0  0  0  0  0  0  0
   56.6881   27.9523   45.0194 H   0  0  0  0  0  0  0  0  0  0  0  0
   57.9828   26.5127   46.5872 H   0  0  0  0  0  0  0  0  0  0  0  0
   59.6142   27.5375   48.1651 H   0  0  0  0  0  0  0  0  0  0  0  0
   59.9941   29.9981   48.1622 H   0  0  0  0  0  0  0  0  0  0  0  0
   61.2649   30.8100   47.9559 H   0  0  0  0  0  0  0  0  0  0  0  0
   62.4398   31.0354   46.5594 H   0  0  0  0  0  0  0  0  0  0  0  0
   60.0023   28.5199   52.0145 H   0  0  0  0  0  0  0  0  0  0  0  0
   57.7258   28.6355   52.9936 H   0  0  0  0  0  0  0  0  0  0  0  0
   56.3774   31.0604   54.6262 H   0  0  0  0  0  0  0  0  0  0  0  0
   54.6482   30.6683   54.3384 H   0  0  0  0  0  0  0  0  0  0  0  0
   55.8781   29.3590   54.3384 H   0  0  0  0  0  0  0  0  0  0  0  0
   53.8346   31.0558   52.4237 H   0  0  0  0  0  0  0  0  0  0  0  0
   54.9044   31.7356   51.1509 H   0  0  0  0  0  0  0  0  0  0  0  0
   54.5100   29.9832   51.1509 H   0  0  0  0  0  0  0  0  0  0  0  0
   57.0313   32.3839   50.9420 H   0  0  0  0  0  0  0  0  0  0  0  0
   59.3043   32.2670   49.9621 H   0  0  0  0  0  0  0  0  0  0  0  0
  1  2  1  0
  2  3  1  0
  3  4  1  0
  4  5  1  0
  5  6  1  0
  6  7  1  0
  7  8  1  0
  8  9  1  0
  9 10  1  0
 10 11  1  0
 11 12  2  0
 12 13  1  0
 13 14  2  0
 14 15  1  0
 15 16  2  0
 16 17  1  0
 17 18  2  0
 18 19  1  0
 19 20  2  0
  9 21  1  0
  3 22  1  0
 22 23  2  0
 22 24  1  0
 24 25  2  0
 25 26  1  0
 26 27  2  0
 27 28  1  0
 28 29  1  0
 28 30  1  0
 27 31  1  0
 31 32  2  0
 21  5  1  0
 32 24  1  0
 20 11  1  0
 20 15  1  0
  1 33  1  0
  1 34  1  0
  1 35  1  0
  2 36  1  0
  2 37  1  0
  3 38  1  1
  4 39  1  0
  4 40  1  0
  5 41  1  1
  6 42  1  0
  6 43  1  0
  7 44  1  0
  7 45  1  0
  8 46  1  0
  8 47  1  0
 10 48  1  0
 10 49  1  0
 12 50  1  0
 13 51  1  0
 16 52  1  0
 17 53  1  0
 18 54  1  0
 19 55  1  0
 21 56  1  0
 21 57  1  0
 25 58  1  0
 26 59  1  0
 29 60  1  0
 29 61  1  0
 29 62  1  0
 30 63  1  0
 30 64  1  0
 30 65  1  0
 31 66  1  0
 32 67  1  0
M  CHG  1   3   1
M  END
>  <UniqueID>  (87) 
84

>  <SMILES>  (87) 
CC[N@@H+](C[C@@H]1CCCN(Cc2ccnc3ccccc23)C1)C(=O)c1ccc(N(C)C)cc1

>  <Energy>  (87) 
107.2308162874791

>  <Genealogy>  (87) 
CC[NH+](CC1CCCN(Cc2ccnc3ccccc23)C1)C(=O)c1ccc(N(C)C)cc1 (protonated)
CC[N@@H+](C[C@@H]1CCCN(Cc2ccnc3ccccc23)C1)C(=O)c1ccc(N(C)C)cc1 (chirality)
CC[N@@H+](C[C@@H]1CCCN(Cc2ccnc3ccccc23)C1)C(=O)c1ccc(N(C)C)cc1 (3D coordinates assigned)
CC[N@@H+](C[C@@H]1CCCN(Cc2ccnc3ccccc23)C1)C(=O)c1ccc(N(C)C)cc1 (nonaromatic ring conformer: 107.2308162874791 kcal/mol)

>  <smiles>  (87) 
CCN(CC1CCCN(Cc2ccnc3ccccc23)C1)C(=O)c1ccc(N(C)C)cc1

>  <score_type>  (87) 
oracle

>  <origin>  (87) 
adg

>  <m_score__min__energy>  (87) 
-7.3200000000000003

>  <m_primary>  (87) 
energy

$$$$
87:0
     RDKit          3D

 28 30  0  0  0  0  0  0  0  0999 V2000
   56.5020   21.8480   42.6400 Cl  0  0  0  0  0  0  0  0  0  0  0  0
   56.4300   23.2430   43.7020 C   0  0  0  0  0  0  0  0  0  0  0  0
   57.4450   24.2040   43.6660 C   0  0  0  0  0  0  0  0  0  0  0  0
   57.3870   25.3160   44.5110 C   0  0  0  0  0  0  0  0  0  0  0  0
   56.3130   25.4810   45.3940 C   0  0  0  0  0  0  0  0  0  0  0  0
   56.2920   26.6160   46.2210 O   0  0  0  0  0  0  0  0  0  0  0  0
   57.4320   27.3160   46.6380 C   0  0  0  0  0  0  0  0  0  0  0  0
   58.3720   26.6360   47.4230 C   0  0  0  0  0  0  0  0  0  0  0  0
   59.4920   27.3020   47.9230 C   0  0  0  0  0  0  0  0  0  0  0  0
   59.6860   28.6530   47.6360 C   0  0  0  0  0  0  0  0  0  0  0  0
   58.7740   29.3370   46.8280 C   0  0  0  0  0  0  0  0  0  0  0  0
   57.6540   28.6730   46.2970 C   0  0  0  0  0  0  0  0  0  0  0  0
   56.7610   29.4100   45.3760 C   0  0  0  0  0  0  0  0  0  0  0  0
   57.0290   30.6290   44.8710 N   0  0  0  0  0  0  0  0  0  0  0  0
   56.0070   30.9020   44.0710 N   0  0  0  0  0  0  0  0  0  0  0  0
   55.1500   29.8920   44.0720 N   0  0  0  0  0  0  0  0  0  0  0  0
   55.6020   28.9480   44.8770 N   0  0  0  0  0  0  0  0  0  0  0  0
   55.3010   24.5020   45.4370 C   0  0  0  0  0  0  0  0  0  0  0  0
   55.3610   23.3920   44.5900 C   0  0  0  0  0  0  0  0  0  0  0  0
   58.2901   24.0848   42.9720 H   0  0  0  0  0  0  0  0  0  0  0  0
   58.1906   26.0666   44.4820 H   0  0  0  0  0  0  0  0  0  0  0  0
   58.2263   25.5690   47.6471 H   0  0  0  0  0  0  0  0  0  0  0  0
   60.2218   26.7613   48.5435 H   0  0  0  0  0  0  0  0  0  0  0  0
   60.5590   29.1813   48.0467 H   0  0  0  0  0  0  0  0  0  0  0  0
   58.9333   30.4025   46.6057 H   0  0  0  0  0  0  0  0  0  0  0  0
   55.1420   28.0240   45.0370 H   0  0  0  0  0  0  0  0  0  0  0  0
   54.4613   24.6115   46.1391 H   0  0  0  0  0  0  0  0  0  0  0  0
   54.5649   22.6336   44.6223 H   0  0  0  0  0  0  0  0  0  0  0  0
  1  2  1  0
  2  3  2  0
  3  4  1  0
  4  5  2  0
  5  6  1  0
  6  7  1  0
  7  8  2  0
  8  9  1  0
  9 10  2  0
 10 11  1  0
 11 12  2  0
 12 13  1  0
 13 14  2  0
 14 15  1  0
 15 16  1  0
 16 17  2  0
  5 18  1  0
 18 19  2  0
 19  2  1  0
 12  7  1  0
 17 13  1  0
  3 20  1  0
  4 21  1  0
  8 22  1  0
  9 23  1  0
 10 24  1  0
 11 25  1  0
 17 26  1  0
 18 27  1  0
 19 28  1  0
M  CHG  2  15  -1  17   1
M  END
>  <UniqueID>  (88) 
85

>  <SMILES>  (88) 
Clc1ccc(Oc2ccccc2-c2n[n-]n[nH+]2)cc1

>  <Energy>  (88) 
81.1776555783287

>  <Genealogy>  (88) 
Clc1ccc(Oc2ccccc2-c2n[n-]n[nH+]2)cc1 (protonated)
Clc1ccc(Oc2ccccc2-c2n[n-]n[nH+]2)cc1 (3D coordinates assigned)
Clc1ccc(Oc2ccccc2-c2n[n-]n[nH+]2)cc1 (optimized conformer: 81.1776555783287 kcal/mol)

>  <smiles>  (88) 
Clc1ccc(Oc2ccccc2-c2nn[nH]n2)cc1

>  <score_type>  (88) 
oracle

>  <origin>  (88) 
adg

>  <m_score__min__energy>  (88) 
-8.3100000000000005

>  <m_primary>  (88) 
energy

$$$$
88:0
     RDKit          3D

 70 74  0  0  1  0  0  0  0  0999 V2000
   60.5020   28.0450   45.5570 C   0  0  0  0  0  0  0  0  0  0  0  0
   59.1690   28.2540   46.0630 O   0  0  0  0  0  0  0  0  0  0  0  0
   58.4650   29.2840   45.4810 C   0  0  0  0  0  0  0  0  0  0  0  0
   58.8060   30.5930   45.6600 C   0  0  0  0  0  0  0  0  0  0  0  0
   59.9060   31.1050   46.3580 N   0  0  0  0  0  0  0  0  0  0  0  0
   59.9770   32.1890   47.2350 C   0  0  0  0  0  0  0  0  0  0  0  0
   58.9770   32.8810   47.5320 O   0  0  0  0  0  0  0  0  0  0  0  0
   61.2390   32.6130   47.8880 C   0  0  0  0  0  0  0  0  0  0  0  0
   62.4720   32.3120   47.3680 C   0  0  0  0  0  0  0  0  0  0  0  0
   63.6510   32.7220   48.0010 C   0  0  0  0  0  0  0  0  0  0  0  0
   63.5970   33.4470   49.1740 C   0  0  0  0  0  0  0  0  0  0  0  0
   64.8250   33.8400   49.7790 N   0  0  0  0  0  0  0  0  0  0  0  0
   65.4810   32.9750   50.4720 C   0  0  0  0  0  0  0  0  0  0  0  0
   66.8050   32.8600   50.2350 N   0  0  0  0  0  0  0  0  0  0  0  0
   67.5620   31.9780   50.9200 C   0  0  0  0  0  0  0  0  0  0  0  0
   67.0050   31.1670   51.8810 C   0  0  0  0  0  0  0  0  0  0  0  0
   67.9690   30.0230   52.7670 Cl  0  0  0  0  0  0  0  0  0  0  0  0
   65.6590   31.2950   52.1120 C   0  0  0  0  0  0  0  0  0  0  0  0
   65.0550   30.5850   52.9920 N   0  0  0  0  0  0  0  0  0  0  0  0
   64.6370   29.2440   52.8130 C   0  0  0  0  0  0  0  0  0  0  0  0
   65.4230   28.2290   53.3810 C   0  0  0  0  0  0  0  0  0  0  0  0
   65.0430   26.8890   53.2550 C   0  0  0  0  0  0  0  0  0  0  0  0
   63.8710   26.5840   52.5560 C   0  0  0  0  0  0  0  0  0  0  0  0
   63.0900   27.5850   51.9910 C   0  0  0  0  0  0  0  0  0  0  0  0
   63.4660   28.9170   52.1160 C   0  0  0  0  0  0  0  0  0  0  0  0
   62.4850   30.1590   51.4130 S   0  0  0  0  0  0  0  0  0  0  0  0
   62.2730   31.2230   52.4790 O   0  0  0  0  0  0  0  0  0  0  0  0
   63.0670   30.8140   50.2200 O   0  0  0  0  0  0  0  0  0  0  0  0
   60.8480   29.5090   51.0610 C   0  0  0  0  0  0  0  0  0  0  0  0
   59.9450   30.2420   50.1450 C   0  0  0  0  0  0  0  0  0  0  0  0
   60.5950   29.0220   49.6450 C   0  0  0  0  0  0  0  0  0  0  0  0
   64.9210   32.1890   51.4110 N   0  0  0  0  0  0  0  0  0  0  0  0
   62.3650   33.7590   49.7110 C   0  0  0  0  0  0  0  0  0  0  0  0
   61.2210   33.3400   49.0650 C   0  0  0  0  0  0  0  0  0  0  0  0
   57.9870   31.5290   45.0080 C   0  0  0  0  0  0  0  0  0  0  0  0
   56.9120   31.1520   44.2400 C   0  0  0  0  0  0  0  0  0  0  0  0
   56.5770   29.8300   44.0650 C   0  0  0  0  0  0  0  0  0  0  0  0
   57.3680   28.8950   44.6960 C   0  0  0  0  0  0  0  0  0  0  0  0
   57.0450   27.5250   44.5230 N   0  0  0  0  0  0  0  0  0  0  0  0
   56.6370   26.5200   45.8760 S   0  0  0  0  0  0  0  0  0  0  0  0
   57.4020   24.9290   45.7170 C   0  0  0  0  0  0  0  0  0  0  0  0
   57.1380   27.1660   47.1330 O   0  0  0  0  0  0  0  0  0  0  0  0
   55.1410   26.3850   46.0060 O   0  0  0  0  0  0  0  0  0  0  0  0
   61.2009   27.9354   46.3993 H   0  0  0  0  0  0  0  0  0  0  0  0
   60.5222   27.1327   44.9427 H   0  0  0  0  0  0  0  0  0  0  0  0
   60.8004   28.9073   44.9427 H   0  0  0  0  0  0  0  0  0  0  0  0
   60.8360   30.5960   46.1920 H   0  0  0  0  0  0  0  0  0  0  0  0
   62.5356   31.7358   46.4331 H   0  0  0  0  0  0  0  0  0  0  0  0
   64.6259   32.4650   47.5612 H   0  0  0  0  0  0  0  0  0  0  0  0
   67.2530   33.4640   49.5090 H   0  0  0  0  0  0  0  0  0  0  0  0
   68.6388   31.9066   50.7071 H   0  0  0  0  0  0  0  0  0  0  0  0
   66.3416   28.4887   53.9275 H   0  0  0  0  0  0  0  0  0  0  0  0
   65.6550   26.0894   53.6978 H   0  0  0  0  0  0  0  0  0  0  0  0
   63.5619   25.5335   52.4515 H   0  0  0  0  0  0  0  0  0  0  0  0
   62.1725   27.3225   51.4439 H   0  0  0  0  0  0  0  0  0  0  0  0
   60.7467   29.1059   52.0795 H   0  0  0  0  0  0  0  0  0  0  0  0
   58.8614   30.2432   50.3342 H   0  0  0  0  0  0  0  0  0  0  0  0
   59.8923   31.2822   49.7910 H   0  0  0  0  0  0  0  0  0  0  0  0
   60.0018   28.1119   49.4722 H   0  0  0  0  0  0  0  0  0  0  0  0
   61.2268   28.7714   48.7801 H   0  0  0  0  0  0  0  0  0  0  0  0
   63.8990   32.2700   51.6030 H   0  0  0  0  0  0  0  0  0  0  0  0
   62.2960   34.3361   50.6449 H   0  0  0  0  0  0  0  0  0  0  0  0
   60.2468   33.5962   49.5069 H   0  0  0  0  0  0  0  0  0  0  0  0
   58.2138   32.6000   45.1158 H   0  0  0  0  0  0  0  0  0  0  0  0
   56.3035   31.9279   43.7525 H   0  0  0  0  0  0  0  0  0  0  0  0
   55.7159   29.5322   43.4487 H   0  0  0  0  0  0  0  0  0  0  0  0
   57.0540   27.1220   43.5630 H   0  0  0  0  0  0  0  0  0  0  0  0
   57.6006   24.5160   46.7170 H   0  0  0  0  0  0  0  0  0  0  0  0
   56.7307   24.2526   45.1677 H   0  0  0  0  0  0  0  0  0  0  0  0
   58.3495   25.0310   45.1677 H   0  0  0  0  0  0  0  0  0  0  0  0
  1  2  1  0
  2  3  1  0
  3  4  2  0
  4  5  1  0
  5  6  1  0
  6  7  2  0
  6  8  1  0
  8  9  2  0
  9 10  1  0
 10 11  2  0
 11 12  1  0
 12 13  2  0
 13 14  1  0
 14 15  1  0
 15 16  2  0
 16 17  1  0
 16 18  1  0
 18 19  2  0
 19 20  1  0
 20 21  2  0
 21 22  1  0
 22 23  2  0
 23 24  1  0
 24 25  2  0
 25 26  1  0
 26 27  2  0
 26 28  2  0
 26 29  1  0
 29 30  1  0
 30 31  1  0
 18 32  1  0
 11 33  1  0
 33 34  2  0
  4 35  1  0
 35 36  2  0
 36 37  1  0
 37 38  2  0
 38 39  1  0
 39 40  1  0
 40 41  1  0
 40 42  2  0
 40 43  2  0
 38  3  1  0
 34  8  1  0
 32 13  1  0
 25 20  1  0
 31 29  1  0
  1 44  1  0
  1 45  1  0
  1 46  1  0
  5 47  1  0
  9 48  1  0
 10 49  1  0
 14 50  1  0
 15 51  1  0
 21 52  1  0
 22 53  1  0
 23 54  1  0
 24 55  1  0
 29 56  1  0
 30 57  1  0
 30 58  1  0
 31 59  1  0
 31 60  1  0
 32 61  1  0
 33 62  1  0
 34 63  1  0
 35 64  1  0
 36 65  1  0
 37 66  1  0
 39 67  1  0
 41 68  1  0
 41 69  1  0
 41 70  1  0
M  END
>  <smiles>  (89) 
COc1c(NC(=O)c2ccc(N=c3[nH]cc(Cl)c(=Nc4ccccc4S(=O)(=O)C4CC4)[nH]3)cc2)cccc1NS(C)(=O)=O

>  <score_type>  (89) 
oracle

>  <origin>  (89) 
adg

>  <m_score__min__energy>  (89) 
-9.5

>  <m_primary>  (89) 
energy

$$$$
89:0
     RDKit          3D

 55 58  0  0  0  0  0  0  0  0999 V2000
   60.2320   28.6330   44.7700 C   0  0  0  0  0  0  0  0  0  0  0  0
   59.2090   28.0490   45.6930 C   0  0  0  0  0  0  0  0  0  0  0  0
   59.2600   28.2180   47.0320 N   0  0  0  0  0  0  0  0  0  0  0  0
   58.1850   27.5540   47.4990 C   0  0  0  0  0  0  0  0  0  0  0  0
   57.5040   26.9950   46.4400 C   0  0  0  0  0  0  0  0  0  0  0  0
   56.2880   26.2360   46.5600 N   0  0  0  0  0  0  0  0  0  0  0  0
   56.2610   25.1360   47.1460 O   0  0  0  0  0  0  0  0  0  0  0  0
   55.1330   26.7070   45.9800 O   0  0  0  0  0  0  0  0  0  0  0  0
   58.1570   27.2930   45.2930 N   0  0  0  0  0  0  0  0  0  0  0  0
   57.7940   26.9570   43.9110 C   0  0  0  0  0  0  0  0  0  0  0  0
   57.4050   28.2150   43.1400 C   0  0  0  0  0  0  0  0  0  0  0  0
   57.0980   29.2570   44.0590 O   0  0  0  0  0  0  0  0  0  0  0  0
   57.1440   30.6120   43.7080 C   0  0  0  0  0  0  0  0  0  0  0  0
   56.6210   31.0020   42.6270 O   0  0  0  0  0  0  0  0  0  0  0  0
   57.8060   31.5830   44.6050 C   0  0  0  0  0  0  0  0  0  0  0  0
   57.8660   31.3560   45.9920 C   0  0  0  0  0  0  0  0  0  0  0  0
   58.4880   32.2800   46.8350 C   0  0  0  0  0  0  0  0  0  0  0  0
   59.0590   33.4450   46.3070 C   0  0  0  0  0  0  0  0  0  0  0  0
   59.8660   34.6090   47.3560 S   0  0  0  0  0  0  0  0  0  0  0  0
   59.2470   34.5790   48.7270 O   0  0  0  0  0  0  0  0  0  0  0  0
   59.6660   35.9830   46.7790 O   0  0  0  0  0  0  0  0  0  0  0  0
   61.5820   34.2690   47.4460 N   0  0  0  0  0  0  0  0  0  0  0  0
   61.9860   33.1010   46.6410 C   0  0  0  0  0  0  0  0  0  0  0  0
   61.4040   31.7850   47.1730 C   0  0  0  0  0  0  0  0  0  0  0  0
   61.4970   31.6810   48.6710 C   0  0  0  0  0  0  0  0  0  0  0  0
   61.2560   30.4420   49.2870 C   0  0  0  0  0  0  0  0  0  0  0  0
   61.2840   30.3280   50.6780 C   0  0  0  0  0  0  0  0  0  0  0  0
   61.5440   31.4510   51.4670 C   0  0  0  0  0  0  0  0  0  0  0  0
   61.7720   32.6910   50.8670 C   0  0  0  0  0  0  0  0  0  0  0  0
   61.7330   32.8220   49.4690 C   0  0  0  0  0  0  0  0  0  0  0  0
   62.0440   34.1600   48.8420 C   0  0  0  0  0  0  0  0  0  0  0  0
   59.0080   33.6750   44.9270 C   0  0  0  0  0  0  0  0  0  0  0  0
   58.3840   32.7530   44.0810 C   0  0  0  0  0  0  0  0  0  0  0  0
   61.0382   29.0932   45.3602 H   0  0  0  0  0  0  0  0  0  0  0  0
   60.6502   27.8375   44.1357 H   0  0  0  0  0  0  0  0  0  0  0  0
   59.7596   29.3975   44.1357 H   0  0  0  0  0  0  0  0  0  0  0  0
   57.8969   27.4713   48.5574 H   0  0  0  0  0  0  0  0  0  0  0  0
   58.6534   26.4806   43.4166 H   0  0  0  0  0  0  0  0  0  0  0  0
   56.9358   26.2690   43.9257 H   0  0  0  0  0  0  0  0  0  0  0  0
   58.2429   28.5263   42.4989 H   0  0  0  0  0  0  0  0  0  0  0  0
   56.5244   28.0052   42.5151 H   0  0  0  0  0  0  0  0  0  0  0  0
   57.4199   30.4442   46.4158 H   0  0  0  0  0  0  0  0  0  0  0  0
   58.5296   32.0919   47.9180 H   0  0  0  0  0  0  0  0  0  0  0  0
   61.6372   33.2479   45.6082 H   0  0  0  0  0  0  0  0  0  0  0  0
   63.0821   33.0246   46.6934 H   0  0  0  0  0  0  0  0  0  0  0  0
   60.3457   31.7226   46.8796 H   0  0  0  0  0  0  0  0  0  0  0  0
   61.9909   30.9603   46.7424 H   0  0  0  0  0  0  0  0  0  0  0  0
   61.0440   29.5565   48.6699 H   0  0  0  0  0  0  0  0  0  0  0  0
   61.1012   29.3529   51.1532 H   0  0  0  0  0  0  0  0  0  0  0  0
   61.5692   31.3583   52.5628 H   0  0  0  0  0  0  0  0  0  0  0  0
   61.9834   33.5706   51.4928 H   0  0  0  0  0  0  0  0  0  0  0  0
   61.5538   34.9463   49.4348 H   0  0  0  0  0  0  0  0  0  0  0  0
   63.1384   34.2705   48.8336 H   0  0  0  0  0  0  0  0  0  0  0  0
   59.4608   34.5850   44.5064 H   0  0  0  0  0  0  0  0  0  0  0  0
   58.3450   32.9441   42.9984 H   0  0  0  0  0  0  0  0  0  0  0  0
  1  2  1  0
  2  3  2  0
  3  4  1  0
  4  5  2  0
  5  6  1  0
  6  7  2  0
  6  8  1  0
  5  9  1  0
  9 10  1  0
 10 11  1  0
 11 12  1  0
 12 13  1  0
 13 14  2  0
 13 15  1  0
 15 16  2  0
 16 17  1  0
 17 18  2  0
 18 19  1  0
 19 20  2  0
 19 21  2  0
 19 22  1  0
 22 23  1  0
 23 24  1  0
 24 25  1  0
 25 26  2  0
 26 27  1  0
 27 28  2  0
 28 29  1  0
 29 30  2  0
 30 31  1  0
 18 32  1  0
 32 33  2  0
  9  2  1  0
 33 15  1  0
 31 22  1  0
 30 25  1  0
  1 34  1  0
  1 35  1  0
  1 36  1  0
  4 37  1  0
 10 38  1  0
 10 39  1  0
 11 40  1  0
 11 41  1  0
 16 42  1  0
 17 43  1  0
 23 44  1  0
 23 45  1  0
 24 46  1  0
 24 47  1  0
 26 48  1  0
 27 49  1  0
 28 50  1  0
 29 51  1  0
 31 52  1  0
 31 53  1  0
 32 54  1  0
 33 55  1  0
M  CHG  2   6   1   8  -1
M  END
>  <UniqueID>  (90) 
86

>  <SMILES>  (90) 
Cc1ncc([N+](=O)[O-])n1CCOC(=O)c1ccc(S(=O)(=O)N2CCc3ccccc3C2)cc1

>  <Energy>  (90) 
89.90611022610868

>  <Genealogy>  (90) 
Cc1ncc([N+](=O)[O-])n1CCOC(=O)c1ccc(S(=O)(=O)N2CCc3ccccc3C2)cc1 (3D coordinates assigned)
Cc1ncc([N+](=O)[O-])n1CCOC(=O)c1ccc(S(=O)(=O)N2CCc3ccccc3C2)cc1 (nonaromatic ring conformer: 89.90611022610868 kcal/mol)

>  <smiles>  (90) 
Cc1ncc([N+](=O)[O-])n1CCOC(=O)c1ccc(S(=O)(=O)N2CCc3ccccc3C2)cc1

>  <score_type>  (90) 
oracle

>  <origin>  (90) 
adg

>  <m_score__min__energy>  (90) 
-10.5

>  <m_primary>  (90) 
energy

$$$$
90:0
     RDKit          3D

 32 33  0  0  0  0  0  0  0  0999 V2000
   59.6130   35.2940   45.6390 C   0  0  0  0  0  0  0  0  0  0  0  0
   59.0770   34.2340   46.5810 C   0  0  0  0  0  0  0  0  0  0  0  0
   57.7200   33.8100   46.0620 C   0  0  0  0  0  0  0  0  0  0  0  0
   57.8490   33.2300   44.6810 C   0  0  0  0  0  0  0  0  0  0  0  0
   57.6550   31.7450   44.8350 C   0  0  0  0  0  0  0  0  0  0  0  0
   56.4570   31.1650   44.5910 N   0  0  0  0  0  0  0  0  0  0  0  0
   56.2750   29.8360   44.7260 C   0  0  0  0  0  0  0  0  0  0  0  0
   55.1500   29.2910   44.4960 O   0  0  0  0  0  0  0  0  0  0  0  0
   57.3410   29.0530   45.1240 C   0  0  0  0  0  0  0  0  0  0  0  0
   57.2390   27.6800   45.2890 C   0  0  0  0  0  0  0  0  0  0  0  0
   58.3170   26.9030   45.6900 C   0  0  0  0  0  0  0  0  0  0  0  0
   59.5080   27.5290   45.9260 C   0  0  0  0  0  0  0  0  0  0  0  0
   60.6740   26.7040   46.3570 C   0  0  0  0  0  0  0  0  0  0  0  0
   59.6380   28.8980   45.7710 C   0  0  0  0  0  0  0  0  0  0  0  0
   58.5570   29.6560   45.3710 C   0  0  0  0  0  0  0  0  0  0  0  0
   58.7080   30.9790   45.2280 N   0  0  0  0  0  0  0  0  0  0  0  0
   60.0334   36.1255   46.2237 H   0  0  0  0  0  0  0  0  0  0  0  0
   60.3987   34.8575   45.0049 H   0  0  0  0  0  0  0  0  0  0  0  0
   58.7957   35.6681   45.0049 H   0  0  0  0  0  0  0  0  0  0  0  0
   59.7581   33.3704   46.6015 H   0  0  0  0  0  0  0  0  0  0  0  0
   58.9947   34.6299   47.6040 H   0  0  0  0  0  0  0  0  0  0  0  0
   57.2941   33.0520   46.7359 H   0  0  0  0  0  0  0  0  0  0  0  0
   57.0610   34.6898   46.0211 H   0  0  0  0  0  0  0  0  0  0  0  0
   57.0788   33.6493   44.0169 H   0  0  0  0  0  0  0  0  0  0  0  0
   58.8268   33.4646   44.2351 H   0  0  0  0  0  0  0  0  0  0  0  0
   56.2728   27.1909   45.0959 H   0  0  0  0  0  0  0  0  0  0  0  0
   58.2152   25.8148   45.8141 H   0  0  0  0  0  0  0  0  0  0  0  0
   60.7160   26.6743   47.4558 H   0  0  0  0  0  0  0  0  0  0  0  0
   60.5641   25.6815   45.9665 H   0  0  0  0  0  0  0  0  0  0  0  0
   61.6016   27.1479   45.9665 H   0  0  0  0  0  0  0  0  0  0  0  0
   60.6056   29.3830   45.9672 H   0  0  0  0  0  0  0  0  0  0  0  0
   59.6420   31.4520   45.4160 H   0  0  0  0  0  0  0  0  0  0  0  0
  1  2  1  0
  2  3  1  0
  3  4  1  0
  4  5  1  0
  5  6  2  0
  6  7  1  0
  7  8  2  0
  7  9  1  0
  9 10  2  0
 10 11  1  0
 11 12  2  0
 12 13  1  0
 12 14  1  0
 14 15  2  0
 15 16  1  0
 16  5  1  0
 15  9  1  0
  1 17  1  0
  1 18  1  0
  1 19  1  0
  2 20  1  0
  2 21  1  0
  3 22  1  0
  3 23  1  0
  4 24  1  0
  4 25  1  0
 10 26  1  0
 11 27  1  0
 13 28  1  0
 13 29  1  0
 13 30  1  0
 14 31  1  0
 16 32  1  0
M  END
>  <smiles>  (91) 
CCCCc1nc(=O)c2ccc(C)cc2[nH]1

>  <score_type>  (91) 
oracle

>  <origin>  (91) 
adg

>  <m_score__min__energy>  (91) 
-6.7800000000000002

>  <m_primary>  (91) 
energy

$$$$
91:0
     RDKit          3D

 34 36  0  0  1  0  0  0  0  0999 V2000
   57.0840   31.3770   44.8910 N   0  0  0  0  0  0  0  0  0  0  0  0
   57.7590   32.0700   45.5110 C   0  0  0  0  0  0  0  0  0  0  0  0
   58.6070   32.9120   46.2580 C   0  0  0  0  0  0  0  0  0  0  0  0
   58.1270   34.2220   46.5260 C   0  0  0  0  0  0  0  0  0  0  0  0
   59.0390   34.9340   47.1730 N   0  0  0  0  0  0  0  0  0  0  0  0
   60.0950   34.1660   47.3490 C   0  0  0  0  0  0  0  0  0  0  0  0
   61.2680   34.4770   47.9390 N   0  0  0  0  0  0  0  0  0  0  0  0
   62.2300   33.5530   47.9970 C   0  0  0  0  0  0  0  0  0  0  0  0
   61.9790   32.3550   47.4660 N   0  0  0  0  0  0  0  0  0  0  0  0
   60.8210   32.0020   46.8690 C   0  0  0  0  0  0  0  0  0  0  0  0
   60.7070   30.8540   46.4750 N   0  0  0  0  0  0  0  0  0  0  0  0
   60.4610   29.6720   47.1440 C   0  0  0  0  0  0  0  0  0  0  0  0
   60.3520   28.4120   46.2970 C   0  0  0  0  0  0  0  0  0  0  0  0
   59.0100   27.8400   46.2230 C   0  0  0  0  0  0  0  0  0  0  0  0
   58.6070   26.6910   46.8700 C   0  0  0  0  0  0  0  0  0  0  0  0
   57.3410   26.1690   46.7870 C   0  0  0  0  0  0  0  0  0  0  0  0
   56.4320   26.8580   45.9980 C   0  0  0  0  0  0  0  0  0  0  0  0
   55.1180   26.3990   45.8540 O   0  0  0  0  0  0  0  0  0  0  0  0
   56.7880   28.0100   45.3320 C   0  0  0  0  0  0  0  0  0  0  0  0
   58.0640   28.5000   45.4400 C   0  0  0  0  0  0  0  0  0  0  0  0
   59.8380   32.9150   46.7910 C   0  0  0  0  0  0  0  0  0  0  0  0
   57.1336   34.5948   46.2360 H   0  0  0  0  0  0  0  0  0  0  0  0
   58.9260   35.9160   47.4790 H   0  0  0  0  0  0  0  0  0  0  0  0
   63.1995   33.7726   48.4680 H   0  0  0  0  0  0  0  0  0  0  0  0
   62.7360   31.6480   47.5170 H   0  0  0  0  0  0  0  0  0  0  0  0
   61.2800   29.5199   47.8623 H   0  0  0  0  0  0  0  0  0  0  0  0
   59.4669   29.8002   47.5972 H   0  0  0  0  0  0  0  0  0  0  0  0
   60.6767   28.6571   45.2750 H   0  0  0  0  0  0  0  0  0  0  0  0
   60.9856   27.6554   46.7830 H   0  0  0  0  0  0  0  0  0  0  0  0
   59.3450   26.1610   47.4900 H   0  0  0  0  0  0  0  0  0  0  0  0
   57.0605   25.2487   47.3203 H   0  0  0  0  0  0  0  0  0  0  0  0
   54.7540   25.6200   46.3820 H   0  0  0  0  0  0  0  0  0  0  0  0
   56.0476   28.5375   44.7127 H   0  0  0  0  0  0  0  0  0  0  0  0
   58.3431   29.4199   44.9053 H   0  0  0  0  0  0  0  0  0  0  0  0
  1  2  3  0
  2  3  1  0
  3  4  2  0
  4  5  1  0
  5  6  1  0
  6  7  1  0
  7  8  2  0
  8  9  1  0
  9 10  1  0
 10 11  2  0
 11 12  1  0
 12 13  1  0
 13 14  1  0
 14 15  2  0
 15 16  1  0
 16 17  2  0
 17 18  1  0
 17 19  1  0
 19 20  2  0
 10 21  1  0
 21  3  1  0
 21  6  2  0
 20 14  1  0
  4 22  1  0
  5 23  1  0
  8 24  1  0
  9 25  1  0
 12 26  1  0
 12 27  1  0
 13 28  1  0
 13 29  1  0
 15 30  1  0
 16 31  1  0
 18 32  1  0
 19 33  1  0
 20 34  1  0
M  END
>  <smiles>  (92) 
N#Cc1c[nH]c2nc[nH]c(=NCCc3ccc(O)cc3)c12

>  <score_type>  (92) 
oracle

>  <origin>  (92) 
adg

>  <m_score__min__energy>  (92) 
-7.54

>  <m_primary>  (92) 
energy

$$$$
92:0
     RDKit          3D

 28 29  0  0  0  0  0  0  0  0999 V2000
   55.1540   29.6990   44.8810 O   0  0  0  0  0  0  0  0  0  0  0  0
   56.5230   29.7370   44.2620 S   0  0  0  0  0  0  0  0  0  0  0  0
   56.3700   29.8100   42.7690 O   0  0  0  0  0  0  0  0  0  0  0  0
   57.4060   28.2960   44.6760 N   0  0  0  0  0  0  0  0  0  0  0  0
   57.0190   27.7990   45.9980 C   0  0  0  0  0  0  0  0  0  0  0  0
   57.2690   26.2940   46.0900 C   0  0  0  0  0  0  0  0  0  0  0  0
   56.0190   25.5330   45.7740 C   0  0  0  0  0  0  0  0  0  0  0  0
   55.9520   24.2370   45.3230 C   0  0  0  0  0  0  0  0  0  0  0  0
   54.6600   23.8810   45.2190 N   0  0  0  0  0  0  0  0  0  0  0  0
   53.9830   24.9770   45.6200 C   0  0  0  0  0  0  0  0  0  0  0  0
   54.7790   26.0070   45.9770 N   0  0  0  0  0  0  0  0  0  0  0  0
   57.4050   31.1600   44.8150 C   0  0  0  0  0  0  0  0  0  0  0  0
   58.1260   31.1330   46.0180 C   0  0  0  0  0  0  0  0  0  0  0  0
   58.8330   32.2640   46.4390 C   0  0  0  0  0  0  0  0  0  0  0  0
   58.8250   33.4240   45.6590 C   0  0  0  0  0  0  0  0  0  0  0  0
   58.1120   33.4530   44.4570 C   0  0  0  0  0  0  0  0  0  0  0  0
   57.4040   32.3240   44.0350 C   0  0  0  0  0  0  0  0  0  0  0  0
   57.6127   28.3137   46.7678 H   0  0  0  0  0  0  0  0  0  0  0  0
   55.9483   27.9953   46.1560 H   0  0  0  0  0  0  0  0  0  0  0  0
   58.0544   26.0133   45.3728 H   0  0  0  0  0  0  0  0  0  0  0  0
   57.5847   26.0485   47.1147 H   0  0  0  0  0  0  0  0  0  0  0  0
   56.8140   23.5960   45.0860 H   0  0  0  0  0  0  0  0  0  0  0  0
   52.8846   25.0266   45.6529 H   0  0  0  0  0  0  0  0  0  0  0  0
   58.1354   30.2202   46.6317 H   0  0  0  0  0  0  0  0  0  0  0  0
   59.3954   32.2407   47.3841 H   0  0  0  0  0  0  0  0  0  0  0  0
   59.3797   34.3139   45.9911 H   0  0  0  0  0  0  0  0  0  0  0  0
   58.1081   34.3653   43.8425 H   0  0  0  0  0  0  0  0  0  0  0  0
   56.8447   32.3494   43.0882 H   0  0  0  0  0  0  0  0  0  0  0  0
  1  2  2  0
  2  3  2  0
  2  4  1  0
  4  5  1  0
  5  6  1  0
  6  7  1  0
  7  8  2  0
  8  9  1  0
  9 10  1  0
 10 11  2  0
  2 12  1  0
 12 13  2  0
 13 14  1  0
 14 15  2  0
 15 16  1  0
 16 17  2  0
 11  7  1  0
 17 12  1  0
  5 18  1  0
  5 19  1  0
  6 20  1  0
  6 21  1  0
  8 22  1  0
 10 23  1  0
 13 24  1  0
 14 25  1  0
 15 26  1  0
 16 27  1  0
 17 28  1  0
M  CHG  2   4  -1   9  -1
M  END
>  <UniqueID>  (93) 
87

>  <SMILES>  (93) 
O=S(=O)([N-]CCc1c[n-]cn1)c1ccccc1

>  <Energy>  (93) 
52.41190255415603

>  <Genealogy>  (93) 
O=S(=O)([N-]CCc1c[n-]cn1)c1ccccc1 (protonated)
O=S(=O)([N-]CCc1c[n-]cn1)c1ccccc1 (3D coordinates assigned)
O=S(=O)([N-]CCc1c[n-]cn1)c1ccccc1 (optimized conformer: 52.41190255415603 kcal/mol)

>  <smiles>  (93) 
O=S(=O)(NCCc1c[nH]cn1)c1ccccc1

>  <score_type>  (93) 
oracle

>  <origin>  (93) 
adg

>  <m_score__min__energy>  (93) 
-9.9199999999999999

>  <m_primary>  (93) 
energy

$$$$
93:0
     RDKit          3D

 49 51  0  0  0  0  0  0  0  0999 V2000
   55.5470   27.5570   45.6190 O   0  0  0  0  0  0  0  0  0  0  0  0
   56.1740   28.6640   45.0540 C   0  0  0  0  0  0  0  0  0  0  0  0
   55.3940   29.6790   44.4920 C   0  0  0  0  0  0  0  0  0  0  0  0
   56.0010   30.8070   43.9350 C   0  0  0  0  0  0  0  0  0  0  0  0
   57.3940   30.9270   43.9390 C   0  0  0  0  0  0  0  0  0  0  0  0
   58.1570   32.3530   43.2570 Cl  0  0  0  0  0  0  0  0  0  0  0  0
   58.1800   29.9150   44.4990 C   0  0  0  0  0  0  0  0  0  0  0  0
   57.5790   28.7690   45.0470 C   0  0  0  0  0  0  0  0  0  0  0  0
   58.4410   27.7120   45.6840 C   0  0  0  0  0  0  0  0  0  0  0  0
   58.3850   27.8500   47.1450 N   0  0  0  0  0  0  0  0  0  0  0  0
   59.7110   27.6680   47.7560 C   0  0  0  0  0  0  0  0  0  0  0  0
   59.8070   28.4780   49.0570 C   0  0  0  0  0  0  0  0  0  0  0  0
   59.2250   29.8950   48.9180 C   0  0  0  0  0  0  0  0  0  0  0  0
   58.9500   30.2400   47.5140 N   0  0  0  0  0  0  0  0  0  0  0  0
   59.2440   31.6330   47.2860 C   0  0  0  0  0  0  0  0  0  0  0  0
   58.2040   32.5770   47.2160 C   0  0  0  0  0  0  0  0  0  0  0  0
   58.4860   33.9200   46.9470 C   0  0  0  0  0  0  0  0  0  0  0  0
   59.8040   34.3290   46.7350 C   0  0  0  0  0  0  0  0  0  0  0  0
   60.8460   33.3970   46.7860 C   0  0  0  0  0  0  0  0  0  0  0  0
   62.5330   33.9180   46.4800 S   0  0  0  0  0  0  0  0  0  0  0  0
   63.0340   33.5700   48.1640 C   0  0  0  0  0  0  0  0  0  0  0  0
   63.8020   32.4360   48.4530 C   0  0  0  0  0  0  0  0  0  0  0  0
   64.1690   32.1790   49.7750 C   0  0  0  0  0  0  0  0  0  0  0  0
   63.7690   33.0530   50.7890 C   0  0  0  0  0  0  0  0  0  0  0  0
   63.0060   34.1770   50.4610 C   0  0  0  0  0  0  0  0  0  0  0  0
   62.6570   34.4100   49.1660 N   0  0  0  0  0  0  0  0  0  0  0  0
   60.5670   32.0530   47.0640 C   0  0  0  0  0  0  0  0  0  0  0  0
   54.2977   29.5889   44.4884 H   0  0  0  0  0  0  0  0  0  0  0  0
   55.3824   31.6018   43.4927 H   0  0  0  0  0  0  0  0  0  0  0  0
   59.2752   30.0166   44.5106 H   0  0  0  0  0  0  0  0  0  0  0  0
   58.0736   26.7162   45.3954 H   0  0  0  0  0  0  0  0  0  0  0  0
   59.4802   27.8321   45.3438 H   0  0  0  0  0  0  0  0  0  0  0  0
   57.7560   27.0950   47.5090 H   0  0  0  0  0  0  0  0  0  0  0  0
   59.8660   26.6020   47.9786 H   0  0  0  0  0  0  0  0  0  0  0  0
   60.4823   28.0194   47.0548 H   0  0  0  0  0  0  0  0  0  0  0  0
   59.2534   27.9458   49.8446 H   0  0  0  0  0  0  0  0  0  0  0  0
   60.8733   28.5797   49.3073 H   0  0  0  0  0  0  0  0  0  0  0  0
   58.2862   29.9514   49.4885 H   0  0  0  0  0  0  0  0  0  0  0  0
   59.9677   30.6081   49.3051 H   0  0  0  0  0  0  0  0  0  0  0  0
   57.9440   30.0540   47.2920 H   0  0  0  0  0  0  0  0  0  0  0  0
   59.5360   29.6530   46.8770 H   0  0  0  0  0  0  0  0  0  0  0  0
   57.1633   32.2573   47.3737 H   0  0  0  0  0  0  0  0  0  0  0  0
   57.6687   34.6548   46.9024 H   0  0  0  0  0  0  0  0  0  0  0  0
   60.0236   35.3867   46.5274 H   0  0  0  0  0  0  0  0  0  0  0  0
   64.1129   31.7548   47.6472 H   0  0  0  0  0  0  0  0  0  0  0  0
   64.7713   31.2911   50.0177 H   0  0  0  0  0  0  0  0  0  0  0  0
   64.0516   32.8585   51.8342 H   0  0  0  0  0  0  0  0  0  0  0  0
   62.6872   34.8740   51.2500 H   0  0  0  0  0  0  0  0  0  0  0  0
   61.3877   31.3220   47.1089 H   0  0  0  0  0  0  0  0  0  0  0  0
  1  2  1  0
  2  3  2  0
  3  4  1  0
  4  5  2  0
  5  6  1  0
  5  7  1  0
  7  8  2  0
  8  9  1  0
  9 10  1  0
 10 11  1  0
 11 12  1  0
 12 13  1  0
 13 14  1  0
 14 15  1  0
 15 16  2  0
 16 17  1  0
 17 18  2  0
 18 19  1  0
 19 20  1  0
 20 21  1  0
 21 22  2  0
 22 23  1  0
 23 24  2  0
 24 25  1  0
 25 26  2  0
 19 27  2  0
  8  2  1  0
 27 15  1  0
 26 21  1  0
  3 28  1  0
  4 29  1  0
  7 30  1  0
  9 31  1  0
  9 32  1  0
 10 33  1  0
 11 34  1  0
 11 35  1  0
 12 36  1  0
 12 37  1  0
 13 38  1  0
 13 39  1  0
 14 40  1  0
 14 41  1  0
 16 42  1  0
 17 43  1  0
 18 44  1  0
 22 45  1  0
 23 46  1  0
 24 47  1  0
 25 48  1  0
 27 49  1  0
M  CHG  2   1  -1  14   1
M  END
>  <UniqueID>  (94) 
88

>  <SMILES>  (94) 
[O-]c1ccc(Cl)cc1CNCCC[NH2+]c1cccc(Sc2ccccn2)c1

>  <Energy>  (94) 
44.611756515495316

>  <Genealogy>  (94) 
[O-]c1ccc(Cl)cc1CNCCC[NH2+]c1cccc(Sc2ccccn2)c1 (protonated)
[O-]c1ccc(Cl)cc1CNCCC[NH2+]c1cccc(Sc2ccccn2)c1 (3D coordinates assigned)
[O-]c1ccc(Cl)cc1CNCCC[NH2+]c1cccc(Sc2ccccn2)c1 (optimized conformer: 44.611756515495316 kcal/mol)

>  <smiles>  (94) 
Oc1ccc(Cl)cc1CNCCCNc1cccc(Sc2ccccn2)c1

>  <score_type>  (94) 
oracle

>  <origin>  (94) 
adg

>  <m_score__min__energy>  (94) 
-11.109999999999999

>  <m_primary>  (94) 
energy

$$$$
94:0
     RDKit          3D

 57 58  0  0  0  0  0  0  0  0999 V2000
   58.1691   33.2064   42.8013 H   0  0  0  0  0  0  0  0  0  0  0  0
   58.0110   33.0600   43.8800 C   0  0  0  0  0  0  0  0  0  0  0  0
   57.5600   31.7220   44.3150 C   0  0  0  0  0  0  0  0  0  0  0  0
   57.0710   31.6030   45.4720 O   0  0  0  0  0  0  0  0  0  0  0  0
   57.5820   30.5880   43.4290 N   0  0  0  0  0  0  0  0  0  0  0  0
   58.0170   30.6720   42.4830 H   0  0  0  0  0  0  0  0  0  0  0  0
   57.0440   29.2830   43.8010 C   0  0  0  0  0  0  0  0  0  0  0  0
   56.2649   28.9996   43.0781 H   0  0  0  0  0  0  0  0  0  0  0  0
   56.6301   29.3601   44.8173 H   0  0  0  0  0  0  0  0  0  0  0  0
   58.1360   28.1970   43.8090 C   0  0  0  0  0  0  0  0  0  0  0  0
   58.4853   28.0504   42.7763 H   0  0  0  0  0  0  0  0  0  0  0  0
   57.6801   27.2912   44.2353 H   0  0  0  0  0  0  0  0  0  0  0  0
   59.3580   28.5390   44.6910 C   0  0  0  0  0  0  0  0  0  0  0  0
   59.6006   29.6026   44.5501 H   0  0  0  0  0  0  0  0  0  0  0  0
   60.1766   27.8752   44.3758 H   0  0  0  0  0  0  0  0  0  0  0  0
   59.1300   28.2880   46.1920 C   0  0  0  0  0  0  0  0  0  0  0  0
   58.3961   27.4781   46.3164 H   0  0  0  0  0  0  0  0  0  0  0  0
   58.7554   29.2128   46.6550 H   0  0  0  0  0  0  0  0  0  0  0  0
   60.3880   27.9050   46.8450 N   0  0  0  0  0  0  0  0  0  0  0  0
   61.0420   28.7230   46.8370 H   0  0  0  0  0  0  0  0  0  0  0  0
   60.1940   27.4440   48.2280 C   0  0  0  0  0  0  0  0  0  0  0  0
   61.0986   26.9096   48.5536 H   0  0  0  0  0  0  0  0  0  0  0  0
   59.3129   26.7857   48.2444 H   0  0  0  0  0  0  0  0  0  0  0  0
   59.9310   28.6110   49.1980 C   0  0  0  0  0  0  0  0  0  0  0  0
   60.0120   28.2398   50.2303 H   0  0  0  0  0  0  0  0  0  0  0  0
   58.9234   29.0020   48.9934 H   0  0  0  0  0  0  0  0  0  0  0  0
   60.9320   29.7570   49.0040 C   0  0  0  0  0  0  0  0  0  0  0  0
   61.9314   29.3355   48.8207 H   0  0  0  0  0  0  0  0  0  0  0  0
   60.9381   30.3768   49.9127 H   0  0  0  0  0  0  0  0  0  0  0  0
   60.5480   30.5990   47.8630 N   0  0  0  0  0  0  0  0  0  0  0  0
   60.6490   30.0340   46.9860 H   0  0  0  0  0  0  0  0  0  0  0  0
   59.1440   31.0120   47.9860 C   0  0  0  0  0  0  0  0  0  0  0  0
   58.4937   30.1391   47.8273 H   0  0  0  0  0  0  0  0  0  0  0  0
   58.9303   31.7832   47.2313 H   0  0  0  0  0  0  0  0  0  0  0  0
   58.8820   31.5890   49.3730 C   0  0  0  0  0  0  0  0  0  0  0  0
   59.2090   30.8688   50.1375 H   0  0  0  0  0  0  0  0  0  0  0  0
   59.4418   32.5285   49.4910 H   0  0  0  0  0  0  0  0  0  0  0  0
   57.8062   31.7859   49.4910 H   0  0  0  0  0  0  0  0  0  0  0  0
   58.2460   34.1140   44.6780 C   0  0  0  0  0  0  0  0  0  0  0  0
   57.7196   35.0502   44.4404 H   0  0  0  0  0  0  0  0  0  0  0  0
   59.1500   34.1270   45.8480 C   0  0  0  0  0  0  0  0  0  0  0  0
   58.6300   34.4680   47.1070 C   0  0  0  0  0  0  0  0  0  0  0  0
   57.5630   34.7160   47.2073 H   0  0  0  0  0  0  0  0  0  0  0  0
   59.4560   34.4950   48.2330 C   0  0  0  0  0  0  0  0  0  0  0  0
   59.0387   34.7740   49.2118 H   0  0  0  0  0  0  0  0  0  0  0  0
   60.8150   34.1680   48.1210 C   0  0  0  0  0  0  0  0  0  0  0  0
   61.6560   34.2030   49.2450 C   0  0  0  0  0  0  0  0  0  0  0  0
   61.2496   34.4918   50.2255 H   0  0  0  0  0  0  0  0  0  0  0  0
   63.0070   33.8720   49.1210 C   0  0  0  0  0  0  0  0  0  0  0  0
   63.6617   33.9014   50.0045 H   0  0  0  0  0  0  0  0  0  0  0  0
   63.5310   33.5030   47.8770 C   0  0  0  0  0  0  0  0  0  0  0  0
   64.5963   33.2444   47.7856 H   0  0  0  0  0  0  0  0  0  0  0  0
   62.7040   33.4620   46.7490 C   0  0  0  0  0  0  0  0  0  0  0  0
   63.1202   33.1690   45.7738 H   0  0  0  0  0  0  0  0  0  0  0  0
   61.3440   33.7940   46.8590 C   0  0  0  0  0  0  0  0  0  0  0  0
   60.5040   33.7630   45.7340 C   0  0  0  0  0  0  0  0  0  0  0  0
   60.9069   33.4525   44.7587 H   0  0  0  0  0  0  0  0  0  0  0  0
  1  2  1  0
  2  3  1  0
  3  4  2  0
  3  5  1  0
  5  6  1  0
  5  7  1  0
  7  8  1  0
  7  9  1  0
  7 10  1  0
 10 11  1  0
 10 12  1  0
 10 13  1  0
 13 14  1  0
 13 15  1  0
 13 16  1  0
 16 17  1  0
 16 18  1  0
 16 19  1  0
 19 20  1  0
 19 21  1  0
 21 22  1  0
 21 23  1  0
 21 24  1  0
 24 25  1  0
 24 26  1  0
 24 27  1  0
 27 28  1  0
 27 29  1  0
 27 30  1  0
 30 31  1  0
 30 32  1  0
 32 33  1  0
 32 34  1  0
 32 35  1  0
 35 36  1  0
 35 37  1  0
 35 38  1  0
  2 39  2  0
 39 40  1  0
 39 41  1  0
 41 42  2  0
 42 43  1  0
 42 44  1  0
 44 45  1  0
 44 46  2  0
 46 47  1  0
 47 48  1  0
 47 49  2  0
 49 50  1  0
 49 51  1  0
 51 52  1  0
 51 53  2  0
 53 54  1  0
 53 55  1  0
 55 56  2  0
 56 57  1  0
 56 41  1  0
 55 46  1  0
M  END
>  <UniqueID>  (95) 
89

>  <SMILES>  (95) 
CCNCCCNCCCCNC(=O)/C=C\c1ccc2ccccc2c1

>  <Energy>  (95) 
52.98306395029006

>  <Genealogy>  (95) 
CCNCCCNCCCCNC(=O)/C=C\c1ccc2ccccc2c1 (cis-trans isomerization)
CCNCCCNCCCCNC(=O)/C=C\c1ccc2ccccc2c1 (3D coordinates assigned)
CCNCCCNCCCCNC(=O)/C=C\c1ccc2ccccc2c1 (optimized conformer: 52.98306395029006 kcal/mol)

>  <smiles>  (95) 
CCNCCCNCCCCNC(=O)C=Cc1ccc2ccccc2c1

>  <score_type>  (95) 
oracle

>  <origin>  (95) 
adg

>  <m_score__min__energy>  (95) 
-7.7800000000000002

>  <m_primary>  (95) 
energy

$$$$
95:0
     RDKit          3D

 42 45  0  0  0  0  0  0  0  0999 V2000
   58.7840   31.0830   43.8370 O   0  0  0  0  0  0  0  0  0  0  0  0
   57.9470   30.9000   44.7620 C   0  0  0  0  0  0  0  0  0  0  0  0
   57.5830   31.9850   45.6260 N   0  0  0  0  0  0  0  0  0  0  0  0
   58.4050   33.1500   45.7980 C   0  0  0  0  0  0  0  0  0  0  0  0
   58.3280   34.1820   44.8510 C   0  0  0  0  0  0  0  0  0  0  0  0
   59.1370   35.3140   44.9690 C   0  0  0  0  0  0  0  0  0  0  0  0
   60.0220   35.4320   46.0420 C   0  0  0  0  0  0  0  0  0  0  0  0
   60.0890   34.4260   47.0080 C   0  0  0  0  0  0  0  0  0  0  0  0
   59.2730   33.2870   46.9070 C   0  0  0  0  0  0  0  0  0  0  0  0
   59.2970   32.3060   47.9580 N   0  0  0  0  0  0  0  0  0  0  0  0
   59.9700   31.0210   47.7340 C   0  0  0  0  0  0  0  0  0  0  0  0
   59.3770   29.9040   48.6250 C   0  0  0  0  0  0  0  0  0  0  0  0
   58.3980   30.3640   49.5400 O   0  0  0  0  0  0  0  0  0  0  0  0
   58.8870   31.4870   50.2420 C   0  0  0  0  0  0  0  0  0  0  0  0
   58.8940   32.7000   49.3130 C   0  0  0  0  0  0  0  0  0  0  0  0
   57.3460   29.5720   44.9460 C   0  0  0  0  0  0  0  0  0  0  0  0
   58.0330   28.3820   45.0760 C   0  0  0  0  0  0  0  0  0  0  0  0
   57.0300   27.4530   45.2640 C   0  0  0  0  0  0  0  0  0  0  0  0
   57.1930   26.0090   45.4620 C   0  0  0  0  0  0  0  0  0  0  0  0
   57.2550   25.3420   46.6820 C   0  0  0  0  0  0  0  0  0  0  0  0
   57.4130   23.9590   46.5440 C   0  0  0  0  0  0  0  0  0  0  0  0
   57.4760   23.5310   45.2250 C   0  0  0  0  0  0  0  0  0  0  0  0
   57.3350   24.8780   44.2270 S   0  0  0  0  0  0  0  0  0  0  0  0
   55.8710   28.0700   45.2420 O   0  0  0  0  0  0  0  0  0  0  0  0
   56.0220   29.3480   45.0560 N   0  0  0  0  0  0  0  0  0  0  0  0
   56.6400   31.9730   46.0770 H   0  0  0  0  0  0  0  0  0  0  0  0
   57.6250   34.0989   44.0091 H   0  0  0  0  0  0  0  0  0  0  0  0
   59.0768   36.1134   44.2158 H   0  0  0  0  0  0  0  0  0  0  0  0
   60.6675   36.3187   46.1267 H   0  0  0  0  0  0  0  0  0  0  0  0
   60.7853   34.5260   47.8536 H   0  0  0  0  0  0  0  0  0  0  0  0
   59.8521   30.7357   46.6782 H   0  0  0  0  0  0  0  0  0  0  0  0
   61.0325   31.1396   47.9929 H   0  0  0  0  0  0  0  0  0  0  0  0
   58.9148   29.1484   47.9728 H   0  0  0  0  0  0  0  0  0  0  0  0
   60.2060   29.4942   49.2207 H   0  0  0  0  0  0  0  0  0  0  0  0
   58.2386   31.6905   51.1070 H   0  0  0  0  0  0  0  0  0  0  0  0
   59.9101   31.2855   50.5924 H   0  0  0  0  0  0  0  0  0  0  0  0
   57.8845   33.1355   49.2784 H   0  0  0  0  0  0  0  0  0  0  0  0
   59.6123   33.4391   49.6975 H   0  0  0  0  0  0  0  0  0  0  0  0
   59.1195   28.2143   45.0387 H   0  0  0  0  0  0  0  0  0  0  0  0
   57.1867   25.8504   47.6551 H   0  0  0  0  0  0  0  0  0  0  0  0
   57.4811   23.2737   47.4017 H   0  0  0  0  0  0  0  0  0  0  0  0
   57.5972   22.4903   44.8900 H   0  0  0  0  0  0  0  0  0  0  0  0
  1  2  2  0
  2  3  1  0
  3  4  1  0
  4  5  2  0
  5  6  1  0
  6  7  2  0
  7  8  1  0
  8  9  2  0
  9 10  1  0
 10 11  1  0
 11 12  1  0
 12 13  1  0
 13 14  1  0
 14 15  1  0
  2 16  1  0
 16 17  1  0
 17 18  2  0
 18 19  1  0
 19 20  2  0
 20 21  1  0
 21 22  2  0
 22 23  1  0
 18 24  1  0
 24 25  1  0
  9  4  1  0
 15 10  1  0
 25 16  2  0
 23 19  1  0
  3 26  1  0
  5 27  1  0
  6 28  1  0
  7 29  1  0
  8 30  1  0
 11 31  1  0
 11 32  1  0
 12 33  1  0
 12 34  1  0
 14 35  1  0
 14 36  1  0
 15 37  1  0
 15 38  1  0
 17 39  1  0
 20 40  1  0
 21 41  1  0
 22 42  1  0
M  END
>  <UniqueID>  (96) 
90

>  <SMILES>  (96) 
O=C(Nc1ccccc1N1CCOCC1)c1cc(-c2cccs2)on1

>  <Energy>  (96) 
114.57674558048478

>  <Genealogy>  (96) 
O=C(Nc1ccccc1N1CCOCC1)c1cc(-c2cccs2)on1 (3D coordinates assigned)
O=C(Nc1ccccc1N1CCOCC1)c1cc(-c2cccs2)on1 (nonaromatic ring conformer: 114.57674558048478 kcal/mol)

>  <smiles>  (96) 
O=C(Nc1ccccc1N1CCOCC1)c1cc(-c2cccs2)on1

>  <score_type>  (96) 
oracle

>  <origin>  (96) 
adg

>  <m_score__min__energy>  (96) 
-7.7999999999999998

>  <m_primary>  (96) 
energy

$$$$
96:0
     RDKit          3D

 35 36  0  0  0  0  0  0  0  0999 V2000
   66.5010   32.4300   50.2260 C   0  0  0  0  0  0  0  0  0  0  0  0
   65.2610   32.5180   49.5350 O   0  0  0  0  0  0  0  0  0  0  0  0
   64.2780   33.4580   49.8620 C   0  0  0  0  0  0  0  0  0  0  0  0
   64.3840   34.1390   50.9210 O   0  0  0  0  0  0  0  0  0  0  0  0
   63.1160   33.6540   48.9680 C   0  0  0  0  0  0  0  0  0  0  0  0
   63.2460   33.4950   47.5770 C   0  0  0  0  0  0  0  0  0  0  0  0
   62.1450   33.6800   46.7350 C   0  0  0  0  0  0  0  0  0  0  0  0
   60.8890   34.0120   47.2710 C   0  0  0  0  0  0  0  0  0  0  0  0
   59.7490   34.2340   46.4230 N   0  0  0  0  0  0  0  0  0  0  0  0
   59.0360   33.1960   45.7300 C   0  0  0  0  0  0  0  0  0  0  0  0
   58.9970   31.9040   46.2740 C   0  0  0  0  0  0  0  0  0  0  0  0
   58.3320   30.8720   45.6040 C   0  0  0  0  0  0  0  0  0  0  0  0
   57.7030   31.1170   44.3740 C   0  0  0  0  0  0  0  0  0  0  0  0
   57.0160   30.0000   43.6380 C   0  0  0  0  0  0  0  0  0  0  0  0
   56.2890   29.1190   44.6020 C   0  0  0  0  0  0  0  0  0  0  0  0
   55.0830   29.3490   44.8850 O   0  0  0  0  0  0  0  0  0  0  0  0
   56.9550   28.0740   45.2280 O   0  0  0  0  0  0  0  0  0  0  0  0
   57.7720   32.4010   43.8090 C   0  0  0  0  0  0  0  0  0  0  0  0
   58.4360   33.4320   44.4800 C   0  0  0  0  0  0  0  0  0  0  0  0
   60.7630   34.1930   48.6550 C   0  0  0  0  0  0  0  0  0  0  0  0
   61.8640   34.0090   49.4980 C   0  0  0  0  0  0  0  0  0  0  0  0
   66.3181   32.4430   51.3106 H   0  0  0  0  0  0  0  0  0  0  0  0
   67.0084   31.4936   49.9509 H   0  0  0  0  0  0  0  0  0  0  0  0
   67.1356   33.2854   49.9509 H   0  0  0  0  0  0  0  0  0  0  0  0
   64.2215   33.2229   47.1477 H   0  0  0  0  0  0  0  0  0  0  0  0
   62.2626   33.5651   45.6474 H   0  0  0  0  0  0  0  0  0  0  0  0
   59.4150   35.2180   46.3030 H   0  0  0  0  0  0  0  0  0  0  0  0
   59.4930   31.7008   47.2346 H   0  0  0  0  0  0  0  0  0  0  0  0
   58.3020   29.8640   46.0433 H   0  0  0  0  0  0  0  0  0  0  0  0
   56.2981   30.4246   42.9208 H   0  0  0  0  0  0  0  0  0  0  0  0
   57.7706   29.4034   43.1044 H   0  0  0  0  0  0  0  0  0  0  0  0
   57.3014   32.5962   42.8341 H   0  0  0  0  0  0  0  0  0  0  0  0
   58.4895   34.4334   44.0279 H   0  0  0  0  0  0  0  0  0  0  0  0
   59.7911   34.4819   49.0815 H   0  0  0  0  0  0  0  0  0  0  0  0
   61.7488   34.1432   50.5837 H   0  0  0  0  0  0  0  0  0  0  0  0
  1  2  1  0
  2  3  1  0
  3  4  2  0
  3  5  1  0
  5  6  2  0
  6  7  1  0
  7  8  2  0
  8  9  1  0
  9 10  1  0
 10 11  2  0
 11 12  1  0
 12 13  2  0
 13 14  1  0
 14 15  1  0
 15 16  2  0
 15 17  1  0
 13 18  1  0
 18 19  2  0
  8 20  1  0
 20 21  2  0
 21  5  1  0
 19 10  1  0
  1 22  1  0
  1 23  1  0
  1 24  1  0
  6 25  1  0
  7 26  1  0
  9 27  1  0
 11 28  1  0
 12 29  1  0
 14 30  1  0
 14 31  1  0
 18 32  1  0
 19 33  1  0
 20 34  1  0
 21 35  1  0
M  CHG  1  17  -1
M  END
>  <UniqueID>  (97) 
91

>  <SMILES>  (97) 
COC(=O)c1ccc(Nc2ccc(CC(=O)[O-])cc2)cc1

>  <Energy>  (97) 
37.368172904944146

>  <Genealogy>  (97) 
COC(=O)c1ccc(Nc2ccc(CC(=O)[O-])cc2)cc1 (protonated)
COC(=O)c1ccc(Nc2ccc(CC(=O)[O-])cc2)cc1 (3D coordinates assigned)
COC(=O)c1ccc(Nc2ccc(CC(=O)[O-])cc2)cc1 (optimized conformer: 37.368172904944146 kcal/mol)

>  <smiles>  (97) 
COC(=O)c1ccc(Nc2ccc(CC(=O)O)cc2)cc1

>  <score_type>  (97) 
oracle

>  <origin>  (97) 
adg

>  <m_score__min__energy>  (97) 
-9.3300000000000001

>  <m_primary>  (97) 
energy

$$$$
97:0
     RDKit          3D

 36 38  0  0  1  0  0  0  0  0999 V2000
   63.9830   32.8140   46.4550 O   0  0  0  0  0  0  0  0  0  0  0  0
   63.1250   33.2320   47.4660 C   0  0  0  0  0  0  0  0  0  0  0  0
   63.5710   33.6810   48.6910 C   0  0  0  0  0  0  0  0  0  0  0  0
   62.7120   34.0970   49.6980 C   0  0  0  0  0  0  0  0  0  0  0  0
   58.9980   29.9060   44.6200 C   0  0  0  0  0  0  0  0  0  0  0  0
   57.6460   30.0900   44.8280 C   0  0  0  0  0  0  0  0  0  0  0  0
   57.0350   31.3740   44.8780 N   0  0  0  0  0  0  0  0  0  0  0  0
   57.6450   32.4410   45.3080 C   0  0  0  0  0  0  0  0  0  0  0  0
   58.8910   34.7160   46.1210 C   0  0  0  0  0  0  0  0  0  0  0  0
   58.2280   34.6410   44.9020 C   0  0  0  0  0  0  0  0  0  0  0  0
   57.6100   33.5140   44.4970 N   0  0  0  0  0  0  0  0  0  0  0  0
   58.8760   33.5680   46.8880 C   0  0  0  0  0  0  0  0  0  0  0  0
   59.4730   33.5840   48.0200 N   0  0  0  0  0  0  0  0  0  0  0  0
   60.8850   33.5940   48.1910 C   0  0  0  0  0  0  0  0  0  0  0  0
   61.3510   34.0460   49.4280 C   0  0  0  0  0  0  0  0  0  0  0  0
   59.4560   28.6120   44.5950 C   0  0  0  0  0  0  0  0  0  0  0  0
   58.6330   27.5220   44.7660 C   0  0  0  0  0  0  0  0  0  0  0  0
   57.2620   27.7080   44.9760 C   0  0  0  0  0  0  0  0  0  0  0  0
   56.7950   28.9990   45.0040 C   0  0  0  0  0  0  0  0  0  0  0  0
   55.4330   29.1820   45.2130 O   0  0  0  0  0  0  0  0  0  0  0  0
   58.2650   32.4320   46.5020 N   0  0  0  0  0  0  0  0  0  0  0  0
   61.7690   33.1880   47.2140 C   0  0  0  0  0  0  0  0  0  0  0  0
   64.8340   32.3250   46.7670 H   0  0  0  0  0  0  0  0  0  0  0  0
   64.6546   33.7107   48.8780 H   0  0  0  0  0  0  0  0  0  0  0  0
   63.0924   34.4515   50.6674 H   0  0  0  0  0  0  0  0  0  0  0  0
   59.6787   30.7587   44.4804 H   0  0  0  0  0  0  0  0  0  0  0  0
   59.3969   35.6340   46.4545 H   0  0  0  0  0  0  0  0  0  0  0  0
   58.2071   35.5263   44.2494 H   0  0  0  0  0  0  0  0  0  0  0  0
   57.1250   33.4970   43.5800 H   0  0  0  0  0  0  0  0  0  0  0  0
   60.6317   34.3650   50.1966 H   0  0  0  0  0  0  0  0  0  0  0  0
   60.5297   28.4383   44.4308 H   0  0  0  0  0  0  0  0  0  0  0  0
   59.0526   26.5056   44.7376 H   0  0  0  0  0  0  0  0  0  0  0  0
   56.5842   26.8526   45.1134 H   0  0  0  0  0  0  0  0  0  0  0  0
   55.1460   30.0840   45.6250 H   0  0  0  0  0  0  0  0  0  0  0  0
   58.2780   31.5780   47.1200 H   0  0  0  0  0  0  0  0  0  0  0  0
   61.3966   32.8321   46.2421 H   0  0  0  0  0  0  0  0  0  0  0  0
  1  2  1  0
  2  3  2  0
  3  4  1  0
  4  5  2  0
  5  6  1  0
  6  7  1  0
  7  8  2  0
  8  9  1  0
  9 10  2  0
 10 11  1  0
 11 12  1  0
 12 13  2  0
 13 14  1  0
 14 15  2  0
 15 16  1  0
 16 17  2  0
 17 18  1  0
 18 19  2  0
 19 20  1  0
 12 21  1  0
  6 22  2  0
 22  2  1  0
 21  8  1  0
 19 14  1  0
  1 23  1  0
  3 24  1  0
  4 25  1  0
  5 26  1  0
  9 27  1  0
 10 28  1  0
 11 29  1  0
 15 30  1  0
 16 31  1  0
 17 32  1  0
 18 33  1  0
 20 34  1  0
 21 35  1  0
 22 36  1  0
M  END
>  <smiles>  (98) 
Oc1cccc(N=c2cc[nH]c(=Nc3ccccc3O)[nH]2)c1

>  <score_type>  (98) 
oracle

>  <origin>  (98) 
adg

>  <m_score__min__energy>  (98) 
-8.7400000000000002

>  <m_primary>  (98) 
energy

$$$$
