0:0
     RDKit          3D

 39 41  0  0  0  0  0  0  0  0999 V2000
   54.9600   30.2300   44.4840 O   0  0  0  0  0  0  0  0  0  0  0  0
   56.0640   29.6460   44.3280 C   0  0  0  0  0  0  0  0  0  0  0  0
   56.9940   30.1200   43.2410 C   0  0  0  0  0  0  0  0  0  0  0  0
   57.6050   31.4070   43.5880 N   0  0  0  0  0  0  0  0  0  0  0  0
   57.7810   31.9300   44.8140 C   0  0  0  0  0  0  0  0  0  0  0  0
   57.4000   31.2980   45.9950 O   0  0  0  0  0  0  0  0  0  0  0  0
   58.3870   33.1660   44.6890 C   0  0  0  0  0  0  0  0  0  0  0  0
   58.7270   34.1230   45.7900 C   0  0  0  0  0  0  0  0  0  0  0  0
   59.8580   33.5810   46.6200 C   0  0  0  0  0  0  0  0  0  0  0  0
   59.5970   32.6800   47.6650 C   0  0  0  0  0  0  0  0  0  0  0  0
   60.6500   32.1500   48.4190 C   0  0  0  0  0  0  0  0  0  0  0  0
   61.9680   32.5130   48.1330 C   0  0  0  0  0  0  0  0  0  0  0  0
   62.2370   33.4040   47.0900 C   0  0  0  0  0  0  0  0  0  0  0  0
   61.1880   33.9350   46.3330 C   0  0  0  0  0  0  0  0  0  0  0  0
   58.5660   33.4440   43.3790 N   0  0  0  0  0  0  0  0  0  0  0  0
   58.0790   32.3540   42.7500 C   0  0  0  0  0  0  0  0  0  0  0  0
   58.0660   32.2410   41.4950 O   0  0  0  0  0  0  0  0  0  0  0  0
   56.4150   28.5810   45.2220 N   0  0  0  0  0  0  0  0  0  0  0  0
   57.7380   28.3020   45.6960 C   0  0  0  0  0  0  0  0  0  0  0  0
   58.1430   28.7190   46.9750 C   0  0  0  0  0  0  0  0  0  0  0  0
   59.4350   28.4410   47.4280 C   0  0  0  0  0  0  0  0  0  0  0  0
   60.3340   27.7570   46.6060 C   0  0  0  0  0  0  0  0  0  0  0  0
   59.9440   27.3550   45.3260 C   0  0  0  0  0  0  0  0  0  0  0  0
   58.6510   27.6340   44.8640 C   0  0  0  0  0  0  0  0  0  0  0  0
   58.1780   27.0940   43.2590 Cl  0  0  0  0  0  0  0  0  0  0  0  0
   57.7885   29.3729   43.0979 H   0  0  0  0  0  0  0  0  0  0  0  0
   56.4114   30.2495   42.3170 H   0  0  0  0  0  0  0  0  0  0  0  0
   56.6740   30.5950   46.0110 H   0  0  0  0  0  0  0  0  0  0  0  0
   59.0266   35.0872   45.3534 H   0  0  0  0  0  0  0  0  0  0  0  0
   57.8443   34.2589   46.4321 H   0  0  0  0  0  0  0  0  0  0  0  0
   58.5605   32.3896   47.8918 H   0  0  0  0  0  0  0  0  0  0  0  0
   60.4394   31.4466   49.2380 H   0  0  0  0  0  0  0  0  0  0  0  0
   62.7944   32.0977   48.7285 H   0  0  0  0  0  0  0  0  0  0  0  0
   63.2755   33.6879   46.8644 H   0  0  0  0  0  0  0  0  0  0  0  0
   61.4042   34.6321   45.5101 H   0  0  0  0  0  0  0  0  0  0  0  0
   57.4409   29.2659   47.6215 H   0  0  0  0  0  0  0  0  0  0  0  0
   59.7450   28.7612   48.4337 H   0  0  0  0  0  0  0  0  0  0  0  0
   61.3492   27.5349   46.9666 H   0  0  0  0  0  0  0  0  0  0  0  0
   60.6538   26.8182   44.6794 H   0  0  0  0  0  0  0  0  0  0  0  0
  1  2  2  0
  2  3  1  0
  3  4  1  0
  4  5  1  0
  5  6  1  0
  5  7  2  0
  7  8  1  0
  8  9  1  0
  9 10  2  0
 10 11  1  0
 11 12  2  0
 12 13  1  0
 13 14  2  0
  7 15  1  0
 15 16  1  0
 16 17  2  0
  2 18  1  0
 18 19  1  0
 19 20  2  0
 20 21  1  0
 21 22  2  0
 22 23  1  0
 23 24  2  0
 24 25  1  0
 16  4  1  0
 24 19  1  0
 14  9  1  0
  3 26  1  0
  3 27  1  0
  6 28  1  0
  8 29  1  0
  8 30  1  0
 10 31  1  0
 11 32  1  0
 12 33  1  0
 13 34  1  0
 14 35  1  0
 20 36  1  0
 21 37  1  0
 22 38  1  0
 23 39  1  0
M  CHG  2  15  -1  18  -1
M  END
>  <UniqueID>  (1) 
1

>  <SMILES>  (1) 
O=C(Cn1c(O)c(Cc2ccccc2)[n-]c1=O)[N-]c1ccccc1Cl

>  <Energy>  (1) 
74.25010778790711

>  <Genealogy>  (1) 
O=C(Cn1c(O)c(Cc2ccccc2)[n-]c1=O)[N-]c1ccccc1Cl (protonated)
O=C(Cn1c(O)c(Cc2ccccc2)[n-]c1=O)[N-]c1ccccc1Cl (3D coordinates assigned)
O=C(Cn1c(O)c(Cc2ccccc2)[n-]c1=O)[N-]c1ccccc1Cl (optimized conformer: 74.25010778790711 kcal/mol)

>  <smiles>  (1) 
O=C(Cn1c(O)c(Cc2ccccc2)[nH]c1=O)Nc1ccccc1Cl

>  <score_type>  (1) 
oracle

>  <origin>  (1) 
adg

>  <m_score__min__energy>  (1) 
-11.49

>  <m_primary>  (1) 
energy

$$$$
1:0
     RDKit          3D

 53 56  0  0  0  0  0  0  0  0999 V2000
   59.2050   32.4030   48.8240 C   0  0  0  0  0  0  0  0  0  0  0  0
   59.0000   32.6100   47.3810 N   0  0  0  0  0  0  0  0  0  0  0  0
   58.5080   31.5840   46.6070 C   0  0  0  0  0  0  0  0  0  0  0  0
   58.2390   30.4630   47.1170 O   0  0  0  0  0  0  0  0  0  0  0  0
   58.2950   31.8170   45.2510 C   0  0  0  0  0  0  0  0  0  0  0  0
   58.5470   33.0490   44.7290 C   0  0  0  0  0  0  0  0  0  0  0  0
   58.2020   33.0210   43.3890 C   0  0  0  0  0  0  0  0  0  0  0  0
   57.7470   31.7300   43.1590 C   0  0  0  0  0  0  0  0  0  0  0  0
   57.8030   30.9980   44.2950 N   0  0  0  0  0  0  0  0  0  0  0  0
   57.3390   29.3270   44.4290 S   0  0  0  0  0  0  0  0  0  0  0  0
   57.0220   28.8100   43.0520 O   0  0  0  0  0  0  0  0  0  0  0  0
   56.1010   29.2390   45.2760 O   0  0  0  0  0  0  0  0  0  0  0  0
   58.6260   28.3600   45.1800 C   0  0  0  0  0  0  0  0  0  0  0  0
   59.9580   28.5990   44.8010 C   0  0  0  0  0  0  0  0  0  0  0  0
   61.0030   27.8610   45.3580 C   0  0  0  0  0  0  0  0  0  0  0  0
   60.7370   26.8830   46.3130 C   0  0  0  0  0  0  0  0  0  0  0  0
   59.4240   26.6410   46.7180 C   0  0  0  0  0  0  0  0  0  0  0  0
   58.3540   27.3640   46.1590 C   0  0  0  0  0  0  0  0  0  0  0  0
   56.9680   27.0960   46.6980 C   0  0  0  0  0  0  0  0  0  0  0  0
   56.0980   26.6090   45.6240 N   0  0  0  0  0  0  0  0  0  0  0  0
   55.5260   25.0130   46.0110 S   0  0  0  0  0  0  0  0  0  0  0  0
   55.8630   24.6790   47.4380 O   0  0  0  0  0  0  0  0  0  0  0  0
   54.0320   24.9710   45.8520 O   0  0  0  0  0  0  0  0  0  0  0  0
   56.2560   23.8360   44.9220 C   0  0  0  0  0  0  0  0  0  0  0  0
   57.4220   23.1580   45.3060 C   0  0  0  0  0  0  0  0  0  0  0  0
   57.9820   22.1900   44.4660 C   0  0  0  0  0  0  0  0  0  0  0  0
   57.3790   21.8940   43.2410 C   0  0  0  0  0  0  0  0  0  0  0  0
   56.2150   22.5640   42.8540 C   0  0  0  0  0  0  0  0  0  0  0  0
   55.6530   23.5330   43.6920 C   0  0  0  0  0  0  0  0  0  0  0  0
   59.0230   34.0800   45.4800 N   0  0  0  0  0  0  0  0  0  0  0  0
   59.2410   35.4010   44.8730 C   0  0  0  0  0  0  0  0  0  0  0  0
   59.2250   33.8590   46.8260 C   0  0  0  0  0  0  0  0  0  0  0  0
   59.6120   34.8100   47.5630 O   0  0  0  0  0  0  0  0  0  0  0  0
   58.5407   33.0738   49.3887 H   0  0  0  0  0  0  0  0  0  0  0  0
   58.9756   31.3583   49.0808 H   0  0  0  0  0  0  0  0  0  0  0  0
   60.2519   32.6223   49.0808 H   0  0  0  0  0  0  0  0  0  0  0  0
   58.2730   33.8442   42.6629 H   0  0  0  0  0  0  0  0  0  0  0  0
   57.3906   31.3546   42.1884 H   0  0  0  0  0  0  0  0  0  0  0  0
   60.1795   29.3775   44.0561 H   0  0  0  0  0  0  0  0  0  0  0  0
   62.0392   28.0521   45.0421 H   0  0  0  0  0  0  0  0  0  0  0  0
   61.5626   26.3009   46.7483 H   0  0  0  0  0  0  0  0  0  0  0  0
   59.2230   25.8764   47.4829 H   0  0  0  0  0  0  0  0  0  0  0  0
   57.0264   26.3369   47.4919 H   0  0  0  0  0  0  0  0  0  0  0  0
   56.5519   28.0296   47.1044 H   0  0  0  0  0  0  0  0  0  0  0  0
   56.6620   26.5170   44.7490 H   0  0  0  0  0  0  0  0  0  0  0  0
   57.8976   23.3882   46.2708 H   0  0  0  0  0  0  0  0  0  0  0  0
   58.8976   21.6615   44.7700 H   0  0  0  0  0  0  0  0  0  0  0  0
   57.8206   21.1331   42.5806 H   0  0  0  0  0  0  0  0  0  0  0  0
   55.7405   22.3292   41.8898 H   0  0  0  0  0  0  0  0  0  0  0  0
   54.7364   24.0585   43.3859 H   0  0  0  0  0  0  0  0  0  0  0  0
   59.3651   36.1530   45.6662 H   0  0  0  0  0  0  0  0  0  0  0  0
   60.1467   35.3730   44.2493 H   0  0  0  0  0  0  0  0  0  0  0  0
   58.3744   35.6655   44.2493 H   0  0  0  0  0  0  0  0  0  0  0  0
  1  2  1  0
  2  3  1  0
  3  4  2  0
  3  5  1  0
  5  6  2  0
  6  7  1  0
  7  8  2  0
  8  9  1  0
  9 10  1  0
 10 11  2  0
 10 12  2  0
 10 13  1  0
 13 14  2  0
 14 15  1  0
 15 16  2  0
 16 17  1  0
 17 18  2  0
 18 19  1  0
 19 20  1  0
 20 21  1  0
 21 22  2  0
 21 23  2  0
 21 24  1  0
 24 25  2  0
 25 26  1  0
 26 27  2  0
 27 28  1  0
 28 29  2  0
  6 30  1  0
 30 31  1  0
 30 32  1  0
 32 33  2  0
 32  2  1  0
  9  5  1  0
 18 13  1  0
 29 24  1  0
  1 34  1  0
  1 35  1  0
  1 36  1  0
  7 37  1  0
  8 38  1  0
 14 39  1  0
 15 40  1  0
 16 41  1  0
 17 42  1  0
 19 43  1  0
 19 44  1  0
 20 45  1  0
 25 46  1  0
 26 47  1  0
 27 48  1  0
 28 49  1  0
 29 50  1  0
 31 51  1  0
 31 52  1  0
 31 53  1  0
M  END
>  <UniqueID>  (2) 
2

>  <SMILES>  (2) 
Cn1c(=O)c2c(ccn2S(=O)(=O)c2ccccc2CNS(=O)(=O)c2ccccc2)n(C)c1=O

>  <Energy>  (2) 
101.16404953323857

>  <Genealogy>  (2) 
Cn1c(=O)c2c(ccn2S(=O)(=O)c2ccccc2CNS(=O)(=O)c2ccccc2)n(C)c1=O (3D coordinates assigned)
Cn1c(=O)c2c(ccn2S(=O)(=O)c2ccccc2CNS(=O)(=O)c2ccccc2)n(C)c1=O (optimized conformer: 101.16404953323857 kcal/mol)

>  <smiles>  (2) 
Cn1c(=O)c2c(ccn2S(=O)(=O)c2ccccc2CNS(=O)(=O)c2ccccc2)n(C)c1=O

>  <score_type>  (2) 
oracle

>  <origin>  (2) 
adg

>  <m_score__min__energy>  (2) 
-10.529999999999999

>  <m_primary>  (2) 
energy

$$$$
2:0
     RDKit          3D

 60 63  0  0  0  0  0  0  0  0999 V2000
   57.3960   32.4480   43.1210 O   0  0  0  0  0  0  0  0  0  0  0  0
   57.3460   31.5720   44.0260 C   0  0  0  0  0  0  0  0  0  0  0  0
   56.8890   30.1880   43.6910 C   0  0  0  0  0  0  0  0  0  0  0  0
   56.2690   29.5830   44.8720 N   0  0  0  0  0  0  0  0  0  0  0  0
   57.0620   28.0990   45.3060 S   0  0  0  0  0  0  0  0  0  0  0  0
   56.0810   27.1990   46.0050 O   0  0  0  0  0  0  0  0  0  0  0  0
   57.5540   27.4010   44.0680 O   0  0  0  0  0  0  0  0  0  0  0  0
   58.4030   28.4490   46.3920 C   0  0  0  0  0  0  0  0  0  0  0  0
   58.3440   28.0230   47.7240 C   0  0  0  0  0  0  0  0  0  0  0  0
   59.3580   28.3710   48.6210 C   0  0  0  0  0  0  0  0  0  0  0  0
   60.4530   29.1450   48.1910 C   0  0  0  0  0  0  0  0  0  0  0  0
   61.4940   29.5260   49.0520 O   0  0  0  0  0  0  0  0  0  0  0  0
   61.5200   30.7200   49.8350 C   0  0  0  0  0  0  0  0  0  0  0  0
   62.1610   31.8530   49.0780 C   0  0  0  0  0  0  0  0  0  0  0  0
   62.7640   31.6200   47.8300 C   0  0  0  0  0  0  0  0  0  0  0  0
   63.3520   32.6720   47.1240 C   0  0  0  0  0  0  0  0  0  0  0  0
   63.3580   33.9620   47.6650 C   0  0  0  0  0  0  0  0  0  0  0  0
   62.7820   34.1970   48.9160 C   0  0  0  0  0  0  0  0  0  0  0  0
   62.1900   33.1470   49.6250 C   0  0  0  0  0  0  0  0  0  0  0  0
   60.5130   29.5550   46.8540 C   0  0  0  0  0  0  0  0  0  0  0  0
   59.4940   29.2150   45.9600 C   0  0  0  0  0  0  0  0  0  0  0  0
   57.6720   31.9040   45.3830 N   0  0  0  0  0  0  0  0  0  0  0  0
   58.3410   33.1180   45.7610 C   0  0  0  0  0  0  0  0  0  0  0  0
   58.5380   34.1270   44.8040 C   0  0  0  0  0  0  0  0  0  0  0  0
   59.2690   35.2730   45.1180 C   0  0  0  0  0  0  0  0  0  0  0  0
   59.8250   35.4200   46.3860 C   0  0  0  0  0  0  0  0  0  0  0  0
   59.6510   34.4220   47.3470 C   0  0  0  0  0  0  0  0  0  0  0  0
   58.9040   33.2650   47.0540 C   0  0  0  0  0  0  0  0  0  0  0  0
   58.6910   32.2620   48.1220 C   0  0  0  0  0  0  0  0  0  0  0  0
   58.1600   31.1550   47.8420 O   0  0  0  0  0  0  0  0  0  0  0  0
   59.0230   32.5960   49.4790 N   0  0  0  0  0  0  0  0  0  0  0  0
   58.4370   32.1330   50.7070 C   0  0  0  0  0  0  0  0  0  0  0  0
   57.9740   30.8140   50.8930 C   0  0  0  0  0  0  0  0  0  0  0  0
   57.4340   30.4250   52.1240 C   0  0  0  0  0  0  0  0  0  0  0  0
   57.3420   31.3430   53.1740 C   0  0  0  0  0  0  0  0  0  0  0  0
   57.8120   32.6460   53.0020 C   0  0  0  0  0  0  0  0  0  0  0  0
   58.3630   33.0340   51.7760 C   0  0  0  0  0  0  0  0  0  0  0  0
   56.1553   30.2315   42.8726 H   0  0  0  0  0  0  0  0  0  0  0  0
   57.7512   29.5816   43.3764 H   0  0  0  0  0  0  0  0  0  0  0  0
   57.4960   27.4117   48.0664 H   0  0  0  0  0  0  0  0  0  0  0  0
   59.3003   28.0386   49.6680 H   0  0  0  0  0  0  0  0  0  0  0  0
   60.4889   31.0006   50.0959 H   0  0  0  0  0  0  0  0  0  0  0  0
   62.1111   30.5288   50.7428 H   0  0  0  0  0  0  0  0  0  0  0  0
   62.7729   30.6045   47.4073 H   0  0  0  0  0  0  0  0  0  0  0  0
   63.8108   32.4859   46.1417 H   0  0  0  0  0  0  0  0  0  0  0  0
   63.8160   34.7911   47.1057 H   0  0  0  0  0  0  0  0  0  0  0  0
   62.7942   35.2102   49.3442 H   0  0  0  0  0  0  0  0  0  0  0  0
   61.7458   33.3346   50.6137 H   0  0  0  0  0  0  0  0  0  0  0  0
   61.3695   30.1499   46.5040 H   0  0  0  0  0  0  0  0  0  0  0  0
   59.5486   29.5498   44.9136 H   0  0  0  0  0  0  0  0  0  0  0  0
   57.4070   31.2310   46.1370 H   0  0  0  0  0  0  0  0  0  0  0  0
   58.1115   34.0124   43.7965 H   0  0  0  0  0  0  0  0  0  0  0  0
   59.4062   36.0612   44.3631 H   0  0  0  0  0  0  0  0  0  0  0  0
   60.4022   36.3237   46.6311 H   0  0  0  0  0  0  0  0  0  0  0  0
   60.1021   34.5409   48.3432 H   0  0  0  0  0  0  0  0  0  0  0  0
   58.0375   30.0890   50.0682 H   0  0  0  0  0  0  0  0  0  0  0  0
   57.0806   29.3930   52.2658 H   0  0  0  0  0  0  0  0  0  0  0  0
   56.8999   31.0391   54.1343 H   0  0  0  0  0  0  0  0  0  0  0  0
   57.7492   33.3674   53.8300 H   0  0  0  0  0  0  0  0  0  0  0  0
   58.7425   34.0588   51.6505 H   0  0  0  0  0  0  0  0  0  0  0  0
  1  2  2  0
  2  3  1  0
  3  4  1  0
  4  5  1  0
  5  6  2  0
  5  7  2  0
  5  8  1  0
  8  9  2  0
  9 10  1  0
 10 11  2  0
 11 12  1  0
 12 13  1  0
 13 14  1  0
 14 15  2  0
 15 16  1  0
 16 17  2  0
 17 18  1  0
 18 19  2  0
 11 20  1  0
 20 21  2  0
  2 22  1  0
 22 23  1  0
 23 24  2  0
 24 25  1  0
 25 26  2  0
 26 27  1  0
 27 28  2  0
 28 29  1  0
 29 30  2  0
 29 31  1  0
 31 32  1  0
 32 33  2  0
 33 34  1  0
 34 35  2  0
 35 36  1  0
 36 37  2  0
 21  8  1  0
 28 23  1  0
 37 32  1  0
 19 14  1  0
  3 38  1  0
  3 39  1  0
  9 40  1  0
 10 41  1  0
 13 42  1  0
 13 43  1  0
 15 44  1  0
 16 45  1  0
 17 46  1  0
 18 47  1  0
 19 48  1  0
 20 49  1  0
 21 50  1  0
 22 51  1  0
 24 52  1  0
 25 53  1  0
 26 54  1  0
 27 55  1  0
 33 56  1  0
 34 57  1  0
 35 58  1  0
 36 59  1  0
 37 60  1  0
M  CHG  2   4  -1  31  -1
M  END
>  <UniqueID>  (3) 
3

>  <SMILES>  (3) 
O=C(C[N-]S(=O)(=O)c1ccc(OCc2ccccc2)cc1)Nc1ccccc1C(=O)[N-]c1ccccc1

>  <Energy>  (3) 
68.41439953705795

>  <Genealogy>  (3) 
O=C(C[N-]S(=O)(=O)c1ccc(OCc2ccccc2)cc1)Nc1ccccc1C(=O)[N-]c1ccccc1 (protonated)
O=C(C[N-]S(=O)(=O)c1ccc(OCc2ccccc2)cc1)Nc1ccccc1C(=O)[N-]c1ccccc1 (3D coordinates assigned)
O=C(C[N-]S(=O)(=O)c1ccc(OCc2ccccc2)cc1)Nc1ccccc1C(=O)[N-]c1ccccc1 (optimized conformer: 68.41439953705795 kcal/mol)

>  <smiles>  (3) 
O=C(CNS(=O)(=O)c1ccc(OCc2ccccc2)cc1)Nc1ccccc1C(=O)Nc1ccccc1

>  <score_type>  (3) 
oracle

>  <origin>  (3) 
adg

>  <m_score__min__energy>  (3) 
-13.140000000000001

>  <m_primary>  (3) 
energy

$$$$
3:0
     RDKit          3D

 46 48  0  0  0  0  0  0  0  0999 V2000
   65.1090   32.2330   50.4440 C   0  0  0  0  0  0  0  0  0  0  0  0
   64.0050   32.3430   49.4350 C   0  0  0  0  0  0  0  0  0  0  0  0
   64.2010   33.0690   48.2520 C   0  0  0  0  0  0  0  0  0  0  0  0
   63.1800   33.1540   47.2940 C   0  0  0  0  0  0  0  0  0  0  0  0
   63.3700   33.9800   46.0560 C   0  0  0  0  0  0  0  0  0  0  0  0
   61.9540   32.5140   47.5310 C   0  0  0  0  0  0  0  0  0  0  0  0
   61.7610   31.7490   48.6900 C   0  0  0  0  0  0  0  0  0  0  0  0
   60.4950   31.1020   48.9200 N   0  0  0  0  0  0  0  0  0  0  0  0
   60.0090   30.1520   47.9480 C   0  0  0  0  0  0  0  0  0  0  0  0
   60.3350   28.9390   48.0390 O   0  0  0  0  0  0  0  0  0  0  0  0
   59.0950   30.5480   46.8650 C   0  0  0  0  0  0  0  0  0  0  0  0
   58.8910   32.0960   46.2940 S   0  0  0  0  0  0  0  0  0  0  0  0
   57.6730   31.8580   45.1950 N   0  0  0  0  0  0  0  0  0  0  0  0
   57.3730   30.5340   45.2590 C   0  0  0  0  0  0  0  0  0  0  0  0
   56.3440   29.9770   44.3600 C   0  0  0  0  0  0  0  0  0  0  0  0
   55.4010   29.0370   44.8680 N   0  0  0  0  0  0  0  0  0  0  0  0
   56.2510   30.3550   43.1620 O   0  0  0  0  0  0  0  0  0  0  0  0
   58.1290   29.7820   46.2080 C   0  0  0  0  0  0  0  0  0  0  0  0
   57.8660   28.4170   46.5510 N   0  0  0  0  0  0  0  0  0  0  0  0
   59.8570   31.2810   50.2430 C   0  0  1  0  0  0  0  0  0  0  0  0
   58.8100   32.4090   50.2630 C   0  0  0  0  0  0  0  0  0  0  0  0
   58.0360   32.2990   51.5750 C   0  0  0  0  0  0  0  0  0  0  0  0
   58.0150   30.5720   51.9570 S   0  0  0  0  0  0  0  0  0  0  0  0
   58.4700   30.3130   53.3660 O   0  0  0  0  0  0  0  0  0  0  0  0
   56.6590   29.9690   51.7160 O   0  0  0  0  0  0  0  0  0  0  0  0
   59.1980   30.0010   50.7740 C   0  0  0  0  0  0  0  0  0  0  0  0
   62.7890   31.6750   49.6440 C   0  0  0  0  0  0  0  0  0  0  0  0
   64.6846   32.2753   51.4579 H   0  0  0  0  0  0  0  0  0  0  0  0
   65.6371   31.2778   50.3071 H   0  0  0  0  0  0  0  0  0  0  0  0
   65.8151   33.0652   50.3071 H   0  0  0  0  0  0  0  0  0  0  0  0
   65.1613   33.5751   48.0739 H   0  0  0  0  0  0  0  0  0  0  0  0
   63.6083   35.0158   46.3393 H   0  0  0  0  0  0  0  0  0  0  0  0
   64.1958   33.5635   45.4605 H   0  0  0  0  0  0  0  0  0  0  0  0
   62.4452   33.9662   45.4605 H   0  0  0  0  0  0  0  0  0  0  0  0
   61.1371   32.6133   46.8011 H   0  0  0  0  0  0  0  0  0  0  0  0
   54.4850   29.3520   45.2570 H   0  0  0  0  0  0  0  0  0  0  0  0
   58.5470   27.8410   47.0880 H   0  0  0  0  0  0  0  0  0  0  0  0
   57.0460   27.9170   46.1460 H   0  0  0  0  0  0  0  0  0  0  0  0
   60.6935   31.5550   50.9027 H   0  0  0  0  0  0  0  0  0  0  0  0
   59.3109   33.3865   50.2041 H   0  0  0  0  0  0  0  0  0  0  0  0
   58.1286   32.3182   49.4043 H   0  0  0  0  0  0  0  0  0  0  0  0
   58.5434   32.8640   52.3708 H   0  0  0  0  0  0  0  0  0  0  0  0
   57.0208   32.7138   51.4897 H   0  0  0  0  0  0  0  0  0  0  0  0
   59.9437   29.3494   51.2529 H   0  0  0  0  0  0  0  0  0  0  0  0
   58.7356   29.4049   49.9735 H   0  0  0  0  0  0  0  0  0  0  0  0
   62.6396   31.0885   50.5626 H   0  0  0  0  0  0  0  0  0  0  0  0
  1  2  1  0
  2  3  2  0
  3  4  1  0
  4  5  1  0
  4  6  2  0
  6  7  1  0
  7  8  1  0
  8  9  1  0
  9 10  2  0
  9 11  1  0
 11 12  1  0
 12 13  1  0
 13 14  2  0
 14 15  1  0
 15 16  1  0
 15 17  2  0
 14 18  1  0
 18 19  1  0
  8 20  1  0
 20 21  1  0
 21 22  1  0
 22 23  1  0
 23 24  2  0
 23 25  2  0
 23 26  1  0
  7 27  2  0
 27  2  1  0
 18 11  2  0
 26 20  1  0
  1 28  1  0
  1 29  1  0
  1 30  1  0
  3 31  1  0
  5 32  1  0
  5 33  1  0
  5 34  1  0
  6 35  1  0
 16 36  1  0
 19 37  1  0
 19 38  1  0
 20 39  1  1
 21 40  1  0
 21 41  1  0
 22 42  1  0
 22 43  1  0
 26 44  1  0
 26 45  1  0
 27 46  1  0
M  CHG  1  16  -1
M  END
>  <UniqueID>  (4) 
4

>  <SMILES>  (4) 
Cc1cc(C)cc(N(C(=O)c2snc(C([NH-])=O)c2N)[C@H]2CCS(=O)(=O)C2)c1

>  <Energy>  (4) 
93.5947018741139

>  <Genealogy>  (4) 
Cc1cc(C)cc(N(C(=O)c2snc(C([NH-])=O)c2N)C2CCS(=O)(=O)C2)c1 (protonated)
Cc1cc(C)cc(N(C(=O)c2snc(C([NH-])=O)c2N)[C@H]2CCS(=O)(=O)C2)c1 (chirality)
Cc1cc(C)cc(N(C(=O)c2snc(C([NH-])=O)c2N)[C@H]2CCS(=O)(=O)C2)c1 (3D coordinates assigned)
Cc1cc(C)cc(N(C(=O)c2snc(C([NH-])=O)c2N)[C@H]2CCS(=O)(=O)C2)c1 (nonaromatic ring conformer: 93.5947018741139 kcal/mol)

>  <smiles>  (4) 
Cc1cc(C)cc(N(C(=O)c2snc(C(N)=O)c2N)C2CCS(=O)(=O)C2)c1

>  <score_type>  (4) 
oracle

>  <origin>  (4) 
adg

>  <m_score__min__energy>  (4) 
-11.25

>  <m_primary>  (4) 
energy

$$$$
4:0
     RDKit          3D

 29 30  0  0  0  0  0  0  0  0999 V2000
   61.2930   28.2310   44.0240 H   0  0  0  0  0  0  0  0  0  0  0  0
   60.6430   28.6970   44.6450 O   0  0  0  0  0  0  0  0  0  0  0  0
   59.4860   28.0640   45.1020 C   0  0  0  0  0  0  0  0  0  0  0  0
   59.5870   26.8410   45.7790 C   0  0  0  0  0  0  0  0  0  0  0  0
   60.5787   26.4117   45.9846 H   0  0  0  0  0  0  0  0  0  0  0  0
   58.4410   26.1640   46.1940 C   0  0  0  0  0  0  0  0  0  0  0  0
   58.5353   25.2082   46.7303 H   0  0  0  0  0  0  0  0  0  0  0  0
   57.1670   26.6940   45.9320 C   0  0  0  0  0  0  0  0  0  0  0  0
   55.9480   25.9710   46.3580 C   0  0  0  0  0  0  0  0  0  0  0  0
   54.8080   26.3710   46.0010 O   0  0  0  0  0  0  0  0  0  0  0  0
   56.0440   24.8380   47.1590 O   0  0  0  0  0  0  0  0  0  0  0  0
   57.0650   27.9240   45.2600 C   0  0  0  0  0  0  0  0  0  0  0  0
   56.0710   28.3416   45.0417 H   0  0  0  0  0  0  0  0  0  0  0  0
   58.2140   28.6280   44.8630 C   0  0  0  0  0  0  0  0  0  0  0  0
   58.0370   29.9180   44.1600 C   0  0  0  0  0  0  0  0  0  0  0  0
   58.4768   30.0381   43.1589 H   0  0  0  0  0  0  0  0  0  0  0  0
   57.3620   30.9470   44.6940 C   0  0  0  0  0  0  0  0  0  0  0  0
   56.2654   30.8756   44.7421 H   0  0  0  0  0  0  0  0  0  0  0  0
   58.0040   32.1760   45.2240 C   0  0  0  0  0  0  0  0  0  0  0  0
   58.7570   32.1900   46.4170 C   0  0  0  0  0  0  0  0  0  0  0  0
   58.8797   31.2638   46.9976 H   0  0  0  0  0  0  0  0  0  0  0  0
   59.3480   33.3750   46.8650 C   0  0  0  0  0  0  0  0  0  0  0  0
   59.9285   33.3788   47.7993 H   0  0  0  0  0  0  0  0  0  0  0  0
   59.2040   34.5530   46.1310 C   0  0  0  0  0  0  0  0  0  0  0  0
   59.6665   35.4845   46.4894 H   0  0  0  0  0  0  0  0  0  0  0  0
   58.4730   34.5490   44.9420 C   0  0  0  0  0  0  0  0  0  0  0  0
   58.3627   35.4769   44.3617 H   0  0  0  0  0  0  0  0  0  0  0  0
   57.8810   33.3670   44.4880 C   0  0  0  0  0  0  0  0  0  0  0  0
   57.3135   33.3690   43.5457 H   0  0  0  0  0  0  0  0  0  0  0  0
  1  2  1  0
  2  3  1  0
  3  4  2  0
  4  5  1  0
  4  6  1  0
  6  7  1  0
  6  8  2  0
  8  9  1  0
  9 10  2  0
  9 11  1  0
  8 12  1  0
 12 13  1  0
 12 14  2  0
 14 15  1  0
 15 16  1  0
 15 17  2  0
 17 18  1  0
 17 19  1  0
 19 20  2  0
 20 21  1  0
 20 22  1  0
 22 23  1  0
 22 24  2  0
 24 25  1  0
 24 26  1  0
 26 27  1  0
 26 28  2  0
 28 29  1  0
 14  3  1  0
 28 19  1  0
M  CHG  1  11  -1
M  END
>  <UniqueID>  (5) 
5

>  <SMILES>  (5) 
O=C([O-])c1ccc(O)c(/C=C/c2ccccc2)c1

>  <Energy>  (5) 
37.43195747161182

>  <Genealogy>  (5) 
O=C([O-])c1ccc(O)c(C=Cc2ccccc2)c1 (protonated)
O=C([O-])c1ccc(O)c(/C=C/c2ccccc2)c1 (cis-trans isomerization)
O=C([O-])c1ccc(O)c(/C=C/c2ccccc2)c1 (3D coordinates assigned)
O=C([O-])c1ccc(O)c(/C=C/c2ccccc2)c1 (optimized conformer: 37.43195747161182 kcal/mol)

>  <smiles>  (5) 
O=C(O)c1ccc(O)c(C=Cc2ccccc2)c1

>  <score_type>  (5) 
oracle

>  <origin>  (5) 
adg

>  <m_score__min__energy>  (5) 
-9.9199999999999999

>  <m_primary>  (5) 
energy

$$$$
5:0
     RDKit          3D

 43 45  0  0  0  0  0  0  0  0999 V2000
   63.8690   32.9090   46.7180 N   0  0  0  0  0  0  0  0  0  0  0  0
   63.4340   33.2600   48.0380 C   0  0  0  0  0  0  0  0  0  0  0  0
   64.2520   32.9560   49.1360 C   0  0  0  0  0  0  0  0  0  0  0  0
   63.8480   33.2850   50.4310 C   0  0  0  0  0  0  0  0  0  0  0  0
   62.6200   33.9130   50.6420 C   0  0  0  0  0  0  0  0  0  0  0  0
   61.7950   34.2210   49.5570 C   0  0  0  0  0  0  0  0  0  0  0  0
   62.2020   33.9170   48.2430 C   0  0  0  0  0  0  0  0  0  0  0  0
   61.3580   34.2050   47.1170 N   0  0  0  0  0  0  0  0  0  0  0  0
   59.9250   34.2540   47.1090 C   0  0  0  0  0  0  0  0  0  0  0  0
   59.3170   35.0620   47.8630 O   0  0  0  0  0  0  0  0  0  0  0  0
   59.1590   33.3950   46.1770 C   0  0  0  0  0  0  0  0  0  0  0  0
   58.9130   33.8150   44.8570 C   0  0  0  0  0  0  0  0  0  0  0  0
   58.1900   33.0050   43.9770 C   0  0  0  0  0  0  0  0  0  0  0  0
   57.7080   31.7570   44.3960 C   0  0  0  0  0  0  0  0  0  0  0  0
   56.8990   30.9040   43.4620 C   0  0  0  0  0  0  0  0  0  0  0  0
   57.1720   29.4990   43.7370 N   0  0  0  0  0  0  0  0  0  0  0  0
   56.5170   28.7230   44.7500 C   0  0  0  0  0  0  0  0  0  0  0  0
   55.4390   29.1510   45.2370 O   0  0  0  0  0  0  0  0  0  0  0  0
   57.0840   27.4570   45.2570 C   0  0  0  0  0  0  0  0  0  0  0  0
   58.4570   27.1930   45.1190 C   0  0  0  0  0  0  0  0  0  0  0  0
   58.9950   25.9890   45.5830 C   0  0  0  0  0  0  0  0  0  0  0  0
   58.1650   25.0330   46.1760 C   0  0  0  0  0  0  0  0  0  0  0  0
   58.7010   23.8360   46.6350 O   0  0  0  0  0  0  0  0  0  0  0  0
   56.7950   25.2800   46.3020 C   0  0  0  0  0  0  0  0  0  0  0  0
   56.2510   26.4840   45.8420 C   0  0  0  0  0  0  0  0  0  0  0  0
   54.8850   26.7120   45.9810 O   0  0  0  0  0  0  0  0  0  0  0  0
   57.9360   31.3410   45.7160 C   0  0  0  0  0  0  0  0  0  0  0  0
   58.6600   32.1490   46.5970 C   0  0  0  0  0  0  0  0  0  0  0  0
   64.7480   32.3700   46.5560 H   0  0  0  0  0  0  0  0  0  0  0  0
   63.3080   33.1860   45.8820 H   0  0  0  0  0  0  0  0  0  0  0  0
   65.2181   32.4551   48.9756 H   0  0  0  0  0  0  0  0  0  0  0  0
   64.4984   33.0489   51.2861 H   0  0  0  0  0  0  0  0  0  0  0  0
   62.3009   34.1660   51.6638 H   0  0  0  0  0  0  0  0  0  0  0  0
   60.8218   34.7038   49.7300 H   0  0  0  0  0  0  0  0  0  0  0  0
   59.2928   34.7889   44.5147 H   0  0  0  0  0  0  0  0  0  0  0  0
   57.9981   33.3486   42.9498 H   0  0  0  0  0  0  0  0  0  0  0  0
   55.8284   31.1070   43.6127 H   0  0  0  0  0  0  0  0  0  0  0  0
   57.1703   31.1361   42.4215 H   0  0  0  0  0  0  0  0  0  0  0  0
   59.1122   27.9376   44.6433 H   0  0  0  0  0  0  0  0  0  0  0  0
   60.0727   25.7936   45.4814 H   0  0  0  0  0  0  0  0  0  0  0  0
   56.1423   24.5250   46.7645 H   0  0  0  0  0  0  0  0  0  0  0  0
   57.5426   30.3730   46.0598 H   0  0  0  0  0  0  0  0  0  0  0  0
   58.8410   31.8077   47.6269 H   0  0  0  0  0  0  0  0  0  0  0  0
  1  2  1  0
  2  3  2  0
  3  4  1  0
  4  5  2  0
  5  6  1  0
  6  7  2  0
  7  8  1  0
  8  9  1  0
  9 10  2  0
  9 11  1  0
 11 12  2  0
 12 13  1  0
 13 14  2  0
 14 15  1  0
 15 16  1  0
 16 17  1  0
 17 18  2  0
 17 19  1  0
 19 20  2  0
 20 21  1  0
 21 22  2  0
 22 23  1  0
 22 24  1  0
 24 25  2  0
 25 26  1  0
 14 27  1  0
 27 28  2  0
  7  2  1  0
 28 11  1  0
 25 19  1  0
  1 29  1  0
  1 30  1  0
  3 31  1  0
  4 32  1  0
  5 33  1  0
  6 34  1  0
 12 35  1  0
 13 36  1  0
 15 37  1  0
 15 38  1  0
 20 39  1  0
 21 40  1  0
 24 41  1  0
 27 42  1  0
 28 43  1  0
M  CHG  4   8  -1  16  -1  23  -1  26  -1
M  END
>  <UniqueID>  (6) 
6

>  <SMILES>  (6) 
Nc1ccccc1[N-]C(=O)c1ccc(C[N-]C(=O)c2ccc([O-])cc2[O-])cc1

>  <Energy>  (6) 
54.50340916718357

>  <Genealogy>  (6) 
Nc1ccccc1[N-]C(=O)c1ccc(C[N-]C(=O)c2ccc([O-])cc2[O-])cc1 (protonated)
Nc1ccccc1[N-]C(=O)c1ccc(C[N-]C(=O)c2ccc([O-])cc2[O-])cc1 (3D coordinates assigned)
Nc1ccccc1[N-]C(=O)c1ccc(C[N-]C(=O)c2ccc([O-])cc2[O-])cc1 (optimized conformer: 54.50340916718357 kcal/mol)

>  <smiles>  (6) 
Nc1ccccc1NC(=O)c1ccc(CNC(=O)c2ccc(O)cc2O)cc1

>  <score_type>  (6) 
oracle

>  <origin>  (6) 
adg

>  <m_score__min__energy>  (6) 
-16.859999999999999

>  <m_primary>  (6) 
energy

$$$$
6:0
     RDKit          3D

 56 60  0  0  0  0  0  0  0  0999 V2000
   58.2340   21.4690   43.5670 N   0  0  0  0  0  0  0  0  0  0  0  0
   56.6330   22.1060   43.7140 S   0  0  0  0  0  0  0  0  0  0  0  0
   56.0040   22.2110   42.3540 O   0  0  0  0  0  0  0  0  0  0  0  0
   55.8150   21.1710   44.5610 O   0  0  0  0  0  0  0  0  0  0  0  0
   56.6940   23.7030   44.4550 C   0  0  0  0  0  0  0  0  0  0  0  0
   55.8380   24.0390   45.5120 C   0  0  0  0  0  0  0  0  0  0  0  0
   55.9090   25.3080   46.0980 C   0  0  0  0  0  0  0  0  0  0  0  0
   56.8540   26.2400   45.6560 C   0  0  0  0  0  0  0  0  0  0  0  0
   56.8840   27.5450   46.2610 N   0  0  0  0  0  0  0  0  0  0  0  0
   57.0400   28.6750   45.6370 C   0  0  0  0  0  0  0  0  0  0  0  0
   56.5720   28.8000   44.3530 N   0  0  0  0  0  0  0  0  0  0  0  0
   56.7060   29.9670   43.6550 C   0  0  0  0  0  0  0  0  0  0  0  0
   56.2750   30.0650   42.4760 O   0  0  0  0  0  0  0  0  0  0  0  0
   57.3260   31.0350   44.2900 C   0  0  0  0  0  0  0  0  0  0  0  0
   57.5610   32.2790   43.8370 N   0  0  0  0  0  0  0  0  0  0  0  0
   58.1670   32.8740   44.9020 C   0  0  0  0  0  0  0  0  0  0  0  0
   58.3320   32.0450   45.9680 N   0  0  0  0  0  0  0  0  0  0  0  0
   58.7290   32.4400   47.3250 C   0  0  1  0  0  0  0  0  0  0  0  0
   58.1750   31.5990   48.3060 O   0  0  0  0  0  0  0  0  0  0  0  0
   58.9290   31.8770   49.4580 C   0  0  1  0  0  0  0  0  0  0  0  0
   58.9670   30.6470   50.3740 C   0  0  0  0  0  0  0  0  0  0  0  0
   58.1680   29.6170   49.8580 O   0  0  0  0  0  0  0  0  0  0  0  0
   60.3090   32.3360   48.9820 C   0  0  0  0  0  0  0  0  0  0  0  0
   60.1860   32.4980   47.5350 N   0  0  0  0  0  0  0  0  0  0  0  0
   61.0530   31.5740   46.7500 C   0  0  0  0  0  0  0  0  0  0  0  0
   60.6710   30.1000   46.7730 C   0  0  0  0  0  0  0  0  0  0  0  0
   60.6090   29.3690   45.5710 C   0  0  0  0  0  0  0  0  0  0  0  0
   60.3080   28.0050   45.5790 C   0  0  0  0  0  0  0  0  0  0  0  0
   60.1140   27.3390   46.7890 C   0  0  0  0  0  0  0  0  0  0  0  0
   60.2430   28.0330   47.9920 C   0  0  0  0  0  0  0  0  0  0  0  0
   60.5440   29.3990   47.9880 C   0  0  0  0  0  0  0  0  0  0  0  0
   57.7630   30.9000   45.5610 C   0  0  0  0  0  0  0  0  0  0  0  0
   57.6330   29.7460   46.2550 N   0  0  0  0  0  0  0  0  0  0  0  0
   57.6920   25.9100   44.5760 C   0  0  0  0  0  0  0  0  0  0  0  0
   57.6090   24.6500   43.9800 C   0  0  0  0  0  0  0  0  0  0  0  0
   58.5330   21.1630   44.5190 H   0  0  0  0  0  0  0  0  0  0  0  0
   58.1700   20.6100   42.9790 H   0  0  0  0  0  0  0  0  0  0  0  0
   55.1084   23.3037   45.8822 H   0  0  0  0  0  0  0  0  0  0  0  0
   55.2175   25.5741   46.9111 H   0  0  0  0  0  0  0  0  0  0  0  0
   58.4921   33.9249   44.9003 H   0  0  0  0  0  0  0  0  0  0  0  0
   58.3293   33.4596   47.4285 H   0  0  0  0  0  0  0  0  0  0  0  0
   58.4837   32.6765   50.0683 H   0  0  0  0  0  0  0  0  0  0  0  0
   60.0046   30.2913   50.4572 H   0  0  0  0  0  0  0  0  0  0  0  0
   58.5794   30.9320   51.3632 H   0  0  0  0  0  0  0  0  0  0  0  0
   58.1090   29.7670   48.8780 H   0  0  0  0  0  0  0  0  0  0  0  0
   60.5810   33.2914   49.4545 H   0  0  0  0  0  0  0  0  0  0  0  0
   61.0947   31.6134   49.2475 H   0  0  0  0  0  0  0  0  0  0  0  0
   61.0344   31.9078   45.7020 H   0  0  0  0  0  0  0  0  0  0  0  0
   62.0421   31.6259   47.2285 H   0  0  0  0  0  0  0  0  0  0  0  0
   60.7998   29.8780   44.6147 H   0  0  0  0  0  0  0  0  0  0  0  0
   60.2239   27.4554   44.6298 H   0  0  0  0  0  0  0  0  0  0  0  0
   59.8598   26.2688   46.7946 H   0  0  0  0  0  0  0  0  0  0  0  0
   60.1076   27.5043   48.9471 H   0  0  0  0  0  0  0  0  0  0  0  0
   60.6826   29.9300   48.9413 H   0  0  0  0  0  0  0  0  0  0  0  0
   58.4159   26.6475   44.1992 H   0  0  0  0  0  0  0  0  0  0  0  0
   58.2655   24.4004   43.1334 H   0  0  0  0  0  0  0  0  0  0  0  0
  1  2  1  0
  2  3  2  0
  2  4  2  0
  2  5  1  0
  5  6  2  0
  6  7  1  0
  7  8  2  0
  8  9  1  0
  9 10  2  3
 10 11  1  0
 11 12  1  0
 12 13  2  0
 12 14  1  0
 14 15  1  0
 15 16  2  0
 16 17  1  0
 17 18  1  0
 18 19  1  0
 19 20  1  0
 20 21  1  0
 21 22  1  0
 20 23  1  0
 23 24  1  0
 24 25  1  0
 25 26  1  0
 26 27  2  0
 27 28  1  0
 28 29  2  0
 29 30  1  0
 30 31  2  0
 17 32  1  0
 32 33  1  0
  8 34  1  0
 34 35  2  0
 35  5  1  0
 33 10  1  0
 32 14  2  0
 24 18  1  0
 31 26  1  0
  1 36  1  0
  1 37  1  0
  6 38  1  0
  7 39  1  0
 16 40  1  0
 18 41  1  1
 20 42  1  1
 21 43  1  0
 21 44  1  0
 22 45  1  0
 23 46  1  0
 23 47  1  0
 25 48  1  0
 25 49  1  0
 27 50  1  0
 28 51  1  0
 29 52  1  0
 30 53  1  0
 31 54  1  0
 34 55  1  0
 35 56  1  0
M  CHG  2  11  -1  33  -1
M  END
>  <UniqueID>  (7) 
7

>  <SMILES>  (7) 
NS(=O)(=O)c1ccc(N=c2[n-]c(=O)c3ncn([C@H]4O[C@@H](CO)CN4Cc4ccccc4)c3[n-]2)cc1

>  <Energy>  (7) 
114.36720966951475

>  <Genealogy>  (7) 
NS(=O)(=O)c1ccc(N=c2[n-]c(=O)c3ncn(C4OC(CO)CN4Cc4ccccc4)c3[n-]2)cc1 (protonated)
NS(=O)(=O)c1ccc(N=c2[n-]c(=O)c3ncn([C@H]4O[C@@H](CO)CN4Cc4ccccc4)c3[n-]2)cc1 (chirality)
NS(=O)(=O)c1ccc(N=c2[n-]c(=O)c3ncn([C@H]4O[C@@H](CO)CN4Cc4ccccc4)c3[n-]2)cc1 (3D coordinates assigned)
NS(=O)(=O)c1ccc(N=c2[n-]c(=O)c3ncn([C@H]4O[C@@H](CO)CN4Cc4ccccc4)c3[n-]2)cc1 (nonaromatic ring conformer: 114.36720966951475 kcal/mol)

>  <smiles>  (7) 
NS(=O)(=O)c1ccc(N=c2[nH]c(=O)c3ncn(C4OC(CO)CN4Cc4ccccc4)c3[nH]2)cc1

>  <score_type>  (7) 
oracle

>  <origin>  (7) 
adg

>  <m_score__min__energy>  (7) 
-12.27

>  <m_primary>  (7) 
energy

$$$$
7:0
     RDKit          3D

 44 46  0  0  0  0  0  0  0  0999 V2000
   56.2020   25.9070   45.8390 C   0  0  0  0  0  0  0  0  0  0  0  0
   56.3910   27.3180   45.8230 O   0  0  0  0  0  0  0  0  0  0  0  0
   57.5660   27.9710   46.2290 C   0  0  0  0  0  0  0  0  0  0  0  0
   58.4710   27.3790   47.1280 C   0  0  0  0  0  0  0  0  0  0  0  0
   59.6400   28.0450   47.5090 C   0  0  0  0  0  0  0  0  0  0  0  0
   60.7500   27.2240   48.6010 Cl  0  0  0  0  0  0  0  0  0  0  0  0
   59.9240   29.3260   46.9960 C   0  0  0  0  0  0  0  0  0  0  0  0
   61.1380   30.0080   47.3610 N   0  0  0  0  0  0  0  0  0  0  0  0
   61.2170   31.1460   48.6690 S   0  0  0  0  0  0  0  0  0  0  0  0
   62.4570   30.8820   49.4760 O   0  0  0  0  0  0  0  0  0  0  0  0
   61.2800   32.5410   48.1150 O   0  0  0  0  0  0  0  0  0  0  0  0
   59.7760   31.0010   49.6730 C   0  0  0  0  0  0  0  0  0  0  0  0
   58.8670   32.0600   49.7770 C   0  0  0  0  0  0  0  0  0  0  0  0
   57.7570   31.9540   50.6200 C   0  0  0  0  0  0  0  0  0  0  0  0
   57.5450   30.7900   51.3790 C   0  0  0  0  0  0  0  0  0  0  0  0
   56.4000   30.6900   52.2490 N   0  0  0  0  0  0  0  0  0  0  0  0
   55.0070   30.6760   51.8170 C   0  0  0  0  0  0  0  0  0  0  0  0
   54.1750   30.3970   53.0910 C   0  0  0  0  0  0  0  0  0  0  0  0
   55.1150   30.3840   54.2050 N   0  0  0  0  0  0  0  0  0  0  0  0
   56.4040   30.5540   53.6580 C   0  0  0  0  0  0  0  0  0  0  0  0
   57.4380   30.6380   54.3720 O   0  0  0  0  0  0  0  0  0  0  0  0
   58.4510   29.7220   51.2520 C   0  0  0  0  0  0  0  0  0  0  0  0
   59.5590   29.8290   50.4070 C   0  0  0  0  0  0  0  0  0  0  0  0
   59.0040   29.9250   46.1190 C   0  0  0  0  0  0  0  0  0  0  0  0
   57.8410   29.2520   45.7230 C   0  0  0  0  0  0  0  0  0  0  0  0
   56.7300   30.0140   44.5810 S   0  0  0  0  0  0  0  0  0  0  0  0
   55.1440   29.3670   44.8110 N   0  0  0  0  0  0  0  0  0  0  0  0
   56.6890   31.5010   44.7990 O   0  0  0  0  0  0  0  0  0  0  0  0
   57.1910   29.7390   43.1790 O   0  0  0  0  0  0  0  0  0  0  0  0
   56.1549   25.5552   46.8801 H   0  0  0  0  0  0  0  0  0  0  0  0
   55.2624   25.6571   45.3246 H   0  0  0  0  0  0  0  0  0  0  0  0
   57.0427   25.4186   45.3246 H   0  0  0  0  0  0  0  0  0  0  0  0
   58.2568   26.3803   47.5363 H   0  0  0  0  0  0  0  0  0  0  0  0
   61.9840   29.9280   46.7570 H   0  0  0  0  0  0  0  0  0  0  0  0
   59.0265   32.9787   49.1935 H   0  0  0  0  0  0  0  0  0  0  0  0
   57.0436   32.7883   50.6900 H   0  0  0  0  0  0  0  0  0  0  0  0
   54.7302   31.6485   51.3838 H   0  0  0  0  0  0  0  0  0  0  0  0
   54.8303   29.9150   51.0426 H   0  0  0  0  0  0  0  0  0  0  0  0
   53.4250   31.1885   53.2359 H   0  0  0  0  0  0  0  0  0  0  0  0
   53.6373   29.4405   53.0132 H   0  0  0  0  0  0  0  0  0  0  0  0
   58.2864   28.7956   51.8219 H   0  0  0  0  0  0  0  0  0  0  0  0
   60.2634   28.9888   50.3183 H   0  0  0  0  0  0  0  0  0  0  0  0
   59.2000   30.9379   45.7375 H   0  0  0  0  0  0  0  0  0  0  0  0
   55.1880   28.7370   45.6430 H   0  0  0  0  0  0  0  0  0  0  0  0
  1  2  1  0
  2  3  1  0
  3  4  2  0
  4  5  1  0
  5  6  1  0
  5  7  2  0
  7  8  1  0
  8  9  1  0
  9 10  2  0
  9 11  2  0
  9 12  1  0
 12 13  2  0
 13 14  1  0
 14 15  2  0
 15 16  1  0
 16 17  1  0
 17 18  1  0
 18 19  1  0
 19 20  1  0
 20 21  2  0
 15 22  1  0
 22 23  2  0
  7 24  1  0
 24 25  2  0
 25 26  1  0
 26 27  1  0
 26 28  2  0
 26 29  2  0
 25  3  1  0
 23 12  1  0
 20 16  1  0
  1 30  1  0
  1 31  1  0
  1 32  1  0
  4 33  1  0
  8 34  1  0
 13 35  1  0
 14 36  1  0
 17 37  1  0
 17 38  1  0
 18 39  1  0
 18 40  1  0
 22 41  1  0
 23 42  1  0
 24 43  1  0
 27 44  1  0
M  CHG  2  19  -1  27  -1
M  END
>  <UniqueID>  (8) 
8

>  <SMILES>  (8) 
COc1cc(Cl)c(NS(=O)(=O)c2ccc(N3CC[N-]C3=O)cc2)cc1S([NH-])(=O)=O

>  <Energy>  (8) 
66.28543946589865

>  <Genealogy>  (8) 
COc1cc(Cl)c(NS(=O)(=O)c2ccc(N3CC[N-]C3=O)cc2)cc1S([NH-])(=O)=O (protonated)
COc1cc(Cl)c(NS(=O)(=O)c2ccc(N3CC[N-]C3=O)cc2)cc1S([NH-])(=O)=O (3D coordinates assigned)
COc1cc(Cl)c(NS(=O)(=O)c2ccc(N3CC[N-]C3=O)cc2)cc1S([NH-])(=O)=O (nonaromatic ring conformer: 66.28543946589865 kcal/mol)

>  <smiles>  (8) 
COc1cc(Cl)c(NS(=O)(=O)c2ccc(N3CCNC3=O)cc2)cc1S(N)(=O)=O

>  <score_type>  (8) 
oracle

>  <origin>  (8) 
adg

>  <m_score__min__energy>  (8) 
-12.57

>  <m_primary>  (8) 
energy

$$$$
8:0
     RDKit          3D

 37 39  0  0  0  0  0  0  0  0999 V2000
   57.3388   30.6035   42.0829 H   0  0  0  0  0  0  0  0  0  0  0  0
   57.3440   31.1940   43.0110 C   0  0  0  0  0  0  0  0  0  0  0  0
   58.1230   32.6710   43.2380 S   0  0  0  0  0  0  0  0  0  0  0  0
   57.6130   32.8070   44.8290 C   0  0  0  0  0  0  0  0  0  0  0  0
   57.9630   33.7800   45.6170 N   0  0  0  0  0  0  0  0  0  0  0  0
   59.3040   34.2130   45.9020 C   0  0  0  0  0  0  0  0  0  0  0  0
   59.6020   35.4170   45.6820 O   0  0  0  0  0  0  0  0  0  0  0  0
   60.3360   33.3140   46.4690 C   0  0  0  0  0  0  0  0  0  0  0  0
   61.6470   33.7690   46.6960 C   0  0  0  0  0  0  0  0  0  0  0  0
   61.9158   34.8071   46.4509 H   0  0  0  0  0  0  0  0  0  0  0  0
   62.6100   32.9100   47.2310 C   0  0  0  0  0  0  0  0  0  0  0  0
   63.6285   33.2786   47.4229 H   0  0  0  0  0  0  0  0  0  0  0  0
   62.2820   31.5830   47.5230 C   0  0  0  0  0  0  0  0  0  0  0  0
   63.0398   30.9096   47.9500 H   0  0  0  0  0  0  0  0  0  0  0  0
   60.9910   31.1130   47.2720 C   0  0  0  0  0  0  0  0  0  0  0  0
   60.7360   30.0656   47.4909 H   0  0  0  0  0  0  0  0  0  0  0  0
   60.0220   31.9710   46.7430 C   0  0  0  0  0  0  0  0  0  0  0  0
   59.0089   31.5935   46.5401 H   0  0  0  0  0  0  0  0  0  0  0  0
   56.8590   31.7540   45.2100 N   0  0  0  0  0  0  0  0  0  0  0  0
   56.7060   30.8490   44.2050 C   0  0  0  0  0  0  0  0  0  0  0  0
   55.8810   29.6280   44.3550 C   0  0  0  0  0  0  0  0  0  0  0  0
   54.7790   29.5590   43.7500 O   0  0  0  0  0  0  0  0  0  0  0  0
   56.2400   28.5560   45.2420 N   0  0  0  0  0  0  0  0  0  0  0  0
   57.4420   28.1940   45.5790 C   0  0  0  0  0  0  0  0  0  0  0  0
   57.9380   28.2640   46.8330 N   0  0  0  0  0  0  0  0  0  0  0  0
   59.2230   27.8210   46.8940 C   0  0  0  0  0  0  0  0  0  0  0  0
   59.9400   27.7610   48.1830 C   0  0  0  0  0  0  0  0  0  0  0  0
   60.7930   26.8500   48.3610 O   0  0  0  0  0  0  0  0  0  0  0  0
   59.7070   28.7270   49.2200 N   0  0  0  0  0  0  0  0  0  0  0  0
   59.0510   29.5230   49.0680 H   0  0  0  0  0  0  0  0  0  0  0  0
   60.4090   28.6570   50.4960 C   0  0  0  0  0  0  0  0  0  0  0  0
   59.6824   28.7295   51.3187 H   0  0  0  0  0  0  0  0  0  0  0  0
   60.9480   27.7007   50.5660 H   0  0  0  0  0  0  0  0  0  0  0  0
   61.1262   29.4881   50.5660 H   0  0  0  0  0  0  0  0  0  0  0  0
   59.7600   27.4220   45.6660 C   0  0  0  0  0  0  0  0  0  0  0  0
   60.7792   27.0430   45.5001 H   0  0  0  0  0  0  0  0  0  0  0  0
   58.5770   27.6220   44.4860 S   0  0  0  0  0  0  0  0  0  0  0  0
  1  2  1  0
  2  3  1  0
  3  4  1  0
  4  5  2  0
  5  6  1  0
  6  7  2  0
  6  8  1  0
  8  9  2  0
  9 10  1  0
  9 11  1  0
 11 12  1  0
 11 13  2  0
 13 14  1  0
 13 15  1  0
 15 16  1  0
 15 17  2  0
 17 18  1  0
  4 19  1  0
 19 20  1  0
 20 21  1  0
 21 22  2  0
 21 23  1  0
 23 24  2  3
 24 25  1  0
 25 26  1  0
 26 27  1  0
 27 28  2  0
 27 29  1  0
 29 30  1  0
 29 31  1  0
 31 32  1  0
 31 33  1  0
 31 34  1  0
 26 35  2  0
 35 36  1  0
 35 37  1  0
 20  2  2  0
 37 24  1  0
 17  8  1  0
M  CHG  2  19  -1  25  -1
M  END
>  <UniqueID>  (9) 
9

>  <SMILES>  (9) 
CNC(=O)c1csc(=NC(=O)c2cs/c(=N/C(=O)c3ccccc3)[n-]2)[n-]1

>  <Energy>  (9) 
104.774409870674

>  <Genealogy>  (9) 
CNC(=O)c1csc(=NC(=O)c2csc(=NC(=O)c3ccccc3)[n-]2)[n-]1 (protonated)
CNC(=O)c1csc(=NC(=O)c2cs/c(=N/C(=O)c3ccccc3)[n-]2)[n-]1 (cis-trans isomerization)
CNC(=O)c1csc(=NC(=O)c2cs/c(=N/C(=O)c3ccccc3)[n-]2)[n-]1 (3D coordinates assigned)
CNC(=O)c1csc(=NC(=O)c2cs/c(=N/C(=O)c3ccccc3)[n-]2)[n-]1 (optimized conformer: 104.774409870674 kcal/mol)

>  <smiles>  (9) 
CNC(=O)c1csc(=NC(=O)c2csc(=NC(=O)c3ccccc3)[nH]2)[nH]1

>  <score_type>  (9) 
oracle

>  <origin>  (9) 
adg

>  <m_score__min__energy>  (9) 
-12.380000000000001

>  <m_primary>  (9) 
energy

$$$$
9:0
     RDKit          3D

 65 68  0  0  0  0  0  0  0  0999 V2000
   62.0780   31.6180   47.6360 C   0  0  0  0  0  0  0  0  0  0  0  0
   61.2260   32.6210   48.4170 C   0  0  0  0  0  0  0  0  0  0  0  0
   60.1450   33.1900   47.5810 N   0  0  0  0  0  0  0  0  0  0  0  0
   60.4140   34.5530   47.0480 C   0  0  0  0  0  0  0  0  0  0  0  0
   59.5900   34.9600   45.8070 C   0  0  0  0  0  0  0  0  0  0  0  0
   59.2460   33.8110   44.9580 N   0  0  0  0  0  0  0  0  0  0  0  0
   57.8450   33.8280   44.5040 C   0  0  0  0  0  0  0  0  0  0  0  0
   57.3990   32.4750   43.9280 C   0  0  0  0  0  0  0  0  0  0  0  0
   58.3900   31.4760   44.1710 O   0  0  0  0  0  0  0  0  0  0  0  0
   58.1810   30.2750   44.8690 C   0  0  0  0  0  0  0  0  0  0  0  0
   57.1090   29.4050   44.5880 C   0  0  0  0  0  0  0  0  0  0  0  0
   56.9560   28.2190   45.3120 C   0  0  0  0  0  0  0  0  0  0  0  0
   57.8640   27.8830   46.3280 C   0  0  0  0  0  0  0  0  0  0  0  0
   57.6750   26.6240   47.1290 C   0  0  0  0  0  0  0  0  0  0  0  0
   56.9630   25.5890   46.3100 C   0  0  0  0  0  0  0  0  0  0  0  0
   55.6600   25.6500   45.8300 C   0  0  0  0  0  0  0  0  0  0  0  0
   54.7700   26.6850   46.0900 O   0  0  0  0  0  0  0  0  0  0  0  0
   55.3440   24.5810   45.0610 N   0  0  0  0  0  0  0  0  0  0  0  0
   56.4690   23.8410   45.0500 C   0  0  0  0  0  0  0  0  0  0  0  0
   56.6630   22.6340   44.3810 C   0  0  0  0  0  0  0  0  0  0  0  0
   57.9230   22.0160   44.4790 C   0  0  0  0  0  0  0  0  0  0  0  0
   58.9580   22.6110   45.2360 C   0  0  0  0  0  0  0  0  0  0  0  0
   60.1980   21.9810   45.3150 O   0  0  0  0  0  0  0  0  0  0  0  0
   58.7340   23.8320   45.9040 C   0  0  0  0  0  0  0  0  0  0  0  0
   57.4730   24.4200   45.7890 C   0  0  0  0  0  0  0  0  0  0  0  0
   58.9200   28.7590   46.6200 C   0  0  0  0  0  0  0  0  0  0  0  0
   59.0780   29.9420   45.8910 C   0  0  0  0  0  0  0  0  0  0  0  0
   58.8220   33.0710   48.2350 C   0  0  0  0  0  0  0  0  0  0  0  0
   58.9100   32.1110   49.3940 C   0  0  0  0  0  0  0  0  0  0  0  0
   58.8580   30.7290   49.1430 C   0  0  0  0  0  0  0  0  0  0  0  0
   58.9510   29.8140   50.1950 C   0  0  0  0  0  0  0  0  0  0  0  0
   59.1010   30.2700   51.5080 C   0  0  0  0  0  0  0  0  0  0  0  0
   59.1560   31.6410   51.7700 C   0  0  0  0  0  0  0  0  0  0  0  0
   59.0650   32.5640   50.7220 C   0  0  0  0  0  0  0  0  0  0  0  0
   59.1310   33.9250   51.0100 O   0  0  0  0  0  0  0  0  0  0  0  0
   62.6248   30.9743   48.3407 H   0  0  0  0  0  0  0  0  0  0  0  0
   61.4263   30.9979   47.0029 H   0  0  0  0  0  0  0  0  0  0  0  0
   62.7953   32.1608   47.0029 H   0  0  0  0  0  0  0  0  0  0  0  0
   60.7766   32.1100   49.2813 H   0  0  0  0  0  0  0  0  0  0  0  0
   61.8782   33.4453   48.7413 H   0  0  0  0  0  0  0  0  0  0  0  0
   60.2006   35.2772   47.8480 H   0  0  0  0  0  0  0  0  0  0  0  0
   61.4646   34.5461   46.7220 H   0  0  0  0  0  0  0  0  0  0  0  0
   58.6597   35.4409   46.1435 H   0  0  0  0  0  0  0  0  0  0  0  0
   60.2061   35.6460   45.2072 H   0  0  0  0  0  0  0  0  0  0  0  0
   59.4250   32.9320   45.4960 H   0  0  0  0  0  0  0  0  0  0  0  0
   57.1997   34.0778   45.3591 H   0  0  0  0  0  0  0  0  0  0  0  0
   57.7612   34.5773   43.7030 H   0  0  0  0  0  0  0  0  0  0  0  0
   56.4552   32.1721   44.4050 H   0  0  0  0  0  0  0  0  0  0  0  0
   57.2589   32.5799   42.8420 H   0  0  0  0  0  0  0  0  0  0  0  0
   56.3897   29.6600   43.7958 H   0  0  0  0  0  0  0  0  0  0  0  0
   56.1178   27.5442   45.0837 H   0  0  0  0  0  0  0  0  0  0  0  0
   58.6585   26.2346   47.4308 H   0  0  0  0  0  0  0  0  0  0  0  0
   57.0715   26.8533   48.0196 H   0  0  0  0  0  0  0  0  0  0  0  0
   55.8535   22.1772   43.7927 H   0  0  0  0  0  0  0  0  0  0  0  0
   58.1043   21.0620   43.9623 H   0  0  0  0  0  0  0  0  0  0  0  0
   60.9570   22.2300   44.6900 H   0  0  0  0  0  0  0  0  0  0  0  0
   59.5287   24.3071   46.4979 H   0  0  0  0  0  0  0  0  0  0  0  0
   59.6272   28.5143   47.4262 H   0  0  0  0  0  0  0  0  0  0  0  0
   59.9149   30.6172   46.1228 H   0  0  0  0  0  0  0  0  0  0  0  0
   58.5059   34.0586   48.6020 H   0  0  0  0  0  0  0  0  0  0  0  0
   58.0891   32.6945   47.5063 H   0  0  0  0  0  0  0  0  0  0  0  0
   58.7433   30.3652   48.1113 H   0  0  0  0  0  0  0  0  0  0  0  0
   58.9062   28.7342   49.9899 H   0  0  0  0  0  0  0  0  0  0  0  0
   59.1758   29.5488   52.3352 H   0  0  0  0  0  0  0  0  0  0  0  0
   59.2713   31.9967   52.8045 H   0  0  0  0  0  0  0  0  0  0  0  0
  1  2  1  0
  2  3  1  0
  3  4  1  0
  4  5  1  0
  5  6  1  0
  6  7  1  0
  7  8  1  0
  8  9  1  0
  9 10  1  0
 10 11  2  0
 11 12  1  0
 12 13  2  0
 13 14  1  0
 14 15  1  0
 15 16  2  0
 16 17  1  0
 16 18  1  0
 18 19  1  0
 19 20  2  0
 20 21  1  0
 21 22  2  0
 22 23  1  0
 22 24  1  0
 24 25  2  0
 13 26  1  0
 26 27  2  0
  3 28  1  0
 28 29  1  0
 29 30  2  0
 30 31  1  0
 31 32  2  0
 32 33  1  0
 33 34  2  0
 34 35  1  0
 27 10  1  0
 34 29  1  0
 25 15  1  0
 25 19  1  0
  1 36  1  0
  1 37  1  0
  1 38  1  0
  2 39  1  0
  2 40  1  0
  4 41  1  0
  4 42  1  0
  5 43  1  0
  5 44  1  0
  6 45  1  0
  7 46  1  0
  7 47  1  0
  8 48  1  0
  8 49  1  0
 11 50  1  0
 12 51  1  0
 14 52  1  0
 14 53  1  0
 20 54  1  0
 21 55  1  0
 23 56  1  0
 24 57  1  0
 26 58  1  0
 27 59  1  0
 28 60  1  0
 28 61  1  0
 30 62  1  0
 31 63  1  0
 32 64  1  0
 33 65  1  0
M  CHG  3  17  -1  18  -1  35  -1
M  END
>  <UniqueID>  (10) 
10

>  <SMILES>  (10) 
CCN(CCNCCOc1ccc(Cc2c([O-])[n-]c3ccc(O)cc23)cc1)Cc1ccccc1[O-]

>  <Energy>  (10) 
103.12141246183705

>  <Genealogy>  (10) 
CCN(CCNCCOc1ccc(Cc2c([O-])[n-]c3ccc(O)cc23)cc1)Cc1ccccc1[O-] (protonated)
CCN(CCNCCOc1ccc(Cc2c([O-])[n-]c3ccc(O)cc23)cc1)Cc1ccccc1[O-] (3D coordinates assigned)
CCN(CCNCCOc1ccc(Cc2c([O-])[n-]c3ccc(O)cc23)cc1)Cc1ccccc1[O-] (optimized conformer: 103.12141246183705 kcal/mol)

>  <smiles>  (10) 
CCN(CCNCCOc1ccc(Cc2c(O)[nH]c3ccc(O)cc23)cc1)Cc1ccccc1O

>  <score_type>  (10) 
oracle

>  <origin>  (10) 
adg

>  <m_score__min__energy>  (10) 
-14.76

>  <m_primary>  (10) 
energy

$$$$
10:0
     RDKit          3D

 52 54  0  0  0  0  0  0  0  0999 V2000
   57.1060   32.4610   40.5870 C   0  0  0  0  0  0  0  0  0  0  0  0
   58.2220   32.3520   41.5170 N   0  0  0  0  0  0  0  0  0  0  0  0
   58.0930   32.2580   42.9420 C   0  0  0  0  0  0  0  0  0  0  0  0
   58.4530   33.2370   43.6480 O   0  0  0  0  0  0  0  0  0  0  0  0
   57.5890   31.0410   43.6080 C   0  0  0  0  0  0  0  0  0  0  0  0
   56.2110   30.8120   43.7410 C   0  0  0  0  0  0  0  0  0  0  0  0
   55.7460   29.6650   44.3900 C   0  0  0  0  0  0  0  0  0  0  0  0
   56.6540   28.7480   44.9420 C   0  0  0  0  0  0  0  0  0  0  0  0
   56.2030   27.5540   45.5920 N   0  0  0  0  0  0  0  0  0  0  0  0
   57.0230   26.6370   46.3300 C   0  0  0  0  0  0  0  0  0  0  0  0
   57.0630   25.4330   45.9670 O   0  0  0  0  0  0  0  0  0  0  0  0
   57.9010   27.0860   47.4660 C   0  0  0  0  0  0  0  0  0  0  0  0
   59.6620   26.7380   47.1220 S   0  0  0  0  0  0  0  0  0  0  0  0
   60.2390   27.2700   48.7420 C   0  0  0  0  0  0  0  0  0  0  0  0
   60.7720   26.3420   49.5760 N   0  0  0  0  0  0  0  0  0  0  0  0
   61.1870   26.6720   50.8240 C   0  0  0  0  0  0  0  0  0  0  0  0
   61.6780   25.7910   51.5770 O   0  0  0  0  0  0  0  0  0  0  0  0
   61.0690   27.9490   51.2640 N   0  0  0  0  0  0  0  0  0  0  0  0
   60.5490   28.9250   50.4730 C   0  0  0  0  0  0  0  0  0  0  0  0
   60.4460   30.3180   51.0200 C   0  0  0  0  0  0  0  0  0  0  0  0
   60.1280   28.6080   49.1650 C   0  0  0  0  0  0  0  0  0  0  0  0
   59.5830   29.6470   48.2660 C   0  0  0  0  0  0  0  0  0  0  0  0
   58.5170   30.2350   48.5840 O   0  0  0  0  0  0  0  0  0  0  0  0
   60.2470   30.0140   47.0490 N   0  0  0  0  0  0  0  0  0  0  0  0
   61.0230   31.2350   46.8480 C   0  0  0  0  0  0  0  0  0  0  0  0
   60.1120   32.4150   46.6480 C   0  0  0  0  0  0  0  0  0  0  0  0
   60.6390   33.7090   46.4980 C   0  0  0  0  0  0  0  0  0  0  0  0
   59.7850   34.8060   46.3500 C   0  0  0  0  0  0  0  0  0  0  0  0
   58.4000   34.6180   46.3410 C   0  0  0  0  0  0  0  0  0  0  0  0
   57.8670   33.3330   46.4790 C   0  0  0  0  0  0  0  0  0  0  0  0
   58.7190   32.2340   46.6320 C   0  0  0  0  0  0  0  0  0  0  0  0
   58.0280   28.9700   44.8000 C   0  0  0  0  0  0  0  0  0  0  0  0
   58.4940   30.1190   44.1540 C   0  0  0  0  0  0  0  0  0  0  0  0
   56.1662   32.5528   41.1512 H   0  0  0  0  0  0  0  0  0  0  0  0
   57.2419   33.3501   39.9538 H   0  0  0  0  0  0  0  0  0  0  0  0
   57.0673   31.5624   39.9538 H   0  0  0  0  0  0  0  0  0  0  0  0
   55.4934   31.5387   43.3325 H   0  0  0  0  0  0  0  0  0  0  0  0
   54.6645   29.4802   44.4685 H   0  0  0  0  0  0  0  0  0  0  0  0
   57.7717   28.1685   47.6126 H   0  0  0  0  0  0  0  0  0  0  0  0
   57.6081   26.5330   48.3707 H   0  0  0  0  0  0  0  0  0  0  0  0
   60.4487   30.2813   52.1194 H   0  0  0  0  0  0  0  0  0  0  0  0
   61.3026   30.9133   50.6709 H   0  0  0  0  0  0  0  0  0  0  0  0
   59.5112   30.7808   50.6709 H   0  0  0  0  0  0  0  0  0  0  0  0
   61.6544   31.4115   47.7313 H   0  0  0  0  0  0  0  0  0  0  0  0
   61.6482   31.1139   45.9511 H   0  0  0  0  0  0  0  0  0  0  0  0
   61.7287   33.8595   46.4970 H   0  0  0  0  0  0  0  0  0  0  0  0
   60.2032   35.8175   46.2406 H   0  0  0  0  0  0  0  0  0  0  0  0
   57.7289   35.4818   46.2252 H   0  0  0  0  0  0  0  0  0  0  0  0
   56.7769   33.1859   46.4673 H   0  0  0  0  0  0  0  0  0  0  0  0
   58.2965   31.2242   46.7402 H   0  0  0  0  0  0  0  0  0  0  0  0
   58.7450   28.2371   45.1985 H   0  0  0  0  0  0  0  0  0  0  0  0
   59.5759   30.3008   44.0735 H   0  0  0  0  0  0  0  0  0  0  0  0
  1  2  1  0
  2  3  1  0
  3  4  2  0
  3  5  1  0
  5  6  2  0
  6  7  1  0
  7  8  2  0
  8  9  1  0
  9 10  1  0
 10 11  2  0
 10 12  1  0
 12 13  1  0
 13 14  1  0
 14 15  1  0
 15 16  1  0
 16 17  2  0
 16 18  1  0
 18 19  2  0
 19 20  1  0
 19 21  1  0
 21 22  1  0
 22 23  2  0
 22 24  1  0
 24 25  1  0
 25 26  1  0
 26 27  2  0
 27 28  1  0
 28 29  2  0
 29 30  1  0
 30 31  2  0
  8 32  1  0
 32 33  2  0
 33  5  1  0
 21 14  2  0
 31 26  1  0
  1 34  1  0
  1 35  1  0
  1 36  1  0
  6 37  1  0
  7 38  1  0
 12 39  1  0
 12 40  1  0
 20 41  1  0
 20 42  1  0
 20 43  1  0
 25 44  1  0
 25 45  1  0
 27 46  1  0
 28 47  1  0
 29 48  1  0
 30 49  1  0
 31 50  1  0
 32 51  1  0
 33 52  1  0
M  CHG  4   2  -1   9  -1  15  -1  24  -1
M  END
>  <UniqueID>  (11) 
11

>  <SMILES>  (11) 
C[N-]C(=O)c1ccc([N-]C(=O)CSc2[n-]c(=O)nc(C)c2C(=O)[N-]Cc2ccccc2)cc1

>  <Energy>  (11) 
62.26050181735613

>  <Genealogy>  (11) 
C[N-]C(=O)c1ccc([N-]C(=O)CSc2[n-]c(=O)nc(C)c2C(=O)[N-]Cc2ccccc2)cc1 (protonated)
C[N-]C(=O)c1ccc([N-]C(=O)CSc2[n-]c(=O)nc(C)c2C(=O)[N-]Cc2ccccc2)cc1 (3D coordinates assigned)
C[N-]C(=O)c1ccc([N-]C(=O)CSc2[n-]c(=O)nc(C)c2C(=O)[N-]Cc2ccccc2)cc1 (optimized conformer: 62.26050181735613 kcal/mol)

>  <smiles>  (11) 
CNC(=O)c1ccc(NC(=O)CSc2[nH]c(=O)nc(C)c2C(=O)NCc2ccccc2)cc1

>  <score_type>  (11) 
oracle

>  <origin>  (11) 
adg

>  <m_score__min__energy>  (11) 
-13.91

>  <m_primary>  (11) 
energy

$$$$
11:0
     RDKit          3D

 38 40  0  0  0  0  0  0  0  0999 V2000
   58.0170   26.7560   43.6390 C   0  0  0  0  0  0  0  0  0  0  0  0
   58.5940   26.2690   44.9350 C   0  0  0  0  0  0  0  0  0  0  0  0
   58.4940   25.0020   45.4860 C   0  0  0  0  0  0  0  0  0  0  0  0
   57.8760   23.8070   44.8750 C   0  0  0  0  0  0  0  0  0  0  0  0
   56.6560   23.9430   44.1870 C   0  0  0  0  0  0  0  0  0  0  0  0
   56.0730   22.8440   43.5530 C   0  0  0  0  0  0  0  0  0  0  0  0
   54.8680   22.9900   42.8770 O   0  0  0  0  0  0  0  0  0  0  0  0
   56.7040   21.5990   43.5920 C   0  0  0  0  0  0  0  0  0  0  0  0
   57.9150   21.4510   44.2700 C   0  0  0  0  0  0  0  0  0  0  0  0
   58.5060   22.5420   44.9190 C   0  0  0  0  0  0  0  0  0  0  0  0
   59.6980   22.3290   45.6140 O   0  0  0  0  0  0  0  0  0  0  0  0
   59.1150   24.9850   46.6810 N   0  0  0  0  0  0  0  0  0  0  0  0
   59.6100   26.1910   46.9170 N   0  0  0  0  0  0  0  0  0  0  0  0
   59.3160   26.9910   45.8730 C   0  0  0  0  0  0  0  0  0  0  0  0
   59.7310   28.4020   45.8050 C   0  0  0  0  0  0  0  0  0  0  0  0
   60.5980   28.7500   44.9590 O   0  0  0  0  0  0  0  0  0  0  0  0
   59.1470   29.3770   46.6750 N   0  0  0  0  0  0  0  0  0  0  0  0
   57.7550   29.8020   46.5960 C   0  0  0  0  0  0  0  0  0  0  0  0
   57.3900   30.1270   45.1710 C   0  0  0  0  0  0  0  0  0  0  0  0
   58.1330   31.0800   44.4520 C   0  0  0  0  0  0  0  0  0  0  0  0
   57.7840   31.4000   43.1360 C   0  0  0  0  0  0  0  0  0  0  0  0
   56.6910   30.7790   42.5310 C   0  0  0  0  0  0  0  0  0  0  0  0
   55.9410   29.8360   43.2390 C   0  0  0  0  0  0  0  0  0  0  0  0
   56.2840   29.5090   44.5560 C   0  0  0  0  0  0  0  0  0  0  0  0
   55.5210   28.5740   45.2480 O   0  0  0  0  0  0  0  0  0  0  0  0
   57.1912   27.4530   43.8443 H   0  0  0  0  0  0  0  0  0  0  0  0
   58.7976   27.2724   43.0611 H   0  0  0  0  0  0  0  0  0  0  0  0
   57.6390   25.8997   43.0611 H   0  0  0  0  0  0  0  0  0  0  0  0
   56.1577   24.9229   44.1484 H   0  0  0  0  0  0  0  0  0  0  0  0
   56.2466   20.7347   43.0883 H   0  0  0  0  0  0  0  0  0  0  0  0
   58.4095   20.4687   44.2947 H   0  0  0  0  0  0  0  0  0  0  0  0
   60.0440   22.9620   46.3240 H   0  0  0  0  0  0  0  0  0  0  0  0
   57.1066   28.9921   46.9614 H   0  0  0  0  0  0  0  0  0  0  0  0
   57.6186   30.7009   47.2152 H   0  0  0  0  0  0  0  0  0  0  0  0
   58.9925   31.5760   44.9266 H   0  0  0  0  0  0  0  0  0  0  0  0
   58.3723   32.1426   42.5770 H   0  0  0  0  0  0  0  0  0  0  0  0
   56.4192   31.0319   41.4955 H   0  0  0  0  0  0  0  0  0  0  0  0
   55.0787   29.3494   42.7599 H   0  0  0  0  0  0  0  0  0  0  0  0
  1  2  1  0
  2  3  1  0
  3  4  1  0
  4  5  2  0
  5  6  1  0
  6  7  1  0
  6  8  2  0
  8  9  1  0
  9 10  2  0
 10 11  1  0
  3 12  2  0
 12 13  1  0
 13 14  1  0
 14 15  1  0
 15 16  2  0
 15 17  1  0
 17 18  1  0
 18 19  1  0
 19 20  2  0
 20 21  1  0
 21 22  2  0
 22 23  1  0
 23 24  2  0
 24 25  1  0
 14  2  2  0
 24 19  1  0
 10  4  1  0
  1 26  1  0
  1 27  1  0
  1 28  1  0
  5 29  1  0
  8 30  1  0
  9 31  1  0
 11 32  1  0
 18 33  1  0
 18 34  1  0
 20 35  1  0
 21 36  1  0
 22 37  1  0
 23 38  1  0
M  CHG  4   7  -1  13  -1  17  -1  25  -1
M  END
>  <UniqueID>  (12) 
12

>  <SMILES>  (12) 
Cc1c(-c2cc([O-])ccc2O)n[n-]c1C(=O)[N-]Cc1ccccc1[O-]

>  <Energy>  (12) 
74.89894387727601

>  <Genealogy>  (12) 
Cc1c(-c2cc([O-])ccc2O)n[n-]c1C(=O)[N-]Cc1ccccc1[O-] (protonated)
Cc1c(-c2cc([O-])ccc2O)n[n-]c1C(=O)[N-]Cc1ccccc1[O-] (3D coordinates assigned)
Cc1c(-c2cc([O-])ccc2O)n[n-]c1C(=O)[N-]Cc1ccccc1[O-] (optimized conformer: 74.89894387727601 kcal/mol)

>  <smiles>  (12) 
Cc1c(-c2cc(O)ccc2O)n[nH]c1C(=O)NCc1ccccc1O

>  <score_type>  (12) 
oracle

>  <origin>  (12) 
adg

>  <m_score__min__energy>  (12) 
-14.42

>  <m_primary>  (12) 
energy

$$$$
12:0
     RDKit          3D

 39 42  0  0  0  0  0  0  0  0999 V2000
   55.3090   26.2020   45.9980 N   0  0  0  0  0  0  0  0  0  0  0  0
   55.1020   24.5110   45.6930 S   0  0  0  0  0  0  0  0  0  0  0  0
   54.3790   23.9070   46.8640 O   0  0  0  0  0  0  0  0  0  0  0  0
   54.2710   24.3210   44.4560 O   0  0  0  0  0  0  0  0  0  0  0  0
   56.6760   23.7250   45.4820 C   0  0  0  0  0  0  0  0  0  0  0  0
   56.7290   22.3220   45.4510 C   0  0  0  0  0  0  0  0  0  0  0  0
   57.9530   21.6590   45.3350 C   0  0  0  0  0  0  0  0  0  0  0  0
   59.1380   22.3880   45.2500 C   0  0  0  0  0  0  0  0  0  0  0  0
   59.1040   23.7830   45.2700 C   0  0  0  0  0  0  0  0  0  0  0  0
   57.8790   24.4650   45.3730 C   0  0  0  0  0  0  0  0  0  0  0  0
   57.8970   25.9410   45.3620 C   0  0  0  0  0  0  0  0  0  0  0  0
   58.0740   26.6510   46.5580 C   0  0  0  0  0  0  0  0  0  0  0  0
   58.0950   28.0490   46.5520 C   0  0  0  0  0  0  0  0  0  0  0  0
   57.9480   28.7600   45.3470 C   0  0  0  0  0  0  0  0  0  0  0  0
   57.9650   30.2440   45.3400 C   0  0  0  0  0  0  0  0  0  0  0  0
   57.0720   30.9760   44.5080 C   0  0  0  0  0  0  0  0  0  0  0  0
   57.0840   32.3430   44.4970 N   0  0  0  0  0  0  0  0  0  0  0  0
   57.9640   33.0000   45.2920 C   0  0  0  0  0  0  0  0  0  0  0  0
   58.1020   34.3300   45.3910 N   0  0  0  0  0  0  0  0  0  0  0  0
   59.0940   34.5220   46.2920 C   0  0  0  0  0  0  0  0  0  0  0  0
   59.5800   33.3020   46.7610 C   0  0  0  0  0  0  0  0  0  0  0  0
   58.8390   32.3450   46.1050 C   0  0  0  0  0  0  0  0  0  0  0  0
   58.8710   30.9570   46.1590 C   0  0  0  0  0  0  0  0  0  0  0  0
   57.7880   28.0410   44.1490 C   0  0  0  0  0  0  0  0  0  0  0  0
   57.7690   26.6440   44.1560 C   0  0  0  0  0  0  0  0  0  0  0  0
   54.7720   26.7120   45.2610 H   0  0  0  0  0  0  0  0  0  0  0  0
   55.7981   21.7398   45.5187 H   0  0  0  0  0  0  0  0  0  0  0  0
   57.9818   20.5596   45.3107 H   0  0  0  0  0  0  0  0  0  0  0  0
   60.1011   21.8631   45.1671 H   0  0  0  0  0  0  0  0  0  0  0  0
   60.0425   24.3531   45.2047 H   0  0  0  0  0  0  0  0  0  0  0  0
   58.1969   26.1057   47.5054 H   0  0  0  0  0  0  0  0  0  0  0  0
   58.2275   28.5970   47.4965 H   0  0  0  0  0  0  0  0  0  0  0  0
   56.3625   30.4345   43.8651 H   0  0  0  0  0  0  0  0  0  0  0  0
   57.5620   35.0640   44.8810 H   0  0  0  0  0  0  0  0  0  0  0  0
   59.4662   35.5068   46.6109 H   0  0  0  0  0  0  0  0  0  0  0  0
   60.3820   33.1394   47.4961 H   0  0  0  0  0  0  0  0  0  0  0  0
   59.5777   30.4301   46.8170 H   0  0  0  0  0  0  0  0  0  0  0  0
   57.6769   28.5831   43.1983 H   0  0  0  0  0  0  0  0  0  0  0  0
   57.6531   26.0933   43.2109 H   0  0  0  0  0  0  0  0  0  0  0  0
  1  2  1  0
  2  3  2  0
  2  4  2  0
  2  5  1  0
  5  6  2  0
  6  7  1  0
  7  8  2  0
  8  9  1  0
  9 10  2  0
 10 11  1  0
 11 12  2  0
 12 13  1  0
 13 14  2  0
 14 15  1  0
 15 16  2  0
 16 17  1  0
 17 18  2  0
 18 19  1  0
 19 20  1  0
 20 21  2  0
 21 22  1  0
 22 23  2  0
 14 24  1  0
 24 25  2  0
 10  5  1  0
 25 11  1  0
 23 15  1  0
 22 18  1  0
  1 26  1  0
  6 27  1  0
  7 28  1  0
  8 29  1  0
  9 30  1  0
 12 31  1  0
 13 32  1  0
 16 33  1  0
 19 34  1  0
 20 35  1  0
 21 36  1  0
 23 37  1  0
 24 38  1  0
 25 39  1  0
M  CHG  1   1  -1
M  END
>  <UniqueID>  (13) 
13

>  <SMILES>  (13) 
[NH-]S(=O)(=O)c1ccccc1-c1ccc(-c2cnc3[nH]ccc3c2)cc1

>  <Energy>  (13) 
91.5534292526136

>  <Genealogy>  (13) 
[NH-]S(=O)(=O)c1ccccc1-c1ccc(-c2cnc3[nH]ccc3c2)cc1 (protonated)
[NH-]S(=O)(=O)c1ccccc1-c1ccc(-c2cnc3[nH]ccc3c2)cc1 (3D coordinates assigned)
[NH-]S(=O)(=O)c1ccccc1-c1ccc(-c2cnc3[nH]ccc3c2)cc1 (optimized conformer: 91.5534292526136 kcal/mol)

>  <smiles>  (13) 
NS(=O)(=O)c1ccccc1-c1ccc(-c2cnc3[nH]ccc3c2)cc1

>  <score_type>  (13) 
oracle

>  <origin>  (13) 
adg

>  <m_score__min__energy>  (13) 
-11.16

>  <m_primary>  (13) 
energy

$$$$
13:0
     RDKit          3D

 42 44  0  0  0  0  0  0  0  0999 V2000
   60.4860   29.5030   46.0280 C   0  0  0  0  0  0  0  0  0  0  0  0
   60.6100   30.4100   47.1180 O   0  0  0  0  0  0  0  0  0  0  0  0
   61.4350   31.5460   47.1180 C   0  0  0  0  0  0  0  0  0  0  0  0
   62.8320   31.4540   47.2850 C   0  0  0  0  0  0  0  0  0  0  0  0
   63.6210   32.6050   47.2770 C   0  0  0  0  0  0  0  0  0  0  0  0
   63.0300   33.8560   47.1030 C   0  0  0  0  0  0  0  0  0  0  0  0
   61.6480   33.9620   46.9370 C   0  0  0  0  0  0  0  0  0  0  0  0
   60.8410   32.8080   46.9450 C   0  0  0  0  0  0  0  0  0  0  0  0
   59.4170   32.8820   46.7790 N   0  0  0  0  0  0  0  0  0  0  0  0
   58.6000   33.6460   45.4550 S   0  0  0  0  0  0  0  0  0  0  0  0
   57.5220   34.5460   45.9920 O   0  0  0  0  0  0  0  0  0  0  0  0
   59.5840   34.4760   44.6790 O   0  0  0  0  0  0  0  0  0  0  0  0
   57.9250   32.4200   44.3850 C   0  0  0  0  0  0  0  0  0  0  0  0
   57.8980   32.6470   43.0040 C   0  0  0  0  0  0  0  0  0  0  0  0
   57.3940   31.6710   42.1420 C   0  0  0  0  0  0  0  0  0  0  0  0
   56.9070   30.4660   42.6560 C   0  0  0  0  0  0  0  0  0  0  0  0
   56.9060   30.2330   44.0400 C   0  0  0  0  0  0  0  0  0  0  0  0
   56.4270   28.9720   44.5400 N   0  0  0  0  0  0  0  0  0  0  0  0
   56.9950   28.2880   45.6700 C   0  0  0  0  0  0  0  0  0  0  0  0
   57.7440   28.9100   46.4730 O   0  0  0  0  0  0  0  0  0  0  0  0
   56.6760   26.8650   45.9190 C   0  0  0  0  0  0  0  0  0  0  0  0
   57.6890   25.9080   46.0740 C   0  0  0  0  0  0  0  0  0  0  0  0
   57.3420   24.5760   46.2960 C   0  0  0  0  0  0  0  0  0  0  0  0
   55.9940   24.2280   46.3600 C   0  0  0  0  0  0  0  0  0  0  0  0
   55.6530   23.0330   46.5600 O   0  0  0  0  0  0  0  0  0  0  0  0
   55.0470   25.1880   46.2030 N   0  0  0  0  0  0  0  0  0  0  0  0
   55.3770   26.4630   45.9880 N   0  0  0  0  0  0  0  0  0  0  0  0
   57.4340   31.2120   44.9010 C   0  0  0  0  0  0  0  0  0  0  0  0
   60.3465   28.4825   46.4142 H   0  0  0  0  0  0  0  0  0  0  0  0
   59.6180   29.7844   45.4137 H   0  0  0  0  0  0  0  0  0  0  0  0
   61.3977   29.5411   45.4137 H   0  0  0  0  0  0  0  0  0  0  0  0
   63.3027   30.4693   47.4224 H   0  0  0  0  0  0  0  0  0  0  0  0
   64.7103   32.5254   47.4081 H   0  0  0  0  0  0  0  0  0  0  0  0
   63.6544   34.7616   47.0965 H   0  0  0  0  0  0  0  0  0  0  0  0
   61.1873   34.9514   46.7993 H   0  0  0  0  0  0  0  0  0  0  0  0
   58.2748   33.5968   42.5968 H   0  0  0  0  0  0  0  0  0  0  0  0
   57.3802   31.8507   41.0569 H   0  0  0  0  0  0  0  0  0  0  0  0
   56.5222   29.6956   41.9717 H   0  0  0  0  0  0  0  0  0  0  0  0
   55.5660   28.5720   44.1030 H   0  0  0  0  0  0  0  0  0  0  0  0
   58.7468   26.2051   46.0210 H   0  0  0  0  0  0  0  0  0  0  0  0
   58.1218   23.8100   46.4190 H   0  0  0  0  0  0  0  0  0  0  0  0
   57.4619   31.0290   45.9853 H   0  0  0  0  0  0  0  0  0  0  0  0
  1  2  1  0
  2  3  1  0
  3  4  2  0
  4  5  1  0
  5  6  2  0
  6  7  1  0
  7  8  2  0
  8  9  1  0
  9 10  1  0
 10 11  2  0
 10 12  2  0
 10 13  1  0
 13 14  2  0
 14 15  1  0
 15 16  2  0
 16 17  1  0
 17 18  1  0
 18 19  1  0
 19 20  2  0
 19 21  1  0
 21 22  1  0
 22 23  2  0
 23 24  1  0
 24 25  2  0
 24 26  1  0
 26 27  1  0
 17 28  2  0
  8  3  1  0
 28 13  1  0
 27 21  2  0
  1 29  1  0
  1 30  1  0
  1 31  1  0
  4 32  1  0
  5 33  1  0
  6 34  1  0
  7 35  1  0
 14 36  1  0
 15 37  1  0
 16 38  1  0
 18 39  1  0
 22 40  1  0
 23 41  1  0
 28 42  1  0
M  CHG  2   9  -1  26  -1
M  END
>  <UniqueID>  (14) 
14

>  <SMILES>  (14) 
COc1ccccc1[N-]S(=O)(=O)c1cccc(NC(=O)c2ccc(=O)[n-]n2)c1

>  <Energy>  (14) 
52.647625667437936

>  <Genealogy>  (14) 
COc1ccccc1[N-]S(=O)(=O)c1cccc(NC(=O)c2ccc(=O)[n-]n2)c1 (protonated)
COc1ccccc1[N-]S(=O)(=O)c1cccc(NC(=O)c2ccc(=O)[n-]n2)c1 (3D coordinates assigned)
COc1ccccc1[N-]S(=O)(=O)c1cccc(NC(=O)c2ccc(=O)[n-]n2)c1 (optimized conformer: 52.647625667437936 kcal/mol)

>  <smiles>  (14) 
COc1ccccc1NS(=O)(=O)c1cccc(NC(=O)c2ccc(=O)[nH]n2)c1

>  <score_type>  (14) 
oracle

>  <origin>  (14) 
adg

>  <m_score__min__energy>  (14) 
-11.92

>  <m_primary>  (14) 
energy

$$$$
14:0
     RDKit          3D

 49 51  0  0  0  0  0  0  0  0999 V2000
   57.3510   33.7590   44.7590 C   0  0  0  0  0  0  0  0  0  0  0  0
   58.2700   33.8610   45.9410 C   0  0  0  0  0  0  0  0  0  0  0  0
   59.4460   34.6200   45.8590 C   0  0  0  0  0  0  0  0  0  0  0  0
   60.3250   34.6790   46.9430 C   0  0  0  0  0  0  0  0  0  0  0  0
   60.0480   33.9730   48.1280 C   0  0  0  0  0  0  0  0  0  0  0  0
   60.9800   34.0360   49.2780 C   0  0  0  0  0  0  0  0  0  0  0  0
   60.5340   34.2250   50.4430 O   0  0  0  0  0  0  0  0  0  0  0  0
   62.3870   33.8810   49.0740 N   0  0  0  0  0  0  0  0  0  0  0  0
   63.0830   32.4300   48.4380 S   0  0  0  0  0  0  0  0  0  0  0  0
   63.6870   32.7180   47.0920 O   0  0  0  0  0  0  0  0  0  0  0  0
   64.1690   31.9480   49.3580 O   0  0  0  0  0  0  0  0  0  0  0  0
   61.8290   31.2070   48.2580 C   0  0  0  0  0  0  0  0  0  0  0  0
   61.2850   30.5970   49.3950 C   0  0  0  0  0  0  0  0  0  0  0  0
   60.3040   29.6100   49.2620 C   0  0  0  0  0  0  0  0  0  0  0  0
   59.8650   29.2080   47.9920 C   0  0  0  0  0  0  0  0  0  0  0  0
   58.8400   28.2040   47.8840 N   0  0  0  0  0  0  0  0  0  0  0  0
   59.0630   26.8850   47.3570 C   0  0  0  0  0  0  0  0  0  0  0  0
   60.2340   26.4280   47.2650 O   0  0  0  0  0  0  0  0  0  0  0  0
   57.9690   26.0500   46.9650 N   0  0  0  0  0  0  0  0  0  0  0  0
   56.9030   26.3970   45.6440 S   0  0  0  0  0  0  0  0  0  0  0  0
   55.4760   26.3830   46.1170 O   0  0  0  0  0  0  0  0  0  0  0  0
   57.0960   25.3610   44.5720 O   0  0  0  0  0  0  0  0  0  0  0  0
   57.2760   27.9960   45.0110 C   0  0  0  0  0  0  0  0  0  0  0  0
   58.5930   28.3110   44.6410 C   0  0  0  0  0  0  0  0  0  0  0  0
   58.8980   29.5810   44.1440 C   0  0  0  0  0  0  0  0  0  0  0  0
   57.8910   30.5440   44.0160 C   0  0  0  0  0  0  0  0  0  0  0  0
   56.5790   30.2380   44.3890 C   0  0  0  0  0  0  0  0  0  0  0  0
   56.2700   28.9680   44.8890 C   0  0  0  0  0  0  0  0  0  0  0  0
   60.4010   29.8370   46.8520 C   0  0  0  0  0  0  0  0  0  0  0  0
   61.3820   30.8240   46.9870 C   0  0  0  0  0  0  0  0  0  0  0  0
   58.8730   33.2030   48.2010 C   0  0  0  0  0  0  0  0  0  0  0  0
   57.9970   33.1410   47.1120 C   0  0  0  0  0  0  0  0  0  0  0  0
   56.3146   33.6440   45.1092 H   0  0  0  0  0  0  0  0  0  0  0  0
   57.4333   34.6718   44.1507 H   0  0  0  0  0  0  0  0  0  0  0  0
   57.6315   32.8865   44.1507 H   0  0  0  0  0  0  0  0  0  0  0  0
   59.6777   35.1719   44.9361 H   0  0  0  0  0  0  0  0  0  0  0  0
   61.2416   35.2826   46.8695 H   0  0  0  0  0  0  0  0  0  0  0  0
   61.6306   30.8953   50.3958 H   0  0  0  0  0  0  0  0  0  0  0  0
   59.8728   29.1448   50.1607 H   0  0  0  0  0  0  0  0  0  0  0  0
   57.9100   28.4170   48.3070 H   0  0  0  0  0  0  0  0  0  0  0  0
   59.3868   27.5563   44.7425 H   0  0  0  0  0  0  0  0  0  0  0  0
   59.9307   29.8238   43.8532 H   0  0  0  0  0  0  0  0  0  0  0  0
   58.1318   31.5423   43.6217 H   0  0  0  0  0  0  0  0  0  0  0  0
   55.7885   30.9964   44.2894 H   0  0  0  0  0  0  0  0  0  0  0  0
   55.2379   28.7309   45.1868 H   0  0  0  0  0  0  0  0  0  0  0  0
   60.0464   29.5506   45.8509 H   0  0  0  0  0  0  0  0  0  0  0  0
   61.8047   31.3019   46.0910 H   0  0  0  0  0  0  0  0  0  0  0  0
   58.6414   32.6458   49.1207 H   0  0  0  0  0  0  0  0  0  0  0  0
   57.0888   32.5236   47.1752 H   0  0  0  0  0  0  0  0  0  0  0  0
  1  2  1  0
  2  3  2  0
  3  4  1  0
  4  5  2  0
  5  6  1  0
  6  7  2  0
  6  8  1  0
  8  9  1  0
  9 10  2  0
  9 11  2  0
  9 12  1  0
 12 13  2  0
 13 14  1  0
 14 15  2  0
 15 16  1  0
 16 17  1  0
 17 18  2  0
 17 19  1  0
 19 20  1  0
 20 21  2  0
 20 22  2  0
 20 23  1  0
 23 24  2  0
 24 25  1  0
 25 26  2  0
 26 27  1  0
 27 28  2  0
 15 29  1  0
 29 30  2  0
  5 31  1  0
 31 32  2  0
 32  2  1  0
 30 12  1  0
 28 23  1  0
  1 33  1  0
  1 34  1  0
  1 35  1  0
  3 36  1  0
  4 37  1  0
 13 38  1  0
 14 39  1  0
 16 40  1  0
 24 41  1  0
 25 42  1  0
 26 43  1  0
 27 44  1  0
 28 45  1  0
 29 46  1  0
 30 47  1  0
 31 48  1  0
 32 49  1  0
M  CHG  2   8  -1  19  -1
M  END
>  <UniqueID>  (15) 
15

>  <SMILES>  (15) 
Cc1ccc(C(=O)[N-]S(=O)(=O)c2ccc(NC(=O)[N-]S(=O)(=O)c3ccccc3)cc2)cc1

>  <Energy>  (15) 
60.15260634197863

>  <Genealogy>  (15) 
Cc1ccc(C(=O)[N-]S(=O)(=O)c2ccc(NC(=O)[N-]S(=O)(=O)c3ccccc3)cc2)cc1 (protonated)
Cc1ccc(C(=O)[N-]S(=O)(=O)c2ccc(NC(=O)[N-]S(=O)(=O)c3ccccc3)cc2)cc1 (3D coordinates assigned)
Cc1ccc(C(=O)[N-]S(=O)(=O)c2ccc(NC(=O)[N-]S(=O)(=O)c3ccccc3)cc2)cc1 (optimized conformer: 60.15260634197863 kcal/mol)

>  <smiles>  (15) 
Cc1ccc(C(=O)NS(=O)(=O)c2ccc(NC(=O)NS(=O)(=O)c3ccccc3)cc2)cc1

>  <score_type>  (15) 
oracle

>  <origin>  (15) 
adg

>  <m_score__min__energy>  (15) 
-13.27

>  <m_primary>  (15) 
energy

$$$$
15:0
     RDKit          3D

 48 51  0  0  0  0  0  0  0  0999 V2000
   61.8976   29.1329   50.8484 H   0  0  0  0  0  0  0  0  0  0  0  0
   61.0900   29.1080   50.1020 C   0  0  0  0  0  0  0  0  0  0  0  0
   60.7360   27.9300   49.5240 N   0  0  0  0  0  0  0  0  0  0  0  0
   59.7440   27.8510   48.5900 C   0  0  0  0  0  0  0  0  0  0  0  0
   59.4140   26.7160   48.0420 N   0  0  0  0  0  0  0  0  0  0  0  0
   59.1730   26.4770   46.6460 C   0  0  0  0  0  0  0  0  0  0  0  0
   60.0840   26.6330   45.7860 O   0  0  0  0  0  0  0  0  0  0  0  0
   57.8440   26.0230   46.2190 C   0  0  0  0  0  0  0  0  0  0  0  0
   56.7080   26.6950   46.4950 N   0  0  0  0  0  0  0  0  0  0  0  0
   55.7360   25.9610   45.9310 C   0  0  0  0  0  0  0  0  0  0  0  0
   54.3900   26.3040   45.9940 O   0  0  0  0  0  0  0  0  0  0  0  0
   56.2260   24.8360   45.3050 C   0  0  0  0  0  0  0  0  0  0  0  0
   55.6485   24.0668   44.7713 H   0  0  0  0  0  0  0  0  0  0  0  0
   57.5880   24.8760   45.4870 C   0  0  0  0  0  0  0  0  0  0  0  0
   58.3253   24.1447   45.1244 H   0  0  0  0  0  0  0  0  0  0  0  0
   59.0680   29.0180   48.2030 C   0  0  0  0  0  0  0  0  0  0  0  0
   58.2750   28.9726   47.4420 H   0  0  0  0  0  0  0  0  0  0  0  0
   59.4100   30.2390   48.7920 C   0  0  0  0  0  0  0  0  0  0  0  0
   58.8793   31.1584   48.5037 H   0  0  0  0  0  0  0  0  0  0  0  0
   60.4290   30.2880   49.7490 C   0  0  0  0  0  0  0  0  0  0  0  0
   60.8730   31.8330   50.5440 S   0  0  0  0  0  0  0  0  0  0  0  0
   61.2820   32.6440   48.9960 C   0  0  0  0  0  0  0  0  0  0  0  0
   62.5980   32.6220   48.5220 C   0  0  0  0  0  0  0  0  0  0  0  0
   63.3876   32.1382   49.1157 H   0  0  0  0  0  0  0  0  0  0  0  0
   62.9110   33.2140   47.2950 C   0  0  0  0  0  0  0  0  0  0  0  0
   63.9426   33.1767   46.9150 H   0  0  0  0  0  0  0  0  0  0  0  0
   61.9150   33.8540   46.5490 C   0  0  0  0  0  0  0  0  0  0  0  0
   62.1688   34.3244   45.5876 H   0  0  0  0  0  0  0  0  0  0  0  0
   60.5910   33.8990   47.0220 C   0  0  0  0  0  0  0  0  0  0  0  0
   59.5550   34.6700   46.2920 C   0  0  0  0  0  0  0  0  0  0  0  0
   59.7770   35.8630   45.9420 O   0  0  0  0  0  0  0  0  0  0  0  0
   58.2770   34.0850   46.0010 N   0  0  0  0  0  0  0  0  0  0  0  0
   58.0680   33.1140   45.1470 C   0  0  0  0  0  0  0  0  0  0  0  0
   57.7420   31.8440   45.6410 C   0  0  0  0  0  0  0  0  0  0  0  0
   57.6654   31.6781   46.7257 H   0  0  0  0  0  0  0  0  0  0  0  0
   57.5140   30.7870   44.7530 C   0  0  0  0  0  0  0  0  0  0  0  0
   57.1110   29.4420   45.2800 C   0  0  0  0  0  0  0  0  0  0  0  0
   57.1171   29.4623   46.3798 H   0  0  0  0  0  0  0  0  0  0  0  0
   56.0998   29.1964   44.9234 H   0  0  0  0  0  0  0  0  0  0  0  0
   57.8205   28.6808   44.9234 H   0  0  0  0  0  0  0  0  0  0  0  0
   57.6410   31.0100   43.3750 C   0  0  0  0  0  0  0  0  0  0  0  0
   57.4811   30.1857   42.6644 H   0  0  0  0  0  0  0  0  0  0  0  0
   57.9710   32.2820   42.9100 C   0  0  0  0  0  0  0  0  0  0  0  0
   58.0695   32.4625   41.8294 H   0  0  0  0  0  0  0  0  0  0  0  0
   58.1720   33.3030   43.7910 N   0  0  0  0  0  0  0  0  0  0  0  0
   58.4480   34.2270   43.3900 H   0  0  0  0  0  0  0  0  0  0  0  0
   60.2790   33.2620   48.2380 C   0  0  0  0  0  0  0  0  0  0  0  0
   59.2390   33.2494   48.5960 H   0  0  0  0  0  0  0  0  0  0  0  0
  1  2  1  0
  2  3  1  0
  3  4  1  0
  4  5  2  3
  5  6  1  0
  6  7  2  0
  6  8  1  0
  8  9  1  0
  9 10  1  0
 10 11  1  0
 10 12  2  0
 12 13  1  0
 12 14  1  0
 14 15  1  0
  4 16  1  0
 16 17  1  0
 16 18  2  0
 18 19  1  0
 18 20  1  0
 20 21  1  0
 21 22  1  0
 22 23  2  0
 23 24  1  0
 23 25  1  0
 25 26  1  0
 25 27  2  0
 27 28  1  0
 27 29  1  0
 29 30  1  0
 30 31  2  0
 30 32  1  0
 32 33  2  0
 33 34  1  0
 34 35  1  0
 34 36  2  0
 36 37  1  0
 37 38  1  0
 37 39  1  0
 37 40  1  0
 36 41  1  0
 41 42  1  0
 41 43  2  0
 43 44  1  0
 43 45  1  0
 45 46  1  0
 29 47  2  0
 47 48  1  0
 20  2  2  0
 47 22  1  0
 14  8  2  0
 45 33  1  0
M  CHG  3   3  -1   9  -1  11  -1
M  END
>  <UniqueID>  (16) 
16

>  <SMILES>  (16) 
Cc1cc[nH]/c(=N\C(=O)c2cccc(Sc3ccc(=NC(=O)c4ccc([O-])[n-]4)[n-]c3)c2)c1

>  <Energy>  (16) 
82.15727096202913

>  <Genealogy>  (16) 
Cc1cc[nH]c(=NC(=O)c2cccc(Sc3ccc(=NC(=O)c4ccc([O-])[n-]4)[n-]c3)c2)c1 (protonated)
Cc1cc[nH]/c(=N\C(=O)c2cccc(Sc3ccc(=NC(=O)c4ccc([O-])[n-]4)[n-]c3)c2)c1 (cis-trans isomerization)
Cc1cc[nH]/c(=N\C(=O)c2cccc(Sc3ccc(=NC(=O)c4ccc([O-])[n-]4)[n-]c3)c2)c1 (3D coordinates assigned)
Cc1cc[nH]/c(=N\C(=O)c2cccc(Sc3ccc(=NC(=O)c4ccc([O-])[n-]4)[n-]c3)c2)c1 (optimized conformer: 82.15727096202913 kcal/mol)

>  <smiles>  (16) 
Cc1cc[nH]c(=NC(=O)c2cccc(Sc3ccc(=NC(=O)c4ccc(O)[nH]4)[nH]c3)c2)c1

>  <score_type>  (16) 
oracle

>  <origin>  (16) 
adg

>  <m_score__min__energy>  (16) 
-17.260000000000002

>  <m_primary>  (16) 
energy

$$$$
16:0
     RDKit          3D

 45 47  0  0  0  0  0  0  0  0999 V2000
   57.0010   34.5210   44.8460 C   0  0  0  0  0  0  0  0  0  0  0  0
   58.1980   33.9630   45.5570 C   0  0  0  0  0  0  0  0  0  0  0  0
   59.1970   34.8210   46.0410 C   0  0  0  0  0  0  0  0  0  0  0  0
   60.2840   34.3050   46.7510 C   0  0  0  0  0  0  0  0  0  0  0  0
   60.3800   32.9310   46.9870 C   0  0  0  0  0  0  0  0  0  0  0  0
   59.3950   32.0590   46.4980 C   0  0  0  0  0  0  0  0  0  0  0  0
   59.5020   30.5760   46.7490 C   0  0  0  0  0  0  0  0  0  0  0  0
   59.2930   29.7630   45.4650 C   0  0  0  0  0  0  0  0  0  0  0  0
   57.8450   29.4180   45.2500 C   0  0  0  0  0  0  0  0  0  0  0  0
   56.9950   30.2030   44.5600 N   0  0  0  0  0  0  0  0  0  0  0  0
   55.8370   29.5150   44.5900 C   0  0  0  0  0  0  0  0  0  0  0  0
   54.7830   29.9360   44.0480 O   0  0  0  0  0  0  0  0  0  0  0  0
   55.8990   28.3380   45.2430 N   0  0  0  0  0  0  0  0  0  0  0  0
   57.1800   28.2740   45.6510 C   0  0  0  0  0  0  0  0  0  0  0  0
   57.7270   27.1250   46.4460 C   0  0  0  0  0  0  0  0  0  0  0  0
   57.5010   25.8230   45.7240 C   0  0  0  0  0  0  0  0  0  0  0  0
   57.1320   24.6750   46.4440 C   0  0  0  0  0  0  0  0  0  0  0  0
   56.8900   23.4710   45.7780 C   0  0  0  0  0  0  0  0  0  0  0  0
   57.0160   23.3970   44.3850 C   0  0  0  0  0  0  0  0  0  0  0  0
   56.6640   21.8830   43.5520 S   0  0  0  0  0  0  0  0  0  0  0  0
   58.1320   21.0530   43.1590 N   0  0  0  0  0  0  0  0  0  0  0  0
   55.9100   22.1570   42.2790 O   0  0  0  0  0  0  0  0  0  0  0  0
   55.8220   21.0130   44.4430 O   0  0  0  0  0  0  0  0  0  0  0  0
   57.3850   24.5420   43.6630 C   0  0  0  0  0  0  0  0  0  0  0  0
   57.6350   25.7450   44.3290 C   0  0  0  0  0  0  0  0  0  0  0  0
   58.2970   32.5830   45.7960 C   0  0  0  0  0  0  0  0  0  0  0  0
   56.2628   34.8651   45.5854 H   0  0  0  0  0  0  0  0  0  0  0  0
   57.3106   35.3676   44.2156 H   0  0  0  0  0  0  0  0  0  0  0  0
   56.5517   33.7395   44.2156 H   0  0  0  0  0  0  0  0  0  0  0  0
   59.1242   35.9037   45.8608 H   0  0  0  0  0  0  0  0  0  0  0  0
   61.0662   34.9819   47.1251 H   0  0  0  0  0  0  0  0  0  0  0  0
   61.2309   32.5313   47.5582 H   0  0  0  0  0  0  0  0  0  0  0  0
   60.5014   30.3545   47.1517 H   0  0  0  0  0  0  0  0  0  0  0  0
   58.7153   30.2932   47.4639 H   0  0  0  0  0  0  0  0  0  0  0  0
   59.6490   30.3536   44.6080 H   0  0  0  0  0  0  0  0  0  0  0  0
   59.8571   28.8235   45.5604 H   0  0  0  0  0  0  0  0  0  0  0  0
   58.8067   27.2717   46.5967 H   0  0  0  0  0  0  0  0  0  0  0  0
   57.2082   27.0867   47.4152 H   0  0  0  0  0  0  0  0  0  0  0  0
   57.0330   24.7241   47.5384 H   0  0  0  0  0  0  0  0  0  0  0  0
   56.5993   22.5775   46.3499 H   0  0  0  0  0  0  0  0  0  0  0  0
   58.4970   20.6350   44.0440 H   0  0  0  0  0  0  0  0  0  0  0  0
   57.8860   20.2580   42.5260 H   0  0  0  0  0  0  0  0  0  0  0  0
   57.4779   24.4927   42.5680 H   0  0  0  0  0  0  0  0  0  0  0  0
   57.9381   26.6346   43.7574 H   0  0  0  0  0  0  0  0  0  0  0  0
   57.5093   31.9075   45.4310 H   0  0  0  0  0  0  0  0  0  0  0  0
  1  2  1  0
  2  3  2  0
  3  4  1  0
  4  5  2  0
  5  6  1  0
  6  7  1  0
  7  8  1  0
  8  9  1  0
  9 10  1  0
 10 11  1  0
 11 12  2  0
 11 13  1  0
 13 14  1  0
 14 15  1  0
 15 16  1  0
 16 17  2  0
 17 18  1  0
 18 19  2  0
 19 20  1  0
 20 21  1  0
 20 22  2  0
 20 23  2  0
 19 24  1  0
 24 25  2  0
  6 26  2  0
 26  2  1  0
 14  9  2  0
 25 16  1  0
  1 27  1  0
  1 28  1  0
  1 29  1  0
  3 30  1  0
  4 31  1  0
  5 32  1  0
  7 33  1  0
  7 34  1  0
  8 35  1  0
  8 36  1  0
 15 37  1  0
 15 38  1  0
 17 39  1  0
 18 40  1  0
 21 41  1  0
 21 42  1  0
 24 43  1  0
 25 44  1  0
 26 45  1  0
M  CHG  2  10  -1  13  -1
M  END
>  <UniqueID>  (17) 
17

>  <SMILES>  (17) 
Cc1cccc(CCc2[n-]c(=O)[n-]c2Cc2ccc(S(N)(=O)=O)cc2)c1

>  <Energy>  (17) 
62.300050208843075

>  <Genealogy>  (17) 
Cc1cccc(CCc2[n-]c(=O)[n-]c2Cc2ccc(S(N)(=O)=O)cc2)c1 (protonated)
Cc1cccc(CCc2[n-]c(=O)[n-]c2Cc2ccc(S(N)(=O)=O)cc2)c1 (3D coordinates assigned)
Cc1cccc(CCc2[n-]c(=O)[n-]c2Cc2ccc(S(N)(=O)=O)cc2)c1 (optimized conformer: 62.300050208843075 kcal/mol)

>  <smiles>  (17) 
Cc1cccc(CCc2[nH]c(=O)[nH]c2Cc2ccc(S(N)(=O)=O)cc2)c1

>  <score_type>  (17) 
oracle

>  <origin>  (17) 
adg

>  <m_score__min__energy>  (17) 
-13.09

>  <m_primary>  (17) 
energy

$$$$
17:0
     RDKit          3D

 52 55  0  0  0  0  0  0  0  0999 V2000
   56.1560   28.1050   45.1240 H   0  0  0  0  0  0  0  0  0  0  0  0
   55.5210   27.4890   45.6190 O   0  0  0  0  0  0  0  0  0  0  0  0
   55.9980   26.3500   46.2600 C   0  0  0  0  0  0  0  0  0  0  0  0
   55.3350   25.1830   46.3130 N   0  0  0  0  0  0  0  0  0  0  0  0
   56.1780   24.3960   47.0160 C   0  0  0  0  0  0  0  0  0  0  0  0
   55.9150   23.1950   47.2860 O   0  0  0  0  0  0  0  0  0  0  0  0
   57.3250   24.9960   47.4050 N   0  0  0  0  0  0  0  0  0  0  0  0
   57.1960   26.2470   46.9260 C   0  0  0  0  0  0  0  0  0  0  0  0
   58.2360   27.3140   47.0630 C   0  0  0  0  0  0  0  0  0  0  0  0
   59.2306   26.8749   46.8958 H   0  0  0  0  0  0  0  0  0  0  0  0
   58.1782   27.7421   48.0746 H   0  0  0  0  0  0  0  0  0  0  0  0
   58.0010   28.4010   46.0600 C   0  0  0  0  0  0  0  0  0  0  0  0
   57.4610   29.5940   46.3650 N   0  0  0  0  0  0  0  0  0  0  0  0
   57.4160   30.2370   45.1800 C   0  0  0  0  0  0  0  0  0  0  0  0
   56.9390   31.4410   45.0670 N   0  0  0  0  0  0  0  0  0  0  0  0
   57.3860   32.5970   45.7940 C   0  0  0  0  0  0  0  0  0  0  0  0
   56.5560   33.4640   46.1860 O   0  0  0  0  0  0  0  0  0  0  0  0
   58.8300   32.7930   46.0500 C   0  0  0  0  0  0  0  0  0  0  0  0
   59.6350   31.7220   46.4710 C   0  0  0  0  0  0  0  0  0  0  0  0
   59.1942   30.7205   46.5839 H   0  0  0  0  0  0  0  0  0  0  0  0
   60.9920   31.9170   46.7480 C   0  0  0  0  0  0  0  0  0  0  0  0
   61.6032   31.0721   47.0981 H   0  0  0  0  0  0  0  0  0  0  0  0
   61.5840   33.1850   46.5830 C   0  0  0  0  0  0  0  0  0  0  0  0
   63.0280   33.4150   46.8510 C   0  0  0  0  0  0  0  0  0  0  0  0
   63.6850   34.1770   46.0880 O   0  0  0  0  0  0  0  0  0  0  0  0
   63.7580   32.7560   47.9900 C   0  0  0  0  0  0  0  0  0  0  0  0
   63.4837   31.6914   48.0257 H   0  0  0  0  0  0  0  0  0  0  0  0
   64.8399   32.8687   47.8262 H   0  0  0  0  0  0  0  0  0  0  0  0
   63.3940   33.4130   49.3260 C   0  0  0  0  0  0  0  0  0  0  0  0
   64.0487   33.0154   50.1155 H   0  0  0  0  0  0  0  0  0  0  0  0
   63.5274   34.5012   49.2361 H   0  0  0  0  0  0  0  0  0  0  0  0
   61.9590   33.1250   49.6800 C   0  0  0  0  0  0  0  0  0  0  0  0
   61.0040   34.1560   49.6760 C   0  0  0  0  0  0  0  0  0  0  0  0
   61.3097   35.1849   49.4353 H   0  0  0  0  0  0  0  0  0  0  0  0
   59.6660   33.8790   49.9770 C   0  0  0  0  0  0  0  0  0  0  0  0
   58.9243   34.6913   49.9801 H   0  0  0  0  0  0  0  0  0  0  0  0
   59.2700   32.5710   50.2740 C   0  0  0  0  0  0  0  0  0  0  0  0
   58.2190   32.3567   50.5179 H   0  0  0  0  0  0  0  0  0  0  0  0
   60.2100   31.5350   50.2610 C   0  0  0  0  0  0  0  0  0  0  0  0
   59.8220   30.2640   50.5370 F   0  0  0  0  0  0  0  0  0  0  0  0
   61.5500   31.8100   49.9640 C   0  0  0  0  0  0  0  0  0  0  0  0
   62.2868   30.9933   49.9527 H   0  0  0  0  0  0  0  0  0  0  0  0
   60.7750   34.2520   46.1520 C   0  0  0  0  0  0  0  0  0  0  0  0
   61.2193   35.2486   46.0131 H   0  0  0  0  0  0  0  0  0  0  0  0
   59.4140   34.0620   45.8980 C   0  0  0  0  0  0  0  0  0  0  0  0
   58.7950   34.9126   45.5765 H   0  0  0  0  0  0  0  0  0  0  0  0
   57.8850   29.5120   44.1380 N   0  0  0  0  0  0  0  0  0  0  0  0
   58.2460   28.3470   44.7030 C   0  0  0  0  0  0  0  0  0  0  0  0
   58.8120   27.1930   43.9420 C   0  0  0  0  0  0  0  0  0  0  0  0
   59.1836   26.4354   44.6476 H   0  0  0  0  0  0  0  0  0  0  0  0
   58.0282   26.7514   43.3090 H   0  0  0  0  0  0  0  0  0  0  0  0
   59.6410   27.5424   43.3090 H   0  0  0  0  0  0  0  0  0  0  0  0
  1  2  1  0
  2  3  1  0
  3  4  1  0
  4  5  1  0
  5  6  2  0
  5  7  1  0
  7  8  1  0
  8  9  1  0
  9 10  1  0
  9 11  1  0
  9 12  1  0
 12 13  1  0
 13 14  1  0
 14 15  2  0
 15 16  1  0
 16 17  2  0
 16 18  1  0
 18 19  2  0
 19 20  1  0
 19 21  1  0
 21 22  1  0
 21 23  2  0
 23 24  1  0
 24 25  2  0
 24 26  1  0
 26 27  1  0
 26 28  1  0
 26 29  1  0
 29 30  1  0
 29 31  1  0
 29 32  1  0
 32 33  2  0
 33 34  1  0
 33 35  1  0
 35 36  1  0
 35 37  2  0
 37 38  1  0
 37 39  1  0
 39 40  1  0
 39 41  2  0
 41 42  1  0
 23 43  1  0
 43 44  1  0
 43 45  2  0
 45 46  1  0
 14 47  1  0
 47 48  1  0
 48 49  1  0
 49 50  1  0
 49 51  1  0
 49 52  1  0
  8  3  2  0
 48 12  2  0
 45 18  1  0
 41 32  1  0
M  CHG  4   4  -1   7  -1  13  -1  47  -1
M  END
>  <UniqueID>  (18) 
18

>  <SMILES>  (18) 
Cc1[n-]/c(=N\C(=O)c2ccc(C(=O)CCc3cccc(F)c3)cc2)[n-]c1Cc1[n-]c(=O)[n-]c1O

>  <Energy>  (18) 
111.68024969757293

>  <Genealogy>  (18) 
Cc1[n-]c(=NC(=O)c2ccc(C(=O)CCc3cccc(F)c3)cc2)[n-]c1Cc1[n-]c(=O)[n-]c1O (protonated)
Cc1[n-]/c(=N\C(=O)c2ccc(C(=O)CCc3cccc(F)c3)cc2)[n-]c1Cc1[n-]c(=O)[n-]c1O (cis-trans isomerization)
Cc1[n-]/c(=N\C(=O)c2ccc(C(=O)CCc3cccc(F)c3)cc2)[n-]c1Cc1[n-]c(=O)[n-]c1O (3D coordinates assigned)
Cc1[n-]/c(=N\C(=O)c2ccc(C(=O)CCc3cccc(F)c3)cc2)[n-]c1Cc1[n-]c(=O)[n-]c1O (optimized conformer: 111.68024969757293 kcal/mol)

>  <smiles>  (18) 
Cc1[nH]c(=NC(=O)c2ccc(C(=O)CCc3cccc(F)c3)cc2)[nH]c1Cc1[nH]c(=O)[nH]c1O

>  <score_type>  (18) 
oracle

>  <origin>  (18) 
adg

>  <m_score__min__energy>  (18) 
-16.280000000000001

>  <m_primary>  (18) 
energy

$$$$
18:0
     RDKit          3D

 52 54  0  0  0  0  0  0  0  0999 V2000
   63.7840   31.6720   48.9110 C   0  0  0  0  0  0  0  0  0  0  0  0
   63.3820   32.0360   47.4800 C   0  0  0  0  0  0  0  0  0  0  0  0
   62.7000   33.6810   47.4040 S   0  0  0  0  0  0  0  0  0  0  0  0
   61.9910   33.8250   46.0850 O   0  0  0  0  0  0  0  0  0  0  0  0
   63.7970   34.6980   47.5080 O   0  0  0  0  0  0  0  0  0  0  0  0
   61.5790   33.8900   48.7140 N   0  0  0  0  0  0  0  0  0  0  0  0
   60.5930   32.9320   49.1220 C   0  0  0  0  0  0  0  0  0  0  0  0
   59.8960   33.1600   50.3120 C   0  0  0  0  0  0  0  0  0  0  0  0
   58.9790   32.2170   50.7850 C   0  0  0  0  0  0  0  0  0  0  0  0
   58.7490   31.0360   50.0710 C   0  0  0  0  0  0  0  0  0  0  0  0
   57.8610   30.0940   50.5800 O   0  0  0  0  0  0  0  0  0  0  0  0
   59.4260   30.8090   48.8580 C   0  0  0  0  0  0  0  0  0  0  0  0
   59.2280   29.2800   47.9890 S   0  0  0  0  0  0  0  0  0  0  0  0
   60.4170   29.0430   47.0950 O   0  0  0  0  0  0  0  0  0  0  0  0
   59.1310   28.1500   48.9770 O   0  0  0  0  0  0  0  0  0  0  0  0
   57.7850   29.3300   47.0270 N   0  0  0  0  0  0  0  0  0  0  0  0
   57.6550   30.2260   45.9260 C   0  0  0  0  0  0  0  0  0  0  0  0
   58.2190   31.5070   45.9970 C   0  0  0  0  0  0  0  0  0  0  0  0
   58.1730   32.3740   44.8910 C   0  0  0  0  0  0  0  0  0  0  0  0
   58.8100   33.7190   44.9330 C   0  0  0  0  0  0  0  0  0  0  0  0
   58.8490   34.5410   46.1870 C   0  0  0  0  0  0  0  0  0  0  0  0
   59.3410   34.1930   43.8930 O   0  0  0  0  0  0  0  0  0  0  0  0
   57.5110   31.9470   43.7260 C   0  0  0  0  0  0  0  0  0  0  0  0
   56.9250   30.6790   43.6630 C   0  0  0  0  0  0  0  0  0  0  0  0
   57.0210   29.7990   44.7530 C   0  0  0  0  0  0  0  0  0  0  0  0
   56.4760   28.5060   44.7130 O   0  0  0  0  0  0  0  0  0  0  0  0
   57.0370   27.3590   45.2950 C   0  0  0  0  0  0  0  0  0  0  0  0
   58.4230   27.1080   45.2690 C   0  0  0  0  0  0  0  0  0  0  0  0
   58.9440   25.9700   45.8870 C   0  0  0  0  0  0  0  0  0  0  0  0
   58.0910   25.0780   46.5490 C   0  0  0  0  0  0  0  0  0  0  0  0
   56.7160   25.3290   46.5960 C   0  0  0  0  0  0  0  0  0  0  0  0
   56.1890   26.4660   45.9730 C   0  0  0  0  0  0  0  0  0  0  0  0
   54.8210   26.7100   46.0300 O   0  0  0  0  0  0  0  0  0  0  0  0
   60.3370   31.7660   48.3820 C   0  0  0  0  0  0  0  0  0  0  0  0
   63.1614   32.2357   49.6214 H   0  0  0  0  0  0  0  0  0  0  0  0
   63.6369   30.5936   49.0701 H   0  0  0  0  0  0  0  0  0  0  0  0
   64.8426   31.9251   49.0701 H   0  0  0  0  0  0  0  0  0  0  0  0
   64.2704   31.9851   46.8333 H   0  0  0  0  0  0  0  0  0  0  0  0
   62.6154   31.3239   47.1405 H   0  0  0  0  0  0  0  0  0  0  0  0
   60.0700   34.0863   50.8792 H   0  0  0  0  0  0  0  0  0  0  0  0
   58.4357   32.4043   51.7229 H   0  0  0  0  0  0  0  0  0  0  0  0
   58.7028   31.8377   46.9279 H   0  0  0  0  0  0  0  0  0  0  0  0
   58.8174   33.8759   47.0625 H   0  0  0  0  0  0  0  0  0  0  0  0
   59.7762   35.1324   46.2091 H   0  0  0  0  0  0  0  0  0  0  0  0
   57.9819   35.2176   46.2091 H   0  0  0  0  0  0  0  0  0  0  0  0
   57.4536   32.6172   42.8556 H   0  0  0  0  0  0  0  0  0  0  0  0
   56.3863   30.3694   42.7553 H   0  0  0  0  0  0  0  0  0  0  0  0
   59.0975   27.8118   44.7595 H   0  0  0  0  0  0  0  0  0  0  0  0
   60.0258   25.7736   45.8540 H   0  0  0  0  0  0  0  0  0  0  0  0
   58.5027   24.1796   47.0322 H   0  0  0  0  0  0  0  0  0  0  0  0
   56.0480   24.6320   47.1232 H   0  0  0  0  0  0  0  0  0  0  0  0
   60.8528   31.6015   47.4245 H   0  0  0  0  0  0  0  0  0  0  0  0
  1  2  1  0
  2  3  1  0
  3  4  2  0
  3  5  2  0
  3  6  1  0
  6  7  1  0
  7  8  2  0
  8  9  1  0
  9 10  2  0
 10 11  1  0
 10 12  1  0
 12 13  1  0
 13 14  2  0
 13 15  2  0
 13 16  1  0
 16 17  1  0
 17 18  2  0
 18 19  1  0
 19 20  1  0
 20 21  1  0
 20 22  2  0
 19 23  2  0
 23 24  1  0
 24 25  2  0
 25 26  1  0
 26 27  1  0
 27 28  2  0
 28 29  1  0
 29 30  2  0
 30 31  1  0
 31 32  2  0
 32 33  1  0
 12 34  2  0
 34  7  1  0
 25 17  1  0
 32 27  1  0
  1 35  1  0
  1 36  1  0
  1 37  1  0
  2 38  1  0
  2 39  1  0
  8 40  1  0
  9 41  1  0
 18 42  1  0
 21 43  1  0
 21 44  1  0
 21 45  1  0
 23 46  1  0
 24 47  1  0
 28 48  1  0
 29 49  1  0
 30 50  1  0
 31 51  1  0
 34 52  1  0
M  CHG  4   6  -1  11  -1  16  -1  33  -1
M  END
>  <UniqueID>  (19) 
19

>  <SMILES>  (19) 
CCS(=O)(=O)[N-]c1ccc([O-])c(S(=O)(=O)[N-]c2cc(C(C)=O)ccc2Oc2ccccc2[O-])c1

>  <Energy>  (19) 
65.55699793857322

>  <Genealogy>  (19) 
CCS(=O)(=O)[N-]c1ccc([O-])c(S(=O)(=O)[N-]c2cc(C(C)=O)ccc2Oc2ccccc2[O-])c1 (protonated)
CCS(=O)(=O)[N-]c1ccc([O-])c(S(=O)(=O)[N-]c2cc(C(C)=O)ccc2Oc2ccccc2[O-])c1 (3D coordinates assigned)
CCS(=O)(=O)[N-]c1ccc([O-])c(S(=O)(=O)[N-]c2cc(C(C)=O)ccc2Oc2ccccc2[O-])c1 (optimized conformer: 65.55699793857322 kcal/mol)

>  <smiles>  (19) 
CCS(=O)(=O)Nc1ccc(O)c(S(=O)(=O)Nc2cc(C(C)=O)ccc2Oc2ccccc2O)c1

>  <score_type>  (19) 
oracle

>  <origin>  (19) 
adg

>  <m_score__min__energy>  (19) 
-15.869999999999999

>  <m_primary>  (19) 
energy

$$$$
19:0
     RDKit          3D

 49 52  0  0  0  0  0  0  0  0999 V2000
   64.8410   32.4900   49.8860 C   0  0  0  0  0  0  0  0  0  0  0  0
   63.8800   32.6560   48.7590 C   0  0  0  0  0  0  0  0  0  0  0  0
   63.4120   33.8530   48.2580 C   0  0  0  0  0  0  0  0  0  0  0  0
   62.5850   33.4490   47.2260 C   0  0  0  0  0  0  0  0  0  0  0  0
   61.8980   34.2150   46.4350 N   0  0  0  0  0  0  0  0  0  0  0  0
   60.2740   34.7410   46.7490 S   0  0  0  0  0  0  0  0  0  0  0  0
   60.0260   36.0660   46.0830 O   0  0  0  0  0  0  0  0  0  0  0  0
   60.0770   34.8700   48.2340 O   0  0  0  0  0  0  0  0  0  0  0  0
   59.1440   33.5550   46.1060 C   0  0  0  0  0  0  0  0  0  0  0  0
   58.6760   32.5120   46.9140 C   0  0  0  0  0  0  0  0  0  0  0  0
   57.7710   31.5760   46.4040 C   0  0  0  0  0  0  0  0  0  0  0  0
   57.3320   31.6700   45.0720 C   0  0  0  0  0  0  0  0  0  0  0  0
   56.3870   30.7430   44.5170 N   0  0  0  0  0  0  0  0  0  0  0  0
   56.6970   29.5690   43.7600 C   0  0  0  0  0  0  0  0  0  0  0  0
   56.2300   29.4540   42.5970 O   0  0  0  0  0  0  0  0  0  0  0  0
   57.5280   28.5420   44.3170 N   0  0  0  0  0  0  0  0  0  0  0  0
   58.3350   28.6330   45.5000 C   0  0  0  0  0  0  0  0  0  0  0  0
   59.6160   29.2100   45.4880 C   0  0  0  0  0  0  0  0  0  0  0  0
   60.3610   29.2990   46.6680 C   0  0  0  0  0  0  0  0  0  0  0  0
   59.8340   28.8260   47.8830 C   0  0  0  0  0  0  0  0  0  0  0  0
   60.6250   28.9200   49.1370 C   0  0  0  0  0  0  0  0  0  0  0  0
   60.7610   27.8030   49.9840 C   0  0  0  0  0  0  0  0  0  0  0  0
   61.5070   27.8940   51.1630 C   0  0  0  0  0  0  0  0  0  0  0  0
   62.1230   29.0980   51.5110 C   0  0  0  0  0  0  0  0  0  0  0  0
   61.9950   30.2130   50.6800 C   0  0  0  0  0  0  0  0  0  0  0  0
   61.2520   30.1280   49.4990 C   0  0  0  0  0  0  0  0  0  0  0  0
   58.5430   28.2710   47.8920 C   0  0  0  0  0  0  0  0  0  0  0  0
   57.7990   28.1840   46.7130 C   0  0  0  0  0  0  0  0  0  0  0  0
   57.7750   32.7350   44.2780 C   0  0  0  0  0  0  0  0  0  0  0  0
   58.6810   33.6700   44.7880 C   0  0  0  0  0  0  0  0  0  0  0  0
   62.5750   32.1070   47.1300 N   0  0  0  0  0  0  0  0  0  0  0  0
   63.3660   31.6650   48.0650 O   0  0  0  0  0  0  0  0  0  0  0  0
   64.3046   32.5826   50.8419 H   0  0  0  0  0  0  0  0  0  0  0  0
   65.3110   31.4974   49.8240 H   0  0  0  0  0  0  0  0  0  0  0  0
   65.6167   33.2675   49.8240 H   0  0  0  0  0  0  0  0  0  0  0  0
   63.6400   34.8748   48.5955 H   0  0  0  0  0  0  0  0  0  0  0  0
   59.0218   32.4284   47.9549 H   0  0  0  0  0  0  0  0  0  0  0  0
   57.4015   30.7637   47.0471 H   0  0  0  0  0  0  0  0  0  0  0  0
   60.0348   29.5935   44.5459 H   0  0  0  0  0  0  0  0  0  0  0  0
   61.3674   29.7426   46.6457 H   0  0  0  0  0  0  0  0  0  0  0  0
   60.2769   26.8523   49.7161 H   0  0  0  0  0  0  0  0  0  0  0  0
   61.6089   27.0158   51.8175 H   0  0  0  0  0  0  0  0  0  0  0  0
   62.7088   29.1681   52.4394 H   0  0  0  0  0  0  0  0  0  0  0  0
   62.4803   31.1609   50.9556 H   0  0  0  0  0  0  0  0  0  0  0  0
   61.1565   31.0099   48.8485 H   0  0  0  0  0  0  0  0  0  0  0  0
   58.1147   27.9019   48.8356 H   0  0  0  0  0  0  0  0  0  0  0  0
   56.7845   27.7596   46.7377 H   0  0  0  0  0  0  0  0  0  0  0  0
   57.4078   32.8367   43.2461 H   0  0  0  0  0  0  0  0  0  0  0  0
   59.0311   34.4976   44.1535 H   0  0  0  0  0  0  0  0  0  0  0  0
  1  2  1  0
  2  3  2  0
  3  4  1  0
  4  5  2  3
  5  6  1  0
  6  7  2  0
  6  8  2  0
  6  9  1  0
  9 10  2  0
 10 11  1  0
 11 12  2  0
 12 13  1  0
 13 14  1  0
 14 15  2  0
 14 16  1  0
 16 17  1  0
 17 18  2  0
 18 19  1  0
 19 20  2  0
 20 21  1  0
 21 22  2  0
 22 23  1  0
 23 24  2  0
 24 25  1  0
 25 26  2  0
 20 27  1  0
 27 28  2  0
 12 29  1  0
 29 30  2  0
  4 31  1  0
 31 32  1  0
 32  2  1  0
 30  9  1  0
 28 17  1  0
 26 21  1  0
  1 33  1  0
  1 34  1  0
  1 35  1  0
  3 36  1  0
 10 37  1  0
 11 38  1  0
 18 39  1  0
 19 40  1  0
 22 41  1  0
 23 42  1  0
 24 43  1  0
 25 44  1  0
 26 45  1  0
 27 46  1  0
 28 47  1  0
 29 48  1  0
 30 49  1  0
M  CHG  3  13  -1  16  -1  31  -1
M  END
>  <UniqueID>  (20) 
20

>  <SMILES>  (20) 
Cc1cc(=NS(=O)(=O)c2ccc([N-]C(=O)[N-]c3ccc(-c4ccccc4)cc3)cc2)[n-]o1

>  <Energy>  (20) 
99.93209435562908

>  <Genealogy>  (20) 
Cc1cc(=NS(=O)(=O)c2ccc([N-]C(=O)[N-]c3ccc(-c4ccccc4)cc3)cc2)[n-]o1 (protonated)
Cc1cc(=NS(=O)(=O)c2ccc([N-]C(=O)[N-]c3ccc(-c4ccccc4)cc3)cc2)[n-]o1 (3D coordinates assigned)
Cc1cc(=NS(=O)(=O)c2ccc([N-]C(=O)[N-]c3ccc(-c4ccccc4)cc3)cc2)[n-]o1 (optimized conformer: 99.93209435562908 kcal/mol)

>  <smiles>  (20) 
Cc1cc(=NS(=O)(=O)c2ccc(NC(=O)Nc3ccc(-c4ccccc4)cc3)cc2)[nH]o1

>  <score_type>  (20) 
oracle

>  <origin>  (20) 
adg

>  <m_score__min__energy>  (20) 
-14.119999999999999

>  <m_primary>  (20) 
energy

$$$$
20:0
     RDKit          3D

 39 41  0  0  0  0  0  0  0  0999 V2000
   56.5570   31.2440   44.8690 O   0  0  0  0  0  0  0  0  0  0  0  0
   57.7460   31.3130   45.2830 C   0  0  0  0  0  0  0  0  0  0  0  0
   58.5620   30.1340   45.3250 N   0  0  0  0  0  0  0  0  0  0  0  0
   58.1780   28.8440   45.8230 C   0  0  0  0  0  0  0  0  0  0  0  0
   57.0220   28.2440   45.3110 C   0  0  0  0  0  0  0  0  0  0  0  0
   56.6210   26.9800   45.7540 C   0  0  0  0  0  0  0  0  0  0  0  0
   57.3830   26.2840   46.7080 C   0  0  0  0  0  0  0  0  0  0  0  0
   56.9580   24.9440   47.1780 C   0  0  0  0  0  0  0  0  0  0  0  0
   57.3840   24.4980   48.2790 O   0  0  0  0  0  0  0  0  0  0  0  0
   56.0250   24.1740   46.4090 N   0  0  0  0  0  0  0  0  0  0  0  0
   56.3690   23.2500   45.3670 C   0  0  0  0  0  0  0  0  0  0  0  0
   55.9600   23.5350   44.0570 C   0  0  0  0  0  0  0  0  0  0  0  0
   56.2780   22.6670   43.0100 C   0  0  0  0  0  0  0  0  0  0  0  0
   57.0230   21.5130   43.2610 C   0  0  0  0  0  0  0  0  0  0  0  0
   57.4650   21.2340   44.5560 C   0  0  0  0  0  0  0  0  0  0  0  0
   57.1570   22.1050   45.6130 C   0  0  0  0  0  0  0  0  0  0  0  0
   57.6590   21.8500   46.8870 O   0  0  0  0  0  0  0  0  0  0  0  0
   58.5590   26.8780   47.2030 C   0  0  0  0  0  0  0  0  0  0  0  0
   58.9560   28.1430   46.7600 C   0  0  0  0  0  0  0  0  0  0  0  0
   58.3180   32.6230   45.6740 C   0  0  0  0  0  0  0  0  0  0  0  0
   58.5870   32.9110   47.0260 C   0  0  0  0  0  0  0  0  0  0  0  0
   59.1280   34.1460   47.3930 C   0  0  0  0  0  0  0  0  0  0  0  0
   59.4080   35.1070   46.4190 C   0  0  0  0  0  0  0  0  0  0  0  0
   59.1460   34.8340   45.0750 C   0  0  0  0  0  0  0  0  0  0  0  0
   58.6050   33.6000   44.7010 C   0  0  0  0  0  0  0  0  0  0  0  0
   56.4237   28.7714   44.5535 H   0  0  0  0  0  0  0  0  0  0  0  0
   55.7024   26.5270   45.3529 H   0  0  0  0  0  0  0  0  0  0  0  0
   55.3841   24.4495   43.8519 H   0  0  0  0  0  0  0  0  0  0  0  0
   55.9414   22.8926   41.9873 H   0  0  0  0  0  0  0  0  0  0  0  0
   57.2619   20.8232   42.4381 H   0  0  0  0  0  0  0  0  0  0  0  0
   58.0574   20.3274   44.7487 H   0  0  0  0  0  0  0  0  0  0  0  0
   57.7620   22.5860   47.5760 H   0  0  0  0  0  0  0  0  0  0  0  0
   59.1705   26.3426   47.9443 H   0  0  0  0  0  0  0  0  0  0  0  0
   59.8825   28.5922   47.1470 H   0  0  0  0  0  0  0  0  0  0  0  0
   58.3698   32.1586   47.7985 H   0  0  0  0  0  0  0  0  0  0  0  0
   59.3339   34.3619   48.4518 H   0  0  0  0  0  0  0  0  0  0  0  0
   59.8346   36.0781   46.7105 H   0  0  0  0  0  0  0  0  0  0  0  0
   59.3657   35.5916   44.3084 H   0  0  0  0  0  0  0  0  0  0  0  0
   58.4023   33.3910   43.6402 H   0  0  0  0  0  0  0  0  0  0  0  0
  1  2  2  0
  2  3  1  0
  3  4  1  0
  4  5  2  0
  5  6  1  0
  6  7  2  0
  7  8  1  0
  8  9  2  0
  8 10  1  0
 10 11  1  0
 11 12  2  0
 12 13  1  0
 13 14  2  0
 14 15  1  0
 15 16  2  0
 16 17  1  0
  7 18  1  0
 18 19  2  0
  2 20  1  0
 20 21  2  0
 21 22  1  0
 22 23  2  0
 23 24  1  0
 24 25  2  0
 19  4  1  0
 25 20  1  0
 16 11  1  0
  5 26  1  0
  6 27  1  0
 12 28  1  0
 13 29  1  0
 14 30  1  0
 15 31  1  0
 17 32  1  0
 18 33  1  0
 19 34  1  0
 21 35  1  0
 22 36  1  0
 23 37  1  0
 24 38  1  0
 25 39  1  0
M  CHG  2   3  -1  10  -1
M  END
>  <UniqueID>  (21) 
21

>  <SMILES>  (21) 
O=C([N-]c1ccc(C(=O)[N-]c2ccccc2O)cc1)c1ccccc1

>  <Energy>  (21) 
52.509904144609244

>  <Genealogy>  (21) 
O=C([N-]c1ccc(C(=O)[N-]c2ccccc2O)cc1)c1ccccc1 (protonated)
O=C([N-]c1ccc(C(=O)[N-]c2ccccc2O)cc1)c1ccccc1 (3D coordinates assigned)
O=C([N-]c1ccc(C(=O)[N-]c2ccccc2O)cc1)c1ccccc1 (optimized conformer: 52.509904144609244 kcal/mol)

>  <smiles>  (21) 
O=C(Nc1ccc(C(=O)Nc2ccccc2O)cc1)c1ccccc1

>  <score_type>  (21) 
oracle

>  <origin>  (21) 
adg

>  <m_score__min__energy>  (21) 
-12.67

>  <m_primary>  (21) 
energy

$$$$
21:0
     RDKit          3D

 39 41  0  0  0  0  0  0  0  0999 V2000
   59.5950   26.6400   48.0060 O   0  0  0  0  0  0  0  0  0  0  0  0
   58.8360   27.2000   47.1680 C   0  0  0  0  0  0  0  0  0  0  0  0
   59.1610   28.5050   46.6600 N   0  0  0  0  0  0  0  0  0  0  0  0
   60.0870   29.4030   47.2960 C   0  0  0  0  0  0  0  0  0  0  0  0
   60.8900   30.2380   46.5030 C   0  0  0  0  0  0  0  0  0  0  0  0
   61.7820   31.1350   47.0970 C   0  0  0  0  0  0  0  0  0  0  0  0
   61.8660   31.2230   48.4920 C   0  0  0  0  0  0  0  0  0  0  0  0
   62.9690   32.3630   49.2470 S   0  0  0  0  0  0  0  0  0  0  0  0
   64.5700   32.0500   48.8410 O   0  0  0  0  0  0  0  0  0  0  0  0
   62.5170   34.0730   49.0080 C   0  0  0  0  0  0  0  0  0  0  0  0
   61.3110   34.1840   48.1190 C   0  0  0  0  0  0  0  0  0  0  0  0
   60.0200   34.2090   48.6730 C   0  0  0  0  0  0  0  0  0  0  0  0
   58.8980   34.2640   47.8420 C   0  0  0  0  0  0  0  0  0  0  0  0
   59.0540   34.2920   46.4530 C   0  0  0  0  0  0  0  0  0  0  0  0
   57.9650   34.3420   45.6490 F   0  0  0  0  0  0  0  0  0  0  0  0
   60.3350   34.2640   45.8940 C   0  0  0  0  0  0  0  0  0  0  0  0
   61.4610   34.2080   46.7220 C   0  0  0  0  0  0  0  0  0  0  0  0
   61.0580   30.4070   49.2890 C   0  0  0  0  0  0  0  0  0  0  0  0
   60.1670   29.5060   48.6970 C   0  0  0  0  0  0  0  0  0  0  0  0
   57.6450   26.4770   46.6910 C   0  0  0  0  0  0  0  0  0  0  0  0
   57.5620   25.1160   46.4400 C   0  0  0  0  0  0  0  0  0  0  0  0
   56.2790   24.8820   46.0000 C   0  0  0  0  0  0  0  0  0  0  0  0
   55.6550   26.1090   46.0040 C   0  0  0  0  0  0  0  0  0  0  0  0
   54.3380   26.3250   45.6230 O   0  0  0  0  0  0  0  0  0  0  0  0
   56.4740   27.0910   46.4200 N   0  0  0  0  0  0  0  0  0  0  0  0
   58.7820   28.7790   45.7270 H   0  0  0  0  0  0  0  0  0  0  0  0
   60.8166   30.1859   45.4067 H   0  0  0  0  0  0  0  0  0  0  0  0
   62.4194   31.7732   46.4674 H   0  0  0  0  0  0  0  0  0  0  0  0
   64.6180   32.1830   47.8610 H   0  0  0  0  0  0  0  0  0  0  0  0
   62.2891   34.5261   49.9841 H   0  0  0  0  0  0  0  0  0  0  0  0
   63.3578   34.5978   48.5308 H   0  0  0  0  0  0  0  0  0  0  0  0
   59.8921   34.1852   49.7653 H   0  0  0  0  0  0  0  0  0  0  0  0
   57.8899   34.2853   48.2816 H   0  0  0  0  0  0  0  0  0  0  0  0
   60.4577   34.2860   44.8011 H   0  0  0  0  0  0  0  0  0  0  0  0
   62.4672   34.1827   46.2781 H   0  0  0  0  0  0  0  0  0  0  0  0
   61.1231   30.4737   50.3850 H   0  0  0  0  0  0  0  0  0  0  0  0
   59.5257   28.8748   49.3297 H   0  0  0  0  0  0  0  0  0  0  0  0
   58.3619   24.3717   46.5671 H   0  0  0  0  0  0  0  0  0  0  0  0
   55.8430   23.9157   45.7063 H   0  0  0  0  0  0  0  0  0  0  0  0
  1  2  2  0
  2  3  1  0
  3  4  1  0
  4  5  2  0
  5  6  1  0
  6  7  2  0
  7  8  1  0
  8  9  1  6
  8 10  1  0
 10 11  1  0
 11 12  2  0
 12 13  1  0
 13 14  2  0
 14 15  1  0
 14 16  1  0
 16 17  2  0
  7 18  1  0
 18 19  2  0
  2 20  1  0
 20 21  2  0
 21 22  1  0
 22 23  2  0
 23 24  1  0
 23 25  1  0
 19  4  1  0
 25 20  1  0
 17 11  1  0
  3 26  1  0
  5 27  1  0
  6 28  1  0
  9 29  1  0
 10 30  1  0
 10 31  1  0
 12 32  1  0
 13 33  1  0
 16 34  1  0
 17 35  1  0
 18 36  1  0
 19 37  1  0
 21 38  1  0
 22 39  1  0
M  CHG  3   8   1  24  -1  25  -1
M  END
>  <UniqueID>  (22) 
22

>  <SMILES>  (22) 
O=C(Nc1ccc([S@@+](O)Cc2ccc(F)cc2)cc1)c1ccc([O-])[n-]1

>  <Energy>  (22) 
63.74864381725406

>  <Genealogy>  (22) 
O=C(Nc1ccc([S+](O)Cc2ccc(F)cc2)cc1)c1ccc([O-])[n-]1 (protonated)
O=C(Nc1ccc([S@@+](O)Cc2ccc(F)cc2)cc1)c1ccc([O-])[n-]1 (chirality)
O=C(Nc1ccc([S@@+](O)Cc2ccc(F)cc2)cc1)c1ccc([O-])[n-]1 (3D coordinates assigned)
O=C(Nc1ccc([S@@+](O)Cc2ccc(F)cc2)cc1)c1ccc([O-])[n-]1 (optimized conformer: 63.74864381725406 kcal/mol)

>  <smiles>  (22) 
O=C(Nc1ccc([S+]([O-])Cc2ccc(F)cc2)cc1)c1ccc(O)[nH]1

>  <score_type>  (22) 
oracle

>  <origin>  (22) 
adg

>  <m_score__min__energy>  (22) 
-11.4

>  <m_primary>  (22) 
energy

$$$$
22:0
     RDKit          3D

 43 45  0  0  0  0  0  0  0  0999 V2000
   55.5520   20.8910   44.5740 N   0  0  0  0  0  0  0  0  0  0  0  0
   56.4000   21.9270   43.4810 S   0  0  0  0  0  0  0  0  0  0  0  0
   55.5770   22.1290   42.2390 O   0  0  0  0  0  0  0  0  0  0  0  0
   57.7040   21.2870   43.0960 O   0  0  0  0  0  0  0  0  0  0  0  0
   56.7030   23.4780   44.2560 C   0  0  0  0  0  0  0  0  0  0  0  0
   57.3760   24.4930   43.5640 C   0  0  0  0  0  0  0  0  0  0  0  0
   57.6100   25.7270   44.1770 C   0  0  0  0  0  0  0  0  0  0  0  0
   57.1800   25.9610   45.4940 C   0  0  0  0  0  0  0  0  0  0  0  0
   57.4220   27.2670   46.1490 C   0  0  0  0  0  0  0  0  0  0  0  0
   57.9850   27.2990   47.2760 O   0  0  0  0  0  0  0  0  0  0  0  0
   56.9890   28.5010   45.5640 N   0  0  0  0  0  0  0  0  0  0  0  0
   57.6570   29.7620   45.7050 C   0  0  0  0  0  0  0  0  0  0  0  0
   58.4930   30.2740   47.0650 S   0  0  0  0  0  0  0  0  0  0  0  0
   58.9210   31.7790   46.4530 C   0  0  0  0  0  0  0  0  0  0  0  0
   58.4020   31.9170   45.1520 C   0  0  0  0  0  0  0  0  0  0  0  0
   57.6640   30.7730   44.7450 C   0  0  0  0  0  0  0  0  0  0  0  0
   56.9480   30.6450   43.4560 C   0  0  0  0  0  0  0  0  0  0  0  0
   56.2590   29.4380   43.1230 N   0  0  0  0  0  0  0  0  0  0  0  0
   56.9480   31.5970   42.6320 O   0  0  0  0  0  0  0  0  0  0  0  0
   58.5260   33.1580   44.2800 C   0  0  0  0  0  0  0  0  0  0  0  0
   58.0550   34.4910   44.8910 C   0  0  0  0  0  0  0  0  0  0  0  0
   58.9830   34.9920   46.0090 C   0  0  0  0  0  0  0  0  0  0  0  0
   58.8890   34.1610   47.3030 C   0  0  0  0  0  0  0  0  0  0  0  0
   59.6290   32.8160   47.2690 C   0  0  0  0  0  0  0  0  0  0  0  0
   56.4830   24.9490   46.1750 C   0  0  0  0  0  0  0  0  0  0  0  0
   56.2490   23.7150   45.5600 C   0  0  0  0  0  0  0  0  0  0  0  0
   55.2230   20.0680   44.0200 H   0  0  0  0  0  0  0  0  0  0  0  0
   57.7216   24.3182   42.5344 H   0  0  0  0  0  0  0  0  0  0  0  0
   58.1345   26.5206   43.6246 H   0  0  0  0  0  0  0  0  0  0  0  0
   55.7970   29.3370   42.1930 H   0  0  0  0  0  0  0  0  0  0  0  0
   56.1550   28.6680   43.8200 H   0  0  0  0  0  0  0  0  0  0  0  0
   59.5871   33.2716   44.0133 H   0  0  0  0  0  0  0  0  0  0  0  0
   57.8512   32.9788   43.4300 H   0  0  0  0  0  0  0  0  0  0  0  0
   58.0207   35.2500   44.0956 H   0  0  0  0  0  0  0  0  0  0  0  0
   57.0627   34.3210   45.3342 H   0  0  0  0  0  0  0  0  0  0  0  0
   60.0201   34.9530   45.6445 H   0  0  0  0  0  0  0  0  0  0  0  0
   58.6670   36.0158   46.2578 H   0  0  0  0  0  0  0  0  0  0  0  0
   59.3092   34.7604   48.1241 H   0  0  0  0  0  0  0  0  0  0  0  0
   57.8238   33.9211   47.4361 H   0  0  0  0  0  0  0  0  0  0  0  0
   60.6291   32.9769   46.8401 H   0  0  0  0  0  0  0  0  0  0  0  0
   59.6806   32.4427   48.3024 H   0  0  0  0  0  0  0  0  0  0  0  0
   56.1193   25.1282   47.1976 H   0  0  0  0  0  0  0  0  0  0  0  0
   55.7061   22.9270   46.1025 H   0  0  0  0  0  0  0  0  0  0  0  0
  1  2  1  0
  2  3  2  0
  2  4  2  0
  2  5  1  0
  5  6  2  0
  6  7  1  0
  7  8  2  0
  8  9  1  0
  9 10  2  0
  9 11  1  0
 11 12  1  0
 12 13  1  0
 13 14  1  0
 14 15  2  0
 15 16  1  0
 16 17  1  0
 17 18  1  0
 17 19  2  0
 15 20  1  0
 20 21  1  0
 21 22  1  0
 22 23  1  0
 23 24  1  0
  8 25  1  0
 25 26  2  0
 26  5  1  0
 16 12  2  0
 24 14  1  0
  1 27  1  0
  6 28  1  0
  7 29  1  0
 18 30  1  0
 18 31  1  0
 20 32  1  0
 20 33  1  0
 21 34  1  0
 21 35  1  0
 22 36  1  0
 22 37  1  0
 23 38  1  0
 23 39  1  0
 24 40  1  0
 24 41  1  0
 25 42  1  0
 26 43  1  0
M  CHG  2   1  -1  11  -1
M  END
>  <UniqueID>  (23) 
23

>  <SMILES>  (23) 
[NH-]S(=O)(=O)c1ccc(C(=O)[N-]c2sc3c(c2C(N)=O)CCCCC3)cc1

>  <Energy>  (23) 
85.70374244752702

>  <Genealogy>  (23) 
[NH-]S(=O)(=O)c1ccc(C(=O)[N-]c2sc3c(c2C(N)=O)CCCCC3)cc1 (protonated)
[NH-]S(=O)(=O)c1ccc(C(=O)[N-]c2sc3c(c2C(N)=O)CCCCC3)cc1 (3D coordinates assigned)
[NH-]S(=O)(=O)c1ccc(C(=O)[N-]c2sc3c(c2C(N)=O)CCCCC3)cc1 (nonaromatic ring conformer: 85.70374244752702 kcal/mol)

>  <smiles>  (23) 
NC(=O)c1c(NC(=O)c2ccc(S(N)(=O)=O)cc2)sc2c1CCCCC2

>  <score_type>  (23) 
oracle

>  <origin>  (23) 
adg

>  <m_score__min__energy>  (23) 
-10.58

>  <m_primary>  (23) 
energy

$$$$
23:0
     RDKit          3D

 71 75  0  0  0  0  0  0  0  0999 V2000
   60.8120   26.3420   48.2500 O   0  0  0  0  0  0  0  0  0  0  0  0
   60.0030   27.2920   48.4240 C   0  0  0  0  0  0  0  0  0  0  0  0
   58.7070   27.2510   47.8130 N   0  0  0  0  0  0  0  0  0  0  0  0
   58.4400   27.6510   46.4660 C   0  0  0  0  0  0  0  0  0  0  0  0
   58.1760   29.0030   46.2190 C   0  0  0  0  0  0  0  0  0  0  0  0
   57.8350   29.4390   44.9330 C   0  0  0  0  0  0  0  0  0  0  0  0
   57.3940   31.1240   44.6570 S   0  0  0  0  0  0  0  0  0  0  0  0
   58.0250   31.5990   43.3770 O   0  0  0  0  0  0  0  0  0  0  0  0
   55.8990   31.2170   44.5160 O   0  0  0  0  0  0  0  0  0  0  0  0
   57.9270   32.1010   46.0150 N   0  0  0  0  0  0  0  0  0  0  0  0
   57.0320   33.2610   46.2320 C   0  0  0  0  0  0  0  0  0  0  0  0
   57.1990   34.3580   45.1630 C   0  0  0  0  0  0  0  0  0  0  0  0
   58.6610   34.5690   44.7300 C   0  0  0  0  0  0  0  0  0  0  0  0
   59.6410   33.9660   45.7310 C   0  0  0  0  0  0  0  0  0  0  0  0
   59.3730   32.4600   45.9140 C   0  0  0  0  0  0  0  0  0  0  0  0
   57.7950   28.5180   43.8790 C   0  0  0  0  0  0  0  0  0  0  0  0
   58.1140   27.1750   44.1050 C   0  0  0  0  0  0  0  0  0  0  0  0
   58.4460   26.7340   45.3950 C   0  0  0  0  0  0  0  0  0  0  0  0
   58.9230   25.0150   45.6250 S   0  0  0  0  0  0  0  0  0  0  0  0
   57.3480   24.3930   45.0310 C   0  0  0  0  0  0  0  0  0  0  0  0
   57.2980   23.6030   43.8770 C   0  0  0  0  0  0  0  0  0  0  0  0
   56.0720   23.1140   43.4140 C   0  0  0  0  0  0  0  0  0  0  0  0
   54.8920   23.4120   44.1040 C   0  0  0  0  0  0  0  0  0  0  0  0
   54.9390   24.2050   45.2540 C   0  0  0  0  0  0  0  0  0  0  0  0
   56.1630   24.7020   45.7140 C   0  0  0  0  0  0  0  0  0  0  0  0
   60.3550   28.4020   49.3370 C   0  0  0  0  0  0  0  0  0  0  0  0
   60.7980   28.1400   50.6450 C   0  0  0  0  0  0  0  0  0  0  0  0
   61.0040   29.1910   51.5430 C   0  0  0  0  0  0  0  0  0  0  0  0
   60.7530   30.5080   51.1540 C   0  0  0  0  0  0  0  0  0  0  0  0
   60.3250   30.7880   49.8510 C   0  0  0  0  0  0  0  0  0  0  0  0
   59.8890   32.4390   49.3890 S   0  0  0  0  0  0  0  0  0  0  0  0
   59.7130   33.2690   50.6300 O   0  0  0  0  0  0  0  0  0  0  0  0
   58.5780   32.4210   48.6540 O   0  0  0  0  0  0  0  0  0  0  0  0
   61.1050   33.1610   48.3520 N   0  0  0  0  0  0  0  0  0  0  0  0
   61.9810   32.1220   47.7800 C   0  0  0  0  0  0  0  0  0  0  0  0
   63.2940   32.7440   47.2670 C   0  0  0  0  0  0  0  0  0  0  0  0
   64.0570   33.4070   48.2690 O   0  0  0  0  0  0  0  0  0  0  0  0
   63.2910   33.8170   49.3940 C   0  0  0  0  0  0  0  0  0  0  0  0
   61.8550   34.2410   49.0320 C   0  0  0  0  0  0  0  0  0  0  0  0
   60.1630   29.7380   48.9390 C   0  0  0  0  0  0  0  0  0  0  0  0
   58.2370   29.7296   47.0426 H   0  0  0  0  0  0  0  0  0  0  0  0
   57.8160   31.4830   46.8530 H   0  0  0  0  0  0  0  0  0  0  0  0
   55.9902   32.9085   46.2128 H   0  0  0  0  0  0  0  0  0  0  0  0
   57.2974   33.7045   47.2030 H   0  0  0  0  0  0  0  0  0  0  0  0
   56.6101   34.0755   44.2779 H   0  0  0  0  0  0  0  0  0  0  0  0
   56.8517   35.3021   45.6081 H   0  0  0  0  0  0  0  0  0  0  0  0
   58.8145   34.0927   43.7504 H   0  0  0  0  0  0  0  0  0  0  0  0
   58.8490   35.6515   44.6772 H   0  0  0  0  0  0  0  0  0  0  0  0
   60.6675   34.1081   45.3621 H   0  0  0  0  0  0  0  0  0  0  0  0
   59.5114   34.4692   46.7006 H   0  0  0  0  0  0  0  0  0  0  0  0
   59.8010   31.9267   45.0524 H   0  0  0  0  0  0  0  0  0  0  0  0
   59.8367   32.1713   46.8688 H   0  0  0  0  0  0  0  0  0  0  0  0
   57.5117   28.8518   42.8699 H   0  0  0  0  0  0  0  0  0  0  0  0
   58.1046   26.4615   43.2678 H   0  0  0  0  0  0  0  0  0  0  0  0
   58.2243   23.3662   43.3331 H   0  0  0  0  0  0  0  0  0  0  0  0
   56.0356   22.4942   42.5060 H   0  0  0  0  0  0  0  0  0  0  0  0
   53.9289   23.0229   43.7421 H   0  0  0  0  0  0  0  0  0  0  0  0
   54.0120   24.4386   45.7982 H   0  0  0  0  0  0  0  0  0  0  0  0
   56.1959   25.3359   46.6124 H   0  0  0  0  0  0  0  0  0  0  0  0
   60.9833   27.1035   50.9632 H   0  0  0  0  0  0  0  0  0  0  0  0
   61.3653   28.9796   52.5602 H   0  0  0  0  0  0  0  0  0  0  0  0
   60.8920   31.3282   51.8736 H   0  0  0  0  0  0  0  0  0  0  0  0
   62.2124   31.3768   48.5553 H   0  0  0  0  0  0  0  0  0  0  0  0
   61.4612   31.6438   46.9367 H   0  0  0  0  0  0  0  0  0  0  0  0
   63.9116   31.9410   46.8383 H   0  0  0  0  0  0  0  0  0  0  0  0
   63.0134   33.5078   46.5268 H   0  0  0  0  0  0  0  0  0  0  0  0
   63.2389   32.9792   50.1049 H   0  0  0  0  0  0  0  0  0  0  0  0
   63.7912   34.6965   49.8255 H   0  0  0  0  0  0  0  0  0  0  0  0
   61.3232   34.5137   49.9555 H   0  0  0  0  0  0  0  0  0  0  0  0
   61.9201   35.0931   48.3394 H   0  0  0  0  0  0  0  0  0  0  0  0
   59.8823   29.9601   47.8989 H   0  0  0  0  0  0  0  0  0  0  0  0
  1  2  2  0
  2  3  1  0
  3  4  1  0
  4  5  2  0
  5  6  1  0
  6  7  1  0
  7  8  2  0
  7  9  2  0
  7 10  1  0
 10 11  1  0
 11 12  1  0
 12 13  1  0
 13 14  1  0
 14 15  1  0
  6 16  2  0
 16 17  1  0
 17 18  2  0
 18 19  1  0
 19 20  1  0
 20 21  2  0
 21 22  1  0
 22 23  2  0
 23 24  1  0
 24 25  2  0
  2 26  1  0
 26 27  2  0
 27 28  1  0
 28 29  2  0
 29 30  1  0
 30 31  1  0
 31 32  2  0
 31 33  2  0
 31 34  1  0
 34 35  1  0
 35 36  1  0
 36 37  1  0
 37 38  1  0
 38 39  1  0
 30 40  2  0
 18  4  1  0
 25 20  1  0
 40 26  1  0
 15 10  1  0
 39 34  1  0
  5 41  1  0
 10 42  1  0
 11 43  1  0
 11 44  1  0
 12 45  1  0
 12 46  1  0
 13 47  1  0
 13 48  1  0
 14 49  1  0
 14 50  1  0
 15 51  1  0
 15 52  1  0
 16 53  1  0
 17 54  1  0
 21 55  1  0
 22 56  1  0
 23 57  1  0
 24 58  1  0
 25 59  1  0
 27 60  1  0
 28 61  1  0
 29 62  1  0
 35 63  1  0
 35 64  1  0
 36 65  1  0
 36 66  1  0
 38 67  1  0
 38 68  1  0
 39 69  1  0
 39 70  1  0
 40 71  1  0
M  CHG  2   3  -1  10   1
M  END
>  <UniqueID>  (24) 
24

>  <SMILES>  (24) 
O=C([N-]c1cc(S(=O)(=O)[NH+]2CCCCC2)ccc1Sc1ccccc1)c1cccc(S(=O)(=O)N2CCOCC2)c1

>  <Energy>  (24) 
97.61202826095862

>  <Genealogy>  (24) 
O=C([N-]c1cc(S(=O)(=O)[NH+]2CCCCC2)ccc1Sc1ccccc1)c1cccc(S(=O)(=O)N2CCOCC2)c1 (protonated)
O=C([N-]c1cc(S(=O)(=O)[NH+]2CCCCC2)ccc1Sc1ccccc1)c1cccc(S(=O)(=O)N2CCOCC2)c1 (3D coordinates assigned)
O=C([N-]c1cc(S(=O)(=O)[NH+]2CCCCC2)ccc1Sc1ccccc1)c1cccc(S(=O)(=O)N2CCOCC2)c1 (nonaromatic ring conformer: 97.61202826095862 kcal/mol)

>  <smiles>  (24) 
O=C(Nc1cc(S(=O)(=O)N2CCCCC2)ccc1Sc1ccccc1)c1cccc(S(=O)(=O)N2CCOCC2)c1

>  <score_type>  (24) 
oracle

>  <origin>  (24) 
adg

>  <m_score__min__energy>  (24) 
-11.73

>  <m_primary>  (24) 
energy

$$$$
24:0
     RDKit          3D

 55 58  0  0  0  0  0  0  0  0999 V2000
   59.6710   34.1320   50.2350 O   0  0  0  0  0  0  0  0  0  0  0  0
   59.8160   33.5880   49.1070 C   0  0  0  0  0  0  0  0  0  0  0  0
   58.6750   33.1710   48.3460 N   0  0  0  0  0  0  0  0  0  0  0  0
   58.4920   33.2690   46.9260 C   0  0  0  0  0  0  0  0  0  0  0  0
   58.9840   34.4030   46.2710 C   0  0  0  0  0  0  0  0  0  0  0  0
   58.8960   34.5130   44.8810 C   0  0  0  0  0  0  0  0  0  0  0  0
   58.3210   33.4850   44.1330 C   0  0  0  0  0  0  0  0  0  0  0  0
   57.8200   32.3390   44.7710 C   0  0  0  0  0  0  0  0  0  0  0  0
   57.2160   31.2190   43.9540 C   0  0  0  0  0  0  0  0  0  0  0  0
   58.1590   30.1080   43.7310 N   0  0  0  0  0  0  0  0  0  0  0  0
   58.1570   29.1660   44.8270 C   0  0  0  0  0  0  0  0  0  0  0  0
   57.1390   28.2050   44.9370 C   0  0  0  0  0  0  0  0  0  0  0  0
   57.1580   27.2780   45.9820 C   0  0  0  0  0  0  0  0  0  0  0  0
   58.1880   27.3010   46.9250 C   0  0  0  0  0  0  0  0  0  0  0  0
   59.2190   28.2490   46.8280 C   0  0  0  0  0  0  0  0  0  0  0  0
   60.3170   28.3040   47.8700 C   0  0  0  0  0  0  0  0  0  0  0  0
   60.3560   29.5700   48.6360 N   0  0  0  0  0  0  0  0  0  0  0  0
   59.0440   30.2390   48.7970 C   0  0  0  0  0  0  0  0  0  0  0  0
   58.6280   30.3640   50.2730 C   0  0  0  0  0  0  0  0  0  0  0  0
   59.6450   31.0680   51.0760 N   0  0  0  0  0  0  0  0  0  0  0  0
   61.0360   30.8060   50.6550 C   0  0  0  0  0  0  0  0  0  0  0  0
   61.1650   29.4980   49.8680 C   0  0  0  0  0  0  0  0  0  0  0  0
   59.1870   29.1870   45.7830 C   0  0  0  0  0  0  0  0  0  0  0  0
   57.9210   32.2270   46.1680 C   0  0  0  0  0  0  0  0  0  0  0  0
   61.1660   33.4230   48.5420 C   0  0  0  0  0  0  0  0  0  0  0  0
   62.2720   34.1930   48.9420 C   0  0  0  0  0  0  0  0  0  0  0  0
   63.4490   33.8600   48.2840 C   0  0  0  0  0  0  0  0  0  0  0  0
   63.1080   32.6170   47.2050 S   0  0  0  0  0  0  0  0  0  0  0  0
   61.4730   32.4810   47.5640 C   0  0  0  0  0  0  0  0  0  0  0  0
   59.4436   35.2142   46.8548 H   0  0  0  0  0  0  0  0  0  0  0  0
   59.2805   35.4112   44.3756 H   0  0  0  0  0  0  0  0  0  0  0  0
   58.2599   33.5728   43.0382 H   0  0  0  0  0  0  0  0  0  0  0  0
   56.3341   30.8314   44.4851 H   0  0  0  0  0  0  0  0  0  0  0  0
   56.9481   31.6313   42.9700 H   0  0  0  0  0  0  0  0  0  0  0  0
   59.1240   30.5020   43.6310 H   0  0  0  0  0  0  0  0  0  0  0  0
   57.9300   29.6300   42.8280 H   0  0  0  0  0  0  0  0  0  0  0  0
   56.3243   28.1821   44.1983 H   0  0  0  0  0  0  0  0  0  0  0  0
   56.3584   26.5269   46.0624 H   0  0  0  0  0  0  0  0  0  0  0  0
   58.1914   26.5719   47.7487 H   0  0  0  0  0  0  0  0  0  0  0  0
   60.1643   27.4759   48.5777 H   0  0  0  0  0  0  0  0  0  0  0  0
   61.2725   28.2285   47.3303 H   0  0  0  0  0  0  0  0  0  0  0  0
   59.1051   31.2468   48.3604 H   0  0  0  0  0  0  0  0  0  0  0  0
   58.2885   29.6242   48.2859 H   0  0  0  0  0  0  0  0  0  0  0  0
   57.6820   30.9225   50.3293 H   0  0  0  0  0  0  0  0  0  0  0  0
   58.5156   29.3488   50.6814 H   0  0  0  0  0  0  0  0  0  0  0  0
   59.4690   32.1000   51.0040 H   0  0  0  0  0  0  0  0  0  0  0  0
   61.3764   31.6369   50.0196 H   0  0  0  0  0  0  0  0  0  0  0  0
   61.6525   30.7172   51.5616 H   0  0  0  0  0  0  0  0  0  0  0  0
   62.2199   29.3349   49.6024 H   0  0  0  0  0  0  0  0  0  0  0  0
   60.8044   28.6650   50.4893 H   0  0  0  0  0  0  0  0  0  0  0  0
   59.9783   29.9478   45.7119 H   0  0  0  0  0  0  0  0  0  0  0  0
   57.5526   31.3216   46.6725 H   0  0  0  0  0  0  0  0  0  0  0  0
   62.2111   34.9842   49.7038 H   0  0  0  0  0  0  0  0  0  0  0  0
   64.4321   34.3277   48.4414 H   0  0  0  0  0  0  0  0  0  0  0  0
   60.7679   31.7715   47.1063 H   0  0  0  0  0  0  0  0  0  0  0  0
  1  2  2  0
  2  3  1  0
  3  4  1  0
  4  5  2  0
  5  6  1  0
  6  7  2  0
  7  8  1  0
  8  9  1  0
  9 10  1  0
 10 11  1  0
 11 12  2  0
 12 13  1  0
 13 14  2  0
 14 15  1  0
 15 16  1  0
 16 17  1  0
 17 18  1  0
 18 19  1  0
 19 20  1  0
 20 21  1  0
 21 22  1  0
 15 23  2  0
  8 24  2  0
  2 25  1  0
 25 26  1  0
 26 27  2  0
 27 28  1  0
 28 29  1  0
 24  4  1  0
 29 25  2  0
 23 11  1  0
 22 17  1  0
  5 30  1  0
  6 31  1  0
  7 32  1  0
  9 33  1  0
  9 34  1  0
 10 35  1  0
 10 36  1  0
 12 37  1  0
 13 38  1  0
 14 39  1  0
 16 40  1  0
 16 41  1  0
 18 42  1  0
 18 43  1  0
 19 44  1  0
 19 45  1  0
 20 46  1  0
 21 47  1  0
 21 48  1  0
 22 49  1  0
 22 50  1  0
 23 51  1  0
 24 52  1  0
 26 53  1  0
 27 54  1  0
 29 55  1  0
M  CHG  2   3  -1  10   1
M  END
>  <UniqueID>  (25) 
25

>  <SMILES>  (25) 
O=C([N-]c1cccc(C[NH2+]c2cccc(CN3CCNCC3)c2)c1)c1ccsc1

>  <Energy>  (25) 
95.62250023772917

>  <Genealogy>  (25) 
O=C([N-]c1cccc(C[NH2+]c2cccc(CN3CCNCC3)c2)c1)c1ccsc1 (protonated)
O=C([N-]c1cccc(C[NH2+]c2cccc(CN3CCNCC3)c2)c1)c1ccsc1 (3D coordinates assigned)
O=C([N-]c1cccc(C[NH2+]c2cccc(CN3CCNCC3)c2)c1)c1ccsc1 (nonaromatic ring conformer: 95.62250023772917 kcal/mol)

>  <smiles>  (25) 
O=C(Nc1cccc(CNc2cccc(CN3CCNCC3)c2)c1)c1ccsc1

>  <score_type>  (25) 
oracle

>  <origin>  (25) 
adg

>  <m_score__min__energy>  (25) 
-10.59

>  <m_primary>  (25) 
energy

$$$$
25:0
     RDKit          3D

 59 62  0  0  1  0  0  0  0  0999 V2000
   62.6100   31.7370   47.0980 O   0  0  0  0  0  0  0  0  0  0  0  0
   61.3520   31.3230   47.8050 S   0  0  0  0  0  0  0  0  0  0  0  0
   61.7700   31.2860   49.2880 O   0  0  0  0  0  0  0  0  0  0  0  0
   60.8240   29.7230   47.3570 C   0  0  0  0  0  0  0  0  0  0  0  0
   60.9010   29.3850   46.0010 C   0  0  0  0  0  0  0  0  0  0  0  0
   60.5070   28.1460   45.5360 C   0  0  0  0  0  0  0  0  0  0  0  0
   60.0220   27.1960   46.4120 C   0  0  0  0  0  0  0  0  0  0  0  0
   59.6090   25.9350   46.0300 O   0  0  0  0  0  0  0  0  0  0  0  0
   58.2850   25.5740   45.8530 C   0  0  0  0  0  0  0  0  0  0  0  0
   57.8790   24.3530   45.3650 C   0  0  0  0  0  0  0  0  0  0  0  0
   56.5210   24.1450   45.2480 C   0  0  0  0  0  0  0  0  0  0  0  0
   55.5810   25.0950   45.5950 C   0  0  0  0  0  0  0  0  0  0  0  0
   55.9830   26.3180   46.0830 C   0  0  0  0  0  0  0  0  0  0  0  0
   57.3370   26.5340   46.2020 C   0  0  0  0  0  0  0  0  0  0  0  0
   59.9400   27.5170   47.7550 C   0  0  0  0  0  0  0  0  0  0  0  0
   60.3420   28.7700   48.1990 C   0  0  0  0  0  0  0  0  0  0  0  0
   60.1190   32.5110   47.7230 N   0  0  0  0  0  0  0  0  0  0  0  0
   59.8730   33.2970   48.9340 C   0  0  0  0  0  0  0  0  0  0  0  0
   59.1090   32.6430   49.9790 C   0  0  0  0  0  0  0  0  0  0  0  0
   58.5160   31.4050   49.9120 C   0  0  0  0  0  0  0  0  0  0  0  0
   57.8030   30.8520   50.9660 C   0  0  0  0  0  0  0  0  0  0  0  0
   57.6540   31.5330   52.1530 C   0  0  0  0  0  0  0  0  0  0  0  0
   56.9690   31.0460   53.2150 F   0  0  0  0  0  0  0  0  0  0  0  0
   58.2430   32.7890   52.2460 C   0  0  0  0  0  0  0  0  0  0  0  0
   58.1210   33.5070   53.4070 F   0  0  0  0  0  0  0  0  0  0  0  0
   58.9470   33.3260   51.1930 C   0  0  0  0  0  0  0  0  0  0  0  0
   59.3210   32.8420   46.6110 C   0  0  0  0  0  0  0  0  0  0  0  0
   59.4830   34.1480   46.1160 C   0  0  0  0  0  0  0  0  0  0  0  0
   58.7290   34.6300   45.0740 C   0  0  0  0  0  0  0  0  0  0  0  0
   57.7750   33.8460   44.4700 C   0  0  0  0  0  0  0  0  0  0  0  0
   57.6110   32.5660   44.9470 C   0  0  0  0  0  0  0  0  0  0  0  0
   58.3770   32.0630   46.0100 C   0  0  0  0  0  0  0  0  0  0  0  0
   58.1380   30.6420   46.3490 C   0  0  0  0  0  0  0  0  0  0  0  0
   57.5050   29.9610   45.2070 C   0  0  0  0  0  0  0  0  0  0  0  0
   58.1220   29.2860   44.1940 O   0  0  0  0  0  0  0  0  0  0  0  0
   56.1910   30.0110   45.1620 N   0  0  0  0  0  0  0  0  0  0  0  0
   55.4890   28.9860   44.5390 O   0  0  0  0  0  0  0  0  0  0  0  0
   61.2860   30.1269   45.2859 H   0  0  0  0  0  0  0  0  0  0  0  0
   60.5799   27.9151   44.4630 H   0  0  0  0  0  0  0  0  0  0  0  0
   58.6055   23.5775   45.0809 H   0  0  0  0  0  0  0  0  0  0  0  0
   56.1702   23.1773   44.8602 H   0  0  0  0  0  0  0  0  0  0  0  0
   54.5094   24.8744   45.4814 H   0  0  0  0  0  0  0  0  0  0  0  0
   55.2525   27.0902   46.3660 H   0  0  0  0  0  0  0  0  0  0  0  0
   57.6849   27.5035   46.5881 H   0  0  0  0  0  0  0  0  0  0  0  0
   59.5554   26.7779   48.4732 H   0  0  0  0  0  0  0  0  0  0  0  0
   60.2677   29.0003   49.2721 H   0  0  0  0  0  0  0  0  0  0  0  0
   60.8494   33.5759   49.3569 H   0  0  0  0  0  0  0  0  0  0  0  0
   59.2584   34.1501   48.6108 H   0  0  0  0  0  0  0  0  0  0  0  0
   58.6109   30.8267   48.9811 H   0  0  0  0  0  0  0  0  0  0  0  0
   57.3507   29.8559   50.8515 H   0  0  0  0  0  0  0  0  0  0  0  0
   59.3973   34.3231   51.3070 H   0  0  0  0  0  0  0  0  0  0  0  0
   60.2364   34.8036   46.5772 H   0  0  0  0  0  0  0  0  0  0  0  0
   58.8909   35.6581   44.7178 H   0  0  0  0  0  0  0  0  0  0  0  0
   57.1660   34.2274   43.6372 H   0  0  0  0  0  0  0  0  0  0  0  0
   56.8557   31.9164   44.4805 H   0  0  0  0  0  0  0  0  0  0  0  0
   59.0967   30.1546   46.5802 H   0  0  0  0  0  0  0  0  0  0  0  0
   57.4738   30.5820   47.2238 H   0  0  0  0  0  0  0  0  0  0  0  0
   58.4940   29.7110   43.3520 H   0  0  0  0  0  0  0  0  0  0  0  0
   55.9470   28.3320   43.9070 H   0  0  0  0  0  0  0  0  0  0  0  0
  1  2  2  0
  2  3  2  0
  2  4  1  0
  4  5  2  0
  5  6  1  0
  6  7  2  0
  7  8  1  0
  8  9  1  0
  9 10  2  0
 10 11  1  0
 11 12  2  0
 12 13  1  0
 13 14  2  0
  7 15  1  0
 15 16  2  0
  2 17  1  0
 17 18  1  0
 18 19  1  0
 19 20  2  0
 20 21  1  0
 21 22  2  0
 22 23  1  0
 22 24  1  0
 24 25  1  0
 24 26  2  0
 17 27  1  0
 27 28  2  0
 28 29  1  0
 29 30  2  0
 30 31  1  0
 31 32  2  0
 32 33  1  0
 33 34  1  0
 34 35  1  0
 34 36  2  0
 36 37  1  0
 16  4  1  0
 26 19  1  0
 32 27  1  0
 14  9  1  0
  5 38  1  0
  6 39  1  0
 10 40  1  0
 11 41  1  0
 12 42  1  0
 13 43  1  0
 14 44  1  0
 15 45  1  0
 16 46  1  0
 18 47  1  0
 18 48  1  0
 20 49  1  0
 21 50  1  0
 26 51  1  0
 28 52  1  0
 29 53  1  0
 30 54  1  0
 31 55  1  0
 33 56  1  0
 33 57  1  0
 35 58  1  0
 37 59  1  0
M  END
>  <smiles>  (26) 
O=S(=O)(c1ccc(Oc2ccccc2)cc1)N(Cc1ccc(F)c(F)c1)c1ccccc1CC(O)=NO

>  <score_type>  (26) 
oracle

>  <origin>  (26) 
adg

>  <m_score__min__energy>  (26) 
-11.15

>  <m_primary>  (26) 
energy

$$$$
26:0
     RDKit          3D

 45 47  0  0  1  0  0  0  0  0999 V2000
   60.2580   21.9530   45.4830 N   0  0  0  0  0  0  0  0  0  0  0  0
   58.6280   22.4700   45.2210 S   0  0  0  0  0  0  0  0  0  0  0  0
   57.8270   21.9710   46.4050 O   0  0  0  0  0  0  0  0  0  0  0  0
   58.1070   21.7900   43.9850 O   0  0  0  0  0  0  0  0  0  0  0  0
   58.4830   24.1940   45.1320 C   0  0  0  0  0  0  0  0  0  0  0  0
   59.0730   25.0620   46.0390 C   0  0  0  0  0  0  0  0  0  0  0  0
   58.9370   26.4310   45.9370 C   0  0  0  0  0  0  0  0  0  0  0  0
   58.1960   26.9940   44.9140 C   0  0  0  0  0  0  0  0  0  0  0  0
   58.0120   28.4540   44.7490 C   0  0  0  0  0  0  0  0  0  0  0  0
   56.6210   28.8670   45.2480 C   0  0  0  0  0  0  0  0  0  0  0  0
   56.1520   30.0460   44.6060 N   0  0  0  0  0  0  0  0  0  0  0  0
   56.8580   31.0520   44.2670 C   0  0  0  0  0  0  0  0  0  0  0  0
   57.3670   31.0850   42.9840 C   0  0  0  0  0  0  0  0  0  0  0  0
   58.1340   32.1840   42.6220 C   0  0  0  0  0  0  0  0  0  0  0  0
   58.3280   33.1490   43.5600 N   0  0  0  0  0  0  0  0  0  0  0  0
   57.8100   33.0680   44.7920 C   0  0  0  0  0  0  0  0  0  0  0  0
   58.0310   34.0120   45.6310 N   0  0  0  0  0  0  0  0  0  0  0  0
   59.1530   34.0060   46.5110 C   0  0  0  0  0  0  0  0  0  0  0  0
   58.9860   34.1700   47.8760 C   0  0  0  0  0  0  0  0  0  0  0  0
   60.1000   34.1600   48.7200 C   0  0  0  0  0  0  0  0  0  0  0  0
   61.3740   33.9890   48.2010 C   0  0  0  0  0  0  0  0  0  0  0  0
   62.7260   33.9870   49.3090 Cl  0  0  0  0  0  0  0  0  0  0  0  0
   61.5210   33.8270   46.8400 C   0  0  0  0  0  0  0  0  0  0  0  0
   60.4340   33.8310   45.9770 C   0  0  0  0  0  0  0  0  0  0  0  0
   57.0620   32.0160   45.1730 N   0  0  0  0  0  0  0  0  0  0  0  0
   57.6100   26.1220   44.0110 C   0  0  0  0  0  0  0  0  0  0  0  0
   57.7380   24.7530   44.1000 C   0  0  0  0  0  0  0  0  0  0  0  0
   60.8200   22.3540   44.6850 H   0  0  0  0  0  0  0  0  0  0  0  0
   60.3090   20.9010   45.3430 H   0  0  0  0  0  0  0  0  0  0  0  0
   59.6679   24.6457   46.8654 H   0  0  0  0  0  0  0  0  0  0  0  0
   59.4236   27.0824   46.6779 H   0  0  0  0  0  0  0  0  0  0  0  0
   58.7801   28.9859   45.3296 H   0  0  0  0  0  0  0  0  0  0  0  0
   58.1048   28.7117   43.6836 H   0  0  0  0  0  0  0  0  0  0  0  0
   55.9143   28.0483   45.0470 H   0  0  0  0  0  0  0  0  0  0  0  0
   56.6948   29.0740   46.3258 H   0  0  0  0  0  0  0  0  0  0  0  0
   57.1715   30.2686   42.2732 H   0  0  0  0  0  0  0  0  0  0  0  0
   58.5681   32.2708   41.6150 H   0  0  0  0  0  0  0  0  0  0  0  0
   58.9020   33.9660   43.2810 H   0  0  0  0  0  0  0  0  0  0  0  0
   57.9784   34.3079   48.2952 H   0  0  0  0  0  0  0  0  0  0  0  0
   59.9648   34.2888   49.8040 H   0  0  0  0  0  0  0  0  0  0  0  0
   62.5306   33.6904   46.4252 H   0  0  0  0  0  0  0  0  0  0  0  0
   60.5770   33.6991   44.8943 H   0  0  0  0  0  0  0  0  0  0  0  0
   56.6580   31.9350   46.1110 H   0  0  0  0  0  0  0  0  0  0  0  0
   57.0158   26.5414   43.1858 H   0  0  0  0  0  0  0  0  0  0  0  0
   57.2520   24.1042   43.3565 H   0  0  0  0  0  0  0  0  0  0  0  0
  1  2  1  0
  2  3  2  0
  2  4  2  0
  2  5  1  0
  5  6  2  0
  6  7  1  0
  7  8  2  0
  8  9  1  0
  9 10  1  0
 10 11  1  0
 11 12  2  0
 12 13  1  0
 13 14  2  0
 14 15  1  0
 15 16  1  0
 16 17  2  0
 17 18  1  0
 18 19  2  0
 19 20  1  0
 20 21  2  0
 21 22  1  0
 21 23  1  0
 23 24  2  0
 16 25  1  0
  8 26  1  0
 26 27  2  0
 27  5  1  0
 25 12  1  0
 24 18  1  0
  1 28  1  0
  1 29  1  0
  6 30  1  0
  7 31  1  0
  9 32  1  0
  9 33  1  0
 10 34  1  0
 10 35  1  0
 13 36  1  0
 14 37  1  0
 15 38  1  0
 19 39  1  0
 20 40  1  0
 23 41  1  0
 24 42  1  0
 25 43  1  0
 26 44  1  0
 27 45  1  0
M  END
>  <smiles>  (27) 
NS(=O)(=O)c1ccc(CCN=c2cc[nH]c(=Nc3ccc(Cl)cc3)[nH]2)cc1

>  <score_type>  (27) 
oracle

>  <origin>  (27) 
adg

>  <m_score__min__energy>  (27) 
-9.3000000000000007

>  <m_primary>  (27) 
energy

$$$$
27:0
     RDKit          3D

 46 47  0  0  0  0  0  0  0  0999 V2000
   57.3860   31.5930   42.2000 C   0  0  0  0  0  0  0  0  0  0  0  0
   57.3350   31.2850   43.6290 N   0  0  0  0  0  0  0  0  0  0  0  0
   57.8550   32.2230   44.5850 C   0  0  0  0  0  0  0  0  0  0  0  0
   57.4850   33.5760   44.5270 C   0  0  0  0  0  0  0  0  0  0  0  0
   57.9980   34.4870   45.4520 C   0  0  0  0  0  0  0  0  0  0  0  0
   58.8850   34.0560   46.4440 C   0  0  0  0  0  0  0  0  0  0  0  0
   59.2580   32.7100   46.5230 C   0  0  0  0  0  0  0  0  0  0  0  0
   60.1980   32.3090   47.5320 N   0  0  0  0  0  0  0  0  0  0  0  0
   61.0210   31.1330   47.5120 C   0  0  0  0  0  0  0  0  0  0  0  0
   62.2410   31.2450   47.8040 O   0  0  0  0  0  0  0  0  0  0  0  0
   60.4690   29.7970   47.1990 C   0  0  0  0  0  0  0  0  0  0  0  0
   60.7390   29.1960   45.9590 C   0  0  0  0  0  0  0  0  0  0  0  0
   60.1650   27.9630   45.6330 C   0  0  0  0  0  0  0  0  0  0  0  0
   59.3280   27.3060   46.5470 C   0  0  0  0  0  0  0  0  0  0  0  0
   58.6300   26.0390   46.1480 C   0  0  0  0  0  0  0  0  0  0  0  0
   57.5090   25.8120   47.0580 N   0  0  0  0  0  0  0  0  0  0  0  0
   56.0790   25.3950   46.1670 S   0  0  0  0  0  0  0  0  0  0  0  0
   56.5390   24.7650   44.5690 C   0  0  0  0  0  0  0  0  0  0  0  0
   55.3310   24.3300   46.9160 O   0  0  0  0  0  0  0  0  0  0  0  0
   55.1900   26.5960   45.9970 O   0  0  0  0  0  0  0  0  0  0  0  0
   59.0860   27.8910   47.7990 C   0  0  0  0  0  0  0  0  0  0  0  0
   59.6540   29.1230   48.1240 C   0  0  0  0  0  0  0  0  0  0  0  0
   58.7530   31.7990   45.5760 C   0  0  0  0  0  0  0  0  0  0  0  0
   56.6530   29.7760   44.1590 S   0  0  0  0  0  0  0  0  0  0  0  0
   57.5410   28.4110   43.4450 C   0  0  0  0  0  0  0  0  0  0  0  0
   55.2100   29.7050   43.7390 O   0  0  0  0  0  0  0  0  0  0  0  0
   56.7160   29.6910   45.6570 O   0  0  0  0  0  0  0  0  0  0  0  0
   57.5643   32.6698   42.0631 H   0  0  0  0  0  0  0  0  0  0  0  0
   58.2021   31.0237   41.7311 H   0  0  0  0  0  0  0  0  0  0  0  0
   56.4299   31.3171   41.7311 H   0  0  0  0  0  0  0  0  0  0  0  0
   56.7876   33.9199   43.7490 H   0  0  0  0  0  0  0  0  0  0  0  0
   57.7042   35.5458   45.4007 H   0  0  0  0  0  0  0  0  0  0  0  0
   59.2915   34.7795   47.1660 H   0  0  0  0  0  0  0  0  0  0  0  0
   61.4048   29.6971   45.2409 H   0  0  0  0  0  0  0  0  0  0  0  0
   60.3711   27.5057   44.6540 H   0  0  0  0  0  0  0  0  0  0  0  0
   58.2567   26.1314   45.1174 H   0  0  0  0  0  0  0  0  0  0  0  0
   59.3314   25.1933   46.2009 H   0  0  0  0  0  0  0  0  0  0  0  0
   57.1834   23.8824   44.6944 H   0  0  0  0  0  0  0  0  0  0  0  0
   55.6337   24.4818   44.0120 H   0  0  0  0  0  0  0  0  0  0  0  0
   57.0844   25.5411   44.0120 H   0  0  0  0  0  0  0  0  0  0  0  0
   58.4446   27.3752   48.5287 H   0  0  0  0  0  0  0  0  0  0  0  0
   59.4626   29.5697   49.1108 H   0  0  0  0  0  0  0  0  0  0  0  0
   59.0654   30.7449   45.6134 H   0  0  0  0  0  0  0  0  0  0  0  0
   57.9512   27.7804   44.2476 H   0  0  0  0  0  0  0  0  0  0  0  0
   56.8577   27.8143   42.8229 H   0  0  0  0  0  0  0  0  0  0  0  0
   58.3634   28.7938   42.8229 H   0  0  0  0  0  0  0  0  0  0  0  0
  1  2  1  0
  2  3  1  0
  3  4  2  0
  4  5  1  0
  5  6  2  0
  6  7  1  0
  7  8  1  0
  8  9  1  0
  9 10  2  0
  9 11  1  0
 11 12  2  0
 12 13  1  0
 13 14  2  0
 14 15  1  0
 15 16  1  0
 16 17  1  0
 17 18  1  0
 17 19  2  0
 17 20  2  0
 14 21  1  0
 21 22  2  0
  7 23  2  0
  2 24  1  0
 24 25  1  0
 24 26  2  0
 24 27  2  0
 23  3  1  0
 22 11  1  0
  1 28  1  0
  1 29  1  0
  1 30  1  0
  4 31  1  0
  5 32  1  0
  6 33  1  0
 12 34  1  0
 13 35  1  0
 15 36  1  0
 15 37  1  0
 18 38  1  0
 18 39  1  0
 18 40  1  0
 21 41  1  0
 22 42  1  0
 23 43  1  0
 25 44  1  0
 25 45  1  0
 25 46  1  0
M  CHG  2   8  -1  16  -1
M  END
>  <UniqueID>  (28) 
26

>  <SMILES>  (28) 
CN(c1cccc([N-]C(=O)c2ccc(C[N-]S(C)(=O)=O)cc2)c1)S(C)(=O)=O

>  <Energy>  (28) 
43.027439230332966

>  <Genealogy>  (28) 
CN(c1cccc([N-]C(=O)c2ccc(C[N-]S(C)(=O)=O)cc2)c1)S(C)(=O)=O (protonated)
CN(c1cccc([N-]C(=O)c2ccc(C[N-]S(C)(=O)=O)cc2)c1)S(C)(=O)=O (3D coordinates assigned)
CN(c1cccc([N-]C(=O)c2ccc(C[N-]S(C)(=O)=O)cc2)c1)S(C)(=O)=O (optimized conformer: 43.027439230332966 kcal/mol)

>  <smiles>  (28) 
CN(c1cccc(NC(=O)c2ccc(CNS(C)(=O)=O)cc2)c1)S(C)(=O)=O

>  <score_type>  (28) 
oracle

>  <origin>  (28) 
adg

>  <m_score__min__energy>  (28) 
-11.85

>  <m_primary>  (28) 
energy

$$$$
28:0
     RDKit          3D

 30 32  0  0  0  0  0  0  0  0999 V2000
   59.1690   31.1440   49.3130 C   0  0  0  0  0  0  0  0  0  0  0  0
   58.5290   32.4440   49.1870 N   0  0  0  0  0  0  0  0  0  0  0  0
   58.9450   33.4240   48.2300 C   0  0  0  0  0  0  0  0  0  0  0  0
   59.6600   34.3950   48.6010 O   0  0  0  0  0  0  0  0  0  0  0  0
   58.5410   33.3000   46.8090 C   0  0  0  0  0  0  0  0  0  0  0  0
   58.8430   34.3200   45.8910 C   0  0  0  0  0  0  0  0  0  0  0  0
   58.4490   34.2100   44.5550 C   0  0  0  0  0  0  0  0  0  0  0  0
   57.7600   33.0780   44.1170 C   0  0  0  0  0  0  0  0  0  0  0  0
   57.4760   32.0320   45.0130 C   0  0  0  0  0  0  0  0  0  0  0  0
   56.7400   30.8630   44.6120 N   0  0  0  0  0  0  0  0  0  0  0  0
   56.9060   29.6520   45.0560 C   0  0  0  0  0  0  0  0  0  0  0  0
   58.1400   29.1610   45.3420 N   0  0  0  0  0  0  0  0  0  0  0  0
   57.8670   27.9050   45.7230 C   0  0  0  0  0  0  0  0  0  0  0  0
   58.7620   26.9220   46.1350 C   0  0  0  0  0  0  0  0  0  0  0  0
   58.2190   25.6690   46.4800 C   0  0  0  0  0  0  0  0  0  0  0  0
   56.8680   25.4530   46.4040 N   0  0  0  0  0  0  0  0  0  0  0  0
   56.0040   26.4300   45.9960 C   0  0  0  0  0  0  0  0  0  0  0  0
   54.7670   26.2060   45.9330 O   0  0  0  0  0  0  0  0  0  0  0  0
   56.5320   27.6720   45.6530 C   0  0  0  0  0  0  0  0  0  0  0  0
   55.8850   28.7660   45.2250 N   0  0  0  0  0  0  0  0  0  0  0  0
   57.8450   32.1620   46.3580 C   0  0  0  0  0  0  0  0  0  0  0  0
   59.2907   30.8969   50.3780 H   0  0  0  0  0  0  0  0  0  0  0  0
   58.5444   30.3793   48.8282 H   0  0  0  0  0  0  0  0  0  0  0  0
   60.1560   31.1727   48.8282 H   0  0  0  0  0  0  0  0  0  0  0  0
   59.3934   35.2113   46.2265 H   0  0  0  0  0  0  0  0  0  0  0  0
   58.6826   35.0181   43.8462 H   0  0  0  0  0  0  0  0  0  0  0  0
   57.4381   33.0038   43.0678 H   0  0  0  0  0  0  0  0  0  0  0  0
   59.8436   27.1148   46.1887 H   0  0  0  0  0  0  0  0  0  0  0  0
   58.8840   24.8584   46.8127 H   0  0  0  0  0  0  0  0  0  0  0  0
   57.5878   31.3649   47.0711 H   0  0  0  0  0  0  0  0  0  0  0  0
  1  2  1  0
  2  3  1  0
  3  4  2  0
  3  5  1  0
  5  6  2  0
  6  7  1  0
  7  8  2  0
  8  9  1  0
  9 10  1  0
 10 11  2  3
 11 12  1  0
 12 13  1  0
 13 14  1  0
 14 15  2  0
 15 16  1  0
 16 17  1  0
 17 18  2  0
 17 19  1  0
 19 20  1  0
  9 21  2  0
 21  5  1  0
 20 11  1  0
 19 13  2  0
  1 22  1  0
  1 23  1  0
  1 24  1  0
  6 25  1  0
  7 26  1  0
  8 27  1  0
 14 28  1  0
 15 29  1  0
 21 30  1  0
M  CHG  4   2  -1  12  -1  16  -1  20  -1
M  END
>  <UniqueID>  (29) 
27

>  <SMILES>  (29) 
C[N-]C(=O)c1cccc(N=c2[n-]c3cc[n-]c(=O)c3[n-]2)c1

>  <Energy>  (29) 
73.80844151623742

>  <Genealogy>  (29) 
C[N-]C(=O)c1cccc(N=c2[n-]c3cc[n-]c(=O)c3[n-]2)c1 (protonated)
C[N-]C(=O)c1cccc(N=c2[n-]c3cc[n-]c(=O)c3[n-]2)c1 (3D coordinates assigned)
C[N-]C(=O)c1cccc(N=c2[n-]c3cc[n-]c(=O)c3[n-]2)c1 (optimized conformer: 73.80844151623742 kcal/mol)

>  <smiles>  (29) 
CNC(=O)c1cccc(N=c2[nH]c3cc[nH]c(=O)c3[nH]2)c1

>  <score_type>  (29) 
oracle

>  <origin>  (29) 
adg

>  <m_score__min__energy>  (29) 
-12.869999999999999

>  <m_primary>  (29) 
energy

$$$$
29:0
     RDKit          3D

 60 63  0  0  0  0  0  0  0  0999 V2000
   50.5850   25.6000   40.9590 C   0  0  0  0  0  0  0  0  0  0  0  0
   50.5950   24.3370   41.8120 C   0  0  0  0  0  0  0  0  0  0  0  0
   51.2940   24.5760   43.0720 N   0  0  0  0  0  0  0  0  0  0  0  0
   51.4530   23.5610   44.0720 C   0  0  0  0  0  0  0  0  0  0  0  0
   51.0140   22.3970   43.8740 O   0  0  0  0  0  0  0  0  0  0  0  0
   52.1850   23.8670   45.3420 C   0  0  0  0  0  0  0  0  0  0  0  0
   53.6100   24.0160   45.0690 N   0  0  0  0  0  0  0  0  0  0  0  0
   54.4360   24.9060   45.6490 C   0  0  0  0  0  0  0  0  0  0  0  0
   55.6880   24.7710   45.0800 C   0  0  0  0  0  0  0  0  0  0  0  0
   56.8960   25.5520   45.4260 C   0  0  0  0  0  0  0  0  0  0  0  0
   57.6640   26.1760   44.4280 C   0  0  0  0  0  0  0  0  0  0  0  0
   58.8210   26.8820   44.7630 C   0  0  0  0  0  0  0  0  0  0  0  0
   59.2320   26.9840   46.0960 C   0  0  0  0  0  0  0  0  0  0  0  0
   60.4120   27.6870   46.3840 O   0  0  0  0  0  0  0  0  0  0  0  0
   60.4580   28.9340   47.0200 C   0  0  0  0  0  0  0  0  0  0  0  0
   60.3190   30.0890   46.2420 C   0  0  0  0  0  0  0  0  0  0  0  0
   60.3700   31.3520   46.8350 C   0  0  0  0  0  0  0  0  0  0  0  0
   60.5310   31.4740   48.2220 C   0  0  0  0  0  0  0  0  0  0  0  0
   60.6160   33.0660   48.9680 S   0  0  0  0  0  0  0  0  0  0  0  0
   60.5330   32.9270   50.4630 O   0  0  0  0  0  0  0  0  0  0  0  0
   61.9210   33.7300   48.6310 O   0  0  0  0  0  0  0  0  0  0  0  0
   59.2870   34.0400   48.4200 N   0  0  0  0  0  0  0  0  0  0  0  0
   58.7880   33.9880   47.2220 C   0  0  0  0  0  0  0  0  0  0  0  0
   59.4250   34.6700   46.1780 C   0  0  0  0  0  0  0  0  0  0  0  0
   58.8860   34.6120   44.8910 C   0  0  0  0  0  0  0  0  0  0  0  0
   57.7250   33.8740   44.6570 C   0  0  0  0  0  0  0  0  0  0  0  0
   57.1130   33.2100   45.7210 C   0  0  0  0  0  0  0  0  0  0  0  0
   57.6510   33.2800   46.9670 N   0  0  0  0  0  0  0  0  0  0  0  0
   60.6420   30.3210   49.0090 C   0  0  0  0  0  0  0  0  0  0  0  0
   60.6090   29.0500   48.4180 C   0  0  0  0  0  0  0  0  0  0  0  0
   60.6950   27.8820   49.2560 C   0  0  0  0  0  0  0  0  0  0  0  0
   60.7600   26.9450   49.9280 N   0  0  0  0  0  0  0  0  0  0  0  0
   58.4740   26.3500   47.0970 C   0  0  0  0  0  0  0  0  0  0  0  0
   57.3190   25.6380   46.7630 C   0  0  0  0  0  0  0  0  0  0  0  0
   55.5290   23.7760   44.1210 C   0  0  0  0  0  0  0  0  0  0  0  0
   56.5570   23.2620   43.1640 C   0  0  0  0  0  0  0  0  0  0  0  0
   54.2560   23.3330   44.1380 N   0  0  0  0  0  0  0  0  0  0  0  0
   50.5780   26.4843   41.6132 H   0  0  0  0  0  0  0  0  0  0  0  0
   51.4830   25.6208   40.3241 H   0  0  0  0  0  0  0  0  0  0  0  0
   49.6868   25.6065   40.3241 H   0  0  0  0  0  0  0  0  0  0  0  0
   49.5587   24.0355   42.0245 H   0  0  0  0  0  0  0  0  0  0  0  0
   51.1165   23.5401   41.2615 H   0  0  0  0  0  0  0  0  0  0  0  0
   51.7390   25.5110   43.2230 H   0  0  0  0  0  0  0  0  0  0  0  0
   51.7960   24.8021   45.7712 H   0  0  0  0  0  0  0  0  0  0  0  0
   52.0366   23.0417   46.0539 H   0  0  0  0  0  0  0  0  0  0  0  0
   54.1616   25.6189   46.4405 H   0  0  0  0  0  0  0  0  0  0  0  0
   57.3514   26.1077   43.3756 H   0  0  0  0  0  0  0  0  0  0  0  0
   59.4147   27.3624   43.9714 H   0  0  0  0  0  0  0  0  0  0  0  0
   60.1685   30.0012   45.1559 H   0  0  0  0  0  0  0  0  0  0  0  0
   60.2835   32.2542   46.2117 H   0  0  0  0  0  0  0  0  0  0  0  0
   60.3420   35.2464   46.3700 H   0  0  0  0  0  0  0  0  0  0  0  0
   59.3755   35.1468   44.0637 H   0  0  0  0  0  0  0  0  0  0  0  0
   57.2970   33.8163   43.6453 H   0  0  0  0  0  0  0  0  0  0  0  0
   56.1943   32.6294   45.5510 H   0  0  0  0  0  0  0  0  0  0  0  0
   60.7559   30.4132   50.0992 H   0  0  0  0  0  0  0  0  0  0  0  0
   58.7921   26.4150   48.1480 H   0  0  0  0  0  0  0  0  0  0  0  0
   56.7366   25.1411   47.5528 H   0  0  0  0  0  0  0  0  0  0  0  0
   57.4026   22.8392   43.7264 H   0  0  0  0  0  0  0  0  0  0  0  0
   56.1106   22.4810   42.5309 H   0  0  0  0  0  0  0  0  0  0  0  0
   56.9139   24.0877   42.5309 H   0  0  0  0  0  0  0  0  0  0  0  0
  1  2  1  0
  2  3  1  0
  3  4  1  0
  4  5  2  0
  4  6  1  0
  6  7  1  0
  7  8  1  0
  8  9  2  0
  9 10  1  0
 10 11  2  0
 11 12  1  0
 12 13  2  0
 13 14  1  0
 14 15  1  0
 15 16  2  0
 16 17  1  0
 17 18  2  0
 18 19  1  0
 19 20  2  0
 19 21  2  0
 19 22  1  0
 22 23  2  3
 23 24  1  0
 24 25  2  0
 25 26  1  0
 26 27  2  0
 27 28  1  0
 18 29  1  0
 29 30  2  0
 30 31  1  0
 31 32  3  0
 13 33  1  0
 33 34  2  0
  9 35  1  0
 35 36  1  0
 35 37  2  0
 37  7  1  0
 34 10  1  0
 30 15  1  0
 28 23  1  0
  1 38  1  0
  1 39  1  0
  1 40  1  0
  2 41  1  0
  2 42  1  0
  3 43  1  0
  6 44  1  0
  6 45  1  0
  8 46  1  0
 11 47  1  0
 12 48  1  0
 16 49  1  0
 17 50  1  0
 24 51  1  0
 25 52  1  0
 26 53  1  0
 27 54  1  0
 29 55  1  0
 33 56  1  0
 34 57  1  0
 36 58  1  0
 36 59  1  0
 36 60  1  0
M  CHG  1  28  -1
M  END
>  <UniqueID>  (30) 
28

>  <SMILES>  (30) 
CCNC(=O)Cn1cc(-c2ccc(Oc3ccc(S(=O)(=O)N=c4cccc[n-]4)cc3C#N)cc2)c(C)n1

>  <Energy>  (30) 
101.57573085509932

>  <Genealogy>  (30) 
CCNC(=O)Cn1cc(-c2ccc(Oc3ccc(S(=O)(=O)N=c4cccc[n-]4)cc3C#N)cc2)c(C)n1 (protonated)
CCNC(=O)Cn1cc(-c2ccc(Oc3ccc(S(=O)(=O)N=c4cccc[n-]4)cc3C#N)cc2)c(C)n1 (3D coordinates assigned)
CCNC(=O)Cn1cc(-c2ccc(Oc3ccc(S(=O)(=O)N=c4cccc[n-]4)cc3C#N)cc2)c(C)n1 (optimized conformer: 101.57573085509932 kcal/mol)

>  <smiles>  (30) 
CCNC(=O)Cn1cc(-c2ccc(Oc3ccc(S(=O)(=O)N=c4cccc[nH]4)cc3C#N)cc2)c(C)n1

>  <score_type>  (30) 
oracle

>  <origin>  (30) 
adg

>  <m_score__min__energy>  (30) 
-11.24

>  <m_primary>  (30) 
energy

$$$$
30:0
     RDKit          3D

 54 57  0  0  0  0  0  0  0  0999 V2000
   56.5920   21.1250   46.1360 C   0  0  0  0  0  0  0  0  0  0  0  0
   55.7660   22.1920   46.6020 O   0  0  0  0  0  0  0  0  0  0  0  0
   54.4110   22.3600   46.2650 C   0  0  0  0  0  0  0  0  0  0  0  0
   53.4870   21.2990   46.3670 C   0  0  0  0  0  0  0  0  0  0  0  0
   52.1440   21.4980   46.0290 C   0  0  0  0  0  0  0  0  0  0  0  0
   51.7080   22.7470   45.5950 C   0  0  0  0  0  0  0  0  0  0  0  0
   52.6120   23.8060   45.4990 C   0  0  0  0  0  0  0  0  0  0  0  0
   53.9610   23.6280   45.8310 C   0  0  0  0  0  0  0  0  0  0  0  0
   54.8970   24.7690   45.7210 C   0  0  0  0  0  0  0  0  0  0  0  0
   54.4340   25.9390   45.6470 O   0  0  0  0  0  0  0  0  0  0  0  0
   56.3170   24.5380   45.7210 N   0  0  0  0  0  0  0  0  0  0  0  0
   57.3240   25.5630   45.6690 C   0  0  0  0  0  0  0  0  0  0  0  0
   58.5220   25.2520   45.9190 O   0  0  0  0  0  0  0  0  0  0  0  0
   57.0060   26.9060   45.2710 N   0  0  0  0  0  0  0  0  0  0  0  0
   57.7210   28.0680   45.7360 C   0  0  0  0  0  0  0  0  0  0  0  0
   58.4730   28.0410   46.9240 C   0  0  0  0  0  0  0  0  0  0  0  0
   59.1510   29.1780   47.3570 C   0  0  0  0  0  0  0  0  0  0  0  0
   59.0750   30.3760   46.6290 C   0  0  0  0  0  0  0  0  0  0  0  0
   59.7470   31.4820   47.0640 N   0  0  0  0  0  0  0  0  0  0  0  0
   59.6690   32.6760   46.3990 C   0  0  0  0  0  0  0  0  0  0  0  0
   60.3010   33.7420   46.8090 N   0  0  0  0  0  0  0  0  0  0  0  0
   61.4890   33.8040   47.6140 C   0  0  0  0  0  0  0  0  0  0  0  0
   62.7500   33.4480   47.0930 C   0  0  0  0  0  0  0  0  0  0  0  0
   63.8800   33.4470   47.9180 C   0  0  0  0  0  0  0  0  0  0  0  0
   63.7550   33.7720   49.2720 C   0  0  0  0  0  0  0  0  0  0  0  0
   62.4970   34.0900   49.8040 C   0  0  0  0  0  0  0  0  0  0  0  0
   61.3670   34.0940   48.9800 C   0  0  0  0  0  0  0  0  0  0  0  0
   58.9230   32.7650   45.2190 C   0  0  0  0  0  0  0  0  0  0  0  0
   58.2250   31.6520   44.7320 C   0  0  0  0  0  0  0  0  0  0  0  0
   57.4230   31.7930   43.4610 C   0  0  0  0  0  0  0  0  0  0  0  0
   58.2970   30.4310   45.4460 C   0  0  0  0  0  0  0  0  0  0  0  0
   57.6260   29.2680   45.0130 C   0  0  0  0  0  0  0  0  0  0  0  0
   57.0114   20.5832   46.9966 H   0  0  0  0  0  0  0  0  0  0  0  0
   55.9903   20.4350   45.5262 H   0  0  0  0  0  0  0  0  0  0  0  0
   57.4107   21.5346   45.5262 H   0  0  0  0  0  0  0  0  0  0  0  0
   53.8238   20.3109   46.7138 H   0  0  0  0  0  0  0  0  0  0  0  0
   51.4301   20.6647   46.1064 H   0  0  0  0  0  0  0  0  0  0  0  0
   50.6518   22.8990   45.3280 H   0  0  0  0  0  0  0  0  0  0  0  0
   52.2611   24.7915   45.1588 H   0  0  0  0  0  0  0  0  0  0  0  0
   56.6570   23.5510   45.8020 H   0  0  0  0  0  0  0  0  0  0  0  0
   56.2970   27.0320   44.5140 H   0  0  0  0  0  0  0  0  0  0  0  0
   58.5261   27.1152   47.5156 H   0  0  0  0  0  0  0  0  0  0  0  0
   59.7515   29.1369   48.2777 H   0  0  0  0  0  0  0  0  0  0  0  0
   60.3610   31.3840   47.9040 H   0  0  0  0  0  0  0  0  0  0  0  0
   62.8457   33.1698   46.0331 H   0  0  0  0  0  0  0  0  0  0  0  0
   64.8655   33.1908   47.5018 H   0  0  0  0  0  0  0  0  0  0  0  0
   64.6437   33.7783   49.9203 H   0  0  0  0  0  0  0  0  0  0  0  0
   62.3989   34.3368   50.8715 H   0  0  0  0  0  0  0  0  0  0  0  0
   60.3793   34.3255   49.4052 H   0  0  0  0  0  0  0  0  0  0  0  0
   58.8840   33.7167   44.6688 H   0  0  0  0  0  0  0  0  0  0  0  0
   56.3681   31.9785   43.7117 H   0  0  0  0  0  0  0  0  0  0  0  0
   57.8137   32.6362   42.8725 H   0  0  0  0  0  0  0  0  0  0  0  0
   57.5027   30.8671   42.8725 H   0  0  0  0  0  0  0  0  0  0  0  0
   57.0197   29.3017   44.0958 H   0  0  0  0  0  0  0  0  0  0  0  0
  1  2  1  0
  2  3  1  0
  3  4  2  0
  4  5  1  0
  5  6  2  0
  6  7  1  0
  7  8  2  0
  8  9  1  0
  9 10  2  0
  9 11  1  0
 11 12  1  0
 12 13  2  0
 12 14  1  0
 14 15  1  0
 15 16  2  0
 16 17  1  0
 17 18  2  0
 18 19  1  0
 19 20  1  0
 20 21  2  3
 21 22  1  0
 22 23  2  0
 23 24  1  0
 24 25  2  0
 25 26  1  0
 26 27  2  0
 20 28  1  0
 28 29  2  0
 29 30  1  0
 29 31  1  0
 31 32  2  0
  8  3  1  0
 32 15  1  0
 31 18  1  0
 27 22  1  0
  1 33  1  0
  1 34  1  0
  1 35  1  0
  4 36  1  0
  5 37  1  0
  6 38  1  0
  7 39  1  0
 11 40  1  0
 14 41  1  0
 16 42  1  0
 17 43  1  0
 19 44  1  0
 23 45  1  0
 24 46  1  0
 25 47  1  0
 26 48  1  0
 27 49  1  0
 28 50  1  0
 30 51  1  0
 30 52  1  0
 30 53  1  0
 32 54  1  0
M  END
>  <UniqueID>  (31) 
29

>  <SMILES>  (31) 
COc1ccccc1C(=O)NC(=O)Nc1ccc2[nH]c(=Nc3ccccc3)cc(C)c2c1

>  <Energy>  (31) 
82.31120942852627

>  <Genealogy>  (31) 
COc1ccccc1C(=O)NC(=O)Nc1ccc2[nH]c(=Nc3ccccc3)cc(C)c2c1 (3D coordinates assigned)
COc1ccccc1C(=O)NC(=O)Nc1ccc2[nH]c(=Nc3ccccc3)cc(C)c2c1 (optimized conformer: 82.31120942852627 kcal/mol)

>  <smiles>  (31) 
COc1ccccc1C(=O)NC(=O)Nc1ccc2[nH]c(=Nc3ccccc3)cc(C)c2c1

>  <score_type>  (31) 
oracle

>  <origin>  (31) 
adg

>  <m_score__min__energy>  (31) 
-8.3399999999999999

>  <m_primary>  (31) 
energy

$$$$
31:0
     RDKit          3D

 38 39  0  0  0  0  0  0  0  0999 V2000
   57.0070   29.7910   45.4740 H   0  0  0  0  0  0  0  0  0  0  0  0
   57.4100   30.6870   45.6130 O   0  0  0  0  0  0  0  0  0  0  0  0
   58.7940   30.4970   45.7370 C   0  0  0  0  0  0  0  0  0  0  0  0
   59.0010   29.9283   46.6555 H   0  0  0  0  0  0  0  0  0  0  0  0
   59.2867   31.4795   45.7820 H   0  0  0  0  0  0  0  0  0  0  0  0
   59.3360   29.7240   44.5320 C   0  0  0  0  0  0  0  0  0  0  0  0
   59.8713   30.4238   43.8734 H   0  0  0  0  0  0  0  0  0  0  0  0
   58.4825   29.2620   44.0143 H   0  0  0  0  0  0  0  0  0  0  0  0
   60.3010   28.6000   44.9510 C   0  0  0  0  0  0  0  0  0  0  0  0
   61.3164   28.8595   44.6169 H   0  0  0  0  0  0  0  0  0  0  0  0
   59.9586   27.6641   44.4852 H   0  0  0  0  0  0  0  0  0  0  0  0
   60.3150   28.3980   46.4750 C   0  0  0  0  0  0  0  0  0  0  0  0
   59.4251   28.8816   46.9043 H   0  0  0  0  0  0  0  0  0  0  0  0
   61.2417   28.8439   46.8655 H   0  0  0  0  0  0  0  0  0  0  0  0
   60.3070   26.9400   46.8580 C   0  0  0  0  0  0  0  0  0  0  0  0
   61.2371   26.5072   47.2551 H   0  0  0  0  0  0  0  0  0  0  0  0
   59.2410   26.1380   46.7460 C   0  0  0  0  0  0  0  0  0  0  0  0
   59.3846   25.0667   46.9502 H   0  0  0  0  0  0  0  0  0  0  0  0
   57.8860   26.5880   46.3680 C   0  0  0  0  0  0  0  0  0  0  0  0
   57.6070   27.7300   45.7760 O   0  0  0  0  0  0  0  0  0  0  0  0
   56.3130   27.7820   45.5690 C   0  0  0  0  0  0  0  0  0  0  0  0
   55.6610   28.8540   44.9790 O   0  0  0  0  0  0  0  0  0  0  0  0
   55.7120   26.6440   46.0460 C   0  0  0  0  0  0  0  0  0  0  0  0
   54.3580   26.3400   45.9930 O   0  0  0  0  0  0  0  0  0  0  0  0
   56.7150   25.8730   46.5880 C   0  0  0  0  0  0  0  0  0  0  0  0
   56.5660   24.2410   47.3260 S   0  0  0  0  0  0  0  0  0  0  0  0
   56.9660   23.3640   45.8020 C   0  0  0  0  0  0  0  0  0  0  0  0
   58.3070   23.0280   45.5660 C   0  0  0  0  0  0  0  0  0  0  0  0
   59.0780   23.3129   46.2971 H   0  0  0  0  0  0  0  0  0  0  0  0
   58.6710   22.3340   44.4090 C   0  0  0  0  0  0  0  0  0  0  0  0
   59.7269   22.0861   44.2257 H   0  0  0  0  0  0  0  0  0  0  0  0
   57.6940   21.9550   43.4850 C   0  0  0  0  0  0  0  0  0  0  0  0
   57.9818   21.4103   42.5737 H   0  0  0  0  0  0  0  0  0  0  0  0
   56.3510   22.2670   43.7170 C   0  0  0  0  0  0  0  0  0  0  0  0
   55.5842   21.9644   42.9887 H   0  0  0  0  0  0  0  0  0  0  0  0
   55.9780   22.9650   44.8760 C   0  0  0  0  0  0  0  0  0  0  0  0
   54.5850   23.2700   45.0880 C   0  0  0  0  0  0  0  0  0  0  0  0
   53.4680   23.5230   45.2520 N   0  0  0  0  0  0  0  0  0  0  0  0
  1  2  1  0
  2  3  1  0
  3  4  1  0
  3  5  1  0
  3  6  1  0
  6  7  1  0
  6  8  1  0
  6  9  1  0
  9 10  1  0
  9 11  1  0
  9 12  1  0
 12 13  1  0
 12 14  1  0
 12 15  1  0
 15 16  1  0
 15 17  2  0
 17 18  1  0
 17 19  1  0
 19 20  1  0
 20 21  1  0
 21 22  1  0
 21 23  2  0
 23 24  1  0
 23 25  1  0
 25 26  1  0
 26 27  1  0
 27 28  2  0
 28 29  1  0
 28 30  1  0
 30 31  1  0
 30 32  2  0
 32 33  1  0
 32 34  1  0
 34 35  1  0
 34 36  2  0
 36 37  1  0
 37 38  3  0
 25 19  2  0
 36 27  1  0
M  CHG  2  22  -1  24  -1
M  END
>  <UniqueID>  (32) 
30

>  <SMILES>  (32) 
N#Cc1ccccc1Sc1c(/C=C\CCCCO)oc([O-])c1[O-]

>  <Energy>  (32) 
61.451734510282655

>  <Genealogy>  (32) 
N#Cc1ccccc1Sc1c(C=CCCCCO)oc([O-])c1[O-] (protonated)
N#Cc1ccccc1Sc1c(/C=C\CCCCO)oc([O-])c1[O-] (cis-trans isomerization)
N#Cc1ccccc1Sc1c(/C=C\CCCCO)oc([O-])c1[O-] (3D coordinates assigned)
N#Cc1ccccc1Sc1c(/C=C\CCCCO)oc([O-])c1[O-] (optimized conformer: 61.451734510282655 kcal/mol)

>  <smiles>  (32) 
N#Cc1ccccc1Sc1c(C=CCCCCO)oc(O)c1O

>  <score_type>  (32) 
oracle

>  <origin>  (32) 
adg

>  <m_score__min__energy>  (32) 
-12.119999999999999

>  <m_primary>  (32) 
energy

$$$$
32:0
     RDKit          3D

 50 52  0  0  0  0  0  0  0  0999 V2000
   49.9220   34.3050   54.2520 C   0  0  0  0  0  0  0  0  0  0  0  0
   50.3610   33.2450   53.3010 C   0  0  0  0  0  0  0  0  0  0  0  0
   50.5080   31.9050   53.5880 C   0  0  0  0  0  0  0  0  0  0  0  0
   50.9340   31.3780   52.3820 C   0  0  0  0  0  0  0  0  0  0  0  0
   51.2070   30.1340   52.1290 N   0  0  0  0  0  0  0  0  0  0  0  0
   52.1790   29.1230   53.1480 S   0  0  0  0  0  0  0  0  0  0  0  0
   52.0200   27.6840   52.7400 O   0  0  0  0  0  0  0  0  0  0  0  0
   51.7510   29.2810   54.5790 O   0  0  0  0  0  0  0  0  0  0  0  0
   53.8660   29.5900   52.9820 C   0  0  0  0  0  0  0  0  0  0  0  0
   54.8840   28.6460   53.1730 C   0  0  0  0  0  0  0  0  0  0  0  0
   56.2240   29.0120   53.0170 C   0  0  0  0  0  0  0  0  0  0  0  0
   56.5670   30.3310   52.6870 C   0  0  0  0  0  0  0  0  0  0  0  0
   57.9490   30.6680   52.4740 N   0  0  0  0  0  0  0  0  0  0  0  0
   58.4890   31.0990   51.2180 C   0  0  0  0  0  0  0  0  0  0  0  0
   57.7370   31.5870   50.3310 O   0  0  0  0  0  0  0  0  0  0  0  0
   59.9000   31.0160   50.9970 N   0  0  0  0  0  0  0  0  0  0  0  0
   60.4940   30.7060   49.7020 C   0  0  0  0  0  0  0  0  0  0  0  0
   60.4680   29.2240   49.4490 C   0  0  0  0  0  0  0  0  0  0  0  0
   61.4940   28.5390   49.6950 O   0  0  0  0  0  0  0  0  0  0  0  0
   59.2940   28.5630   48.9590 N   0  0  0  0  0  0  0  0  0  0  0  0
   58.9970   28.2640   47.5890 C   0  0  0  0  0  0  0  0  0  0  0  0
   59.6540   27.1960   46.9690 C   0  0  0  0  0  0  0  0  0  0  0  0
   59.4110   26.9020   45.6230 C   0  0  0  0  0  0  0  0  0  0  0  0
   58.5220   27.6860   44.8840 C   0  0  0  0  0  0  0  0  0  0  0  0
   57.8750   28.7750   45.4870 C   0  0  0  0  0  0  0  0  0  0  0  0
   56.7920   29.8010   44.5520 S   0  0  0  0  0  0  0  0  0  0  0  0
   55.1540   29.3450   44.8640 N   0  0  0  0  0  0  0  0  0  0  0  0
   57.0880   29.6380   43.0890 O   0  0  0  0  0  0  0  0  0  0  0  0
   56.9920   31.2440   44.9260 O   0  0  0  0  0  0  0  0  0  0  0  0
   58.1240   29.0690   46.8350 C   0  0  0  0  0  0  0  0  0  0  0  0
   55.5410   31.2780   52.4960 C   0  0  0  0  0  0  0  0  0  0  0  0
   54.2000   30.9090   52.6520 C   0  0  0  0  0  0  0  0  0  0  0  0
   51.0340   32.3480   51.4560 N   0  0  0  0  0  0  0  0  0  0  0  0
   50.6800   33.4560   52.0430 O   0  0  0  0  0  0  0  0  0  0  0  0
   50.0672   33.9543   55.2844 H   0  0  0  0  0  0  0  0  0  0  0  0
   50.5172   35.2152   54.0868 H   0  0  0  0  0  0  0  0  0  0  0  0
   48.8576   34.5279   54.0868 H   0  0  0  0  0  0  0  0  0  0  0  0
   50.3305   31.3837   54.5402 H   0  0  0  0  0  0  0  0  0  0  0  0
   54.6273   27.6121   53.4470 H   0  0  0  0  0  0  0  0  0  0  0  0
   57.0150   28.2600   53.1541 H   0  0  0  0  0  0  0  0  0  0  0  0
   58.6060   30.6040   53.2850 H   0  0  0  0  0  0  0  0  0  0  0  0
   59.9253   31.2177   48.9116 H   0  0  0  0  0  0  0  0  0  0  0  0
   61.5396   31.0477   49.7005 H   0  0  0  0  0  0  0  0  0  0  0  0
   60.3655   26.5840   47.5428 H   0  0  0  0  0  0  0  0  0  0  0  0
   59.9208   26.0521   45.1459 H   0  0  0  0  0  0  0  0  0  0  0  0
   58.3289   27.4491   43.8273 H   0  0  0  0  0  0  0  0  0  0  0  0
   55.1730   28.6720   45.6640 H   0  0  0  0  0  0  0  0  0  0  0  0
   57.6339   29.9340   47.3057 H   0  0  0  0  0  0  0  0  0  0  0  0
   55.7955   32.3127   52.2228 H   0  0  0  0  0  0  0  0  0  0  0  0
   53.4059   31.6577   52.5149 H   0  0  0  0  0  0  0  0  0  0  0  0
  1  2  1  0
  2  3  2  0
  3  4  1  0
  4  5  2  3
  5  6  1  0
  6  7  2  0
  6  8  2  0
  6  9  1  0
  9 10  2  0
 10 11  1  0
 11 12  2  0
 12 13  1  0
 13 14  1  0
 14 15  2  0
 14 16  1  0
 16 17  1  0
 17 18  1  0
 18 19  2  0
 18 20  1  0
 20 21  1  0
 21 22  2  0
 22 23  1  0
 23 24  2  0
 24 25  1  0
 25 26  1  0
 26 27  1  0
 26 28  2  0
 26 29  2  0
 25 30  2  0
 12 31  1  0
 31 32  2  0
  4 33  1  0
 33 34  1  0
 34  2  1  0
 32  9  1  0
 30 21  1  0
  1 35  1  0
  1 36  1  0
  1 37  1  0
  3 38  1  0
 10 39  1  0
 11 40  1  0
 13 41  1  0
 17 42  1  0
 17 43  1  0
 22 44  1  0
 23 45  1  0
 24 46  1  0
 27 47  1  0
 30 48  1  0
 31 49  1  0
 32 50  1  0
M  CHG  4  16  -1  20  -1  27  -1  33  -1
M  END
>  <UniqueID>  (33) 
31

>  <SMILES>  (33) 
Cc1cc(=NS(=O)(=O)c2ccc(NC(=O)[N-]CC(=O)[N-]c3cccc(S([NH-])(=O)=O)c3)cc2)[n-]o1

>  <Energy>  (33) 
91.4344640155262

>  <Genealogy>  (33) 
Cc1cc(=NS(=O)(=O)c2ccc(NC(=O)[N-]CC(=O)[N-]c3cccc(S([NH-])(=O)=O)c3)cc2)[n-]o1 (protonated)
Cc1cc(=NS(=O)(=O)c2ccc(NC(=O)[N-]CC(=O)[N-]c3cccc(S([NH-])(=O)=O)c3)cc2)[n-]o1 (3D coordinates assigned)
Cc1cc(=NS(=O)(=O)c2ccc(NC(=O)[N-]CC(=O)[N-]c3cccc(S([NH-])(=O)=O)c3)cc2)[n-]o1 (optimized conformer: 91.4344640155262 kcal/mol)

>  <smiles>  (33) 
Cc1cc(=NS(=O)(=O)c2ccc(NC(=O)NCC(=O)Nc3cccc(S(N)(=O)=O)c3)cc2)[nH]o1

>  <score_type>  (33) 
oracle

>  <origin>  (33) 
adg

>  <m_score__min__energy>  (33) 
-16.48

>  <m_primary>  (33) 
energy

$$$$
33:0
     RDKit          3D

 34 36  0  0  0  0  0  0  0  0999 V2000
   57.4920   34.5460   44.8610 C   0  0  0  0  0  0  0  0  0  0  0  0
   58.3950   33.7290   45.7540 C   0  0  0  0  0  0  0  0  0  0  0  0
   59.4100   34.3690   46.5040 C   0  0  0  0  0  0  0  0  0  0  0  0
   59.6140   35.7500   46.4510 O   0  0  0  0  0  0  0  0  0  0  0  0
   60.2480   33.6170   47.3300 C   0  0  0  0  0  0  0  0  0  0  0  0
   60.0990   32.2350   47.4280 C   0  0  0  0  0  0  0  0  0  0  0  0
   59.0980   31.5760   46.6970 C   0  0  0  0  0  0  0  0  0  0  0  0
   58.9260   30.1810   46.7760 C   0  0  0  0  0  0  0  0  0  0  0  0
   59.7040   29.4840   47.4850 O   0  0  0  0  0  0  0  0  0  0  0  0
   57.8990   29.5540   46.0440 C   0  0  0  0  0  0  0  0  0  0  0  0
   57.7100   28.1650   46.1140 O   0  0  0  0  0  0  0  0  0  0  0  0
   57.7000   27.2980   45.0110 C   0  0  0  0  0  0  0  0  0  0  0  0
   58.1540   27.6990   43.7400 C   0  0  0  0  0  0  0  0  0  0  0  0
   58.1390   26.7980   42.6710 C   0  0  0  0  0  0  0  0  0  0  0  0
   57.6810   25.4910   42.8620 C   0  0  0  0  0  0  0  0  0  0  0  0
   57.2430   25.0830   44.1250 C   0  0  0  0  0  0  0  0  0  0  0  0
   57.2580   25.9820   45.1970 C   0  0  0  0  0  0  0  0  0  0  0  0
   57.0860   30.3360   45.1990 C   0  0  0  0  0  0  0  0  0  0  0  0
   56.0050   29.7510   44.3780 C   0  0  0  0  0  0  0  0  0  0  0  0
   55.1450   29.0050   44.9190 O   0  0  0  0  0  0  0  0  0  0  0  0
   55.9110   30.0030   43.0150 O   0  0  0  0  0  0  0  0  0  0  0  0
   57.2830   31.6800   45.1400 N   0  0  0  0  0  0  0  0  0  0  0  0
   58.2450   32.3250   45.8560 C   0  0  0  0  0  0  0  0  0  0  0  0
   56.8180   35.1558   45.4805 H   0  0  0  0  0  0  0  0  0  0  0  0
   58.1027   35.2047   44.2260 H   0  0  0  0  0  0  0  0  0  0  0  0
   56.8976   33.8726   44.2260 H   0  0  0  0  0  0  0  0  0  0  0  0
   59.2060   36.3970   47.1130 H   0  0  0  0  0  0  0  0  0  0  0  0
   61.0348   34.1214   47.9100 H   0  0  0  0  0  0  0  0  0  0  0  0
   60.7692   31.6574   48.0816 H   0  0  0  0  0  0  0  0  0  0  0  0
   58.5217   28.7245   43.5876 H   0  0  0  0  0  0  0  0  0  0  0  0
   58.4881   27.1180   41.6782 H   0  0  0  0  0  0  0  0  0  0  0  0
   57.6654   24.7844   42.0191 H   0  0  0  0  0  0  0  0  0  0  0  0
   56.8860   24.0536   44.2764 H   0  0  0  0  0  0  0  0  0  0  0  0
   56.9209   25.6535   46.1912 H   0  0  0  0  0  0  0  0  0  0  0  0
  1  2  1  0
  2  3  2  0
  3  4  1  0
  3  5  1  0
  5  6  2  0
  6  7  1  0
  7  8  1  0
  8  9  2  0
  8 10  1  0
 10 11  1  0
 11 12  1  0
 12 13  2  0
 13 14  1  0
 14 15  2  0
 15 16  1  0
 16 17  2  0
 10 18  2  0
 18 19  1  0
 19 20  2  0
 19 21  1  0
 18 22  1  0
 22 23  1  0
 23  2  1  0
 23  7  2  0
 17 12  1  0
  1 24  1  0
  1 25  1  0
  1 26  1  0
  4 27  1  0
  5 28  1  0
  6 29  1  0
 13 30  1  0
 14 31  1  0
 15 32  1  0
 16 33  1  0
 17 34  1  0
M  CHG  2  21  -1  22  -1
M  END
>  <UniqueID>  (34) 
32

>  <SMILES>  (34) 
Cc1c(O)ccc2c(=O)c(Oc3ccccc3)c(C(=O)[O-])[n-]c12

>  <Energy>  (34) 
52.72112717992375

>  <Genealogy>  (34) 
Cc1c(O)ccc2c(=O)c(Oc3ccccc3)c(C(=O)[O-])[n-]c12 (protonated)
Cc1c(O)ccc2c(=O)c(Oc3ccccc3)c(C(=O)[O-])[n-]c12 (3D coordinates assigned)
Cc1c(O)ccc2c(=O)c(Oc3ccccc3)c(C(=O)[O-])[n-]c12 (optimized conformer: 52.72112717992375 kcal/mol)

>  <smiles>  (34) 
Cc1c(O)ccc2c(=O)c(Oc3ccccc3)c(C(=O)O)[nH]c12

>  <score_type>  (34) 
oracle

>  <origin>  (34) 
adg

>  <m_score__min__energy>  (34) 
-10.48

>  <m_primary>  (34) 
energy

$$$$
34:0
     RDKit          3D

 52 55  0  0  0  0  0  0  0  0999 V2000
   55.6610   29.2390   52.3170 O   0  0  0  0  0  0  0  0  0  0  0  0
   55.2470   30.4070   52.0790 C   0  0  0  0  0  0  0  0  0  0  0  0
   56.1590   31.4130   51.6020 N   0  0  0  0  0  0  0  0  0  0  0  0
   57.5780   31.2220   51.4720 C   0  0  0  0  0  0  0  0  0  0  0  0
   58.4890   31.8460   52.3450 C   0  0  0  0  0  0  0  0  0  0  0  0
   59.8630   31.6530   52.1830 C   0  0  0  0  0  0  0  0  0  0  0  0
   60.3420   30.8640   51.1350 C   0  0  0  0  0  0  0  0  0  0  0  0
   59.4540   30.2730   50.2240 C   0  0  0  0  0  0  0  0  0  0  0  0
   59.9800   29.5070   49.1230 N   0  0  0  0  0  0  0  0  0  0  0  0
   59.3390   28.3090   48.5790 C   0  0  0  0  0  0  0  0  0  0  0  0
   58.8200   28.5700   47.1900 C   0  0  0  0  0  0  0  0  0  0  0  0
   58.8220   27.5540   46.2210 C   0  0  0  0  0  0  0  0  0  0  0  0
   58.3220   27.8010   44.9400 C   0  0  0  0  0  0  0  0  0  0  0  0
   57.8170   29.0620   44.6160 C   0  0  0  0  0  0  0  0  0  0  0  0
   57.8010   30.0860   45.5770 C   0  0  0  0  0  0  0  0  0  0  0  0
   57.3100   31.3660   45.2830 O   0  0  0  0  0  0  0  0  0  0  0  0
   57.9730   32.5690   45.5660 C   0  0  0  0  0  0  0  0  0  0  0  0
   58.0950   32.9750   46.9020 C   0  0  0  0  0  0  0  0  0  0  0  0
   58.7370   34.1760   47.2210 C   0  0  0  0  0  0  0  0  0  0  0  0
   59.2480   34.9870   46.2050 C   0  0  0  0  0  0  0  0  0  0  0  0
   59.1150   34.6020   44.8680 C   0  0  0  0  0  0  0  0  0  0  0  0
   58.4760   33.4000   44.5470 C   0  0  0  0  0  0  0  0  0  0  0  0
   58.3250   29.8410   46.8520 C   0  0  0  0  0  0  0  0  0  0  0  0
   58.0700   30.4520   50.4060 C   0  0  0  0  0  0  0  0  0  0  0  0
   53.8130   30.7160   52.2940 C   0  0  0  0  0  0  0  0  0  0  0  0
   53.1610   30.3650   53.4920 C   0  0  0  0  0  0  0  0  0  0  0  0
   51.8070   30.6620   53.6740 C   0  0  0  0  0  0  0  0  0  0  0  0
   51.0920   31.3150   52.6660 C   0  0  0  0  0  0  0  0  0  0  0  0
   51.7300   31.6810   51.4790 C   0  0  0  0  0  0  0  0  0  0  0  0
   51.0180   32.3380   50.4820 O   0  0  0  0  0  0  0  0  0  0  0  0
   53.0860   31.3890   51.2950 C   0  0  0  0  0  0  0  0  0  0  0  0
   55.7750   32.3300   51.2830 H   0  0  0  0  0  0  0  0  0  0  0  0
   58.1177   32.4878   53.1575 H   0  0  0  0  0  0  0  0  0  0  0  0
   60.5694   32.1237   52.8826 H   0  0  0  0  0  0  0  0  0  0  0  0
   61.4246   30.7046   51.0230 H   0  0  0  0  0  0  0  0  0  0  0  0
   60.8110   29.8790   48.6080 H   0  0  0  0  0  0  0  0  0  0  0  0
   60.0734   27.4909   48.5427 H   0  0  0  0  0  0  0  0  0  0  0  0
   58.4941   28.0335   49.2273 H   0  0  0  0  0  0  0  0  0  0  0  0
   59.2190   26.5592   46.4715 H   0  0  0  0  0  0  0  0  0  0  0  0
   58.3261   27.0007   44.1853 H   0  0  0  0  0  0  0  0  0  0  0  0
   57.4303   29.2540   43.6043 H   0  0  0  0  0  0  0  0  0  0  0  0
   57.6833   32.3453   47.7045 H   0  0  0  0  0  0  0  0  0  0  0  0
   58.8395   34.4820   48.2726 H   0  0  0  0  0  0  0  0  0  0  0  0
   59.7556   35.9297   46.4574 H   0  0  0  0  0  0  0  0  0  0  0  0
   59.5128   35.2442   44.0684 H   0  0  0  0  0  0  0  0  0  0  0  0
   58.3660   33.1026   43.4937 H   0  0  0  0  0  0  0  0  0  0  0  0
   58.3494   30.6509   47.5960 H   0  0  0  0  0  0  0  0  0  0  0  0
   57.3648   29.9827   49.7042 H   0  0  0  0  0  0  0  0  0  0  0  0
   53.7205   29.8540   54.2894 H   0  0  0  0  0  0  0  0  0  0  0  0
   51.3040   30.3816   54.6112 H   0  0  0  0  0  0  0  0  0  0  0  0
   50.0249   31.5410   52.8080 H   0  0  0  0  0  0  0  0  0  0  0  0
   53.5872   31.6878   50.3625 H   0  0  0  0  0  0  0  0  0  0  0  0
  1  2  2  0
  2  3  1  0
  3  4  1  0
  4  5  2  0
  5  6  1  0
  6  7  2  0
  7  8  1  0
  8  9  1  0
  9 10  1  0
 10 11  1  0
 11 12  2  0
 12 13  1  0
 13 14  2  0
 14 15  1  0
 15 16  1  0
 16 17  1  0
 17 18  2  0
 18 19  1  0
 19 20  2  0
 20 21  1  0
 21 22  2  0
 15 23  2  0
  8 24  2  0
  2 25  1  0
 25 26  2  0
 26 27  1  0
 27 28  2  0
 28 29  1  0
 29 30  1  0
 29 31  2  0
 24  4  1  0
 31 25  1  0
 23 11  1  0
 22 17  1  0
  3 32  1  0
  5 33  1  0
  6 34  1  0
  7 35  1  0
  9 36  1  0
 10 37  1  0
 10 38  1  0
 12 39  1  0
 13 40  1  0
 14 41  1  0
 18 42  1  0
 19 43  1  0
 20 44  1  0
 21 45  1  0
 22 46  1  0
 23 47  1  0
 24 48  1  0
 26 49  1  0
 27 50  1  0
 28 51  1  0
 31 52  1  0
M  CHG  1  30  -1
M  END
>  <UniqueID>  (35) 
33

>  <SMILES>  (35) 
O=C(Nc1cccc(NCc2cccc(Oc3ccccc3)c2)c1)c1cccc([O-])c1

>  <Energy>  (35) 
69.52039341561573

>  <Genealogy>  (35) 
O=C(Nc1cccc(NCc2cccc(Oc3ccccc3)c2)c1)c1cccc([O-])c1 (protonated)
O=C(Nc1cccc(NCc2cccc(Oc3ccccc3)c2)c1)c1cccc([O-])c1 (3D coordinates assigned)
O=C(Nc1cccc(NCc2cccc(Oc3ccccc3)c2)c1)c1cccc([O-])c1 (optimized conformer: 69.52039341561573 kcal/mol)

>  <smiles>  (35) 
O=C(Nc1cccc(NCc2cccc(Oc3ccccc3)c2)c1)c1cccc(O)c1

>  <score_type>  (35) 
oracle

>  <origin>  (35) 
adg

>  <m_score__min__energy>  (35) 
-14.23

>  <m_primary>  (35) 
energy

$$$$
35:0
     RDKit          3D

 55 58  0  0  0  0  0  0  0  0999 V2000
   57.6650   31.0150   51.1910 C   0  0  0  0  0  0  0  0  0  0  0  0
   58.9870   30.7450   50.5450 C   0  0  0  0  0  0  0  0  0  0  0  0
   59.4350   29.4350   50.3410 C   0  0  0  0  0  0  0  0  0  0  0  0
   60.6500   29.2430   49.6810 C   0  0  0  0  0  0  0  0  0  0  0  0
   61.3610   30.3140   49.2380 N   0  0  0  0  0  0  0  0  0  0  0  0
   60.9080   31.5820   49.4260 C   0  0  0  0  0  0  0  0  0  0  0  0
   61.6050   32.5830   48.9850 N   0  0  0  0  0  0  0  0  0  0  0  0
   61.0510   33.6990   47.7740 S   0  0  0  0  0  0  0  0  0  0  0  0
   62.2000   34.0460   46.8670 O   0  0  0  0  0  0  0  0  0  0  0  0
   60.5690   34.9620   48.4330 O   0  0  0  0  0  0  0  0  0  0  0  0
   59.7600   32.9750   46.8170 C   0  0  0  0  0  0  0  0  0  0  0  0
   59.7800   31.6030   46.5250 C   0  0  0  0  0  0  0  0  0  0  0  0
   58.7300   31.0220   45.8040 C   0  0  0  0  0  0  0  0  0  0  0  0
   57.6380   31.7990   45.4010 C   0  0  0  0  0  0  0  0  0  0  0  0
   56.5350   31.1720   44.7310 N   0  0  0  0  0  0  0  0  0  0  0  0
   56.6700   30.3060   43.5980 C   0  0  0  0  0  0  0  0  0  0  0  0
   56.4040   30.7560   42.4520 O   0  0  0  0  0  0  0  0  0  0  0  0
   57.1620   28.9160   43.7430 C   0  0  0  0  0  0  0  0  0  0  0  0
   57.3880   28.1170   42.6110 C   0  0  0  0  0  0  0  0  0  0  0  0
   57.8280   26.7970   42.7540 C   0  0  0  0  0  0  0  0  0  0  0  0
   58.0550   26.2670   44.0280 C   0  0  0  0  0  0  0  0  0  0  0  0
   57.8500   27.0600   45.1640 C   0  0  0  0  0  0  0  0  0  0  0  0
   58.1390   26.4220   46.7800 S   0  0  0  0  0  0  0  0  0  0  0  0
   59.5910   26.0590   46.8940 O   0  0  0  0  0  0  0  0  0  0  0  0
   57.8100   27.4410   47.8350 O   0  0  0  0  0  0  0  0  0  0  0  0
   57.1830   24.9970   47.0310 N   0  0  0  0  0  0  0  0  0  0  0  0
   56.9850   23.9580   46.0650 C   0  0  0  0  0  0  0  0  0  0  0  0
   57.9770   23.0010   45.7860 C   0  0  0  0  0  0  0  0  0  0  0  0
   57.7230   21.9750   44.8720 C   0  0  0  0  0  0  0  0  0  0  0  0
   56.4930   21.9080   44.2080 C   0  0  0  0  0  0  0  0  0  0  0  0
   56.2540   20.8740   43.3040 O   0  0  0  0  0  0  0  0  0  0  0  0
   55.5150   22.8760   44.4590 C   0  0  0  0  0  0  0  0  0  0  0  0
   55.7610   23.8960   45.3850 C   0  0  0  0  0  0  0  0  0  0  0  0
   57.4180   28.3830   45.0180 C   0  0  0  0  0  0  0  0  0  0  0  0
   57.6300   33.1790   45.6720 C   0  0  0  0  0  0  0  0  0  0  0  0
   58.6890   33.7640   46.3690 C   0  0  0  0  0  0  0  0  0  0  0  0
   59.7260   31.7850   50.0690 N   0  0  0  0  0  0  0  0  0  0  0  0
   57.7798   30.9916   52.2847 H   0  0  0  0  0  0  0  0  0  0  0  0
   57.3013   32.0060   50.8816 H   0  0  0  0  0  0  0  0  0  0  0  0
   56.9419   30.2460   50.8816 H   0  0  0  0  0  0  0  0  0  0  0  0
   58.8436   28.5767   50.6925 H   0  0  0  0  0  0  0  0  0  0  0  0
   61.0325   28.2244   49.5192 H   0  0  0  0  0  0  0  0  0  0  0  0
   60.6227   30.9822   46.8634 H   0  0  0  0  0  0  0  0  0  0  0  0
   58.7634   29.9514   45.5535 H   0  0  0  0  0  0  0  0  0  0  0  0
   57.2182   28.5312   41.6062 H   0  0  0  0  0  0  0  0  0  0  0  0
   57.9958   26.1747   41.8626 H   0  0  0  0  0  0  0  0  0  0  0  0
   58.3948   25.2266   44.1380 H   0  0  0  0  0  0  0  0  0  0  0  0
   58.9540   23.0602   46.2879 H   0  0  0  0  0  0  0  0  0  0  0  0
   58.4940   21.2160   44.6734 H   0  0  0  0  0  0  0  0  0  0  0  0
   56.7840   20.0110   43.3380 H   0  0  0  0  0  0  0  0  0  0  0  0
   54.5523   22.8355   43.9284 H   0  0  0  0  0  0  0  0  0  0  0  0
   54.9885   24.6543   45.5805 H   0  0  0  0  0  0  0  0  0  0  0  0
   57.2775   29.0117   45.9096 H   0  0  0  0  0  0  0  0  0  0  0  0
   56.7869   33.7994   45.3338 H   0  0  0  0  0  0  0  0  0  0  0  0
   58.6840   34.8459   46.5675 H   0  0  0  0  0  0  0  0  0  0  0  0
  1  2  1  0
  2  3  1  0
  3  4  2  0
  4  5  1  0
  5  6  1  0
  6  7  2  3
  7  8  1  0
  8  9  2  0
  8 10  2  0
  8 11  1  0
 11 12  2  0
 12 13  1  0
 13 14  2  0
 14 15  1  0
 15 16  1  0
 16 17  2  0
 16 18  1  0
 18 19  2  0
 19 20  1  0
 20 21  2  0
 21 22  1  0
 22 23  1  0
 23 24  2  0
 23 25  2  0
 23 26  1  0
 26 27  1  0
 27 28  2  0
 28 29  1  0
 29 30  2  0
 30 31  1  0
 30 32  1  0
 32 33  2  0
 22 34  2  0
 14 35  1  0
 35 36  2  0
  6 37  1  0
 37  2  2  0
 36 11  1  0
 34 18  1  0
 33 27  1  0
  1 38  1  0
  1 39  1  0
  1 40  1  0
  3 41  1  0
  4 42  1  0
 12 43  1  0
 13 44  1  0
 19 45  1  0
 20 46  1  0
 21 47  1  0
 28 48  1  0
 29 49  1  0
 31 50  1  0
 32 51  1  0
 33 52  1  0
 34 53  1  0
 35 54  1  0
 36 55  1  0
M  CHG  3   5  -1  15  -1  26  -1
M  END
>  <UniqueID>  (36) 
34

>  <SMILES>  (36) 
Cc1cc[n-]c(=NS(=O)(=O)c2ccc([N-]C(=O)c3cccc(S(=O)(=O)[N-]c4ccc(O)cc4)c3)cc2)n1

>  <Energy>  (36) 
68.24696765205711

>  <Genealogy>  (36) 
Cc1cc[n-]c(=NS(=O)(=O)c2ccc([N-]C(=O)c3cccc(S(=O)(=O)[N-]c4ccc(O)cc4)c3)cc2)n1 (protonated)
Cc1cc[n-]c(=NS(=O)(=O)c2ccc([N-]C(=O)c3cccc(S(=O)(=O)[N-]c4ccc(O)cc4)c3)cc2)n1 (3D coordinates assigned)
Cc1cc[n-]c(=NS(=O)(=O)c2ccc([N-]C(=O)c3cccc(S(=O)(=O)[N-]c4ccc(O)cc4)c3)cc2)n1 (optimized conformer: 68.24696765205711 kcal/mol)

>  <smiles>  (36) 
Cc1cc[nH]c(=NS(=O)(=O)c2ccc(NC(=O)c3cccc(S(=O)(=O)Nc4ccc(O)cc4)c3)cc2)n1

>  <score_type>  (36) 
oracle

>  <origin>  (36) 
adg

>  <m_score__min__energy>  (36) 
-12.67

>  <m_primary>  (36) 
energy

$$$$
36:0
     RDKit          3D

 40 44  0  0  0  0  0  0  0  0999 V2000
   55.6140   26.6020   46.5480 H   0  0  0  0  0  0  0  0  0  0  0  0
   54.7720   26.3590   46.0420 O   0  0  0  0  0  0  0  0  0  0  0  0
   54.5240   25.0550   45.6220 C   0  0  0  0  0  0  0  0  0  0  0  0
   53.4100   24.3780   45.9460 N   0  0  0  0  0  0  0  0  0  0  0  0
   53.5620   23.2140   45.2780 C   0  0  0  0  0  0  0  0  0  0  0  0
   52.7060   22.2930   45.3200 O   0  0  0  0  0  0  0  0  0  0  0  0
   54.6970   23.1210   44.5540 N   0  0  0  0  0  0  0  0  0  0  0  0
   55.3180   24.2870   44.7950 C   0  0  0  0  0  0  0  0  0  0  0  0
   56.5990   24.6620   44.1770 C   0  0  0  0  0  0  0  0  0  0  0  0
   56.6493   24.7468   43.0814 H   0  0  0  0  0  0  0  0  0  0  0  0
   57.7080   24.9050   44.8900 C   0  0  0  0  0  0  0  0  0  0  0  0
   58.6060   23.9080   45.4940 C   0  0  0  0  0  0  0  0  0  0  0  0
   58.6078   22.8308   45.2710 H   0  0  0  0  0  0  0  0  0  0  0  0
   59.3940   24.5050   46.3310 N   0  0  0  0  0  0  0  0  0  0  0  0
   59.1020   25.8730   46.2650 N   0  0  0  0  0  0  0  0  0  0  0  0
   58.9750   26.7260   47.3000 C   0  0  0  0  0  0  0  0  0  0  0  0
   59.6490   26.6680   48.4100 N   0  0  0  0  0  0  0  0  0  0  0  0
   60.4440   27.7680   48.9460 C   0  0  0  0  0  0  0  0  0  0  0  0
   61.2196   27.1650   49.4408 H   0  0  0  0  0  0  0  0  0  0  0  0
   60.4270   28.9910   48.0490 C   0  0  0  0  0  0  0  0  0  0  0  0
   61.3233   29.6229   47.9634 H   0  0  0  0  0  0  0  0  0  0  0  0
   60.1959   29.1754   46.9895 H   0  0  0  0  0  0  0  0  0  0  0  0
   59.6230   28.9830   49.3390 C   0  0  0  0  0  0  0  0  0  0  0  0
   59.9375   29.6087   50.1873 H   0  0  0  0  0  0  0  0  0  0  0  0
   58.5691   29.1589   49.6005 H   0  0  0  0  0  0  0  0  0  0  0  0
   57.9950   27.6310   47.0860 N   0  0  0  0  0  0  0  0  0  0  0  0
   57.5170   27.2520   45.8760 C   0  0  0  0  0  0  0  0  0  0  0  0
   56.6580   27.9840   45.2250 N   0  0  0  0  0  0  0  0  0  0  0  0
   56.8890   29.2410   44.5740 C   0  0  0  0  0  0  0  0  0  0  0  0
   56.4080   29.4970   43.2750 C   0  0  0  0  0  0  0  0  0  0  0  0
   55.8207   28.7319   42.7461 H   0  0  0  0  0  0  0  0  0  0  0  0
   56.6760   30.7220   42.6570 C   0  0  0  0  0  0  0  0  0  0  0  0
   56.2819   30.9274   41.6508 H   0  0  0  0  0  0  0  0  0  0  0  0
   57.4440   31.6860   43.3160 C   0  0  0  0  0  0  0  0  0  0  0  0
   57.6471   32.6522   42.8310 H   0  0  0  0  0  0  0  0  0  0  0  0
   57.9540   31.4240   44.5900 C   0  0  0  0  0  0  0  0  0  0  0  0
   58.7100   32.3550   45.2220 F   0  0  0  0  0  0  0  0  0  0  0  0
   57.6870   30.2000   45.2120 C   0  0  0  0  0  0  0  0  0  0  0  0
   58.1056   29.9891   46.2071 H   0  0  0  0  0  0  0  0  0  0  0  0
   58.1710   26.1670   45.3870 N   0  0  0  0  0  0  0  0  0  0  0  0
  1  2  1  0
  2  3  1  0
  3  4  1  0
  4  5  1  0
  5  6  2  0
  5  7  1  0
  7  8  1  0
  8  9  1  0
  9 10  1  0
  9 11  2  3
 11 12  1  0
 12 13  1  0
 12 14  2  0
 14 15  1  0
 15 16  1  0
 16 17  2  3
 17 18  1  0
 18 19  1  0
 18 20  1  0
 20 21  1  0
 20 22  1  0
 20 23  1  0
 23 24  1  0
 23 25  1  0
 16 26  1  0
 26 27  1  0
 27 28  2  0
 28 29  1  0
 29 30  2  0
 30 31  1  0
 30 32  1  0
 32 33  1  0
 32 34  2  0
 34 35  1  0
 34 36  1  0
 36 37  1  0
 36 38  2  0
 38 39  1  0
 27 40  1  0
  8  3  2  0
 40 11  1  0
 40 15  1  0
 23 18  1  0
 38 29  1  0
M  CHG  3   4  -1   7  -1  26  -1
M  END
>  <UniqueID>  (37) 
35

>  <SMILES>  (37) 
O=c1[n-]c(O)c(C=C2C=Nn3c(=NC4CC4)[n-]/c(=N/c4cccc(F)c4)n32)[n-]1

>  <Energy>  (37) 
451.49426296107157

>  <Genealogy>  (37) 
O=c1[n-]c(O)c(C=C2C=Nn3c(=NC4CC4)[n-]c(=Nc4cccc(F)c4)n32)[n-]1 (protonated)
O=c1[n-]c(O)c(C=C2C=Nn3c(=NC4CC4)[n-]/c(=N/c4cccc(F)c4)n32)[n-]1 (cis-trans isomerization)
O=c1[n-]c(O)c(C=C2C=Nn3c(=NC4CC4)[n-]/c(=N/c4cccc(F)c4)n32)[n-]1 (3D coordinates assigned)
O=c1[n-]c(O)c(C=C2C=Nn3c(=NC4CC4)[n-]/c(=N/c4cccc(F)c4)n32)[n-]1 (nonaromatic ring conformer: 451.49426296107157 kcal/mol)

>  <smiles>  (37) 
O=c1[nH]c(O)c(C=C2C=Nn3c(=NC4CC4)[nH]c(=Nc4cccc(F)c4)n32)[nH]1

>  <score_type>  (37) 
oracle

>  <origin>  (37) 
adg

>  <m_score__min__energy>  (37) 
-13.699999999999999

>  <m_primary>  (37) 
energy

$$$$
37:0
     RDKit          3D

 41 43  0  0  0  0  0  0  0  0999 V2000
   62.3810   33.8260   51.5190 N   0  0  0  0  0  0  0  0  0  0  0  0
   61.6160   33.7580   50.6530 C   0  0  0  0  0  0  0  0  0  0  0  0
   60.6620   33.6740   49.5790 C   0  0  0  0  0  0  0  0  0  0  0  0
   59.6280   32.7320   49.6310 C   0  0  0  0  0  0  0  0  0  0  0  0
   58.7100   32.6390   48.5810 C   0  0  0  0  0  0  0  0  0  0  0  0
   58.8320   33.4760   47.4570 C   0  0  0  0  0  0  0  0  0  0  0  0
   57.9250   33.3760   46.3490 N   0  0  0  0  0  0  0  0  0  0  0  0
   58.2470   33.0010   45.0010 C   0  0  0  0  0  0  0  0  0  0  0  0
   59.2010   33.5980   44.4330 O   0  0  0  0  0  0  0  0  0  0  0  0
   57.5540   31.8960   44.2850 C   0  0  0  0  0  0  0  0  0  0  0  0
   57.4650   31.9180   42.8810 C   0  0  0  0  0  0  0  0  0  0  0  0
   56.8340   30.8790   42.1960 C   0  0  0  0  0  0  0  0  0  0  0  0
   56.2810   29.8070   42.8980 C   0  0  0  0  0  0  0  0  0  0  0  0
   56.3640   29.7530   44.2940 C   0  0  0  0  0  0  0  0  0  0  0  0
   55.7060   28.6620   44.9650 N   0  0  0  0  0  0  0  0  0  0  0  0
   56.2750   27.5140   45.6100 C   0  0  0  0  0  0  0  0  0  0  0  0
   55.5000   26.6260   46.0550 O   0  0  0  0  0  0  0  0  0  0  0  0
   57.6910   27.3250   45.6790 N   0  0  0  0  0  0  0  0  0  0  0  0
   58.6460   28.2560   46.2060 C   0  0  0  0  0  0  0  0  0  0  0  0
   59.6540   28.8250   45.4050 C   0  0  0  0  0  0  0  0  0  0  0  0
   60.5970   29.6900   45.9710 C   0  0  0  0  0  0  0  0  0  0  0  0
   60.5520   29.9800   47.3370 C   0  0  0  0  0  0  0  0  0  0  0  0
   59.5690   29.3990   48.1420 C   0  0  0  0  0  0  0  0  0  0  0  0
   58.6220   28.5370   47.5790 C   0  0  0  0  0  0  0  0  0  0  0  0
   57.0140   30.7970   44.9810 C   0  0  0  0  0  0  0  0  0  0  0  0
   59.8540   34.4360   47.4180 C   0  0  0  0  0  0  0  0  0  0  0  0
   59.9710   35.2800   46.3140 O   0  0  0  0  0  0  0  0  0  0  0  0
   60.7650   34.5330   48.4790 C   0  0  0  0  0  0  0  0  0  0  0  0
   59.5376   32.0635   50.4999 H   0  0  0  0  0  0  0  0  0  0  0  0
   57.8892   31.9086   48.6338 H   0  0  0  0  0  0  0  0  0  0  0  0
   57.8958   32.7601   42.3195 H   0  0  0  0  0  0  0  0  0  0  0  0
   56.7721   30.9049   41.0980 H   0  0  0  0  0  0  0  0  0  0  0  0
   55.7759   28.9981   42.3497 H   0  0  0  0  0  0  0  0  0  0  0  0
   59.7005   28.5891   44.3316 H   0  0  0  0  0  0  0  0  0  0  0  0
   61.3754   30.1427   45.3392 H   0  0  0  0  0  0  0  0  0  0  0  0
   61.2903   30.6656   47.7785 H   0  0  0  0  0  0  0  0  0  0  0  0
   59.5397   29.6195   49.2193 H   0  0  0  0  0  0  0  0  0  0  0  0
   57.8537   28.0768   48.2177 H   0  0  0  0  0  0  0  0  0  0  0  0
   57.1011   30.7533   46.0767 H   0  0  0  0  0  0  0  0  0  0  0  0
   59.4340   35.1240   45.4690 H   0  0  0  0  0  0  0  0  0  0  0  0
   61.5645   35.2878   48.4468 H   0  0  0  0  0  0  0  0  0  0  0  0
  1  2  3  0
  2  3  1  0
  3  4  2  0
  4  5  1  0
  5  6  2  0
  6  7  1  0
  7  8  1  0
  8  9  2  0
  8 10  1  0
 10 11  2  0
 11 12  1  0
 12 13  2  0
 13 14  1  0
 14 15  1  0
 15 16  1  0
 16 17  2  0
 16 18  1  0
 18 19  1  0
 19 20  2  0
 20 21  1  0
 21 22  2  0
 22 23  1  0
 23 24  2  0
 14 25  2  0
  6 26  1  0
 26 27  1  0
 26 28  2  0
 28  3  1  0
 25 10  1  0
 24 19  1  0
  4 29  1  0
  5 30  1  0
 11 31  1  0
 12 32  1  0
 13 33  1  0
 20 34  1  0
 21 35  1  0
 22 36  1  0
 23 37  1  0
 24 38  1  0
 25 39  1  0
 27 40  1  0
 28 41  1  0
M  CHG  3   7  -1  15  -1  18  -1
M  END
>  <UniqueID>  (38) 
36

>  <SMILES>  (38) 
N#Cc1ccc([N-]C(=O)c2cccc([N-]C(=O)[N-]c3ccccc3)c2)c(O)c1

>  <Energy>  (38) 
54.034685767505124

>  <Genealogy>  (38) 
N#Cc1ccc([N-]C(=O)c2cccc([N-]C(=O)[N-]c3ccccc3)c2)c(O)c1 (protonated)
N#Cc1ccc([N-]C(=O)c2cccc([N-]C(=O)[N-]c3ccccc3)c2)c(O)c1 (3D coordinates assigned)
N#Cc1ccc([N-]C(=O)c2cccc([N-]C(=O)[N-]c3ccccc3)c2)c(O)c1 (optimized conformer: 54.034685767505124 kcal/mol)

>  <smiles>  (38) 
N#Cc1ccc(NC(=O)c2cccc(NC(=O)Nc3ccccc3)c2)c(O)c1

>  <score_type>  (38) 
oracle

>  <origin>  (38) 
adg

>  <m_score__min__energy>  (38) 
-12.91

>  <m_primary>  (38) 
energy

$$$$
38:0
     RDKit          3D

 49 51  0  0  0  0  0  0  0  0999 V2000
   58.6260   32.3780   50.5180 C   0  0  0  0  0  0  0  0  0  0  0  0
   59.5650   33.5180   50.8760 C   0  0  0  0  0  0  0  0  0  0  0  0
   60.1260   34.0610   49.6830 O   0  0  0  0  0  0  0  0  0  0  0  0
   61.3630   33.6860   49.1380 C   0  0  0  0  0  0  0  0  0  0  0  0
   62.5830   34.1500   49.6720 C   0  0  0  0  0  0  0  0  0  0  0  0
   63.7970   33.7890   49.0820 C   0  0  0  0  0  0  0  0  0  0  0  0
   63.8100   32.9690   47.9550 C   0  0  0  0  0  0  0  0  0  0  0  0
   62.6090   32.4990   47.4170 C   0  0  0  0  0  0  0  0  0  0  0  0
   61.3840   32.8410   48.0090 C   0  0  0  0  0  0  0  0  0  0  0  0
   60.1610   32.3460   47.4370 N   0  0  0  0  0  0  0  0  0  0  0  0
   59.3540   33.0210   46.5950 C   0  0  0  0  0  0  0  0  0  0  0  0
   58.2810   32.2200   46.2330 C   0  0  0  0  0  0  0  0  0  0  0  0
   57.1330   32.5830   45.3780 C   0  0  0  0  0  0  0  0  0  0  0  0
   56.6700   33.7530   45.4510 O   0  0  0  0  0  0  0  0  0  0  0  0
   56.4920   31.6490   44.5000 N   0  0  0  0  0  0  0  0  0  0  0  0
   57.1070   30.4540   43.9360 C   0  0  0  0  0  0  0  0  0  0  0  0
   56.4150   29.2350   44.4690 C   0  0  0  0  0  0  0  0  0  0  0  0
   55.2180   29.3300   44.8490 O   0  0  0  0  0  0  0  0  0  0  0  0
   57.0540   27.9510   44.5070 N   0  0  0  0  0  0  0  0  0  0  0  0
   58.0120   27.5010   45.4790 C   0  0  0  0  0  0  0  0  0  0  0  0
   59.2950   28.0770   45.5190 C   0  0  0  0  0  0  0  0  0  0  0  0
   60.2170   27.6960   46.4920 C   0  0  0  0  0  0  0  0  0  0  0  0
   59.8630   26.7570   47.4570 C   0  0  0  0  0  0  0  0  0  0  0  0
   58.5850   26.1980   47.4530 C   0  0  0  0  0  0  0  0  0  0  0  0
   57.6410   26.5580   46.4720 C   0  0  0  0  0  0  0  0  0  0  0  0
   56.2950   25.9220   46.5060 C   0  0  0  0  0  0  0  0  0  0  0  0
   55.1440   26.5990   46.0030 N   0  0  0  0  0  0  0  0  0  0  0  0
   56.1610   24.7570   46.9660 O   0  0  0  0  0  0  0  0  0  0  0  0
   58.4360   31.0120   46.8950 C   0  0  0  0  0  0  0  0  0  0  0  0
   59.6080   31.1270   47.6090 C   0  0  0  0  0  0  0  0  0  0  0  0
   60.1670   30.1160   48.3820 O   0  0  0  0  0  0  0  0  0  0  0  0
   58.2441   31.9144   51.4395 H   0  0  0  0  0  0  0  0  0  0  0  0
   57.7838   32.7682   49.9277 H   0  0  0  0  0  0  0  0  0  0  0  0
   59.1704   31.6262   49.9277 H   0  0  0  0  0  0  0  0  0  0  0  0
   59.0053   34.3013   51.4081 H   0  0  0  0  0  0  0  0  0  0  0  0
   60.3709   33.1412   51.5229 H   0  0  0  0  0  0  0  0  0  0  0  0
   62.5788   34.8005   50.5590 H   0  0  0  0  0  0  0  0  0  0  0  0
   64.7440   34.1525   49.5076 H   0  0  0  0  0  0  0  0  0  0  0  0
   64.7668   32.6915   47.4885 H   0  0  0  0  0  0  0  0  0  0  0  0
   62.6242   31.8570   46.5239 H   0  0  0  0  0  0  0  0  0  0  0  0
   59.5209   34.0512   46.2474 H   0  0  0  0  0  0  0  0  0  0  0  0
   57.0158   30.4774   42.8400 H   0  0  0  0  0  0  0  0  0  0  0  0
   58.1705   30.4229   44.2155 H   0  0  0  0  0  0  0  0  0  0  0  0
   59.5735   28.8367   44.7738 H   0  0  0  0  0  0  0  0  0  0  0  0
   61.2246   28.1372   46.4976 H   0  0  0  0  0  0  0  0  0  0  0  0
   60.5920   26.4555   48.2236 H   0  0  0  0  0  0  0  0  0  0  0  0
   58.3108   25.4659   48.2268 H   0  0  0  0  0  0  0  0  0  0  0  0
   55.1760   27.1080   45.0910 H   0  0  0  0  0  0  0  0  0  0  0  0
   57.7631   30.1426   46.8578 H   0  0  0  0  0  0  0  0  0  0  0  0
  1  2  1  0
  2  3  1  0
  3  4  1  0
  4  5  2  0
  5  6  1  0
  6  7  2  0
  7  8  1  0
  8  9  2  0
  9 10  1  0
 10 11  1  0
 11 12  2  0
 12 13  1  0
 13 14  2  0
 13 15  1  0
 15 16  1  0
 16 17  1  0
 17 18  2  0
 17 19  1  0
 19 20  1  0
 20 21  2  0
 21 22  1  0
 22 23  2  0
 23 24  1  0
 24 25  2  0
 25 26  1  0
 26 27  1  0
 26 28  2  0
 12 29  1  0
 29 30  2  0
 30 31  1  0
  9  4  1  0
 30 10  1  0
 25 20  1  0
  1 32  1  0
  1 33  1  0
  1 34  1  0
  2 35  1  0
  2 36  1  0
  5 37  1  0
  6 38  1  0
  7 39  1  0
  8 40  1  0
 11 41  1  0
 16 42  1  0
 16 43  1  0
 21 44  1  0
 22 45  1  0
 23 46  1  0
 24 47  1  0
 27 48  1  0
 29 49  1  0
M  CHG  4  15  -1  19  -1  27  -1  31  -1
M  END
>  <UniqueID>  (39) 
37

>  <SMILES>  (39) 
CCOc1ccccc1-n1cc(C(=O)[N-]CC(=O)[N-]c2ccccc2C([NH-])=O)cc1[O-]

>  <Energy>  (39) 
89.19572712153335

>  <Genealogy>  (39) 
CCOc1ccccc1-n1cc(C(=O)[N-]CC(=O)[N-]c2ccccc2C([NH-])=O)cc1[O-] (protonated)
CCOc1ccccc1-n1cc(C(=O)[N-]CC(=O)[N-]c2ccccc2C([NH-])=O)cc1[O-] (3D coordinates assigned)
CCOc1ccccc1-n1cc(C(=O)[N-]CC(=O)[N-]c2ccccc2C([NH-])=O)cc1[O-] (optimized conformer: 89.19572712153335 kcal/mol)

>  <smiles>  (39) 
CCOc1ccccc1-n1cc(C(=O)NCC(=O)Nc2ccccc2C(N)=O)cc1O

>  <score_type>  (39) 
oracle

>  <origin>  (39) 
adg

>  <m_score__min__energy>  (39) 
-15.91

>  <m_primary>  (39) 
energy

$$$$
39:0
     RDKit          3D

 48 50  0  0  0  0  0  0  0  0999 V2000
   59.3620   35.0230   44.9660 C   0  0  0  0  0  0  0  0  0  0  0  0
   59.1410   34.0780   46.1220 C   0  0  0  0  0  0  0  0  0  0  0  0
   60.2030   33.6810   46.9700 C   0  0  0  0  0  0  0  0  0  0  0  0
   61.6240   34.1510   46.7750 C   0  0  0  0  0  0  0  0  0  0  0  0
   62.5100   33.6260   47.8740 C   0  0  0  0  0  0  0  0  0  0  0  0
   63.2620   32.4520   47.6840 C   0  0  0  0  0  0  0  0  0  0  0  0
   64.1400   32.0110   48.6790 C   0  0  0  0  0  0  0  0  0  0  0  0
   64.2790   32.7410   49.8640 C   0  0  0  0  0  0  0  0  0  0  0  0
   63.5410   33.9150   50.0570 C   0  0  0  0  0  0  0  0  0  0  0  0
   62.6580   34.3560   49.0670 C   0  0  0  0  0  0  0  0  0  0  0  0
   59.9450   32.8420   48.0090 N   0  0  0  0  0  0  0  0  0  0  0  0
   58.7100   32.3290   48.2220 C   0  0  0  0  0  0  0  0  0  0  0  0
   58.4480   31.1270   49.5260 S   0  0  0  0  0  0  0  0  0  0  0  0
   60.0890   30.3290   49.3700 C   0  0  0  0  0  0  0  0  0  0  0  0
   60.0090   28.8460   49.5490 C   0  0  0  0  0  0  0  0  0  0  0  0
   60.3290   28.3260   50.6520 O   0  0  0  0  0  0  0  0  0  0  0  0
   59.5680   28.0340   48.4540 N   0  0  0  0  0  0  0  0  0  0  0  0
   59.4610   28.4360   47.0810 C   0  0  0  0  0  0  0  0  0  0  0  0
   60.6250   28.4940   46.3060 C   0  0  0  0  0  0  0  0  0  0  0  0
   60.5730   28.9400   44.9810 C   0  0  0  0  0  0  0  0  0  0  0  0
   59.3580   29.3460   44.4240 C   0  0  0  0  0  0  0  0  0  0  0  0
   58.1870   29.3120   45.1940 C   0  0  0  0  0  0  0  0  0  0  0  0
   56.6670   29.8540   44.4880 S   0  0  0  0  0  0  0  0  0  0  0  0
   56.4270   31.5300   44.8380 N   0  0  0  0  0  0  0  0  0  0  0  0
   56.6860   29.6600   42.9970 O   0  0  0  0  0  0  0  0  0  0  0  0
   55.5340   29.0530   45.0650 O   0  0  0  0  0  0  0  0  0  0  0  0
   58.2390   28.8530   46.5200 C   0  0  0  0  0  0  0  0  0  0  0  0
   57.6870   32.6660   47.4010 N   0  0  0  0  0  0  0  0  0  0  0  0
   57.8670   33.5300   46.3690 C   0  0  0  0  0  0  0  0  0  0  0  0
   56.8840   33.8200   45.6350 O   0  0  0  0  0  0  0  0  0  0  0  0
   59.5966   36.0260   45.3520 H   0  0  0  0  0  0  0  0  0  0  0  0
   60.1998   34.6613   44.3518 H   0  0  0  0  0  0  0  0  0  0  0  0
   58.4507   35.0704   44.3518 H   0  0  0  0  0  0  0  0  0  0  0  0
   61.9956   33.7871   45.8058 H   0  0  0  0  0  0  0  0  0  0  0  0
   61.6410   35.2506   46.7997 H   0  0  0  0  0  0  0  0  0  0  0  0
   63.1589   31.8796   46.7503 H   0  0  0  0  0  0  0  0  0  0  0  0
   64.7217   31.0894   48.5297 H   0  0  0  0  0  0  0  0  0  0  0  0
   64.9696   32.3920   50.6459 H   0  0  0  0  0  0  0  0  0  0  0  0
   63.6560   34.4903   50.9875 H   0  0  0  0  0  0  0  0  0  0  0  0
   62.0770   35.2771   49.2216 H   0  0  0  0  0  0  0  0  0  0  0  0
   60.4956   30.5449   48.3710 H   0  0  0  0  0  0  0  0  0  0  0  0
   60.7400   30.7324   50.1596 H   0  0  0  0  0  0  0  0  0  0  0  0
   61.5872   28.1868   46.7416 H   0  0  0  0  0  0  0  0  0  0  0  0
   61.4913   28.9710   44.3762 H   0  0  0  0  0  0  0  0  0  0  0  0
   59.3200   29.6926   43.3807 H   0  0  0  0  0  0  0  0  0  0  0  0
   56.6520   31.6690   45.8490 H   0  0  0  0  0  0  0  0  0  0  0  0
   57.1410   32.0650   44.2930 H   0  0  0  0  0  0  0  0  0  0  0  0
   57.3200   28.8191   47.1236 H   0  0  0  0  0  0  0  0  0  0  0  0
  1  2  1  0
  2  3  2  0
  3  4  1  0
  4  5  1  0
  5  6  2  0
  6  7  1  0
  7  8  2  0
  8  9  1  0
  9 10  2  0
  3 11  1  0
 11 12  1  0
 12 13  1  0
 13 14  1  0
 14 15  1  0
 15 16  2  0
 15 17  1  0
 17 18  1  0
 18 19  2  0
 19 20  1  0
 20 21  2  0
 21 22  1  0
 22 23  1  0
 23 24  1  0
 23 25  2  0
 23 26  2  0
 22 27  2  0
 12 28  2  0
 28 29  1  0
 29 30  2  0
 29  2  1  0
 10  5  1  0
 27 18  1  0
  1 31  1  0
  1 32  1  0
  1 33  1  0
  4 34  1  0
  4 35  1  0
  6 36  1  0
  7 37  1  0
  8 38  1  0
  9 39  1  0
 10 40  1  0
 14 41  1  0
 14 42  1  0
 19 43  1  0
 20 44  1  0
 21 45  1  0
 24 46  1  0
 24 47  1  0
 27 48  1  0
M  CHG  2  11  -1  17  -1
M  END
>  <UniqueID>  (40) 
38

>  <SMILES>  (40) 
Cc1c(Cc2ccccc2)[n-]c(SCC(=O)[N-]c2cccc(S(N)(=O)=O)c2)nc1=O

>  <Energy>  (40) 
46.50409093766036

>  <Genealogy>  (40) 
Cc1c(Cc2ccccc2)[n-]c(SCC(=O)[N-]c2cccc(S(N)(=O)=O)c2)nc1=O (protonated)
Cc1c(Cc2ccccc2)[n-]c(SCC(=O)[N-]c2cccc(S(N)(=O)=O)c2)nc1=O (3D coordinates assigned)
Cc1c(Cc2ccccc2)[n-]c(SCC(=O)[N-]c2cccc(S(N)(=O)=O)c2)nc1=O (optimized conformer: 46.50409093766036 kcal/mol)

>  <smiles>  (40) 
Cc1c(Cc2ccccc2)[nH]c(SCC(=O)Nc2cccc(S(N)(=O)=O)c2)nc1=O

>  <score_type>  (40) 
oracle

>  <origin>  (40) 
adg

>  <m_score__min__energy>  (40) 
-13.16

>  <m_primary>  (40) 
energy

$$$$
40:0
     RDKit          3D

 20 20  0  0  1  0  0  0  0  0999 V2000
   57.7590   32.3160   42.2430 C   0  0  0  0  0  0  0  0  0  0  0  0
   57.6640   31.6040   43.3820 C   0  0  0  0  0  0  0  0  0  0  0  0
   56.7050   30.4710   43.4610 C   0  0  0  0  0  0  0  0  0  0  0  0
   56.6140   29.9790   44.8290 N   0  0  0  0  0  0  0  0  0  0  0  0
   56.9550   28.7600   45.0730 C   0  0  0  0  0  0  0  0  0  0  0  0
   58.2460   28.3940   44.7490 C   0  0  0  0  0  0  0  0  0  0  0  0
   58.6730   27.0880   44.9910 C   0  0  0  0  0  0  0  0  0  0  0  0
   57.8200   26.2030   45.5370 N   0  0  0  0  0  0  0  0  0  0  0  0
   56.5510   26.5900   45.8460 C   0  0  0  0  0  0  0  0  0  0  0  0
   55.7240   25.7850   46.3600 O   0  0  0  0  0  0  0  0  0  0  0  0
   56.1300   27.8480   45.6170 N   0  0  0  0  0  0  0  0  0  0  0  0
   58.4663   33.1559   42.1768 H   0  0  0  0  0  0  0  0  0  0  0  0
   57.1293   32.0578   41.3788 H   0  0  0  0  0  0  0  0  0  0  0  0
   58.2920   31.8591   44.2483 H   0  0  0  0  0  0  0  0  0  0  0  0
   55.7125   30.8122   43.1315 H   0  0  0  0  0  0  0  0  0  0  0  0
   57.0591   29.6571   42.8112 H   0  0  0  0  0  0  0  0  0  0  0  0
   58.9337   29.1274   44.3028 H   0  0  0  0  0  0  0  0  0  0  0  0
   59.6994   26.7845   44.7372 H   0  0  0  0  0  0  0  0  0  0  0  0
   58.1020   25.2110   45.7340 H   0  0  0  0  0  0  0  0  0  0  0  0
   55.1520   28.1220   45.8620 H   0  0  0  0  0  0  0  0  0  0  0  0
  1  2  2  0
  2  3  1  0
  3  4  1  0
  4  5  2  0
  5  6  1  0
  6  7  2  0
  7  8  1  0
  8  9  1  0
  9 10  2  0
  9 11  1  0
 11  5  1  0
  1 12  1  0
  1 13  1  0
  2 14  1  0
  3 15  1  0
  3 16  1  0
  6 17  1  0
  7 18  1  0
  8 19  1  0
 11 20  1  0
M  END
>  <smiles>  (41) 
C=CCN=c1cc[nH]c(=O)[nH]1

>  <score_type>  (41) 
oracle

>  <origin>  (41) 
adg

>  <m_score__min__energy>  (41) 
-4.9400000000000004

>  <m_primary>  (41) 
energy

$$$$
41:0
     RDKit          3D

 34 36  0  0  0  0  0  0  0  0999 V2000
   63.6549   32.3731   47.0403 H   0  0  0  0  0  0  0  0  0  0  0  0
   62.5820   32.5990   47.1290 C   0  0  0  0  0  0  0  0  0  0  0  0
   61.6990   31.6230   47.6010 C   0  0  0  0  0  0  0  0  0  0  0  0
   62.0784   30.6308   47.8869 H   0  0  0  0  0  0  0  0  0  0  0  0
   60.3340   31.9070   47.7100 C   0  0  0  0  0  0  0  0  0  0  0  0
   59.6433   31.1399   48.0900 H   0  0  0  0  0  0  0  0  0  0  0  0
   59.8420   33.1680   47.3360 C   0  0  0  0  0  0  0  0  0  0  0  0
   58.3820   33.4870   47.4870 C   0  0  0  0  0  0  0  0  0  0  0  0
   58.2646   34.3825   48.1150 H   0  0  0  0  0  0  0  0  0  0  0  0
   57.8668   32.6388   47.9614 H   0  0  0  0  0  0  0  0  0  0  0  0
   57.8030   33.7360   46.1690 N   0  0  0  0  0  0  0  0  0  0  0  0
   57.7880   32.8670   45.2060 C   0  0  0  0  0  0  0  0  0  0  0  0
   57.7070   31.5440   45.5030 N   0  0  0  0  0  0  0  0  0  0  0  0
   57.6820   30.5900   44.5310 C   0  0  0  0  0  0  0  0  0  0  0  0
   57.5980   29.1590   44.9180 C   0  0  0  0  0  0  0  0  0  0  0  0
   58.7390   28.3310   44.9250 C   0  0  0  0  0  0  0  0  0  0  0  0
   59.7178   28.7474   44.6446 H   0  0  0  0  0  0  0  0  0  0  0  0
   58.6350   26.9840   45.2860 C   0  0  0  0  0  0  0  0  0  0  0  0
   59.5320   26.3474   45.2934 H   0  0  0  0  0  0  0  0  0  0  0  0
   57.3960   26.4450   45.6370 C   0  0  0  0  0  0  0  0  0  0  0  0
   57.3185   25.3861   45.9246 H   0  0  0  0  0  0  0  0  0  0  0  0
   56.2550   27.2500   45.6230 C   0  0  0  0  0  0  0  0  0  0  0  0
   55.0220   26.7110   45.9690 O   0  0  0  0  0  0  0  0  0  0  0  0
   56.3520   28.5980   45.2620 C   0  0  0  0  0  0  0  0  0  0  0  0
   55.4484   29.2251   45.2465 H   0  0  0  0  0  0  0  0  0  0  0  0
   57.7570   30.9900   43.1860 C   0  0  0  0  0  0  0  0  0  0  0  0
   57.7504   30.2439   42.3777 H   0  0  0  0  0  0  0  0  0  0  0  0
   57.8400   32.3530   42.8960 C   0  0  0  0  0  0  0  0  0  0  0  0
   57.9080   32.7430   41.7020 O   0  0  0  0  0  0  0  0  0  0  0  0
   57.8520   33.2620   43.9040 N   0  0  0  0  0  0  0  0  0  0  0  0
   60.7360   34.1490   46.8770 C   0  0  0  0  0  0  0  0  0  0  0  0
   60.3622   35.1460   46.6009 H   0  0  0  0  0  0  0  0  0  0  0  0
   62.1020   33.8610   46.7700 C   0  0  0  0  0  0  0  0  0  0  0  0
   62.7982   34.6294   46.4028 H   0  0  0  0  0  0  0  0  0  0  0  0
  1  2  1  0
  2  3  2  0
  3  4  1  0
  3  5  1  0
  5  6  1  0
  5  7  2  0
  7  8  1  0
  8  9  1  0
  8 10  1  0
  8 11  1  0
 11 12  2  0
 12 13  1  0
 13 14  1  0
 14 15  1  0
 15 16  2  0
 16 17  1  0
 16 18  1  0
 18 19  1  0
 18 20  2  0
 20 21  1  0
 20 22  1  0
 22 23  1  0
 22 24  2  0
 24 25  1  0
 14 26  2  0
 26 27  1  0
 26 28  1  0
 28 29  2  0
 28 30  1  0
  7 31  1  0
 31 32  1  0
 31 33  2  0
 33 34  1  0
 33  2  1  0
 30 12  1  0
 24 15  1  0
M  CHG  3  13  -1  23  -1  30  -1
M  END
>  <UniqueID>  (42) 
39

>  <SMILES>  (42) 
O=c1cc(-c2cccc([O-])c2)[n-]/c(=N/Cc2ccccc2)[n-]1

>  <Energy>  (42) 
40.69428561203942

>  <Genealogy>  (42) 
O=c1cc(-c2cccc([O-])c2)[n-]c(=NCc2ccccc2)[n-]1 (protonated)
O=c1cc(-c2cccc([O-])c2)[n-]/c(=N/Cc2ccccc2)[n-]1 (cis-trans isomerization)
O=c1cc(-c2cccc([O-])c2)[n-]/c(=N/Cc2ccccc2)[n-]1 (3D coordinates assigned)
O=c1cc(-c2cccc([O-])c2)[n-]/c(=N/Cc2ccccc2)[n-]1 (optimized conformer: 40.69428561203942 kcal/mol)

>  <smiles>  (42) 
O=c1cc(-c2cccc(O)c2)[nH]c(=NCc2ccccc2)[nH]1

>  <score_type>  (42) 
oracle

>  <origin>  (42) 
adg

>  <m_score__min__energy>  (42) 
-13.09

>  <m_primary>  (42) 
energy

$$$$
42:0
     RDKit          3D

 50 52  0  0  0  0  0  0  0  0999 V2000
   55.1790   30.5190   52.2540 C   0  0  0  0  0  0  0  0  0  0  0  0
   56.4740   30.1140   51.8180 O   0  0  0  0  0  0  0  0  0  0  0  0
   57.4950   30.9990   51.4420 C   0  0  0  0  0  0  0  0  0  0  0  0
   57.5600   32.2460   52.0710 C   0  0  0  0  0  0  0  0  0  0  0  0
   58.5580   33.1640   51.7310 C   0  0  0  0  0  0  0  0  0  0  0  0
   59.5160   32.8410   50.7500 C   0  0  0  0  0  0  0  0  0  0  0  0
   60.5410   33.7220   50.3660 O   0  0  0  0  0  0  0  0  0  0  0  0
   61.9380   33.5100   50.5680 C   0  0  0  0  0  0  0  0  0  0  0  0
   62.7590   34.4240   49.6580 C   0  0  0  0  0  0  0  0  0  0  0  0
   63.5420   33.4690   48.3120 S   0  0  0  0  0  0  0  0  0  0  0  0
   62.0190   33.1930   47.4060 C   0  0  0  0  0  0  0  0  0  0  0  0
   61.4230   31.9290   47.3990 C   0  0  0  0  0  0  0  0  0  0  0  0
   60.2350   31.7380   46.6900 C   0  0  0  0  0  0  0  0  0  0  0  0
   59.6580   32.8080   45.9950 C   0  0  0  0  0  0  0  0  0  0  0  0
   58.1660   32.5930   45.0820 S   0  0  0  0  0  0  0  0  0  0  0  0
   57.0250   32.3450   46.0290 O   0  0  0  0  0  0  0  0  0  0  0  0
   57.8860   33.8650   44.3310 O   0  0  0  0  0  0  0  0  0  0  0  0
   58.3270   31.2700   43.9430 N   0  0  0  0  0  0  0  0  0  0  0  0
   57.1370   31.1600   43.0630 C   0  0  0  0  0  0  0  0  0  0  0  0
   56.1370   30.0910   43.5440 C   0  0  0  0  0  0  0  0  0  0  0  0
   56.1700   29.9830   44.9500 O   0  0  0  0  0  0  0  0  0  0  0  0
   57.4020   29.4210   45.3690 C   0  0  0  0  0  0  0  0  0  0  0  0
   58.6300   29.9940   44.6210 C   0  0  0  0  0  0  0  0  0  0  0  0
   60.2980   34.0520   46.0130 C   0  0  0  0  0  0  0  0  0  0  0  0
   61.4530   34.2160   46.7120 N   0  0  0  0  0  0  0  0  0  0  0  0
   59.4480   31.5930   50.1190 C   0  0  0  0  0  0  0  0  0  0  0  0
   58.4490   30.6770   50.4580 C   0  0  0  0  0  0  0  0  0  0  0  0
   55.1486   30.5285   53.3535 H   0  0  0  0  0  0  0  0  0  0  0  0
   54.9625   31.5277   51.8725 H   0  0  0  0  0  0  0  0  0  0  0  0
   54.4263   29.8133   51.8725 H   0  0  0  0  0  0  0  0  0  0  0  0
   56.8188   32.5072   52.8407 H   0  0  0  0  0  0  0  0  0  0  0  0
   58.5954   34.1428   52.2316 H   0  0  0  0  0  0  0  0  0  0  0  0
   62.1882   33.7255   51.6173 H   0  0  0  0  0  0  0  0  0  0  0  0
   62.1760   32.4635   50.3268 H   0  0  0  0  0  0  0  0  0  0  0  0
   62.0971   35.1863   49.2211 H   0  0  0  0  0  0  0  0  0  0  0  0
   63.5490   34.8998   50.2575 H   0  0  0  0  0  0  0  0  0  0  0  0
   61.8845   31.0936   47.9459 H   0  0  0  0  0  0  0  0  0  0  0  0
   59.7535   30.7490   46.6776 H   0  0  0  0  0  0  0  0  0  0  0  0
   59.1510   31.5070   43.3420 H   0  0  0  0  0  0  0  0  0  0  0  0
   56.6262   32.1339   43.0389 H   0  0  0  0  0  0  0  0  0  0  0  0
   57.4890   30.8598   42.0650 H   0  0  0  0  0  0  0  0  0  0  0  0
   55.1228   30.3745   43.2261 H   0  0  0  0  0  0  0  0  0  0  0  0
   56.4137   29.1209   43.1054 H   0  0  0  0  0  0  0  0  0  0  0  0
   57.5265   29.6179   46.4440 H   0  0  0  0  0  0  0  0  0  0  0  0
   57.3595   28.3453   45.1432 H   0  0  0  0  0  0  0  0  0  0  0  0
   59.4395   30.1623   45.3466 H   0  0  0  0  0  0  0  0  0  0  0  0
   58.9257   29.2657   43.8515 H   0  0  0  0  0  0  0  0  0  0  0  0
   59.8660   34.8994   45.4605 H   0  0  0  0  0  0  0  0  0  0  0  0
   60.1884   31.3311   49.3488 H   0  0  0  0  0  0  0  0  0  0  0  0
   58.4077   29.7001   49.9540 H   0  0  0  0  0  0  0  0  0  0  0  0
  1  2  1  0
  2  3  1  0
  3  4  2  0
  4  5  1  0
  5  6  2  0
  6  7  1  0
  7  8  1  0
  8  9  1  0
  9 10  1  0
 10 11  1  0
 11 12  2  0
 12 13  1  0
 13 14  2  0
 14 15  1  0
 15 16  2  0
 15 17  2  0
 15 18  1  0
 18 19  1  0
 19 20  1  0
 20 21  1  0
 21 22  1  0
 22 23  1  0
 14 24  1  0
 24 25  2  0
  6 26  1  0
 26 27  2  0
 27  3  1  0
 25 11  1  0
 23 18  1  0
  1 28  1  0
  1 29  1  0
  1 30  1  0
  4 31  1  0
  5 32  1  0
  8 33  1  0
  8 34  1  0
  9 35  1  0
  9 36  1  0
 12 37  1  0
 13 38  1  0
 18 39  1  0
 19 40  1  0
 19 41  1  0
 20 42  1  0
 20 43  1  0
 22 44  1  0
 22 45  1  0
 23 46  1  0
 23 47  1  0
 24 48  1  0
 26 49  1  0
 27 50  1  0
M  CHG  1  18   1
M  END
>  <UniqueID>  (43) 
40

>  <SMILES>  (43) 
COc1ccc(OCCSc2ccc(S(=O)(=O)[NH+]3CCOCC3)cn2)cc1

>  <Energy>  (43) 
56.84774183195535

>  <Genealogy>  (43) 
COc1ccc(OCCSc2ccc(S(=O)(=O)[NH+]3CCOCC3)cn2)cc1 (protonated)
COc1ccc(OCCSc2ccc(S(=O)(=O)[NH+]3CCOCC3)cn2)cc1 (3D coordinates assigned)
COc1ccc(OCCSc2ccc(S(=O)(=O)[NH+]3CCOCC3)cn2)cc1 (nonaromatic ring conformer: 56.84774183195535 kcal/mol)

>  <smiles>  (43) 
COc1ccc(OCCSc2ccc(S(=O)(=O)N3CCOCC3)cn2)cc1

>  <score_type>  (43) 
oracle

>  <origin>  (43) 
adg

>  <m_score__min__energy>  (43) 
-6.9900000000000002

>  <m_primary>  (43) 
energy

$$$$
43:0
     RDKit          3D

 43 45  0  0  0  0  0  0  0  0999 V2000
   54.6686   26.1789   46.5247 H   0  0  0  0  0  0  0  0  0  0  0  0
   55.5640   25.6980   46.1040 C   0  0  0  0  0  0  0  0  0  0  0  0
   55.5220   24.4370   45.8050 N   0  0  0  0  0  0  0  0  0  0  0  0
   55.2470   23.9630   44.4560 C   0  0  0  0  0  0  0  0  0  0  0  0
   54.2238   23.5620   44.4086 H   0  0  0  0  0  0  0  0  0  0  0  0
   55.3445   24.7966   43.7449 H   0  0  0  0  0  0  0  0  0  0  0  0
   56.2210   22.8880   44.1040 C   0  0  0  0  0  0  0  0  0  0  0  0
   55.9090   21.8040   43.4330 O   0  0  0  0  0  0  0  0  0  0  0  0
   56.9980   21.0860   43.2710 C   0  0  0  0  0  0  0  0  0  0  0  0
   57.0475   20.1189   42.7493 H   0  0  0  0  0  0  0  0  0  0  0  0
   58.0700   21.7300   43.8550 C   0  0  0  0  0  0  0  0  0  0  0  0
   59.1132   21.3823   43.8852 H   0  0  0  0  0  0  0  0  0  0  0  0
   57.5700   22.8970   44.3930 C   0  0  0  0  0  0  0  0  0  0  0  0
   58.1290   23.6720   44.9379 H   0  0  0  0  0  0  0  0  0  0  0  0
   56.7910   26.5110   45.8930 C   0  0  0  0  0  0  0  0  0  0  0  0
   56.7470   27.8560   45.4650 C   0  0  0  0  0  0  0  0  0  0  0  0
   55.5220   28.4830   45.2410 O   0  0  0  0  0  0  0  0  0  0  0  0
   57.9070   28.5580   45.2750 N   0  0  0  0  0  0  0  0  0  0  0  0
   57.8470   29.9270   44.8300 C   0  0  0  0  0  0  0  0  0  0  0  0
   57.4690   30.2130   43.5110 C   0  0  0  0  0  0  0  0  0  0  0  0
   57.2162   29.3887   42.8279 H   0  0  0  0  0  0  0  0  0  0  0  0
   57.4090   31.5330   43.0520 C   0  0  0  0  0  0  0  0  0  0  0  0
   57.0260   31.7610   41.7220 O   0  0  0  0  0  0  0  0  0  0  0  0
   57.7370   32.5910   40.8110 C   0  0  0  0  0  0  0  0  0  0  0  0
   58.3522   33.3092   41.3729 H   0  0  0  0  0  0  0  0  0  0  0  0
   58.3863   31.9684   40.1779 H   0  0  0  0  0  0  0  0  0  0  0  0
   57.0221   33.1370   40.1779 H   0  0  0  0  0  0  0  0  0  0  0  0
   57.7320   32.5800   43.9340 C   0  0  0  0  0  0  0  0  0  0  0  0
   57.6890   33.6222   43.5846 H   0  0  0  0  0  0  0  0  0  0  0  0
   58.1070   32.3040   45.2510 C   0  0  0  0  0  0  0  0  0  0  0  0
   58.3580   33.1307   45.9319 H   0  0  0  0  0  0  0  0  0  0  0  0
   58.1660   30.9760   45.7130 C   0  0  0  0  0  0  0  0  0  0  0  0
   58.5280   30.6600   47.0330 O   0  0  0  0  0  0  0  0  0  0  0  0
   59.8450   30.7820   47.5580 C   0  0  0  0  0  0  0  0  0  0  0  0
   59.8034   30.7781   48.6572 H   0  0  0  0  0  0  0  0  0  0  0  0
   60.4577   29.9368   47.2113 H   0  0  0  0  0  0  0  0  0  0  0  0
   60.2920   31.7254   47.2113 H   0  0  0  0  0  0  0  0  0  0  0  0
   59.1190   27.9670   45.5110 C   0  0  0  0  0  0  0  0  0  0  0  0
   60.1910   28.6100   45.3340 O   0  0  0  0  0  0  0  0  0  0  0  0
   59.1800   26.6770   45.9320 N   0  0  0  0  0  0  0  0  0  0  0  0
   60.1140   26.2390   46.1070 H   0  0  0  0  0  0  0  0  0  0  0  0
   58.0540   25.9420   46.1240 C   0  0  0  0  0  0  0  0  0  0  0  0
   58.1590   24.7450   46.5120 O   0  0  0  0  0  0  0  0  0  0  0  0
  1  2  1  0
  2  3  2  0
  3  4  1  0
  4  5  1  0
  4  6  1  0
  4  7  1  0
  7  8  1  0
  8  9  1  0
  9 10  1  0
  9 11  2  0
 11 12  1  0
 11 13  1  0
 13 14  1  0
  2 15  1  0
 15 16  2  0
 16 17  1  0
 16 18  1  0
 18 19  1  0
 19 20  2  0
 20 21  1  0
 20 22  1  0
 22 23  1  0
 23 24  1  0
 24 25  1  0
 24 26  1  0
 24 27  1  0
 22 28  2  0
 28 29  1  0
 28 30  1  0
 30 31  1  0
 30 32  2  0
 32 33  1  0
 33 34  1  0
 34 35  1  0
 34 36  1  0
 34 37  1  0
 18 38  1  0
 38 39  2  0
 38 40  1  0
 40 41  1  0
 40 42  1  0
 42 43  2  0
 13  7  2  0
 42 15  1  0
 32 19  1  0
M  CHG  1  17  -1
M  END
>  <UniqueID>  (44) 
41

>  <SMILES>  (44) 
COc1ccc(OC)c(-n2c([O-])c(/C=N/Cc3ccco3)c(=O)[nH]c2=O)c1

>  <Energy>  (44) 
79.61716689997927

>  <Genealogy>  (44) 
COc1ccc(OC)c(-n2c([O-])c(C=NCc3ccco3)c(=O)[nH]c2=O)c1 (protonated)
COc1ccc(OC)c(-n2c([O-])c(/C=N/Cc3ccco3)c(=O)[nH]c2=O)c1 (cis-trans isomerization)
COc1ccc(OC)c(-n2c([O-])c(/C=N/Cc3ccco3)c(=O)[nH]c2=O)c1 (3D coordinates assigned)
COc1ccc(OC)c(-n2c([O-])c(/C=N/Cc3ccco3)c(=O)[nH]c2=O)c1 (optimized conformer: 79.61716689997927 kcal/mol)

>  <smiles>  (44) 
COc1ccc(OC)c(-n2c(O)c(C=NCc3ccco3)c(=O)[nH]c2=O)c1

>  <score_type>  (44) 
oracle

>  <origin>  (44) 
adg

>  <m_score__min__energy>  (44) 
-11.1

>  <m_primary>  (44) 
energy

$$$$
44:0
     RDKit          3D

 36 38  0  0  0  0  0  0  0  0999 V2000
   59.7677   33.9107   43.9773 H   0  0  0  0  0  0  0  0  0  0  0  0
   58.8790   33.4990   44.4780 C   0  0  0  0  0  0  0  0  0  0  0  0
   58.1300   32.5020   43.9430 N   0  0  0  0  0  0  0  0  0  0  0  0
   57.0950   32.1730   44.7500 C   0  0  0  0  0  0  0  0  0  0  0  0
   56.2580   31.2120   44.5030 N   0  0  0  0  0  0  0  0  0  0  0  0
   56.5000   29.8200   44.7540 C   0  0  0  0  0  0  0  0  0  0  0  0
   55.5260   29.0690   45.0200 O   0  0  0  0  0  0  0  0  0  0  0  0
   57.8260   29.2660   44.7580 N   0  0  0  0  0  0  0  0  0  0  0  0
   58.4420   28.5690   45.8530 C   0  0  0  0  0  0  0  0  0  0  0  0
   58.1690   27.2020   46.0000 C   0  0  0  0  0  0  0  0  0  0  0  0
   57.4370   26.7182   45.3366 H   0  0  0  0  0  0  0  0  0  0  0  0
   58.8170   26.4490   46.9800 C   0  0  0  0  0  0  0  0  0  0  0  0
   58.6061   25.3737   47.0759 H   0  0  0  0  0  0  0  0  0  0  0  0
   59.7320   27.0590   47.8380 C   0  0  0  0  0  0  0  0  0  0  0  0
   60.2608   26.4597   48.5938 H   0  0  0  0  0  0  0  0  0  0  0  0
   59.9770   28.4300   47.7380 C   0  0  0  0  0  0  0  0  0  0  0  0
   60.6946   28.9064   48.4222 H   0  0  0  0  0  0  0  0  0  0  0  0
   59.3160   29.2070   46.7720 C   0  0  0  0  0  0  0  0  0  0  0  0
   59.5590   30.6910   46.7550 C   0  0  0  0  0  0  0  0  0  0  0  0
   59.6201   31.0644   47.7879 H   0  0  0  0  0  0  0  0  0  0  0  0
   60.5036   30.9019   46.2323 H   0  0  0  0  0  0  0  0  0  0  0  0
   58.7310   31.1922   46.2323 H   0  0  0  0  0  0  0  0  0  0  0  0
   57.0410   33.1130   46.1420 S   0  0  0  0  0  0  0  0  0  0  0  0
   58.4310   33.9560   45.7090 C   0  0  0  0  0  0  0  0  0  0  0  0
   59.2760   35.1400   46.7460 S   0  0  0  0  0  0  0  0  0  0  0  0
   60.5320   33.9400   47.1980 C   0  0  0  0  0  0  0  0  0  0  0  0
   60.7040   33.4130   48.4250 N   0  0  0  0  0  0  0  0  0  0  0  0
   59.9890   33.7180   49.6580 C   0  0  0  0  0  0  0  0  0  0  0  0
   60.6161   33.4505   50.5213 H   0  0  0  0  0  0  0  0  0  0  0  0
   59.7581   34.7930   49.6916 H   0  0  0  0  0  0  0  0  0  0  0  0
   59.0533   33.1407   49.6916 H   0  0  0  0  0  0  0  0  0  0  0  0
   61.8040   32.6460   48.2930 C   0  0  0  0  0  0  0  0  0  0  0  0
   62.2581   32.0660   49.1099 H   0  0  0  0  0  0  0  0  0  0  0  0
   62.2770   32.6810   47.0290 N   0  0  0  0  0  0  0  0  0  0  0  0
   61.4750   33.4890   46.3540 N   0  0  0  0  0  0  0  0  0  0  0  0
   61.5900   33.7380   45.3470 H   0  0  0  0  0  0  0  0  0  0  0  0
  1  2  1  0
  2  3  1  0
  3  4  1  0
  4  5  2  0
  5  6  1  0
  6  7  2  0
  6  8  1  0
  8  9  1  0
  9 10  2  0
 10 11  1  0
 10 12  1  0
 12 13  1  0
 12 14  2  0
 14 15  1  0
 14 16  1  0
 16 17  1  0
 16 18  2  0
 18 19  1  0
 19 20  1  0
 19 21  1  0
 19 22  1  0
  4 23  1  0
 23 24  1  0
 24 25  1  0
 25 26  1  0
 26 27  1  0
 27 28  1  0
 28 29  1  0
 28 30  1  0
 28 31  1  0
 27 32  1  0
 32 33  1  0
 32 34  2  0
 34 35  1  0
 35 36  1  0
 24  2  2  0
 35 26  2  0
 18  9  1  0
M  CHG  3   3  -1   8  -1  35   1
M  END
>  <UniqueID>  (45) 
42

>  <SMILES>  (45) 
Cc1ccccc1[N-]C(=O)/N=c1\[n-]cc(Sc2[nH+]ncn2C)s1

>  <Energy>  (45) 
107.77707315288143

>  <Genealogy>  (45) 
Cc1ccccc1[N-]C(=O)N=c1[n-]cc(Sc2[nH+]ncn2C)s1 (protonated)
Cc1ccccc1[N-]C(=O)/N=c1\[n-]cc(Sc2[nH+]ncn2C)s1 (cis-trans isomerization)
Cc1ccccc1[N-]C(=O)/N=c1\[n-]cc(Sc2[nH+]ncn2C)s1 (3D coordinates assigned)
Cc1ccccc1[N-]C(=O)/N=c1\[n-]cc(Sc2[nH+]ncn2C)s1 (optimized conformer: 107.77707315288143 kcal/mol)

>  <smiles>  (45) 
Cc1ccccc1NC(=O)N=c1[nH]cc(Sc2nncn2C)s1

>  <score_type>  (45) 
oracle

>  <origin>  (45) 
adg

>  <m_score__min__energy>  (45) 
-9.1400000000000006

>  <m_primary>  (45) 
energy

$$$$
45:0
     RDKit          3D

 53 56  0  0  0  0  0  0  0  0999 V2000
   65.0360   32.4008   48.8736 H   0  0  0  0  0  0  0  0  0  0  0  0
   64.1090   32.8880   48.5370 C   0  0  0  0  0  0  0  0  0  0  0  0
   63.3470   33.6370   49.4350 C   0  0  0  0  0  0  0  0  0  0  0  0
   63.6829   33.7512   50.4762 H   0  0  0  0  0  0  0  0  0  0  0  0
   62.1600   34.2420   49.0170 C   0  0  0  0  0  0  0  0  0  0  0  0
   61.5571   34.8210   49.7321 H   0  0  0  0  0  0  0  0  0  0  0  0
   61.7340   34.1120   47.6820 C   0  0  0  0  0  0  0  0  0  0  0  0
   60.5660   34.7370   47.2150 O   0  0  0  0  0  0  0  0  0  0  0  0
   59.4980   34.0670   46.6030 C   0  0  0  0  0  0  0  0  0  0  0  0
   59.4270   33.9250   45.2060 C   0  0  0  0  0  0  0  0  0  0  0  0
   60.2217   34.3439   44.5712 H   0  0  0  0  0  0  0  0  0  0  0  0
   58.3510   33.2540   44.6220 C   0  0  0  0  0  0  0  0  0  0  0  0
   58.2853   33.1723   43.5270 H   0  0  0  0  0  0  0  0  0  0  0  0
   57.3540   32.6840   45.4260 C   0  0  0  0  0  0  0  0  0  0  0  0
   56.2840   31.9290   44.8500 N   0  0  0  0  0  0  0  0  0  0  0  0
   56.4570   30.2730   44.3590 S   0  0  0  0  0  0  0  0  0  0  0  0
   56.4540   30.2040   42.8570 O   0  0  0  0  0  0  0  0  0  0  0  0
   55.2870   29.4800   44.8740 O   0  0  0  0  0  0  0  0  0  0  0  0
   57.9570   29.5790   44.9700 C   0  0  0  0  0  0  0  0  0  0  0  0
   58.7010   28.6900   44.1820 C   0  0  0  0  0  0  0  0  0  0  0  0
   58.2989   28.3407   43.2195 H   0  0  0  0  0  0  0  0  0  0  0  0
   59.9520   28.2470   44.6170 C   0  0  0  0  0  0  0  0  0  0  0  0
   60.5234   27.5320   44.0069 H   0  0  0  0  0  0  0  0  0  0  0  0
   60.4800   28.7100   45.8260 C   0  0  0  0  0  0  0  0  0  0  0  0
   61.4765   28.3767   46.1515 H   0  0  0  0  0  0  0  0  0  0  0  0
   59.7430   29.6000   46.6280 C   0  0  0  0  0  0  0  0  0  0  0  0
   60.3270   30.1460   47.8700 C   0  0  0  0  0  0  0  0  0  0  0  0
   61.5240   30.5470   47.8680 O   0  0  0  0  0  0  0  0  0  0  0  0
   59.5610   30.1040   49.0840 N   0  0  0  0  0  0  0  0  0  0  0  0
   59.2200   31.0730   49.8890 C   0  0  0  0  0  0  0  0  0  0  0  0
   58.1290   30.8640   50.7430 C   0  0  0  0  0  0  0  0  0  0  0  0
   57.5602   29.9241   50.6879 H   0  0  0  0  0  0  0  0  0  0  0  0
   57.7620   31.8510   51.6670 C   0  0  0  0  0  0  0  0  0  0  0  0
   56.6550   31.5990   52.6480 C   0  0  0  0  0  0  0  0  0  0  0  0
   57.0456   31.6879   53.6725 H   0  0  0  0  0  0  0  0  0  0  0  0
   55.8545   32.3379   52.4954 H   0  0  0  0  0  0  0  0  0  0  0  0
   56.2533   30.5864   52.4954 H   0  0  0  0  0  0  0  0  0  0  0  0
   58.4950   33.0410   51.7200 C   0  0  0  0  0  0  0  0  0  0  0  0
   58.2372   33.8185   52.4542 H   0  0  0  0  0  0  0  0  0  0  0  0
   59.5540   33.2340   50.8360 C   0  0  0  0  0  0  0  0  0  0  0  0
   60.1207   34.1765   50.8613 H   0  0  0  0  0  0  0  0  0  0  0  0
   59.8940   32.2650   49.9400 N   0  0  0  0  0  0  0  0  0  0  0  0
   60.6530   32.4980   49.2660 H   0  0  0  0  0  0  0  0  0  0  0  0
   58.4680   30.0070   46.2040 C   0  0  0  0  0  0  0  0  0  0  0  0
   57.8649   30.6670   46.8449 H   0  0  0  0  0  0  0  0  0  0  0  0
   57.3950   32.8720   46.8140 C   0  0  0  0  0  0  0  0  0  0  0  0
   56.5882   32.4724   47.4460 H   0  0  0  0  0  0  0  0  0  0  0  0
   58.4600   33.5670   47.3980 C   0  0  0  0  0  0  0  0  0  0  0  0
   58.4816   33.7211   48.4869 H   0  0  0  0  0  0  0  0  0  0  0  0
   62.5150   33.3780   46.7810 C   0  0  0  0  0  0  0  0  0  0  0  0
   62.2004   33.2889   45.7307 H   0  0  0  0  0  0  0  0  0  0  0  0
   63.6920   32.7580   47.2090 C   0  0  0  0  0  0  0  0  0  0  0  0
   64.2909   32.1671   46.5003 H   0  0  0  0  0  0  0  0  0  0  0  0
  1  2  1  0
  2  3  2  0
  3  4  1  0
  3  5  1  0
  5  6  1  0
  5  7  2  0
  7  8  1  0
  8  9  1  0
  9 10  2  0
 10 11  1  0
 10 12  1  0
 12 13  1  0
 12 14  2  0
 14 15  1  0
 15 16  1  0
 16 17  2  0
 16 18  2  0
 16 19  1  0
 19 20  2  0
 20 21  1  0
 20 22  1  0
 22 23  1  0
 22 24  2  0
 24 25  1  0
 24 26  1  0
 26 27  1  0
 27 28  2  0
 27 29  1  0
 29 30  2  0
 30 31  1  0
 31 32  1  0
 31 33  2  0
 33 34  1  0
 34 35  1  0
 34 36  1  0
 34 37  1  0
 33 38  1  0
 38 39  1  0
 38 40  2  0
 40 41  1  0
 40 42  1  0
 42 43  1  0
 26 44  2  0
 44 45  1  0
 14 46  1  0
 46 47  1  0
 46 48  2  0
 48 49  1  0
  7 50  1  0
 50 51  1  0
 50 52  2  0
 52 53  1  0
 52  2  1  0
 48  9  1  0
 44 19  1  0
 42 30  1  0
M  CHG  1  15  -1
M  END
>  <UniqueID>  (46) 
43

>  <SMILES>  (46) 
Cc1cc[nH]/c(=N\C(=O)c2cccc(S(=O)(=O)[N-]c3ccc(Oc4ccccc4)cc3)c2)c1

>  <Energy>  (46) 
78.67177379812327

>  <Genealogy>  (46) 
Cc1cc[nH]c(=NC(=O)c2cccc(S(=O)(=O)[N-]c3ccc(Oc4ccccc4)cc3)c2)c1 (protonated)
Cc1cc[nH]/c(=N\C(=O)c2cccc(S(=O)(=O)[N-]c3ccc(Oc4ccccc4)cc3)c2)c1 (cis-trans isomerization)
Cc1cc[nH]/c(=N\C(=O)c2cccc(S(=O)(=O)[N-]c3ccc(Oc4ccccc4)cc3)c2)c1 (3D coordinates assigned)
Cc1cc[nH]/c(=N\C(=O)c2cccc(S(=O)(=O)[N-]c3ccc(Oc4ccccc4)cc3)c2)c1 (optimized conformer: 78.67177379812327 kcal/mol)

>  <smiles>  (46) 
Cc1cc[nH]c(=NC(=O)c2cccc(S(=O)(=O)Nc3ccc(Oc4ccccc4)cc3)c2)c1

>  <score_type>  (46) 
oracle

>  <origin>  (46) 
adg

>  <m_score__min__energy>  (46) 
-11.970000000000001

>  <m_primary>  (46) 
energy

$$$$
46:0
     RDKit          3D

 58 63  0  0  0  0  0  0  0  0999 V2000
   58.5470   34.2140   52.2740 C   0  0  0  0  0  0  0  0  0  0  0  0
   59.4190   33.4050   51.4280 N   0  0  0  0  0  0  0  0  0  0  0  0
   60.4690   33.8530   50.7000 C   0  0  0  0  0  0  0  0  0  0  0  0
   61.0480   32.8010   49.9950 C   0  0  0  0  0  0  0  0  0  0  0  0
   62.1950   32.8780   49.0730 C   0  0  0  0  0  0  0  0  0  0  0  0
   62.1370   33.0070   47.7420 C   0  0  0  0  0  0  0  0  0  0  0  0
   60.9180   33.1180   46.9270 C   0  0  0  0  0  0  0  0  0  0  0  0
   60.3820   34.2790   46.3800 C   0  0  0  0  0  0  0  0  0  0  0  0
   59.2270   33.9950   45.7330 N   0  0  0  0  0  0  0  0  0  0  0  0
   58.3530   34.9540   45.0650 C   0  0  0  0  0  0  0  0  0  0  0  0
   59.0190   32.6710   45.8870 C   0  0  0  0  0  0  0  0  0  0  0  0
   57.9470   31.9090   45.4180 C   0  0  0  0  0  0  0  0  0  0  0  0
   57.9270   30.5290   45.7050 C   0  0  0  0  0  0  0  0  0  0  0  0
   56.8400   29.7750   45.2340 O   0  0  0  0  0  0  0  0  0  0  0  0
   56.9400   28.6070   44.4170 C   0  0  0  0  0  0  0  0  0  0  0  0
   57.3680   27.4160   45.2340 C   0  0  0  0  0  0  0  0  0  0  0  0
   58.7000   26.9700   45.2030 C   0  0  0  0  0  0  0  0  0  0  0  0
   59.0880   25.8570   45.9550 C   0  0  0  0  0  0  0  0  0  0  0  0
   58.1480   25.1770   46.7360 C   0  0  0  0  0  0  0  0  0  0  0  0
   56.8180   25.6060   46.7610 C   0  0  0  0  0  0  0  0  0  0  0  0
   56.4270   26.7190   46.0100 C   0  0  0  0  0  0  0  0  0  0  0  0
   58.9910   29.9520   46.4520 C   0  0  0  0  0  0  0  0  0  0  0  0
   60.0560   30.7460   46.9140 C   0  0  0  0  0  0  0  0  0  0  0  0
   60.0330   32.1060   46.6150 C   0  0  0  0  0  0  0  0  0  0  0  0
   63.4960   33.2650   47.2610 C   0  0  0  0  0  0  0  0  0  0  0  0
   63.8190   33.4700   46.0620 O   0  0  0  0  0  0  0  0  0  0  0  0
   64.4200   33.2710   48.3380 N   0  0  0  0  0  0  0  0  0  0  0  0
   63.5960   33.0350   49.4690 C   0  0  0  0  0  0  0  0  0  0  0  0
   64.0350   32.9640   50.6480 O   0  0  0  0  0  0  0  0  0  0  0  0
   60.3010   31.6800   50.3100 C   0  0  0  0  0  0  0  0  0  0  0  0
   60.4300   30.3460   49.9150 C   0  0  0  0  0  0  0  0  0  0  0  0
   59.5070   29.4170   50.4260 C   0  0  0  0  0  0  0  0  0  0  0  0
   58.4900   29.8320   51.3140 C   0  0  0  0  0  0  0  0  0  0  0  0
   58.3900   31.1800   51.7040 C   0  0  0  0  0  0  0  0  0  0  0  0
   59.3200   32.0830   51.1840 C   0  0  0  0  0  0  0  0  0  0  0  0
   58.7686   34.0084   53.3316 H   0  0  0  0  0  0  0  0  0  0  0  0
   58.7185   35.2801   52.0639 H   0  0  0  0  0  0  0  0  0  0  0  0
   57.4968   33.9632   52.0639 H   0  0  0  0  0  0  0  0  0  0  0  0
   60.8146   34.8969   50.6698 H   0  0  0  0  0  0  0  0  0  0  0  0
   60.8303   35.2802   46.4611 H   0  0  0  0  0  0  0  0  0  0  0  0
   57.8137   35.5458   45.8192 H   0  0  0  0  0  0  0  0  0  0  0  0
   58.9571   35.6245   44.4361 H   0  0  0  0  0  0  0  0  0  0  0  0
   57.6295   34.4145   44.4361 H   0  0  0  0  0  0  0  0  0  0  0  0
   57.1368   32.3749   44.8379 H   0  0  0  0  0  0  0  0  0  0  0  0
   55.9596   28.3994   43.9635 H   0  0  0  0  0  0  0  0  0  0  0  0
   57.6934   28.7872   43.6361 H   0  0  0  0  0  0  0  0  0  0  0  0
   59.4405   27.4986   44.5847 H   0  0  0  0  0  0  0  0  0  0  0  0
   60.1335   25.5159   45.9323 H   0  0  0  0  0  0  0  0  0  0  0  0
   58.4555   24.3043   47.3308 H   0  0  0  0  0  0  0  0  0  0  0  0
   56.0783   25.0678   47.3719 H   0  0  0  0  0  0  0  0  0  0  0  0
   55.3782   27.0501   46.0270 H   0  0  0  0  0  0  0  0  0  0  0  0
   58.9808   28.8740   46.6706 H   0  0  0  0  0  0  0  0  0  0  0  0
   60.8813   30.3065   47.4934 H   0  0  0  0  0  0  0  0  0  0  0  0
   65.4500   33.4380   48.3080 H   0  0  0  0  0  0  0  0  0  0  0  0
   61.2283   30.0327   49.2262 H   0  0  0  0  0  0  0  0  0  0  0  0
   59.5773   28.3593   50.1322 H   0  0  0  0  0  0  0  0  0  0  0  0
   57.7711   29.0960   51.7033 H   0  0  0  0  0  0  0  0  0  0  0  0
   57.6034   31.5126   52.3973 H   0  0  0  0  0  0  0  0  0  0  0  0
  1  2  1  0
  2  3  1  0
  3  4  2  0
  4  5  1  0
  5  6  2  0
  6  7  1  0
  7  8  2  0
  8  9  1  0
  9 10  1  0
  9 11  1  0
 11 12  2  0
 12 13  1  0
 13 14  1  0
 14 15  1  0
 15 16  1  0
 16 17  2  0
 17 18  1  0
 18 19  2  0
 19 20  1  0
 20 21  2  0
 13 22  2  0
 22 23  1  0
 23 24  2  0
  6 25  1  0
 25 26  2  0
 25 27  1  0
 27 28  1  0
 28 29  2  0
  4 30  1  0
 30 31  2  0
 31 32  1  0
 32 33  2  0
 33 34  1  0
 34 35  2  0
 35  2  1  0
 28  5  1  0
 35 30  1  0
 24  7  1  0
 24 11  1  0
 21 16  1  0
  1 36  1  0
  1 37  1  0
  1 38  1  0
  3 39  1  0
  8 40  1  0
 10 41  1  0
 10 42  1  0
 10 43  1  0
 12 44  1  0
 15 45  1  0
 15 46  1  0
 17 47  1  0
 18 48  1  0
 19 49  1  0
 20 50  1  0
 21 51  1  0
 22 52  1  0
 23 53  1  0
 27 54  1  0
 31 55  1  0
 32 56  1  0
 33 57  1  0
 34 58  1  0
M  END
>  <UniqueID>  (47) 
44

>  <SMILES>  (47) 
Cn1cc(C2=C(c3cn(C)c4cc(OCc5ccccc5)ccc34)C(=O)NC2=O)c2ccccc21

>  <Energy>  (47) 
169.78104922618894

>  <Genealogy>  (47) 
Cn1cc(C2=C(c3cn(C)c4cc(OCc5ccccc5)ccc34)C(=O)NC2=O)c2ccccc21 (3D coordinates assigned)
Cn1cc(C2=C(c3cn(C)c4cc(OCc5ccccc5)ccc34)C(=O)NC2=O)c2ccccc21 (nonaromatic ring conformer: 169.78104922618894 kcal/mol)

>  <smiles>  (47) 
Cn1cc(C2=C(c3cn(C)c4cc(OCc5ccccc5)ccc34)C(=O)NC2=O)c2ccccc21

>  <score_type>  (47) 
oracle

>  <origin>  (47) 
adg

>  <m_score__min__energy>  (47) 
-10.31

>  <m_primary>  (47) 
energy

$$$$
47:0
     RDKit          3D

 44 46  0  0  0  0  0  0  0  0999 V2000
   53.7650   26.2960   45.4820 H   0  0  0  0  0  0  0  0  0  0  0  0
   54.6730   25.8110   45.6620 N   0  0  0  0  0  0  0  0  0  0  0  0
   55.7330   26.4670   46.0020 C   0  0  0  0  0  0  0  0  0  0  0  0
   55.9000   27.7550   45.6020 N   0  0  0  0  0  0  0  0  0  0  0  0
   57.0010   28.4710   45.9510 C   0  0  0  0  0  0  0  0  0  0  0  0
   57.1200   29.8170   45.4750 N   0  0  0  0  0  0  0  0  0  0  0  0
   58.2200   30.3360   44.7190 C   0  0  0  0  0  0  0  0  0  0  0  0
   59.2890   29.6770   44.6080 O   0  0  0  0  0  0  0  0  0  0  0  0
   58.1390   31.7180   44.1560 C   0  0  0  0  0  0  0  0  0  0  0  0
   58.8202   31.8014   43.2963 H   0  0  0  0  0  0  0  0  0  0  0  0
   57.1058   31.9164   43.8348 H   0  0  0  0  0  0  0  0  0  0  0  0
   58.5320   32.7250   45.2020 C   0  0  0  0  0  0  0  0  0  0  0  0
   59.2410   33.8820   44.8410 C   0  0  0  0  0  0  0  0  0  0  0  0
   59.4851   34.0680   43.7847 H   0  0  0  0  0  0  0  0  0  0  0  0
   59.6380   34.7990   45.8200 C   0  0  0  0  0  0  0  0  0  0  0  0
   60.1865   35.7079   45.5317 H   0  0  0  0  0  0  0  0  0  0  0  0
   59.3380   34.5610   47.1650 C   0  0  0  0  0  0  0  0  0  0  0  0
   59.6502   35.2828   47.9341 H   0  0  0  0  0  0  0  0  0  0  0  0
   58.6420   33.4070   47.5320 C   0  0  0  0  0  0  0  0  0  0  0  0
   58.4073   33.2209   48.5904 H   0  0  0  0  0  0  0  0  0  0  0  0
   58.2430   32.4880   46.5570 C   0  0  0  0  0  0  0  0  0  0  0  0
   57.7014   31.5769   46.8511 H   0  0  0  0  0  0  0  0  0  0  0  0
   58.0260   27.8450   46.6870 C   0  0  0  0  0  0  0  0  0  0  0  0
   59.2510   28.5390   46.9810 N   0  0  0  0  0  0  0  0  0  0  0  0
   59.4750   29.2350   48.0300 N   0  0  0  0  0  0  0  0  0  0  0  0
   60.4210   30.3120   48.1310 C   0  0  0  0  0  0  0  0  0  0  0  0
   60.5040   31.1100   49.2850 C   0  0  0  0  0  0  0  0  0  0  0  0
   59.8242   30.9246   50.1297 H   0  0  0  0  0  0  0  0  0  0  0  0
   61.4470   32.1380   49.3630 C   0  0  0  0  0  0  0  0  0  0  0  0
   61.4937   32.7725   50.2604 H   0  0  0  0  0  0  0  0  0  0  0  0
   62.3330   32.3630   48.3020 C   0  0  0  0  0  0  0  0  0  0  0  0
   63.5000   33.6790   48.4010 S   0  0  0  0  0  0  0  0  0  0  0  0
   63.7470   34.2350   47.0260 O   0  0  0  0  0  0  0  0  0  0  0  0
   62.9670   34.7790   49.2770 O   0  0  0  0  0  0  0  0  0  0  0  0
   64.9830   33.0890   49.0640 N   0  0  0  0  0  0  0  0  0  0  0  0
   65.4270   33.8860   49.5750 H   0  0  0  0  0  0  0  0  0  0  0  0
   65.6080   32.8630   48.2580 H   0  0  0  0  0  0  0  0  0  0  0  0
   62.2730   31.5490   47.1630 C   0  0  0  0  0  0  0  0  0  0  0  0
   62.9686   31.7203   46.3282 H   0  0  0  0  0  0  0  0  0  0  0  0
   61.3300   30.5190   47.0860 C   0  0  0  0  0  0  0  0  0  0  0  0
   61.3022   29.8680   46.1998 H   0  0  0  0  0  0  0  0  0  0  0  0
   57.8130   26.5250   47.1240 C   0  0  0  0  0  0  0  0  0  0  0  0
   58.6600   25.9440   47.8520 O   0  0  0  0  0  0  0  0  0  0  0  0
   56.6790   25.8690   46.7680 N   0  0  0  0  0  0  0  0  0  0  0  0
  1  2  1  0
  2  3  2  3
  3  4  1  0
  4  5  1  0
  5  6  1  0
  6  7  1  0
  7  8  2  0
  7  9  1  0
  9 10  1  0
  9 11  1  0
  9 12  1  0
 12 13  2  0
 13 14  1  0
 13 15  1  0
 15 16  1  0
 15 17  2  0
 17 18  1  0
 17 19  1  0
 19 20  1  0
 19 21  2  0
 21 22  1  0
  5 23  2  0
 23 24  1  0
 24 25  2  0
 25 26  1  0
 26 27  2  0
 27 28  1  0
 27 29  1  0
 29 30  1  0
 29 31  2  0
 31 32  1  0
 32 33  2  0
 32 34  2  0
 32 35  1  0
 35 36  1  0
 35 37  1  0
 31 38  1  0
 38 39  1  0
 38 40  2  0
 40 41  1  0
 23 42  1  0
 42 43  2  0
 42 44  1  0
 44  3  1  0
 21 12  1  0
 40 26  1  0
M  CHG  3   4  -1   6  -1  44  -1
M  END
>  <UniqueID>  (48) 
45

>  <SMILES>  (48) 
N=c1[n-]c([N-]C(=O)Cc2ccccc2)c(/N=N\c2ccc(S(N)(=O)=O)cc2)c(=O)[n-]1

>  <Energy>  (48) 
64.31792039501529

>  <Genealogy>  (48) 
N=c1[n-]c([N-]C(=O)Cc2ccccc2)c(N=Nc2ccc(S(N)(=O)=O)cc2)c(=O)[n-]1 (protonated)
N=c1[n-]c([N-]C(=O)Cc2ccccc2)c(/N=N\c2ccc(S(N)(=O)=O)cc2)c(=O)[n-]1 (cis-trans isomerization)
N=c1[n-]c([N-]C(=O)Cc2ccccc2)c(/N=N\c2ccc(S(N)(=O)=O)cc2)c(=O)[n-]1 (3D coordinates assigned)
N=c1[n-]c([N-]C(=O)Cc2ccccc2)c(/N=N\c2ccc(S(N)(=O)=O)cc2)c(=O)[n-]1 (optimized conformer: 64.31792039501529 kcal/mol)

>  <smiles>  (48) 
N=c1[nH]c(NC(=O)Cc2ccccc2)c(N=Nc2ccc(S(N)(=O)=O)cc2)c(=O)[nH]1

>  <score_type>  (48) 
oracle

>  <origin>  (48) 
adg

>  <m_score__min__energy>  (48) 
-16.199999999999999

>  <m_primary>  (48) 
energy

$$$$
48:0
     RDKit          3D

 49 51  0  0  0  0  0  0  0  0999 V2000
   60.4110   26.7470   49.2540 C   0  0  0  0  0  0  0  0  0  0  0  0
   59.5740   26.2900   48.1970 O   0  0  0  0  0  0  0  0  0  0  0  0
   58.7970   27.1140   47.3710 C   0  0  0  0  0  0  0  0  0  0  0  0
   57.5420   26.6870   46.8960 C   0  0  0  0  0  0  0  0  0  0  0  0
   56.7520   27.5150   46.0950 C   0  0  0  0  0  0  0  0  0  0  0  0
   55.5220   27.0320   45.6610 O   0  0  0  0  0  0  0  0  0  0  0  0
   57.2020   28.8060   45.7450 C   0  0  0  0  0  0  0  0  0  0  0  0
   56.3910   29.7270   44.9000 C   0  0  0  0  0  0  0  0  0  0  0  0
   55.1590   29.5020   44.7460 O   0  0  0  0  0  0  0  0  0  0  0  0
   57.0020   30.8650   44.2660 N   0  0  0  0  0  0  0  0  0  0  0  0
   57.4840   31.9260   44.8470 C   0  0  0  0  0  0  0  0  0  0  0  0
   57.7240   33.0740   44.0810 C   0  0  0  0  0  0  0  0  0  0  0  0
   58.2270   34.2200   44.6990 C   0  0  0  0  0  0  0  0  0  0  0  0
   58.4860   34.2150   46.0700 C   0  0  0  0  0  0  0  0  0  0  0  0
   58.2480   33.0480   46.8090 C   0  0  0  0  0  0  0  0  0  0  0  0
   58.4760   33.0250   48.2870 C   0  0  0  0  0  0  0  0  0  0  0  0
   57.7470   31.9460   46.1850 N   0  0  0  0  0  0  0  0  0  0  0  0
   58.4580   29.2280   46.2190 C   0  0  0  0  0  0  0  0  0  0  0  0
   59.2620   28.4010   47.0130 C   0  0  0  0  0  0  0  0  0  0  0  0
   60.5300   28.9350   47.4320 N   0  0  0  0  0  0  0  0  0  0  0  0
   60.8700   29.9760   48.7790 S   0  0  0  0  0  0  0  0  0  0  0  0
   61.6730   29.2230   49.8030 O   0  0  0  0  0  0  0  0  0  0  0  0
   59.5790   30.4620   49.3780 O   0  0  0  0  0  0  0  0  0  0  0  0
   61.8100   31.3690   48.2410 C   0  0  0  0  0  0  0  0  0  0  0  0
   61.3860   32.1180   47.1330 C   0  0  0  0  0  0  0  0  0  0  0  0
   62.1270   33.2200   46.7000 C   0  0  0  0  0  0  0  0  0  0  0  0
   63.2940   33.5850   47.3710 C   0  0  0  0  0  0  0  0  0  0  0  0
   63.7260   32.8490   48.4770 C   0  0  0  0  0  0  0  0  0  0  0  0
   62.9880   31.7340   48.9230 C   0  0  0  0  0  0  0  0  0  0  0  0
   63.3950   30.9720   50.0320 O   0  0  0  0  0  0  0  0  0  0  0  0
   64.5000   31.2920   50.8710 C   0  0  0  0  0  0  0  0  0  0  0  0
   59.9507   26.4957   50.2210 H   0  0  0  0  0  0  0  0  0  0  0  0
   61.3949   26.2609   49.1789 H   0  0  0  0  0  0  0  0  0  0  0  0
   60.5341   27.8375   49.1789 H   0  0  0  0  0  0  0  0  0  0  0  0
   57.1772   25.6835   47.1604 H   0  0  0  0  0  0  0  0  0  0  0  0
   57.5176   33.0724   43.0005 H   0  0  0  0  0  0  0  0  0  0  0  0
   58.4190   35.1262   44.1057 H   0  0  0  0  0  0  0  0  0  0  0  0
   58.8729   35.1175   46.5658 H   0  0  0  0  0  0  0  0  0  0  0  0
   57.5122   33.1222   48.8082 H   0  0  0  0  0  0  0  0  0  0  0  0
   58.9516   32.0743   48.5699 H   0  0  0  0  0  0  0  0  0  0  0  0
   59.1319   33.8615   48.5699 H   0  0  0  0  0  0  0  0  0  0  0  0
   58.8178   30.2344   45.9588 H   0  0  0  0  0  0  0  0  0  0  0  0
   60.4648   31.8358   46.6023 H   0  0  0  0  0  0  0  0  0  0  0  0
   61.7898   33.8007   45.8288 H   0  0  0  0  0  0  0  0  0  0  0  0
   63.8752   34.4539   47.0287 H   0  0  0  0  0  0  0  0  0  0  0  0
   64.6470   33.1412   49.0026 H   0  0  0  0  0  0  0  0  0  0  0  0
   64.1976   31.2044   51.9250 H   0  0  0  0  0  0  0  0  0  0  0  0
   65.3279   30.5967   50.6681 H   0  0  0  0  0  0  0  0  0  0  0  0
   64.8282   32.3221   50.6681 H   0  0  0  0  0  0  0  0  0  0  0  0
  1  2  1  0
  2  3  1  0
  3  4  2  0
  4  5  1  0
  5  6  1  0
  5  7  2  0
  7  8  1  0
  8  9  2  0
  8 10  1  0
 10 11  2  3
 11 12  1  0
 12 13  2  0
 13 14  1  0
 14 15  2  0
 15 16  1  0
 15 17  1  0
  7 18  1  0
 18 19  2  0
 19 20  1  0
 20 21  1  0
 21 22  2  0
 21 23  2  0
 21 24  1  0
 24 25  2  0
 25 26  1  0
 26 27  2  0
 27 28  1  0
 28 29  2  0
 29 30  1  0
 30 31  1  0
 19  3  1  0
 29 24  1  0
 17 11  1  0
  1 32  1  0
  1 33  1  0
  1 34  1  0
  4 35  1  0
 12 36  1  0
 13 37  1  0
 14 38  1  0
 16 39  1  0
 16 40  1  0
 16 41  1  0
 18 42  1  0
 25 43  1  0
 26 44  1  0
 27 45  1  0
 28 46  1  0
 31 47  1  0
 31 48  1  0
 31 49  1  0
M  CHG  3   6  -1  17  -1  20  -1
M  END
>  <UniqueID>  (49) 
46

>  <SMILES>  (49) 
COc1cc([O-])c(C(=O)N=c2cccc(C)[n-]2)cc1[N-]S(=O)(=O)c1ccccc1OC

>  <Energy>  (49) 
63.76577155939527

>  <Genealogy>  (49) 
COc1cc([O-])c(C(=O)N=c2cccc(C)[n-]2)cc1[N-]S(=O)(=O)c1ccccc1OC (protonated)
COc1cc([O-])c(C(=O)N=c2cccc(C)[n-]2)cc1[N-]S(=O)(=O)c1ccccc1OC (3D coordinates assigned)
COc1cc([O-])c(C(=O)N=c2cccc(C)[n-]2)cc1[N-]S(=O)(=O)c1ccccc1OC (optimized conformer: 63.76577155939527 kcal/mol)

>  <smiles>  (49) 
COc1cc(O)c(C(=O)N=c2cccc(C)[nH]2)cc1NS(=O)(=O)c1ccccc1OC

>  <score_type>  (49) 
oracle

>  <origin>  (49) 
adg

>  <m_score__min__energy>  (49) 
-14.470000000000001

>  <m_primary>  (49) 
energy

$$$$
49:0
     RDKit          3D

 60 63  0  0  0  0  0  0  0  0999 V2000
   61.1180   27.7490   51.3410 C   0  0  0  0  0  0  0  0  0  0  0  0
   61.1280   28.7800   50.2530 C   0  0  0  0  0  0  0  0  0  0  0  0
   60.3040   28.8010   49.1430 C   0  0  0  0  0  0  0  0  0  0  0  0
   59.2370   27.8990   48.8490 N   0  0  0  0  0  0  0  0  0  0  0  0
   59.3020   26.7980   47.5130 S   0  0  0  0  0  0  0  0  0  0  0  0
   60.7320   26.3980   47.2650 O   0  0  0  0  0  0  0  0  0  0  0  0
   58.5140   25.5640   47.8560 O   0  0  0  0  0  0  0  0  0  0  0  0
   58.6320   27.5270   46.0560 C   0  0  0  0  0  0  0  0  0  0  0  0
   58.5410   26.7790   44.8750 C   0  0  0  0  0  0  0  0  0  0  0  0
   58.0620   27.3710   43.7040 C   0  0  0  0  0  0  0  0  0  0  0  0
   57.6810   28.7160   43.7020 C   0  0  0  0  0  0  0  0  0  0  0  0
   57.7750   29.4840   44.8760 C   0  0  0  0  0  0  0  0  0  0  0  0
   57.3880   30.9140   44.8910 C   0  0  0  0  0  0  0  0  0  0  0  0
   56.2500   31.2480   44.4620 O   0  0  0  0  0  0  0  0  0  0  0  0
   58.2810   31.9180   45.4060 N   0  0  0  0  0  0  0  0  0  0  0  0
   57.9390   33.3390   45.4100 C   0  0  0  0  0  0  0  0  0  0  0  0
   59.0310   34.1530   46.1120 C   0  0  0  0  0  0  0  0  0  0  0  0
   59.0970   33.8040   47.5760 C   0  0  0  0  0  0  0  0  0  0  0  0
   59.9030   34.5570   48.4470 C   0  0  0  0  0  0  0  0  0  0  0  0
   59.9870   34.2140   49.8020 C   0  0  0  0  0  0  0  0  0  0  0  0
   59.2730   33.1130   50.2930 C   0  0  0  0  0  0  0  0  0  0  0  0
   58.4790   32.3520   49.4300 C   0  0  0  0  0  0  0  0  0  0  0  0
   58.3960   32.6900   48.0740 C   0  0  0  0  0  0  0  0  0  0  0  0
   58.2400   28.8730   46.0550 C   0  0  0  0  0  0  0  0  0  0  0  0
   60.6860   29.9180   48.4330 C   0  0  0  0  0  0  0  0  0  0  0  0
   60.1270   30.3660   47.3950 O   0  0  0  0  0  0  0  0  0  0  0  0
   61.7210   30.5140   49.0600 N   0  0  0  0  0  0  0  0  0  0  0  0
   62.4000   31.7030   48.6120 C   0  0  0  0  0  0  0  0  0  0  0  0
   62.6660   31.8900   47.2450 C   0  0  0  0  0  0  0  0  0  0  0  0
   63.3110   33.0510   46.8030 C   0  0  0  0  0  0  0  0  0  0  0  0
   63.6890   34.0340   47.7230 C   0  0  0  0  0  0  0  0  0  0  0  0
   63.4190   33.8580   49.0840 C   0  0  0  0  0  0  0  0  0  0  0  0
   62.7730   32.6980   49.5290 C   0  0  0  0  0  0  0  0  0  0  0  0
   62.0030   29.8130   50.1580 N   0  0  0  0  0  0  0  0  0  0  0  0
   63.0770   30.1170   51.1070 C   0  0  0  0  0  0  0  0  0  0  0  0
   61.1229   28.2495   52.3205 H   0  0  0  0  0  0  0  0  0  0  0  0
   60.2138   27.1291   51.2505 H   0  0  0  0  0  0  0  0  0  0  0  0
   62.0100   27.1117   51.2505 H   0  0  0  0  0  0  0  0  0  0  0  0
   58.8476   25.7226   44.8698 H   0  0  0  0  0  0  0  0  0  0  0  0
   57.9844   26.7774   42.7812 H   0  0  0  0  0  0  0  0  0  0  0  0
   57.3053   29.1763   42.7763 H   0  0  0  0  0  0  0  0  0  0  0  0
   59.1990   31.6390   45.8150 H   0  0  0  0  0  0  0  0  0  0  0  0
   57.8371   33.6895   44.3723 H   0  0  0  0  0  0  0  0  0  0  0  0
   56.9912   33.4748   45.9515 H   0  0  0  0  0  0  0  0  0  0  0  0
   60.0021   33.9334   45.6443 H   0  0  0  0  0  0  0  0  0  0  0  0
   58.7933   35.2225   46.0137 H   0  0  0  0  0  0  0  0  0  0  0  0
   60.4695   35.4183   48.0632 H   0  0  0  0  0  0  0  0  0  0  0  0
   60.6142   34.8096   50.4817 H   0  0  0  0  0  0  0  0  0  0  0  0
   59.3373   32.8472   51.3585 H   0  0  0  0  0  0  0  0  0  0  0  0
   57.9193   31.4875   49.8165 H   0  0  0  0  0  0  0  0  0  0  0  0
   57.7802   32.0822   47.3948 H   0  0  0  0  0  0  0  0  0  0  0  0
   58.2965   29.4573   46.9853 H   0  0  0  0  0  0  0  0  0  0  0  0
   62.3659   31.1203   46.5187 H   0  0  0  0  0  0  0  0  0  0  0  0
   63.5205   33.1901   45.7321 H   0  0  0  0  0  0  0  0  0  0  0  0
   64.1985   34.9452   47.3764 H   0  0  0  0  0  0  0  0  0  0  0  0
   63.7148   34.6327   49.8067 H   0  0  0  0  0  0  0  0  0  0  0  0
   62.5574   32.5663   50.5996 H   0  0  0  0  0  0  0  0  0  0  0  0
   62.6994   30.0101   52.1346 H   0  0  0  0  0  0  0  0  0  0  0  0
   63.9136   29.4204   50.9494 H   0  0  0  0  0  0  0  0  0  0  0  0
   63.4244   31.1488   50.9494 H   0  0  0  0  0  0  0  0  0  0  0  0
  1  2  1  0
  2  3  2  0
  3  4  1  0
  4  5  1  0
  5  6  2  0
  5  7  2  0
  5  8  1  0
  8  9  2  0
  9 10  1  0
 10 11  2  0
 11 12  1  0
 12 13  1  0
 13 14  2  0
 13 15  1  0
 15 16  1  0
 16 17  1  0
 17 18  1  0
 18 19  2  0
 19 20  1  0
 20 21  2  0
 21 22  1  0
 22 23  2  0
 12 24  2  0
  3 25  1  0
 25 26  2  0
 25 27  1  0
 27 28  1  0
 28 29  2  0
 29 30  1  0
 30 31  2  0
 31 32  1  0
 32 33  2  0
 27 34  1  0
 34 35  1  0
 34  2  1  0
 24  8  1  0
 33 28  1  0
 23 18  1  0
  1 36  1  0
  1 37  1  0
  1 38  1  0
  9 39  1  0
 10 40  1  0
 11 41  1  0
 15 42  1  0
 16 43  1  0
 16 44  1  0
 17 45  1  0
 17 46  1  0
 19 47  1  0
 20 48  1  0
 21 49  1  0
 22 50  1  0
 23 51  1  0
 24 52  1  0
 29 53  1  0
 30 54  1  0
 31 55  1  0
 32 56  1  0
 33 57  1  0
 35 58  1  0
 35 59  1  0
 35 60  1  0
M  CHG  1   4  -1
M  END
>  <UniqueID>  (50) 
47

>  <SMILES>  (50) 
Cc1c([N-]S(=O)(=O)c2cccc(C(=O)NCCc3ccccc3)c2)c(=O)n(-c2ccccc2)n1C

>  <Energy>  (50) 
111.08276076995926

>  <Genealogy>  (50) 
Cc1c([N-]S(=O)(=O)c2cccc(C(=O)NCCc3ccccc3)c2)c(=O)n(-c2ccccc2)n1C (protonated)
Cc1c([N-]S(=O)(=O)c2cccc(C(=O)NCCc3ccccc3)c2)c(=O)n(-c2ccccc2)n1C (3D coordinates assigned)
Cc1c([N-]S(=O)(=O)c2cccc(C(=O)NCCc3ccccc3)c2)c(=O)n(-c2ccccc2)n1C (optimized conformer: 111.08276076995926 kcal/mol)

>  <smiles>  (50) 
Cc1c(NS(=O)(=O)c2cccc(C(=O)NCCc3ccccc3)c2)c(=O)n(-c2ccccc2)n1C

>  <score_type>  (50) 
oracle

>  <origin>  (50) 
adg

>  <m_score__min__energy>  (50) 
-11.949999999999999

>  <m_primary>  (50) 
energy

$$$$
50:0
     RDKit          3D

 70 74  0  0  0  0  0  0  0  0999 V2000
   59.1050   20.7910   54.4630 O   0  0  0  0  0  0  0  0  0  0  0  0
   59.5890   21.5350   53.5700 C   0  0  0  0  0  0  0  0  0  0  0  0
   58.7450   21.9550   52.3940 C   0  0  0  0  0  0  0  0  0  0  0  0
   58.6310   20.9260   51.2960 C   0  0  0  0  0  0  0  0  0  0  0  0
   59.5010   19.8240   51.2470 C   0  0  0  0  0  0  0  0  0  0  0  0
   59.4510   18.9340   50.1680 C   0  0  0  0  0  0  0  0  0  0  0  0
   58.5740   19.1670   49.1050 C   0  0  0  0  0  0  0  0  0  0  0  0
   57.7450   20.2960   49.1100 C   0  0  0  0  0  0  0  0  0  0  0  0
   56.9420   20.5630   47.9910 O   0  0  0  0  0  0  0  0  0  0  0  0
   56.6800   21.8540   47.5090 C   0  0  0  0  0  0  0  0  0  0  0  0
   55.4260   22.4340   47.7210 C   0  0  0  0  0  0  0  0  0  0  0  0
   55.1800   23.7290   47.2530 C   0  0  0  0  0  0  0  0  0  0  0  0
   56.1860   24.4410   46.5800 C   0  0  0  0  0  0  0  0  0  0  0  0
   55.9550   25.8280   46.1150 C   0  0  0  0  0  0  0  0  0  0  0  0
   54.7740   26.2390   45.9460 O   0  0  0  0  0  0  0  0  0  0  0  0
   57.0650   26.7120   45.8780 N   0  0  0  0  0  0  0  0  0  0  0  0
   56.9180   28.0180   45.2380 C   0  0  0  0  0  0  0  0  0  0  0  0
   58.0130   28.9370   45.7070 C   0  0  0  0  0  0  0  0  0  0  0  0
   59.2290   28.4070   46.1700 C   0  0  0  0  0  0  0  0  0  0  0  0
   60.2660   29.2600   46.5610 C   0  0  0  0  0  0  0  0  0  0  0  0
   60.0990   30.6450   46.4880 C   0  0  0  0  0  0  0  0  0  0  0  0
   61.1050   31.4680   46.8760 F   0  0  0  0  0  0  0  0  0  0  0  0
   58.8950   31.1790   46.0170 C   0  0  0  0  0  0  0  0  0  0  0  0
   58.7280   32.5230   45.9480 F   0  0  0  0  0  0  0  0  0  0  0  0
   57.8580   30.3290   45.6200 C   0  0  0  0  0  0  0  0  0  0  0  0
   57.4150   23.8030   46.3540 C   0  0  0  0  0  0  0  0  0  0  0  0
   57.6270   22.5440   46.8140 N   0  0  0  0  0  0  0  0  0  0  0  0
   57.7390   21.1390   50.2350 C   0  0  0  0  0  0  0  0  0  0  0  0
   60.9740   21.9040   53.6610 N   0  0  0  0  0  0  0  0  0  0  0  0
   61.8360   22.3120   52.5490 C   0  0  0  0  0  0  0  0  0  0  0  0
   61.9200   23.8130   52.4220 C   0  0  0  0  0  0  0  0  0  0  0  0
   63.1650   24.4570   52.3830 C   0  0  0  0  0  0  0  0  0  0  0  0
   63.2380   25.8440   52.2150 C   0  0  0  0  0  0  0  0  0  0  0  0
   62.0640   26.6070   52.0740 C   0  0  0  0  0  0  0  0  0  0  0  0
   62.1310   28.0660   51.8350 C   0  0  0  0  0  0  0  0  0  0  0  0
   62.9930   28.7590   52.4430 O   0  0  0  0  0  0  0  0  0  0  0  0
   61.2830   28.6540   50.8280 N   0  0  0  0  0  0  0  0  0  0  0  0
   60.0770   29.1450   50.9340 C   0  0  0  0  0  0  0  0  0  0  0  0
   59.3790   28.9230   52.1310 C   0  0  0  0  0  0  0  0  0  0  0  0
   58.0830   29.4210   52.2850 C   0  0  0  0  0  0  0  0  0  0  0  0
   57.5050   30.1400   51.2870 N   0  0  0  0  0  0  0  0  0  0  0  0
   58.1590   30.3900   50.1220 C   0  0  0  0  0  0  0  0  0  0  0  0
   59.4550   29.9050   49.9220 C   0  0  0  0  0  0  0  0  0  0  0  0
   60.8180   25.9620   52.1460 C   0  0  0  0  0  0  0  0  0  0  0  0
   60.7480   24.5810   52.3360 C   0  0  0  0  0  0  0  0  0  0  0  0
   57.7322   22.1765   52.7616 H   0  0  0  0  0  0  0  0  0  0  0  0
   59.2464   22.8273   51.9494 H   0  0  0  0  0  0  0  0  0  0  0  0
   60.2241   19.6601   52.0596 H   0  0  0  0  0  0  0  0  0  0  0  0
   60.1037   18.0487   50.1566 H   0  0  0  0  0  0  0  0  0  0  0  0
   58.5347   18.4616   48.2619 H   0  0  0  0  0  0  0  0  0  0  0  0
   54.6395   21.8769   48.2512 H   0  0  0  0  0  0  0  0  0  0  0  0
   54.1948   24.1914   47.4127 H   0  0  0  0  0  0  0  0  0  0  0  0
   57.9930   26.4800   46.2960 H   0  0  0  0  0  0  0  0  0  0  0  0
   56.9821   27.8998   44.1462 H   0  0  0  0  0  0  0  0  0  0  0  0
   55.9414   28.4477   45.5056 H   0  0  0  0  0  0  0  0  0  0  0  0
   59.3659   27.3170   46.2252 H   0  0  0  0  0  0  0  0  0  0  0  0
   61.2145   28.8397   46.9266 H   0  0  0  0  0  0  0  0  0  0  0  0
   56.9175   30.7530   45.2382 H   0  0  0  0  0  0  0  0  0  0  0  0
   58.2100   24.3255   45.8017 H   0  0  0  0  0  0  0  0  0  0  0  0
   57.0263   21.9755   50.2836 H   0  0  0  0  0  0  0  0  0  0  0  0
   62.8469   21.9125   52.7179 H   0  0  0  0  0  0  0  0  0  0  0  0
   61.4024   21.9155   51.6191 H   0  0  0  0  0  0  0  0  0  0  0  0
   64.0889   23.8687   52.4850 H   0  0  0  0  0  0  0  0  0  0  0  0
   64.2190   26.3411   52.1930 H   0  0  0  0  0  0  0  0  0  0  0  0
   59.8520   28.3573   52.9473 H   0  0  0  0  0  0  0  0  0  0  0  0
   57.5290   29.2308   53.2161 H   0  0  0  0  0  0  0  0  0  0  0  0
   57.6663   30.9767   49.3327 H   0  0  0  0  0  0  0  0  0  0  0  0
   59.9858   30.1148   48.9817 H   0  0  0  0  0  0  0  0  0  0  0  0
   59.8923   26.5487   52.0521 H   0  0  0  0  0  0  0  0  0  0  0  0
   59.7669   24.0906   52.4190 H   0  0  0  0  0  0  0  0  0  0  0  0
  1  2  2  0
  2  3  1  0
  3  4  1  0
  4  5  2  0
  5  6  1  0
  6  7  2  0
  7  8  1  0
  8  9  1  0
  9 10  1  0
 10 11  2  0
 11 12  1  0
 12 13  2  0
 13 14  1  0
 14 15  2  0
 14 16  1  0
 16 17  1  0
 17 18  1  0
 18 19  2  0
 19 20  1  0
 20 21  2  0
 21 22  1  0
 21 23  1  0
 23 24  1  0
 23 25  2  0
 13 26  1  0
 26 27  2  0
  8 28  2  0
  2 29  1  0
 29 30  1  0
 30 31  1  0
 31 32  2  0
 32 33  1  0
 33 34  2  0
 34 35  1  0
 35 36  2  0
 35 37  1  0
 37 38  2  3
 38 39  1  0
 39 40  2  0
 40 41  1  0
 41 42  1  0
 42 43  2  0
 34 44  1  0
 44 45  2  0
 28  4  1  0
 45 31  1  0
 27 10  1  0
 43 38  1  0
 25 18  1  0
  3 46  1  0
  3 47  1  0
  5 48  1  0
  6 49  1  0
  7 50  1  0
 11 51  1  0
 12 52  1  0
 16 53  1  0
 17 54  1  0
 17 55  1  0
 19 56  1  0
 20 57  1  0
 25 58  1  0
 26 59  1  0
 28 60  1  0
 30 61  1  0
 30 62  1  0
 32 63  1  0
 33 64  1  0
 39 65  1  0
 40 66  1  0
 42 67  1  0
 43 68  1  0
 44 69  1  0
 45 70  1  0
M  CHG  2  29  -1  41  -1
M  END
>  <UniqueID>  (51) 
48

>  <SMILES>  (51) 
O=C(Cc1cccc(Oc2ccc(C(=O)NCc3ccc(F)c(F)c3)cn2)c1)[N-]Cc1ccc(C(=O)N=c2cc[n-]cc2)cc1

>  <Energy>  (51) 
92.01396822001776

>  <Genealogy>  (51) 
O=C(Cc1cccc(Oc2ccc(C(=O)NCc3ccc(F)c(F)c3)cn2)c1)[N-]Cc1ccc(C(=O)N=c2cc[n-]cc2)cc1 (protonated)
O=C(Cc1cccc(Oc2ccc(C(=O)NCc3ccc(F)c(F)c3)cn2)c1)[N-]Cc1ccc(C(=O)N=c2cc[n-]cc2)cc1 (3D coordinates assigned)
O=C(Cc1cccc(Oc2ccc(C(=O)NCc3ccc(F)c(F)c3)cn2)c1)[N-]Cc1ccc(C(=O)N=c2cc[n-]cc2)cc1 (optimized conformer: 92.01396822001776 kcal/mol)

>  <smiles>  (51) 
O=C(Cc1cccc(Oc2ccc(C(=O)NCc3ccc(F)c(F)c3)cn2)c1)NCc1ccc(C(=O)N=c2cc[nH]cc2)cc1

>  <score_type>  (51) 
oracle

>  <origin>  (51) 
adg

>  <m_score__min__energy>  (51) 
-12.539999999999999

>  <m_primary>  (51) 
energy

$$$$
51:0
     RDKit          3D

 24 25  0  0  0  0  0  0  0  0999 V2000
   57.2770   23.0870   45.2990 C   0  0  0  0  0  0  0  0  0  0  0  0
   56.9590   23.5610   46.9850 S   0  0  0  0  0  0  0  0  0  0  0  0
   55.5600   24.1020   47.0770 O   0  0  0  0  0  0  0  0  0  0  0  0
   57.0780   22.3720   47.8960 O   0  0  0  0  0  0  0  0  0  0  0  0
   58.0690   24.8010   47.4760 N   0  0  0  0  0  0  0  0  0  0  0  0
   58.1820   26.1060   46.8940 C   0  0  0  0  0  0  0  0  0  0  0  0
   59.4160   26.7690   46.7680 C   0  0  0  0  0  0  0  0  0  0  0  0
   59.4760   28.0450   46.2000 C   0  0  0  0  0  0  0  0  0  0  0  0
   58.3100   28.6720   45.7530 C   0  0  0  0  0  0  0  0  0  0  0  0
   57.0780   27.9970   45.8350 C   0  0  0  0  0  0  0  0  0  0  0  0
   57.0180   26.7290   46.4230 C   0  0  0  0  0  0  0  0  0  0  0  0
   55.8990   28.5530   45.2410 N   0  0  0  0  0  0  0  0  0  0  0  0
   55.9550   29.5950   44.2620 C   0  0  0  0  0  0  0  0  0  0  0  0
   54.8860   30.0730   43.8000 O   0  0  0  0  0  0  0  0  0  0  0  0
   57.2780   30.0760   43.7480 C   0  0  0  0  0  0  0  0  0  0  0  0
   58.3880   30.3700   45.1580 S   0  0  0  0  0  0  0  0  0  0  0  0
   57.8898   22.1736   45.2843 H   0  0  0  0  0  0  0  0  0  0  0  0
   56.3230   22.8969   44.7854 H   0  0  0  0  0  0  0  0  0  0  0  0
   57.8147   23.8976   44.7854 H   0  0  0  0  0  0  0  0  0  0  0  0
   60.3379   26.2814   47.1179 H   0  0  0  0  0  0  0  0  0  0  0  0
   60.4447   28.5573   46.1046 H   0  0  0  0  0  0  0  0  0  0  0  0
   56.0492   26.2165   46.5165 H   0  0  0  0  0  0  0  0  0  0  0  0
   57.7159   29.3142   43.0863 H   0  0  0  0  0  0  0  0  0  0  0  0
   57.1403   31.0091   43.1819 H   0  0  0  0  0  0  0  0  0  0  0  0
  1  2  1  0
  2  3  2  0
  2  4  2  0
  2  5  1  0
  5  6  1  0
  6  7  2  0
  7  8  1  0
  8  9  2  0
  9 10  1  0
 10 11  2  0
 10 12  1  0
 12 13  1  0
 13 14  2  0
 13 15  1  0
 15 16  1  0
 11  6  1  0
 16  9  1  0
  1 17  1  0
  1 18  1  0
  1 19  1  0
  7 20  1  0
  8 21  1  0
 11 22  1  0
 15 23  1  0
 15 24  1  0
M  CHG  2   5  -1  12  -1
M  END
>  <UniqueID>  (52) 
49

>  <SMILES>  (52) 
CS(=O)(=O)[N-]c1ccc2c(c1)[N-]C(=O)CS2

>  <Energy>  (52) 
27.145366410362506

>  <Genealogy>  (52) 
CS(=O)(=O)[N-]c1ccc2c(c1)[N-]C(=O)CS2 (protonated)
CS(=O)(=O)[N-]c1ccc2c(c1)[N-]C(=O)CS2 (3D coordinates assigned)
CS(=O)(=O)[N-]c1ccc2c(c1)[N-]C(=O)CS2 (nonaromatic ring conformer: 27.145366410362506 kcal/mol)

>  <smiles>  (52) 
CS(=O)(=O)Nc1ccc2c(c1)NC(=O)CS2

>  <score_type>  (52) 
oracle

>  <origin>  (52) 
adg

>  <m_score__min__energy>  (52) 
-9.6500000000000004

>  <m_primary>  (52) 
energy

$$$$
52:0
     RDKit          3D

 40 41  0  0  0  0  0  0  0  0999 V2000
   54.4030   26.7800   46.7660 H   0  0  0  0  0  0  0  0  0  0  0  0
   54.8370   26.3210   45.9360 N   0  0  0  0  0  0  0  0  0  0  0  0
   55.7940   25.2730   46.0950 C   0  0  0  0  0  0  0  0  0  0  0  0
   55.7980   24.5910   47.1530 O   0  0  0  0  0  0  0  0  0  0  0  0
   58.9430   33.8700   44.6460 N   0  0  0  0  0  0  0  0  0  0  0  0
   57.8020   33.2830   44.4790 C   0  0  0  0  0  0  0  0  0  0  0  0
   56.9072   33.8871   44.2685 H   0  0  0  0  0  0  0  0  0  0  0  0
   58.5020   26.6530   45.0500 C   0  0  0  0  0  0  0  0  0  0  0  0
   59.0283   26.9357   45.9736 H   0  0  0  0  0  0  0  0  0  0  0  0
   59.1809   26.7210   44.1872 H   0  0  0  0  0  0  0  0  0  0  0  0
   57.3800   27.5670   44.8380 N   0  0  0  0  0  0  0  0  0  0  0  0
   56.4320   27.1400   44.7250 H   0  0  0  0  0  0  0  0  0  0  0  0
   57.5010   29.0020   44.7600 C   0  0  0  0  0  0  0  0  0  0  0  0
   56.5830   29.7250   43.9830 C   0  0  0  0  0  0  0  0  0  0  0  0
   55.7853   29.1913   43.4456 H   0  0  0  0  0  0  0  0  0  0  0  0
   56.6720   31.1170   43.8850 C   0  0  0  0  0  0  0  0  0  0  0  0
   55.9459   31.6696   43.2707 H   0  0  0  0  0  0  0  0  0  0  0  0
   57.6840   31.8140   44.5670 C   0  0  0  0  0  0  0  0  0  0  0  0
   58.0200   25.2420   45.1720 C   0  0  0  0  0  0  0  0  0  0  0  0
   58.7370   24.4262   45.3465 H   0  0  0  0  0  0  0  0  0  0  0  0
   56.7520   24.9850   45.0710 N   0  0  0  0  0  0  0  0  0  0  0  0
   59.3020   34.3750   45.8760 O   0  0  0  0  0  0  0  0  0  0  0  0
   60.2580   33.7470   46.6830 C   0  0  0  0  0  0  0  0  0  0  0  0
   61.6070   33.9660   46.3750 C   0  0  0  0  0  0  0  0  0  0  0  0
   61.8756   34.6686   45.5724 H   0  0  0  0  0  0  0  0  0  0  0  0
   62.6130   33.3010   47.0770 C   0  0  0  0  0  0  0  0  0  0  0  0
   63.6684   33.4747   46.8203 H   0  0  0  0  0  0  0  0  0  0  0  0
   62.2830   32.4170   48.1030 C   0  0  0  0  0  0  0  0  0  0  0  0
   63.0768   31.8767   48.6396 H   0  0  0  0  0  0  0  0  0  0  0  0
   60.9450   32.2170   48.4500 C   0  0  0  0  0  0  0  0  0  0  0  0
   60.6918   31.5221   49.2643 H   0  0  0  0  0  0  0  0  0  0  0  0
   59.9180   32.8950   47.7690 C   0  0  0  0  0  0  0  0  0  0  0  0
   58.5330   32.7560   48.2670 C   0  0  0  0  0  0  0  0  0  0  0  0
   58.3080   32.2090   49.3810 O   0  0  0  0  0  0  0  0  0  0  0  0
   57.4360   33.1890   47.4670 N   0  0  0  0  0  0  0  0  0  0  0  0
   57.5950   33.6730   46.5560 H   0  0  0  0  0  0  0  0  0  0  0  0
   58.6040   31.0940   45.3440 C   0  0  0  0  0  0  0  0  0  0  0  0
   59.4007   31.6289   45.8818 H   0  0  0  0  0  0  0  0  0  0  0  0
   58.5160   29.7020   45.4400 C   0  0  0  0  0  0  0  0  0  0  0  0
   59.2450   29.1496   46.0512 H   0  0  0  0  0  0  0  0  0  0  0  0
  1  2  1  0
  2  3  1  0
  3  4  2  0
  3  5  1  0
  5  6  2  0
  6  7  1  0
  6  8  1  0
  8  9  1  0
  8 10  1  0
  8 11  1  0
 11 12  1  0
 11 13  1  0
 13 14  2  0
 14 15  1  0
 14 16  1  0
 16 17  1  0
 16 18  2  0
 18 19  1  0
 19 20  1  0
 19 21  2  0
 21 22  1  0
 22 23  1  0
 23 24  2  0
 24 25  1  0
 24 26  1  0
 26 27  1  0
 26 28  2  0
 28 29  1  0
 28 30  1  0
 30 31  1  0
 30 32  2  0
 32 33  1  0
 33 34  2  0
 33 35  1  0
 35 36  1  0
 18 37  1  0
 37 38  1  0
 37 39  2  0
 39 40  1  0
 39 13  1  0
 32 23  1  0
M  CHG  2   2  -1  35  -1
M  END
>  <UniqueID>  (53) 
50

>  <SMILES>  (53) 
[NH-]C(=O)/N=C/CNc1ccc(/C=N/Oc2ccccc2C([NH-])=O)cc1

>  <Energy>  (53) 
43.04942795005485

>  <Genealogy>  (53) 
[NH-]C(=O)N=CCNc1ccc(C=NOc2ccccc2C([NH-])=O)cc1 (protonated)
[NH-]C(=O)/N=C/CNc1ccc(/C=N/Oc2ccccc2C([NH-])=O)cc1 (cis-trans isomerization)
[NH-]C(=O)/N=C/CNc1ccc(/C=N/Oc2ccccc2C([NH-])=O)cc1 (3D coordinates assigned)
[NH-]C(=O)/N=C/CNc1ccc(/C=N/Oc2ccccc2C([NH-])=O)cc1 (optimized conformer: 43.04942795005485 kcal/mol)

>  <smiles>  (53) 
NC(=O)N=CCNc1ccc(C=NOc2ccccc2C(N)=O)cc1

>  <score_type>  (53) 
oracle

>  <origin>  (53) 
adg

>  <m_score__min__energy>  (53) 
-11.92

>  <m_primary>  (53) 
energy

$$$$
53:0
     RDKit          3D

 44 45  0  0  0  0  0  0  0  0999 V2000
   60.0570   33.4320   49.5400 H   0  0  0  0  0  0  0  0  0  0  0  0
   59.8570   33.3620   48.5490 O   0  0  0  0  0  0  0  0  0  0  0  0
   59.5930   32.1360   47.9390 C   0  0  0  0  0  0  0  0  0  0  0  0
   59.9710   31.9320   46.6050 C   0  0  0  0  0  0  0  0  0  0  0  0
   60.4278   32.7544   46.0349 H   0  0  0  0  0  0  0  0  0  0  0  0
   59.7720   30.6930   45.9950 C   0  0  0  0  0  0  0  0  0  0  0  0
   60.0510   30.5509   44.9405 H   0  0  0  0  0  0  0  0  0  0  0  0
   59.2180   29.6280   46.7200 C   0  0  0  0  0  0  0  0  0  0  0  0
   58.9620   28.3200   46.0830 C   0  0  0  0  0  0  0  0  0  0  0  0
   59.6178   28.0274   45.2497 H   0  0  0  0  0  0  0  0  0  0  0  0
   57.9960   27.4600   46.4370 C   0  0  0  0  0  0  0  0  0  0  0  0
   58.2813   26.6243   47.0930 H   0  0  0  0  0  0  0  0  0  0  0  0
   56.5830   27.5400   46.0210 C   0  0  0  0  0  0  0  0  0  0  0  0
   55.7940   26.6130   46.3380 O   0  0  0  0  0  0  0  0  0  0  0  0
   56.1190   28.5800   45.2250 O   0  0  0  0  0  0  0  0  0  0  0  0
   58.8040   29.8400   48.0430 C   0  0  0  0  0  0  0  0  0  0  0  0
   58.3401   29.0162   48.6053 H   0  0  0  0  0  0  0  0  0  0  0  0
   58.9740   31.0900   48.6590 C   0  0  0  0  0  0  0  0  0  0  0  0
   58.5320   31.2430   50.0650 C   0  0  0  0  0  0  0  0  0  0  0  0
   59.1306   30.7724   50.8589 H   0  0  0  0  0  0  0  0  0  0  0  0
   57.4360   31.9290   50.4110 C   0  0  0  0  0  0  0  0  0  0  0  0
   57.0749   32.7236   49.7415 H   0  0  0  0  0  0  0  0  0  0  0  0
   56.6960   31.6590   51.6550 C   0  0  0  0  0  0  0  0  0  0  0  0
   56.8170   32.4220   52.6540 O   0  0  0  0  0  0  0  0  0  0  0  0
   55.8580   30.5400   51.7110 O   0  0  0  0  0  0  0  0  0  0  0  0
   55.3800   29.9730   52.9310 C   0  0  2  0  0  0  0  0  0  0  0  0
   55.3121   30.7509   53.7057 H   0  0  0  0  0  0  0  0  0  0  0  0
   56.3400   28.9110   53.3790 C   0  0  0  0  0  0  0  0  0  0  0  0
   57.5470   29.1940   53.6000 O   0  0  0  0  0  0  0  0  0  0  0  0
   55.9090   27.5960   53.5130 O   0  0  0  0  0  0  0  0  0  0  0  0
   53.9710   29.3840   52.7240 C   0  0  0  0  0  0  0  0  0  0  0  0
   53.9636   28.7952   51.7949 H   0  0  0  0  0  0  0  0  0  0  0  0
   53.7320   28.7526   53.5925 H   0  0  0  0  0  0  0  0  0  0  0  0
   52.9240   30.4650   52.6260 C   0  0  0  0  0  0  0  0  0  0  0  0
   52.1550   30.8060   53.7500 C   0  0  0  0  0  0  0  0  0  0  0  0
   52.3332   30.2988   54.7097 H   0  0  0  0  0  0  0  0  0  0  0  0
   51.1640   31.7870   53.6550 C   0  0  0  0  0  0  0  0  0  0  0  0
   50.5684   32.0532   54.5407 H   0  0  0  0  0  0  0  0  0  0  0  0
   50.9280   32.4310   52.4360 C   0  0  0  0  0  0  0  0  0  0  0  0
   49.9410   33.4060   52.3490 O   0  0  0  0  0  0  0  0  0  0  0  0
   51.6840   32.0910   51.3090 C   0  0  0  0  0  0  0  0  0  0  0  0
   51.4510   32.7250   50.0930 O   0  0  0  0  0  0  0  0  0  0  0  0
   52.6770   31.1100   51.4020 C   0  0  0  0  0  0  0  0  0  0  0  0
   53.2671   30.8423   50.5131 H   0  0  0  0  0  0  0  0  0  0  0  0
  1  2  1  0
  2  3  1  0
  3  4  2  0
  4  5  1  0
  4  6  1  0
  6  7  1  0
  6  8  2  0
  8  9  1  0
  9 10  1  0
  9 11  2  3
 11 12  1  0
 11 13  1  0
 13 14  2  0
 13 15  1  0
  8 16  1  0
 16 17  1  0
 16 18  2  0
 18 19  1  0
 19 20  1  0
 19 21  2  0
 21 22  1  0
 21 23  1  0
 23 24  2  0
 23 25  1  0
 25 26  1  0
 26 27  1  1
 26 28  1  0
 28 29  2  0
 28 30  1  0
 26 31  1  0
 31 32  1  0
 31 33  1  0
 31 34  1  0
 34 35  2  0
 35 36  1  0
 35 37  1  0
 37 38  1  0
 37 39  2  0
 39 40  1  0
 39 41  1  0
 41 42  1  0
 41 43  2  0
 43 44  1  0
 18  3  1  0
 43 34  1  0
M  CHG  4  15  -1  30  -1  40  -1  42  -1
M  END
>  <UniqueID>  (54) 
51

>  <SMILES>  (54) 
O=C([O-])C=Cc1ccc(O)c(/C=C/C(=O)O[C@@H](Cc2ccc([O-])c([O-])c2)C(=O)[O-])c1

>  <Energy>  (54) 
51.837837787804865

>  <Genealogy>  (54) 
O=C([O-])C=Cc1ccc(O)c(C=CC(=O)OC(Cc2ccc([O-])c([O-])c2)C(=O)[O-])c1 (protonated)
O=C([O-])C=Cc1ccc(O)c(C=CC(=O)O[C@@H](Cc2ccc([O-])c([O-])c2)C(=O)[O-])c1 (chirality)
O=C([O-])C=Cc1ccc(O)c(/C=C/C(=O)O[C@@H](Cc2ccc([O-])c([O-])c2)C(=O)[O-])c1 (cis-trans isomerization)
O=C([O-])C=Cc1ccc(O)c(/C=C/C(=O)O[C@@H](Cc2ccc([O-])c([O-])c2)C(=O)[O-])c1 (3D coordinates assigned)
O=C([O-])C=Cc1ccc(O)c(/C=C/C(=O)O[C@@H](Cc2ccc([O-])c([O-])c2)C(=O)[O-])c1 (optimized conformer: 51.837837787804865 kcal/mol)

>  <smiles>  (54) 
O=C(O)C=Cc1ccc(O)c(C=CC(=O)OC(Cc2ccc(O)c(O)c2)C(=O)O)c1

>  <score_type>  (54) 
oracle

>  <origin>  (54) 
adg

>  <m_score__min__energy>  (54) 
-19.120000000000001

>  <m_primary>  (54) 
energy

$$$$
54:0
     RDKit          3D

 57 60  0  0  0  0  0  0  0  0999 V2000
   57.4080   30.7950   46.0640 O   0  0  0  0  0  0  0  0  0  0  0  0
   58.6290   30.9900   45.8180 C   0  0  0  0  0  0  0  0  0  0  0  0
   59.1260   32.3950   45.6460 C   0  0  0  0  0  0  0  0  0  0  0  0
   60.1010   32.7670   46.7300 C   0  0  0  0  0  0  0  0  0  0  0  0
   61.2320   31.9700   46.9680 C   0  0  0  0  0  0  0  0  0  0  0  0
   62.1370   32.3120   47.9770 C   0  0  0  0  0  0  0  0  0  0  0  0
   61.9230   33.4570   48.7560 C   0  0  0  0  0  0  0  0  0  0  0  0
   63.0760   33.9250   49.9990 S   0  0  0  0  0  0  0  0  0  0  0  0
   63.0300   35.4100   50.2290 O   0  0  0  0  0  0  0  0  0  0  0  0
   64.4600   33.5490   49.5550 O   0  0  0  0  0  0  0  0  0  0  0  0
   62.7160   33.1060   51.4870 N   0  0  0  0  0  0  0  0  0  0  0  0
   61.4130   32.6630   51.8840 C   0  0  0  0  0  0  0  0  0  0  0  0
   60.9280   33.0870   52.9650 O   0  0  0  0  0  0  0  0  0  0  0  0
   60.6140   31.7390   51.0600 C   0  0  0  0  0  0  0  0  0  0  0  0
   59.3000   32.0660   50.6920 C   0  0  0  0  0  0  0  0  0  0  0  0
   58.5450   31.1790   49.9170 C   0  0  0  0  0  0  0  0  0  0  0  0
   59.1040   29.9720   49.4890 C   0  0  0  0  0  0  0  0  0  0  0  0
   60.4240   29.6560   49.8260 C   0  0  0  0  0  0  0  0  0  0  0  0
   61.1800   30.5380   50.6040 C   0  0  0  0  0  0  0  0  0  0  0  0
   60.7890   34.2430   48.5310 C   0  0  0  0  0  0  0  0  0  0  0  0
   59.8830   33.9010   47.5250 C   0  0  0  0  0  0  0  0  0  0  0  0
   59.5290   29.8780   45.6950 N   0  0  0  0  0  0  0  0  0  0  0  0
   59.1870   28.5420   46.0920 C   0  0  0  0  0  0  0  0  0  0  0  0
   60.0890   27.8060   46.8700 C   0  0  0  0  0  0  0  0  0  0  0  0
   59.7810   26.5050   47.2670 C   0  0  0  0  0  0  0  0  0  0  0  0
   58.5590   25.9320   46.9080 C   0  0  0  0  0  0  0  0  0  0  0  0
   57.6190   26.6670   46.1660 C   0  0  0  0  0  0  0  0  0  0  0  0
   56.3200   26.0590   45.7840 C   0  0  0  0  0  0  0  0  0  0  0  0
   55.2610   26.7090   45.9970 O   0  0  0  0  0  0  0  0  0  0  0  0
   56.2220   24.7180   45.1580 C   0  0  0  0  0  0  0  0  0  0  0  0
   57.2070   24.2490   44.2740 C   0  0  0  0  0  0  0  0  0  0  0  0
   57.1000   22.9760   43.7160 C   0  0  0  0  0  0  0  0  0  0  0  0
   56.0150   22.1670   44.0560 C   0  0  0  0  0  0  0  0  0  0  0  0
   55.9190   21.0130   43.5590 O   0  0  0  0  0  0  0  0  0  0  0  0
   55.0680   22.6220   44.9260 N   0  0  0  0  0  0  0  0  0  0  0  0
   54.0070   21.8130   45.2640 O   0  0  0  0  0  0  0  0  0  0  0  0
   55.1540   23.8640   45.4770 C   0  0  0  0  0  0  0  0  0  0  0  0
   57.9410   27.9760   45.7540 C   0  0  0  0  0  0  0  0  0  0  0  0
   57.0220   28.7210   45.0870 F   0  0  0  0  0  0  0  0  0  0  0  0
   59.6256   32.4813   44.6698 H   0  0  0  0  0  0  0  0  0  0  0  0
   58.2651   33.0772   45.7045 H   0  0  0  0  0  0  0  0  0  0  0  0
   61.4069   31.0719   46.3574 H   0  0  0  0  0  0  0  0  0  0  0  0
   63.0192   31.6809   48.1599 H   0  0  0  0  0  0  0  0  0  0  0  0
   58.8623   33.0225   51.0138 H   0  0  0  0  0  0  0  0  0  0  0  0
   57.5099   31.4321   49.6442 H   0  0  0  0  0  0  0  0  0  0  0  0
   58.5064   29.2711   48.8876 H   0  0  0  0  0  0  0  0  0  0  0  0
   60.8683   28.7117   49.4783 H   0  0  0  0  0  0  0  0  0  0  0  0
   62.2209   30.2902   50.8594 H   0  0  0  0  0  0  0  0  0  0  0  0
   60.6096   35.1349   49.1493 H   0  0  0  0  0  0  0  0  0  0  0  0
   58.9931   34.5249   47.3553 H   0  0  0  0  0  0  0  0  0  0  0  0
   60.4240   30.0200   45.1760 H   0  0  0  0  0  0  0  0  0  0  0  0
   61.0465   28.2567   47.1699 H   0  0  0  0  0  0  0  0  0  0  0  0
   60.5026   25.9286   47.8645 H   0  0  0  0  0  0  0  0  0  0  0  0
   58.3309   24.8986   47.2081 H   0  0  0  0  0  0  0  0  0  0  0  0
   58.0658   24.8881   44.0210 H   0  0  0  0  0  0  0  0  0  0  0  0
   57.8644   22.6123   43.0136 H   0  0  0  0  0  0  0  0  0  0  0  0
   54.3783   24.2022   46.1798 H   0  0  0  0  0  0  0  0  0  0  0  0
  1  2  2  0
  2  3  1  0
  3  4  1  0
  4  5  2  0
  5  6  1  0
  6  7  2  0
  7  8  1  0
  8  9  2  0
  8 10  2  0
  8 11  1  0
 11 12  1  0
 12 13  2  0
 12 14  1  0
 14 15  2  0
 15 16  1  0
 16 17  2  0
 17 18  1  0
 18 19  2  0
  7 20  1  0
 20 21  2  0
  2 22  1  0
 22 23  1  0
 23 24  2  0
 24 25  1  0
 25 26  2  0
 26 27  1  0
 27 28  1  0
 28 29  2  0
 28 30  1  0
 30 31  1  0
 31 32  2  0
 32 33  1  0
 33 34  2  0
 33 35  1  0
 35 36  1  0
 35 37  1  0
 27 38  2  0
 38 39  1  0
 21  4  1  0
 38 23  1  0
 19 14  1  0
 37 30  2  0
  3 40  1  0
  3 41  1  0
  5 42  1  0
  6 43  1  0
 15 44  1  0
 16 45  1  0
 17 46  1  0
 18 47  1  0
 19 48  1  0
 20 49  1  0
 21 50  1  0
 22 51  1  0
 24 52  1  0
 25 53  1  0
 26 54  1  0
 31 55  1  0
 32 56  1  0
 37 57  1  0
M  CHG  2  11  -1  36  -1
M  END
>  <UniqueID>  (55) 
52

>  <SMILES>  (55) 
O=C(Cc1ccc(S(=O)(=O)[N-]C(=O)c2ccccc2)cc1)Nc1cccc(C(=O)c2ccc(=O)n([O-])c2)c1F

>  <Energy>  (55) 
80.52535637234027

>  <Genealogy>  (55) 
O=C(Cc1ccc(S(=O)(=O)[N-]C(=O)c2ccccc2)cc1)Nc1cccc(C(=O)c2ccc(=O)n([O-])c2)c1F (protonated)
O=C(Cc1ccc(S(=O)(=O)[N-]C(=O)c2ccccc2)cc1)Nc1cccc(C(=O)c2ccc(=O)n([O-])c2)c1F (3D coordinates assigned)
O=C(Cc1ccc(S(=O)(=O)[N-]C(=O)c2ccccc2)cc1)Nc1cccc(C(=O)c2ccc(=O)n([O-])c2)c1F (optimized conformer: 80.52535637234027 kcal/mol)

>  <smiles>  (55) 
O=C(Cc1ccc(S(=O)(=O)NC(=O)c2ccccc2)cc1)Nc1cccc(C(=O)c2ccc(=O)n(O)c2)c1F

>  <score_type>  (55) 
oracle

>  <origin>  (55) 
adg

>  <m_score__min__energy>  (55) 
-15.77

>  <m_primary>  (55) 
energy

$$$$
55:0
     RDKit          3D

 38 40  0  0  0  0  0  0  0  0999 V2000
   56.9300   26.6390   46.1850 O   0  0  0  0  0  0  0  0  0  0  0  0
   57.3680   26.2540   45.0670 C   0  0  0  0  0  0  0  0  0  0  0  0
   57.4340   27.1830   43.9700 N   0  0  0  0  0  0  0  0  0  0  0  0
   57.4770   28.6110   44.1340 C   0  0  0  0  0  0  0  0  0  0  0  0
   56.6060   29.4170   43.3870 C   0  0  0  0  0  0  0  0  0  0  0  0
   56.6430   30.8080   43.5130 C   0  0  0  0  0  0  0  0  0  0  0  0
   57.5720   31.4200   44.3650 C   0  0  0  0  0  0  0  0  0  0  0  0
   57.5740   32.8520   44.4990 N   0  0  0  0  0  0  0  0  0  0  0  0
   58.2660   33.5710   45.5330 C   0  0  0  0  0  0  0  0  0  0  0  0
   58.1610   33.1920   46.8850 C   0  0  0  0  0  0  0  0  0  0  0  0
   58.8670   33.8890   47.8700 C   0  0  0  0  0  0  0  0  0  0  0  0
   59.6940   34.9590   47.5150 C   0  0  0  0  0  0  0  0  0  0  0  0
   59.8210   35.3270   46.1730 C   0  0  0  0  0  0  0  0  0  0  0  0
   59.1170   34.6320   45.1860 C   0  0  0  0  0  0  0  0  0  0  0  0
   58.4450   30.6150   45.1170 C   0  0  0  0  0  0  0  0  0  0  0  0
   58.4070   29.2230   44.9920 C   0  0  0  0  0  0  0  0  0  0  0  0
   57.7600   24.8350   44.8860 C   0  0  0  0  0  0  0  0  0  0  0  0
   58.8440   24.2870   45.5980 C   0  0  0  0  0  0  0  0  0  0  0  0
   59.1990   22.9460   45.4250 C   0  0  0  0  0  0  0  0  0  0  0  0
   58.4770   22.1370   44.5450 C   0  0  0  0  0  0  0  0  0  0  0  0
   57.3940   22.6670   43.8390 C   0  0  0  0  0  0  0  0  0  0  0  0
   57.0340   24.0060   44.0090 C   0  0  0  0  0  0  0  0  0  0  0  0
   57.3310   26.8050   43.0010 H   0  0  0  0  0  0  0  0  0  0  0  0
   55.8880   28.9505   42.6964 H   0  0  0  0  0  0  0  0  0  0  0  0
   55.9378   31.4272   42.9392 H   0  0  0  0  0  0  0  0  0  0  0  0
   57.0370   33.4080   43.7950 H   0  0  0  0  0  0  0  0  0  0  0  0
   57.5205   32.3435   47.1675 H   0  0  0  0  0  0  0  0  0  0  0  0
   58.7717   33.5952   48.9257 H   0  0  0  0  0  0  0  0  0  0  0  0
   60.2442   35.5107   48.2915 H   0  0  0  0  0  0  0  0  0  0  0  0
   60.4762   36.1651   45.8930 H   0  0  0  0  0  0  0  0  0  0  0  0
   59.2305   34.9183   44.1300 H   0  0  0  0  0  0  0  0  0  0  0  0
   59.1621   31.0828   45.8077 H   0  0  0  0  0  0  0  0  0  0  0  0
   59.1092   28.6030   45.5686 H   0  0  0  0  0  0  0  0  0  0  0  0
   59.4152   24.9180   46.2948 H   0  0  0  0  0  0  0  0  0  0  0  0
   60.0491   22.5270   45.9834 H   0  0  0  0  0  0  0  0  0  0  0  0
   58.7607   21.0831   44.4077 H   0  0  0  0  0  0  0  0  0  0  0  0
   56.8238   22.0287   43.1480 H   0  0  0  0  0  0  0  0  0  0  0  0
   56.1773   24.4158   43.4539 H   0  0  0  0  0  0  0  0  0  0  0  0
  1  2  2  0
  2  3  1  0
  3  4  1  0
  4  5  2  0
  5  6  1  0
  6  7  2  0
  7  8  1  0
  8  9  1  0
  9 10  2  0
 10 11  1  0
 11 12  2  0
 12 13  1  0
 13 14  2  0
  7 15  1  0
 15 16  2  0
  2 17  1  0
 17 18  2  0
 18 19  1  0
 19 20  2  0
 20 21  1  0
 21 22  2  0
 16  4  1  0
 22 17  1  0
 14  9  1  0
  3 23  1  0
  5 24  1  0
  6 25  1  0
  8 26  1  0
 10 27  1  0
 11 28  1  0
 12 29  1  0
 13 30  1  0
 14 31  1  0
 15 32  1  0
 16 33  1  0
 18 34  1  0
 19 35  1  0
 20 36  1  0
 21 37  1  0
 22 38  1  0
M  END
>  <UniqueID>  (56) 
53

>  <SMILES>  (56) 
O=C(Nc1ccc(Nc2ccccc2)cc1)c1ccccc1

>  <Energy>  (56) 
51.83160748563766

>  <Genealogy>  (56) 
O=C(Nc1ccc(Nc2ccccc2)cc1)c1ccccc1 (3D coordinates assigned)
O=C(Nc1ccc(Nc2ccccc2)cc1)c1ccccc1 (optimized conformer: 51.83160748563766 kcal/mol)

>  <smiles>  (56) 
O=C(Nc1ccc(Nc2ccccc2)cc1)c1ccccc1

>  <score_type>  (56) 
oracle

>  <origin>  (56) 
adg

>  <m_score__min__energy>  (56) 
-7.6399999999999997

>  <m_primary>  (56) 
energy

$$$$
56:0
     RDKit          3D

 55 57  0  0  0  0  0  0  0  0999 V2000
   54.9230   30.6810   44.8810 H   0  0  0  0  0  0  0  0  0  0  0  0
   55.7700   30.9550   44.3350 N   0  0  0  0  0  0  0  0  0  0  0  0
   56.8440   31.4530   44.8680 C   0  0  0  0  0  0  0  0  0  0  0  0
   57.0850   32.7830   44.7290 N   0  0  0  0  0  0  0  0  0  0  0  0
   58.1840   33.3830   45.2560 C   0  0  0  0  0  0  0  0  0  0  0  0
   58.3365   34.4634   45.1167 H   0  0  0  0  0  0  0  0  0  0  0  0
   59.1260   32.6330   45.9770 C   0  0  0  0  0  0  0  0  0  0  0  0
   60.3240   33.2790   46.5610 C   0  0  0  0  0  0  0  0  0  0  0  0
   61.1580   33.8570   45.8100 O   0  0  0  0  0  0  0  0  0  0  0  0
   60.5380   33.2420   47.9790 N   0  0  0  0  0  0  0  0  0  0  0  0
   61.3030   32.0810   48.7150 S   0  0  2  0  0  6  0  0  0  0  0  0
   62.1780   32.6560   49.7940 O   0  0  0  0  0  0  0  0  0  0  0  0
   62.3230   31.2340   47.5280 C   0  0  0  0  0  0  0  0  0  0  0  0
   63.0654   30.6175   48.0561 H   0  0  0  0  0  0  0  0  0  0  0  0
   61.6933   30.5895   46.8971 H   0  0  0  0  0  0  0  0  0  0  0  0
   62.8408   31.9714   46.8971 H   0  0  0  0  0  0  0  0  0  0  0  0
   60.1320   30.9360   49.4240 C   0  0  0  0  0  0  0  0  0  0  0  0
   60.3673   30.7881   50.4883 H   0  0  0  0  0  0  0  0  0  0  0  0
   59.1177   31.3480   49.3173 H   0  0  0  0  0  0  0  0  0  0  0  0
   60.2000   29.6480   48.7300 C   0  0  0  0  0  0  0  0  0  0  0  0
   60.2520   28.6290   48.1820 N   0  0  0  0  0  0  0  0  0  0  0  0
   58.9000   31.2560   46.1360 C   0  0  0  0  0  0  0  0  0  0  0  0
   59.6233   30.6452   46.6961 H   0  0  0  0  0  0  0  0  0  0  0  0
   57.7610   30.6550   45.5870 C   0  0  0  0  0  0  0  0  0  0  0  0
   57.5620   29.2380   45.7800 C   0  0  0  0  0  0  0  0  0  0  0  0
   57.3930   28.0560   45.9400 C   0  0  0  0  0  0  0  0  0  0  0  0
   57.1910   26.6440   46.1330 C   0  0  0  0  0  0  0  0  0  0  0  0
   58.2740   25.8190   46.4570 C   0  0  0  0  0  0  0  0  0  0  0  0
   59.2829   26.2475   46.5495 H   0  0  0  0  0  0  0  0  0  0  0  0
   58.0750   24.4520   46.6630 C   0  0  0  0  0  0  0  0  0  0  0  0
   58.9267   23.8060   46.9223 H   0  0  0  0  0  0  0  0  0  0  0  0
   56.7940   23.9030   46.5400 C   0  0  0  0  0  0  0  0  0  0  0  0
   56.6412   22.8278   46.7149 H   0  0  0  0  0  0  0  0  0  0  0  0
   55.7030   24.7150   46.1950 C   0  0  0  0  0  0  0  0  0  0  0  0
   54.3920   24.1330   46.1010 N   0  0  0  0  0  0  0  0  0  0  0  0
   53.7390   24.2540   46.9080 H   0  0  0  0  0  0  0  0  0  0  0  0
   53.9560   23.3080   45.0090 C   0  0  0  0  0  0  0  0  0  0  0  0
   54.7990   22.6840   44.3120 O   0  0  0  0  0  0  0  0  0  0  0  0
   52.5620   23.1020   44.7570 N   0  0  0  0  0  0  0  0  0  0  0  0
   51.7200   23.9410   43.9540 C   0  0  0  0  0  0  0  0  0  0  0  0
   50.8480   24.8310   44.5910 C   0  0  0  0  0  0  0  0  0  0  0  0
   50.8345   24.8920   45.6892 H   0  0  0  0  0  0  0  0  0  0  0  0
   49.9940   25.6430   43.8390 C   0  0  0  0  0  0  0  0  0  0  0  0
   49.3183   26.3472   44.3464 H   0  0  0  0  0  0  0  0  0  0  0  0
   49.9970   25.5620   42.4450 C   0  0  0  0  0  0  0  0  0  0  0  0
   49.3245   26.2043   41.8575 H   0  0  0  0  0  0  0  0  0  0  0  0
   50.8540   24.6650   41.7910 C   0  0  0  0  0  0  0  0  0  0  0  0
   50.8120   24.5400   40.2960 C   0  0  0  0  0  0  0  0  0  0  0  0
   50.4727   23.5302   40.0219 H   0  0  0  0  0  0  0  0  0  0  0  0
   50.1149   25.2852   39.8852 H   0  0  0  0  0  0  0  0  0  0  0  0
   51.8176   24.7130   39.8852 H   0  0  0  0  0  0  0  0  0  0  0  0
   51.6990   23.8400   42.5500 C   0  0  0  0  0  0  0  0  0  0  0  0
   52.3486   23.1102   42.0446 H   0  0  0  0  0  0  0  0  0  0  0  0
   55.9070   26.0950   46.0090 C   0  0  0  0  0  0  0  0  0  0  0  0
   55.0547   26.7462   45.7651 H   0  0  0  0  0  0  0  0  0  0  0  0
  1  2  1  0
  2  3  2  0
  3  4  1  0
  4  5  1  0
  5  6  1  0
  5  7  2  0
  7  8  1  0
  8  9  2  0
  8 10  1  0
 10 11  2  0
 11 12  2  0
 11 13  1  6
 13 14  1  0
 13 15  1  0
 13 16  1  0
 11 17  1  0
 17 18  1  0
 17 19  1  0
 17 20  1  0
 20 21  3  0
  7 22  1  0
 22 23  1  0
 22 24  2  0
 24 25  1  0
 25 26  3  0
 26 27  1  0
 27 28  2  0
 28 29  1  0
 28 30  1  0
 30 31  1  0
 30 32  2  0
 32 33  1  0
 32 34  1  0
 34 35  1  0
 35 36  1  0
 35 37  1  0
 37 38  2  0
 37 39  1  0
 39 40  1  0
 40 41  2  0
 41 42  1  0
 41 43  1  0
 43 44  1  0
 43 45  2  0
 45 46  1  0
 45 47  1  0
 47 48  1  0
 48 49  1  0
 48 50  1  0
 48 51  1  0
 47 52  2  0
 52 53  1  0
 34 54  2  0
 54 55  1  0
 24  3  1  0
 54 27  1  0
 52 40  1  0
M  CHG  2   4  -1  39  -1
M  END
>  <UniqueID>  (57) 
54

>  <SMILES>  (57) 
[H]/N=c1/[n-]cc(C(=O)N=[S@@](C)(=O)CC#N)cc1C#Cc1cccc(NC(=O)[N-]c2cccc(C)c2)c1

>  <Energy>  (57) 
52.504822605995415

>  <Genealogy>  (57) 
Cc1cccc([N-]C(=O)Nc2cccc(C#Cc3cc(C(=O)N=S(C)(=O)CC#N)c[n-]c3=N)c2)c1 (protonated)
Cc1cccc([N-]C(=O)Nc2cccc(C#Cc3cc(C(=O)N=[S@@](C)(=O)CC#N)c[n-]c3=N)c2)c1 (chirality)
[H]/N=c1/[n-]cc(C(=O)N=[S@@](C)(=O)CC#N)cc1C#Cc1cccc(NC(=O)[N-]c2cccc(C)c2)c1 (cis-trans isomerization)
[H]/N=c1/[n-]cc(C(=O)N=[S@@](C)(=O)CC#N)cc1C#Cc1cccc(NC(=O)[N-]c2cccc(C)c2)c1 (3D coordinates assigned)
[H]/N=c1/[n-]cc(C(=O)N=[S@@](C)(=O)CC#N)cc1C#Cc1cccc(NC(=O)[N-]c2cccc(C)c2)c1 (optimized conformer: 52.504822605995415 kcal/mol)

>  <smiles>  (57) 
Cc1cccc(NC(=O)Nc2cccc(C#Cc3cc(C(=O)N=S(C)(=O)CC#N)c[nH]c3=N)c2)c1

>  <score_type>  (57) 
oracle

>  <origin>  (57) 
adg

>  <m_score__min__energy>  (57) 
-11.27

>  <m_primary>  (57) 
energy

$$$$
57:0
     RDKit          3D

 36 37  0  0  0  0  0  0  0  0999 V2000
   55.1380   26.7030   45.9950 O   0  0  0  0  0  0  0  0  0  0  0  0
   56.2010   26.1190   46.3340 C   0  0  0  0  0  0  0  0  0  0  0  0
   56.1380   24.9760   47.1210 O   0  0  0  0  0  0  0  0  0  0  0  0
   57.5240   26.6340   45.8640 C   0  0  0  0  0  0  0  0  0  0  0  0
   57.3590   27.5170   44.7550 O   0  0  0  0  0  0  0  0  0  0  0  0
   57.4640   28.9180   44.8080 C   0  0  0  0  0  0  0  0  0  0  0  0
   58.0440   29.5920   45.8990 C   0  0  0  0  0  0  0  0  0  0  0  0
   58.1650   30.9890   45.8910 C   0  0  0  0  0  0  0  0  0  0  0  0
   58.9470   31.7990   47.2500 S   0  0  0  0  0  0  0  0  0  0  0  0
   58.4920   31.2000   48.5530 O   0  0  0  0  0  0  0  0  0  0  0  0
   60.4320   31.6100   47.1240 O   0  0  0  0  0  0  0  0  0  0  0  0
   58.5910   33.5020   47.2280 N   0  0  0  0  0  0  0  0  0  0  0  0
   59.9010   34.3950   46.5130 S   0  0  0  0  0  0  0  0  0  0  0  0
   59.6120   35.8650   46.6420 O   0  0  0  0  0  0  0  0  0  0  0  0
   60.0140   34.0680   45.0500 O   0  0  0  0  0  0  0  0  0  0  0  0
   61.4230   34.0510   47.3310 C   0  0  0  0  0  0  0  0  0  0  0  0
   61.4870   34.0890   48.7320 C   0  0  0  0  0  0  0  0  0  0  0  0
   62.6790   33.7710   49.3900 C   0  0  0  0  0  0  0  0  0  0  0  0
   63.8120   33.4190   48.6530 C   0  0  0  0  0  0  0  0  0  0  0  0
   63.7560   33.3870   47.2560 C   0  0  0  0  0  0  0  0  0  0  0  0
   62.5670   33.7050   46.5950 C   0  0  0  0  0  0  0  0  0  0  0  0
   57.6640   31.7210   44.8020 C   0  0  0  0  0  0  0  0  0  0  0  0
   57.7410   33.0740   44.7770 F   0  0  0  0  0  0  0  0  0  0  0  0
   57.0790   31.0540   43.7230 C   0  0  0  0  0  0  0  0  0  0  0  0
   56.9830   29.6600   43.7240 C   0  0  0  0  0  0  0  0  0  0  0  0
   56.4240   29.0280   42.6630 F   0  0  0  0  0  0  0  0  0  0  0  0
   58.0130   27.1760   46.6869 H   0  0  0  0  0  0  0  0  0  0  0  0
   58.1419   25.7811   45.5468 H   0  0  0  0  0  0  0  0  0  0  0  0
   58.4054   29.0181   46.7651 H   0  0  0  0  0  0  0  0  0  0  0  0
   57.7610   33.6330   46.6080 H   0  0  0  0  0  0  0  0  0  0  0  0
   60.5970   34.3697   49.3143 H   0  0  0  0  0  0  0  0  0  0  0  0
   62.7245   33.7981   50.4887 H   0  0  0  0  0  0  0  0  0  0  0  0
   64.7487   33.1668   49.1716 H   0  0  0  0  0  0  0  0  0  0  0  0
   64.6495   33.1110   46.6767 H   0  0  0  0  0  0  0  0  0  0  0  0
   62.5273   33.6842   45.4959 H   0  0  0  0  0  0  0  0  0  0  0  0
   56.6921   31.6288   42.8686 H   0  0  0  0  0  0  0  0  0  0  0  0
  1  2  2  0
  2  3  1  0
  2  4  1  0
  4  5  1  0
  5  6  1  0
  6  7  2  0
  7  8  1  0
  8  9  1  0
  9 10  2  0
  9 11  2  0
  9 12  1  0
 12 13  1  0
 13 14  2  0
 13 15  2  0
 13 16  1  0
 16 17  2  0
 17 18  1  0
 18 19  2  0
 19 20  1  0
 20 21  2  0
  8 22  2  0
 22 23  1  0
 22 24  1  0
 24 25  2  0
 25 26  1  0
 25  6  1  0
 21 16  1  0
  4 27  1  0
  4 28  1  0
  7 29  1  0
 12 30  1  0
 17 31  1  0
 18 32  1  0
 19 33  1  0
 20 34  1  0
 21 35  1  0
 24 36  1  0
M  CHG  1   3  -1
M  END
>  <UniqueID>  (58) 
55

>  <SMILES>  (58) 
O=C([O-])COc1cc(S(=O)(=O)NS(=O)(=O)c2ccccc2)c(F)cc1F

>  <Energy>  (58) 
30.22381251672732

>  <Genealogy>  (58) 
O=C([O-])COc1cc(S(=O)(=O)NS(=O)(=O)c2ccccc2)c(F)cc1F (protonated)
O=C([O-])COc1cc(S(=O)(=O)NS(=O)(=O)c2ccccc2)c(F)cc1F (3D coordinates assigned)
O=C([O-])COc1cc(S(=O)(=O)NS(=O)(=O)c2ccccc2)c(F)cc1F (optimized conformer: 30.22381251672732 kcal/mol)

>  <smiles>  (58) 
O=C(O)COc1cc(S(=O)(=O)NS(=O)(=O)c2ccccc2)c(F)cc1F

>  <score_type>  (58) 
oracle

>  <origin>  (58) 
adg

>  <m_score__min__energy>  (58) 
-11.130000000000001

>  <m_primary>  (58) 
energy

$$$$
58:0
     RDKit          3D

 54 57  0  0  0  0  0  0  0  0999 V2000
   55.5040   29.2040   44.8520 N   0  0  0  0  0  0  0  0  0  0  0  0
   57.2110   29.3350   45.0740 S   0  0  0  0  0  0  0  0  0  0  0  0
   57.8340   29.8470   43.8060 O   0  0  0  0  0  0  0  0  0  0  0  0
   57.5070   30.3180   46.1730 O   0  0  0  0  0  0  0  0  0  0  0  0
   57.8880   27.7450   45.4710 C   0  0  0  0  0  0  0  0  0  0  0  0
   57.4670   26.6380   44.7170 C   0  0  0  0  0  0  0  0  0  0  0  0
   58.0210   25.3760   44.9340 C   0  0  0  0  0  0  0  0  0  0  0  0
   59.0100   25.2040   45.9010 C   0  0  0  0  0  0  0  0  0  0  0  0
   59.4330   26.2890   46.6680 C   0  0  0  0  0  0  0  0  0  0  0  0
   58.8650   27.5630   46.4840 C   0  0  0  0  0  0  0  0  0  0  0  0
   59.3130   28.6660   47.3640 C   0  0  0  0  0  0  0  0  0  0  0  0
   60.2440   29.6100   46.9040 C   0  0  0  0  0  0  0  0  0  0  0  0
   60.6860   30.6330   47.7470 C   0  0  0  0  0  0  0  0  0  0  0  0
   60.1860   30.7420   49.0540 C   0  0  0  0  0  0  0  0  0  0  0  0
   60.6520   31.8490   49.9690 C   0  0  0  0  0  0  0  0  0  0  0  0
   59.6480   32.9180   50.0920 N   0  0  0  0  0  0  0  0  0  0  0  0
   60.1420   34.1900   49.5480 C   0  0  0  0  0  0  0  0  0  0  0  0
   61.2830   33.9390   48.5900 C   0  0  0  0  0  0  0  0  0  0  0  0
   62.5990   33.9370   49.0850 C   0  0  0  0  0  0  0  0  0  0  0  0
   63.6830   33.7790   48.2190 C   0  0  0  0  0  0  0  0  0  0  0  0
   63.4680   33.6370   46.8480 C   0  0  0  0  0  0  0  0  0  0  0  0
   62.1690   33.6520   46.3370 C   0  0  0  0  0  0  0  0  0  0  0  0
   61.0690   33.8020   47.1960 C   0  0  0  0  0  0  0  0  0  0  0  0
   59.7140   33.8170   46.6120 C   0  0  0  0  0  0  0  0  0  0  0  0
   58.6700   33.1190   47.2360 C   0  0  0  0  0  0  0  0  0  0  0  0
   57.3850   33.1380   46.6830 C   0  0  0  0  0  0  0  0  0  0  0  0
   57.1380   33.8580   45.5110 C   0  0  0  0  0  0  0  0  0  0  0  0
   58.1740   34.5550   44.8860 C   0  0  0  0  0  0  0  0  0  0  0  0
   59.4600   34.5400   45.4360 C   0  0  0  0  0  0  0  0  0  0  0  0
   59.2160   29.8270   49.4950 C   0  0  0  0  0  0  0  0  0  0  0  0
   58.7850   28.7950   48.6570 C   0  0  0  0  0  0  0  0  0  0  0  0
   55.1400   28.6010   45.6250 H   0  0  0  0  0  0  0  0  0  0  0  0
   56.6921   26.7670   43.9470 H   0  0  0  0  0  0  0  0  0  0  0  0
   57.6768   24.5157   44.3412 H   0  0  0  0  0  0  0  0  0  0  0  0
   59.4572   24.2115   46.0592 H   0  0  0  0  0  0  0  0  0  0  0  0
   60.2188   26.1474   47.4246 H   0  0  0  0  0  0  0  0  0  0  0  0
   60.6275   29.5443   45.8751 H   0  0  0  0  0  0  0  0  0  0  0  0
   61.4302   31.3572   47.3842 H   0  0  0  0  0  0  0  0  0  0  0  0
   60.8470   31.4278   50.9663 H   0  0  0  0  0  0  0  0  0  0  0  0
   61.5647   32.2863   49.5380 H   0  0  0  0  0  0  0  0  0  0  0  0
   58.7710   32.6320   49.5930 H   0  0  0  0  0  0  0  0  0  0  0  0
   59.3253   34.6990   49.0152 H   0  0  0  0  0  0  0  0  0  0  0  0
   60.4999   34.8198   50.3758 H   0  0  0  0  0  0  0  0  0  0  0  0
   62.7762   34.0609   50.1635 H   0  0  0  0  0  0  0  0  0  0  0  0
   64.7078   33.7665   48.6184 H   0  0  0  0  0  0  0  0  0  0  0  0
   64.3238   33.5130   46.1682 H   0  0  0  0  0  0  0  0  0  0  0  0
   62.0064   33.5456   45.2543 H   0  0  0  0  0  0  0  0  0  0  0  0
   58.8616   32.5559   48.1613 H   0  0  0  0  0  0  0  0  0  0  0  0
   56.5684   32.5858   47.1711 H   0  0  0  0  0  0  0  0  0  0  0  0
   56.1260   33.8757   45.0802 H   0  0  0  0  0  0  0  0  0  0  0  0
   57.9787   35.1163   43.9604 H   0  0  0  0  0  0  0  0  0  0  0  0
   60.2734   35.0955   44.9463 H   0  0  0  0  0  0  0  0  0  0  0  0
   58.7931   29.9232   50.5059 H   0  0  0  0  0  0  0  0  0  0  0  0
   58.0282   28.0806   49.0131 H   0  0  0  0  0  0  0  0  0  0  0  0
  1  2  1  0
  2  3  2  0
  2  4  2  0
  2  5  1  0
  5  6  2  0
  6  7  1  0
  7  8  2  0
  8  9  1  0
  9 10  2  0
 10 11  1  0
 11 12  2  0
 12 13  1  0
 13 14  2  0
 14 15  1  0
 15 16  1  0
 16 17  1  0
 17 18  1  0
 18 19  2  0
 19 20  1  0
 20 21  2  0
 21 22  1  0
 22 23  2  0
 23 24  1  0
 24 25  2  0
 25 26  1  0
 26 27  2  0
 27 28  1  0
 28 29  2  0
 14 30  1  0
 30 31  2  0
 10  5  1  0
 31 11  1  0
 23 18  1  0
 29 24  1  0
  1 32  1  0
  6 33  1  0
  7 34  1  0
  8 35  1  0
  9 36  1  0
 12 37  1  0
 13 38  1  0
 15 39  1  0
 15 40  1  0
 16 41  1  0
 17 42  1  0
 17 43  1  0
 19 44  1  0
 20 45  1  0
 21 46  1  0
 22 47  1  0
 25 48  1  0
 26 49  1  0
 27 50  1  0
 28 51  1  0
 29 52  1  0
 30 53  1  0
 31 54  1  0
M  CHG  1   1  -1
M  END
>  <UniqueID>  (59) 
56

>  <SMILES>  (59) 
[NH-]S(=O)(=O)c1ccccc1-c1ccc(CNCc2ccccc2-c2ccccc2)cc1

>  <Energy>  (59) 
70.26841616928617

>  <Genealogy>  (59) 
[NH-]S(=O)(=O)c1ccccc1-c1ccc(CNCc2ccccc2-c2ccccc2)cc1 (protonated)
[NH-]S(=O)(=O)c1ccccc1-c1ccc(CNCc2ccccc2-c2ccccc2)cc1 (3D coordinates assigned)
[NH-]S(=O)(=O)c1ccccc1-c1ccc(CNCc2ccccc2-c2ccccc2)cc1 (optimized conformer: 70.26841616928617 kcal/mol)

>  <smiles>  (59) 
NS(=O)(=O)c1ccccc1-c1ccc(CNCc2ccccc2-c2ccccc2)cc1

>  <score_type>  (59) 
oracle

>  <origin>  (59) 
adg

>  <m_score__min__energy>  (59) 
-12.800000000000001

>  <m_primary>  (59) 
energy

$$$$
59:0
     RDKit          3D

 54 57  0  0  0  0  0  0  0  0999 V2000
   61.9980   30.2730   50.5950 O   0  0  0  0  0  0  0  0  0  0  0  0
   60.9410   30.8480   50.2180 C   0  0  0  0  0  0  0  0  0  0  0  0
   60.4810   32.0290   50.8940 N   0  0  0  0  0  0  0  0  0  0  0  0
   61.2900   32.7420   51.8820 C   0  0  0  0  0  0  0  0  0  0  0  0
   62.1270   33.8500   51.2250 C   0  0  0  0  0  0  0  0  0  0  0  0
   62.4950   33.5300   49.7880 C   0  0  0  0  0  0  0  0  0  0  0  0
   63.7080   32.8510   49.5580 C   0  0  0  0  0  0  0  0  0  0  0  0
   64.1320   32.5620   48.2610 C   0  0  0  0  0  0  0  0  0  0  0  0
   63.3470   32.9290   47.1720 C   0  0  0  0  0  0  0  0  0  0  0  0
   62.1220   33.5640   47.3770 C   0  0  0  0  0  0  0  0  0  0  0  0
   61.6670   33.8570   48.6770 C   0  0  0  0  0  0  0  0  0  0  0  0
   60.2910   34.4740   48.8220 C   0  0  0  0  0  0  0  0  0  0  0  0
   59.4470   34.2940   47.5860 C   0  0  0  0  0  0  0  0  0  0  0  0
   59.6470   35.1140   46.4620 C   0  0  0  0  0  0  0  0  0  0  0  0
   58.9300   34.8880   45.2850 C   0  0  0  0  0  0  0  0  0  0  0  0
   58.0110   33.8370   45.2150 C   0  0  0  0  0  0  0  0  0  0  0  0
   57.3240   33.6110   44.0690 F   0  0  0  0  0  0  0  0  0  0  0  0
   57.8000   33.0200   46.3290 C   0  0  0  0  0  0  0  0  0  0  0  0
   58.5190   33.2410   47.5070 C   0  0  0  0  0  0  0  0  0  0  0  0
   60.1960   30.2890   49.0790 C   0  0  0  0  0  0  0  0  0  0  0  0
   60.7030   29.9740   47.8340 C   0  0  0  0  0  0  0  0  0  0  0  0
   59.6090   29.4760   47.1610 C   0  0  0  0  0  0  0  0  0  0  0  0
   59.5930   28.9490   45.7630 C   0  0  0  0  0  0  0  0  0  0  0  0
   58.3850   29.4680   45.0330 C   0  0  0  0  0  0  0  0  0  0  0  0
   58.5190   30.4930   44.0830 C   0  0  0  0  0  0  0  0  0  0  0  0
   57.4000   30.9510   43.3790 C   0  0  0  0  0  0  0  0  0  0  0  0
   56.1450   30.3810   43.6120 C   0  0  0  0  0  0  0  0  0  0  0  0
   56.0070   29.3510   44.5460 C   0  0  0  0  0  0  0  0  0  0  0  0
   57.1230   28.8910   45.2530 C   0  0  0  0  0  0  0  0  0  0  0  0
   58.5690   29.4950   47.9600 O   0  0  0  0  0  0  0  0  0  0  0  0
   58.8850   29.9790   49.1260 N   0  0  0  0  0  0  0  0  0  0  0  0
   59.5350   32.4120   50.6750 H   0  0  0  0  0  0  0  0  0  0  0  0
   60.6237   33.1934   52.6319 H   0  0  0  0  0  0  0  0  0  0  0  0
   61.9759   32.0224   52.3529 H   0  0  0  0  0  0  0  0  0  0  0  0
   61.5477   34.7850   51.2403 H   0  0  0  0  0  0  0  0  0  0  0  0
   63.0629   33.9428   51.7955 H   0  0  0  0  0  0  0  0  0  0  0  0
   64.3289   32.5447   50.4128 H   0  0  0  0  0  0  0  0  0  0  0  0
   65.0883   32.0432   48.0986 H   0  0  0  0  0  0  0  0  0  0  0  0
   63.6927   32.7183   46.1492 H   0  0  0  0  0  0  0  0  0  0  0  0
   61.5026   33.8398   46.5108 H   0  0  0  0  0  0  0  0  0  0  0  0
   59.7787   33.9991   49.6717 H   0  0  0  0  0  0  0  0  0  0  0  0
   60.4232   35.5540   48.9833 H   0  0  0  0  0  0  0  0  0  0  0  0
   60.3729   35.9391   46.5097 H   0  0  0  0  0  0  0  0  0  0  0  0
   59.0887   35.5379   44.4118 H   0  0  0  0  0  0  0  0  0  0  0  0
   57.0668   32.2016   46.2786 H   0  0  0  0  0  0  0  0  0  0  0  0
   58.3579   32.5874   48.3770 H   0  0  0  0  0  0  0  0  0  0  0  0
   61.7333   30.0923   47.4674 H   0  0  0  0  0  0  0  0  0  0  0  0
   60.5036   29.2761   45.2397 H   0  0  0  0  0  0  0  0  0  0  0  0
   59.5541   27.8500   45.7912 H   0  0  0  0  0  0  0  0  0  0  0  0
   59.5069   30.9374   43.8916 H   0  0  0  0  0  0  0  0  0  0  0  0
   57.5078   31.7601   42.6417 H   0  0  0  0  0  0  0  0  0  0  0  0
   55.2655   30.7436   43.0597 H   0  0  0  0  0  0  0  0  0  0  0  0
   55.0194   28.9012   44.7256 H   0  0  0  0  0  0  0  0  0  0  0  0
   57.0122   28.0756   45.9829 H   0  0  0  0  0  0  0  0  0  0  0  0
  1  2  2  0
  2  3  1  0
  3  4  1  0
  4  5  1  0
  5  6  1  0
  6  7  2  0
  7  8  1  0
  8  9  2  0
  9 10  1  0
 10 11  2  0
 11 12  1  0
 12 13  1  0
 13 14  2  0
 14 15  1  0
 15 16  2  0
 16 17  1  0
 16 18  1  0
 18 19  2  0
  2 20  1  0
 20 21  1  0
 21 22  2  0
 22 23  1  0
 23 24  1  0
 24 25  2  0
 25 26  1  0
 26 27  2  0
 27 28  1  0
 28 29  2  0
 22 30  1  0
 30 31  1  0
 11  6  1  0
 19 13  1  0
 31 20  2  0
 29 24  1  0
  3 32  1  0
  4 33  1  0
  4 34  1  0
  5 35  1  0
  5 36  1  0
  7 37  1  0
  8 38  1  0
  9 39  1  0
 10 40  1  0
 12 41  1  0
 12 42  1  0
 14 43  1  0
 15 44  1  0
 18 45  1  0
 19 46  1  0
 21 47  1  0
 23 48  1  0
 23 49  1  0
 25 50  1  0
 26 51  1  0
 27 52  1  0
 28 53  1  0
 29 54  1  0
M  END
>  <UniqueID>  (60) 
57

>  <SMILES>  (60) 
O=C(NCCc1ccccc1Cc1ccc(F)cc1)c1cc(Cc2ccccc2)on1

>  <Energy>  (60) 
80.63568972685033

>  <Genealogy>  (60) 
O=C(NCCc1ccccc1Cc1ccc(F)cc1)c1cc(Cc2ccccc2)on1 (3D coordinates assigned)
O=C(NCCc1ccccc1Cc1ccc(F)cc1)c1cc(Cc2ccccc2)on1 (optimized conformer: 80.63568972685033 kcal/mol)

>  <smiles>  (60) 
O=C(NCCc1ccccc1Cc1ccc(F)cc1)c1cc(Cc2ccccc2)on1

>  <score_type>  (60) 
oracle

>  <origin>  (60) 
adg

>  <m_score__min__energy>  (60) 
-9.7200000000000006

>  <m_primary>  (60) 
energy

$$$$
60:0
     RDKit          3D

 62 65  0  0  0  0  0  0  0  0999 V2000
   55.2930   22.5850   47.9810 C   0  0  0  0  0  0  0  0  0  0  0  0
   55.2330   21.3880   47.0660 C   0  0  0  0  0  0  0  0  0  0  0  0
   54.2190   21.5710   46.1310 O   0  0  0  0  0  0  0  0  0  0  0  0
   52.9160   21.9000   46.3220 C   0  0  0  0  0  0  0  0  0  0  0  0
   52.1230   21.0160   47.0520 C   0  0  0  0  0  0  0  0  0  0  0  0
   50.7790   21.2670   47.2880 C   0  0  0  0  0  0  0  0  0  0  0  0
   50.2660   22.4250   46.7690 C   0  0  0  0  0  0  0  0  0  0  0  0
   51.0480   23.2960   46.0510 C   0  0  0  0  0  0  0  0  0  0  0  0
   52.4110   23.0560   45.8050 C   0  0  0  0  0  0  0  0  0  0  0  0
   53.1210   24.1100   45.0800 C   0  0  0  0  0  0  0  0  0  0  0  0
   54.5450   24.1980   45.2650 N   0  0  0  0  0  0  0  0  0  0  0  0
   55.3340   25.2550   45.6960 C   0  0  0  0  0  0  0  0  0  0  0  0
   54.7560   26.3420   45.9950 O   0  0  0  0  0  0  0  0  0  0  0  0
   56.7810   25.2710   45.8560 C   0  0  0  0  0  0  0  0  0  0  0  0
   57.3690   26.4440   46.2430 N   0  0  0  0  0  0  0  0  0  0  0  0
   58.6950   26.5640   46.4160 C   0  0  0  0  0  0  0  0  0  0  0  0
   59.3390   27.8060   46.8280 C   0  0  0  0  0  0  0  0  0  0  0  0
   59.6640   28.8240   45.9580 C   0  0  0  0  0  0  0  0  0  0  0  0
   60.2710   29.9890   46.3930 C   0  0  0  0  0  0  0  0  0  0  0  0
   60.5790   30.1840   47.7210 C   0  0  0  0  0  0  0  0  0  0  0  0
   61.1980   31.3850   48.1720 N   0  0  0  0  0  0  0  0  0  0  0  0
   60.1750   32.7090   48.5660 S   0  0  0  0  0  0  0  0  0  0  0  0
   59.1520   32.3890   49.6050 O   0  0  0  0  0  0  0  0  0  0  0  0
   61.0400   33.8250   49.0900 O   0  0  0  0  0  0  0  0  0  0  0  0
   59.3350   33.3010   47.1330 C   0  0  0  0  0  0  0  0  0  0  0  0
   59.9070   34.2560   46.3110 C   0  0  0  0  0  0  0  0  0  0  0  0
   59.2200   34.6910   45.2010 C   0  0  0  0  0  0  0  0  0  0  0  0
   57.9770   34.2170   44.8630 C   0  0  0  0  0  0  0  0  0  0  0  0
   57.4040   33.2660   45.6790 C   0  0  0  0  0  0  0  0  0  0  0  0
   58.0860   32.8250   46.7960 C   0  0  0  0  0  0  0  0  0  0  0  0
   60.2620   29.1770   48.6080 C   0  0  0  0  0  0  0  0  0  0  0  0
   59.6570   28.0210   48.1630 C   0  0  0  0  0  0  0  0  0  0  0  0
   59.4800   25.5070   46.2030 N   0  0  0  0  0  0  0  0  0  0  0  0
   59.0040   24.3160   45.8220 C   0  0  0  0  0  0  0  0  0  0  0  0
   59.7840   23.3090   45.6220 N   0  0  0  0  0  0  0  0  0  0  0  0
   57.6250   24.2180   45.6500 C   0  0  0  0  0  0  0  0  0  0  0  0
   57.1630   22.9750   45.2560 O   0  0  0  0  0  0  0  0  0  0  0  0
   55.2761   22.2475   49.0278 H   0  0  0  0  0  0  0  0  0  0  0  0
   56.2204   23.1454   47.7913 H   0  0  0  0  0  0  0  0  0  0  0  0
   54.4263   23.2353   47.7913 H   0  0  0  0  0  0  0  0  0  0  0  0
   56.1957   21.2751   46.5459 H   0  0  0  0  0  0  0  0  0  0  0  0
   55.0283   20.4834   47.6575 H   0  0  0  0  0  0  0  0  0  0  0  0
   52.5744   20.0958   47.4512 H   0  0  0  0  0  0  0  0  0  0  0  0
   50.1552   20.5684   47.8649 H   0  0  0  0  0  0  0  0  0  0  0  0
   49.2043   22.6631   46.9306 H   0  0  0  0  0  0  0  0  0  0  0  0
   50.5913   24.2146   45.6540 H   0  0  0  0  0  0  0  0  0  0  0  0
   52.9369   23.9536   44.0068 H   0  0  0  0  0  0  0  0  0  0  0  0
   52.7255   25.0500   45.4923 H   0  0  0  0  0  0  0  0  0  0  0  0
   55.0620   23.2950   45.0280 H   0  0  0  0  0  0  0  0  0  0  0  0
   56.8030   27.2970   46.4230 H   0  0  0  0  0  0  0  0  0  0  0  0
   59.4347   28.7074   44.8885 H   0  0  0  0  0  0  0  0  0  0  0  0
   60.5125   30.7756   45.6629 H   0  0  0  0  0  0  0  0  0  0  0  0
   62.2430   31.4220   48.2480 H   0  0  0  0  0  0  0  0  0  0  0  0
   60.9020   34.6637   46.5429 H   0  0  0  0  0  0  0  0  0  0  0  0
   59.6868   35.4509   44.5571 H   0  0  0  0  0  0  0  0  0  0  0  0
   57.4542   34.5851   43.9679 H   0  0  0  0  0  0  0  0  0  0  0  0
   56.4093   32.8605   45.4422 H   0  0  0  0  0  0  0  0  0  0  0  0
   57.6158   32.0670   47.4396 H   0  0  0  0  0  0  0  0  0  0  0  0
   60.4932   29.2968   49.6767 H   0  0  0  0  0  0  0  0  0  0  0  0
   59.4161   27.2364   48.8954 H   0  0  0  0  0  0  0  0  0  0  0  0
   59.3640   22.4410   45.2290 H   0  0  0  0  0  0  0  0  0  0  0  0
   57.8930   22.2720   45.0680 H   0  0  0  0  0  0  0  0  0  0  0  0
  1  2  1  0
  2  3  1  0
  3  4  1  0
  4  5  2  0
  5  6  1  0
  6  7  2  0
  7  8  1  0
  8  9  2  0
  9 10  1  0
 10 11  1  0
 11 12  1  0
 12 13  2  0
 12 14  1  0
 14 15  1  0
 15 16  1  0
 16 17  1  0
 17 18  2  0
 18 19  1  0
 19 20  2  0
 20 21  1  0
 21 22  1  0
 22 23  2  0
 22 24  2  0
 22 25  1  0
 25 26  2  0
 26 27  1  0
 27 28  2  0
 28 29  1  0
 29 30  2  0
 20 31  1  0
 31 32  2  0
 16 33  2  0
 33 34  1  0
 34 35  2  3
 34 36  1  0
 36 37  1  0
  9  4  1  0
 36 14  2  0
 32 17  1  0
 30 25  1  0
  1 38  1  0
  1 39  1  0
  1 40  1  0
  2 41  1  0
  2 42  1  0
  5 43  1  0
  6 44  1  0
  7 45  1  0
  8 46  1  0
 10 47  1  0
 10 48  1  0
 11 49  1  0
 15 50  1  0
 18 51  1  0
 19 52  1  0
 21 53  1  0
 26 54  1  0
 27 55  1  0
 28 56  1  0
 29 57  1  0
 30 58  1  0
 31 59  1  0
 32 60  1  0
 35 61  1  0
 37 62  1  0
M  END
>  <smiles>  (61) 
CCOc1ccccc1CNC(=O)c1[nH]c(-c2ccc(NS(=O)(=O)c3ccccc3)cc2)nc(=N)c1O

>  <score_type>  (61) 
oracle

>  <origin>  (61) 
adg

>  <m_score__min__energy>  (61) 
-9.25

>  <m_primary>  (61) 
energy

$$$$
61:0
     RDKit          3D

 48 51  0  0  0  0  0  0  0  0999 V2000
   57.8370   27.6610   43.4540 O   0  0  0  0  0  0  0  0  0  0  0  0
   57.6880   28.8800   43.7390 C   0  0  0  0  0  0  0  0  0  0  0  0
   56.4860   29.5120   43.4160 C   0  0  0  0  0  0  0  0  0  0  0  0
   56.3010   30.8450   43.7600 C   0  0  0  0  0  0  0  0  0  0  0  0
   57.3450   31.5410   44.3730 C   0  0  0  0  0  0  0  0  0  0  0  0
   57.1440   32.9410   44.8940 C   0  0  0  0  0  0  0  0  0  0  0  0
   58.2690   33.2770   45.8400 C   0  0  0  0  0  0  0  0  0  0  0  0
   58.2000   32.8730   47.1830 C   0  0  0  0  0  0  0  0  0  0  0  0
   59.3090   33.0140   48.0220 C   0  0  0  0  0  0  0  0  0  0  0  0
   60.5100   33.5580   47.5310 C   0  0  0  0  0  0  0  0  0  0  0  0
   61.7080   33.6460   48.4010 C   0  0  0  0  0  0  0  0  0  0  0  0
   61.5970   34.1060   49.7270 C   0  0  0  0  0  0  0  0  0  0  0  0
   62.7310   34.1970   50.5410 C   0  0  0  0  0  0  0  0  0  0  0  0
   63.9840   33.8340   50.0410 C   0  0  0  0  0  0  0  0  0  0  0  0
   64.1060   33.3810   48.7260 C   0  0  0  0  0  0  0  0  0  0  0  0
   62.9760   33.2860   47.9080 C   0  0  0  0  0  0  0  0  0  0  0  0
   60.5670   33.9840   46.1920 C   0  0  0  0  0  0  0  0  0  0  0  0
   59.4570   33.8440   45.3550 C   0  0  0  0  0  0  0  0  0  0  0  0
   58.5260   30.9000   44.6010 N   0  0  0  0  0  0  0  0  0  0  0  0
   58.6820   29.5890   44.3670 N   0  0  0  0  0  0  0  0  0  0  0  0
   59.9190   28.9370   44.8340 C   0  0  0  0  0  0  0  0  0  0  0  0
   60.0840   29.1410   46.3250 C   0  0  0  0  0  0  0  0  0  0  0  0
   61.0270   30.0730   46.7960 C   0  0  0  0  0  0  0  0  0  0  0  0
   61.1410   30.3380   48.1630 C   0  0  0  0  0  0  0  0  0  0  0  0
   60.3130   29.6840   49.0750 C   0  0  0  0  0  0  0  0  0  0  0  0
   59.3680   28.7610   48.6240 C   0  0  0  0  0  0  0  0  0  0  0  0
   59.2480   28.4840   47.2570 C   0  0  0  0  0  0  0  0  0  0  0  0
   58.0320   27.3170   46.7510 Cl  0  0  0  0  0  0  0  0  0  0  0  0
   55.6917   28.9589   42.8933 H   0  0  0  0  0  0  0  0  0  0  0  0
   55.3441   31.3461   43.5521 H   0  0  0  0  0  0  0  0  0  0  0  0
   57.1437   33.6510   44.0538 H   0  0  0  0  0  0  0  0  0  0  0  0
   56.1812   33.0073   45.4219 H   0  0  0  0  0  0  0  0  0  0  0  0
   57.2675   32.4429   47.5772 H   0  0  0  0  0  0  0  0  0  0  0  0
   59.2423   32.6975   49.0734 H   0  0  0  0  0  0  0  0  0  0  0  0
   60.6132   34.3954   50.1251 H   0  0  0  0  0  0  0  0  0  0  0  0
   62.6360   34.5551   51.5767 H   0  0  0  0  0  0  0  0  0  0  0  0
   64.8742   33.9051   50.6832 H   0  0  0  0  0  0  0  0  0  0  0  0
   65.0935   33.0981   48.3325 H   0  0  0  0  0  0  0  0  0  0  0  0
   63.0787   32.9278   46.8731 H   0  0  0  0  0  0  0  0  0  0  0  0
   61.4927   34.4309   45.8005 H   0  0  0  0  0  0  0  0  0  0  0  0
   59.5150   34.1804   44.3093 H   0  0  0  0  0  0  0  0  0  0  0  0
   59.3100   31.4430   45.0290 H   0  0  0  0  0  0  0  0  0  0  0  0
   59.8663   27.8597   44.6179 H   0  0  0  0  0  0  0  0  0  0  0  0
   60.7793   29.3819   44.3125 H   0  0  0  0  0  0  0  0  0  0  0  0
   61.6796   30.5971   46.0823 H   0  0  0  0  0  0  0  0  0  0  0  0
   61.8856   31.0643   48.5208 H   0  0  0  0  0  0  0  0  0  0  0  0
   60.4047   29.8957   50.1505 H   0  0  0  0  0  0  0  0  0  0  0  0
   58.7147   28.2490   49.3459 H   0  0  0  0  0  0  0  0  0  0  0  0
  1  2  2  0
  2  3  1  0
  3  4  2  0
  4  5  1  0
  5  6  1  0
  6  7  1  0
  7  8  2  0
  8  9  1  0
  9 10  2  0
 10 11  1  0
 11 12  2  0
 12 13  1  0
 13 14  2  0
 14 15  1  0
 15 16  2  0
 10 17  1  0
 17 18  2  0
  5 19  2  0
 19 20  1  0
 20 21  1  0
 21 22  1  0
 22 23  2  0
 23 24  1  0
 24 25  2  0
 25 26  1  0
 26 27  2  0
 27 28  1  0
 20  2  1  0
 27 22  1  0
 18  7  1  0
 16 11  1  0
  3 29  1  0
  4 30  1  0
  6 31  1  0
  6 32  1  0
  8 33  1  0
  9 34  1  0
 12 35  1  0
 13 36  1  0
 14 37  1  0
 15 38  1  0
 16 39  1  0
 17 40  1  0
 18 41  1  0
 19 42  1  0
 21 43  1  0
 21 44  1  0
 23 45  1  0
 24 46  1  0
 25 47  1  0
 26 48  1  0
M  CHG  1  19   1
M  END
>  <UniqueID>  (62) 
58

>  <SMILES>  (62) 
O=c1ccc(Cc2ccc(-c3ccccc3)cc2)[nH+]n1Cc1ccccc1Cl

>  <Energy>  (62) 
57.20091501456306

>  <Genealogy>  (62) 
O=c1ccc(Cc2ccc(-c3ccccc3)cc2)[nH+]n1Cc1ccccc1Cl (protonated)
O=c1ccc(Cc2ccc(-c3ccccc3)cc2)[nH+]n1Cc1ccccc1Cl (3D coordinates assigned)
O=c1ccc(Cc2ccc(-c3ccccc3)cc2)[nH+]n1Cc1ccccc1Cl (optimized conformer: 57.20091501456306 kcal/mol)

>  <smiles>  (62) 
O=c1ccc(Cc2ccc(-c3ccccc3)cc2)nn1Cc1ccccc1Cl

>  <score_type>  (62) 
oracle

>  <origin>  (62) 
adg

>  <m_score__min__energy>  (62) 
-7.6399999999999997

>  <m_primary>  (62) 
energy

$$$$
62:0
     RDKit          3D

 53 56  0  0  0  0  0  0  0  0999 V2000
   51.7180   28.4750   52.8820 C   0  0  0  0  0  0  0  0  0  0  0  0
   52.3090   29.7780   52.5600 N   0  0  0  0  0  0  0  0  0  0  0  0
   51.4130   30.9030   52.2470 C   0  0  0  0  0  0  0  0  0  0  0  0
   53.7510   29.9580   52.5590 C   0  0  0  0  0  0  0  0  0  0  0  0
   54.6010   29.0230   53.1810 C   0  0  0  0  0  0  0  0  0  0  0  0
   55.9880   29.1930   53.1670 C   0  0  0  0  0  0  0  0  0  0  0  0
   56.5590   30.3040   52.5310 C   0  0  0  0  0  0  0  0  0  0  0  0
   58.0520   30.4830   52.4890 C   0  0  0  0  0  0  0  0  0  0  0  0
   58.4010   31.5850   51.5960 N   0  0  0  0  0  0  0  0  0  0  0  0
   58.6240   31.3910   50.1860 C   0  0  0  0  0  0  0  0  0  0  0  0
   58.4850   30.2400   49.6860 O   0  0  0  0  0  0  0  0  0  0  0  0
   58.9870   32.5270   49.3050 C   0  0  0  0  0  0  0  0  0  0  0  0
   59.9180   33.4830   49.7380 C   0  0  0  0  0  0  0  0  0  0  0  0
   60.2900   34.5400   48.9020 C   0  0  0  0  0  0  0  0  0  0  0  0
   59.7420   34.6540   47.6280 C   0  0  0  0  0  0  0  0  0  0  0  0
   58.8050   33.7180   47.1830 C   0  0  0  0  0  0  0  0  0  0  0  0
   58.1730   33.8200   45.5390 S   0  0  0  0  0  0  0  0  0  0  0  0
   56.6890   34.0860   45.5860 O   0  0  0  0  0  0  0  0  0  0  0  0
   58.8480   34.9700   44.8340 O   0  0  0  0  0  0  0  0  0  0  0  0
   58.4520   32.3580   44.6290 N   0  0  0  0  0  0  0  0  0  0  0  0
   58.2370   31.0240   45.1200 C   0  0  0  0  0  0  0  0  0  0  0  0
   59.2770   30.3920   45.8480 C   0  0  0  0  0  0  0  0  0  0  0  0
   59.1100   29.0860   46.3520 C   0  0  0  0  0  0  0  0  0  0  0  0
   57.9010   28.4410   46.0960 C   0  0  0  0  0  0  0  0  0  0  0  0
   57.5320   27.2060   46.4750 N   0  0  0  0  0  0  0  0  0  0  0  0
   56.2850   27.1040   45.9410 C   0  0  0  0  0  0  0  0  0  0  0  0
   55.5750   26.0690   46.0710 O   0  0  0  0  0  0  0  0  0  0  0  0
   55.8610   28.1940   45.2500 N   0  0  0  0  0  0  0  0  0  0  0  0
   56.9100   29.0290   45.3690 C   0  0  0  0  0  0  0  0  0  0  0  0
   57.0430   30.3130   44.8430 C   0  0  0  0  0  0  0  0  0  0  0  0
   58.4170   32.6680   48.0290 C   0  0  0  0  0  0  0  0  0  0  0  0
   55.7240   31.2440   51.9170 C   0  0  0  0  0  0  0  0  0  0  0  0
   54.3380   31.0740   51.9280 C   0  0  0  0  0  0  0  0  0  0  0  0
   51.6643   28.3566   53.9743 H   0  0  0  0  0  0  0  0  0  0  0  0
   50.7053   28.4165   52.4566 H   0  0  0  0  0  0  0  0  0  0  0  0
   52.3411   27.6745   52.4566 H   0  0  0  0  0  0  0  0  0  0  0  0
   51.0524   31.3558   53.1824 H   0  0  0  0  0  0  0  0  0  0  0  0
   51.9610   31.6565   51.6623 H   0  0  0  0  0  0  0  0  0  0  0  0
   50.5559   30.5375   51.6623 H   0  0  0  0  0  0  0  0  0  0  0  0
   54.1671   28.1467   53.6848 H   0  0  0  0  0  0  0  0  0  0  0  0
   56.6351   28.4510   53.6577 H   0  0  0  0  0  0  0  0  0  0  0  0
   58.4204   30.7047   53.5015 H   0  0  0  0  0  0  0  0  0  0  0  0
   58.5150   29.5574   52.1163 H   0  0  0  0  0  0  0  0  0  0  0  0
   58.3830   32.5520   51.9940 H   0  0  0  0  0  0  0  0  0  0  0  0
   60.3585   33.4003   50.7426 H   0  0  0  0  0  0  0  0  0  0  0  0
   61.0193   35.2850   49.2529 H   0  0  0  0  0  0  0  0  0  0  0  0
   60.0468   35.4817   46.9707 H   0  0  0  0  0  0  0  0  0  0  0  0
   60.2231   30.9259   46.0211 H   0  0  0  0  0  0  0  0  0  0  0  0
   59.9068   28.5926   46.9278 H   0  0  0  0  0  0  0  0  0  0  0  0
   56.2455   30.7606   44.2316 H   0  0  0  0  0  0  0  0  0  0  0  0
   57.6583   31.9476   47.6893 H   0  0  0  0  0  0  0  0  0  0  0  0
   56.1625   32.1231   51.4221 H   0  0  0  0  0  0  0  0  0  0  0  0
   53.6957   31.8205   51.4380 H   0  0  0  0  0  0  0  0  0  0  0  0
  1  2  1  0
  2  3  1  0
  2  4  1  0
  4  5  2  0
  5  6  1  0
  6  7  2  0
  7  8  1  0
  8  9  1  0
  9 10  1  0
 10 11  2  0
 10 12  1  0
 12 13  2  0
 13 14  1  0
 14 15  2  0
 15 16  1  0
 16 17  1  0
 17 18  2  0
 17 19  2  0
 17 20  1  0
 20 21  1  0
 21 22  2  0
 22 23  1  0
 23 24  2  0
 24 25  1  0
 25 26  1  0
 26 27  2  0
 26 28  1  0
 28 29  1  0
 29 30  2  0
 16 31  2  0
  7 32  1  0
 32 33  2  0
 33  4  1  0
 31 12  1  0
 30 21  1  0
 29 24  1  0
  1 34  1  0
  1 35  1  0
  1 36  1  0
  3 37  1  0
  3 38  1  0
  3 39  1  0
  5 40  1  0
  6 41  1  0
  8 42  1  0
  8 43  1  0
  9 44  1  0
 13 45  1  0
 14 46  1  0
 15 47  1  0
 22 48  1  0
 23 49  1  0
 30 50  1  0
 31 51  1  0
 32 52  1  0
 33 53  1  0
M  CHG  3  20  -1  25  -1  28  -1
M  END
>  <UniqueID>  (63) 
59

>  <SMILES>  (63) 
CN(C)c1ccc(CNC(=O)c2cccc(S(=O)(=O)[N-]c3ccc4[n-]c(=O)[n-]c4c3)c2)cc1

>  <Energy>  (63) 
101.7841526516667

>  <Genealogy>  (63) 
CN(C)c1ccc(CNC(=O)c2cccc(S(=O)(=O)[N-]c3ccc4[n-]c(=O)[n-]c4c3)c2)cc1 (protonated)
CN(C)c1ccc(CNC(=O)c2cccc(S(=O)(=O)[N-]c3ccc4[n-]c(=O)[n-]c4c3)c2)cc1 (3D coordinates assigned)
CN(C)c1ccc(CNC(=O)c2cccc(S(=O)(=O)[N-]c3ccc4[n-]c(=O)[n-]c4c3)c2)cc1 (optimized conformer: 101.7841526516667 kcal/mol)

>  <smiles>  (63) 
CN(C)c1ccc(CNC(=O)c2cccc(S(=O)(=O)Nc3ccc4[nH]c(=O)[nH]c4c3)c2)cc1

>  <score_type>  (63) 
oracle

>  <origin>  (63) 
adg

>  <m_score__min__energy>  (63) 
-14.59

>  <m_primary>  (63) 
energy

$$$$
63:0
     RDKit          3D

 33 36  0  0  0  0  0  0  0  0999 V2000
   60.4470   30.3750   46.0760 O   0  0  0  0  0  0  0  0  0  0  0  0
   59.3960   29.8040   45.6860 C   0  0  0  0  0  0  0  0  0  0  0  0
   59.3670   28.4490   45.5090 N   0  0  0  0  0  0  0  0  0  0  0  0
   58.2380   27.8220   45.0240 C   0  0  0  0  0  0  0  0  0  0  0  0
   58.2000   26.3910   44.8400 N   0  0  0  0  0  0  0  0  0  0  0  0
   57.7650   25.8500   43.5460 C   0  0  0  0  0  0  0  0  0  0  0  0
   57.2000   24.4380   43.7210 C   0  0  0  0  0  0  0  0  0  0  0  0
   58.1040   23.6220   44.4390 O   0  0  0  0  0  0  0  0  0  0  0  0
   58.2250   24.1050   45.7620 C   0  0  0  0  0  0  0  0  0  0  0  0
   58.8790   25.4900   45.7810 C   0  0  0  0  0  0  0  0  0  0  0  0
   57.1600   28.5490   44.7040 O   0  0  0  0  0  0  0  0  0  0  0  0
   57.1730   29.8600   44.8780 C   0  0  0  0  0  0  0  0  0  0  0  0
   56.2200   30.7070   44.5850 O   0  0  0  0  0  0  0  0  0  0  0  0
   56.6020   31.9220   44.8770 N   0  0  0  0  0  0  0  0  0  0  0  0
   57.8560   31.8500   45.3890 C   0  0  0  0  0  0  0  0  0  0  0  0
   58.6050   33.0280   45.8510 C   0  0  0  0  0  0  0  0  0  0  0  0
   59.0960   33.2570   47.1320 C   0  0  0  0  0  0  0  0  0  0  0  0
   59.6990   34.5120   47.2770 C   0  0  0  0  0  0  0  0  0  0  0  0
   59.6710   35.2820   46.1210 C   0  0  0  0  0  0  0  0  0  0  0  0
   58.8890   34.4010   44.9220 S   0  0  0  0  0  0  0  0  0  0  0  0
   58.2420   30.5200   45.3880 C   0  0  0  0  0  0  0  0  0  0  0  0
   60.2330   27.9040   45.7130 H   0  0  0  0  0  0  0  0  0  0  0  0
   56.9864   26.5022   43.1237 H   0  0  0  0  0  0  0  0  0  0  0  0
   58.6302   25.8068   42.8681 H   0  0  0  0  0  0  0  0  0  0  0  0
   56.2498   24.4953   44.2721 H   0  0  0  0  0  0  0  0  0  0  0  0
   57.0392   23.9964   42.7265 H   0  0  0  0  0  0  0  0  0  0  0  0
   57.2242   24.1732   46.2134 H   0  0  0  0  0  0  0  0  0  0  0  0
   58.8578   23.4098   46.3332 H   0  0  0  0  0  0  0  0  0  0  0  0
   58.8116   25.9086   46.7960 H   0  0  0  0  0  0  0  0  0  0  0  0
   59.9329   25.3906   45.4818 H   0  0  0  0  0  0  0  0  0  0  0  0
   59.0183   32.5251   47.9495 H   0  0  0  0  0  0  0  0  0  0  0  0
   60.1525   34.8563   48.2182 H   0  0  0  0  0  0  0  0  0  0  0  0
   60.0885   36.2936   46.0096 H   0  0  0  0  0  0  0  0  0  0  0  0
  1  2  2  0
  2  3  1  0
  3  4  2  0
  4  5  1  0
  5  6  1  0
  6  7  1  0
  7  8  1  0
  8  9  1  0
  9 10  1  0
  4 11  1  0
 11 12  1  0
 12 13  1  0
 13 14  1  0
 14 15  2  0
 15 16  1  0
 16 17  2  0
 17 18  1  0
 18 19  2  0
 19 20  1  0
 15 21  1  0
 21  2  1  0
 10  5  1  0
 21 12  2  0
 20 16  1  0
  3 22  1  0
  6 23  1  0
  6 24  1  0
  7 25  1  0
  7 26  1  0
  9 27  1  0
  9 28  1  0
 10 29  1  0
 10 30  1  0
 17 31  1  0
 18 32  1  0
 19 33  1  0
M  CHG  1   3   1
M  END
>  <UniqueID>  (64) 
60

>  <SMILES>  (64) 
O=c1[nH+]c(N2CCOCC2)oc2onc(-c3cccs3)c12

>  <Energy>  (64) 
113.03804729043105

>  <Genealogy>  (64) 
O=c1[nH+]c(N2CCOCC2)oc2onc(-c3cccs3)c12 (protonated)
O=c1[nH+]c(N2CCOCC2)oc2onc(-c3cccs3)c12 (3D coordinates assigned)
O=c1[nH+]c(N2CCOCC2)oc2onc(-c3cccs3)c12 (nonaromatic ring conformer: 113.03804729043105 kcal/mol)

>  <smiles>  (64) 
O=c1nc(N2CCOCC2)oc2onc(-c3cccs3)c12

>  <score_type>  (64) 
oracle

>  <origin>  (64) 
adg

>  <m_score__min__energy>  (64) 
-5.5999999999999996

>  <m_primary>  (64) 
energy

$$$$
64:0
     RDKit          3D

 38 40  0  0  0  0  0  0  0  0999 V2000
   55.5270   28.9070   45.1860 N   0  0  0  0  0  0  0  0  0  0  0  0
   56.5910   30.0410   44.4350 S   0  0  0  0  0  0  0  0  0  0  0  0
   56.2130   31.4340   44.8540 O   0  0  0  0  0  0  0  0  0  0  0  0
   56.4630   29.9360   42.9410 O   0  0  0  0  0  0  0  0  0  0  0  0
   58.2490   29.7010   44.9190 C   0  0  0  0  0  0  0  0  0  0  0  0
   59.0100   28.7640   44.2090 C   0  0  0  0  0  0  0  0  0  0  0  0
   60.3260   28.4930   44.5950 C   0  0  0  0  0  0  0  0  0  0  0  0
   60.8830   29.1460   45.6970 C   0  0  0  0  0  0  0  0  0  0  0  0
   60.1210   30.0680   46.4360 C   0  0  0  0  0  0  0  0  0  0  0  0
   60.6750   30.7730   47.5600 N   0  0  0  0  0  0  0  0  0  0  0  0
   62.0230   31.2670   47.6160 C   0  0  0  0  0  0  0  0  0  0  0  0
   62.8950   30.8450   46.8100 O   0  0  0  0  0  0  0  0  0  0  0  0
   62.4140   32.2600   48.6680 C   0  0  0  0  0  0  0  0  0  0  0  0
   61.8430   33.9390   48.2250 S   0  0  0  0  0  0  0  0  0  0  0  0
   60.1010   33.4910   48.1380 C   0  0  0  0  0  0  0  0  0  0  0  0
   59.5680   32.7900   49.1730 N   0  0  0  0  0  0  0  0  0  0  0  0
   58.2650   32.4110   49.1780 C   0  0  0  0  0  0  0  0  0  0  0  0
   57.8050   31.7580   50.1510 O   0  0  0  0  0  0  0  0  0  0  0  0
   57.4570   32.7320   48.1380 N   0  0  0  0  0  0  0  0  0  0  0  0
   57.9300   33.4370   47.0760 C   0  0  0  0  0  0  0  0  0  0  0  0
   57.0750   33.7570   46.0160 C   0  0  0  0  0  0  0  0  0  0  0  0
   57.5580   34.4830   44.9230 C   0  0  0  0  0  0  0  0  0  0  0  0
   58.8930   34.8900   44.8860 C   0  0  0  0  0  0  0  0  0  0  0  0
   59.7570   34.5760   45.9400 C   0  0  0  0  0  0  0  0  0  0  0  0
   59.2830   33.8450   47.0460 C   0  0  0  0  0  0  0  0  0  0  0  0
   58.8070   30.3510   46.0290 C   0  0  0  0  0  0  0  0  0  0  0  0
   54.5910   29.3670   45.2590 H   0  0  0  0  0  0  0  0  0  0  0  0
   58.5717   28.2406   43.3465 H   0  0  0  0  0  0  0  0  0  0  0  0
   60.9244   27.7636   44.0294 H   0  0  0  0  0  0  0  0  0  0  0  0
   61.9231   28.9378   45.9882 H   0  0  0  0  0  0  0  0  0  0  0  0
   60.0790   30.8910   48.4110 H   0  0  0  0  0  0  0  0  0  0  0  0
   61.9607   31.9666   49.6263 H   0  0  0  0  0  0  0  0  0  0  0  0
   63.5109   32.2720   48.7494 H   0  0  0  0  0  0  0  0  0  0  0  0
   56.0228   33.4375   46.0424 H   0  0  0  0  0  0  0  0  0  0  0  0
   56.8846   34.7341   44.0903 H   0  0  0  0  0  0  0  0  0  0  0  0
   59.2673   35.4607   44.0233 H   0  0  0  0  0  0  0  0  0  0  0  0
   60.8075   34.9003   45.9049 H   0  0  0  0  0  0  0  0  0  0  0  0
   58.2106   31.0888   46.5857 H   0  0  0  0  0  0  0  0  0  0  0  0
  1  2  1  0
  2  3  2  0
  2  4  2  0
  2  5  1  0
  5  6  2  0
  6  7  1  0
  7  8  2  0
  8  9  1  0
  9 10  1  0
 10 11  1  0
 11 12  2  0
 11 13  1  0
 13 14  1  0
 14 15  1  0
 15 16  1  0
 16 17  1  0
 17 18  2  0
 17 19  1  0
 19 20  2  0
 20 21  1  0
 21 22  2  0
 22 23  1  0
 23 24  2  0
 24 25  1  0
  9 26  2  0
 26  5  1  0
 25 15  2  0
 25 20  1  0
  1 27  1  0
  6 28  1  0
  7 29  1  0
  8 30  1  0
 10 31  1  0
 13 32  1  0
 13 33  1  0
 21 34  1  0
 22 35  1  0
 23 36  1  0
 24 37  1  0
 26 38  1  0
M  CHG  2   1  -1  16  -1
M  END
>  <UniqueID>  (65) 
61

>  <SMILES>  (65) 
[NH-]S(=O)(=O)c1cccc(NC(=O)CSc2[n-]c(=O)nc3ccccc23)c1

>  <Energy>  (65) 
42.98379780851478

>  <Genealogy>  (65) 
[NH-]S(=O)(=O)c1cccc(NC(=O)CSc2[n-]c(=O)nc3ccccc23)c1 (protonated)
[NH-]S(=O)(=O)c1cccc(NC(=O)CSc2[n-]c(=O)nc3ccccc23)c1 (3D coordinates assigned)
[NH-]S(=O)(=O)c1cccc(NC(=O)CSc2[n-]c(=O)nc3ccccc23)c1 (optimized conformer: 42.98379780851478 kcal/mol)

>  <smiles>  (65) 
NS(=O)(=O)c1cccc(NC(=O)CSc2[nH]c(=O)nc3ccccc23)c1

>  <score_type>  (65) 
oracle

>  <origin>  (65) 
adg

>  <m_score__min__energy>  (65) 
-13.31

>  <m_primary>  (65) 
energy

$$$$
65:0
     RDKit          3D

 42 44  0  0  0  0  0  0  0  0999 V2000
   55.7570   23.1480   47.6480 C   0  0  0  0  0  0  0  0  0  0  0  0
   55.3370   23.8880   46.5060 O   0  0  0  0  0  0  0  0  0  0  0  0
   56.0920   24.9000   45.8930 C   0  0  0  0  0  0  0  0  0  0  0  0
   56.2830   26.1590   46.4930 C   0  0  0  0  0  0  0  0  0  0  0  0
   57.0440   27.1400   45.8520 C   0  0  0  0  0  0  0  0  0  0  0  0
   57.6220   26.8860   44.5990 C   0  0  0  0  0  0  0  0  0  0  0  0
   58.4730   27.9300   43.9250 C   0  0  0  0  0  0  0  0  0  0  0  0
   58.2420   29.2550   44.5360 N   0  0  0  0  0  0  0  0  0  0  0  0
   57.0690   29.9320   44.3050 C   0  0  0  0  0  0  0  0  0  0  0  0
   56.1590   29.4270   43.5930 O   0  0  0  0  0  0  0  0  0  0  0  0
   56.8660   31.1570   44.8490 N   0  0  0  0  0  0  0  0  0  0  0  0
   57.8080   31.7570   45.6140 C   0  0  0  0  0  0  0  0  0  0  0  0
   59.0270   31.1200   45.8530 C   0  0  0  0  0  0  0  0  0  0  0  0
   60.0540   31.7980   46.6760 C   0  0  0  0  0  0  0  0  0  0  0  0
   59.9110   33.0220   46.9410 O   0  0  0  0  0  0  0  0  0  0  0  0
   61.2010   31.0770   47.1630 N   0  0  0  0  0  0  0  0  0  0  0  0
   62.2530   31.6710   47.9420 C   0  0  0  0  0  0  0  0  0  0  0  0
   63.1020   32.6550   47.4040 C   0  0  0  0  0  0  0  0  0  0  0  0
   64.1350   33.1950   48.1760 C   0  0  0  0  0  0  0  0  0  0  0  0
   64.3380   32.7510   49.4870 C   0  0  0  0  0  0  0  0  0  0  0  0
   65.6340   33.4280   50.4540 Cl  0  0  0  0  0  0  0  0  0  0  0  0
   63.5130   31.7550   50.0200 C   0  0  0  0  0  0  0  0  0  0  0  0
   62.4810   31.2130   49.2490 C   0  0  0  0  0  0  0  0  0  0  0  0
   59.2180   29.8350   45.3120 C   0  0  0  0  0  0  0  0  0  0  0  0
   60.2810   29.2030   45.5660 O   0  0  0  0  0  0  0  0  0  0  0  0
   57.4350   25.6310   44.0020 C   0  0  0  0  0  0  0  0  0  0  0  0
   56.6750   24.6450   44.6420 C   0  0  0  0  0  0  0  0  0  0  0  0
   56.4450   22.9480   43.7890 Br  0  0  0  0  0  0  0  0  0  0  0  0
   55.4546   23.6807   48.5617 H   0  0  0  0  0  0  0  0  0  0  0  0
   55.2893   22.1525   47.6322 H   0  0  0  0  0  0  0  0  0  0  0  0
   56.8515   23.0392   47.6322 H   0  0  0  0  0  0  0  0  0  0  0  0
   55.8303   26.3719   47.4727 H   0  0  0  0  0  0  0  0  0  0  0  0
   57.1910   28.1182   46.3331 H   0  0  0  0  0  0  0  0  0  0  0  0
   59.5336   27.6598   44.0354 H   0  0  0  0  0  0  0  0  0  0  0  0
   58.2040   27.9764   42.8594 H   0  0  0  0  0  0  0  0  0  0  0  0
   57.6125   32.7486   46.0482 H   0  0  0  0  0  0  0  0  0  0  0  0
   61.2590   30.0490   46.9890 H   0  0  0  0  0  0  0  0  0  0  0  0
   62.9525   33.0014   46.3707 H   0  0  0  0  0  0  0  0  0  0  0  0
   64.7895   33.9706   47.7517 H   0  0  0  0  0  0  0  0  0  0  0  0
   63.6767   31.3979   51.0474 H   0  0  0  0  0  0  0  0  0  0  0  0
   61.8429   30.4218   49.6695 H   0  0  0  0  0  0  0  0  0  0  0  0
   57.8893   25.4196   43.0227 H   0  0  0  0  0  0  0  0  0  0  0  0
  1  2  1  0
  2  3  1  0
  3  4  2  0
  4  5  1  0
  5  6  2  0
  6  7  1  0
  7  8  1  0
  8  9  1  0
  9 10  2  0
  9 11  1  0
 11 12  1  0
 12 13  2  0
 13 14  1  0
 14 15  2  0
 14 16  1  0
 16 17  1  0
 17 18  2  0
 18 19  1  0
 19 20  2  0
 20 21  1  0
 20 22  1  0
 22 23  2  0
 13 24  1  0
 24 25  2  0
  6 26  1  0
 26 27  2  0
 27 28  1  0
 27  3  1  0
 24  8  1  0
 23 17  1  0
  1 29  1  0
  1 30  1  0
  1 31  1  0
  4 32  1  0
  5 33  1  0
  7 34  1  0
  7 35  1  0
 12 36  1  0
 16 37  1  0
 18 38  1  0
 19 39  1  0
 22 40  1  0
 23 41  1  0
 26 42  1  0
M  CHG  1  11  -1
M  END
>  <UniqueID>  (66) 
62

>  <SMILES>  (66) 
COc1ccc(Cn2c(=O)[n-]cc(C(=O)Nc3ccc(Cl)cc3)c2=O)cc1Br

>  <Energy>  (66) 
57.23621335918386

>  <Genealogy>  (66) 
COc1ccc(Cn2c(=O)[n-]cc(C(=O)Nc3ccc(Cl)cc3)c2=O)cc1Br (protonated)
COc1ccc(Cn2c(=O)[n-]cc(C(=O)Nc3ccc(Cl)cc3)c2=O)cc1Br (3D coordinates assigned)
COc1ccc(Cn2c(=O)[n-]cc(C(=O)Nc3ccc(Cl)cc3)c2=O)cc1Br (optimized conformer: 57.23621335918386 kcal/mol)

>  <smiles>  (66) 
COc1ccc(Cn2c(=O)[nH]cc(C(=O)Nc3ccc(Cl)cc3)c2=O)cc1Br

>  <score_type>  (66) 
oracle

>  <origin>  (66) 
adg

>  <m_score__min__energy>  (66) 
-9.6999999999999993

>  <m_primary>  (66) 
energy

$$$$
66:0
     RDKit          3D

 52 54  0  0  0  0  0  0  0  0999 V2000
   56.5710   30.7570   43.1640 C   0  0  0  0  0  0  0  0  0  0  0  0
   56.4070   31.2280   44.4990 O   0  0  0  0  0  0  0  0  0  0  0  0
   57.4010   31.8830   45.2440 C   0  0  0  0  0  0  0  0  0  0  0  0
   57.1250   33.0650   45.9610 C   0  0  0  0  0  0  0  0  0  0  0  0
   58.1310   33.7010   46.6920 C   0  0  0  0  0  0  0  0  0  0  0  0
   59.4170   33.1660   46.7210 C   0  0  0  0  0  0  0  0  0  0  0  0
   59.7050   31.9950   46.0170 C   0  0  0  0  0  0  0  0  0  0  0  0
   58.7070   31.3450   45.2650 C   0  0  0  0  0  0  0  0  0  0  0  0
   58.9920   30.1370   44.5290 N   0  0  0  0  0  0  0  0  0  0  0  0
   59.6850   28.7110   45.2370 S   0  0  0  0  0  0  0  0  0  0  0  0
   58.9360   27.5030   44.7480 O   0  0  0  0  0  0  0  0  0  0  0  0
   61.1220   28.5960   44.8120 O   0  0  0  0  0  0  0  0  0  0  0  0
   59.6270   28.8230   46.9940 C   0  0  0  0  0  0  0  0  0  0  0  0
   60.6610   28.2700   47.7580 C   0  0  0  0  0  0  0  0  0  0  0  0
   60.6270   28.3570   49.1520 C   0  0  0  0  0  0  0  0  0  0  0  0
   59.5540   28.9810   49.8010 C   0  0  0  0  0  0  0  0  0  0  0  0
   59.5660   29.0560   51.2340 N   0  0  0  0  0  0  0  0  0  0  0  0
   58.7310   29.8830   52.0540 C   0  0  0  0  0  0  0  0  0  0  0  0
   58.5270   31.0900   51.7550 O   0  0  0  0  0  0  0  0  0  0  0  0
   57.9950   29.2800   53.2050 C   0  0  0  0  0  0  0  0  0  0  0  0
   57.0490   30.2160   53.7190 O   0  0  0  0  0  0  0  0  0  0  0  0
   55.7520   30.3900   53.2120 C   0  0  0  0  0  0  0  0  0  0  0  0
   54.6020   30.0180   53.9370 C   0  0  0  0  0  0  0  0  0  0  0  0
   53.3310   30.2110   53.3860 C   0  0  0  0  0  0  0  0  0  0  0  0
   53.1920   30.7830   52.1140 C   0  0  0  0  0  0  0  0  0  0  0  0
   51.5930   31.0230   51.4120 S   0  0  0  0  0  0  0  0  0  0  0  0
   51.3920   32.6870   50.9940 N   0  0  0  0  0  0  0  0  0  0  0  0
   50.5420   30.6260   52.4110 O   0  0  0  0  0  0  0  0  0  0  0  0
   51.4370   30.1750   50.1810 O   0  0  0  0  0  0  0  0  0  0  0  0
   54.3340   31.1510   51.3920 C   0  0  0  0  0  0  0  0  0  0  0  0
   55.6060   30.9540   51.9400 C   0  0  0  0  0  0  0  0  0  0  0  0
   58.5280   29.5580   49.0290 C   0  0  0  0  0  0  0  0  0  0  0  0
   58.5630   29.4710   47.6340 C   0  0  0  0  0  0  0  0  0  0  0  0
   56.9327   29.7183   43.1835 H   0  0  0  0  0  0  0  0  0  0  0  0
   55.6053   30.7992   42.6390 H   0  0  0  0  0  0  0  0  0  0  0  0
   57.3017   31.3899   42.6390 H   0  0  0  0  0  0  0  0  0  0  0  0
   56.1103   33.4894   45.9446 H   0  0  0  0  0  0  0  0  0  0  0  0
   57.9077   34.6251   47.2453 H   0  0  0  0  0  0  0  0  0  0  0  0
   60.2071   33.6670   47.2996 H   0  0  0  0  0  0  0  0  0  0  0  0
   60.7215   31.5759   46.0500 H   0  0  0  0  0  0  0  0  0  0  0  0
   58.8450   30.1130   43.4950 H   0  0  0  0  0  0  0  0  0  0  0  0
   61.5022   27.7658   47.2599 H   0  0  0  0  0  0  0  0  0  0  0  0
   61.4501   27.9317   49.7450 H   0  0  0  0  0  0  0  0  0  0  0  0
   57.4673   28.3758   52.8674 H   0  0  0  0  0  0  0  0  0  0  0  0
   58.7122   29.0175   53.9966 H   0  0  0  0  0  0  0  0  0  0  0  0
   54.7043   29.5748   54.9386 H   0  0  0  0  0  0  0  0  0  0  0  0
   52.4370   29.9127   53.9532 H   0  0  0  0  0  0  0  0  0  0  0  0
   51.0160   32.7130   50.0190 H   0  0  0  0  0  0  0  0  0  0  0  0
   54.2307   31.5961   50.3914 H   0  0  0  0  0  0  0  0  0  0  0  0
   56.4984   31.2448   51.3663 H   0  0  0  0  0  0  0  0  0  0  0  0
   57.6959   30.0791   49.5250 H   0  0  0  0  0  0  0  0  0  0  0  0
   57.7518   29.9131   47.0369 H   0  0  0  0  0  0  0  0  0  0  0  0
  1  2  1  0
  2  3  1  0
  3  4  2  0
  4  5  1  0
  5  6  2  0
  6  7  1  0
  7  8  2  0
  8  9  1  0
  9 10  1  0
 10 11  2  0
 10 12  2  0
 10 13  1  0
 13 14  2  0
 14 15  1  0
 15 16  2  0
 16 17  1  0
 17 18  1  0
 18 19  2  0
 18 20  1  0
 20 21  1  0
 21 22  1  0
 22 23  2  0
 23 24  1  0
 24 25  2  0
 25 26  1  0
 26 27  1  0
 26 28  2  0
 26 29  2  0
 25 30  1  0
 30 31  2  0
 16 32  1  0
 32 33  2  0
  8  3  1  0
 33 13  1  0
 31 22  1  0
  1 34  1  0
  1 35  1  0
  1 36  1  0
  4 37  1  0
  5 38  1  0
  6 39  1  0
  7 40  1  0
  9 41  1  0
 14 42  1  0
 15 43  1  0
 20 44  1  0
 20 45  1  0
 23 46  1  0
 24 47  1  0
 27 48  1  0
 30 49  1  0
 31 50  1  0
 32 51  1  0
 33 52  1  0
M  CHG  2  17  -1  27  -1
M  END
>  <UniqueID>  (67) 
63

>  <SMILES>  (67) 
COc1ccccc1NS(=O)(=O)c1ccc([N-]C(=O)COc2ccc(S([NH-])(=O)=O)cc2)cc1

>  <Energy>  (67) 
59.143380645587

>  <Genealogy>  (67) 
COc1ccccc1NS(=O)(=O)c1ccc([N-]C(=O)COc2ccc(S([NH-])(=O)=O)cc2)cc1 (protonated)
COc1ccccc1NS(=O)(=O)c1ccc([N-]C(=O)COc2ccc(S([NH-])(=O)=O)cc2)cc1 (3D coordinates assigned)
COc1ccccc1NS(=O)(=O)c1ccc([N-]C(=O)COc2ccc(S([NH-])(=O)=O)cc2)cc1 (optimized conformer: 59.143380645587 kcal/mol)

>  <smiles>  (67) 
COc1ccccc1NS(=O)(=O)c1ccc(NC(=O)COc2ccc(S(N)(=O)=O)cc2)cc1

>  <score_type>  (67) 
oracle

>  <origin>  (67) 
adg

>  <m_score__min__energy>  (67) 
-12.67

>  <m_primary>  (67) 
energy

$$$$
67:0
     RDKit          3D

 49 51  0  0  0  0  0  0  0  0999 V2000
   56.2950   22.5950   48.4410 C   0  0  0  0  0  0  0  0  0  0  0  0
   57.3920   22.5820   47.5340 O   0  0  0  0  0  0  0  0  0  0  0  0
   57.2760   22.5730   46.1360 C   0  0  0  0  0  0  0  0  0  0  0  0
   56.8570   21.4270   45.4340 C   0  0  0  0  0  0  0  0  0  0  0  0
   56.7120   21.4630   44.0440 C   0  0  0  0  0  0  0  0  0  0  0  0
   56.9800   22.6390   43.3440 C   0  0  0  0  0  0  0  0  0  0  0  0
   57.4010   23.7790   44.0290 C   0  0  0  0  0  0  0  0  0  0  0  0
   57.5580   23.7540   45.4230 C   0  0  0  0  0  0  0  0  0  0  0  0
   57.9680   24.9480   46.1160 N   0  0  0  0  0  0  0  0  0  0  0  0
   57.0270   25.6070   47.0310 C   0  0  0  0  0  0  0  0  0  0  0  0
   56.2140   26.6210   46.2900 C   0  0  0  0  0  0  0  0  0  0  0  0
   55.0150   26.3700   45.9990 O   0  0  0  0  0  0  0  0  0  0  0  0
   56.7770   27.9040   46.0020 N   0  0  0  0  0  0  0  0  0  0  0  0
   56.3760   28.7130   44.8580 C   0  0  0  0  0  0  0  0  0  0  0  0
   57.0550   30.0540   44.9230 C   0  0  0  0  0  0  0  0  0  0  0  0
   57.0320   30.9080   43.8100 C   0  0  0  0  0  0  0  0  0  0  0  0
   57.6920   32.1420   43.8530 C   0  0  0  0  0  0  0  0  0  0  0  0
   58.3990   32.5260   45.0020 C   0  0  0  0  0  0  0  0  0  0  0  0
   59.1120   33.8430   45.0650 C   0  0  0  0  0  0  0  0  0  0  0  0
   58.4390   31.6630   46.1060 C   0  0  0  0  0  0  0  0  0  0  0  0
   57.7720   30.4350   46.0670 C   0  0  0  0  0  0  0  0  0  0  0  0
   59.3590   25.3340   46.1160 C   0  0  0  0  0  0  0  0  0  0  0  0
   60.2490   24.4590   45.9360 O   0  0  0  0  0  0  0  0  0  0  0  0
   59.7690   26.7320   46.3550 C   0  0  0  0  0  0  0  0  0  0  0  0
   60.1100   27.6540   45.3710 C   0  0  0  0  0  0  0  0  0  0  0  0
   60.4790   28.9040   45.8850 C   0  0  0  0  0  0  0  0  0  0  0  0
   60.4460   28.9710   47.2710 C   0  0  0  0  0  0  0  0  0  0  0  0
   59.9530   27.4760   47.8560 S   0  0  0  0  0  0  0  0  0  0  0  0
   56.6732   22.5905   49.4739 H   0  0  0  0  0  0  0  0  0  0  0  0
   55.6927   23.5003   48.2750 H   0  0  0  0  0  0  0  0  0  0  0  0
   55.6714   21.7042   48.2750 H   0  0  0  0  0  0  0  0  0  0  0  0
   56.6424   20.4978   45.9823 H   0  0  0  0  0  0  0  0  0  0  0  0
   56.3862   20.5629   43.5020 H   0  0  0  0  0  0  0  0  0  0  0  0
   56.8593   22.6677   42.2510 H   0  0  0  0  0  0  0  0  0  0  0  0
   57.6114   24.7041   43.4723 H   0  0  0  0  0  0  0  0  0  0  0  0
   56.3567   24.8527   47.4688 H   0  0  0  0  0  0  0  0  0  0  0  0
   57.5933   26.1119   47.8275 H   0  0  0  0  0  0  0  0  0  0  0  0
   56.6657   28.2010   43.9285 H   0  0  0  0  0  0  0  0  0  0  0  0
   55.2854   28.8553   44.8766 H   0  0  0  0  0  0  0  0  0  0  0  0
   56.4931   30.6067   42.8996 H   0  0  0  0  0  0  0  0  0  0  0  0
   57.6560   32.8131   42.9822 H   0  0  0  0  0  0  0  0  0  0  0  0
   59.2657   34.1268   46.1166 H   0  0  0  0  0  0  0  0  0  0  0  0
   60.0866   33.7567   44.5623 H   0  0  0  0  0  0  0  0  0  0  0  0
   58.5070   34.6119   44.5623 H   0  0  0  0  0  0  0  0  0  0  0  0
   58.9981   31.9536   47.0076 H   0  0  0  0  0  0  0  0  0  0  0  0
   57.8096   29.7640   46.9379 H   0  0  0  0  0  0  0  0  0  0  0  0
   60.0918   27.4244   44.2954 H   0  0  0  0  0  0  0  0  0  0  0  0
   60.7681   29.7537   45.2490 H   0  0  0  0  0  0  0  0  0  0  0  0
   60.6990   29.8510   47.8807 H   0  0  0  0  0  0  0  0  0  0  0  0
  1  2  1  0
  2  3  1  0
  3  4  2  0
  4  5  1  0
  5  6  2  0
  6  7  1  0
  7  8  2  0
  8  9  1  0
  9 10  1  0
 10 11  1  0
 11 12  2  0
 11 13  1  0
 13 14  1  0
 14 15  1  0
 15 16  2  0
 16 17  1  0
 17 18  2  0
 18 19  1  0
 18 20  1  0
 20 21  2  0
  9 22  1  0
 22 23  2  0
 22 24  1  0
 24 25  2  0
 25 26  1  0
 26 27  2  0
 27 28  1  0
  8  3  1  0
 21 15  1  0
 28 24  1  0
  1 29  1  0
  1 30  1  0
  1 31  1  0
  4 32  1  0
  5 33  1  0
  6 34  1  0
  7 35  1  0
 10 36  1  0
 10 37  1  0
 14 38  1  0
 14 39  1  0
 16 40  1  0
 17 41  1  0
 19 42  1  0
 19 43  1  0
 19 44  1  0
 20 45  1  0
 21 46  1  0
 25 47  1  0
 26 48  1  0
 27 49  1  0
M  CHG  1  13  -1
M  END
>  <UniqueID>  (68) 
64

>  <SMILES>  (68) 
COc1ccccc1N(CC(=O)[N-]Cc1ccc(C)cc1)C(=O)c1cccs1

>  <Energy>  (68) 
74.45503924554114

>  <Genealogy>  (68) 
COc1ccccc1N(CC(=O)[N-]Cc1ccc(C)cc1)C(=O)c1cccs1 (protonated)
COc1ccccc1N(CC(=O)[N-]Cc1ccc(C)cc1)C(=O)c1cccs1 (3D coordinates assigned)
COc1ccccc1N(CC(=O)[N-]Cc1ccc(C)cc1)C(=O)c1cccs1 (optimized conformer: 74.45503924554114 kcal/mol)

>  <smiles>  (68) 
COc1ccccc1N(CC(=O)NCc1ccc(C)cc1)C(=O)c1cccs1

>  <score_type>  (68) 
oracle

>  <origin>  (68) 
adg

>  <m_score__min__energy>  (68) 
-9.6600000000000001

>  <m_primary>  (68) 
energy

$$$$
68:0
     RDKit          3D

 33 34  0  0  0  0  0  0  0  0999 V2000
   57.7440   31.9640   42.3230 C   0  0  0  0  0  0  0  0  0  0  0  0
   58.2990   31.3770   43.6190 C   0  0  0  0  0  0  0  0  0  0  0  0
   57.2020   30.9410   44.5560 C   0  0  0  0  0  0  0  0  0  0  0  0
   56.2820   31.7500   44.8540 O   0  0  0  0  0  0  0  0  0  0  0  0
   57.1540   29.5600   45.0970 C   0  0  0  0  0  0  0  0  0  0  0  0
   55.9580   28.8150   45.0570 C   0  0  0  0  0  0  0  0  0  0  0  0
   54.8090   29.3430   44.4710 O   0  0  0  0  0  0  0  0  0  0  0  0
   55.9050   27.5780   45.6170 N   0  0  0  0  0  0  0  0  0  0  0  0
   56.9720   27.0170   46.2390 C   0  0  0  0  0  0  0  0  0  0  0  0
   56.8560   25.8680   46.7440 O   0  0  0  0  0  0  0  0  0  0  0  0
   58.1850   27.7150   46.3160 C   0  0  0  0  0  0  0  0  0  0  0  0
   59.3270   27.1190   46.9720 C   0  0  0  0  0  0  0  0  0  0  0  0
   60.2420   26.6410   47.4960 N   0  0  0  0  0  0  0  0  0  0  0  0
   58.2860   28.9850   45.7240 C   0  0  0  0  0  0  0  0  0  0  0  0
   59.5470   29.6780   45.7630 N   0  0  0  0  0  0  0  0  0  0  0  0
   59.8200   30.6600   46.5710 C   0  0  0  0  0  0  0  0  0  0  0  0
   61.0900   31.1410   46.6840 N   0  0  0  0  0  0  0  0  0  0  0  0
   61.3850   32.1610   47.5320 C   0  0  0  0  0  0  0  0  0  0  0  0
   62.7860   32.6760   47.6180 C   0  0  0  0  0  0  0  0  0  0  0  0
   60.3710   32.7270   48.3090 C   0  0  0  0  0  0  0  0  0  0  0  0
   59.0770   32.2180   48.1880 C   0  0  0  0  0  0  0  0  0  0  0  0
   58.1390   32.7030   48.8750 O   0  0  0  0  0  0  0  0  0  0  0  0
   58.8270   31.1980   47.3270 N   0  0  0  0  0  0  0  0  0  0  0  0
   57.0061   32.7445   42.5604 H   0  0  0  0  0  0  0  0  0  0  0  0
   58.5657   32.4022   41.7375 H   0  0  0  0  0  0  0  0  0  0  0  0
   57.2604   31.1681   41.7375 H   0  0  0  0  0  0  0  0  0  0  0  0
   58.9249   30.5059   43.3750 H   0  0  0  0  0  0  0  0  0  0  0  0
   58.8855   32.1594   44.1228 H   0  0  0  0  0  0  0  0  0  0  0  0
   54.6700   30.3450   44.4070 H   0  0  0  0  0  0  0  0  0  0  0  0
   63.0736   32.7817   48.6745 H   0  0  0  0  0  0  0  0  0  0  0  0
   63.4675   31.9696   47.1214 H   0  0  0  0  0  0  0  0  0  0  0  0
   62.8477   33.6556   47.1214 H   0  0  0  0  0  0  0  0  0  0  0  0
   60.5876   33.5548   49.0003 H   0  0  0  0  0  0  0  0  0  0  0  0
  1  2  1  0
  2  3  1  0
  3  4  2  0
  3  5  1  0
  5  6  2  0
  6  7  1  0
  6  8  1  0
  8  9  1  0
  9 10  2  0
  9 11  1  0
 11 12  1  0
 12 13  3  0
 11 14  2  0
 14 15  1  0
 15 16  2  3
 16 17  1  0
 17 18  1  0
 18 19  1  0
 18 20  2  0
 20 21  1  0
 21 22  2  0
 21 23  1  0
 14  5  1  0
 23 16  1  0
  1 24  1  0
  1 25  1  0
  1 26  1  0
  2 27  1  0
  2 28  1  0
  7 29  1  0
 19 30  1  0
 19 31  1  0
 19 32  1  0
 20 33  1  0
M  CHG  3   8  -1  17  -1  23  -1
M  END
>  <UniqueID>  (69) 
65

>  <SMILES>  (69) 
CCC(=O)c1c(O)[n-]c(=O)c(C#N)c1N=c1[n-]c(C)cc(=O)[n-]1

>  <Energy>  (69) 
44.02166860624328

>  <Genealogy>  (69) 
CCC(=O)c1c(O)[n-]c(=O)c(C#N)c1N=c1[n-]c(C)cc(=O)[n-]1 (protonated)
CCC(=O)c1c(O)[n-]c(=O)c(C#N)c1N=c1[n-]c(C)cc(=O)[n-]1 (3D coordinates assigned)
CCC(=O)c1c(O)[n-]c(=O)c(C#N)c1N=c1[n-]c(C)cc(=O)[n-]1 (optimized conformer: 44.02166860624328 kcal/mol)

>  <smiles>  (69) 
CCC(=O)c1c(O)[nH]c(=O)c(C#N)c1N=c1[nH]c(C)cc(=O)[nH]1

>  <score_type>  (69) 
oracle

>  <origin>  (69) 
adg

>  <m_score__min__energy>  (69) 
-10.49

>  <m_primary>  (69) 
energy

$$$$
69:0
     RDKit          3D

 40 41  0  0  0  0  0  0  0  0999 V2000
   55.1490   29.5610   44.8930 N   0  0  0  0  0  0  0  0  0  0  0  0
   56.3390   29.8960   44.1840 C   0  0  0  0  0  0  0  0  0  0  0  0
   56.6000   29.3060   43.1020 O   0  0  0  0  0  0  0  0  0  0  0  0
   57.2240   30.9800   44.6680 C   0  0  0  0  0  0  0  0  0  0  0  0
   56.6410   32.3480   44.8850 C   0  0  0  0  0  0  0  0  0  0  0  0
   57.6600   33.2510   45.5250 C   0  0  0  0  0  0  0  0  0  0  0  0
   58.4720   34.0780   44.7300 C   0  0  0  0  0  0  0  0  0  0  0  0
   59.4430   34.8910   45.3220 C   0  0  0  0  0  0  0  0  0  0  0  0
   59.6180   34.8760   46.7100 C   0  0  0  0  0  0  0  0  0  0  0  0
   58.8240   34.0470   47.5050 C   0  0  0  0  0  0  0  0  0  0  0  0
   57.8510   33.2340   46.9170 C   0  0  0  0  0  0  0  0  0  0  0  0
   58.4530   30.7690   45.0510 N   0  0  0  0  0  0  0  0  0  0  0  0
   58.9000   29.9290   46.1220 C   0  0  0  0  0  0  0  0  0  0  0  0
   58.6160   30.2580   47.3050 O   0  0  0  0  0  0  0  0  0  0  0  0
   59.9020   28.8280   45.8640 C   0  0  0  0  0  0  0  0  0  0  0  0
   59.4320   27.7870   44.8330 C   0  0  0  0  0  0  0  0  0  0  0  0
   58.4180   26.8340   45.4120 C   0  0  0  0  0  0  0  0  0  0  0  0
   58.8200   25.6020   45.9490 C   0  0  0  0  0  0  0  0  0  0  0  0
   57.8760   24.7300   46.4980 C   0  0  0  0  0  0  0  0  0  0  0  0
   56.5190   25.0800   46.5170 C   0  0  0  0  0  0  0  0  0  0  0  0
   55.5730   24.2150   47.0640 O   0  0  0  0  0  0  0  0  0  0  0  0
   56.1120   26.3100   45.9840 C   0  0  0  0  0  0  0  0  0  0  0  0
   54.7690   26.6680   46.0010 O   0  0  0  0  0  0  0  0  0  0  0  0
   57.0570   27.1840   45.4360 C   0  0  0  0  0  0  0  0  0  0  0  0
   55.1490   28.7980   45.6060 H   0  0  0  0  0  0  0  0  0  0  0  0
   56.3375   32.7716   43.9162 H   0  0  0  0  0  0  0  0  0  0  0  0
   55.7676   32.2650   45.5485 H   0  0  0  0  0  0  0  0  0  0  0  0
   58.3430   34.0856   43.6376 H   0  0  0  0  0  0  0  0  0  0  0  0
   60.0699   35.5430   44.6960 H   0  0  0  0  0  0  0  0  0  0  0  0
   60.3812   35.5173   47.1750 H   0  0  0  0  0  0  0  0  0  0  0  0
   58.9645   34.0338   48.5959 H   0  0  0  0  0  0  0  0  0  0  0  0
   57.2320   32.5780   47.5467 H   0  0  0  0  0  0  0  0  0  0  0  0
   60.8320   29.2854   45.4953 H   0  0  0  0  0  0  0  0  0  0  0  0
   60.0425   28.2944   46.8156 H   0  0  0  0  0  0  0  0  0  0  0  0
   58.9783   28.3125   43.9798 H   0  0  0  0  0  0  0  0  0  0  0  0
   60.3083   27.2004   44.5200 H   0  0  0  0  0  0  0  0  0  0  0  0
   59.8834   25.3209   45.9379 H   0  0  0  0  0  0  0  0  0  0  0  0
   58.1991   23.7655   46.9167 H   0  0  0  0  0  0  0  0  0  0  0  0
   54.5950   24.4700   47.1260 H   0  0  0  0  0  0  0  0  0  0  0  0
   56.7332   28.1502   45.0217 H   0  0  0  0  0  0  0  0  0  0  0  0
  1  2  1  0
  2  3  2  0
  2  4  1  0
  4  5  1  0
  5  6  1  0
  6  7  2  0
  7  8  1  0
  8  9  2  0
  9 10  1  0
 10 11  2  0
  4 12  2  3
 12 13  1  0
 13 14  2  0
 13 15  1  0
 15 16  1  0
 16 17  1  0
 17 18  2  0
 18 19  1  0
 19 20  2  0
 20 21  1  0
 20 22  1  0
 22 23  1  0
 22 24  2  0
 11  6  1  0
 24 17  1  0
  1 25  1  0
  5 26  1  0
  5 27  1  0
  7 28  1  0
  8 29  1  0
  9 30  1  0
 10 31  1  0
 11 32  1  0
 15 33  1  0
 15 34  1  0
 16 35  1  0
 16 36  1  0
 18 37  1  0
 19 38  1  0
 21 39  1  0
 24 40  1  0
M  CHG  2   1  -1  23  -1
M  END
>  <UniqueID>  (70) 
66

>  <SMILES>  (70) 
[NH-]C(=O)C(Cc1ccccc1)=NC(=O)CCc1ccc(O)c([O-])c1

>  <Energy>  (70) 
45.632764504000725

>  <Genealogy>  (70) 
[NH-]C(=O)C(Cc1ccccc1)=NC(=O)CCc1ccc(O)c([O-])c1 (protonated)
[NH-]C(=O)C(Cc1ccccc1)=NC(=O)CCc1ccc(O)c([O-])c1 (3D coordinates assigned)
[NH-]C(=O)C(Cc1ccccc1)=NC(=O)CCc1ccc(O)c([O-])c1 (optimized conformer: 45.632764504000725 kcal/mol)

>  <smiles>  (70) 
NC(=O)C(Cc1ccccc1)=NC(=O)CCc1ccc(O)c(O)c1

>  <score_type>  (70) 
oracle

>  <origin>  (70) 
adg

>  <m_score__min__energy>  (70) 
-15.33

>  <m_primary>  (70) 
energy

$$$$
70:0
     RDKit          3D

 54 56  0  0  0  0  0  0  0  0999 V2000
   58.2180   22.1680   44.2650 C   0  0  0  0  0  0  0  0  0  0  0  0
   58.6880   23.2560   45.2260 C   0  0  0  0  0  0  0  0  0  0  0  0
   57.8540   24.4640   45.1010 N   0  0  0  0  0  0  0  0  0  0  0  0
   56.4150   24.2680   44.8520 C   0  0  0  0  0  0  0  0  0  0  0  0
   55.5820   25.2500   45.6730 C   0  0  0  0  0  0  0  0  0  0  0  0
   58.4280   25.7990   45.2230 C   0  0  0  0  0  0  0  0  0  0  0  0
   58.2350   26.7720   44.2190 C   0  0  0  0  0  0  0  0  0  0  0  0
   58.7810   28.0530   44.3420 C   0  0  0  0  0  0  0  0  0  0  0  0
   59.5250   28.4020   45.4770 C   0  0  0  0  0  0  0  0  0  0  0  0
   60.1000   29.7090   45.6260 N   0  0  0  0  0  0  0  0  0  0  0  0
   59.8850   30.5430   46.7770 C   0  0  0  0  0  0  0  0  0  0  0  0
   58.9440   30.2970   47.5790 O   0  0  0  0  0  0  0  0  0  0  0  0
   60.7650   31.6990   47.0430 C   0  0  0  0  0  0  0  0  0  0  0  0
   62.0900   31.4420   47.4330 C   0  0  0  0  0  0  0  0  0  0  0  0
   62.9680   32.4920   47.7040 C   0  0  0  0  0  0  0  0  0  0  0  0
   62.5370   33.8120   47.5830 C   0  0  0  0  0  0  0  0  0  0  0  0
   61.2310   34.0870   47.1760 C   0  0  0  0  0  0  0  0  0  0  0  0
   60.3340   33.0450   46.8800 C   0  0  0  0  0  0  0  0  0  0  0  0
   58.9430   33.4170   46.4020 C   0  0  0  0  0  0  0  0  0  0  0  0
   58.8450   33.4110   44.9770 O   0  0  0  0  0  0  0  0  0  0  0  0
   58.1180   32.4840   44.2150 C   0  0  0  0  0  0  0  0  0  0  0  0
   58.0820   32.5200   42.8070 C   0  0  0  0  0  0  0  0  0  0  0  0
   57.3490   31.5630   42.0990 C   0  0  0  0  0  0  0  0  0  0  0  0
   56.6460   30.5680   42.7840 C   0  0  0  0  0  0  0  0  0  0  0  0
   56.6750   30.5290   44.1810 C   0  0  0  0  0  0  0  0  0  0  0  0
   57.4070   31.4860   44.8920 C   0  0  0  0  0  0  0  0  0  0  0  0
   59.7470   27.4400   46.4670 C   0  0  0  0  0  0  0  0  0  0  0  0
   59.2010   26.1590   46.3490 C   0  0  0  0  0  0  0  0  0  0  0  0
   57.8460   21.3069   44.8396 H   0  0  0  0  0  0  0  0  0  0  0  0
   57.4101   22.5625   43.6313 H   0  0  0  0  0  0  0  0  0  0  0  0
   59.0591   21.8502   43.6313 H   0  0  0  0  0  0  0  0  0  0  0  0
   58.6228   22.8785   46.2571 H   0  0  0  0  0  0  0  0  0  0  0  0
   59.7269   23.5190   44.9781 H   0  0  0  0  0  0  0  0  0  0  0  0
   56.2094   24.4269   43.7831 H   0  0  0  0  0  0  0  0  0  0  0  0
   56.1432   23.2437   45.1470 H   0  0  0  0  0  0  0  0  0  0  0  0
   55.7427   25.0606   46.7446 H   0  0  0  0  0  0  0  0  0  0  0  0
   55.8866   26.2794   45.4329 H   0  0  0  0  0  0  0  0  0  0  0  0
   54.5168   25.1174   45.4329 H   0  0  0  0  0  0  0  0  0  0  0  0
   57.6456   26.5183   43.3256 H   0  0  0  0  0  0  0  0  0  0  0  0
   58.6255   28.7921   43.5423 H   0  0  0  0  0  0  0  0  0  0  0  0
   60.8370   29.9940   44.9440 H   0  0  0  0  0  0  0  0  0  0  0  0
   62.4387   30.4028   47.5256 H   0  0  0  0  0  0  0  0  0  0  0  0
   64.0016   32.2778   48.0135 H   0  0  0  0  0  0  0  0  0  0  0  0
   63.2274   34.6381   47.8087 H   0  0  0  0  0  0  0  0  0  0  0  0
   60.8989   35.1318   47.0855 H   0  0  0  0  0  0  0  0  0  0  0  0
   58.2223   32.6931   46.8101 H   0  0  0  0  0  0  0  0  0  0  0  0
   58.7260   34.4370   46.7521 H   0  0  0  0  0  0  0  0  0  0  0  0
   58.6318   33.3027   42.2637 H   0  0  0  0  0  0  0  0  0  0  0  0
   57.3255   31.5932   40.9997 H   0  0  0  0  0  0  0  0  0  0  0  0
   56.0703   29.8162   42.2242 H   0  0  0  0  0  0  0  0  0  0  0  0
   56.1224   29.7461   44.7211 H   0  0  0  0  0  0  0  0  0  0  0  0
   57.4240   31.4540   45.9914 H   0  0  0  0  0  0  0  0  0  0  0  0
   60.3569   27.6937   47.3466 H   0  0  0  0  0  0  0  0  0  0  0  0
   59.3758   25.4201   47.1449 H   0  0  0  0  0  0  0  0  0  0  0  0
  1  2  1  0
  2  3  1  0
  3  4  1  0
  4  5  1  0
  3  6  1  0
  6  7  2  0
  7  8  1  0
  8  9  2  0
  9 10  1  0
 10 11  1  0
 11 12  2  0
 11 13  1  0
 13 14  2  0
 14 15  1  0
 15 16  2  0
 16 17  1  0
 17 18  2  0
 18 19  1  0
 19 20  1  0
 20 21  1  0
 21 22  2  0
 22 23  1  0
 23 24  2  0
 24 25  1  0
 25 26  2  0
  9 27  1  0
 27 28  2  0
 28  6  1  0
 18 13  1  0
 26 21  1  0
  1 29  1  0
  1 30  1  0
  1 31  1  0
  2 32  1  0
  2 33  1  0
  4 34  1  0
  4 35  1  0
  5 36  1  0
  5 37  1  0
  5 38  1  0
  7 39  1  0
  8 40  1  0
 10 41  1  0
 14 42  1  0
 15 43  1  0
 16 44  1  0
 17 45  1  0
 19 46  1  0
 19 47  1  0
 22 48  1  0
 23 49  1  0
 24 50  1  0
 25 51  1  0
 26 52  1  0
 27 53  1  0
 28 54  1  0
M  END
>  <UniqueID>  (71) 
67

>  <SMILES>  (71) 
CCN(CC)c1ccc(NC(=O)c2ccccc2COc2ccccc2)cc1

>  <Energy>  (71) 
64.95648548422612

>  <Genealogy>  (71) 
CCN(CC)c1ccc(NC(=O)c2ccccc2COc2ccccc2)cc1 (3D coordinates assigned)
CCN(CC)c1ccc(NC(=O)c2ccccc2COc2ccccc2)cc1 (optimized conformer: 64.95648548422612 kcal/mol)

>  <smiles>  (71) 
CCN(CC)c1ccc(NC(=O)c2ccccc2COc2ccccc2)cc1

>  <score_type>  (71) 
oracle

>  <origin>  (71) 
adg

>  <m_score__min__energy>  (71) 
-7.71

>  <m_primary>  (71) 
energy

$$$$
71:0
     RDKit          3D

 51 53  0  0  0  0  0  0  0  0999 V2000
   57.9850   31.8550   42.9360 C   0  0  0  0  0  0  0  0  0  0  0  0
   56.6750   30.6540   43.3170 S   0  0  0  0  0  0  0  0  0  0  0  0
   57.5810   29.9150   44.6780 C   0  0  0  0  0  0  0  0  0  0  0  0
   57.0760   28.7800   45.3230 C   0  0  0  0  0  0  0  0  0  0  0  0
   57.7780   28.2080   46.3880 C   0  0  0  0  0  0  0  0  0  0  0  0
   58.9970   28.7610   46.8110 C   0  0  0  0  0  0  0  0  0  0  0  0
   59.7320   28.1710   47.9810 C   0  0  0  0  0  0  0  0  0  0  0  0
   60.4390   29.2440   48.7480 C   0  0  0  0  0  0  0  0  0  0  0  0
   61.4900   29.7630   48.2840 O   0  0  0  0  0  0  0  0  0  0  0  0
   59.9060   29.6840   49.9990 N   0  0  0  0  0  0  0  0  0  0  0  0
   59.3070   30.9990   50.1930 C   0  0  0  0  0  0  0  0  0  0  0  0
   58.8910   31.5960   48.8370 C   0  0  0  0  0  0  0  0  0  0  0  0
   59.5060   32.9840   48.5070 C   0  0  0  0  0  0  0  0  0  0  0  0
   61.0330   33.0630   48.5020 C   0  0  0  0  0  0  0  0  0  0  0  0
   61.7270   32.4580   47.4350 C   0  0  0  0  0  0  0  0  0  0  0  0
   63.1220   32.4910   47.3760 C   0  0  0  0  0  0  0  0  0  0  0  0
   63.8480   33.1350   48.3780 C   0  0  0  0  0  0  0  0  0  0  0  0
   63.1810   33.7500   49.4380 C   0  0  0  0  0  0  0  0  0  0  0  0
   61.7840   33.7190   49.5030 C   0  0  0  0  0  0  0  0  0  0  0  0
   58.8970   33.5850   47.2480 C   0  0  0  0  0  0  0  0  0  0  0  0
   59.6240   34.4760   46.4320 C   0  0  0  0  0  0  0  0  0  0  0  0
   59.0670   34.9650   45.2470 C   0  0  0  0  0  0  0  0  0  0  0  0
   57.7850   34.5690   44.8590 C   0  0  0  0  0  0  0  0  0  0  0  0
   57.0580   33.6810   45.6550 C   0  0  0  0  0  0  0  0  0  0  0  0
   57.6120   33.1850   46.8380 C   0  0  0  0  0  0  0  0  0  0  0  0
   59.4910   29.9090   46.1690 C   0  0  0  0  0  0  0  0  0  0  0  0
   58.7860   30.4810   45.1070 C   0  0  0  0  0  0  0  0  0  0  0  0
   58.4095   32.2442   43.8732 H   0  0  0  0  0  0  0  0  0  0  0  0
   58.7761   31.3618   42.3521 H   0  0  0  0  0  0  0  0  0  0  0  0
   57.5622   32.6859   42.3521 H   0  0  0  0  0  0  0  0  0  0  0  0
   56.1252   28.3374   44.9913 H   0  0  0  0  0  0  0  0  0  0  0  0
   57.3734   27.3206   46.8968 H   0  0  0  0  0  0  0  0  0  0  0  0
   59.0134   27.6658   48.6431 H   0  0  0  0  0  0  0  0  0  0  0  0
   60.4748   27.4500   47.6089 H   0  0  0  0  0  0  0  0  0  0  0  0
   58.4196   30.9033   50.8360 H   0  0  0  0  0  0  0  0  0  0  0  0
   60.0436   31.6636   50.6681 H   0  0  0  0  0  0  0  0  0  0  0  0
   59.1958   30.8928   48.0480 H   0  0  0  0  0  0  0  0  0  0  0  0
   57.8033   31.7503   48.8930 H   0  0  0  0  0  0  0  0  0  0  0  0
   59.2234   33.6070   49.3684 H   0  0  0  0  0  0  0  0  0  0  0  0
   61.1622   31.9528   46.6376 H   0  0  0  0  0  0  0  0  0  0  0  0
   63.6484   32.0090   46.5390 H   0  0  0  0  0  0  0  0  0  0  0  0
   64.9468   33.1580   48.3324 H   0  0  0  0  0  0  0  0  0  0  0  0
   63.7554   34.2607   50.2249 H   0  0  0  0  0  0  0  0  0  0  0  0
   61.2659   34.2094   50.3403 H   0  0  0  0  0  0  0  0  0  0  0  0
   60.6358   34.7882   46.7299 H   0  0  0  0  0  0  0  0  0  0  0  0
   59.6395   35.6632   44.6187 H   0  0  0  0  0  0  0  0  0  0  0  0
   57.3481   34.9564   43.9268 H   0  0  0  0  0  0  0  0  0  0  0  0
   56.0474   33.3715   45.3501 H   0  0  0  0  0  0  0  0  0  0  0  0
   57.0389   32.4761   47.4536 H   0  0  0  0  0  0  0  0  0  0  0  0
   60.4370   30.3594   46.5040 H   0  0  0  0  0  0  0  0  0  0  0  0
   59.1795   31.3784   44.6072 H   0  0  0  0  0  0  0  0  0  0  0  0
  1  2  1  0
  2  3  1  0
  3  4  2  0
  4  5  1  0
  5  6  2  0
  6  7  1  0
  7  8  1  0
  8  9  2  0
  8 10  1  0
 10 11  1  0
 11 12  1  0
 12 13  1  0
 13 14  1  0
 14 15  2  0
 15 16  1  0
 16 17  2  0
 17 18  1  0
 18 19  2  0
 13 20  1  0
 20 21  2  0
 21 22  1  0
 22 23  2  0
 23 24  1  0
 24 25  2  0
  6 26  1  0
 26 27  2  0
 27  3  1  0
 19 14  1  0
 25 20  1  0
  1 28  1  0
  1 29  1  0
  1 30  1  0
  4 31  1  0
  5 32  1  0
  7 33  1  0
  7 34  1  0
 11 35  1  0
 11 36  1  0
 12 37  1  0
 12 38  1  0
 13 39  1  0
 15 40  1  0
 16 41  1  0
 17 42  1  0
 18 43  1  0
 19 44  1  0
 21 45  1  0
 22 46  1  0
 23 47  1  0
 24 48  1  0
 25 49  1  0
 26 50  1  0
 27 51  1  0
M  CHG  1  10  -1
M  END
>  <UniqueID>  (72) 
68

>  <SMILES>  (72) 
CSc1ccc(CC(=O)[N-]CCC(c2ccccc2)c2ccccc2)cc1

>  <Energy>  (72) 
47.1934082977944

>  <Genealogy>  (72) 
CSc1ccc(CC(=O)[N-]CCC(c2ccccc2)c2ccccc2)cc1 (protonated)
CSc1ccc(CC(=O)[N-]CCC(c2ccccc2)c2ccccc2)cc1 (3D coordinates assigned)
CSc1ccc(CC(=O)[N-]CCC(c2ccccc2)c2ccccc2)cc1 (optimized conformer: 47.1934082977944 kcal/mol)

>  <smiles>  (72) 
CSc1ccc(CC(=O)NCCC(c2ccccc2)c2ccccc2)cc1

>  <score_type>  (72) 
oracle

>  <origin>  (72) 
adg

>  <m_score__min__energy>  (72) 
-10.48

>  <m_primary>  (72) 
energy

$$$$
72:0
     RDKit          3D

 53 55  0  0  0  0  0  0  0  0999 V2000
   58.8580   30.9820   48.7290 C   0  0  0  0  0  0  0  0  0  0  0  0
   58.8210   30.1650   47.5640 O   0  0  0  0  0  0  0  0  0  0  0  0
   59.4160   28.8970   47.4550 C   0  0  0  0  0  0  0  0  0  0  0  0
   60.0300   28.2750   48.5610 C   0  0  0  0  0  0  0  0  0  0  0  0
   60.5920   27.0010   48.4360 C   0  0  0  0  0  0  0  0  0  0  0  0
   60.5490   26.3320   47.2120 C   0  0  0  0  0  0  0  0  0  0  0  0
   59.9510   26.9390   46.1060 C   0  0  0  0  0  0  0  0  0  0  0  0
   59.3950   28.2290   46.2090 C   0  0  0  0  0  0  0  0  0  0  0  0
   58.7380   28.8480   44.9970 C   0  0  0  0  0  0  0  0  0  0  0  0
   57.2830   28.7340   45.0680 N   0  0  0  0  0  0  0  0  0  0  0  0
   56.3300   29.7400   44.6980 C   0  0  0  0  0  0  0  0  0  0  0  0
   55.1340   29.3950   44.5040 O   0  0  0  0  0  0  0  0  0  0  0  0
   56.7110   31.1810   44.4940 C   0  0  0  0  0  0  0  0  0  0  0  0
   57.7240   31.6030   45.4570 N   0  0  0  0  0  0  0  0  0  0  0  0
   58.2990   32.9220   45.4630 C   0  0  0  0  0  0  0  0  0  0  0  0
   57.9660   33.7550   44.5750 O   0  0  0  0  0  0  0  0  0  0  0  0
   59.2530   33.3290   46.5220 C   0  0  0  0  0  0  0  0  0  0  0  0
   58.8670   34.2800   47.4870 C   0  0  0  0  0  0  0  0  0  0  0  0
   59.7460   34.6450   48.5130 C   0  0  0  0  0  0  0  0  0  0  0  0
   61.0190   34.0740   48.5850 C   0  0  0  0  0  0  0  0  0  0  0  0
   61.4290   33.1470   47.6160 C   0  0  0  0  0  0  0  0  0  0  0  0
   63.0500   32.4540   47.6520 S   0  0  0  0  0  0  0  0  0  0  0  0
   64.0150   33.4740   47.1080 O   0  0  0  0  0  0  0  0  0  0  0  0
   63.1380   31.2180   46.7960 O   0  0  0  0  0  0  0  0  0  0  0  0
   63.4880   32.0850   49.2910 N   0  0  0  0  0  0  0  0  0  0  0  0
   64.4280   32.8150   50.0970 C   0  0  0  0  0  0  0  0  0  0  0  0
   65.7860   32.4580   50.0150 C   0  0  0  0  0  0  0  0  0  0  0  0
   66.7450   33.1430   50.7720 C   0  0  0  0  0  0  0  0  0  0  0  0
   66.3520   34.1730   51.6340 C   0  0  0  0  0  0  0  0  0  0  0  0
   65.0030   34.5270   51.7320 C   0  0  0  0  0  0  0  0  0  0  0  0
   64.0410   33.8520   50.9730 C   0  0  0  0  0  0  0  0  0  0  0  0
   62.7430   34.1960   51.1400 F   0  0  0  0  0  0  0  0  0  0  0  0
   60.5490   32.7810   46.5870 C   0  0  0  0  0  0  0  0  0  0  0  0
   58.8291   30.3445   49.6250 H   0  0  0  0  0  0  0  0  0  0  0  0
   59.7840   31.5758   48.7312 H   0  0  0  0  0  0  0  0  0  0  0  0
   57.9895   31.6571   48.7312 H   0  0  0  0  0  0  0  0  0  0  0  0
   60.0672   28.7957   49.5292 H   0  0  0  0  0  0  0  0  0  0  0  0
   61.0695   26.5245   49.3049 H   0  0  0  0  0  0  0  0  0  0  0  0
   60.9861   25.3269   47.1187 H   0  0  0  0  0  0  0  0  0  0  0  0
   59.9137   26.4048   45.1452 H   0  0  0  0  0  0  0  0  0  0  0  0
   59.0123   29.9120   44.9444 H   0  0  0  0  0  0  0  0  0  0  0  0
   59.0858   28.3128   44.1011 H   0  0  0  0  0  0  0  0  0  0  0  0
   57.1099   31.3056   43.4765 H   0  0  0  0  0  0  0  0  0  0  0  0
   55.8142   31.8013   44.6390 H   0  0  0  0  0  0  0  0  0  0  0  0
   58.0100   30.9130   46.1840 H   0  0  0  0  0  0  0  0  0  0  0  0
   57.8685   34.7385   47.4337 H   0  0  0  0  0  0  0  0  0  0  0  0
   59.4335   35.3841   49.2654 H   0  0  0  0  0  0  0  0  0  0  0  0
   61.7004   34.3519   49.4026 H   0  0  0  0  0  0  0  0  0  0  0  0
   66.0966   31.6364   49.3528 H   0  0  0  0  0  0  0  0  0  0  0  0
   67.8076   32.8712   50.6889 H   0  0  0  0  0  0  0  0  0  0  0  0
   67.1048   34.7044   52.2348 H   0  0  0  0  0  0  0  0  0  0  0  0
   64.6970   35.3389   52.4081 H   0  0  0  0  0  0  0  0  0  0  0  0
   60.8740   32.0590   45.8234 H   0  0  0  0  0  0  0  0  0  0  0  0
  1  2  1  0
  2  3  1  0
  3  4  2  0
  4  5  1  0
  5  6  2  0
  6  7  1  0
  7  8  2  0
  8  9  1  0
  9 10  1  0
 10 11  1  0
 11 12  2  0
 11 13  1  0
 13 14  1  0
 14 15  1  0
 15 16  2  0
 15 17  1  0
 17 18  2  0
 18 19  1  0
 19 20  2  0
 20 21  1  0
 21 22  1  0
 22 23  2  0
 22 24  2  0
 22 25  1  0
 25 26  1  0
 26 27  2  0
 27 28  1  0
 28 29  2  0
 29 30  1  0
 30 31  2  0
 31 32  1  0
 21 33  2  0
  8  3  1  0
 33 17  1  0
 31 26  1  0
  1 34  1  0
  1 35  1  0
  1 36  1  0
  4 37  1  0
  5 38  1  0
  6 39  1  0
  7 40  1  0
  9 41  1  0
  9 42  1  0
 13 43  1  0
 13 44  1  0
 14 45  1  0
 18 46  1  0
 19 47  1  0
 20 48  1  0
 27 49  1  0
 28 50  1  0
 29 51  1  0
 30 52  1  0
 33 53  1  0
M  CHG  2  10  -1  25  -1
M  END
>  <UniqueID>  (73) 
69

>  <SMILES>  (73) 
COc1ccccc1C[N-]C(=O)CNC(=O)c1cccc(S(=O)(=O)[N-]c2ccccc2F)c1

>  <Energy>  (73) 
59.7888255962649

>  <Genealogy>  (73) 
COc1ccccc1C[N-]C(=O)CNC(=O)c1cccc(S(=O)(=O)[N-]c2ccccc2F)c1 (protonated)
COc1ccccc1C[N-]C(=O)CNC(=O)c1cccc(S(=O)(=O)[N-]c2ccccc2F)c1 (3D coordinates assigned)
COc1ccccc1C[N-]C(=O)CNC(=O)c1cccc(S(=O)(=O)[N-]c2ccccc2F)c1 (optimized conformer: 59.7888255962649 kcal/mol)

>  <smiles>  (73) 
COc1ccccc1CNC(=O)CNC(=O)c1cccc(S(=O)(=O)Nc2ccccc2F)c1

>  <score_type>  (73) 
oracle

>  <origin>  (73) 
adg

>  <m_score__min__energy>  (73) 
-12.279999999999999

>  <m_primary>  (73) 
energy

$$$$
73:0
     RDKit          3D

 47 49  0  0  0  0  0  0  0  0999 V2000
   64.0420   31.7030   51.2710 N   0  0  0  0  0  0  0  0  0  0  0  0
   63.9120   33.2070   50.4290 S   0  0  0  0  0  0  0  0  0  0  0  0
   65.1670   33.4480   49.6380 O   0  0  0  0  0  0  0  0  0  0  0  0
   63.7460   34.3220   51.4220 O   0  0  0  0  0  0  0  0  0  0  0  0
   62.5170   33.1630   49.3570 C   0  0  0  0  0  0  0  0  0  0  0  0
   62.6190   32.6150   48.0710 C   0  0  0  0  0  0  0  0  0  0  0  0
   61.5050   32.5850   47.2280 C   0  0  0  0  0  0  0  0  0  0  0  0
   60.2680   33.0840   47.6680 C   0  0  0  0  0  0  0  0  0  0  0  0
   59.0580   33.0370   46.7720 C   0  0  0  0  0  0  0  0  0  0  0  0
   59.4410   33.2390   45.3720 N   0  0  0  0  0  0  0  0  0  0  0  0
   58.1240   32.8690   44.2970 S   0  0  0  0  0  0  0  0  0  0  0  0
   58.6000   32.9620   42.8740 O   0  0  0  0  0  0  0  0  0  0  0  0
   57.0260   33.8740   44.5020 O   0  0  0  0  0  0  0  0  0  0  0  0
   57.4860   31.2600   44.6250 C   0  0  0  0  0  0  0  0  0  0  0  0
   56.2180   30.9060   44.1470 C   0  0  0  0  0  0  0  0  0  0  0  0
   55.6690   29.6590   44.4600 C   0  0  0  0  0  0  0  0  0  0  0  0
   56.3970   28.7410   45.2380 C   0  0  0  0  0  0  0  0  0  0  0  0
   55.8530   27.4720   45.6280 N   0  0  0  0  0  0  0  0  0  0  0  0
   56.5900   26.3220   46.0630 C   0  0  0  0  0  0  0  0  0  0  0  0
   56.3290   25.7800   47.1690 O   0  0  0  0  0  0  0  0  0  0  0  0
   57.5590   25.7130   45.2040 N   0  0  0  0  0  0  0  0  0  0  0  0
   57.5290   24.3660   44.7080 C   0  0  0  0  0  0  0  0  0  0  0  0
   58.4710   23.4490   45.1950 C   0  0  0  0  0  0  0  0  0  0  0  0
   58.4910   22.1340   44.7200 C   0  0  0  0  0  0  0  0  0  0  0  0
   57.5800   21.7300   43.7420 C   0  0  0  0  0  0  0  0  0  0  0  0
   56.6530   22.6420   43.2320 C   0  0  0  0  0  0  0  0  0  0  0  0
   56.6290   23.9570   43.7060 C   0  0  0  0  0  0  0  0  0  0  0  0
   57.6610   29.1020   45.7180 C   0  0  0  0  0  0  0  0  0  0  0  0
   58.2060   30.3500   45.4100 C   0  0  0  0  0  0  0  0  0  0  0  0
   60.1710   33.6400   48.9540 C   0  0  0  0  0  0  0  0  0  0  0  0
   61.2870   33.6720   49.7940 C   0  0  0  0  0  0  0  0  0  0  0  0
   64.9970   31.3280   51.0780 H   0  0  0  0  0  0  0  0  0  0  0  0
   63.5798   32.2069   47.7240 H   0  0  0  0  0  0  0  0  0  0  0  0
   61.5973   32.1683   46.2142 H   0  0  0  0  0  0  0  0  0  0  0  0
   58.5705   32.0563   46.8749 H   0  0  0  0  0  0  0  0  0  0  0  0
   58.3673   33.8400   47.0687 H   0  0  0  0  0  0  0  0  0  0  0  0
   55.6515   31.6124   43.5224 H   0  0  0  0  0  0  0  0  0  0  0  0
   54.6648   29.3951   44.0968 H   0  0  0  0  0  0  0  0  0  0  0  0
   59.1993   23.7661   45.9559 H   0  0  0  0  0  0  0  0  0  0  0  0
   59.2249   21.4173   45.1171 H   0  0  0  0  0  0  0  0  0  0  0  0
   57.5923   20.6937   43.3732 H   0  0  0  0  0  0  0  0  0  0  0  0
   55.9406   22.3250   42.4561 H   0  0  0  0  0  0  0  0  0  0  0  0
   55.9041   24.6747   43.2944 H   0  0  0  0  0  0  0  0  0  0  0  0
   58.2294   28.3972   46.3426 H   0  0  0  0  0  0  0  0  0  0  0  0
   59.2043   30.6197   45.7851 H   0  0  0  0  0  0  0  0  0  0  0  0
   59.2121   34.0521   49.3015 H   0  0  0  0  0  0  0  0  0  0  0  0
   61.1995   34.0991   50.8039 H   0  0  0  0  0  0  0  0  0  0  0  0
  1  2  1  0
  2  3  2  0
  2  4  2  0
  2  5  1  0
  5  6  2  0
  6  7  1  0
  7  8  2  0
  8  9  1  0
  9 10  1  0
 10 11  1  0
 11 12  2  0
 11 13  2  0
 11 14  1  0
 14 15  2  0
 15 16  1  0
 16 17  2  0
 17 18  1  0
 18 19  1  0
 19 20  2  0
 19 21  1  0
 21 22  1  0
 22 23  2  0
 23 24  1  0
 24 25  2  0
 25 26  1  0
 26 27  2  0
 17 28  1  0
 28 29  2  0
  8 30  1  0
 30 31  2  0
 31  5  1  0
 29 14  1  0
 27 22  1  0
  1 32  1  0
  6 33  1  0
  7 34  1  0
  9 35  1  0
  9 36  1  0
 15 37  1  0
 16 38  1  0
 23 39  1  0
 24 40  1  0
 25 41  1  0
 26 42  1  0
 27 43  1  0
 28 44  1  0
 29 45  1  0
 30 46  1  0
 31 47  1  0
M  CHG  4   1  -1  10  -1  18  -1  21  -1
M  END
>  <UniqueID>  (74) 
70

>  <SMILES>  (74) 
[NH-]S(=O)(=O)c1ccc(C[N-]S(=O)(=O)c2ccc([N-]C(=O)[N-]c3ccccc3)cc2)cc1

>  <Energy>  (74) 
48.73407713805522

>  <Genealogy>  (74) 
[NH-]S(=O)(=O)c1ccc(C[N-]S(=O)(=O)c2ccc([N-]C(=O)[N-]c3ccccc3)cc2)cc1 (protonated)
[NH-]S(=O)(=O)c1ccc(C[N-]S(=O)(=O)c2ccc([N-]C(=O)[N-]c3ccccc3)cc2)cc1 (3D coordinates assigned)
[NH-]S(=O)(=O)c1ccc(C[N-]S(=O)(=O)c2ccc([N-]C(=O)[N-]c3ccccc3)cc2)cc1 (optimized conformer: 48.73407713805522 kcal/mol)

>  <smiles>  (74) 
NS(=O)(=O)c1ccc(CNS(=O)(=O)c2ccc(NC(=O)Nc3ccccc3)cc2)cc1

>  <score_type>  (74) 
oracle

>  <origin>  (74) 
adg

>  <m_score__min__energy>  (74) 
-14.119999999999999

>  <m_primary>  (74) 
energy

$$$$
74:0
     RDKit          3D

 51 53  0  0  0  0  0  0  0  0999 V2000
   62.4420   30.4190   50.8550 C   0  0  0  0  0  0  0  0  0  0  0  0
   61.3740   31.2820   50.4760 O   0  0  0  0  0  0  0  0  0  0  0  0
   60.5490   31.1000   49.3550 C   0  0  0  0  0  0  0  0  0  0  0  0
   60.5340   29.8720   48.6660 C   0  0  0  0  0  0  0  0  0  0  0  0
   59.7260   29.6950   47.5460 C   0  0  0  0  0  0  0  0  0  0  0  0
   58.9050   30.7260   47.1060 C   0  0  0  0  0  0  0  0  0  0  0  0
   58.8720   31.9530   47.7860 C   0  0  0  0  0  0  0  0  0  0  0  0
   57.9380   33.0380   47.2960 C   0  0  0  0  0  0  0  0  0  0  0  0
   58.4880   33.7400   46.1210 N   0  0  0  0  0  0  0  0  0  0  0  0
   57.6920   33.8430   44.8900 C   0  0  0  0  0  0  0  0  0  0  0  0
   57.3990   32.4860   44.3310 C   0  0  0  0  0  0  0  0  0  0  0  0
   57.7880   32.0180   43.0910 C   0  0  0  0  0  0  0  0  0  0  0  0
   57.2790   30.7400   43.0020 C   0  0  0  0  0  0  0  0  0  0  0  0
   56.6120   30.5090   44.1870 C   0  0  0  0  0  0  0  0  0  0  0  0
   56.7000   31.5680   44.9570 O   0  0  0  0  0  0  0  0  0  0  0  0
   59.7060   34.5060   46.2200 C   0  0  0  0  0  0  0  0  0  0  0  0
   59.6500   35.7600   46.3300 O   0  0  0  0  0  0  0  0  0  0  0  0
   61.0530   33.8470   46.1630 C   0  0  0  0  0  0  0  0  0  0  0  0
   61.7130   33.8870   47.4670 N   0  0  0  0  0  0  0  0  0  0  0  0
   63.0340   33.3620   47.6540 C   0  0  0  0  0  0  0  0  0  0  0  0
   63.6620   32.8660   46.6800 O   0  0  0  0  0  0  0  0  0  0  0  0
   63.6590   33.3880   48.9850 C   0  0  0  0  0  0  0  0  0  0  0  0
   64.8050   32.7120   49.3570 C   0  0  0  0  0  0  0  0  0  0  0  0
   65.0080   33.0260   50.6830 C   0  0  0  0  0  0  0  0  0  0  0  0
   63.9780   33.8730   51.0380 C   0  0  0  0  0  0  0  0  0  0  0  0
   63.1890   34.0690   50.0060 O   0  0  0  0  0  0  0  0  0  0  0  0
   59.7190   32.1620   48.9010 C   0  0  0  0  0  0  0  0  0  0  0  0
   59.7010   33.4370   49.5000 O   0  0  0  0  0  0  0  0  0  0  0  0
   59.6620   33.7260   50.8930 C   0  0  0  0  0  0  0  0  0  0  0  0
   62.5023   30.3703   51.9523 H   0  0  0  0  0  0  0  0  0  0  0  0
   62.2597   29.4116   50.4527 H   0  0  0  0  0  0  0  0  0  0  0  0
   63.3887   30.8087   50.4527 H   0  0  0  0  0  0  0  0  0  0  0  0
   61.1674   29.0437   49.0164 H   0  0  0  0  0  0  0  0  0  0  0  0
   59.7377   28.7358   47.0077 H   0  0  0  0  0  0  0  0  0  0  0  0
   58.2750   30.5790   46.2163 H   0  0  0  0  0  0  0  0  0  0  0  0
   56.9752   32.5825   47.0210 H   0  0  0  0  0  0  0  0  0  0  0  0
   57.8094   33.7718   48.1053 H   0  0  0  0  0  0  0  0  0  0  0  0
   56.7436   34.3525   45.1155 H   0  0  0  0  0  0  0  0  0  0  0  0
   58.2663   34.4142   44.1458 H   0  0  0  0  0  0  0  0  0  0  0  0
   58.3797   32.5528   42.3335 H   0  0  0  0  0  0  0  0  0  0  0  0
   57.3837   30.0445   42.1562 H   0  0  0  0  0  0  0  0  0  0  0  0
   56.0862   29.5785   44.4471 H   0  0  0  0  0  0  0  0  0  0  0  0
   60.9274   32.7983   45.8557 H   0  0  0  0  0  0  0  0  0  0  0  0
   61.6775   34.3896   45.4380 H   0  0  0  0  0  0  0  0  0  0  0  0
   61.2300   34.3420   48.2770 H   0  0  0  0  0  0  0  0  0  0  0  0
   65.4260   32.0591   48.7260 H   0  0  0  0  0  0  0  0  0  0  0  0
   65.8258   32.6729   51.3283 H   0  0  0  0  0  0  0  0  0  0  0  0
   63.8386   34.3171   52.0347 H   0  0  0  0  0  0  0  0  0  0  0  0
   59.7877   32.7945   51.4644 H   0  0  0  0  0  0  0  0  0  0  0  0
   60.4741   34.4236   51.1456 H   0  0  0  0  0  0  0  0  0  0  0  0
   58.6940   34.1833   51.1456 H   0  0  0  0  0  0  0  0  0  0  0  0
  1  2  1  0
  2  3  1  0
  3  4  2  0
  4  5  1  0
  5  6  2  0
  6  7  1  0
  7  8  1  0
  8  9  1  0
  9 10  1  0
 10 11  1  0
 11 12  2  0
 12 13  1  0
 13 14  2  0
 14 15  1  0
  9 16  1  0
 16 17  2  0
 16 18  1  0
 18 19  1  0
 19 20  1  0
 20 21  2  0
 20 22  1  0
 22 23  2  0
 23 24  1  0
 24 25  2  0
 25 26  1  0
  7 27  2  0
 27 28  1  0
 28 29  1  0
 27  3  1  0
 15 11  1  0
 26 22  1  0
  1 30  1  0
  1 31  1  0
  1 32  1  0
  4 33  1  0
  5 34  1  0
  6 35  1  0
  8 36  1  0
  8 37  1  0
 10 38  1  0
 10 39  1  0
 12 40  1  0
 13 41  1  0
 14 42  1  0
 18 43  1  0
 18 44  1  0
 19 45  1  0
 23 46  1  0
 24 47  1  0
 25 48  1  0
 29 49  1  0
 29 50  1  0
 29 51  1  0
M  END
>  <UniqueID>  (75) 
71

>  <SMILES>  (75) 
COc1cccc(CN(Cc2ccco2)C(=O)CNC(=O)c2ccco2)c1OC

>  <Energy>  (75) 
103.68149343167278

>  <Genealogy>  (75) 
COc1cccc(CN(Cc2ccco2)C(=O)CNC(=O)c2ccco2)c1OC (3D coordinates assigned)
COc1cccc(CN(Cc2ccco2)C(=O)CNC(=O)c2ccco2)c1OC (optimized conformer: 103.68149343167278 kcal/mol)

>  <smiles>  (75) 
COc1cccc(CN(Cc2ccco2)C(=O)CNC(=O)c2ccco2)c1OC

>  <score_type>  (75) 
oracle

>  <origin>  (75) 
adg

>  <m_score__min__energy>  (75) 
-7.3600000000000003

>  <m_primary>  (75) 
energy

$$$$
75:0
     RDKit          3D

 54 57  0  0  0  0  0  0  0  0999 V2000
   53.6150   25.4630   45.6400 N   0  0  0  0  0  0  0  0  0  0  0  0
   54.8890   24.3000   45.7550 S   0  0  0  0  0  0  0  0  0  0  0  0
   54.8250   23.3900   44.5590 O   0  0  0  0  0  0  0  0  0  0  0  0
   54.7220   23.4850   47.0070 O   0  0  0  0  0  0  0  0  0  0  0  0
   56.4370   25.1360   45.8020 C   0  0  0  0  0  0  0  0  0  0  0  0
   57.6330   24.4240   45.9640 C   0  0  0  0  0  0  0  0  0  0  0  0
   58.8570   25.1000   45.9600 C   0  0  0  0  0  0  0  0  0  0  0  0
   58.8920   26.4880   45.7960 C   0  0  0  0  0  0  0  0  0  0  0  0
   57.7020   27.2130   45.6620 C   0  0  0  0  0  0  0  0  0  0  0  0
   57.7660   28.6270   45.4390 N   0  0  0  0  0  0  0  0  0  0  0  0
   56.6590   29.4100   44.9890 C   0  0  0  0  0  0  0  0  0  0  0  0
   55.5190   28.8850   44.8660 O   0  0  0  0  0  0  0  0  0  0  0  0
   56.8830   30.8150   44.5370 C   0  0  0  0  0  0  0  0  0  0  0  0
   57.7630   31.4810   45.4910 N   0  0  0  0  0  0  0  0  0  0  0  0
   58.2610   32.7250   45.3620 C   0  0  0  0  0  0  0  0  0  0  0  0
   58.9000   33.0570   46.5360 C   0  0  0  0  0  0  0  0  0  0  0  0
   59.7800   34.5600   46.8370 S   0  0  0  0  0  0  0  0  0  0  0  0
   59.7010   35.4070   45.5990 O   0  0  0  0  0  0  0  0  0  0  0  0
   59.1360   35.3220   47.9600 O   0  0  0  0  0  0  0  0  0  0  0  0
   61.4600   34.2860   47.2290 N   0  0  0  0  0  0  0  0  0  0  0  0
   61.9300   32.9860   46.7520 C   0  0  0  0  0  0  0  0  0  0  0  0
   63.0710   32.5710   47.6700 C   0  0  0  0  0  0  0  0  0  0  0  0
   62.9570   33.4720   48.8920 C   0  0  0  0  0  0  0  0  0  0  0  0
   61.6920   34.2810   48.6700 C   0  0  0  0  0  0  0  0  0  0  0  0
   58.7390   31.9460   47.3550 C   0  0  0  0  0  0  0  0  0  0  0  0
   59.2130   31.7680   48.7350 C   0  0  0  0  0  0  0  0  0  0  0  0
   60.1230   30.7490   49.0520 C   0  0  0  0  0  0  0  0  0  0  0  0
   60.5860   30.6030   50.3630 C   0  0  0  0  0  0  0  0  0  0  0  0
   60.1570   31.4850   51.3590 C   0  0  0  0  0  0  0  0  0  0  0  0
   59.2700   32.5190   51.0440 C   0  0  0  0  0  0  0  0  0  0  0  0
   58.8070   32.6680   49.7330 C   0  0  0  0  0  0  0  0  0  0  0  0
   58.0380   31.0020   46.6940 N   0  0  0  0  0  0  0  0  0  0  0  0
   56.4730   26.5290   45.6600 C   0  0  0  0  0  0  0  0  0  0  0  0
   54.0330   26.3390   45.2560 H   0  0  0  0  0  0  0  0  0  0  0  0
   57.6089   23.3320   46.0945 H   0  0  0  0  0  0  0  0  0  0  0  0
   59.7944   24.5385   46.0862 H   0  0  0  0  0  0  0  0  0  0  0  0
   59.8586   27.0125   45.7722 H   0  0  0  0  0  0  0  0  0  0  0  0
   57.3509   30.8130   43.5415 H   0  0  0  0  0  0  0  0  0  0  0  0
   55.9220   31.3472   44.4804 H   0  0  0  0  0  0  0  0  0  0  0  0
   58.1728   33.3658   44.4723 H   0  0  0  0  0  0  0  0  0  0  0  0
   61.1163   32.2474   46.8005 H   0  0  0  0  0  0  0  0  0  0  0  0
   62.2648   33.0453   45.7059 H   0  0  0  0  0  0  0  0  0  0  0  0
   62.9668   31.5150   47.9597 H   0  0  0  0  0  0  0  0  0  0  0  0
   64.0492   32.6727   47.1774 H   0  0  0  0  0  0  0  0  0  0  0  0
   62.8746   32.8703   49.8091 H   0  0  0  0  0  0  0  0  0  0  0  0
   63.8413   34.1148   49.0141 H   0  0  0  0  0  0  0  0  0  0  0  0
   60.8438   33.8133   49.1913 H   0  0  0  0  0  0  0  0  0  0  0  0
   61.7955   35.3031   49.0631 H   0  0  0  0  0  0  0  0  0  0  0  0
   60.4734   30.0628   48.2669 H   0  0  0  0  0  0  0  0  0  0  0  0
   61.2883   29.7935   50.6109 H   0  0  0  0  0  0  0  0  0  0  0  0
   60.5175   31.3655   52.3914 H   0  0  0  0  0  0  0  0  0  0  0  0
   58.9364   33.2153   51.8275 H   0  0  0  0  0  0  0  0  0  0  0  0
   58.1230   33.4924   49.4831 H   0  0  0  0  0  0  0  0  0  0  0  0
   55.5345   27.0914   45.5462 H   0  0  0  0  0  0  0  0  0  0  0  0
  1  2  1  0
  2  3  2  0
  2  4  2  0
  2  5  1  0
  5  6  2  0
  6  7  1  0
  7  8  2  0
  8  9  1  0
  9 10  1  0
 10 11  1  0
 11 12  2  0
 11 13  1  0
 13 14  1  0
 14 15  1  0
 15 16  2  0
 16 17  1  0
 17 18  2  0
 17 19  2  0
 17 20  1  0
 20 21  1  0
 21 22  1  0
 22 23  1  0
 23 24  1  0
 16 25  1  0
 25 26  1  0
 26 27  2  0
 27 28  1  0
 28 29  2  0
 29 30  1  0
 30 31  2  0
 25 32  2  0
  9 33  2  0
 33  5  1  0
 32 14  1  0
 24 20  1  0
 31 26  1  0
  1 34  1  0
  6 35  1  0
  7 36  1  0
  8 37  1  0
 13 38  1  0
 13 39  1  0
 15 40  1  0
 21 41  1  0
 21 42  1  0
 22 43  1  0
 22 44  1  0
 23 45  1  0
 23 46  1  0
 24 47  1  0
 24 48  1  0
 27 49  1  0
 28 50  1  0
 29 51  1  0
 30 52  1  0
 31 53  1  0
 33 54  1  0
M  CHG  2   1  -1  10  -1
M  END
>  <UniqueID>  (76) 
72

>  <SMILES>  (76) 
[NH-]S(=O)(=O)c1cccc([N-]C(=O)Cn2cc(S(=O)(=O)N3CCCC3)c(-c3ccccc3)n2)c1

>  <Energy>  (76) 
95.62359827352948

>  <Genealogy>  (76) 
[NH-]S(=O)(=O)c1cccc([N-]C(=O)Cn2cc(S(=O)(=O)N3CCCC3)c(-c3ccccc3)n2)c1 (protonated)
[NH-]S(=O)(=O)c1cccc([N-]C(=O)Cn2cc(S(=O)(=O)N3CCCC3)c(-c3ccccc3)n2)c1 (3D coordinates assigned)
[NH-]S(=O)(=O)c1cccc([N-]C(=O)Cn2cc(S(=O)(=O)N3CCCC3)c(-c3ccccc3)n2)c1 (nonaromatic ring conformer: 95.62359827352948 kcal/mol)

>  <smiles>  (76) 
NS(=O)(=O)c1cccc(NC(=O)Cn2cc(S(=O)(=O)N3CCCC3)c(-c3ccccc3)n2)c1

>  <score_type>  (76) 
oracle

>  <origin>  (76) 
adg

>  <m_score__min__energy>  (76) 
-14.220000000000001

>  <m_primary>  (76) 
energy

$$$$
76:0
     RDKit          3D

 38 40  0  0  0  0  0  0  0  0999 V2000
   51.5109   23.6152   44.9110 H   0  0  0  0  0  0  0  0  0  0  0  0
   51.9910   22.8970   45.5920 C   0  0  0  0  0  0  0  0  0  0  0  0
   53.3360   22.8660   45.7880 N   0  0  0  0  0  0  0  0  0  0  0  0
   53.6950   21.8970   46.6570 C   0  0  0  0  0  0  0  0  0  0  0  0
   54.9310   21.7190   47.0190 N   0  0  0  0  0  0  0  0  0  0  0  0
   55.9220   22.7390   47.2020 C   0  0  0  0  0  0  0  0  0  0  0  0
   56.9610   22.4640   47.8600 O   0  0  0  0  0  0  0  0  0  0  0  0
   55.6950   24.0840   46.7490 N   0  0  0  0  0  0  0  0  0  0  0  0
   54.7040   24.4040   46.6640 H   0  0  0  0  0  0  0  0  0  0  0  0
   56.7490   25.0410   46.5360 C   0  0  0  0  0  0  0  0  0  0  0  0
   58.0940   24.6710   46.6870 C   0  0  0  0  0  0  0  0  0  0  0  0
   58.3482   23.6417   46.9801 H   0  0  0  0  0  0  0  0  0  0  0  0
   59.1090   25.5990   46.4680 C   0  0  0  0  0  0  0  0  0  0  0  0
   60.1584   25.3007   46.6088 H   0  0  0  0  0  0  0  0  0  0  0  0
   58.8090   26.9060   46.0710 C   0  0  0  0  0  0  0  0  0  0  0  0
   60.1660   28.0080   45.8670 Cl  0  0  0  0  0  0  0  0  0  0  0  0
   57.4600   27.2890   45.8720 C   0  0  0  0  0  0  0  0  0  0  0  0
   57.0030   28.9300   45.3580 S   0  0  0  0  0  0  0  0  0  0  0  0
   57.4700   29.9100   46.4000 O   0  0  0  0  0  0  0  0  0  0  0  0
   55.5140   29.0770   45.2310 O   0  0  0  0  0  0  0  0  0  0  0  0
   57.7960   29.3190   43.7910 C   0  0  1  0  0  0  0  0  0  0  0  0
   58.5026   28.4936   43.6194 H   0  0  0  0  0  0  0  0  0  0  0  0
   56.7820   29.4660   42.6680 C   0  0  0  0  0  0  0  0  0  0  0  0
   55.9090   28.8259   42.8634 H   0  0  0  0  0  0  0  0  0  0  0  0
   57.2205   29.1618   41.7061 H   0  0  0  0  0  0  0  0  0  0  0  0
   56.3740   30.8700   42.6290 N   0  0  0  0  0  0  0  0  0  0  0  0
   56.2890   31.1710   41.6290 H   0  0  0  0  0  0  0  0  0  0  0  0
   57.4320   31.6460   43.2800 C   0  0  0  0  0  0  0  0  0  0  0  0
   57.0045   32.2422   44.0997 H   0  0  0  0  0  0  0  0  0  0  0  0
   57.9019   32.3265   42.5547 H   0  0  0  0  0  0  0  0  0  0  0  0
   58.4680   30.6770   43.8350 C   0  0  0  0  0  0  0  0  0  0  0  0
   58.7330   30.9442   44.8686 H   0  0  0  0  0  0  0  0  0  0  0  0
   59.4032   30.6948   43.2561 H   0  0  0  0  0  0  0  0  0  0  0  0
   56.4380   26.3480   46.1210 C   0  0  0  0  0  0  0  0  0  0  0  0
   55.1030   26.7150   45.9760 O   0  0  0  0  0  0  0  0  0  0  0  0
   52.3490   21.0550   47.2340 S   0  0  0  0  0  0  0  0  0  0  0  0
   51.2660   21.9560   46.3140 C   0  0  0  0  0  0  0  0  0  0  0  0
   50.1743   21.8235   46.2883 H   0  0  0  0  0  0  0  0  0  0  0  0
  1  2  1  0
  2  3  1  0
  3  4  1  0
  4  5  2  0
  5  6  1  0
  6  7  2  0
  6  8  1  0
  8  9  1  0
  8 10  1  0
 10 11  2  0
 11 12  1  0
 11 13  1  0
 13 14  1  0
 13 15  2  0
 15 16  1  0
 15 17  1  0
 17 18  1  0
 18 19  2  0
 18 20  2  0
 18 21  1  0
 21 22  1  6
 21 23  1  0
 23 24  1  0
 23 25  1  0
 23 26  1  0
 26 27  1  0
 26 28  1  0
 28 29  1  0
 28 30  1  0
 28 31  1  0
 31 32  1  0
 31 33  1  0
 17 34  2  0
 34 35  1  0
  4 36  1  0
 36 37  1  0
 37 38  1  0
 37  2  2  0
 34 10  1  0
 31 21  1  0
M  CHG  2   3  -1  35  -1
M  END
>  <UniqueID>  (77) 
73

>  <SMILES>  (77) 
O=C(/N=c1/[n-]ccs1)Nc1ccc(Cl)c(S(=O)(=O)[C@@H]2CCNC2)c1[O-]

>  <Energy>  (77) 
80.9217355407251

>  <Genealogy>  (77) 
O=C(N=c1[n-]ccs1)Nc1ccc(Cl)c(S(=O)(=O)C2CCNC2)c1[O-] (protonated)
O=C(N=c1[n-]ccs1)Nc1ccc(Cl)c(S(=O)(=O)[C@@H]2CCNC2)c1[O-] (chirality)
O=C(/N=c1/[n-]ccs1)Nc1ccc(Cl)c(S(=O)(=O)[C@@H]2CCNC2)c1[O-] (cis-trans isomerization)
O=C(/N=c1/[n-]ccs1)Nc1ccc(Cl)c(S(=O)(=O)[C@@H]2CCNC2)c1[O-] (3D coordinates assigned)
O=C(/N=c1/[n-]ccs1)Nc1ccc(Cl)c(S(=O)(=O)[C@@H]2CCNC2)c1[O-] (nonaromatic ring conformer: 80.9217355407251 kcal/mol)

>  <smiles>  (77) 
O=C(N=c1[nH]ccs1)Nc1ccc(Cl)c(S(=O)(=O)C2CCNC2)c1O

>  <score_type>  (77) 
oracle

>  <origin>  (77) 
adg

>  <m_score__min__energy>  (77) 
-13.75

>  <m_primary>  (77) 
energy

$$$$
77:0
     RDKit          3D

 49 51  0  0  0  0  0  0  0  0999 V2000
   59.2230   30.3950   49.2410 C   0  0  0  0  0  0  0  0  0  0  0  0
   59.6930   30.9490   48.0160 O   0  0  0  0  0  0  0  0  0  0  0  0
   60.8610   31.7180   47.8850 C   0  0  0  0  0  0  0  0  0  0  0  0
   62.0420   31.1860   47.3300 C   0  0  0  0  0  0  0  0  0  0  0  0
   63.1830   31.9810   47.2000 C   0  0  0  0  0  0  0  0  0  0  0  0
   63.1610   33.3130   47.6150 C   0  0  0  0  0  0  0  0  0  0  0  0
   61.9970   33.8530   48.1670 C   0  0  0  0  0  0  0  0  0  0  0  0
   60.8470   33.0610   48.3200 C   0  0  0  0  0  0  0  0  0  0  0  0
   59.5960   33.6710   48.8910 C   0  0  0  0  0  0  0  0  0  0  0  0
   58.5680   33.7140   47.8590 N   0  0  0  0  0  0  0  0  0  0  0  0
   58.7800   34.0410   46.4790 C   0  0  0  0  0  0  0  0  0  0  0  0
   59.3190   35.1440   46.2000 O   0  0  0  0  0  0  0  0  0  0  0  0
   58.3480   33.1630   45.3740 C   0  0  0  0  0  0  0  0  0  0  0  0
   57.7060   31.9490   45.5410 C   0  0  0  0  0  0  0  0  0  0  0  0
   57.4350   31.4920   44.2690 C   0  0  0  0  0  0  0  0  0  0  0  0
   56.6090   30.0010   43.8640 S   0  0  0  0  0  0  0  0  0  0  0  0
   56.0210   30.1040   42.4850 O   0  0  0  0  0  0  0  0  0  0  0  0
   55.5130   29.7690   44.8660 O   0  0  0  0  0  0  0  0  0  0  0  0
   57.7490   28.6920   43.9050 N   0  0  0  0  0  0  0  0  0  0  0  0
   58.3800   28.2550   45.1170 C   0  0  0  0  0  0  0  0  0  0  0  0
   59.7270   28.5820   45.3340 C   0  0  0  0  0  0  0  0  0  0  0  0
   60.3770   28.1820   46.5030 C   0  0  0  0  0  0  0  0  0  0  0  0
   59.6890   27.4410   47.4640 C   0  0  0  0  0  0  0  0  0  0  0  0
   58.3540   27.0880   47.2540 C   0  0  0  0  0  0  0  0  0  0  0  0
   57.6880   27.4780   46.0730 C   0  0  0  0  0  0  0  0  0  0  0  0
   56.3640   27.0920   45.8140 O   0  0  0  0  0  0  0  0  0  0  0  0
   55.8640   25.7660   45.9530 C   0  0  0  0  0  0  0  0  0  0  0  0
   57.8930   32.4420   43.3820 C   0  0  0  0  0  0  0  0  0  0  0  0
   58.4460   33.4630   44.0610 N   0  0  0  0  0  0  0  0  0  0  0  0
   59.6791   30.9326   50.0854 H   0  0  0  0  0  0  0  0  0  0  0  0
   58.1286   30.4933   49.2919 H   0  0  0  0  0  0  0  0  0  0  0  0
   59.4983   29.3312   49.2919 H   0  0  0  0  0  0  0  0  0  0  0  0
   62.0654   30.1379   46.9970 H   0  0  0  0  0  0  0  0  0  0  0  0
   64.1015   31.5558   46.7692 H   0  0  0  0  0  0  0  0  0  0  0  0
   64.0600   33.9377   47.5075 H   0  0  0  0  0  0  0  0  0  0  0  0
   61.9808   34.9061   48.4842 H   0  0  0  0  0  0  0  0  0  0  0  0
   59.2430   33.0623   49.7365 H   0  0  0  0  0  0  0  0  0  0  0  0
   59.8099   34.6915   49.2414 H   0  0  0  0  0  0  0  0  0  0  0  0
   57.4624   31.4517   46.4914 H   0  0  0  0  0  0  0  0  0  0  0  0
   58.1760   28.4150   42.9920 H   0  0  0  0  0  0  0  0  0  0  0  0
   60.2763   29.1592   44.5756 H   0  0  0  0  0  0  0  0  0  0  0  0
   61.4310   28.4510   46.6662 H   0  0  0  0  0  0  0  0  0  0  0  0
   60.1989   27.1341   48.3891 H   0  0  0  0  0  0  0  0  0  0  0  0
   57.8180   26.5017   48.0149 H   0  0  0  0  0  0  0  0  0  0  0  0
   55.7710   25.5193   47.0209 H   0  0  0  0  0  0  0  0  0  0  0  0
   54.8770   25.6941   45.4727 H   0  0  0  0  0  0  0  0  0  0  0  0
   56.5578   25.0603   45.4727 H   0  0  0  0  0  0  0  0  0  0  0  0
   57.8179   32.3755   42.2866 H   0  0  0  0  0  0  0  0  0  0  0  0
   58.8150   34.3400   43.6360 H   0  0  0  0  0  0  0  0  0  0  0  0
  1  2  1  0
  2  3  1  0
  3  4  2  0
  4  5  1  0
  5  6  2  0
  6  7  1  0
  7  8  2  0
  8  9  1  0
  9 10  1  0
 10 11  1  0
 11 12  2  0
 11 13  1  0
 13 14  2  0
 14 15  1  0
 15 16  1  0
 16 17  2  0
 16 18  2  0
 16 19  1  0
 19 20  1  0
 20 21  2  0
 21 22  1  0
 22 23  2  0
 23 24  1  0
 24 25  2  0
 25 26  1  0
 26 27  1  0
 15 28  2  0
 28 29  1  0
  8  3  1  0
 29 13  1  0
 25 20  1  0
  1 30  1  0
  1 31  1  0
  1 32  1  0
  4 33  1  0
  5 34  1  0
  6 35  1  0
  7 36  1  0
  9 37  1  0
  9 38  1  0
 14 39  1  0
 19 40  1  0
 21 41  1  0
 22 42  1  0
 23 43  1  0
 24 44  1  0
 27 45  1  0
 27 46  1  0
 27 47  1  0
 28 48  1  0
 29 49  1  0
M  CHG  1  10  -1
M  END
>  <UniqueID>  (78) 
74

>  <SMILES>  (78) 
COc1ccccc1C[N-]C(=O)c1cc(S(=O)(=O)Nc2ccccc2OC)c[nH]1

>  <Energy>  (78) 
84.05204146928357

>  <Genealogy>  (78) 
COc1ccccc1C[N-]C(=O)c1cc(S(=O)(=O)Nc2ccccc2OC)c[nH]1 (protonated)
COc1ccccc1C[N-]C(=O)c1cc(S(=O)(=O)Nc2ccccc2OC)c[nH]1 (3D coordinates assigned)
COc1ccccc1C[N-]C(=O)c1cc(S(=O)(=O)Nc2ccccc2OC)c[nH]1 (optimized conformer: 84.05204146928357 kcal/mol)

>  <smiles>  (78) 
COc1ccccc1CNC(=O)c1cc(S(=O)(=O)Nc2ccccc2OC)c[nH]1

>  <score_type>  (78) 
oracle

>  <origin>  (78) 
adg

>  <m_score__min__energy>  (78) 
-10.029999999999999

>  <m_primary>  (78) 
energy

$$$$
78:0
     RDKit          3D

 56 59  0  0  0  0  0  0  0  0999 V2000
   57.6320   21.1100   42.9940 C   0  0  0  0  0  0  0  0  0  0  0  0
   56.7150   22.1590   43.5500 C   0  0  0  0  0  0  0  0  0  0  0  0
   55.6400   22.4050   42.9390 O   0  0  0  0  0  0  0  0  0  0  0  0
   57.0410   22.9020   44.7930 C   0  0  0  0  0  0  0  0  0  0  0  0
   56.1070   22.9600   45.8430 C   0  0  0  0  0  0  0  0  0  0  0  0
   56.3860   23.6880   47.0020 C   0  0  0  0  0  0  0  0  0  0  0  0
   57.6090   24.3460   47.1390 C   0  0  0  0  0  0  0  0  0  0  0  0
   58.5740   24.2520   46.1320 C   0  0  0  0  0  0  0  0  0  0  0  0
   59.8510   24.8720   46.3210 N   0  0  0  0  0  0  0  0  0  0  0  0
   60.0380   26.2870   46.4480 C   0  0  0  0  0  0  0  0  0  0  0  0
   60.8180   26.8730   45.6530 O   0  0  0  0  0  0  0  0  0  0  0  0
   59.1910   27.1100   47.3880 C   0  0  0  0  0  0  0  0  0  0  0  0
   58.5450   28.2330   46.6950 N   0  0  0  0  0  0  0  0  0  0  0  0
   57.4520   28.1550   45.8940 C   0  0  0  0  0  0  0  0  0  0  0  0
   56.6580   26.8990   45.6550 C   0  0  0  0  0  0  0  0  0  0  0  0
   57.1460   29.4100   45.3790 C   0  0  0  0  0  0  0  0  0  0  0  0
   56.0750   29.7400   44.4140 C   0  0  0  0  0  0  0  0  0  0  0  0
   54.8970   29.3420   44.6050 O   0  0  0  0  0  0  0  0  0  0  0  0
   56.3610   30.4850   43.2770 O   0  0  0  0  0  0  0  0  0  0  0  0
   58.0920   30.2850   45.8990 C   0  0  0  0  0  0  0  0  0  0  0  0
   58.1860   31.7420   45.6670 C   0  0  0  0  0  0  0  0  0  0  0  0
   58.3880   32.2370   44.3670 C   0  0  0  0  0  0  0  0  0  0  0  0
   58.5020   33.6120   44.1480 C   0  0  0  0  0  0  0  0  0  0  0  0
   58.4200   34.5020   45.2220 C   0  0  0  0  0  0  0  0  0  0  0  0
   58.2270   34.0170   46.5180 C   0  0  0  0  0  0  0  0  0  0  0  0
   58.1140   32.6420   46.7420 C   0  0  0  0  0  0  0  0  0  0  0  0
   58.9300   29.5340   46.7140 C   0  0  0  0  0  0  0  0  0  0  0  0
   59.9460   30.1080   47.6300 C   0  0  0  0  0  0  0  0  0  0  0  0
   61.1150   30.7080   47.1380 C   0  0  0  0  0  0  0  0  0  0  0  0
   62.0480   31.2650   48.0180 C   0  0  0  0  0  0  0  0  0  0  0  0
   61.8190   31.2310   49.3960 C   0  0  0  0  0  0  0  0  0  0  0  0
   60.6570   30.6380   49.8950 C   0  0  0  0  0  0  0  0  0  0  0  0
   59.7230   30.0800   49.0180 C   0  0  0  0  0  0  0  0  0  0  0  0
   58.2780   23.5570   44.9490 C   0  0  0  0  0  0  0  0  0  0  0  0
   58.1091   20.5642   43.8213 H   0  0  0  0  0  0  0  0  0  0  0  0
   57.0534   20.4072   42.3765 H   0  0  0  0  0  0  0  0  0  0  0  0
   58.4058   21.5894   42.3765 H   0  0  0  0  0  0  0  0  0  0  0  0
   55.1488   22.4276   45.7507 H   0  0  0  0  0  0  0  0  0  0  0  0
   55.6400   23.7428   47.8085 H   0  0  0  0  0  0  0  0  0  0  0  0
   57.8142   24.9402   48.0417 H   0  0  0  0  0  0  0  0  0  0  0  0
   58.4136   26.4655   47.8242 H   0  0  0  0  0  0  0  0  0  0  0  0
   59.8467   27.5209   48.1698 H   0  0  0  0  0  0  0  0  0  0  0  0
   56.3766   26.4538   46.6207 H   0  0  0  0  0  0  0  0  0  0  0  0
   55.7494   27.1425   45.0848 H   0  0  0  0  0  0  0  0  0  0  0  0
   57.2677   26.1827   45.0848 H   0  0  0  0  0  0  0  0  0  0  0  0
   58.4565   31.5394   43.5193 H   0  0  0  0  0  0  0  0  0  0  0  0
   58.6566   33.9947   43.1284 H   0  0  0  0  0  0  0  0  0  0  0  0
   58.5074   35.5845   45.0472 H   0  0  0  0  0  0  0  0  0  0  0  0
   58.1639   34.7182   47.3632 H   0  0  0  0  0  0  0  0  0  0  0  0
   57.9681   32.2636   47.7645 H   0  0  0  0  0  0  0  0  0  0  0  0
   61.2985   30.7404   46.0539 H   0  0  0  0  0  0  0  0  0  0  0  0
   62.9637   31.7307   47.6249 H   0  0  0  0  0  0  0  0  0  0  0  0
   62.5531   31.6708   50.0871 H   0  0  0  0  0  0  0  0  0  0  0  0
   60.4768   30.6102   50.9798 H   0  0  0  0  0  0  0  0  0  0  0  0
   58.8082   29.6163   49.4157 H   0  0  0  0  0  0  0  0  0  0  0  0
   59.0188   23.5236   44.1365 H   0  0  0  0  0  0  0  0  0  0  0  0
  1  2  1  0
  2  3  2  0
  2  4  1  0
  4  5  2  0
  5  6  1  0
  6  7  2  0
  7  8  1  0
  8  9  1  0
  9 10  1  0
 10 11  2  0
 10 12  1  0
 12 13  1  0
 13 14  1  0
 14 15  1  0
 14 16  2  0
 16 17  1  0
 17 18  2  0
 17 19  1  0
 16 20  1  0
 20 21  1  0
 21 22  2  0
 22 23  1  0
 23 24  2  0
 24 25  1  0
 25 26  2  0
 20 27  2  0
 27 28  1  0
 28 29  2  0
 29 30  1  0
 30 31  2  0
 31 32  1  0
 32 33  2  0
  8 34  2  0
 34  4  1  0
 27 13  1  0
 33 28  1  0
 26 21  1  0
  1 35  1  0
  1 36  1  0
  1 37  1  0
  5 38  1  0
  6 39  1  0
  7 40  1  0
 12 41  1  0
 12 42  1  0
 15 43  1  0
 15 44  1  0
 15 45  1  0
 22 46  1  0
 23 47  1  0
 24 48  1  0
 25 49  1  0
 26 50  1  0
 29 51  1  0
 30 52  1  0
 31 53  1  0
 32 54  1  0
 33 55  1  0
 34 56  1  0
M  CHG  2   9  -1  19  -1
M  END
>  <UniqueID>  (79) 
75

>  <SMILES>  (79) 
CC(=O)c1cccc([N-]C(=O)Cn2c(C)c(C(=O)[O-])c(-c3ccccc3)c2-c2ccccc2)c1

>  <Energy>  (79) 
104.46756381477459

>  <Genealogy>  (79) 
CC(=O)c1cccc([N-]C(=O)Cn2c(C)c(C(=O)[O-])c(-c3ccccc3)c2-c2ccccc2)c1 (protonated)
CC(=O)c1cccc([N-]C(=O)Cn2c(C)c(C(=O)[O-])c(-c3ccccc3)c2-c2ccccc2)c1 (3D coordinates assigned)
CC(=O)c1cccc([N-]C(=O)Cn2c(C)c(C(=O)[O-])c(-c3ccccc3)c2-c2ccccc2)c1 (optimized conformer: 104.46756381477459 kcal/mol)

>  <smiles>  (79) 
CC(=O)c1cccc(NC(=O)Cn2c(C)c(C(=O)O)c(-c3ccccc3)c2-c2ccccc2)c1

>  <score_type>  (79) 
oracle

>  <origin>  (79) 
adg

>  <m_score__min__energy>  (79) 
-12.75

>  <m_primary>  (79) 
energy

$$$$
79:0
     RDKit          3D

 53 56  0  0  0  0  0  0  0  0999 V2000
   54.3080   27.0920   46.3700 H   0  0  0  0  0  0  0  0  0  0  0  0
   54.8690   26.3470   45.9770 O   0  0  0  0  0  0  0  0  0  0  0  0
   56.1900   26.1790   46.3780 C   0  0  0  0  0  0  0  0  0  0  0  0
   56.6100   25.1550   47.1460 N   0  0  0  0  0  0  0  0  0  0  0  0
   57.9290   25.3630   47.3190 C   0  0  0  0  0  0  0  0  0  0  0  0
   58.5941   24.7090   47.9020 H   0  0  0  0  0  0  0  0  0  0  0  0
   58.3330   26.5120   46.6630 C   0  0  0  0  0  0  0  0  0  0  0  0
   59.6900   27.0870   46.6480 C   0  0  0  0  0  0  0  0  0  0  0  0
   60.5730   26.6250   47.4180 O   0  0  0  0  0  0  0  0  0  0  0  0
   60.0050   28.2130   45.8220 N   0  0  0  0  0  0  0  0  0  0  0  0
   60.0350   29.4680   46.1810 C   0  0  0  0  0  0  0  0  0  0  0  0
   60.9380   29.9720   47.0910 C   0  0  0  0  0  0  0  0  0  0  0  0
   61.7886   29.4552   47.5593 H   0  0  0  0  0  0  0  0  0  0  0  0
   60.5260   31.2800   47.2790 C   0  0  0  0  0  0  0  0  0  0  0  0
   61.1370   32.2450   48.2110 C   0  0  0  0  0  0  0  0  0  0  0  0
   62.3930   32.2740   48.3080 O   0  0  0  0  0  0  0  0  0  0  0  0
   60.3420   33.1460   49.0150 N   0  0  0  0  0  0  0  0  0  0  0  0
   59.9530   34.4770   48.5150 C   0  0  0  0  0  0  0  0  0  0  0  0
   59.3282   34.9769   49.2698 H   0  0  0  0  0  0  0  0  0  0  0  0
   60.8653   35.0611   48.3236 H   0  0  0  0  0  0  0  0  0  0  0  0
   59.1760   34.3620   47.2290 C   0  0  0  0  0  0  0  0  0  0  0  0
   59.7390   34.8190   46.0260 C   0  0  0  0  0  0  0  0  0  0  0  0
   60.7521   35.2476   46.0230 H   0  0  0  0  0  0  0  0  0  0  0  0
   59.0160   34.7310   44.8320 C   0  0  0  0  0  0  0  0  0  0  0  0
   59.4635   35.0859   43.8919 H   0  0  0  0  0  0  0  0  0  0  0  0
   57.7260   34.1930   44.8310 C   0  0  0  0  0  0  0  0  0  0  0  0
   57.1569   34.1309   43.8917 H   0  0  0  0  0  0  0  0  0  0  0  0
   57.1590   33.7340   46.0230 C   0  0  0  0  0  0  0  0  0  0  0  0
   56.1442   33.3095   46.0213 H   0  0  0  0  0  0  0  0  0  0  0  0
   57.8810   33.8140   47.2180 C   0  0  0  0  0  0  0  0  0  0  0  0
   57.4339   33.4466   48.1535 H   0  0  0  0  0  0  0  0  0  0  0  0
   59.8000   32.6650   50.2950 C   0  0  0  0  0  0  0  0  0  0  0  0
   59.5843   33.5269   50.9435 H   0  0  0  0  0  0  0  0  0  0  0  0
   60.5428   32.0083   50.7715 H   0  0  0  0  0  0  0  0  0  0  0  0
   58.5160   31.8740   50.0680 C   0  0  0  0  0  0  0  0  0  0  0  0
   58.0759   31.6029   51.0390 H   0  0  0  0  0  0  0  0  0  0  0  0
   57.8019   32.4890   49.5007 H   0  0  0  0  0  0  0  0  0  0  0  0
   58.7441   30.9596   49.5007 H   0  0  0  0  0  0  0  0  0  0  0  0
   59.4730   31.5490   46.4810 N   0  0  0  0  0  0  0  0  0  0  0  0
   59.1700   30.4480   45.8120 N   0  0  0  0  0  0  0  0  0  0  0  0
   58.1840   30.4500   44.7690 C   0  0  0  0  0  0  0  0  0  0  0  0
   58.3550   31.2460   43.6240 C   0  0  0  0  0  0  0  0  0  0  0  0
   59.2588   31.8635   43.5149 H   0  0  0  0  0  0  0  0  0  0  0  0
   57.3790   31.2550   42.6230 C   0  0  0  0  0  0  0  0  0  0  0  0
   57.5261   31.8620   41.7175 H   0  0  0  0  0  0  0  0  0  0  0  0
   56.2160   30.4930   42.7720 C   0  0  0  0  0  0  0  0  0  0  0  0
   55.4505   30.4977   41.9821 H   0  0  0  0  0  0  0  0  0  0  0  0
   56.0260   29.7250   43.9250 C   0  0  0  0  0  0  0  0  0  0  0  0
   55.1078   29.1311   44.0442 H   0  0  0  0  0  0  0  0  0  0  0  0
   57.0010   29.7110   44.9260 C   0  0  0  0  0  0  0  0  0  0  0  0
   56.8410   29.1193   45.8394 H   0  0  0  0  0  0  0  0  0  0  0  0
   57.2160   27.0380   46.0510 C   0  0  0  0  0  0  0  0  0  0  0  0
   57.1565   27.9472   45.4347 H   0  0  0  0  0  0  0  0  0  0  0  0
  1  2  1  0
  2  3  1  0
  3  4  1  0
  4  5  1  0
  5  6  1  0
  5  7  2  0
  7  8  1  0
  8  9  2  0
  8 10  1  0
 10 11  2  0
 11 12  1  0
 12 13  1  0
 12 14  2  0
 14 15  1  0
 15 16  2  0
 15 17  1  0
 17 18  1  0
 18 19  1  0
 18 20  1  0
 18 21  1  0
 21 22  2  0
 22 23  1  0
 22 24  1  0
 24 25  1  0
 24 26  2  0
 26 27  1  0
 26 28  1  0
 28 29  1  0
 28 30  2  0
 30 31  1  0
 17 32  1  0
 32 33  1  0
 32 34  1  0
 32 35  1  0
 35 36  1  0
 35 37  1  0
 35 38  1  0
 14 39  1  0
 39 40  1  0
 40 41  1  0
 41 42  2  0
 42 43  1  0
 42 44  1  0
 44 45  1  0
 44 46  2  0
 46 47  1  0
 46 48  1  0
 48 49  1  0
 48 50  2  0
 50 51  1  0
  7 52  1  0
 52 53  1  0
 52  3  2  0
 40 11  1  0
 50 41  1  0
 30 21  1  0
M  CHG  2   4  -1  39  -1
M  END
>  <UniqueID>  (80) 
76

>  <SMILES>  (80) 
CCN(Cc1ccccc1)C(=O)c1c/c(=N/C(=O)c2c[n-]c(O)c2)n(-c2ccccc2)[n-]1

>  <Energy>  (80) 
123.73424193118156

>  <Genealogy>  (80) 
CCN(Cc1ccccc1)C(=O)c1cc(=NC(=O)c2c[n-]c(O)c2)n(-c2ccccc2)[n-]1 (protonated)
CCN(Cc1ccccc1)C(=O)c1c/c(=N/C(=O)c2c[n-]c(O)c2)n(-c2ccccc2)[n-]1 (cis-trans isomerization)
CCN(Cc1ccccc1)C(=O)c1c/c(=N/C(=O)c2c[n-]c(O)c2)n(-c2ccccc2)[n-]1 (3D coordinates assigned)
CCN(Cc1ccccc1)C(=O)c1c/c(=N/C(=O)c2c[n-]c(O)c2)n(-c2ccccc2)[n-]1 (optimized conformer: 123.73424193118156 kcal/mol)

>  <smiles>  (80) 
CCN(Cc1ccccc1)C(=O)c1cc(=NC(=O)c2c[nH]c(O)c2)n(-c2ccccc2)[nH]1

>  <score_type>  (80) 
oracle

>  <origin>  (80) 
adg

>  <m_score__min__energy>  (80) 
-13.34

>  <m_primary>  (80) 
energy

$$$$
80:0
     RDKit          3D

 59 62  0  0  0  0  0  0  0  0999 V2000
   53.6480   24.4610   45.2790 C   0  0  0  0  0  0  0  0  0  0  0  0
   54.7370   24.5140   46.1950 O   0  0  0  0  0  0  0  0  0  0  0  0
   55.9880   25.0910   45.9210 C   0  0  0  0  0  0  0  0  0  0  0  0
   56.4140   26.2620   46.5790 C   0  0  0  0  0  0  0  0  0  0  0  0
   57.6890   26.7960   46.3470 C   0  0  0  0  0  0  0  0  0  0  0  0
   58.1220   28.0340   47.0300 C   0  0  0  0  0  0  0  0  0  0  0  0
   58.8790   27.9530   48.0330 O   0  0  0  0  0  0  0  0  0  0  0  0
   57.7430   29.3310   46.5580 N   0  0  0  0  0  0  0  0  0  0  0  0
   57.1100   29.5880   45.2680 C   0  0  0  0  0  0  0  0  0  0  0  0
   57.5090   30.9510   44.7830 C   0  0  0  0  0  0  0  0  0  0  0  0
   57.6930   31.1870   43.4130 C   0  0  0  0  0  0  0  0  0  0  0  0
   58.1200   32.4400   42.9680 C   0  0  0  0  0  0  0  0  0  0  0  0
   58.3690   33.4650   43.8840 C   0  0  0  0  0  0  0  0  0  0  0  0
   58.1800   33.2440   45.2610 C   0  0  0  0  0  0  0  0  0  0  0  0
   58.4650   34.2560   46.2380 N   0  0  0  0  0  0  0  0  0  0  0  0
   59.7270   34.9060   46.4510 C   0  0  0  0  0  0  0  0  0  0  0  0
   59.9560   36.0390   45.9510 O   0  0  0  0  0  0  0  0  0  0  0  0
   60.7700   34.2480   47.3160 C   0  0  1  0  0  0  0  0  0  0  0  0
   60.1760   33.0560   48.1040 C   0  0  0  0  0  0  0  0  0  0  0  0
   60.5990   31.7140   47.5080 C   0  0  0  0  0  0  0  0  0  0  0  0
   62.1350   31.5820   47.4710 C   0  0  0  0  0  0  0  0  0  0  0  0
   62.8460   32.8420   47.1230 N   0  0  0  0  0  0  0  0  0  0  0  0
   63.5710   33.4120   48.2720 C   0  0  0  0  0  0  0  0  0  0  0  0
   61.9900   33.8410   46.4530 C   0  0  0  0  0  0  0  0  0  0  0  0
   57.7720   31.9800   45.7020 C   0  0  0  0  0  0  0  0  0  0  0  0
   58.5310   26.1760   45.4150 C   0  0  0  0  0  0  0  0  0  0  0  0
   58.1170   25.0250   44.7460 C   0  0  0  0  0  0  0  0  0  0  0  0
   56.8460   24.4740   44.9820 C   0  0  0  0  0  0  0  0  0  0  0  0
   56.4370   23.2540   44.2400 C   0  0  0  0  0  0  0  0  0  0  0  0
   56.2440   23.1030   42.8810 C   0  0  0  0  0  0  0  0  0  0  0  0
   55.9170   21.8240   42.6220 N   0  0  0  0  0  0  0  0  0  0  0  0
   55.8970   21.1520   43.7620 N   0  0  0  0  0  0  0  0  0  0  0  0
   56.2150   21.9950   44.7620 C   0  0  0  0  0  0  0  0  0  0  0  0
   52.7013   24.4149   45.8372 H   0  0  0  0  0  0  0  0  0  0  0  0
   53.6571   25.3607   44.6461 H   0  0  0  0  0  0  0  0  0  0  0  0
   53.7444   23.5665   44.6461 H   0  0  0  0  0  0  0  0  0  0  0  0
   55.7362   26.7643   47.2849 H   0  0  0  0  0  0  0  0  0  0  0  0
   57.4357   28.8293   44.5411 H   0  0  0  0  0  0  0  0  0  0  0  0
   56.0165   29.5414   45.3781 H   0  0  0  0  0  0  0  0  0  0  0  0
   57.5005   30.3833   42.6871 H   0  0  0  0  0  0  0  0  0  0  0  0
   58.2608   32.6206   41.8921 H   0  0  0  0  0  0  0  0  0  0  0  0
   58.7136   34.4471   43.5281 H   0  0  0  0  0  0  0  0  0  0  0  0
   61.1193   34.9697   48.0691 H   0  0  0  0  0  0  0  0  0  0  0  0
   60.5250   33.1087   49.1458 H   0  0  0  0  0  0  0  0  0  0  0  0
   59.0794   33.1233   48.0503 H   0  0  0  0  0  0  0  0  0  0  0  0
   60.1833   30.9014   48.1219 H   0  0  0  0  0  0  0  0  0  0  0  0
   60.2184   31.6540   46.4777 H   0  0  0  0  0  0  0  0  0  0  0  0
   62.4774   31.2553   48.4640 H   0  0  0  0  0  0  0  0  0  0  0  0
   62.3715   30.8559   46.6792 H   0  0  0  0  0  0  0  0  0  0  0  0
   63.1156   33.0540   49.2071 H   0  0  0  0  0  0  0  0  0  0  0  0
   64.6244   33.0977   48.2334 H   0  0  0  0  0  0  0  0  0  0  0  0
   63.5142   34.5099   48.2334 H   0  0  0  0  0  0  0  0  0  0  0  0
   62.5910   34.7386   46.2455 H   0  0  0  0  0  0  0  0  0  0  0  0
   61.6086   33.3877   45.5261 H   0  0  0  0  0  0  0  0  0  0  0  0
   57.6561   31.7905   46.7793 H   0  0  0  0  0  0  0  0  0  0  0  0
   59.5251   26.5999   45.2096 H   0  0  0  0  0  0  0  0  0  0  0  0
   58.7932   24.5425   44.0249 H   0  0  0  0  0  0  0  0  0  0  0  0
   56.3420   23.9010   42.1302 H   0  0  0  0  0  0  0  0  0  0  0  0
   56.2866   21.7241   45.8257 H   0  0  0  0  0  0  0  0  0  0  0  0
  1  2  1  0
  2  3  1  0
  3  4  2  0
  4  5  1  0
  5  6  1  0
  6  7  2  0
  6  8  1  0
  8  9  1  0
  9 10  1  0
 10 11  2  0
 11 12  1  0
 12 13  2  0
 13 14  1  0
 14 15  1  0
 15 16  1  0
 16 17  2  0
 16 18  1  0
 18 19  1  0
 19 20  1  0
 20 21  1  0
 21 22  1  0
 22 23  1  0
 22 24  1  0
 14 25  2  0
  5 26  2  0
 26 27  1  0
 27 28  2  0
 28 29  1  0
 29 30  1  0
 30 31  2  0
 31 32  1  0
 32 33  1  0
 28  3  1  0
 33 29  2  0
 25 10  1  0
 24 18  1  0
  1 34  1  0
  1 35  1  0
  1 36  1  0
  4 37  1  0
  9 38  1  0
  9 39  1  0
 11 40  1  0
 12 41  1  0
 13 42  1  0
 18 43  1  1
 19 44  1  0
 19 45  1  0
 20 46  1  0
 20 47  1  0
 21 48  1  0
 21 49  1  0
 23 50  1  0
 23 51  1  0
 23 52  1  0
 24 53  1  0
 24 54  1  0
 25 55  1  0
 26 56  1  0
 27 57  1  0
 30 58  1  0
 33 59  1  0
M  CHG  3   8  -1  15  -1  32  -1
M  END
>  <UniqueID>  (81) 
77

>  <SMILES>  (81) 
COc1cc(C(=O)[N-]Cc2cccc([N-]C(=O)[C@H]3CCCN(C)C3)c2)ccc1-c1cn[n-]c1

>  <Energy>  (81) 
110.93626104807761

>  <Genealogy>  (81) 
COc1cc(C(=O)[N-]Cc2cccc([N-]C(=O)C3CCCN(C)C3)c2)ccc1-c1cn[n-]c1 (protonated)
COc1cc(C(=O)[N-]Cc2cccc([N-]C(=O)[C@H]3CCCN(C)C3)c2)ccc1-c1cn[n-]c1 (chirality)
COc1cc(C(=O)[N-]Cc2cccc([N-]C(=O)[C@H]3CCCN(C)C3)c2)ccc1-c1cn[n-]c1 (3D coordinates assigned)
COc1cc(C(=O)[N-]Cc2cccc([N-]C(=O)[C@H]3CCCN(C)C3)c2)ccc1-c1cn[n-]c1 (nonaromatic ring conformer: 110.93626104807761 kcal/mol)

>  <smiles>  (81) 
COc1cc(C(=O)NCc2cccc(NC(=O)C3CCCN(C)C3)c2)ccc1-c1cn[nH]c1

>  <score_type>  (81) 
oracle

>  <origin>  (81) 
adg

>  <m_score__min__energy>  (81) 
-13.710000000000001

>  <m_primary>  (81) 
energy

$$$$
81:0
     RDKit          3D

 59 62  0  0  0  0  0  0  0  0999 V2000
   54.5530   29.3940   51.9570 O   0  0  0  0  0  0  0  0  0  0  0  0
   54.6080   30.6540   52.0000 C   0  0  0  0  0  0  0  0  0  0  0  0
   53.3730   31.4640   52.2640 C   0  0  0  0  0  0  0  0  0  0  0  0
   52.4230   31.4210   51.1030 C   0  0  0  0  0  0  0  0  0  0  0  0
   52.4360   30.4730   50.1490 N   0  0  0  0  0  0  0  0  0  0  0  0
   51.3930   30.8100   49.3590 C   0  0  0  0  0  0  0  0  0  0  0  0
   51.0750   30.1500   48.3370 O   0  0  0  0  0  0  0  0  0  0  0  0
   50.7140   31.9080   49.7560 N   0  0  0  0  0  0  0  0  0  0  0  0
   51.3760   32.2790   50.8650 C   0  0  0  0  0  0  0  0  0  0  0  0
   51.0310   33.3790   51.6420 O   0  0  0  0  0  0  0  0  0  0  0  0
   55.8720   31.3210   51.9000 N   0  0  0  0  0  0  0  0  0  0  0  0
   57.1170   30.6710   51.6050 C   0  0  0  0  0  0  0  0  0  0  0  0
   57.5850   29.6810   52.4790 C   0  0  0  0  0  0  0  0  0  0  0  0
   56.8370   29.3380   53.6030 O   0  0  0  0  0  0  0  0  0  0  0  0
   58.7930   29.0270   52.2120 C   0  0  0  0  0  0  0  0  0  0  0  0
   59.5480   29.3730   51.0920 C   0  0  0  0  0  0  0  0  0  0  0  0
   59.1310   30.4120   50.2400 C   0  0  0  0  0  0  0  0  0  0  0  0
   59.9630   30.7920   49.0310 C   0  0  0  0  0  0  0  0  0  0  0  0
   59.7930   32.2460   48.6290 C   0  0  0  0  0  0  0  0  0  0  0  0
   60.0220   33.2330   49.6070 C   0  0  0  0  0  0  0  0  0  0  0  0
   59.8780   34.5870   49.3030 C   0  0  0  0  0  0  0  0  0  0  0  0
   59.4950   34.9770   48.0220 C   0  0  0  0  0  0  0  0  0  0  0  0
   59.2530   34.0150   47.0410 C   0  0  0  0  0  0  0  0  0  0  0  0
   59.3960   32.6450   47.3230 C   0  0  0  0  0  0  0  0  0  0  0  0
   59.1090   31.4830   46.0130 S   0  0  0  0  0  0  0  0  0  0  0  0
   58.9440   32.2110   44.7100 O   0  0  0  0  0  0  0  0  0  0  0  0
   60.2690   30.5380   45.8780 O   0  0  0  0  0  0  0  0  0  0  0  0
   57.6830   30.5640   46.3510 N   0  0  0  0  0  0  0  0  0  0  0  0
   57.2670   29.4810   45.5180 C   0  0  0  0  0  0  0  0  0  0  0  0
   56.0470   29.3360   45.2290 O   0  0  0  0  0  0  0  0  0  0  0  0
   58.2440   28.5660   45.0090 N   0  0  0  0  0  0  0  0  0  0  0  0
   57.9060   27.5020   44.0660 C   0  0  0  0  0  0  0  0  0  0  0  0
   57.5210   26.2510   44.8110 C   0  0  0  0  0  0  0  0  0  0  0  0
   57.3800   25.0280   44.1310 C   0  0  0  0  0  0  0  0  0  0  0  0
   57.0740   23.8590   44.8370 C   0  0  0  0  0  0  0  0  0  0  0  0
   56.9070   23.9040   46.2240 C   0  0  0  0  0  0  0  0  0  0  0  0
   57.0490   25.1160   46.9070 C   0  0  0  0  0  0  0  0  0  0  0  0
   57.3590   26.2860   46.2060 C   0  0  0  0  0  0  0  0  0  0  0  0
   57.8980   31.0510   50.4930 C   0  0  0  0  0  0  0  0  0  0  0  0
   57.4650   32.0830   49.6630 O   0  0  0  0  0  0  0  0  0  0  0  0
   52.8667   31.0624   53.1541 H   0  0  0  0  0  0  0  0  0  0  0  0
   53.6756   32.5098   52.4212 H   0  0  0  0  0  0  0  0  0  0  0  0
   55.8580   29.5830   53.6810 H   0  0  0  0  0  0  0  0  0  0  0  0
   59.1486   28.2362   52.8889 H   0  0  0  0  0  0  0  0  0  0  0  0
   60.4783   28.8286   50.8725 H   0  0  0  0  0  0  0  0  0  0  0  0
   61.0231   30.6143   49.2648 H   0  0  0  0  0  0  0  0  0  0  0  0
   59.6202   30.1746   48.1876 H   0  0  0  0  0  0  0  0  0  0  0  0
   60.3180   32.9328   50.6230 H   0  0  0  0  0  0  0  0  0  0  0  0
   60.0671   35.3469   50.0755 H   0  0  0  0  0  0  0  0  0  0  0  0
   59.3832   36.0450   47.7834 H   0  0  0  0  0  0  0  0  0  0  0  0
   58.9462   34.3325   46.0335 H   0  0  0  0  0  0  0  0  0  0  0  0
   59.2390   28.6760   45.3060 H   0  0  0  0  0  0  0  0  0  0  0  0
   57.0621   27.8262   43.4394 H   0  0  0  0  0  0  0  0  0  0  0  0
   58.7817   27.2894   43.4351 H   0  0  0  0  0  0  0  0  0  0  0  0
   57.5108   24.9901   43.0395 H   0  0  0  0  0  0  0  0  0  0  0  0
   56.9649   22.9049   44.3005 H   0  0  0  0  0  0  0  0  0  0  0  0
   56.6638   22.9857   46.7785 H   0  0  0  0  0  0  0  0  0  0  0  0
   56.9165   25.1493   47.9985 H   0  0  0  0  0  0  0  0  0  0  0  0
   57.4762   27.2358   46.7483 H   0  0  0  0  0  0  0  0  0  0  0  0
  1  2  2  0
  2  3  1  0
  3  4  1  0
  4  5  1  0
  5  6  1  0
  6  7  2  0
  6  8  1  0
  8  9  1  0
  9 10  1  0
  2 11  1  0
 11 12  1  0
 12 13  2  0
 13 14  1  0
 13 15  1  0
 15 16  2  0
 16 17  1  0
 17 18  1  0
 18 19  1  0
 19 20  2  0
 20 21  1  0
 21 22  2  0
 22 23  1  0
 23 24  2  0
 24 25  1  0
 25 26  2  0
 25 27  2  0
 25 28  1  0
 28 29  1  0
 29 30  2  0
 29 31  1  0
 31 32  1  0
 32 33  1  0
 33 34  2  0
 34 35  1  0
 35 36  2  0
 36 37  1  0
 37 38  2  0
 17 39  2  0
 39 40  1  0
  9  4  2  0
 39 12  1  0
 24 19  1  0
 38 33  1  0
  3 41  1  0
  3 42  1  0
 14 43  1  0
 15 44  1  0
 16 45  1  0
 18 46  1  0
 18 47  1  0
 20 48  1  0
 21 49  1  0
 22 50  1  0
 23 51  1  0
 31 52  1  0
 32 53  1  0
 32 54  1  0
 34 55  1  0
 35 56  1  0
 36 57  1  0
 37 58  1  0
 38 59  1  0
M  CHG  6   5  -1   8  -1  10  -1  11  -1  28  -1  40  -1
M  END
>  <UniqueID>  (82) 
78

>  <SMILES>  (82) 
O=C(Cc1[n-]c(=O)[n-]c1[O-])[N-]c1c(O)ccc(Cc2ccccc2S(=O)(=O)[N-]C(=O)NCc2ccccc2)c1[O-]

>  <Energy>  (82) 
99.168236059991

>  <Genealogy>  (82) 
O=C(Cc1[n-]c(=O)[n-]c1[O-])[N-]c1c(O)ccc(Cc2ccccc2S(=O)(=O)[N-]C(=O)NCc2ccccc2)c1[O-] (protonated)
O=C(Cc1[n-]c(=O)[n-]c1[O-])[N-]c1c(O)ccc(Cc2ccccc2S(=O)(=O)[N-]C(=O)NCc2ccccc2)c1[O-] (3D coordinates assigned)
O=C(Cc1[n-]c(=O)[n-]c1[O-])[N-]c1c(O)ccc(Cc2ccccc2S(=O)(=O)[N-]C(=O)NCc2ccccc2)c1[O-] (optimized conformer: 99.168236059991 kcal/mol)

>  <smiles>  (82) 
O=C(Cc1[nH]c(=O)[nH]c1O)Nc1c(O)ccc(Cc2ccccc2S(=O)(=O)NC(=O)NCc2ccccc2)c1O

>  <score_type>  (82) 
oracle

>  <origin>  (82) 
adg

>  <m_score__min__energy>  (82) 
-21.010000000000002

>  <m_primary>  (82) 
energy

$$$$
82:0
     RDKit          3D

 28 30  0  0  0  0  0  0  0  0999 V2000
   58.1480   32.6280   42.9760 C   0  0  0  0  0  0  0  0  0  0  0  0
   57.8630   33.4210   44.0840 O   0  0  0  0  0  0  0  0  0  0  0  0
   58.6970   33.7090   45.1300 C   0  0  0  0  0  0  0  0  0  0  0  0
   59.1250   35.0140   45.3240 C   0  0  0  0  0  0  0  0  0  0  0  0
   59.9710   35.3480   46.3730 C   0  0  0  0  0  0  0  0  0  0  0  0
   60.3980   34.3540   47.2510 C   0  0  0  0  0  0  0  0  0  0  0  0
   59.9580   33.0470   47.0420 C   0  0  0  0  0  0  0  0  0  0  0  0
   59.1190   32.7220   45.9970 C   0  0  0  0  0  0  0  0  0  0  0  0
   58.6990   31.3340   45.8410 C   0  0  0  0  0  0  0  0  0  0  0  0
   59.5250   30.2890   46.0760 N   0  0  0  0  0  0  0  0  0  0  0  0
   58.8290   29.1610   45.8380 C   0  0  0  0  0  0  0  0  0  0  0  0
   59.2040   27.8560   45.9290 N   0  0  0  0  0  0  0  0  0  0  0  0
   58.2440   26.9590   45.6150 C   0  0  0  0  0  0  0  0  0  0  0  0
   58.6710   25.3780   45.7170 S   0  0  0  0  0  0  0  0  0  0  0  0
   57.0070   27.2940   45.2400 N   0  0  0  0  0  0  0  0  0  0  0  0
   56.6510   28.6020   45.1560 C   0  0  0  0  0  0  0  0  0  0  0  0
   55.5160   28.9640   44.8130 O   0  0  0  0  0  0  0  0  0  0  0  0
   57.5980   29.5300   45.4660 N   0  0  0  0  0  0  0  0  0  0  0  0
   57.4990   30.8650   45.4610 N   0  0  0  0  0  0  0  0  0  0  0  0
   58.5023   31.6423   43.3120 H   0  0  0  0  0  0  0  0  0  0  0  0
   57.2383   32.5038   42.3702 H   0  0  0  0  0  0  0  0  0  0  0  0
   58.9287   33.1113   42.3702 H   0  0  0  0  0  0  0  0  0  0  0  0
   58.7873   35.8002   44.6328 H   0  0  0  0  0  0  0  0  0  0  0  0
   60.3013   36.3883   46.5097 H   0  0  0  0  0  0  0  0  0  0  0  0
   61.0672   34.5946   48.0902 H   0  0  0  0  0  0  0  0  0  0  0  0
   60.2891   32.2544   47.7291 H   0  0  0  0  0  0  0  0  0  0  0  0
   60.1620   27.6070   46.2200 H   0  0  0  0  0  0  0  0  0  0  0  0
   56.2730   26.5960   45.0000 H   0  0  0  0  0  0  0  0  0  0  0  0
  1  2  1  0
  2  3  1  0
  3  4  2  0
  4  5  1  0
  5  6  2  0
  6  7  1  0
  7  8  2  0
  8  9  1  0
  9 10  1  0
 10 11  2  0
 11 12  1  0
 12 13  1  0
 13 14  2  0
 13 15  1  0
 15 16  1  0
 16 17  2  0
 16 18  1  0
 18 19  1  0
  8  3  1  0
 19  9  2  0
 18 11  1  0
  1 20  1  0
  1 21  1  0
  1 22  1  0
  4 23  1  0
  5 24  1  0
  6 25  1  0
  7 26  1  0
 12 27  1  0
 15 28  1  0
M  END
>  <smiles>  (83) 
COc1ccccc1-c1nc2[nH]c(=S)[nH]c(=O)n2n1

>  <score_type>  (83) 
oracle

>  <origin>  (83) 
adg

>  <m_score__min__energy>  (83) 
-6.4500000000000002

>  <m_primary>  (83) 
energy

$$$$
83:0
     RDKit          3D

 30 32  0  0  0  0  0  0  0  0999 V2000
   56.2740   29.7320   42.5630 C   0  0  0  0  0  0  0  0  0  0  0  0
   55.5170   29.8990   43.8720 C   0  0  0  0  0  0  0  0  0  0  0  0
   56.4420   30.0920   44.9370 O   0  0  0  0  0  0  0  0  0  0  0  0
   57.6100   30.8440   44.7920 C   0  0  0  0  0  0  0  0  0  0  0  0
   58.6360   30.3430   44.2580 O   0  0  0  0  0  0  0  0  0  0  0  0
   57.6350   32.2310   45.2680 C   0  0  0  0  0  0  0  0  0  0  0  0
   56.6610   33.1550   45.0350 N   0  0  0  0  0  0  0  0  0  0  0  0
   57.0490   34.2890   45.6290 N   0  0  0  0  0  0  0  0  0  0  0  0
   58.2310   34.0240   46.1990 C   0  0  0  0  0  0  0  0  0  0  0  0
   59.3370   34.8930   47.1040 S   0  0  0  0  0  0  0  0  0  0  0  0
   60.3260   33.4700   47.1810 C   0  0  0  0  0  0  0  0  0  0  0  0
   61.6300   33.3790   47.8770 C   0  0  0  0  0  0  0  0  0  0  0  0
   61.7140   33.5020   49.2760 C   0  0  0  0  0  0  0  0  0  0  0  0
   62.9510   33.4150   49.9220 C   0  0  0  0  0  0  0  0  0  0  0  0
   64.1170   33.2040   49.1810 C   0  0  0  0  0  0  0  0  0  0  0  0
   65.6670   33.0940   49.9950 Cl  0  0  0  0  0  0  0  0  0  0  0  0
   64.0450   33.0790   47.7910 C   0  0  0  0  0  0  0  0  0  0  0  0
   62.8110   33.1670   47.1410 C   0  0  0  0  0  0  0  0  0  0  0  0
   59.7650   32.4160   46.5160 N   0  0  0  0  0  0  0  0  0  0  0  0
   58.6070   32.7920   45.9970 N   0  0  0  0  0  0  0  0  0  0  0  0
   57.3278   29.4995   42.7760 H   0  0  0  0  0  0  0  0  0  0  0  0
   55.8273   28.9108   41.9833 H   0  0  0  0  0  0  0  0  0  0  0  0
   56.2142   30.6649   41.9833 H   0  0  0  0  0  0  0  0  0  0  0  0
   54.8522   30.7725   43.8016 H   0  0  0  0  0  0  0  0  0  0  0  0
   54.9192   28.9962   44.0662 H   0  0  0  0  0  0  0  0  0  0  0  0
   56.5180   35.1870   45.6330 H   0  0  0  0  0  0  0  0  0  0  0  0
   60.8003   33.6677   49.8656 H   0  0  0  0  0  0  0  0  0  0  0  0
   63.0066   33.5129   51.0162 H   0  0  0  0  0  0  0  0  0  0  0  0
   64.9619   32.9109   47.2070 H   0  0  0  0  0  0  0  0  0  0  0  0
   62.7622   33.0699   46.0464 H   0  0  0  0  0  0  0  0  0  0  0  0
  1  2  1  0
  2  3  1  0
  3  4  1  0
  4  5  2  0
  4  6  1  0
  6  7  2  0
  7  8  1  0
  8  9  2  0
  9 10  1  0
 10 11  1  0
 11 12  1  0
 12 13  2  0
 13 14  1  0
 14 15  2  0
 15 16  1  0
 15 17  1  0
 17 18  2  0
 11 19  2  0
 19 20  1  0
 20  6  1  0
 20  9  1  0
 18 12  1  0
  1 21  1  0
  1 22  1  0
  1 23  1  0
  2 24  1  0
  2 25  1  0
  8 26  1  0
 13 27  1  0
 14 28  1  0
 17 29  1  0
 18 30  1  0
M  CHG  1   8   1
M  END
>  <UniqueID>  (84) 
79

>  <SMILES>  (84) 
CCOC(=O)c1n[nH+]c2sc(-c3ccc(Cl)cc3)nn12

>  <Energy>  (84) 
121.64497909822897

>  <Genealogy>  (84) 
CCOC(=O)c1n[nH+]c2sc(-c3ccc(Cl)cc3)nn12 (protonated)
CCOC(=O)c1n[nH+]c2sc(-c3ccc(Cl)cc3)nn12 (3D coordinates assigned)
CCOC(=O)c1n[nH+]c2sc(-c3ccc(Cl)cc3)nn12 (optimized conformer: 121.64497909822897 kcal/mol)

>  <smiles>  (84) 
CCOC(=O)c1nnc2sc(-c3ccc(Cl)cc3)nn12

>  <score_type>  (84) 
oracle

>  <origin>  (84) 
adg

>  <m_score__min__energy>  (84) 
-6.25

>  <m_primary>  (84) 
energy

$$$$
84:0
     RDKit          3D

 41 43  0  0  0  0  0  0  0  0999 V2000
   55.3700   26.6410   46.2010 O   0  0  0  0  0  0  0  0  0  0  0  0
   56.1200   27.4650   45.6170 C   0  0  0  0  0  0  0  0  0  0  0  0
   57.4870   27.1120   45.3870 N   0  0  0  0  0  0  0  0  0  0  0  0
   58.6280   27.9630   45.5720 C   0  0  0  0  0  0  0  0  0  0  0  0
   59.6050   28.1260   44.5730 C   0  0  0  0  0  0  0  0  0  0  0  0
   60.6880   28.9840   44.7830 C   0  0  0  0  0  0  0  0  0  0  0  0
   60.7960   29.6980   45.9790 C   0  0  0  0  0  0  0  0  0  0  0  0
   59.8120   29.5670   46.9670 C   0  0  0  0  0  0  0  0  0  0  0  0
   59.9250   30.4890   48.4640 S   0  0  0  0  0  0  0  0  0  0  0  0
   58.5470   30.6420   49.0440 O   0  0  0  0  0  0  0  0  0  0  0  0
   60.7970   29.7770   49.4610 O   0  0  0  0  0  0  0  0  0  0  0  0
   60.5890   32.0610   48.1470 N   0  0  0  0  0  0  0  0  0  0  0  0
   59.9470   32.9990   47.5140 C   0  0  0  0  0  0  0  0  0  0  0  0
   60.6150   34.1750   46.9100 C   0  0  0  0  0  0  0  0  0  0  0  0
   59.4570   34.9720   46.2940 C   0  0  0  0  0  0  0  0  0  0  0  0
   58.1490   34.2600   46.6860 C   0  0  0  0  0  0  0  0  0  0  0  0
   58.5400   33.0390   47.3610 N   0  0  0  0  0  0  0  0  0  0  0  0
   58.7300   28.7020   46.7580 C   0  0  0  0  0  0  0  0  0  0  0  0
   55.5870   28.6910   45.0950 N   0  0  0  0  0  0  0  0  0  0  0  0
   56.3190   29.7370   44.4410 C   0  0  0  0  0  0  0  0  0  0  0  0
   56.3040   29.9020   43.0450 C   0  0  0  0  0  0  0  0  0  0  0  0
   57.0180   30.9560   42.4710 C   0  0  0  0  0  0  0  0  0  0  0  0
   57.7240   31.8420   43.2840 C   0  0  0  0  0  0  0  0  0  0  0  0
   57.6990   31.6650   44.6680 C   0  0  0  0  0  0  0  0  0  0  0  0
   57.0010   30.6310   45.2100 N   0  0  0  0  0  0  0  0  0  0  0  0
   59.5163   27.5767   43.6241 H   0  0  0  0  0  0  0  0  0  0  0  0
   61.4572   29.0974   44.0048 H   0  0  0  0  0  0  0  0  0  0  0  0
   61.6554   30.3642   46.1450 H   0  0  0  0  0  0  0  0  0  0  0  0
   61.5510   32.2570   48.5090 H   0  0  0  0  0  0  0  0  0  0  0  0
   61.1354   34.7677   47.6767 H   0  0  0  0  0  0  0  0  0  0  0  0
   61.3828   33.8981   46.1725 H   0  0  0  0  0  0  0  0  0  0  0  0
   59.4576   35.9999   46.6857 H   0  0  0  0  0  0  0  0  0  0  0  0
   59.5590   35.0230   45.1999 H   0  0  0  0  0  0  0  0  0  0  0  0
   57.5562   34.8955   47.3604 H   0  0  0  0  0  0  0  0  0  0  0  0
   57.5276   34.0487   45.8033 H   0  0  0  0  0  0  0  0  0  0  0  0
   57.8570   32.3380   47.7220 H   0  0  0  0  0  0  0  0  0  0  0  0
   57.9541   28.6022   47.5314 H   0  0  0  0  0  0  0  0  0  0  0  0
   55.7348   29.2069   42.4103 H   0  0  0  0  0  0  0  0  0  0  0  0
   57.0235   31.0871   41.3789 H   0  0  0  0  0  0  0  0  0  0  0  0
   58.2942   32.6710   42.8395 H   0  0  0  0  0  0  0  0  0  0  0  0
   58.2442   32.3622   45.3211 H   0  0  0  0  0  0  0  0  0  0  0  0
  1  2  2  0
  2  3  1  0
  3  4  1  0
  4  5  2  0
  5  6  1  0
  6  7  2  0
  7  8  1  0
  8  9  1  0
  9 10  2  0
  9 11  2  0
  9 12  1  0
 12 13  2  3
 13 14  1  0
 14 15  1  0
 15 16  1  0
 16 17  1  0
  8 18  2  0
  2 19  1  0
 19 20  1  0
 20 21  2  0
 21 22  1  0
 22 23  2  0
 23 24  1  0
 24 25  2  0
 18  4  1  0
 25 20  1  0
 17 13  1  0
  5 26  1  0
  6 27  1  0
  7 28  1  0
 12 29  1  0
 14 30  1  0
 14 31  1  0
 15 32  1  0
 15 33  1  0
 16 34  1  0
 16 35  1  0
 17 36  1  0
 18 37  1  0
 21 38  1  0
 22 39  1  0
 23 40  1  0
 24 41  1  0
M  CHG  3   3  -1  12   1  19  -1
M  END
>  <UniqueID>  (85) 
80

>  <SMILES>  (85) 
O=C([N-]c1cccc(S(=O)(=O)[NH+]=C2CCCN2)c1)[N-]c1ccccn1

>  <Energy>  (85) 
57.45069335216126

>  <Genealogy>  (85) 
O=C([N-]c1cccc(S(=O)(=O)[NH+]=C2CCCN2)c1)[N-]c1ccccn1 (protonated)
O=C([N-]c1cccc(S(=O)(=O)[NH+]=C2CCCN2)c1)[N-]c1ccccn1 (3D coordinates assigned)
O=C([N-]c1cccc(S(=O)(=O)[NH+]=C2CCCN2)c1)[N-]c1ccccn1 (nonaromatic ring conformer: 57.45069335216126 kcal/mol)

>  <smiles>  (85) 
O=C(Nc1cccc(S(=O)(=O)N=C2CCCN2)c1)Nc1ccccn1

>  <score_type>  (85) 
oracle

>  <origin>  (85) 
adg

>  <m_score__min__energy>  (85) 
-10.92

>  <m_primary>  (85) 
energy

$$$$
85:0
     RDKit          3D

 41 43  0  0  0  0  0  0  0  0999 V2000
   60.1790   27.0290   47.0130 C   0  0  0  0  0  0  0  0  0  0  0  0
   59.0510   27.7920   46.4490 N   0  0  0  0  0  0  0  0  0  0  0  0
   59.2050   29.0970   46.0330 C   0  0  0  0  0  0  0  0  0  0  0  0
   60.4620   29.8510   46.2120 C   0  0  0  0  0  0  0  0  0  0  0  0
   61.5220   29.4050   45.6950 O   0  0  0  0  0  0  0  0  0  0  0  0
   60.4630   31.1320   46.8630 N   0  0  0  0  0  0  0  0  0  0  0  0
   61.6400   31.7550   47.4060 C   0  0  0  0  0  0  0  0  0  0  0  0
   62.2620   31.1910   48.5310 C   0  0  0  0  0  0  0  0  0  0  0  0
   63.4200   31.7660   49.0630 C   0  0  0  0  0  0  0  0  0  0  0  0
   63.9740   32.9020   48.4690 C   0  0  0  0  0  0  0  0  0  0  0  0
   63.3750   33.4600   47.3360 C   0  0  0  0  0  0  0  0  0  0  0  0
   62.2160   32.8880   46.8010 C   0  0  0  0  0  0  0  0  0  0  0  0
   58.1730   29.7400   45.4270 N   0  0  0  0  0  0  0  0  0  0  0  0
   56.9560   29.1640   45.2510 C   0  0  0  0  0  0  0  0  0  0  0  0
   55.8970   29.9500   44.5780 C   0  0  0  0  0  0  0  0  0  0  0  0
   54.9840   29.3410   43.9580 O   0  0  0  0  0  0  0  0  0  0  0  0
   55.8670   31.3810   44.6760 N   0  0  0  0  0  0  0  0  0  0  0  0
   57.0010   32.2580   44.7550 C   0  0  0  0  0  0  0  0  0  0  0  0
   57.7680   32.5910   43.6240 C   0  0  0  0  0  0  0  0  0  0  0  0
   58.8790   33.4320   43.7510 C   0  0  0  0  0  0  0  0  0  0  0  0
   59.2410   33.9310   45.0050 C   0  0  0  0  0  0  0  0  0  0  0  0
   58.4980   33.5830   46.1370 C   0  0  0  0  0  0  0  0  0  0  0  0
   58.9620   34.1970   47.7140 Cl  0  0  0  0  0  0  0  0  0  0  0  0
   57.3870   32.7430   46.0130 C   0  0  0  0  0  0  0  0  0  0  0  0
   56.7530   27.8640   45.7320 C   0  0  0  0  0  0  0  0  0  0  0  0
   55.5180   27.2300   45.6200 O   0  0  0  0  0  0  0  0  0  0  0  0
   57.8200   27.1920   46.3360 C   0  0  0  0  0  0  0  0  0  0  0  0
   57.6340   26.0230   46.7730 O   0  0  0  0  0  0  0  0  0  0  0  0
   60.1309   27.0615   48.1115 H   0  0  0  0  0  0  0  0  0  0  0  0
   60.1207   25.9841   46.6742 H   0  0  0  0  0  0  0  0  0  0  0  0
   61.1272   27.4720   46.6742 H   0  0  0  0  0  0  0  0  0  0  0  0
   59.5690   31.6750   46.8650 H   0  0  0  0  0  0  0  0  0  0  0  0
   61.8354   30.2906   48.9971 H   0  0  0  0  0  0  0  0  0  0  0  0
   63.8953   31.3230   49.9506 H   0  0  0  0  0  0  0  0  0  0  0  0
   64.8813   33.3575   48.8925 H   0  0  0  0  0  0  0  0  0  0  0  0
   63.8158   34.3506   46.8642 H   0  0  0  0  0  0  0  0  0  0  0  0
   61.7529   33.3252   45.9041 H   0  0  0  0  0  0  0  0  0  0  0  0
   57.4938   32.1893   42.6374 H   0  0  0  0  0  0  0  0  0  0  0  0
   59.4685   33.7008   42.8621 H   0  0  0  0  0  0  0  0  0  0  0  0
   60.1106   34.5977   45.1015 H   0  0  0  0  0  0  0  0  0  0  0  0
   56.8123   32.4609   46.9075 H   0  0  0  0  0  0  0  0  0  0  0  0
  1  2  1  0
  2  3  1  0
  3  4  1  0
  4  5  2  0
  4  6  1  0
  6  7  1  0
  7  8  2  0
  8  9  1  0
  9 10  2  0
 10 11  1  0
 11 12  2  0
  3 13  2  0
 13 14  1  0
 14 15  1  0
 15 16  2  0
 15 17  1  0
 17 18  1  0
 18 19  2  0
 19 20  1  0
 20 21  2  0
 21 22  1  0
 22 23  1  0
 22 24  2  0
 14 25  2  0
 25 26  1  0
 25 27  1  0
 27 28  2  0
 27  2  1  0
 12  7  1  0
 24 18  1  0
  1 29  1  0
  1 30  1  0
  1 31  1  0
  6 32  1  0
  8 33  1  0
  9 34  1  0
 10 35  1  0
 11 36  1  0
 12 37  1  0
 19 38  1  0
 20 39  1  0
 21 40  1  0
 24 41  1  0
M  CHG  2  17  -1  26  -1
M  END
>  <UniqueID>  (86) 
81

>  <SMILES>  (86) 
Cn1c(C(=O)Nc2ccccc2)nc(C(=O)[N-]c2cccc(Cl)c2)c([O-])c1=O

>  <Energy>  (86) 
61.705890432597656

>  <Genealogy>  (86) 
Cn1c(C(=O)Nc2ccccc2)nc(C(=O)[N-]c2cccc(Cl)c2)c([O-])c1=O (protonated)
Cn1c(C(=O)Nc2ccccc2)nc(C(=O)[N-]c2cccc(Cl)c2)c([O-])c1=O (3D coordinates assigned)
Cn1c(C(=O)Nc2ccccc2)nc(C(=O)[N-]c2cccc(Cl)c2)c([O-])c1=O (optimized conformer: 61.705890432597656 kcal/mol)

>  <smiles>  (86) 
Cn1c(C(=O)Nc2ccccc2)nc(C(=O)Nc2cccc(Cl)c2)c(O)c1=O

>  <score_type>  (86) 
oracle

>  <origin>  (86) 
adg

>  <m_score__min__energy>  (86) 
-12.98

>  <m_primary>  (86) 
energy

$$$$
86:0
     RDKit          3D

 59 62  0  0  0  0  0  0  0  0999 V2000
   59.5780   35.3880   44.9680 C   0  0  0  0  0  0  0  0  0  0  0  0
   58.7930   34.1020   44.9480 C   0  0  0  0  0  0  0  0  0  0  0  0
   58.5330   33.4730   43.7190 C   0  0  0  0  0  0  0  0  0  0  0  0
   57.8050   32.2830   43.6700 C   0  0  0  0  0  0  0  0  0  0  0  0
   57.3350   31.6920   44.8520 C   0  0  0  0  0  0  0  0  0  0  0  0
   56.5620   30.4840   44.8290 N   0  0  0  0  0  0  0  0  0  0  0  0
   56.5780   29.4850   43.8010 C   0  0  0  0  0  0  0  0  0  0  0  0
   55.7490   29.5730   42.8570 O   0  0  0  0  0  0  0  0  0  0  0  0
   57.5150   28.3080   43.8510 C   0  0  0  0  0  0  0  0  0  0  0  0
   58.3870   28.3770   45.0750 C   0  0  0  0  0  0  0  0  0  0  0  0
   59.5980   29.0840   45.0390 C   0  0  0  0  0  0  0  0  0  0  0  0
   60.3970   29.1730   46.1820 C   0  0  0  0  0  0  0  0  0  0  0  0
   60.0030   28.5520   47.3730 C   0  0  0  0  0  0  0  0  0  0  0  0
   60.8410   28.6760   48.5300 N   0  0  0  0  0  0  0  0  0  0  0  0
   60.5810   29.4770   49.6900 C   0  0  0  0  0  0  0  0  0  0  0  0
   60.5900   28.9180   50.8200 O   0  0  0  0  0  0  0  0  0  0  0  0
   60.2520   30.8800   49.5950 N   0  0  0  0  0  0  0  0  0  0  0  0
   58.9850   31.4080   50.1230 C   0  0  0  0  0  0  0  0  0  0  0  0
   59.1570   32.0390   51.5110 C   0  0  0  0  0  0  0  0  0  0  0  0
   59.9090   33.3710   51.4270 C   0  0  0  0  0  0  0  0  0  0  0  0
   60.0730   33.8860   49.9830 C   0  0  0  0  0  0  0  0  0  0  0  0
   61.0870   33.1790   49.0940 C   0  0  0  0  0  0  0  0  0  0  0  0
   62.0420   33.9870   48.4470 C   0  0  0  0  0  0  0  0  0  0  0  0
   63.0570   33.4210   47.6740 C   0  0  0  0  0  0  0  0  0  0  0  0
   63.1490   32.0380   47.5480 C   0  0  0  0  0  0  0  0  0  0  0  0
   62.2240   31.2160   48.1910 C   0  0  0  0  0  0  0  0  0  0  0  0
   61.1860   31.7680   48.9580 C   0  0  0  0  0  0  0  0  0  0  0  0
   58.7730   27.8740   47.4200 C   0  0  0  0  0  0  0  0  0  0  0  0
   57.9730   27.7840   46.2780 C   0  0  0  0  0  0  0  0  0  0  0  0
   57.5570   32.3310   46.0750 C   0  0  0  0  0  0  0  0  0  0  0  0
   58.2820   33.5330   46.1400 C   0  0  0  0  0  0  0  0  0  0  0  0
   58.5210   34.1800   47.4790 C   0  0  0  0  0  0  0  0  0  0  0  0
   59.7619   35.6892   46.0099 H   0  0  0  0  0  0  0  0  0  0  0  0
   60.5392   35.2389   44.4544 H   0  0  0  0  0  0  0  0  0  0  0  0
   59.0060   36.1748   44.4544 H   0  0  0  0  0  0  0  0  0  0  0  0
   58.9065   33.9223   42.7870 H   0  0  0  0  0  0  0  0  0  0  0  0
   57.5990   31.8066   42.7001 H   0  0  0  0  0  0  0  0  0  0  0  0
   56.9270   27.3787   43.8779 H   0  0  0  0  0  0  0  0  0  0  0  0
   58.1561   28.3269   42.9573 H   0  0  0  0  0  0  0  0  0  0  0  0
   59.9202   29.5707   44.1066 H   0  0  0  0  0  0  0  0  0  0  0  0
   61.3420   29.7349   46.1455 H   0  0  0  0  0  0  0  0  0  0  0  0
   58.6033   32.1727   49.4305 H   0  0  0  0  0  0  0  0  0  0  0  0
   58.2809   30.5682   50.2174 H   0  0  0  0  0  0  0  0  0  0  0  0
   58.1640   32.2151   51.9502 H   0  0  0  0  0  0  0  0  0  0  0  0
   59.7420   31.3486   52.1364 H   0  0  0  0  0  0  0  0  0  0  0  0
   59.3530   34.1235   52.0055 H   0  0  0  0  0  0  0  0  0  0  0  0
   60.9183   33.2025   51.8305 H   0  0  0  0  0  0  0  0  0  0  0  0
   59.0921   33.8061   49.4916 H   0  0  0  0  0  0  0  0  0  0  0  0
   60.4630   34.9086   50.0934 H   0  0  0  0  0  0  0  0  0  0  0  0
   61.9871   35.0806   48.5524 H   0  0  0  0  0  0  0  0  0  0  0  0
   63.7851   34.0688   47.1638 H   0  0  0  0  0  0  0  0  0  0  0  0
   63.9514   31.5933   46.9411 H   0  0  0  0  0  0  0  0  0  0  0  0
   62.3087   30.1234   48.0961 H   0  0  0  0  0  0  0  0  0  0  0  0
   58.4384   27.4119   48.3605 H   0  0  0  0  0  0  0  0  0  0  0  0
   57.0145   27.2461   46.3219 H   0  0  0  0  0  0  0  0  0  0  0  0
   57.1588   31.8870   46.9993 H   0  0  0  0  0  0  0  0  0  0  0  0
   58.2597   33.4727   48.2799 H   0  0  0  0  0  0  0  0  0  0  0  0
   59.5814   34.4587   47.5675 H   0  0  0  0  0  0  0  0  0  0  0  0
   57.8964   35.0811   47.5675 H   0  0  0  0  0  0  0  0  0  0  0  0
  1  2  1  0
  2  3  2  0
  3  4  1  0
  4  5  2  0
  5  6  1  0
  6  7  1  0
  7  8  2  0
  7  9  1  0
  9 10  1  0
 10 11  2  0
 11 12  1  0
 12 13  2  0
 13 14  1  0
 14 15  1  0
 15 16  2  0
 15 17  1  0
 17 18  1  0
 18 19  1  0
 19 20  1  0
 20 21  1  0
 21 22  1  0
 22 23  2  0
 23 24  1  0
 24 25  2  0
 25 26  1  0
 26 27  2  0
 13 28  1  0
 28 29  2  0
  5 30  1  0
 30 31  2  0
 31 32  1  0
 31  2  1  0
 29 10  1  0
 27 17  1  0
 27 22  1  0
  1 33  1  0
  1 34  1  0
  1 35  1  0
  3 36  1  0
  4 37  1  0
  9 38  1  0
  9 39  1  0
 11 40  1  0
 12 41  1  0
 18 42  1  0
 18 43  1  0
 19 44  1  0
 19 45  1  0
 20 46  1  0
 20 47  1  0
 21 48  1  0
 21 49  1  0
 23 50  1  0
 24 51  1  0
 25 52  1  0
 26 53  1  0
 28 54  1  0
 29 55  1  0
 30 56  1  0
 32 57  1  0
 32 58  1  0
 32 59  1  0
M  CHG  2   6  -1  14  -1
M  END
>  <UniqueID>  (87) 
82

>  <SMILES>  (87) 
Cc1ccc([N-]C(=O)Cc2ccc([N-]C(=O)N3CCCCc4ccccc43)cc2)cc1C

>  <Energy>  (87) 
85.57689152711494

>  <Genealogy>  (87) 
Cc1ccc([N-]C(=O)Cc2ccc([N-]C(=O)N3CCCCc4ccccc43)cc2)cc1C (protonated)
Cc1ccc([N-]C(=O)Cc2ccc([N-]C(=O)N3CCCCc4ccccc43)cc2)cc1C (3D coordinates assigned)
Cc1ccc([N-]C(=O)Cc2ccc([N-]C(=O)N3CCCCc4ccccc43)cc2)cc1C (nonaromatic ring conformer: 85.57689152711494 kcal/mol)

>  <smiles>  (87) 
Cc1ccc(NC(=O)Cc2ccc(NC(=O)N3CCCCc4ccccc43)cc2)cc1C

>  <score_type>  (87) 
oracle

>  <origin>  (87) 
adg

>  <m_score__min__energy>  (87) 
-10.42

>  <m_primary>  (87) 
energy

$$$$
87:0
     RDKit          3D

 52 54  0  0  0  0  0  0  0  0999 V2000
   59.1170   22.2760   44.9780 C   0  0  0  0  0  0  0  0  0  0  0  0
   58.8880   23.2320   46.0090 O   0  0  0  0  0  0  0  0  0  0  0  0
   58.2900   24.4850   45.8090 C   0  0  0  0  0  0  0  0  0  0  0  0
   59.0420   25.6460   45.5610 C   0  0  0  0  0  0  0  0  0  0  0  0
   58.4010   26.8730   45.3750 C   0  0  0  0  0  0  0  0  0  0  0  0
   57.0020   26.9660   45.4370 C   0  0  0  0  0  0  0  0  0  0  0  0
   56.3310   28.3070   45.2470 C   0  0  0  0  0  0  0  0  0  0  0  0
   57.0280   29.3500   46.0010 N   0  0  0  0  0  0  0  0  0  0  0  0
   57.5300   30.6690   44.9780 S   0  0  0  0  0  0  0  0  0  0  0  0
   56.3060   31.4230   44.5410 O   0  0  0  0  0  0  0  0  0  0  0  0
   58.2730   30.1860   43.7640 O   0  0  0  0  0  0  0  0  0  0  0  0
   58.5870   31.7300   45.9040 C   0  0  0  0  0  0  0  0  0  0  0  0
   58.2660   33.0810   46.0810 C   0  0  0  0  0  0  0  0  0  0  0  0
   59.1150   33.9130   46.8160 C   0  0  0  0  0  0  0  0  0  0  0  0
   60.3040   33.4080   47.3650 C   0  0  0  0  0  0  0  0  0  0  0  0
   60.6250   32.0450   47.1990 C   0  0  0  0  0  0  0  0  0  0  0  0
   59.7650   31.2200   46.4600 C   0  0  0  0  0  0  0  0  0  0  0  0
   61.8750   31.4400   47.7990 C   0  0  0  0  0  0  0  0  0  0  0  0
   62.7150   32.4220   48.5050 N   0  0  0  0  0  0  0  0  0  0  0  0
   63.7220   31.9800   49.4480 C   0  0  0  0  0  0  0  0  0  0  0  0
   63.5610   30.8930   50.0670 O   0  0  0  0  0  0  0  0  0  0  0  0
   65.0040   32.7490   49.6440 C   0  0  0  0  0  0  0  0  0  0  0  0
   66.2660   31.7570   50.5120 S   0  0  0  0  0  0  0  0  0  0  0  0
   62.6370   33.8370   48.1190 C   0  0  0  0  0  0  0  0  0  0  0  0
   61.1880   34.3080   48.1840 C   0  0  0  0  0  0  0  0  0  0  0  0
   56.2370   25.8030   45.6660 C   0  0  0  0  0  0  0  0  0  0  0  0
   54.8360   25.9070   45.7060 O   0  0  0  0  0  0  0  0  0  0  0  0
   53.9390   24.8150   45.5270 C   0  0  0  0  0  0  0  0  0  0  0  0
   56.8950   24.5700   45.8580 C   0  0  0  0  0  0  0  0  0  0  0  0
   59.3508   21.3000   45.4283 H   0  0  0  0  0  0  0  0  0  0  0  0
   58.2151   22.1857   44.3548 H   0  0  0  0  0  0  0  0  0  0  0  0
   59.9620   22.6041   44.3548 H   0  0  0  0  0  0  0  0  0  0  0  0
   60.1394   25.5883   45.5132 H   0  0  0  0  0  0  0  0  0  0  0  0
   58.9986   27.7753   45.1780 H   0  0  0  0  0  0  0  0  0  0  0  0
   56.3414   28.5670   44.1782 H   0  0  0  0  0  0  0  0  0  0  0  0
   55.2967   28.2383   45.6150 H   0  0  0  0  0  0  0  0  0  0  0  0
   57.3439   33.4885   45.6408 H   0  0  0  0  0  0  0  0  0  0  0  0
   58.8498   34.9701   46.9652 H   0  0  0  0  0  0  0  0  0  0  0  0
   60.0196   30.1596   46.3158 H   0  0  0  0  0  0  0  0  0  0  0  0
   61.5767   30.6581   48.5129 H   0  0  0  0  0  0  0  0  0  0  0  0
   62.4730   31.0361   46.9687 H   0  0  0  0  0  0  0  0  0  0  0  0
   65.3972   33.0419   48.6593 H   0  0  0  0  0  0  0  0  0  0  0  0
   64.7811   33.6323   50.2605 H   0  0  0  0  0  0  0  0  0  0  0  0
   65.3850   30.6830   50.7460 H   0  0  0  0  0  0  0  0  0  0  0  0
   63.2483   34.4383   48.8081 H   0  0  0  0  0  0  0  0  0  0  0  0
   63.0132   33.9559   47.0922 H   0  0  0  0  0  0  0  0  0  0  0  0
   60.8493   34.2933   49.2304 H   0  0  0  0  0  0  0  0  0  0  0  0
   61.1276   35.3293   47.7800 H   0  0  0  0  0  0  0  0  0  0  0  0
   53.6254   24.4332   46.5098 H   0  0  0  0  0  0  0  0  0  0  0  0
   53.0554   25.1544   44.9665 H   0  0  0  0  0  0  0  0  0  0  0  0
   54.4435   24.0142   44.9665 H   0  0  0  0  0  0  0  0  0  0  0  0
   56.3027   23.6630   46.0489 H   0  0  0  0  0  0  0  0  0  0  0  0
  1  2  1  0
  2  3  1  0
  3  4  2  0
  4  5  1  0
  5  6  2  0
  6  7  1  0
  7  8  1  0
  8  9  1  0
  9 10  2  0
  9 11  2  0
  9 12  1  0
 12 13  2  0
 13 14  1  0
 14 15  2  0
 15 16  1  0
 16 17  2  0
 16 18  1  0
 18 19  1  0
 19 20  1  0
 20 21  2  0
 20 22  1  0
 22 23  1  0
 19 24  1  0
 24 25  1  0
  6 26  1  0
 26 27  1  0
 27 28  1  0
 26 29  2  0
 29  3  1  0
 17 12  1  0
 25 15  1  0
  1 30  1  0
  1 31  1  0
  1 32  1  0
  4 33  1  0
  5 34  1  0
  7 35  1  0
  7 36  1  0
 13 37  1  0
 14 38  1  0
 17 39  1  0
 18 40  1  0
 18 41  1  0
 22 42  1  0
 22 43  1  0
 23 44  1  0
 24 45  1  0
 24 46  1  0
 25 47  1  0
 25 48  1  0
 28 49  1  0
 28 50  1  0
 28 51  1  0
 29 52  1  0
M  CHG  1   8  -1
M  END
>  <UniqueID>  (88) 
83

>  <SMILES>  (88) 
COc1ccc(C[N-]S(=O)(=O)c2ccc3c(c2)CN(C(=O)CS)CC3)c(OC)c1

>  <Energy>  (88) 
52.685109526756456

>  <Genealogy>  (88) 
COc1ccc(C[N-]S(=O)(=O)c2ccc3c(c2)CN(C(=O)CS)CC3)c(OC)c1 (protonated)
COc1ccc(C[N-]S(=O)(=O)c2ccc3c(c2)CN(C(=O)CS)CC3)c(OC)c1 (3D coordinates assigned)
COc1ccc(C[N-]S(=O)(=O)c2ccc3c(c2)CN(C(=O)CS)CC3)c(OC)c1 (nonaromatic ring conformer: 52.685109526756456 kcal/mol)

>  <smiles>  (88) 
COc1ccc(CNS(=O)(=O)c2ccc3c(c2)CN(C(=O)CS)CC3)c(OC)c1

>  <score_type>  (88) 
oracle

>  <origin>  (88) 
adg

>  <m_score__min__energy>  (88) 
-10.07

>  <m_primary>  (88) 
energy

$$$$
88:0
     RDKit          3D

 50 52  0  0  1  0  0  0  0  0999 V2000
   61.0960   33.5540   51.2460 C   0  0  0  0  0  0  0  0  0  0  0  0
   61.1050   33.6880   49.7790 C   0  0  0  0  0  0  0  0  0  0  0  0
   59.9650   33.8390   49.0420 C   0  0  0  0  0  0  0  0  0  0  0  0
   59.9390   33.9630   47.6850 C   0  0  0  0  0  0  0  0  0  0  0  0
   58.8270   34.0990   47.0950 N   0  0  0  0  0  0  0  0  0  0  0  0
   58.4740   33.8490   45.4510 S   0  0  0  0  0  0  0  0  0  0  0  0
   57.1800   34.6080   45.1680 O   0  0  0  0  0  0  0  0  0  0  0  0
   59.5030   34.3840   44.5000 O   0  0  0  0  0  0  0  0  0  0  0  0
   58.0800   32.1710   45.1530 C   0  0  0  0  0  0  0  0  0  0  0  0
   57.0120   31.8160   44.3180 C   0  0  0  0  0  0  0  0  0  0  0  0
   56.6920   30.4970   44.0700 C   0  0  0  0  0  0  0  0  0  0  0  0
   57.4160   29.4700   44.6380 C   0  0  0  0  0  0  0  0  0  0  0  0
   57.1070   28.1030   44.3990 N   0  0  0  0  0  0  0  0  0  0  0  0
   56.9350   27.1610   45.4640 C   0  0  0  0  0  0  0  0  0  0  0  0
   57.0470   27.4810   46.6760 O   0  0  0  0  0  0  0  0  0  0  0  0
   56.6260   25.8080   45.1610 N   0  0  0  0  0  0  0  0  0  0  0  0
   56.4600   24.8840   46.2440 C   0  0  0  0  0  0  0  0  0  0  0  0
   57.3960   24.7050   47.2270 C   0  0  0  0  0  0  0  0  0  0  0  0
   57.1750   23.7950   48.2490 C   0  0  0  0  0  0  0  0  0  0  0  0
   55.9860   23.0670   48.2590 C   0  0  0  0  0  0  0  0  0  0  0  0
   55.0250   23.2350   47.2710 C   0  0  0  0  0  0  0  0  0  0  0  0
   55.2820   24.1550   46.2640 C   0  0  0  0  0  0  0  0  0  0  0  0
   54.2610   24.3420   45.2040 C   0  0  0  0  0  0  0  0  0  0  0  0
   58.4560   29.7900   45.4510 C   0  0  0  0  0  0  0  0  0  0  0  0
   58.7780   31.1180   45.7010 C   0  0  0  0  0  0  0  0  0  0  0  0
   61.1400   33.9320   47.0460 N   0  0  0  0  0  0  0  0  0  0  0  0
   62.2710   33.7840   47.7600 C   0  0  0  0  0  0  0  0  0  0  0  0
   63.5640   33.7560   47.0130 C   0  0  0  0  0  0  0  0  0  0  0  0
   62.2750   33.6620   49.1080 N   0  0  0  0  0  0  0  0  0  0  0  0
   61.1630   34.5511   51.7057 H   0  0  0  0  0  0  0  0  0  0  0  0
   60.1630   33.0656   51.5639 H   0  0  0  0  0  0  0  0  0  0  0  0
   61.9553   32.9452   51.5639 H   0  0  0  0  0  0  0  0  0  0  0  0
   59.0051   33.8620   49.5788 H   0  0  0  0  0  0  0  0  0  0  0  0
   56.4130   32.6099   43.8479 H   0  0  0  0  0  0  0  0  0  0  0  0
   55.8455   30.2608   43.4084 H   0  0  0  0  0  0  0  0  0  0  0  0
   57.0020   27.7850   43.4030 H   0  0  0  0  0  0  0  0  0  0  0  0
   56.5270   25.5090   44.1790 H   0  0  0  0  0  0  0  0  0  0  0  0
   58.3292   25.2869   47.2056 H   0  0  0  0  0  0  0  0  0  0  0  0
   57.9258   23.6495   49.0396 H   0  0  0  0  0  0  0  0  0  0  0  0
   55.8052   22.3435   49.0676 H   0  0  0  0  0  0  0  0  0  0  0  0
   54.0892   22.6570   47.2859 H   0  0  0  0  0  0  0  0  0  0  0  0
   53.2798   24.5217   45.6676 H   0  0  0  0  0  0  0  0  0  0  0  0
   54.5349   25.2049   44.5792 H   0  0  0  0  0  0  0  0  0  0  0  0
   54.2113   23.4380   44.5792 H   0  0  0  0  0  0  0  0  0  0  0  0
   59.0495   28.9892   45.9163 H   0  0  0  0  0  0  0  0  0  0  0  0
   59.6269   31.3378   46.3651 H   0  0  0  0  0  0  0  0  0  0  0  0
   61.1130   34.0280   46.0080 H   0  0  0  0  0  0  0  0  0  0  0  0
   64.4000   33.7379   47.7277 H   0  0  0  0  0  0  0  0  0  0  0  0
   63.6027   32.8568   46.3806 H   0  0  0  0  0  0  0  0  0  0  0  0
   63.6416   34.6527   46.3806 H   0  0  0  0  0  0  0  0  0  0  0  0
  1  2  1  0
  2  3  2  0
  3  4  1  0
  4  5  2  0
  5  6  1  0
  6  7  2  0
  6  8  2  0
  6  9  1  0
  9 10  2  0
 10 11  1  0
 11 12  2  0
 12 13  1  0
 13 14  1  0
 14 15  2  0
 14 16  1  0
 16 17  1  0
 17 18  2  0
 18 19  1  0
 19 20  2  0
 20 21  1  0
 21 22  2  0
 22 23  1  0
 12 24  1  0
 24 25  2  0
  4 26  1  0
 26 27  1  0
 27 28  1  0
 27 29  2  0
 29  2  1  0
 25  9  1  0
 22 17  1  0
  1 30  1  0
  1 31  1  0
  1 32  1  0
  3 33  1  0
 10 34  1  0
 11 35  1  0
 13 36  1  0
 16 37  1  0
 18 38  1  0
 19 39  1  0
 20 40  1  0
 21 41  1  0
 23 42  1  0
 23 43  1  0
 23 44  1  0
 24 45  1  0
 25 46  1  0
 26 47  1  0
 28 48  1  0
 28 49  1  0
 28 50  1  0
M  END
>  <smiles>  (89) 
Cc1cc(=NS(=O)(=O)c2ccc(NC(=O)Nc3ccccc3C)cc2)[nH]c(C)n1

>  <score_type>  (89) 
oracle

>  <origin>  (89) 
adg

>  <m_score__min__energy>  (89) 
-8.9800000000000004

>  <m_primary>  (89) 
energy

$$$$
89:0
     RDKit          3D

 27 28  0  0  0  0  0  0  0  0999 V2000
   56.6330   29.2690   45.6400 O   0  0  0  0  0  0  0  0  0  0  0  0
   57.5460   29.7270   44.8990 C   0  0  0  0  0  0  0  0  0  0  0  0
   58.0410   28.9350   43.8070 N   0  0  0  0  0  0  0  0  0  0  0  0
   57.8400   27.5170   43.7140 C   0  0  0  0  0  0  0  0  0  0  0  0
   58.1420   26.7710   42.2830 S   0  0  0  0  0  0  0  0  0  0  0  0
   57.6680   26.7350   44.9050 N   0  0  0  0  0  0  0  0  0  0  0  0
   56.8940   25.5290   44.9700 C   0  0  0  0  0  0  0  0  0  0  0  0
   57.0520   24.4000   44.1730 C   0  0  0  0  0  0  0  0  0  0  0  0
   56.0910   23.4150   44.4330 C   0  0  0  0  0  0  0  0  0  0  0  0
   55.1760   23.7730   45.4150 C   0  0  0  0  0  0  0  0  0  0  0  0
   55.5550   25.3190   45.9610 S   0  0  0  0  0  0  0  0  0  0  0  0
   58.0650   31.0940   45.1460 C   0  0  0  0  0  0  0  0  0  0  0  0
   57.7590   32.1380   44.2520 C   0  0  0  0  0  0  0  0  0  0  0  0
   58.2390   33.4310   44.4810 C   0  0  0  0  0  0  0  0  0  0  0  0
   59.0230   33.7000   45.6050 C   0  0  0  0  0  0  0  0  0  0  0  0
   59.6230   35.3240   45.8910 Cl  0  0  0  0  0  0  0  0  0  0  0  0
   59.3230   32.6740   46.5060 C   0  0  0  0  0  0  0  0  0  0  0  0
   58.8470   31.3790   46.2810 C   0  0  0  0  0  0  0  0  0  0  0  0
   58.4820   29.4240   42.9950 H   0  0  0  0  0  0  0  0  0  0  0  0
   58.1260   27.0660   45.7830 H   0  0  0  0  0  0  0  0  0  0  0  0
   57.8463   24.2924   43.4196 H   0  0  0  0  0  0  0  0  0  0  0  0
   56.0633   22.4484   43.9087 H   0  0  0  0  0  0  0  0  0  0  0  0
   54.3436   23.1505   45.7752 H   0  0  0  0  0  0  0  0  0  0  0  0
   57.1379   31.9348   43.3672 H   0  0  0  0  0  0  0  0  0  0  0  0
   57.9985   34.2386   43.7739 H   0  0  0  0  0  0  0  0  0  0  0  0
   59.9355   32.8864   47.3947 H   0  0  0  0  0  0  0  0  0  0  0  0
   59.0852   30.5775   46.9957 H   0  0  0  0  0  0  0  0  0  0  0  0
  1  2  2  0
  2  3  1  0
  3  4  1  0
  4  5  2  0
  4  6  1  0
  6  7  1  0
  7  8  2  0
  8  9  1  0
  9 10  2  0
 10 11  1  0
  2 12  1  0
 12 13  2  0
 13 14  1  0
 14 15  2  0
 15 16  1  0
 15 17  1  0
 17 18  2  0
 11  7  1  0
 18 12  1  0
  3 19  1  0
  6 20  1  0
  8 21  1  0
  9 22  1  0
 10 23  1  0
 13 24  1  0
 14 25  1  0
 17 26  1  0
 18 27  1  0
M  END
>  <UniqueID>  (90) 
84

>  <SMILES>  (90) 
O=C(NC(=S)Nc1cccs1)c1ccc(Cl)cc1

>  <Energy>  (90) 
60.77906178386322

>  <Genealogy>  (90) 
O=C(NC(=S)Nc1cccs1)c1ccc(Cl)cc1 (3D coordinates assigned)
O=C(NC(=S)Nc1cccs1)c1ccc(Cl)cc1 (optimized conformer: 60.77906178386322 kcal/mol)

>  <smiles>  (90) 
O=C(NC(=S)Nc1cccs1)c1ccc(Cl)cc1

>  <score_type>  (90) 
oracle

>  <origin>  (90) 
adg

>  <m_score__min__energy>  (90) 
-6.9900000000000002

>  <m_primary>  (90) 
energy

$$$$
90:0
     RDKit          3D

 45 47  0  0  0  0  0  0  0  0999 V2000
   62.5170   33.4050   46.8110 C   0  0  0  0  0  0  0  0  0  0  0  0
   61.5640   32.5040   47.5310 C   0  0  0  0  0  0  0  0  0  0  0  0
   60.6620   33.0320   48.4640 C   0  0  0  0  0  0  0  0  0  0  0  0
   59.8100   32.1710   49.1670 C   0  0  0  0  0  0  0  0  0  0  0  0
   59.8660   30.8290   48.9540 N   0  0  0  0  0  0  0  0  0  0  0  0
   60.7330   30.2800   48.0540 C   0  0  0  0  0  0  0  0  0  0  0  0
   60.7690   28.8840   47.9140 O   0  0  0  0  0  0  0  0  0  0  0  0
   59.7040   28.0800   47.4800 C   0  0  0  0  0  0  0  0  0  0  0  0
   59.6630   26.6970   47.7240 C   0  0  0  0  0  0  0  0  0  0  0  0
   58.6130   25.9620   47.2830 N   0  0  0  0  0  0  0  0  0  0  0  0
   57.5780   26.5180   46.5960 C   0  0  0  0  0  0  0  0  0  0  0  0
   56.2330   25.4920   46.1180 S   0  0  0  0  0  0  0  0  0  0  0  0
   56.6030   24.7260   44.5550 C   0  0  0  0  0  0  0  0  0  0  0  0
   55.9980   24.4350   47.1600 O   0  0  0  0  0  0  0  0  0  0  0  0
   54.9910   26.3260   45.9790 O   0  0  0  0  0  0  0  0  0  0  0  0
   57.5790   27.8960   46.3130 C   0  0  0  0  0  0  0  0  0  0  0  0
   56.4770   28.4820   45.6030 N   0  0  0  0  0  0  0  0  0  0  0  0
   56.5850   29.3930   44.1250 S   0  0  0  0  0  0  0  0  0  0  0  0
   55.2110   29.5890   43.5430 O   0  0  0  0  0  0  0  0  0  0  0  0
   57.4110   28.6210   43.1360 O   0  0  0  0  0  0  0  0  0  0  0  0
   57.3770   30.9370   44.4330 C   0  0  0  0  0  0  0  0  0  0  0  0
   57.6210   31.8400   43.3910 C   0  0  0  0  0  0  0  0  0  0  0  0
   58.2290   33.0690   43.6570 C   0  0  0  0  0  0  0  0  0  0  0  0
   58.5970   33.3970   44.9680 C   0  0  0  0  0  0  0  0  0  0  0  0
   59.3590   34.9440   45.2980 Cl  0  0  0  0  0  0  0  0  0  0  0  0
   58.3590   32.4940   46.0110 C   0  0  0  0  0  0  0  0  0  0  0  0
   57.7490   31.2670   45.7460 C   0  0  0  0  0  0  0  0  0  0  0  0
   58.6690   28.6670   46.7520 C   0  0  0  0  0  0  0  0  0  0  0  0
   61.6110   31.1180   47.3350 C   0  0  0  0  0  0  0  0  0  0  0  0
   63.1132   33.9687   47.5437 H   0  0  0  0  0  0  0  0  0  0  0  0
   63.1863   32.8017   46.1800 H   0  0  0  0  0  0  0  0  0  0  0  0
   61.9522   34.1070   46.1800 H   0  0  0  0  0  0  0  0  0  0  0  0
   60.6232   34.1166   48.6434 H   0  0  0  0  0  0  0  0  0  0  0  0
   59.0934   32.5815   49.8936 H   0  0  0  0  0  0  0  0  0  0  0  0
   59.2240   30.2020   49.5030 H   0  0  0  0  0  0  0  0  0  0  0  0
   60.4829   26.2107   48.2729 H   0  0  0  0  0  0  0  0  0  0  0  0
   57.0754   23.7479   44.7287 H   0  0  0  0  0  0  0  0  0  0  0  0
   55.6724   24.5876   43.9851 H   0  0  0  0  0  0  0  0  0  0  0  0
   57.2899   25.3689   43.9851 H   0  0  0  0  0  0  0  0  0  0  0  0
   57.3334   31.5811   42.3613 H   0  0  0  0  0  0  0  0  0  0  0  0
   58.4186   33.7784   42.8379 H   0  0  0  0  0  0  0  0  0  0  0  0
   58.6527   32.7515   47.0393 H   0  0  0  0  0  0  0  0  0  0  0  0
   57.5597   30.5585   46.5658 H   0  0  0  0  0  0  0  0  0  0  0  0
   58.7062   29.7416   46.5197 H   0  0  0  0  0  0  0  0  0  0  0  0
   62.3294   30.6848   46.6235 H   0  0  0  0  0  0  0  0  0  0  0  0
  1  2  1  0
  2  3  2  0
  3  4  1  0
  4  5  2  0
  5  6  1  0
  6  7  1  0
  7  8  1  0
  8  9  2  0
  9 10  1  0
 10 11  2  0
 11 12  1  0
 12 13  1  0
 12 14  2  0
 12 15  2  0
 11 16  1  0
 16 17  1  0
 17 18  1  0
 18 19  2  0
 18 20  2  0
 18 21  1  0
 21 22  2  0
 22 23  1  0
 23 24  2  0
 24 25  1  0
 24 26  1  0
 26 27  2  0
 16 28  2  0
  6 29  2  0
 29  2  1  0
 28  8  1  0
 27 21  1  0
  1 30  1  0
  1 31  1  0
  1 32  1  0
  3 33  1  0
  4 34  1  0
  5 35  1  0
  9 36  1  0
 13 37  1  0
 13 38  1  0
 13 39  1  0
 22 40  1  0
 23 41  1  0
 26 42  1  0
 27 43  1  0
 28 44  1  0
 29 45  1  0
M  CHG  2   5   1  17  -1
M  END
>  <UniqueID>  (91) 
85

>  <SMILES>  (91) 
Cc1cc[nH+]c(Oc2cnc(S(C)(=O)=O)c([N-]S(=O)(=O)c3ccc(Cl)cc3)c2)c1

>  <Energy>  (91) 
55.2411764310396

>  <Genealogy>  (91) 
Cc1cc[nH+]c(Oc2cnc(S(C)(=O)=O)c([N-]S(=O)(=O)c3ccc(Cl)cc3)c2)c1 (protonated)
Cc1cc[nH+]c(Oc2cnc(S(C)(=O)=O)c([N-]S(=O)(=O)c3ccc(Cl)cc3)c2)c1 (3D coordinates assigned)
Cc1cc[nH+]c(Oc2cnc(S(C)(=O)=O)c([N-]S(=O)(=O)c3ccc(Cl)cc3)c2)c1 (optimized conformer: 55.2411764310396 kcal/mol)

>  <smiles>  (91) 
Cc1ccnc(Oc2cnc(S(C)(=O)=O)c(NS(=O)(=O)c3ccc(Cl)cc3)c2)c1

>  <score_type>  (91) 
oracle

>  <origin>  (91) 
adg

>  <m_score__min__energy>  (91) 
-9.9800000000000004

>  <m_primary>  (91) 
energy

$$$$
91:0
     RDKit          3D

 67 70  0  0  0  0  0  0  0  0999 V2000
   52.4540   22.5810   50.5310 C   0  0  0  0  0  0  0  0  0  0  0  0
   53.6400   23.0710   49.9090 O   0  0  0  0  0  0  0  0  0  0  0  0
   54.1170   22.6340   48.6660 C   0  0  0  0  0  0  0  0  0  0  0  0
   55.4890   22.6110   48.3470 C   0  0  0  0  0  0  0  0  0  0  0  0
   55.9170   22.1620   47.0930 C   0  0  0  0  0  0  0  0  0  0  0  0
   54.9800   21.7010   46.1480 C   0  0  0  0  0  0  0  0  0  0  0  0
   55.3550   21.1790   44.8640 N   0  0  0  0  0  0  0  0  0  0  0  0
   56.3070   21.9500   43.6320 S   0  0  0  0  0  0  0  0  0  0  0  0
   56.7340   20.9780   42.5690 O   0  0  0  0  0  0  0  0  0  0  0  0
   55.4560   23.0000   42.9730 O   0  0  0  0  0  0  0  0  0  0  0  0
   57.7110   22.7080   44.3740 C   0  0  0  0  0  0  0  0  0  0  0  0
   58.9140   22.0010   44.4840 C   0  0  0  0  0  0  0  0  0  0  0  0
   60.0220   22.5910   45.0960 C   0  0  0  0  0  0  0  0  0  0  0  0
   59.9270   23.8820   45.6190 C   0  0  0  0  0  0  0  0  0  0  0  0
   58.7230   24.5980   45.5300 C   0  0  0  0  0  0  0  0  0  0  0  0
   58.6520   25.9780   46.0570 C   0  0  0  0  0  0  0  0  0  0  0  0
   59.7190   26.6430   46.1640 O   0  0  0  0  0  0  0  0  0  0  0  0
   57.4220   26.5860   46.4800 N   0  0  0  0  0  0  0  0  0  0  0  0
   56.3230   27.0250   45.6230 C   0  0  0  0  0  0  0  0  0  0  0  0
   56.4640   28.4780   45.2810 C   0  0  0  0  0  0  0  0  0  0  0  0
   55.4590   29.1060   44.8510 O   0  0  0  0  0  0  0  0  0  0  0  0
   57.7210   29.1460   45.4700 N   0  0  0  0  0  0  0  0  0  0  0  0
   58.0030   30.4760   44.9940 C   0  0  0  0  0  0  0  0  0  0  0  0
   58.5450   31.4530   45.8490 C   0  0  0  0  0  0  0  0  0  0  0  0
   58.7670   32.7590   45.3870 C   0  0  0  0  0  0  0  0  0  0  0  0
   59.3830   34.0040   46.4770 S   0  0  0  0  0  0  0  0  0  0  0  0
   60.3400   34.9010   45.7360 O   0  0  0  0  0  0  0  0  0  0  0  0
   58.2140   34.8260   46.9490 O   0  0  0  0  0  0  0  0  0  0  0  0
   60.1910   33.3370   47.8690 N   0  0  0  0  0  0  0  0  0  0  0  0
   61.6040   33.3460   48.1060 C   0  0  0  0  0  0  0  0  0  0  0  0
   62.5330   33.0840   47.0880 C   0  0  0  0  0  0  0  0  0  0  0  0
   63.8950   33.0270   47.3780 C   0  0  0  0  0  0  0  0  0  0  0  0
   64.3530   33.2870   48.6700 C   0  0  0  0  0  0  0  0  0  0  0  0
   63.4430   33.6300   49.6800 C   0  0  0  0  0  0  0  0  0  0  0  0
   63.9270   33.9010   51.0740 C   0  0  0  0  0  0  0  0  0  0  0  0
   62.0670   33.6500   49.3930 C   0  0  0  0  0  0  0  0  0  0  0  0
   58.4450   33.0930   44.0670 C   0  0  0  0  0  0  0  0  0  0  0  0
   57.8950   32.1290   43.2150 C   0  0  0  0  0  0  0  0  0  0  0  0
   57.6700   30.8290   43.6760 C   0  0  0  0  0  0  0  0  0  0  0  0
   57.1440   29.9060   42.8330 F   0  0  0  0  0  0  0  0  0  0  0  0
   57.6270   24.0130   44.8770 C   0  0  0  0  0  0  0  0  0  0  0  0
   53.6200   21.7170   46.4760 C   0  0  0  0  0  0  0  0  0  0  0  0
   53.1880   22.1990   47.7150 C   0  0  0  0  0  0  0  0  0  0  0  0
   52.5671   22.6277   51.6242 H   0  0  0  0  0  0  0  0  0  0  0  0
   51.5971   23.1987   50.2243 H   0  0  0  0  0  0  0  0  0  0  0  0
   52.2830   21.5386   50.2243 H   0  0  0  0  0  0  0  0  0  0  0  0
   56.2283   22.9481   49.0885 H   0  0  0  0  0  0  0  0  0  0  0  0
   56.9885   22.1691   46.8444 H   0  0  0  0  0  0  0  0  0  0  0  0
   58.9869   20.9776   44.0872 H   0  0  0  0  0  0  0  0  0  0  0  0
   60.9704   22.0381   45.1660 H   0  0  0  0  0  0  0  0  0  0  0  0
   60.8012   24.3409   46.1039 H   0  0  0  0  0  0  0  0  0  0  0  0
   56.3302   26.4336   44.6955 H   0  0  0  0  0  0  0  0  0  0  0  0
   55.3751   26.8794   46.1618 H   0  0  0  0  0  0  0  0  0  0  0  0
   58.4440   28.6600   46.0490 H   0  0  0  0  0  0  0  0  0  0  0  0
   58.7966   31.1910   46.8873 H   0  0  0  0  0  0  0  0  0  0  0  0
   62.1851   32.9229   46.0570 H   0  0  0  0  0  0  0  0  0  0  0  0
   64.6131   32.7755   46.5836 H   0  0  0  0  0  0  0  0  0  0  0  0
   65.4276   33.2229   48.8961 H   0  0  0  0  0  0  0  0  0  0  0  0
   63.2045   33.4965   51.7981 H   0  0  0  0  0  0  0  0  0  0  0  0
   64.9045   33.4190   51.2230 H   0  0  0  0  0  0  0  0  0  0  0  0
   64.0269   34.9863   51.2230 H   0  0  0  0  0  0  0  0  0  0  0  0
   61.3481   33.9063   50.1851 H   0  0  0  0  0  0  0  0  0  0  0  0
   58.6243   34.1139   43.6989 H   0  0  0  0  0  0  0  0  0  0  0  0
   57.6389   32.3952   42.1789 H   0  0  0  0  0  0  0  0  0  0  0  0
   56.6942   24.5839   44.7591 H   0  0  0  0  0  0  0  0  0  0  0  0
   52.8817   21.3458   45.7500 H   0  0  0  0  0  0  0  0  0  0  0  0
   52.1126   22.2364   47.9432 H   0  0  0  0  0  0  0  0  0  0  0  0
  1  2  1  0
  2  3  1  0
  3  4  2  0
  4  5  1  0
  5  6  2  0
  6  7  1  0
  7  8  1  0
  8  9  2  0
  8 10  2  0
  8 11  1  0
 11 12  2  0
 12 13  1  0
 13 14  2  0
 14 15  1  0
 15 16  1  0
 16 17  2  0
 16 18  1  0
 18 19  1  0
 19 20  1  0
 20 21  2  0
 20 22  1  0
 22 23  1  0
 23 24  2  0
 24 25  1  0
 25 26  1  0
 26 27  2  0
 26 28  2  0
 26 29  1  0
 29 30  1  0
 30 31  2  0
 31 32  1  0
 32 33  2  0
 33 34  1  0
 34 35  1  0
 34 36  2  0
 25 37  2  0
 37 38  1  0
 38 39  2  0
 39 40  1  0
 15 41  2  0
  6 42  1  0
 42 43  2  0
 43  3  1  0
 41 11  1  0
 39 23  1  0
 36 30  1  0
  1 44  1  0
  1 45  1  0
  1 46  1  0
  4 47  1  0
  5 48  1  0
 12 49  1  0
 13 50  1  0
 14 51  1  0
 19 52  1  0
 19 53  1  0
 22 54  1  0
 24 55  1  0
 31 56  1  0
 32 57  1  0
 33 58  1  0
 35 59  1  0
 35 60  1  0
 35 61  1  0
 36 62  1  0
 37 63  1  0
 38 64  1  0
 41 65  1  0
 42 66  1  0
 43 67  1  0
M  CHG  3   7  -1  18  -1  29  -1
M  END
>  <UniqueID>  (92) 
86

>  <SMILES>  (92) 
COc1ccc([N-]S(=O)(=O)c2cccc(C(=O)[N-]CC(=O)Nc3cc(S(=O)(=O)[N-]c4cccc(C)c4)ccc3F)c2)cc1

>  <Energy>  (92) 
80.4261385581578

>  <Genealogy>  (92) 
COc1ccc([N-]S(=O)(=O)c2cccc(C(=O)[N-]CC(=O)Nc3cc(S(=O)(=O)[N-]c4cccc(C)c4)ccc3F)c2)cc1 (protonated)
COc1ccc([N-]S(=O)(=O)c2cccc(C(=O)[N-]CC(=O)Nc3cc(S(=O)(=O)[N-]c4cccc(C)c4)ccc3F)c2)cc1 (3D coordinates assigned)
COc1ccc([N-]S(=O)(=O)c2cccc(C(=O)[N-]CC(=O)Nc3cc(S(=O)(=O)[N-]c4cccc(C)c4)ccc3F)c2)cc1 (optimized conformer: 80.4261385581578 kcal/mol)

>  <smiles>  (92) 
COc1ccc(NS(=O)(=O)c2cccc(C(=O)NCC(=O)Nc3cc(S(=O)(=O)Nc4cccc(C)c4)ccc3F)c2)cc1

>  <score_type>  (92) 
oracle

>  <origin>  (92) 
adg

>  <m_score__min__energy>  (92) 
-14.65

>  <m_primary>  (92) 
energy

$$$$
92:0
     RDKit          3D

 32 33  0  0  0  0  0  0  0  0999 V2000
   57.3050   30.5360   43.7000 C   0  0  0  0  0  0  0  0  0  0  0  0
   58.3180   29.9450   44.3380 C   0  0  0  0  0  0  0  0  0  0  0  0
   58.6010   28.4720   44.1950 C   0  0  0  0  0  0  0  0  0  0  0  0
   58.4670   27.7630   45.4790 N   0  0  0  0  0  0  0  0  0  0  0  0
   59.6330   27.6740   46.3720 C   0  0  0  0  0  0  0  0  0  0  0  0
   59.6550   28.8040   47.3700 C   0  0  0  0  0  0  0  0  0  0  0  0
   60.5090   29.9040   47.1790 C   0  0  0  0  0  0  0  0  0  0  0  0
   60.5330   30.9490   48.1060 C   0  0  0  0  0  0  0  0  0  0  0  0
   59.7180   30.9000   49.2400 C   0  0  0  0  0  0  0  0  0  0  0  0
   58.8800   29.7970   49.4540 C   0  0  0  0  0  0  0  0  0  0  0  0
   58.0710   29.7300   50.5860 O   0  0  0  0  0  0  0  0  0  0  0  0
   58.8560   28.7510   48.5260 C   0  0  0  0  0  0  0  0  0  0  0  0
   57.2910   26.9740   45.7670 C   0  0  0  0  0  0  0  0  0  0  0  0
   57.2720   25.6760   46.2330 C   0  0  0  0  0  0  0  0  0  0  0  0
   55.9370   25.3560   46.3640 C   0  0  0  0  0  0  0  0  0  0  0  0
   55.4620   24.1340   46.8180 O   0  0  0  0  0  0  0  0  0  0  0  0
   55.1270   26.3730   46.0010 N   0  0  0  0  0  0  0  0  0  0  0  0
   55.9660   27.3610   45.6360 C   0  0  0  0  0  0  0  0  0  0  0  0
   55.5220   28.5900   45.1680 O   0  0  0  0  0  0  0  0  0  0  0  0
   57.1283   31.6141   43.8282 H   0  0  0  0  0  0  0  0  0  0  0  0
   56.6470   29.9448   43.0461 H   0  0  0  0  0  0  0  0  0  0  0  0
   58.9657   30.5519   44.9878 H   0  0  0  0  0  0  0  0  0  0  0  0
   57.8905   28.0411   43.4743 H   0  0  0  0  0  0  0  0  0  0  0  0
   59.6375   28.3549   43.8459 H   0  0  0  0  0  0  0  0  0  0  0  0
   59.5944   26.7184   46.9155 H   0  0  0  0  0  0  0  0  0  0  0  0
   60.5430   27.7398   45.7575 H   0  0  0  0  0  0  0  0  0  0  0  0
   61.1621   29.9423   46.2947 H   0  0  0  0  0  0  0  0  0  0  0  0
   61.1949   31.8123   47.9428 H   0  0  0  0  0  0  0  0  0  0  0  0
   59.7341   31.7272   49.9649 H   0  0  0  0  0  0  0  0  0  0  0  0
   57.3960   28.9850   50.7120 H   0  0  0  0  0  0  0  0  0  0  0  0
   58.2072   27.8802   48.7017 H   0  0  0  0  0  0  0  0  0  0  0  0
   58.1371   25.0332   46.4532 H   0  0  0  0  0  0  0  0  0  0  0  0
  1  2  2  0
  2  3  1  0
  3  4  1  0
  4  5  1  0
  5  6  1  0
  6  7  2  0
  7  8  1  0
  8  9  2  0
  9 10  1  0
 10 11  1  0
 10 12  2  0
  4 13  1  0
 13 14  1  0
 14 15  2  0
 15 16  1  0
 15 17  1  0
 17 18  1  0
 18 19  1  0
 12  6  1  0
 18 13  2  0
  1 20  1  0
  1 21  1  0
  2 22  1  0
  3 23  1  0
  3 24  1  0
  5 25  1  0
  5 26  1  0
  7 27  1  0
  8 28  1  0
  9 29  1  0
 11 30  1  0
 12 31  1  0
 14 32  1  0
M  CHG  3  16  -1  17  -1  19  -1
M  END
>  <UniqueID>  (93) 
87

>  <SMILES>  (93) 
C=CCN(Cc1cccc(O)c1)c1cc([O-])[n-]c1[O-]

>  <Energy>  (93) 
58.249378592865924

>  <Genealogy>  (93) 
C=CCN(Cc1cccc(O)c1)c1cc([O-])[n-]c1[O-] (protonated)
C=CCN(Cc1cccc(O)c1)c1cc([O-])[n-]c1[O-] (3D coordinates assigned)
C=CCN(Cc1cccc(O)c1)c1cc([O-])[n-]c1[O-] (optimized conformer: 58.249378592865924 kcal/mol)

>  <smiles>  (93) 
C=CCN(Cc1cccc(O)c1)c1cc(O)[nH]c1O

>  <score_type>  (93) 
oracle

>  <origin>  (93) 
adg

>  <m_score__min__energy>  (93) 
-13.75

>  <m_primary>  (93) 
energy

$$$$
93:0
     RDKit          3D

 45 47  0  0  0  0  0  0  0  0999 V2000
   55.4260   21.8240   47.6050 C   0  0  0  0  0  0  0  0  0  0  0  0
   55.9690   23.0770   46.9970 C   0  0  0  0  0  0  0  0  0  0  0  0
   57.3210   23.1730   46.6620 C   0  0  0  0  0  0  0  0  0  0  0  0
   57.7860   24.3560   46.0870 C   0  0  0  0  0  0  0  0  0  0  0  0
   59.0040   24.4560   45.7750 O   0  0  0  0  0  0  0  0  0  0  0  0
   56.9250   25.3930   45.8590 N   0  0  0  0  0  0  0  0  0  0  0  0
   57.3940   26.5880   45.2800 N   0  0  0  0  0  0  0  0  0  0  0  0
   57.6600   27.7480   46.1350 C   0  0  0  0  0  0  0  0  0  0  0  0
   57.3040   29.0780   45.4310 C   0  0  0  0  0  0  0  0  0  0  0  0
   57.1430   28.9420   43.9630 N   0  0  0  0  0  0  0  0  0  0  0  0
   57.2710   30.2350   43.3380 C   0  0  0  0  0  0  0  0  0  0  0  0
   56.6210   30.4910   42.2850 O   0  0  0  0  0  0  0  0  0  0  0  0
   58.0870   31.2140   43.9190 O   0  0  0  0  0  0  0  0  0  0  0  0
   57.8240   32.6120   43.8200 C   0  0  0  0  0  0  0  0  0  0  0  0
   58.3230   33.3240   45.0470 C   0  0  0  0  0  0  0  0  0  0  0  0
   57.9930   32.8590   46.3300 C   0  0  0  0  0  0  0  0  0  0  0  0
   58.4800   33.5180   47.4640 C   0  0  0  0  0  0  0  0  0  0  0  0
   59.3010   34.6410   47.3240 C   0  0  0  0  0  0  0  0  0  0  0  0
   59.6360   35.1070   46.0490 C   0  0  0  0  0  0  0  0  0  0  0  0
   59.1510   34.4510   44.9140 C   0  0  0  0  0  0  0  0  0  0  0  0
   58.1230   28.0000   43.3910 C   0  0  0  0  0  0  0  0  0  0  0  0
   57.8220   26.5780   43.8780 C   0  0  0  0  0  0  0  0  0  0  0  0
   55.6050   25.2740   46.1920 C   0  0  0  0  0  0  0  0  0  0  0  0
   54.8050   26.2270   45.9860 O   0  0  0  0  0  0  0  0  0  0  0  0
   55.1420   24.1260   46.7520 N   0  0  0  0  0  0  0  0  0  0  0  0
   55.4605   21.9037   48.7016 H   0  0  0  0  0  0  0  0  0  0  0  0
   54.3849   21.6803   47.2804 H   0  0  0  0  0  0  0  0  0  0  0  0
   56.0330   20.9660   47.2804 H   0  0  0  0  0  0  0  0  0  0  0  0
   58.0060   22.3326   46.8477 H   0  0  0  0  0  0  0  0  0  0  0  0
   57.0588   27.6591   47.0519 H   0  0  0  0  0  0  0  0  0  0  0  0
   58.7355   27.7618   46.3653 H   0  0  0  0  0  0  0  0  0  0  0  0
   56.3598   29.4537   45.8521 H   0  0  0  0  0  0  0  0  0  0  0  0
   58.1407   29.7710   45.6034 H   0  0  0  0  0  0  0  0  0  0  0  0
   56.1780   28.5760   43.7660 H   0  0  0  0  0  0  0  0  0  0  0  0
   58.3346   33.0156   42.9332 H   0  0  0  0  0  0  0  0  0  0  0  0
   56.7385   32.7670   43.7324 H   0  0  0  0  0  0  0  0  0  0  0  0
   57.3497   31.9740   46.4439 H   0  0  0  0  0  0  0  0  0  0  0  0
   58.2165   33.1520   48.4673 H   0  0  0  0  0  0  0  0  0  0  0  0
   59.6833   35.1578   48.2166 H   0  0  0  0  0  0  0  0  0  0  0  0
   60.2818   35.9906   45.9390 H   0  0  0  0  0  0  0  0  0  0  0  0
   59.4188   34.8188   43.9125 H   0  0  0  0  0  0  0  0  0  0  0  0
   58.0613   28.0307   42.2932 H   0  0  0  0  0  0  0  0  0  0  0  0
   59.1345   28.2878   43.7136 H   0  0  0  0  0  0  0  0  0  0  0  0
   57.0211   26.1468   43.2594 H   0  0  0  0  0  0  0  0  0  0  0  0
   58.7379   25.9748   43.7931 H   0  0  0  0  0  0  0  0  0  0  0  0
  1  2  1  0
  2  3  2  0
  3  4  1  0
  4  5  2  0
  4  6  1  0
  6  7  1  0
  7  8  1  0
  8  9  1  0
  9 10  1  0
 10 11  1  0
 11 12  2  0
 11 13  1  0
 13 14  1  0
 14 15  1  0
 15 16  2  0
 16 17  1  0
 17 18  2  0
 18 19  1  0
 19 20  2  0
 10 21  1  0
 21 22  1  0
  6 23  1  0
 23 24  2  0
 23 25  1  0
 25  2  1  0
 22  7  1  0
 20 15  1  0
  1 26  1  0
  1 27  1  0
  1 28  1  0
  3 29  1  0
  8 30  1  0
  8 31  1  0
  9 32  1  0
  9 33  1  0
 10 34  1  0
 14 35  1  0
 14 36  1  0
 16 37  1  0
 17 38  1  0
 18 39  1  0
 19 40  1  0
 20 41  1  0
 21 42  1  0
 21 43  1  0
 22 44  1  0
 22 45  1  0
M  CHG  2  10   1  25  -1
M  END
>  <UniqueID>  (94) 
88

>  <SMILES>  (94) 
Cc1cc(=O)n(N2CC[NH+](C(=O)OCc3ccccc3)CC2)c(=O)[n-]1

>  <Energy>  (94) 
57.129285666936056

>  <Genealogy>  (94) 
Cc1cc(=O)n(N2CC[NH+](C(=O)OCc3ccccc3)CC2)c(=O)[n-]1 (protonated)
Cc1cc(=O)n(N2CC[NH+](C(=O)OCc3ccccc3)CC2)c(=O)[n-]1 (3D coordinates assigned)
Cc1cc(=O)n(N2CC[NH+](C(=O)OCc3ccccc3)CC2)c(=O)[n-]1 (nonaromatic ring conformer: 57.129285666936056 kcal/mol)

>  <smiles>  (94) 
Cc1cc(=O)n(N2CCN(C(=O)OCc3ccccc3)CC2)c(=O)[nH]1

>  <score_type>  (94) 
oracle

>  <origin>  (94) 
adg

>  <m_score__min__energy>  (94) 
-7.9199999999999999

>  <m_primary>  (94) 
energy

$$$$
94:0
     RDKit          3D

 49 51  0  0  0  0  0  0  0  0999 V2000
   53.7220   25.2170   45.6140 C   0  0  0  0  0  0  0  0  0  0  0  0
   54.7670   26.1690   45.9700 N   0  0  0  0  0  0  0  0  0  0  0  0
   56.3100   25.3700   45.9830 S   0  0  0  0  0  0  0  0  0  0  0  0
   56.5320   24.7080   44.6520 O   0  0  0  0  0  0  0  0  0  0  0  0
   56.3260   24.3100   47.0500 O   0  0  0  0  0  0  0  0  0  0  0  0
   57.6020   26.5370   46.2660 C   0  0  0  0  0  0  0  0  0  0  0  0
   58.8490   26.0950   46.7240 C   0  0  0  0  0  0  0  0  0  0  0  0
   59.8820   27.0120   46.9310 C   0  0  0  0  0  0  0  0  0  0  0  0
   59.6780   28.3710   46.6840 C   0  0  0  0  0  0  0  0  0  0  0  0
   58.4290   28.8320   46.2290 C   0  0  0  0  0  0  0  0  0  0  0  0
   58.2000   30.2690   45.9480 C   0  0  0  0  0  0  0  0  0  0  0  0
   57.1810   30.6180   45.2900 O   0  0  0  0  0  0  0  0  0  0  0  0
   59.1100   31.2730   46.4240 N   0  0  0  0  0  0  0  0  0  0  0  0
   59.0000   32.6660   45.9880 C   0  0  0  0  0  0  0  0  0  0  0  0
   59.8140   33.6020   46.9040 C   0  0  2  0  0  0  0  0  0  0  0  0
   61.2670   33.1770   47.0150 C   0  0  0  0  0  0  0  0  0  0  0  0
   62.3860   33.8310   46.5000 C   0  0  0  0  0  0  0  0  0  0  0  0
   63.5910   33.1720   46.7720 C   0  0  0  0  0  0  0  0  0  0  0  0
   63.4370   32.0020   47.5030 C   0  0  0  0  0  0  0  0  0  0  0  0
   61.7990   31.7910   47.8100 S   0  0  0  0  0  0  0  0  0  0  0  0
   59.1440   33.7590   48.2230 N   0  0  0  0  0  0  0  0  0  0  0  0
   58.1720   32.7010   48.5870 C   0  0  0  0  0  0  0  0  0  0  0  0
   58.7080   31.8020   49.7140 C   0  0  0  0  0  0  0  0  0  0  0  0
   59.0280   32.5100   50.9050 O   0  0  0  0  0  0  0  0  0  0  0  0
   59.4510   33.8490   50.6830 C   0  0  0  0  0  0  0  0  0  0  0  0
   60.0960   34.0770   49.3080 C   0  0  0  0  0  0  0  0  0  0  0  0
   57.3970   27.9000   46.0110 C   0  0  0  0  0  0  0  0  0  0  0  0
   53.2719   24.8070   46.5301 H   0  0  0  0  0  0  0  0  0  0  0  0
   52.9479   25.7268   45.0216 H   0  0  0  0  0  0  0  0  0  0  0  0
   54.1576   24.3989   45.0216 H   0  0  0  0  0  0  0  0  0  0  0  0
   59.0152   25.0256   46.9208 H   0  0  0  0  0  0  0  0  0  0  0  0
   60.8609   26.6619   47.2903 H   0  0  0  0  0  0  0  0  0  0  0  0
   60.4986   29.0854   46.8461 H   0  0  0  0  0  0  0  0  0  0  0  0
   59.8410   31.0100   47.1230 H   0  0  0  0  0  0  0  0  0  0  0  0
   59.3798   32.7512   44.9592 H   0  0  0  0  0  0  0  0  0  0  0  0
   57.9423   32.9640   46.0364 H   0  0  0  0  0  0  0  0  0  0  0  0
   59.8408   34.5980   46.4379 H   0  0  0  0  0  0  0  0  0  0  0  0
   62.3275   34.7730   45.9350 H   0  0  0  0  0  0  0  0  0  0  0  0
   64.5695   33.5468   46.4373 H   0  0  0  0  0  0  0  0  0  0  0  0
   64.2464   31.3303   47.8250 H   0  0  0  0  0  0  0  0  0  0  0  0
   57.2377   33.1749   48.9224 H   0  0  0  0  0  0  0  0  0  0  0  0
   57.9985   32.0738   47.7001 H   0  0  0  0  0  0  0  0  0  0  0  0
   57.9420   31.0494   49.9523 H   0  0  0  0  0  0  0  0  0  0  0  0
   59.6411   31.3488   49.3482 H   0  0  0  0  0  0  0  0  0  0  0  0
   58.5743   34.5080   50.7681 H   0  0  0  0  0  0  0  0  0  0  0  0
   60.2201   34.0706   51.4376 H   0  0  0  0  0  0  0  0  0  0  0  0
   60.4012   35.1304   49.2229 H   0  0  0  0  0  0  0  0  0  0  0  0
   60.9707   33.4165   49.2147 H   0  0  0  0  0  0  0  0  0  0  0  0
   56.4213   28.2442   45.6374 H   0  0  0  0  0  0  0  0  0  0  0  0
  1  2  1  0
  2  3  1  0
  3  4  2  0
  3  5  2  0
  3  6  1  0
  6  7  2  0
  7  8  1  0
  8  9  2  0
  9 10  1  0
 10 11  1  0
 11 12  2  0
 11 13  1  0
 13 14  1  0
 14 15  1  0
 15 16  1  0
 16 17  2  0
 17 18  1  0
 18 19  2  0
 19 20  1  0
 15 21  1  0
 21 22  1  0
 22 23  1  0
 23 24  1  0
 24 25  1  0
 25 26  1  0
 10 27  2  0
 27  6  1  0
 20 16  1  0
 26 21  1  0
  1 28  1  0
  1 29  1  0
  1 30  1  0
  7 31  1  0
  8 32  1  0
  9 33  1  0
 13 34  1  0
 14 35  1  0
 14 36  1  0
 15 37  1  6
 17 38  1  0
 18 39  1  0
 19 40  1  0
 22 41  1  0
 22 42  1  0
 23 43  1  0
 23 44  1  0
 25 45  1  0
 25 46  1  0
 26 47  1  0
 26 48  1  0
 27 49  1  0
M  CHG  1   2  -1
M  END
>  <UniqueID>  (95) 
89

>  <SMILES>  (95) 
C[N-]S(=O)(=O)c1cccc(C(=O)NC[C@H](c2cccs2)N2CCOCC2)c1

>  <Energy>  (95) 
90.61620877592343

>  <Genealogy>  (95) 
C[N-]S(=O)(=O)c1cccc(C(=O)NCC(c2cccs2)N2CCOCC2)c1 (protonated)
C[N-]S(=O)(=O)c1cccc(C(=O)NC[C@H](c2cccs2)N2CCOCC2)c1 (chirality)
C[N-]S(=O)(=O)c1cccc(C(=O)NC[C@H](c2cccs2)N2CCOCC2)c1 (3D coordinates assigned)
C[N-]S(=O)(=O)c1cccc(C(=O)NC[C@H](c2cccs2)N2CCOCC2)c1 (nonaromatic ring conformer: 90.61620877592343 kcal/mol)

>  <smiles>  (95) 
CNS(=O)(=O)c1cccc(C(=O)NCC(c2cccs2)N2CCOCC2)c1

>  <score_type>  (95) 
oracle

>  <origin>  (95) 
adg

>  <m_score__min__energy>  (95) 
-10.56

>  <m_primary>  (95) 
energy

$$$$
