0:0
     RDKit          3D

 46 49  0  0  0  0  0  0  0  0999 V2000
   54.0340   26.3480   46.5800 H   0  0  0  0  0  0  0  0  0  0  0  0
   54.0820   25.8440   45.7030 O   0  0  0  0  0  0  0  0  0  0  0  0
   53.7680   24.4900   45.6470 C   0  0  0  0  0  0  0  0  0  0  0  0
   52.5130   24.0120   45.6570 N   0  0  0  0  0  0  0  0  0  0  0  0
   52.7050   22.6780   45.5820 C   0  0  0  0  0  0  0  0  0  0  0  0
   51.7530   21.8560   45.5650 O   0  0  0  0  0  0  0  0  0  0  0  0
   53.9980   22.2960   45.5250 N   0  0  0  0  0  0  0  0  0  0  0  0
   54.6750   23.4580   45.5720 C   0  0  0  0  0  0  0  0  0  0  0  0
   56.1460   23.6140   45.5130 C   0  0  0  0  0  0  0  0  0  0  0  0
   56.7530   22.8075   45.9501 H   0  0  0  0  0  0  0  0  0  0  0  0
   56.8090   24.6570   44.9710 C   0  0  0  0  0  0  0  0  0  0  0  0
   57.0410   24.9020   43.6170 C   0  0  0  0  0  0  0  0  0  0  0  0
   56.7103   24.2803   42.7720 H   0  0  0  0  0  0  0  0  0  0  0  0
   57.7650   26.0740   43.5420 C   0  0  0  0  0  0  0  0  0  0  0  0
   58.2200   26.7340   42.2780 C   0  0  0  0  0  0  0  0  0  0  0  0
   58.8286   27.6167   42.5238 H   0  0  0  0  0  0  0  0  0  0  0  0
   58.8224   26.0254   41.6906 H   0  0  0  0  0  0  0  0  0  0  0  0
   57.3435   27.0449   41.6906 H   0  0  0  0  0  0  0  0  0  0  0  0
   58.0000   26.5530   44.7770 N   0  0  0  0  0  0  0  0  0  0  0  0
   58.6750   27.7580   45.0570 N   0  0  0  0  0  0  0  0  0  0  0  0
   59.6330   27.7060   45.4720 H   0  0  0  0  0  0  0  0  0  0  0  0
   58.0790   29.0530   44.8630 C   0  0  0  0  0  0  0  0  0  0  0  0
   56.9370   29.1560   44.0570 C   0  0  0  0  0  0  0  0  0  0  0  0
   56.5272   28.2565   43.5742 H   0  0  0  0  0  0  0  0  0  0  0  0
   56.3160   30.3890   43.8620 C   0  0  0  0  0  0  0  0  0  0  0  0
   55.4120   30.4555   43.2388 H   0  0  0  0  0  0  0  0  0  0  0  0
   56.8380   31.5380   44.4550 C   0  0  0  0  0  0  0  0  0  0  0  0
   56.3361   32.5055   44.3062 H   0  0  0  0  0  0  0  0  0  0  0  0
   58.0000   31.4690   45.2410 C   0  0  0  0  0  0  0  0  0  0  0  0
   58.5490   32.7100   45.8390 C   0  0  0  0  0  0  0  0  0  0  0  0
   58.9050   33.8010   45.0260 C   0  0  0  0  0  0  0  0  0  0  0  0
   58.7817   33.7338   43.9350 H   0  0  0  0  0  0  0  0  0  0  0  0
   59.4150   34.9710   45.5980 C   0  0  0  0  0  0  0  0  0  0  0  0
   59.6952   35.8192   44.9561 H   0  0  0  0  0  0  0  0  0  0  0  0
   59.5690   35.0640   46.9830 C   0  0  0  0  0  0  0  0  0  0  0  0
   59.9731   35.9839   47.4307 H   0  0  0  0  0  0  0  0  0  0  0  0
   59.2100   33.9890   47.8000 C   0  0  0  0  0  0  0  0  0  0  0  0
   59.3289   34.0645   48.8909 H   0  0  0  0  0  0  0  0  0  0  0  0
   58.7000   32.8180   47.2330 C   0  0  0  0  0  0  0  0  0  0  0  0
   58.4150   31.9759   47.8808 H   0  0  0  0  0  0  0  0  0  0  0  0
   58.6230   30.2200   45.4440 C   0  0  0  0  0  0  0  0  0  0  0  0
   59.7780   30.1420   46.2180 O   0  0  0  0  0  0  0  0  0  0  0  0
   57.4100   25.7180   45.6650 C   0  0  0  0  0  0  0  0  0  0  0  0
   57.3790   25.9330   46.9880 C   0  0  0  0  0  0  0  0  0  0  0  0
   57.8926   26.8068   47.4154 H   0  0  0  0  0  0  0  0  0  0  0  0
   56.8400   25.2356   47.6461 H   0  0  0  0  0  0  0  0  0  0  0  0
  1  2  1  0
  2  3  1  0
  3  4  1  0
  4  5  1  0
  5  6  2  0
  5  7  1  0
  7  8  1  0
  8  9  1  0
  9 10  1  0
  9 11  2  0
 11 12  1  0
 12 13  1  0
 12 14  2  0
 14 15  1  0
 15 16  1  0
 15 17  1  0
 15 18  1  0
 14 19  1  0
 19 20  1  0
 20 21  1  0
 20 22  1  0
 22 23  2  0
 23 24  1  0
 23 25  1  0
 25 26  1  0
 25 27  2  0
 27 28  1  0
 27 29  1  0
 29 30  1  0
 30 31  2  0
 31 32  1  0
 31 33  1  0
 33 34  1  0
 33 35  2  0
 35 36  1  0
 35 37  1  0
 37 38  1  0
 37 39  2  0
 39 40  1  0
 29 41  2  0
 41 42  1  0
 19 43  1  0
 43 44  2  0
 44 45  1  0
 44 46  1  0
  8  3  2  0
 43 11  1  0
 41 22  1  0
 39 30  1  0
M  CHG  3   4  -1   7  -1  42  -1
M  END
>  <UniqueID>  (1) 
1

>  <SMILES>  (1) 
C=c1/c(=C/c2[n-]c(=O)[n-]c2O)cc(C)n1Nc1cccc(-c2ccccc2)c1[O-]

>  <Energy>  (1) 
125.83825134136664

>  <Genealogy>  (1) 
C=c1c(=Cc2[n-]c(=O)[n-]c2O)cc(C)n1Nc1cccc(-c2ccccc2)c1[O-] (protonated)
C=c1/c(=C/c2[n-]c(=O)[n-]c2O)cc(C)n1Nc1cccc(-c2ccccc2)c1[O-] (cis-trans isomerization)
C=c1/c(=C/c2[n-]c(=O)[n-]c2O)cc(C)n1Nc1cccc(-c2ccccc2)c1[O-] (3D coordinates assigned)
C=c1/c(=C/c2[n-]c(=O)[n-]c2O)cc(C)n1Nc1cccc(-c2ccccc2)c1[O-] (optimized conformer: 125.83825134136664 kcal/mol)

>  <smiles>  (1) 
C=c1c(=Cc2[nH]c(=O)[nH]c2O)cc(C)n1Nc1cccc(-c2ccccc2)c1O

>  <score_type>  (1) 
oracle

>  <origin>  (1) 
adg

>  <m_score__min__energy>  (1) 
-14.65

>  <m_primary>  (1) 
energy

$$$$
1:0
     RDKit          3D

 50 53  0  0  0  0  0  0  0  0999 V2000
   55.0086   27.7266   54.1907 H   0  0  0  0  0  0  0  0  0  0  0  0
   54.2740   28.4160   53.7490 C   0  0  0  0  0  0  0  0  0  0  0  0
   53.1979   28.2390   53.8928 H   0  0  0  0  0  0  0  0  0  0  0  0
   54.6910   29.4740   53.0340 C   0  0  0  0  0  0  0  0  0  0  0  0
   53.8870   30.4410   52.4090 C   0  0  0  0  0  0  0  0  0  0  0  0
   52.5600   30.4760   52.1830 C   0  0  0  0  0  0  0  0  0  0  0  0
   51.9022   30.1647   53.0078 H   0  0  0  0  0  0  0  0  0  0  0  0
   51.9130   30.8940   50.9300 C   0  0  0  0  0  0  0  0  0  0  0  0
   51.7770   30.0920   49.8600 N   0  0  0  0  0  0  0  0  0  0  0  0
   51.0190   30.8250   49.0150 C   0  0  0  0  0  0  0  0  0  0  0  0
   50.6830   30.4120   47.8750 O   0  0  0  0  0  0  0  0  0  0  0  0
   50.6380   32.0290   49.4930 N   0  0  0  0  0  0  0  0  0  0  0  0
   51.1990   32.0520   50.7120 C   0  0  0  0  0  0  0  0  0  0  0  0
   51.0360   33.0940   51.6170 O   0  0  0  0  0  0  0  0  0  0  0  0
   54.7420   31.4530   52.0070 C   0  0  0  0  0  0  0  0  0  0  0  0
   54.4554   32.3997   51.5257 H   0  0  0  0  0  0  0  0  0  0  0  0
   56.0220   31.0480   52.3250 C   0  0  0  0  0  0  0  0  0  0  0  0
   57.2590   31.8340   52.0120 C   0  0  0  0  0  0  0  0  0  0  0  0
   57.7445   32.1425   52.9496 H   0  0  0  0  0  0  0  0  0  0  0  0
   57.9519   31.2102   51.4283 H   0  0  0  0  0  0  0  0  0  0  0  0
   56.9886   32.7263   51.4283 H   0  0  0  0  0  0  0  0  0  0  0  0
   55.9940   29.8500   52.9540 N   0  0  0  0  0  0  0  0  0  0  0  0
   57.1350   29.1220   53.4400 C   0  0  0  0  0  0  0  0  0  0  0  0
   58.0400   28.6170   52.5580 N   0  0  0  0  0  0  0  0  0  0  0  0
   59.1300   27.9150   52.9630 C   0  0  0  0  0  0  0  0  0  0  0  0
   59.8403   27.5281   52.2175 H   0  0  0  0  0  0  0  0  0  0  0  0
   59.3540   27.6810   54.3300 C   0  0  0  0  0  0  0  0  0  0  0  0
   60.5440   26.9280   54.7880 C   0  0  0  0  0  0  0  0  0  0  0  0
   60.4370   26.1190   55.7510 O   0  0  0  0  0  0  0  0  0  0  0  0
   61.8250   27.1160   54.1640 N   0  0  0  0  0  0  0  0  0  0  0  0
   62.4410   25.9950   53.4470 C   0  0  0  0  0  0  0  0  0  0  0  0
   61.6634   25.4648   52.8777 H   0  0  0  0  0  0  0  0  0  0  0  0
   62.9091   25.3288   54.1866 H   0  0  0  0  0  0  0  0  0  0  0  0
   63.5060   26.4650   52.4970 C   0  0  0  0  0  0  0  0  0  0  0  0
   63.9590   25.6530   51.6460 O   0  0  0  0  0  0  0  0  0  0  0  0
   64.0540   27.7950   52.5900 N   0  0  0  0  0  0  0  0  0  0  0  0
   65.2020   28.1630   51.7590 C   0  0  0  0  0  0  0  0  0  0  0  0
   66.0500   28.4348   52.4048 H   0  0  0  0  0  0  0  0  0  0  0  0
   65.4834   27.3100   51.1240 H   0  0  0  0  0  0  0  0  0  0  0  0
   64.9351   29.0206   51.1240 H   0  0  0  0  0  0  0  0  0  0  0  0
   63.3780   28.8260   53.3870 C   0  0  0  0  0  0  0  0  0  0  0  0
   62.6282   29.3302   52.7596 H   0  0  0  0  0  0  0  0  0  0  0  0
   64.1332   29.5431   53.7412 H   0  0  0  0  0  0  0  0  0  0  0  0
   62.6830   28.2180   54.6010 C   0  0  0  0  0  0  0  0  0  0  0  0
   62.0712   28.9858   55.0973 H   0  0  0  0  0  0  0  0  0  0  0  0
   63.4371   27.8408   55.3074 H   0  0  0  0  0  0  0  0  0  0  0  0
   58.4360   28.2010   55.2550 C   0  0  0  0  0  0  0  0  0  0  0  0
   58.5952   28.0452   56.3322 H   0  0  0  0  0  0  0  0  0  0  0  0
   57.3220   28.9150   54.8130 C   0  0  0  0  0  0  0  0  0  0  0  0
   56.5957   29.3126   55.5372 H   0  0  0  0  0  0  0  0  0  0  0  0
  1  2  1  0
  2  3  1  0
  2  4  2  0
  4  5  1  0
  5  6  2  0
  6  7  1  0
  6  8  1  0
  8  9  1  0
  9 10  1  0
 10 11  2  0
 10 12  1  0
 12 13  1  0
 13 14  1  0
  5 15  1  0
 15 16  1  0
 15 17  2  0
 17 18  1  0
 18 19  1  0
 18 20  1  0
 18 21  1  0
 17 22  1  0
 22 23  1  0
 23 24  2  0
 24 25  1  0
 25 26  1  0
 25 27  2  0
 27 28  1  0
 28 29  2  0
 28 30  1  0
 30 31  1  0
 31 32  1  0
 31 33  1  0
 31 34  1  0
 34 35  2  0
 34 36  1  0
 36 37  1  0
 37 38  1  0
 37 39  1  0
 37 40  1  0
 36 41  1  0
 41 42  1  0
 41 43  1  0
 41 44  1  0
 44 45  1  0
 44 46  1  0
 27 47  1  0
 47 48  1  0
 47 49  2  0
 49 50  1  0
 22  4  1  0
 49 23  1  0
 13  8  2  0
 44 30  1  0
M  CHG  3   9  -1  12  -1  14  -1
M  END
>  <UniqueID>  (2) 
2

>  <SMILES>  (2) 
C=c1/c(=C\c2[n-]c(=O)[n-]c2[O-])cc(C)n1-c1ccc(C(=O)N2CCN(C)C(=O)C2)cn1

>  <Energy>  (2) 
132.73718475930636

>  <Genealogy>  (2) 
C=c1c(=Cc2[n-]c(=O)[n-]c2[O-])cc(C)n1-c1ccc(C(=O)N2CCN(C)C(=O)C2)cn1 (protonated)
C=c1/c(=C\c2[n-]c(=O)[n-]c2[O-])cc(C)n1-c1ccc(C(=O)N2CCN(C)C(=O)C2)cn1 (cis-trans isomerization)
C=c1/c(=C\c2[n-]c(=O)[n-]c2[O-])cc(C)n1-c1ccc(C(=O)N2CCN(C)C(=O)C2)cn1 (3D coordinates assigned)
C=c1/c(=C\c2[n-]c(=O)[n-]c2[O-])cc(C)n1-c1ccc(C(=O)N2CCN(C)C(=O)C2)cn1 (nonaromatic ring conformer: 132.73718475930636 kcal/mol)

>  <smiles>  (2) 
C=c1c(=Cc2[nH]c(=O)[nH]c2O)cc(C)n1-c1ccc(C(=O)N2CCN(C)C(=O)C2)cn1

>  <score_type>  (2) 
oracle

>  <origin>  (2) 
adg

>  <m_score__min__energy>  (2) 
-16.02

>  <m_primary>  (2) 
energy

$$$$
2:0
     RDKit          3D

 30 31  0  0  0  0  0  0  0  0999 V2000
   57.8250   33.1200   47.3320 C   0  0  0  0  0  0  0  0  0  0  0  0
   58.4100   33.2310   45.9290 C   0  0  0  0  0  0  0  0  0  0  0  0
   57.4380   32.8790   44.9480 O   0  0  0  0  0  0  0  0  0  0  0  0
   57.6130   31.8420   44.0210 C   0  0  0  0  0  0  0  0  0  0  0  0
   57.8870   32.1130   42.8190 O   0  0  0  0  0  0  0  0  0  0  0  0
   57.4820   30.4310   44.4650 C   0  0  0  0  0  0  0  0  0  0  0  0
   58.6320   29.6610   44.6960 C   0  0  0  0  0  0  0  0  0  0  0  0
   58.5230   28.3710   45.1040 N   0  0  0  0  0  0  0  0  0  0  0  0
   57.3080   27.7950   45.3080 C   0  0  0  0  0  0  0  0  0  0  0  0
   57.2230   26.3750   45.7120 C   0  0  0  0  0  0  0  0  0  0  0  0
   58.3990   25.6020   45.7080 C   0  0  0  0  0  0  0  0  0  0  0  0
   58.3560   24.2380   46.0140 C   0  0  0  0  0  0  0  0  0  0  0  0
   59.5240   23.4860   45.9950 O   0  0  0  0  0  0  0  0  0  0  0  0
   57.1400   23.6310   46.3280 C   0  0  0  0  0  0  0  0  0  0  0  0
   55.9670   24.3900   46.3560 C   0  0  0  0  0  0  0  0  0  0  0  0
   55.9970   25.7590   46.0710 C   0  0  0  0  0  0  0  0  0  0  0  0
   54.8040   26.4760   46.1890 O   0  0  0  0  0  0  0  0  0  0  0  0
   56.1800   28.5140   45.0740 N   0  0  0  0  0  0  0  0  0  0  0  0
   56.2330   29.8080   44.6660 C   0  0  0  0  0  0  0  0  0  0  0  0
   55.1560   30.4310   44.4730 O   0  0  0  0  0  0  0  0  0  0  0  0
   58.6222   33.2713   48.0747 H   0  0  0  0  0  0  0  0  0  0  0  0
   57.0479   33.8867   47.4669 H   0  0  0  0  0  0  0  0  0  0  0  0
   57.3827   32.1219   47.4669 H   0  0  0  0  0  0  0  0  0  0  0  0
   58.7390   34.2663   45.7560 H   0  0  0  0  0  0  0  0  0  0  0  0
   59.2622   32.5404   45.8458 H   0  0  0  0  0  0  0  0  0  0  0  0
   59.6271   30.1051   44.5457 H   0  0  0  0  0  0  0  0  0  0  0  0
   59.3611   26.0751   45.4619 H   0  0  0  0  0  0  0  0  0  0  0  0
   57.1044   22.5550   46.5536 H   0  0  0  0  0  0  0  0  0  0  0  0
   55.0109   23.9062   46.6046 H   0  0  0  0  0  0  0  0  0  0  0  0
   54.7690   27.4750   46.3410 H   0  0  0  0  0  0  0  0  0  0  0  0
  1  2  1  0
  2  3  1  0
  3  4  1  0
  4  5  2  0
  4  6  1  0
  6  7  2  0
  7  8  1  0
  8  9  1  0
  9 10  1  0
 10 11  2  0
 11 12  1  0
 12 13  1  0
 12 14  2  0
 14 15  1  0
 15 16  2  0
 16 17  1  0
  9 18  2  0
 18 19  1  0
 19 20  2  0
 19  6  1  0
 16 10  1  0
  1 21  1  0
  1 22  1  0
  1 23  1  0
  2 24  1  0
  2 25  1  0
  7 26  1  0
 11 27  1  0
 14 28  1  0
 15 29  1  0
 17 30  1  0
M  CHG  2   8  -1  13  -1
M  END
>  <UniqueID>  (3) 
3

>  <SMILES>  (3) 
CCOC(=O)c1c[n-]c(-c2cc([O-])ccc2O)nc1=O

>  <Energy>  (3) 
36.22883586025157

>  <Genealogy>  (3) 
CCOC(=O)c1c[n-]c(-c2cc([O-])ccc2O)nc1=O (protonated)
CCOC(=O)c1c[n-]c(-c2cc([O-])ccc2O)nc1=O (3D coordinates assigned)
CCOC(=O)c1c[n-]c(-c2cc([O-])ccc2O)nc1=O (optimized conformer: 36.22883586025157 kcal/mol)

>  <smiles>  (3) 
CCOC(=O)c1c[nH]c(-c2cc(O)ccc2O)nc1=O

>  <score_type>  (3) 
oracle

>  <origin>  (3) 
adg

>  <m_score__min__energy>  (3) 
-10.800000000000001

>  <m_primary>  (3) 
energy

$$$$
3:0
     RDKit          3D

 56 59  0  0  0  0  0  0  0  0999 V2000
   58.8800   29.9750   44.7220 C   0  0  0  0  0  0  0  0  0  0  0  0
   58.7190   29.6030   46.0020 C   0  0  0  0  0  0  0  0  0  0  0  0
   58.2280   28.3740   46.4620 C   0  0  0  0  0  0  0  0  0  0  0  0
   57.8390   27.3250   45.7080 C   0  0  0  0  0  0  0  0  0  0  0  0
   57.2380   26.0750   46.2220 C   0  0  0  0  0  0  0  0  0  0  0  0
   57.9140   25.0080   46.6860 N   0  0  0  0  0  0  0  0  0  0  0  0
   56.9370   24.1620   47.0800 C   0  0  0  0  0  0  0  0  0  0  0  0
   57.1790   23.0290   47.5720 O   0  0  0  0  0  0  0  0  0  0  0  0
   55.6830   24.6250   46.9040 N   0  0  0  0  0  0  0  0  0  0  0  0
   55.8910   25.8380   46.3640 C   0  0  0  0  0  0  0  0  0  0  0  0
   54.8700   26.7080   46.0070 O   0  0  0  0  0  0  0  0  0  0  0  0
   58.2490   28.4490   47.8520 C   0  0  0  0  0  0  0  0  0  0  0  0
   58.7470   29.6950   48.1760 C   0  0  0  0  0  0  0  0  0  0  0  0
   58.9220   30.2160   49.5700 C   0  0  0  0  0  0  0  0  0  0  0  0
   59.0180   30.3970   47.0560 N   0  0  0  0  0  0  0  0  0  0  0  0
   59.5380   31.7360   47.0150 C   0  0  0  0  0  0  0  0  0  0  0  0
   60.7400   32.0230   47.6760 C   0  0  0  0  0  0  0  0  0  0  0  0
   61.2780   33.3200   47.6520 C   0  0  0  0  0  0  0  0  0  0  0  0
   62.5140   33.6130   48.3340 N   0  0  0  0  0  0  0  0  0  0  0  0
   62.5590   34.5900   49.4270 C   0  0  0  0  0  0  0  0  0  0  0  0
   63.3080   34.0140   50.6480 C   0  0  0  0  0  0  0  0  0  0  0  0
   64.2240   32.8990   50.2960 N   0  0  0  0  0  0  0  0  0  0  0  0
   65.2450   32.7430   51.3140 C   0  0  0  0  0  0  0  0  0  0  0  0
   66.4180   31.8370   51.0790 C   0  0  0  0  0  0  0  0  0  0  0  0
   65.1640   33.3540   52.3710 O   0  0  0  0  0  0  0  0  0  0  0  0
   64.8470   33.0900   48.9700 C   0  0  0  0  0  0  0  0  0  0  0  0
   63.7760   33.0200   47.8690 C   0  0  0  0  0  0  0  0  0  0  0  0
   60.5860   34.3340   46.9710 C   0  0  0  0  0  0  0  0  0  0  0  0
   59.3870   34.0530   46.3130 C   0  0  0  0  0  0  0  0  0  0  0  0
   58.8530   32.7560   46.3260 C   0  0  0  0  0  0  0  0  0  0  0  0
   57.5590   32.4660   45.6190 C   0  0  0  0  0  0  0  0  0  0  0  0
   59.2772   30.9730   44.4851 H   0  0  0  0  0  0  0  0  0  0  0  0
   58.6147   29.2817   43.9102 H   0  0  0  0  0  0  0  0  0  0  0  0
   57.9806   27.4061   44.6202 H   0  0  0  0  0  0  0  0  0  0  0  0
   57.9303   27.6664   48.5562 H   0  0  0  0  0  0  0  0  0  0  0  0
   58.6576   29.4289   50.2915 H   0  0  0  0  0  0  0  0  0  0  0  0
   59.9698   30.5148   49.7209 H   0  0  0  0  0  0  0  0  0  0  0  0
   58.2670   31.0868   49.7209 H   0  0  0  0  0  0  0  0  0  0  0  0
   61.2672   31.2246   48.2189 H   0  0  0  0  0  0  0  0  0  0  0  0
   63.0782   35.4955   49.0799 H   0  0  0  0  0  0  0  0  0  0  0  0
   61.5284   34.8303   49.7272 H   0  0  0  0  0  0  0  0  0  0  0  0
   63.8981   34.8198   51.1090 H   0  0  0  0  0  0  0  0  0  0  0  0
   62.5512   33.6119   51.3377 H   0  0  0  0  0  0  0  0  0  0  0  0
   63.6600   32.0150   50.2610 H   0  0  0  0  0  0  0  0  0  0  0  0
   66.8331   31.5164   52.0459 H   0  0  0  0  0  0  0  0  0  0  0  0
   66.0913   30.9545   50.5094 H   0  0  0  0  0  0  0  0  0  0  0  0
   67.1894   32.3761   50.5094 H   0  0  0  0  0  0  0  0  0  0  0  0
   65.3390   34.0733   48.9372 H   0  0  0  0  0  0  0  0  0  0  0  0
   65.5887   32.2951   48.8024 H   0  0  0  0  0  0  0  0  0  0  0  0
   64.1300   33.5711   46.9852 H   0  0  0  0  0  0  0  0  0  0  0  0
   63.5985   31.9646   47.6146 H   0  0  0  0  0  0  0  0  0  0  0  0
   60.9910   35.3566   46.9557 H   0  0  0  0  0  0  0  0  0  0  0  0
   58.8566   34.8557   45.7798 H   0  0  0  0  0  0  0  0  0  0  0  0
   56.7672   32.2885   46.3617 H   0  0  0  0  0  0  0  0  0  0  0  0
   57.2849   33.3250   44.9889 H   0  0  0  0  0  0  0  0  0  0  0  0
   57.6777   31.5722   44.9889 H   0  0  0  0  0  0  0  0  0  0  0  0
  1  2  2  0
  2  3  1  0
  3  4  2  3
  4  5  1  0
  5  6  1  0
  6  7  1  0
  7  8  2  0
  7  9  1  0
  9 10  1  0
 10 11  1  0
  3 12  1  0
 12 13  2  0
 13 14  1  0
 13 15  1  0
 15 16  1  0
 16 17  2  0
 17 18  1  0
 18 19  1  0
 19 20  1  0
 20 21  1  0
 21 22  1  0
 22 23  1  0
 23 24  1  0
 23 25  2  0
 22 26  1  0
 26 27  1  0
 18 28  2  0
 28 29  1  0
 29 30  2  0
 30 31  1  0
 15  2  1  0
 30 16  1  0
 10  5  2  0
 27 19  1  0
  1 32  1  0
  1 33  1  0
  4 34  1  0
 12 35  1  0
 14 36  1  0
 14 37  1  0
 14 38  1  0
 17 39  1  0
 20 40  1  0
 20 41  1  0
 21 42  1  0
 21 43  1  0
 22 44  1  0
 24 45  1  0
 24 46  1  0
 24 47  1  0
 26 48  1  0
 26 49  1  0
 27 50  1  0
 27 51  1  0
 28 52  1  0
 29 53  1  0
 31 54  1  0
 31 55  1  0
 31 56  1  0
M  CHG  4   6  -1   9  -1  11  -1  22   1
M  END
>  <UniqueID>  (4) 
4

>  <SMILES>  (4) 
C=c1c(=Cc2[n-]c(=O)[n-]c2[O-])cc(C)n1-c1cc(N2CC[NH+](C(C)=O)CC2)ccc1C

>  <Energy>  (4) 
135.83822602382557

>  <Genealogy>  (4) 
C=c1c(=Cc2[n-]c(=O)[n-]c2[O-])cc(C)n1-c1cc(N2CC[NH+](C(C)=O)CC2)ccc1C (protonated)
C=c1c(=Cc2[n-]c(=O)[n-]c2[O-])cc(C)n1-c1cc(N2CC[NH+](C(C)=O)CC2)ccc1C (3D coordinates assigned)
C=c1c(=Cc2[n-]c(=O)[n-]c2[O-])cc(C)n1-c1cc(N2CC[NH+](C(C)=O)CC2)ccc1C (nonaromatic ring conformer: 135.83822602382557 kcal/mol)

>  <smiles>  (4) 
C=c1c(=Cc2[nH]c(=O)[nH]c2O)cc(C)n1-c1cc(N2CCN(C(C)=O)CC2)ccc1C

>  <score_type>  (4) 
oracle

>  <origin>  (4) 
adg

>  <m_score__min__energy>  (4) 
-15.08

>  <m_primary>  (4) 
energy

$$$$
4:0
     RDKit          3D

 50 53  0  0  0  0  0  0  0  0999 V2000
   59.7020   29.5766   49.7443 H   0  0  0  0  0  0  0  0  0  0  0  0
   59.4390   29.0930   48.7920 C   0  0  0  0  0  0  0  0  0  0  0  0
   59.6603   28.0267   48.6371 H   0  0  0  0  0  0  0  0  0  0  0  0
   58.8480   29.8040   47.8190 C   0  0  0  0  0  0  0  0  0  0  0  0
   58.4500   29.3420   46.5530 C   0  0  0  0  0  0  0  0  0  0  0  0
   58.3760   28.0950   46.0480 C   0  0  0  0  0  0  0  0  0  0  0  0
   59.2649   27.7109   45.5261 H   0  0  0  0  0  0  0  0  0  0  0  0
   57.2100   27.2030   46.1340 C   0  0  0  0  0  0  0  0  0  0  0  0
   57.2770   25.9310   46.5640 N   0  0  0  0  0  0  0  0  0  0  0  0
   56.0300   25.4610   46.3420 C   0  0  0  0  0  0  0  0  0  0  0  0
   55.6890   24.2860   46.6330 O   0  0  0  0  0  0  0  0  0  0  0  0
   55.1840   26.3430   45.7670 N   0  0  0  0  0  0  0  0  0  0  0  0
   55.9500   27.4360   45.6270 C   0  0  0  0  0  0  0  0  0  0  0  0
   55.5180   28.6100   45.0210 O   0  0  0  0  0  0  0  0  0  0  0  0
   58.1200   30.4680   45.8170 C   0  0  0  0  0  0  0  0  0  0  0  0
   57.8065   30.4922   44.7629 H   0  0  0  0  0  0  0  0  0  0  0  0
   58.2590   31.5520   46.6560 C   0  0  0  0  0  0  0  0  0  0  0  0
   58.0470   32.9760   46.2380 C   0  0  0  0  0  0  0  0  0  0  0  0
   57.9526   33.6103   47.1317 H   0  0  0  0  0  0  0  0  0  0  0  0
   58.9048   33.3135   45.6378 H   0  0  0  0  0  0  0  0  0  0  0  0
   57.1281   33.0490   45.6378 H   0  0  0  0  0  0  0  0  0  0  0  0
   58.6920   31.1520   47.8730 N   0  0  0  0  0  0  0  0  0  0  0  0
   59.0280   32.0220   48.9710 C   0  0  0  0  0  0  0  0  0  0  0  0
   58.3170   31.9000   50.1760 C   0  0  0  0  0  0  0  0  0  0  0  0
   57.5491   31.1192   50.2796 H   0  0  0  0  0  0  0  0  0  0  0  0
   58.5770   32.7620   51.2440 C   0  0  0  0  0  0  0  0  0  0  0  0
   57.6810   32.5960   52.7430 Cl  0  0  0  0  0  0  0  0  0  0  0  0
   59.5420   33.7620   51.1140 C   0  0  0  0  0  0  0  0  0  0  0  0
   59.7417   34.4445   51.9533 H   0  0  0  0  0  0  0  0  0  0  0  0
   60.2550   33.8980   49.9200 C   0  0  0  0  0  0  0  0  0  0  0  0
   61.0073   34.6944   49.8217 H   0  0  0  0  0  0  0  0  0  0  0  0
   60.0190   33.0260   48.8440 C   0  0  0  0  0  0  0  0  0  0  0  0
   60.8300   33.1950   47.6140 C   0  0  0  0  0  0  0  0  0  0  0  0
   60.6150   34.2210   46.9100 O   0  0  0  0  0  0  0  0  0  0  0  0
   61.8360   32.2170   47.2190 N   0  0  0  0  0  0  0  0  0  0  0  0
   61.4540   31.6960   46.3980 H   0  0  0  0  0  0  0  0  0  0  0  0
   62.0980   31.2180   48.2830 C   0  0  0  0  0  0  0  0  0  0  0  0
   61.1394   30.7831   48.6024 H   0  0  0  0  0  0  0  0  0  0  0  0
   62.7698   30.4534   47.8657 H   0  0  0  0  0  0  0  0  0  0  0  0
   62.7920   31.8310   49.5060 C   0  0  0  0  0  0  0  0  0  0  0  0
   62.0960   32.5127   50.0168 H   0  0  0  0  0  0  0  0  0  0  0  0
   63.0946   31.0262   50.1920 H   0  0  0  0  0  0  0  0  0  0  0  0
   64.0060   32.5930   49.0740 C   0  0  0  0  0  0  0  0  0  0  0  0
   65.0270   32.5560   49.7440 O   0  0  0  0  0  0  0  0  0  0  0  0
   63.9180   33.4940   47.8790 C   0  0  0  0  0  0  0  0  0  0  0  0
   63.4237   34.4325   48.1704 H   0  0  0  0  0  0  0  0  0  0  0  0
   64.9356   33.6953   47.5131 H   0  0  0  0  0  0  0  0  0  0  0  0
   63.1090   32.8260   46.7490 C   0  0  0  0  0  0  0  0  0  0  0  0
   62.8730   33.5875   45.9911 H   0  0  0  0  0  0  0  0  0  0  0  0
   63.7282   32.0136   46.3408 H   0  0  0  0  0  0  0  0  0  0  0  0
  1  2  1  0
  2  3  1  0
  2  4  2  0
  4  5  1  0
  5  6  2  0
  6  7  1  0
  6  8  1  0
  8  9  1  0
  9 10  1  0
 10 11  2  0
 10 12  1  0
 12 13  1  0
 13 14  1  0
  5 15  1  0
 15 16  1  0
 15 17  2  0
 17 18  1  0
 18 19  1  0
 18 20  1  0
 18 21  1  0
 17 22  1  0
 22 23  1  0
 23 24  2  0
 24 25  1  0
 24 26  1  0
 26 27  1  0
 26 28  2  0
 28 29  1  0
 28 30  1  0
 30 31  1  0
 30 32  2  0
 32 33  1  0
 33 34  2  0
 33 35  1  0
 35 36  1  0
 35 37  1  0
 37 38  1  0
 37 39  1  0
 37 40  1  0
 40 41  1  0
 40 42  1  0
 40 43  1  0
 43 44  2  0
 43 45  1  0
 45 46  1  0
 45 47  1  0
 45 48  1  0
 48 49  1  0
 48 50  1  0
 22  4  1  0
 32 23  1  0
 48 35  1  0
 13  8  2  0
M  CHG  4   9  -1  12  -1  14  -1  35   1
M  END
>  <UniqueID>  (5) 
5

>  <SMILES>  (5) 
C=c1/c(=C\c2[n-]c(=O)[n-]c2[O-])cc(C)n1-c1cc(Cl)ccc1C(=O)[NH+]1CCC(=O)CC1

>  <Energy>  (5) 
138.23799429965797

>  <Genealogy>  (5) 
C=c1c(=Cc2[n-]c(=O)[n-]c2[O-])cc(C)n1-c1cc(Cl)ccc1C(=O)[NH+]1CCC(=O)CC1 (protonated)
C=c1/c(=C\c2[n-]c(=O)[n-]c2[O-])cc(C)n1-c1cc(Cl)ccc1C(=O)[NH+]1CCC(=O)CC1 (cis-trans isomerization)
C=c1/c(=C\c2[n-]c(=O)[n-]c2[O-])cc(C)n1-c1cc(Cl)ccc1C(=O)[NH+]1CCC(=O)CC1 (3D coordinates assigned)
C=c1/c(=C\c2[n-]c(=O)[n-]c2[O-])cc(C)n1-c1cc(Cl)ccc1C(=O)[NH+]1CCC(=O)CC1 (nonaromatic ring conformer: 138.23799429965797 kcal/mol)

>  <smiles>  (5) 
C=c1c(=Cc2[nH]c(=O)[nH]c2O)cc(C)n1-c1cc(Cl)ccc1C(=O)N1CCC(=O)CC1

>  <score_type>  (5) 
oracle

>  <origin>  (5) 
adg

>  <m_score__min__energy>  (5) 
-14.800000000000001

>  <m_primary>  (5) 
energy

$$$$
5:0
     RDKit          3D

 39 41  0  0  0  0  0  0  0  0999 V2000
   55.9530   24.6750   47.5780 O   0  0  0  0  0  0  0  0  0  0  0  0
   57.0260   25.0060   47.0090 C   0  0  0  0  0  0  0  0  0  0  0  0
   58.0350   24.0080   46.8010 N   0  0  0  0  0  0  0  0  0  0  0  0
   58.1560   23.1480   45.6590 C   0  0  0  0  0  0  0  0  0  0  0  0
   59.4070   22.6980   45.1990 C   0  0  0  0  0  0  0  0  0  0  0  0
   59.4850   21.8490   44.0900 C   0  0  0  0  0  0  0  0  0  0  0  0
   58.3190   21.4310   43.4440 C   0  0  0  0  0  0  0  0  0  0  0  0
   57.0710   21.8530   43.9120 C   0  0  0  0  0  0  0  0  0  0  0  0
   55.9100   21.4280   43.2770 O   0  0  0  0  0  0  0  0  0  0  0  0
   56.9900   22.7030   45.0210 C   0  0  0  0  0  0  0  0  0  0  0  0
   57.1780   26.3900   46.4980 C   0  0  0  0  0  0  0  0  0  0  0  0
   58.3920   27.0970   46.6250 C   0  0  0  0  0  0  0  0  0  0  0  0
   59.5690   26.4750   47.1710 N   0  0  0  0  0  0  0  0  0  0  0  0
   60.7810   27.2320   47.4800 C   0  0  0  0  0  0  0  0  0  0  0  0
   60.4300   28.5030   48.2080 C   0  0  0  0  0  0  0  0  0  0  0  0
   59.8890   28.4310   49.5030 C   0  0  0  0  0  0  0  0  0  0  0  0
   59.5350   29.5980   50.1870 C   0  0  0  0  0  0  0  0  0  0  0  0
   59.7150   30.8450   49.5840 C   0  0  0  0  0  0  0  0  0  0  0  0
   59.3700   31.9750   50.2490 F   0  0  0  0  0  0  0  0  0  0  0  0
   60.2500   30.9280   48.2950 C   0  0  0  0  0  0  0  0  0  0  0  0
   60.6060   29.7640   47.6050 C   0  0  0  0  0  0  0  0  0  0  0  0
   61.1210   29.8710   46.3540 F   0  0  0  0  0  0  0  0  0  0  0  0
   58.4620   28.3800   46.1810 N   0  0  0  0  0  0  0  0  0  0  0  0
   57.3990   29.0010   45.6150 C   0  0  0  0  0  0  0  0  0  0  0  0
   57.5140   30.1910   45.2200 O   0  0  0  0  0  0  0  0  0  0  0  0
   56.2190   28.3400   45.4720 N   0  0  0  0  0  0  0  0  0  0  0  0
   55.1440   28.9800   44.8940 O   0  0  0  0  0  0  0  0  0  0  0  0
   56.0860   27.0550   45.9060 C   0  0  0  0  0  0  0  0  0  0  0  0
   54.9720   26.4720   45.7920 O   0  0  0  0  0  0  0  0  0  0  0  0
   60.3266   23.0147   45.7129 H   0  0  0  0  0  0  0  0  0  0  0  0
   60.4661   21.5099   43.7260 H   0  0  0  0  0  0  0  0  0  0  0  0
   58.3828   20.7699   42.5672 H   0  0  0  0  0  0  0  0  0  0  0  0
   56.0060   23.0235   45.3939 H   0  0  0  0  0  0  0  0  0  0  0  0
   59.5940   25.4430   47.3280 H   0  0  0  0  0  0  0  0  0  0  0  0
   61.4395   26.6203   48.1141 H   0  0  0  0  0  0  0  0  0  0  0  0
   61.2939   27.4867   46.5408 H   0  0  0  0  0  0  0  0  0  0  0  0
   59.7432   27.4512   49.9812 H   0  0  0  0  0  0  0  0  0  0  0  0
   59.1142   29.5340   51.2013 H   0  0  0  0  0  0  0  0  0  0  0  0
   60.3914   31.9110   47.8220 H   0  0  0  0  0  0  0  0  0  0  0  0
  1  2  2  0
  2  3  1  0
  3  4  1  0
  4  5  2  0
  5  6  1  0
  6  7  2  0
  7  8  1  0
  8  9  1  0
  8 10  2  0
  2 11  1  0
 11 12  2  0
 12 13  1  0
 13 14  1  0
 14 15  1  0
 15 16  2  0
 16 17  1  0
 17 18  2  0
 18 19  1  0
 18 20  1  0
 20 21  2  0
 21 22  1  0
 12 23  1  0
 23 24  1  0
 24 25  2  0
 24 26  1  0
 26 27  1  0
 26 28  1  0
 28 29  2  0
 10  4  1  0
 28 11  1  0
 21 15  1  0
  5 30  1  0
  6 31  1  0
  7 32  1  0
 10 33  1  0
 13 34  1  0
 14 35  1  0
 14 36  1  0
 16 37  1  0
 17 38  1  0
 20 39  1  0
M  CHG  4   3  -1   9  -1  23  -1  27  -1
M  END
>  <UniqueID>  (6) 
6

>  <SMILES>  (6) 
O=C([N-]c1cccc([O-])c1)c1c(NCc2ccc(F)cc2F)[n-]c(=O)n([O-])c1=O

>  <Energy>  (6) 
52.92618316080141

>  <Genealogy>  (6) 
O=C([N-]c1cccc([O-])c1)c1c(NCc2ccc(F)cc2F)[n-]c(=O)n([O-])c1=O (protonated)
O=C([N-]c1cccc([O-])c1)c1c(NCc2ccc(F)cc2F)[n-]c(=O)n([O-])c1=O (3D coordinates assigned)
O=C([N-]c1cccc([O-])c1)c1c(NCc2ccc(F)cc2F)[n-]c(=O)n([O-])c1=O (optimized conformer: 52.92618316080141 kcal/mol)

>  <smiles>  (6) 
O=C(Nc1cccc(O)c1)c1c(NCc2ccc(F)cc2F)[nH]c(=O)n(O)c1=O

>  <score_type>  (6) 
oracle

>  <origin>  (6) 
adg

>  <m_score__min__energy>  (6) 
-15.050000000000001

>  <m_primary>  (6) 
energy

$$$$
6:0
     RDKit          3D

 64 69  0  0  0  0  0  0  0  0999 V2000
   55.8800   31.4800   51.6260 C   0  0  0  0  0  0  0  0  0  0  0  0
   55.3490   30.4690   52.3300 C   0  0  0  0  0  0  0  0  0  0  0  0
   53.9910   30.2710   52.6360 C   0  0  0  0  0  0  0  0  0  0  0  0
   52.9180   31.0730   52.4770 C   0  0  0  0  0  0  0  0  0  0  0  0
   52.0740   31.1580   51.2740 C   0  0  0  0  0  0  0  0  0  0  0  0
   52.1020   30.2810   50.2540 N   0  0  0  0  0  0  0  0  0  0  0  0
   51.2980   30.8500   49.3310 C   0  0  0  0  0  0  0  0  0  0  0  0
   51.0520   30.3110   48.2200 O   0  0  0  0  0  0  0  0  0  0  0  0
   50.7860   32.0470   49.6850 N   0  0  0  0  0  0  0  0  0  0  0  0
   51.3000   32.2330   50.9110 C   0  0  0  0  0  0  0  0  0  0  0  0
   51.0730   33.3680   51.6820 O   0  0  0  0  0  0  0  0  0  0  0  0
   53.9040   29.0200   53.2210 C   0  0  0  0  0  0  0  0  0  0  0  0
   55.1890   28.5260   53.3060 C   0  0  0  0  0  0  0  0  0  0  0  0
   55.5480   27.2060   53.9200 C   0  0  0  0  0  0  0  0  0  0  0  0
   56.0680   29.4050   52.7800 N   0  0  0  0  0  0  0  0  0  0  0  0
   57.4840   29.1810   52.6500 C   0  0  0  0  0  0  0  0  0  0  0  0
   58.2480   29.5300   51.5430 C   0  0  0  0  0  0  0  0  0  0  0  0
   59.5210   29.0800   51.8350 C   0  0  0  0  0  0  0  0  0  0  0  0
   60.7120   29.1560   51.1030 C   0  0  0  0  0  0  0  0  0  0  0  0
   60.7830   29.8680   49.7760 C   0  0  0  0  0  0  0  0  0  0  0  0
   60.0980   29.0660   48.7000 C   0  0  0  0  0  0  0  0  0  0  0  0
   60.4840   27.7400   48.4480 C   0  0  0  0  0  0  0  0  0  0  0  0
   59.8510   27.0180   47.4340 C   0  0  0  0  0  0  0  0  0  0  0  0
   58.8630   27.5950   46.7010 N   0  0  0  0  0  0  0  0  0  0  0  0
   58.4590   28.8730   46.9280 C   0  0  0  0  0  0  0  0  0  0  0  0
   57.5380   29.3720   46.2310 O   0  0  0  0  0  0  0  0  0  0  0  0
   59.0660   29.6310   47.9350 C   0  0  0  0  0  0  0  0  0  0  0  0
   61.8660   28.5860   51.6830 C   0  0  0  0  0  0  0  0  0  0  0  0
   61.8150   27.9650   52.9570 C   0  0  0  0  0  0  0  0  0  0  0  0
   63.0340   27.3520   53.5290 C   0  0  0  0  0  0  0  0  0  0  0  0
   62.9280   26.6450   54.5680 O   0  0  0  0  0  0  0  0  0  0  0  0
   64.3320   27.5510   52.9370 N   0  0  0  0  0  0  0  0  0  0  0  0
   65.1110   28.7610   53.2530 C   0  0  0  0  0  0  0  0  0  0  0  0
   65.8260   29.2690   52.0060 C   0  0  0  0  0  0  0  0  0  0  0  0
   66.6660   28.2110   51.4650 N   0  0  0  0  0  0  0  0  0  0  0  0
   66.1970   26.8620   51.4570 C   0  0  0  0  0  0  0  0  0  0  0  0
   66.9150   25.9540   50.9610 O   0  0  0  0  0  0  0  0  0  0  0  0
   64.8390   26.5240   52.0070 C   0  0  0  0  0  0  0  0  0  0  0  0
   60.5900   27.9050   53.6550 C   0  0  0  0  0  0  0  0  0  0  0  0
   59.4660   28.4800   53.0680 C   0  0  0  0  0  0  0  0  0  0  0  0
   58.2230   28.5290   53.5760 N   0  0  0  0  0  0  0  0  0  0  0  0
   56.9659   31.5205   51.4551 H   0  0  0  0  0  0  0  0  0  0  0  0
   55.2295   32.2685   51.2197 H   0  0  0  0  0  0  0  0  0  0  0  0
   52.6494   31.7224   53.3232 H   0  0  0  0  0  0  0  0  0  0  0  0
   52.9852   28.5156   53.5547 H   0  0  0  0  0  0  0  0  0  0  0  0
   55.5243   27.2930   55.0163 H   0  0  0  0  0  0  0  0  0  0  0  0
   54.8249   26.4426   53.5971 H   0  0  0  0  0  0  0  0  0  0  0  0
   56.5582   26.9140   53.5971 H   0  0  0  0  0  0  0  0  0  0  0  0
   57.9127   30.0504   50.6337 H   0  0  0  0  0  0  0  0  0  0  0  0
   60.2893   30.8469   49.8653 H   0  0  0  0  0  0  0  0  0  0  0  0
   61.8404   29.9955   49.5009 H   0  0  0  0  0  0  0  0  0  0  0  0
   61.2803   27.2725   49.0457 H   0  0  0  0  0  0  0  0  0  0  0  0
   60.1527   25.9804   47.2283 H   0  0  0  0  0  0  0  0  0  0  0  0
   58.7366   30.6630   48.1259 H   0  0  0  0  0  0  0  0  0  0  0  0
   62.8206   28.6242   51.1377 H   0  0  0  0  0  0  0  0  0  0  0  0
   64.4327   29.5424   53.6263 H   0  0  0  0  0  0  0  0  0  0  0  0
   65.8598   28.5149   54.0203 H   0  0  0  0  0  0  0  0  0  0  0  0
   65.0822   29.5682   51.2529 H   0  0  0  0  0  0  0  0  0  0  0  0
   66.4505   30.1357   52.2683 H   0  0  0  0  0  0  0  0  0  0  0  0
   67.6360   28.4290   51.1470 H   0  0  0  0  0  0  0  0  0  0  0  0
   64.1332   26.4285   51.1687 H   0  0  0  0  0  0  0  0  0  0  0  0
   64.9317   25.5826   52.5685 H   0  0  0  0  0  0  0  0  0  0  0  0
   60.5248   27.4162   54.6383 H   0  0  0  0  0  0  0  0  0  0  0  0
   57.9010   28.1520   54.4940 H   0  0  0  0  0  0  0  0  0  0  0  0
  1  2  2  0
  2  3  1  0
  3  4  2  3
  4  5  1  0
  5  6  1  0
  6  7  1  0
  7  8  2  0
  7  9  1  0
  9 10  1  0
 10 11  1  0
  3 12  1  0
 12 13  2  0
 13 14  1  0
 13 15  1  0
 15 16  1  0
 16 17  2  0
 17 18  1  0
 18 19  2  0
 19 20  1  0
 20 21  1  0
 21 22  1  0
 22 23  2  0
 23 24  1  0
 24 25  1  0
 25 26  2  0
 25 27  1  0
 19 28  1  0
 28 29  2  0
 29 30  1  0
 30 31  2  0
 30 32  1  0
 32 33  1  0
 33 34  1  0
 34 35  1  0
 35 36  1  0
 36 37  2  0
 36 38  1  0
 29 39  1  0
 39 40  2  0
 40 41  1  0
 15  2  1  0
 41 16  1  0
 10  5  2  0
 40 18  1  0
 27 21  2  0
 38 32  1  0
  1 42  1  0
  1 43  1  0
  4 44  1  0
 12 45  1  0
 14 46  1  0
 14 47  1  0
 14 48  1  0
 17 49  1  0
 20 50  1  0
 20 51  1  0
 22 52  1  0
 23 53  1  0
 27 54  1  0
 28 55  1  0
 33 56  1  0
 33 57  1  0
 34 58  1  0
 34 59  1  0
 35 60  1  0
 38 61  1  0
 38 62  1  0
 39 63  1  0
 41 64  1  0
M  CHG  4   6  -1   9  -1  11  -1  24  -1
M  END
>  <UniqueID>  (7) 
7

>  <SMILES>  (7) 
C=c1c(=Cc2[n-]c(=O)[n-]c2[O-])cc(C)n1-c1cc2c(Cc3cc[n-]c(=O)c3)cc(C(=O)N3CCNC(=O)C3)cc2[nH]1

>  <Energy>  (7) 
181.29381466427535

>  <Genealogy>  (7) 
C=c1c(=Cc2[n-]c(=O)[n-]c2[O-])cc(C)n1-c1cc2c(Cc3cc[n-]c(=O)c3)cc(C(=O)N3CCNC(=O)C3)cc2[nH]1 (protonated)
C=c1c(=Cc2[n-]c(=O)[n-]c2[O-])cc(C)n1-c1cc2c(Cc3cc[n-]c(=O)c3)cc(C(=O)N3CCNC(=O)C3)cc2[nH]1 (3D coordinates assigned)
C=c1c(=Cc2[n-]c(=O)[n-]c2[O-])cc(C)n1-c1cc2c(Cc3cc[n-]c(=O)c3)cc(C(=O)N3CCNC(=O)C3)cc2[nH]1 (nonaromatic ring conformer: 181.29381466427535 kcal/mol)

>  <smiles>  (7) 
C=c1c(=Cc2[nH]c(=O)[nH]c2O)cc(C)n1-c1cc2c(Cc3cc[nH]c(=O)c3)cc(C(=O)N3CCNC(=O)C3)cc2[nH]1

>  <score_type>  (7) 
oracle

>  <origin>  (7) 
adg

>  <m_score__min__energy>  (7) 
-18.100000000000001

>  <m_primary>  (7) 
energy

$$$$
7:0
     RDKit          3D

 48 51  0  0  0  0  0  0  0  0999 V2000
   55.3867   28.8355   43.6822 H   0  0  0  0  0  0  0  0  0  0  0  0
   56.2210   29.3590   44.1720 C   0  0  0  0  0  0  0  0  0  0  0  0
   56.1350   30.5360   44.8150 N   0  0  0  0  0  0  0  0  0  0  0  0
   57.4010   30.7710   45.2290 C   0  0  0  0  0  0  0  0  0  0  0  0
   57.7610   31.8180   45.9120 N   0  0  0  0  0  0  0  0  0  0  0  0
   57.8860   33.1590   45.4180 C   0  0  0  0  0  0  0  0  0  0  0  0
   57.3980   33.4360   44.2920 O   0  0  0  0  0  0  0  0  0  0  0  0
   58.4910   34.1890   46.2140 N   0  0  0  0  0  0  0  0  0  0  0  0
   59.7070   34.0710   46.9660 C   0  0  0  0  0  0  0  0  0  0  0  0
   60.9000   33.6080   46.3820 C   0  0  0  0  0  0  0  0  0  0  0  0
   60.9238   33.3528   45.3123 H   0  0  0  0  0  0  0  0  0  0  0  0
   62.0570   33.4710   47.1580 C   0  0  0  0  0  0  0  0  0  0  0  0
   62.9857   33.1039   46.6967 H   0  0  0  0  0  0  0  0  0  0  0  0
   62.0370   33.8000   48.5220 C   0  0  0  0  0  0  0  0  0  0  0  0
   63.2670   33.6210   49.3620 C   0  0  0  0  0  0  0  0  0  0  0  0
   62.9930   33.6609   50.4266 H   0  0  0  0  0  0  0  0  0  0  0  0
   63.7256   32.6467   49.1377 H   0  0  0  0  0  0  0  0  0  0  0  0
   63.9843   34.4242   49.1377 H   0  0  0  0  0  0  0  0  0  0  0  0
   60.8390   34.2320   49.1090 C   0  0  0  0  0  0  0  0  0  0  0  0
   60.8102   34.4712   50.1823 H   0  0  0  0  0  0  0  0  0  0  0  0
   59.6810   34.3600   48.3360 C   0  0  0  0  0  0  0  0  0  0  0  0
   58.7433   34.6899   48.8071 H   0  0  0  0  0  0  0  0  0  0  0  0
   58.2810   29.8090   44.8860 N   0  0  0  0  0  0  0  0  0  0  0  0
   57.5230   28.9150   44.2260 C   0  0  0  0  0  0  0  0  0  0  0  0
   58.0600   27.6740   43.5890 C   0  0  0  0  0  0  0  0  0  0  0  0
   57.5574   27.5139   42.6237 H   0  0  0  0  0  0  0  0  0  0  0  0
   59.1428   27.7892   43.4329 H   0  0  0  0  0  0  0  0  0  0  0  0
   57.8160   26.4930   44.4760 C   0  0  0  0  0  0  0  0  0  0  0  0
   57.3860   25.2940   44.0290 N   0  0  0  0  0  0  0  0  0  0  0  0
   57.2160   24.5180   45.0930 N   0  0  0  0  0  0  0  0  0  0  0  0
   57.5510   25.2510   46.1710 C   0  0  0  0  0  0  0  0  0  0  0  0
   57.3380   24.7370   47.7110 S   0  0  0  0  0  0  0  0  0  0  0  0
   57.9430   26.4890   45.8150 N   0  0  0  0  0  0  0  0  0  0  0  0
   58.2170   27.5920   46.6440 N   0  0  0  0  0  0  0  0  0  0  0  0
   57.6550   28.4590   46.5090 H   0  0  0  0  0  0  0  0  0  0  0  0
   59.3250   27.5830   47.5600 C   0  0  0  0  0  0  0  0  0  0  0  0
   60.0560   26.5570   47.6370 O   0  0  0  0  0  0  0  0  0  0  0  0
   59.6320   28.7550   48.4150 C   0  0  0  0  0  0  0  0  0  0  0  0
   58.9190   29.9560   48.2310 C   0  0  0  0  0  0  0  0  0  0  0  0
   58.1449   30.0174   47.4519 H   0  0  0  0  0  0  0  0  0  0  0  0
   59.1880   31.0700   49.0310 C   0  0  0  0  0  0  0  0  0  0  0  0
   58.6292   32.0048   48.8760 H   0  0  0  0  0  0  0  0  0  0  0  0
   60.1640   30.9990   50.0260 C   0  0  0  0  0  0  0  0  0  0  0  0
   60.3791   31.8794   50.6494 H   0  0  0  0  0  0  0  0  0  0  0  0
   60.8670   29.8110   50.2300 C   0  0  0  0  0  0  0  0  0  0  0  0
   61.6318   29.7550   51.0187 H   0  0  0  0  0  0  0  0  0  0  0  0
   60.6020   28.6900   49.4340 C   0  0  0  0  0  0  0  0  0  0  0  0
   61.1541   27.7541   49.6053 H   0  0  0  0  0  0  0  0  0  0  0  0
  1  2  1  0
  2  3  1  0
  3  4  1  0
  4  5  2  0
  5  6  1  0
  6  7  2  0
  6  8  1  0
  8  9  1  0
  9 10  2  0
 10 11  1  0
 10 12  1  0
 12 13  1  0
 12 14  2  0
 14 15  1  0
 15 16  1  0
 15 17  1  0
 15 18  1  0
 14 19  1  0
 19 20  1  0
 19 21  2  0
 21 22  1  0
  4 23  1  0
 23 24  1  0
 24 25  1  0
 25 26  1  0
 25 27  1  0
 25 28  1  0
 28 29  2  0
 29 30  1  0
 30 31  1  0
 31 32  2  0
 31 33  1  0
 33 34  1  0
 34 35  1  0
 34 36  1  0
 36 37  2  0
 36 38  1  0
 38 39  2  0
 39 40  1  0
 39 41  1  0
 41 42  1  0
 41 43  2  0
 43 44  1  0
 43 45  1  0
 45 46  1  0
 45 47  2  0
 47 48  1  0
 24  2  2  0
 33 28  1  0
 47 38  1  0
 21  9  1  0
M  CHG  4   3  -1   8  -1  23  -1  30  -1
M  END
>  <UniqueID>  (8) 
8

>  <SMILES>  (8) 
Cc1ccc([N-]C(=O)/N=c2\[n-]cc(Cc3n[n-]c(=S)n3NC(=O)c3ccccc3)[n-]2)cc1

>  <Energy>  (8) 
127.30024849242935

>  <Genealogy>  (8) 
Cc1ccc([N-]C(=O)N=c2[n-]cc(Cc3n[n-]c(=S)n3NC(=O)c3ccccc3)[n-]2)cc1 (protonated)
Cc1ccc([N-]C(=O)/N=c2\[n-]cc(Cc3n[n-]c(=S)n3NC(=O)c3ccccc3)[n-]2)cc1 (cis-trans isomerization)
Cc1ccc([N-]C(=O)/N=c2\[n-]cc(Cc3n[n-]c(=S)n3NC(=O)c3ccccc3)[n-]2)cc1 (3D coordinates assigned)
Cc1ccc([N-]C(=O)/N=c2\[n-]cc(Cc3n[n-]c(=S)n3NC(=O)c3ccccc3)[n-]2)cc1 (optimized conformer: 127.30024849242935 kcal/mol)

>  <smiles>  (8) 
Cc1ccc(NC(=O)N=c2[nH]cc(Cc3n[nH]c(=S)n3NC(=O)c3ccccc3)[nH]2)cc1

>  <score_type>  (8) 
oracle

>  <origin>  (8) 
adg

>  <m_score__min__energy>  (8) 
-15.02

>  <m_primary>  (8) 
energy

$$$$
8:0
     RDKit          3D

 45 48  0  0  0  0  0  0  0  0999 V2000
   53.5770   25.1410   45.6370 N   0  0  0  0  0  0  0  0  0  0  0  0
   54.4220   23.7970   44.9580 S   0  0  0  0  0  0  0  0  0  0  0  0
   53.9650   22.5310   45.6250 O   0  0  0  0  0  0  0  0  0  0  0  0
   54.1210   23.7030   43.4880 O   0  0  0  0  0  0  0  0  0  0  0  0
   56.1530   24.0100   45.1960 C   0  0  0  0  0  0  0  0  0  0  0  0
   56.9830   22.8970   45.3770 C   0  0  0  0  0  0  0  0  0  0  0  0
   58.3540   23.0710   45.5880 C   0  0  0  0  0  0  0  0  0  0  0  0
   58.9030   24.3550   45.6140 C   0  0  0  0  0  0  0  0  0  0  0  0
   58.0840   25.4800   45.4200 C   0  0  0  0  0  0  0  0  0  0  0  0
   58.6430   26.8480   45.4650 C   0  0  0  0  0  0  0  0  0  0  0  0
   59.9380   27.1210   45.7540 N   0  0  0  0  0  0  0  0  0  0  0  0
   60.1280   28.4360   45.7110 N   0  0  0  0  0  0  0  0  0  0  0  0
   58.9490   29.0020   45.4010 C   0  0  0  0  0  0  0  0  0  0  0  0
   58.6680   30.3560   45.2680 C   0  0  0  0  0  0  0  0  0  0  0  0
   57.3230   30.7160   44.9790 C   0  0  0  0  0  0  0  0  0  0  0  0
   56.9390   31.9520   44.8150 N   0  0  0  0  0  0  0  0  0  0  0  0
   57.5180   33.1550   45.3450 C   0  0  0  0  0  0  0  0  0  0  0  0
   56.9590   33.7810   46.2870 O   0  0  0  0  0  0  0  0  0  0  0  0
   58.6960   33.6890   44.7310 N   0  0  0  0  0  0  0  0  0  0  0  0
   59.3740   34.8820   45.2320 C   0  0  0  0  0  0  0  0  0  0  0  0
   60.1480   34.5550   46.4800 C   0  0  0  0  0  0  0  0  0  0  0  0
   59.5860   34.8080   47.7410 C   0  0  0  0  0  0  0  0  0  0  0  0
   60.3120   34.5330   48.9040 C   0  0  0  0  0  0  0  0  0  0  0  0
   61.6050   34.0100   48.8160 C   0  0  0  0  0  0  0  0  0  0  0  0
   62.1750   33.7610   47.5630 C   0  0  0  0  0  0  0  0  0  0  0  0
   63.8010   33.1110   47.4540 Cl  0  0  0  0  0  0  0  0  0  0  0  0
   61.4510   34.0340   46.3970 C   0  0  0  0  0  0  0  0  0  0  0  0
   56.3830   29.7270   44.8360 N   0  0  0  0  0  0  0  0  0  0  0  0
   56.6750   28.4000   44.9700 C   0  0  0  0  0  0  0  0  0  0  0  0
   57.9920   28.0470   45.2430 C   0  0  0  0  0  0  0  0  0  0  0  0
   56.7040   25.2990   45.2310 C   0  0  0  0  0  0  0  0  0  0  0  0
   53.9960   26.0050   45.2260 H   0  0  0  0  0  0  0  0  0  0  0  0
   56.5555   21.8837   45.3531 H   0  0  0  0  0  0  0  0  0  0  0  0
   59.0021   22.1943   45.7339 H   0  0  0  0  0  0  0  0  0  0  0  0
   59.9814   24.4860   45.7871 H   0  0  0  0  0  0  0  0  0  0  0  0
   59.4532   31.1179   45.3815 H   0  0  0  0  0  0  0  0  0  0  0  0
   59.0950   33.1970   43.9000 H   0  0  0  0  0  0  0  0  0  0  0  0
   60.0658   35.2565   44.4632 H   0  0  0  0  0  0  0  0  0  0  0  0
   58.6221   35.6497   45.4671 H   0  0  0  0  0  0  0  0  0  0  0  0
   58.5705   35.2242   47.8147 H   0  0  0  0  0  0  0  0  0  0  0  0
   59.8647   34.7286   49.8897 H   0  0  0  0  0  0  0  0  0  0  0  0
   62.1745   33.7941   49.7320 H   0  0  0  0  0  0  0  0  0  0  0  0
   61.9027   33.8404   45.4129 H   0  0  0  0  0  0  0  0  0  0  0  0
   55.8927   27.6339   44.8652 H   0  0  0  0  0  0  0  0  0  0  0  0
   56.0503   26.1753   45.1095 H   0  0  0  0  0  0  0  0  0  0  0  0
  1  2  1  0
  2  3  2  0
  2  4  2  0
  2  5  1  0
  5  6  2  0
  6  7  1  0
  7  8  2  0
  8  9  1  0
  9 10  1  0
 10 11  2  0
 11 12  1  0
 12 13  1  0
 13 14  2  0
 14 15  1  0
 15 16  2  3
 16 17  1  0
 17 18  2  0
 17 19  1  0
 19 20  1  0
 20 21  1  0
 21 22  2  0
 22 23  1  0
 23 24  2  0
 24 25  1  0
 25 26  1  0
 25 27  2  0
 15 28  1  0
 28 29  1  0
 29 30  2  0
  9 31  2  0
 31  5  1  0
 30 10  1  0
 30 13  1  0
 27 21  1  0
  1 32  1  0
  6 33  1  0
  7 34  1  0
  8 35  1  0
 14 36  1  0
 19 37  1  0
 20 38  1  0
 20 39  1  0
 22 40  1  0
 23 41  1  0
 24 42  1  0
 27 43  1  0
 29 44  1  0
 31 45  1  0
M  CHG  3   1  -1  12  -1  28  -1
M  END
>  <UniqueID>  (9) 
9

>  <SMILES>  (9) 
[NH-]S(=O)(=O)c1cccc(-c2n[n-]c3cc(=NC(=O)NCc4cccc(Cl)c4)[n-]cc23)c1

>  <Energy>  (9) 
97.57743951856963

>  <Genealogy>  (9) 
[NH-]S(=O)(=O)c1cccc(-c2n[n-]c3cc(=NC(=O)NCc4cccc(Cl)c4)[n-]cc23)c1 (protonated)
[NH-]S(=O)(=O)c1cccc(-c2n[n-]c3cc(=NC(=O)NCc4cccc(Cl)c4)[n-]cc23)c1 (3D coordinates assigned)
[NH-]S(=O)(=O)c1cccc(-c2n[n-]c3cc(=NC(=O)NCc4cccc(Cl)c4)[n-]cc23)c1 (optimized conformer: 97.57743951856963 kcal/mol)

>  <smiles>  (9) 
NS(=O)(=O)c1cccc(-c2n[nH]c3cc(=NC(=O)NCc4cccc(Cl)c4)[nH]cc23)c1

>  <score_type>  (9) 
oracle

>  <origin>  (9) 
adg

>  <m_score__min__energy>  (9) 
-13.890000000000001

>  <m_primary>  (9) 
energy

$$$$
9:0
     RDKit          3D

 22 23  0  0  0  0  0  0  0  0999 V2000
   54.7820   26.7130   45.9990 O   0  0  0  0  0  0  0  0  0  0  0  0
   56.1680   26.6310   45.9140 C   0  0  0  0  0  0  0  0  0  0  0  0
   56.8570   25.4650   46.2210 C   0  0  0  0  0  0  0  0  0  0  0  0
   58.4970   25.7670   45.9990 S   0  0  0  0  0  0  0  0  0  0  0  0
   58.2620   27.3600   45.5230 C   0  0  0  0  0  0  0  0  0  0  0  0
   59.4910   28.3660   45.1160 S   0  0  0  0  0  0  0  0  0  0  0  0
   56.9420   27.6870   45.5240 N   0  0  0  0  0  0  0  0  0  0  0  0
   56.3880   29.0100   45.1960 C   0  0  0  0  0  0  0  0  0  0  0  0
   56.6390   29.3710   43.7270 C   0  0  0  0  0  0  0  0  0  0  0  0
   57.1620   30.7670   43.5810 C   0  0  0  0  0  0  0  0  0  0  0  0
   57.4000   31.4250   42.3810 C   0  0  0  0  0  0  0  0  0  0  0  0
   57.9530   32.6990   42.5540 C   0  0  0  0  0  0  0  0  0  0  0  0
   58.1570   33.0430   43.8850 C   0  0  0  0  0  0  0  0  0  0  0  0
   57.6510   31.7600   44.8470 S   0  0  0  0  0  0  0  0  0  0  0  0
   56.4107   24.5150   46.5501 H   0  0  0  0  0  0  0  0  0  0  0  0
   55.3040   29.0007   45.3824 H   0  0  0  0  0  0  0  0  0  0  0  0
   56.8853   29.7608   45.8277 H   0  0  0  0  0  0  0  0  0  0  0  0
   57.3750   28.6690   43.3082 H   0  0  0  0  0  0  0  0  0  0  0  0
   55.6815   29.3056   43.1895 H   0  0  0  0  0  0  0  0  0  0  0  0
   57.1768   30.9895   41.3959 H   0  0  0  0  0  0  0  0  0  0  0  0
   58.2027   33.3655   41.7153 H   0  0  0  0  0  0  0  0  0  0  0  0
   58.5777   33.9926   44.2474 H   0  0  0  0  0  0  0  0  0  0  0  0
  1  2  1  0
  2  3  2  0
  3  4  1  0
  4  5  1  0
  5  6  2  0
  5  7  1  0
  7  8  1  0
  8  9  1  0
  9 10  1  0
 10 11  2  0
 11 12  1  0
 12 13  2  0
 13 14  1  0
  7  2  1  0
 14 10  1  0
  3 15  1  0
  8 16  1  0
  8 17  1  0
  9 18  1  0
  9 19  1  0
 11 20  1  0
 12 21  1  0
 13 22  1  0
M  CHG  1   1  -1
M  END
>  <UniqueID>  (10) 
10

>  <SMILES>  (10) 
[O-]c1csc(=S)n1CCc1cccs1

>  <Energy>  (10) 
75.25357194617507

>  <Genealogy>  (10) 
[O-]c1csc(=S)n1CCc1cccs1 (protonated)
[O-]c1csc(=S)n1CCc1cccs1 (3D coordinates assigned)
[O-]c1csc(=S)n1CCc1cccs1 (optimized conformer: 75.25357194617507 kcal/mol)

>  <smiles>  (10) 
Oc1csc(=S)n1CCc1cccs1

>  <score_type>  (10) 
oracle

>  <origin>  (10) 
adg

>  <m_score__min__energy>  (10) 
-9.4900000000000002

>  <m_primary>  (10) 
energy

$$$$
10:0
     RDKit          3D

 54 58  0  0  0  0  0  0  0  0999 V2000
   61.6185   34.2537   45.5552 H   0  0  0  0  0  0  0  0  0  0  0  0
   62.0280   33.6760   46.3970 C   0  0  0  0  0  0  0  0  0  0  0  0
   63.3750   33.8600   46.7850 C   0  0  0  0  0  0  0  0  0  0  0  0
   64.0075   34.5774   46.2416 H   0  0  0  0  0  0  0  0  0  0  0  0
   63.9110   33.1310   47.8620 C   0  0  0  0  0  0  0  0  0  0  0  0
   64.9552   33.2715   48.1781 H   0  0  0  0  0  0  0  0  0  0  0  0
   63.0770   32.2240   48.5170 C   0  0  0  0  0  0  0  0  0  0  0  0
   61.7710   32.0410   48.1360 C   0  0  0  0  0  0  0  0  0  0  0  0
   61.2070   32.7590   47.0800 C   0  0  0  0  0  0  0  0  0  0  0  0
   60.1557   32.6130   46.7912 H   0  0  0  0  0  0  0  0  0  0  0  0
   61.2250   31.1170   49.0080 C   0  0  0  0  0  0  0  0  0  0  0  0
   59.7940   30.6900   49.1060 C   0  0  0  0  0  0  0  0  0  0  0  0
   59.1429   31.5742   49.0415 H   0  0  0  0  0  0  0  0  0  0  0  0
   59.6296   30.1810   50.0672 H   0  0  0  0  0  0  0  0  0  0  0  0
   59.4730   29.7540   47.9880 C   0  0  0  0  0  0  0  0  0  0  0  0
   58.5400   28.8290   48.0490 O   0  0  0  0  0  0  0  0  0  0  0  0
   58.5870   28.1590   46.9230 C   0  0  0  0  0  0  0  0  0  0  0  0
   57.7070   26.9940   46.5920 C   0  0  0  0  0  0  0  0  0  0  0  0
   58.3182   26.0800   46.5603 H   0  0  0  0  0  0  0  0  0  0  0  0
   56.9294   26.9134   47.3658 H   0  0  0  0  0  0  0  0  0  0  0  0
   57.0250   27.1850   45.2380 C   0  0  0  0  0  0  0  0  0  0  0  0
   57.7887   27.2235   44.4473 H   0  0  0  0  0  0  0  0  0  0  0  0
   56.3418   26.3426   45.0549 H   0  0  0  0  0  0  0  0  0  0  0  0
   56.2610   28.4340   45.2360 N   0  0  0  0  0  0  0  0  0  0  0  0
   56.7340   29.5930   44.8770 C   0  0  0  0  0  0  0  0  0  0  0  0
   57.1800   30.4520   45.8270 N   0  0  0  0  0  0  0  0  0  0  0  0
   57.6470   31.6880   45.5050 C   0  0  0  0  0  0  0  0  0  0  0  0
   57.7260   32.0760   44.1520 C   0  0  0  0  0  0  0  0  0  0  0  0
   57.2590   31.1690   43.1860 C   0  0  0  0  0  0  0  0  0  0  0  0
   57.2750   31.4710   41.9630 O   0  0  0  0  0  0  0  0  0  0  0  0
   56.7740   29.9590   43.5680 N   0  0  0  0  0  0  0  0  0  0  0  0
   58.1860   33.4590   43.7370 C   0  0  0  0  0  0  0  0  0  0  0  0
   58.9316   33.3527   42.9352 H   0  0  0  0  0  0  0  0  0  0  0  0
   57.2950   34.0119   43.4049 H   0  0  0  0  0  0  0  0  0  0  0  0
   58.8240   34.2710   44.8990 C   0  0  0  0  0  0  0  0  0  0  0  0
   59.8647   33.9430   45.0379 H   0  0  0  0  0  0  0  0  0  0  0  0
   58.7876   35.3396   44.6407 H   0  0  0  0  0  0  0  0  0  0  0  0
   58.0580   34.0600   46.1980 C   0  0  0  0  0  0  0  0  0  0  0  0
   58.5028   34.6812   46.9893 H   0  0  0  0  0  0  0  0  0  0  0  0
   57.0061   34.3457   46.0500 H   0  0  0  0  0  0  0  0  0  0  0  0
   58.1290   32.5870   46.6080 C   0  0  0  0  0  0  0  0  0  0  0  0
   59.1718   32.3320   46.8479 H   0  0  0  0  0  0  0  0  0  0  0  0
   57.4801   32.4394   47.4839 H   0  0  0  0  0  0  0  0  0  0  0  0
   59.5750   28.7140   46.1350 C   0  0  0  0  0  0  0  0  0  0  0  0
   60.0510   28.2200   44.8060 C   0  0  0  0  0  0  0  0  0  0  0  0
   60.8071   27.4353   44.9559 H   0  0  0  0  0  0  0  0  0  0  0  0
   59.2012   27.8075   44.2423 H   0  0  0  0  0  0  0  0  0  0  0  0
   60.4947   29.0539   44.2423 H   0  0  0  0  0  0  0  0  0  0  0  0
   60.1490   29.7150   46.8240 N   0  0  0  0  0  0  0  0  0  0  0  0
   60.9590   30.3090   46.5370 H   0  0  0  0  0  0  0  0  0  0  0  0
   62.2430   30.7960   49.9040 C   0  0  0  0  0  0  0  0  0  0  0  0
   62.1409   30.0955   50.7459 H   0  0  0  0  0  0  0  0  0  0  0  0
   63.3760   31.4690   49.5910 N   0  0  0  0  0  0  0  0  0  0  0  0
   64.2860   31.4320   50.1020 H   0  0  0  0  0  0  0  0  0  0  0  0
  1  2  1  0
  2  3  2  0
  3  4  1  0
  3  5  1  0
  5  6  1  0
  5  7  2  0
  7  8  1  0
  8  9  2  0
  9 10  1  0
  8 11  1  0
 11 12  1  0
 12 13  1  0
 12 14  1  0
 12 15  1  0
 15 16  1  0
 16 17  1  0
 17 18  1  0
 18 19  1  0
 18 20  1  0
 18 21  1  0
 21 22  1  0
 21 23  1  0
 21 24  1  0
 24 25  2  0
 25 26  1  0
 26 27  1  0
 27 28  2  0
 28 29  1  0
 29 30  2  0
 29 31  1  0
 28 32  1  0
 32 33  1  0
 32 34  1  0
 32 35  1  0
 35 36  1  0
 35 37  1  0
 35 38  1  0
 38 39  1  0
 38 40  1  0
 38 41  1  0
 41 42  1  0
 41 43  1  0
 17 44  2  0
 44 45  1  0
 45 46  1  0
 45 47  1  0
 45 48  1  0
 44 49  1  0
 49 50  1  0
 11 51  2  0
 51 52  1  0
 51 53  1  0
 53 54  1  0
  9  2  1  0
 49 15  2  0
 53  7  1  0
 31 25  1  0
 41 27  1  0
M  CHG  3  26  -1  31  -1  49   1
M  END
>  <UniqueID>  (11) 
11

>  <SMILES>  (11) 
Cc1[nH+]c(Cc2c[nH]c3ccccc23)oc1CC/N=c1/[n-]c2c(c(=O)[n-]1)CCCC2

>  <Energy>  (11) 
116.93544564503698

>  <Genealogy>  (11) 
Cc1[nH+]c(Cc2c[nH]c3ccccc23)oc1CCN=c1[n-]c2c(c(=O)[n-]1)CCCC2 (protonated)
Cc1[nH+]c(Cc2c[nH]c3ccccc23)oc1CC/N=c1/[n-]c2c(c(=O)[n-]1)CCCC2 (cis-trans isomerization)
Cc1[nH+]c(Cc2c[nH]c3ccccc23)oc1CC/N=c1/[n-]c2c(c(=O)[n-]1)CCCC2 (3D coordinates assigned)
Cc1[nH+]c(Cc2c[nH]c3ccccc23)oc1CC/N=c1/[n-]c2c(c(=O)[n-]1)CCCC2 (nonaromatic ring conformer: 116.93544564503698 kcal/mol)

>  <smiles>  (11) 
Cc1nc(Cc2c[nH]c3ccccc23)oc1CCN=c1[nH]c2c(c(=O)[nH]1)CCCC2

>  <score_type>  (11) 
oracle

>  <origin>  (11) 
adg

>  <m_score__min__energy>  (11) 
-11.300000000000001

>  <m_primary>  (11) 
energy

$$$$
11:0
     RDKit          3D

 47 49  0  0  0  0  0  0  0  0999 V2000
   55.4740   28.9850   44.8680 N   0  0  0  0  0  0  0  0  0  0  0  0
   56.8640   29.5500   44.0090 S   0  0  0  0  0  0  0  0  0  0  0  0
   56.4360   30.1210   42.6870 O   0  0  0  0  0  0  0  0  0  0  0  0
   57.8020   28.4020   43.7590 O   0  0  0  0  0  0  0  0  0  0  0  0
   57.6700   30.8010   44.9510 C   0  0  0  0  0  0  0  0  0  0  0  0
   57.4200   32.1530   44.6660 C   0  0  0  0  0  0  0  0  0  0  0  0
   58.0440   33.1530   45.4150 C   0  0  0  0  0  0  0  0  0  0  0  0
   58.9320   32.8110   46.4380 C   0  0  0  0  0  0  0  0  0  0  0  0
   59.2100   31.4610   46.7110 C   0  0  0  0  0  0  0  0  0  0  0  0
   60.1180   31.1060   47.7560 N   0  0  0  0  0  0  0  0  0  0  0  0
   60.1410   29.8190   48.3860 C   0  0  0  0  0  0  0  0  0  0  0  0
   61.2100   29.4170   48.9220 O   0  0  0  0  0  0  0  0  0  0  0  0
   58.8970   28.9750   48.4950 C   0  0  0  0  0  0  0  0  0  0  0  0
   58.9220   27.8040   47.5490 C   0  0  0  0  0  0  0  0  0  0  0  0
   60.1420   27.2840   47.0870 C   0  0  0  0  0  0  0  0  0  0  0  0
   60.1580   26.1800   46.2330 C   0  0  0  0  0  0  0  0  0  0  0  0
   58.9580   25.5990   45.8130 C   0  0  0  0  0  0  0  0  0  0  0  0
   57.7270   26.1330   46.2290 C   0  0  0  0  0  0  0  0  0  0  0  0
   56.4550   25.5410   45.7600 C   0  0  0  0  0  0  0  0  0  0  0  0
   55.3680   26.1170   46.0340 O   0  0  0  0  0  0  0  0  0  0  0  0
   56.4390   24.3180   44.9980 N   0  0  0  0  0  0  0  0  0  0  0  0
   55.3510   24.0840   44.0430 C   0  0  0  0  0  0  0  0  0  0  0  0
   55.7880   23.0550   42.9940 C   0  0  0  0  0  0  0  0  0  0  0  0
   56.2780   21.8820   43.6170 O   0  0  0  0  0  0  0  0  0  0  0  0
   57.4570   22.1800   44.3400 C   0  0  0  0  0  0  0  0  0  0  0  0
   57.1670   23.1450   45.4960 C   0  0  0  0  0  0  0  0  0  0  0  0
   57.7190   27.2260   47.1130 C   0  0  0  0  0  0  0  0  0  0  0  0
   58.5530   30.4590   45.9870 C   0  0  0  0  0  0  0  0  0  0  0  0
   55.5420   27.9410   44.9080 H   0  0  0  0  0  0  0  0  0  0  0  0
   56.7319   32.4248   43.8519 H   0  0  0  0  0  0  0  0  0  0  0  0
   57.8361   34.2114   45.1992 H   0  0  0  0  0  0  0  0  0  0  0  0
   59.4150   33.6011   47.0316 H   0  0  0  0  0  0  0  0  0  0  0  0
   58.8138   28.5973   49.5248 H   0  0  0  0  0  0  0  0  0  0  0  0
   58.0356   29.6058   48.2303 H   0  0  0  0  0  0  0  0  0  0  0  0
   61.0889   27.7486   47.3994 H   0  0  0  0  0  0  0  0  0  0  0  0
   61.1175   25.7661   45.8896 H   0  0  0  0  0  0  0  0  0  0  0  0
   58.9777   24.7190   45.1533 H   0  0  0  0  0  0  0  0  0  0  0  0
   54.4695   23.7046   44.5806 H   0  0  0  0  0  0  0  0  0  0  0  0
   55.1019   25.0299   43.5398 H   0  0  0  0  0  0  0  0  0  0  0  0
   54.9259   22.7950   42.3622 H   0  0  0  0  0  0  0  0  0  0  0  0
   56.5911   23.4925   42.3828 H   0  0  0  0  0  0  0  0  0  0  0  0
   57.8743   21.2471   44.7469 H   0  0  0  0  0  0  0  0  0  0  0  0
   58.1740   22.6588   43.6569 H   0  0  0  0  0  0  0  0  0  0  0  0
   56.5572   22.6324   46.2545 H   0  0  0  0  0  0  0  0  0  0  0  0
   58.1181   23.4719   45.9416 H   0  0  0  0  0  0  0  0  0  0  0  0
   56.7602   27.6327   47.4669 H   0  0  0  0  0  0  0  0  0  0  0  0
   58.7293   29.4009   46.2307 H   0  0  0  0  0  0  0  0  0  0  0  0
  1  2  1  0
  2  3  2  0
  2  4  2  0
  2  5  1  0
  5  6  2  0
  6  7  1  0
  7  8  2  0
  8  9  1  0
  9 10  1  0
 10 11  1  0
 11 12  2  0
 11 13  1  0
 13 14  1  0
 14 15  2  0
 15 16  1  0
 16 17  2  0
 17 18  1  0
 18 19  1  0
 19 20  2  0
 19 21  1  0
 21 22  1  0
 22 23  1  0
 23 24  1  0
 24 25  1  0
 25 26  1  0
 18 27  2  0
  9 28  2  0
 28  5  1  0
 27 14  1  0
 26 21  1  0
  1 29  1  0
  6 30  1  0
  7 31  1  0
  8 32  1  0
 13 33  1  0
 13 34  1  0
 15 35  1  0
 16 36  1  0
 17 37  1  0
 22 38  1  0
 22 39  1  0
 23 40  1  0
 23 41  1  0
 25 42  1  0
 25 43  1  0
 26 44  1  0
 26 45  1  0
 27 46  1  0
 28 47  1  0
M  CHG  2   1  -1  10  -1
M  END
>  <UniqueID>  (12) 
12

>  <SMILES>  (12) 
[NH-]S(=O)(=O)c1cccc([N-]C(=O)Cc2cccc(C(=O)N3CCOCC3)c2)c1

>  <Energy>  (12) 
58.783231965132565

>  <Genealogy>  (12) 
[NH-]S(=O)(=O)c1cccc([N-]C(=O)Cc2cccc(C(=O)N3CCOCC3)c2)c1 (protonated)
[NH-]S(=O)(=O)c1cccc([N-]C(=O)Cc2cccc(C(=O)N3CCOCC3)c2)c1 (3D coordinates assigned)
[NH-]S(=O)(=O)c1cccc([N-]C(=O)Cc2cccc(C(=O)N3CCOCC3)c2)c1 (nonaromatic ring conformer: 58.783231965132565 kcal/mol)

>  <smiles>  (12) 
NS(=O)(=O)c1cccc(NC(=O)Cc2cccc(C(=O)N3CCOCC3)c2)c1

>  <score_type>  (12) 
oracle

>  <origin>  (12) 
adg

>  <m_score__min__energy>  (12) 
-13.68

>  <m_primary>  (12) 
energy

$$$$
12:0
     RDKit          3D

 58 62  0  0  0  0  0  0  0  0999 V2000
   56.0390   32.6460   44.6420 H   0  0  0  0  0  0  0  0  0  0  0  0
   56.5070   33.3620   45.1820 O   0  0  0  0  0  0  0  0  0  0  0  0
   57.7070   33.1400   45.8600 C   0  0  0  0  0  0  0  0  0  0  0  0
   58.1750   34.1160   46.6770 N   0  0  0  0  0  0  0  0  0  0  0  0
   59.3470   33.9920   47.3450 C   0  0  0  0  0  0  0  0  0  0  0  0
   59.7290   34.9350   48.0920 O   0  0  0  0  0  0  0  0  0  0  0  0
   60.1100   32.8650   47.1960 N   0  0  0  0  0  0  0  0  0  0  0  0
   61.3500   32.7280   47.9180 C   0  0  0  0  0  0  0  0  0  0  0  0
   61.3420   32.5690   49.3120 C   0  0  0  0  0  0  0  0  0  0  0  0
   60.3875   32.5815   49.8586 H   0  0  0  0  0  0  0  0  0  0  0  0
   62.5390   32.3950   50.0090 C   0  0  0  0  0  0  0  0  0  0  0  0
   62.5215   32.2695   51.1017 H   0  0  0  0  0  0  0  0  0  0  0  0
   63.7670   32.3790   49.3240 C   0  0  0  0  0  0  0  0  0  0  0  0
   65.0390   32.1670   50.0620 C   0  0  0  0  0  0  0  0  0  0  0  0
   65.1870   31.0680   50.9310 C   0  0  0  0  0  0  0  0  0  0  0  0
   64.3589   30.3546   51.0546 H   0  0  0  0  0  0  0  0  0  0  0  0
   66.3790   30.8770   51.6380 C   0  0  0  0  0  0  0  0  0  0  0  0
   66.4859   30.0141   52.3118 H   0  0  0  0  0  0  0  0  0  0  0  0
   67.4350   31.7820   51.4890 C   0  0  0  0  0  0  0  0  0  0  0  0
   68.3703   31.6334   52.0486 H   0  0  0  0  0  0  0  0  0  0  0  0
   67.3010   32.8760   50.6280 C   0  0  0  0  0  0  0  0  0  0  0  0
   68.1329   33.5859   50.5096 H   0  0  0  0  0  0  0  0  0  0  0  0
   66.1120   33.0700   49.9170 C   0  0  0  0  0  0  0  0  0  0  0  0
   66.0136   33.9321   49.2409 H   0  0  0  0  0  0  0  0  0  0  0  0
   63.7710   32.5510   47.9270 C   0  0  0  0  0  0  0  0  0  0  0  0
   64.7248   32.5499   47.3791 H   0  0  0  0  0  0  0  0  0  0  0  0
   62.5720   32.7230   47.2320 C   0  0  0  0  0  0  0  0  0  0  0  0
   62.5868   32.8553   46.1401 H   0  0  0  0  0  0  0  0  0  0  0  0
   59.6780   31.8500   46.3810 C   0  0  0  0  0  0  0  0  0  0  0  0
   60.3690   30.7990   46.2590 O   0  0  0  0  0  0  0  0  0  0  0  0
   58.4440   31.9490   45.7120 C   0  0  0  0  0  0  0  0  0  0  0  0
   57.9330   30.8030   44.9220 C   0  0  0  0  0  0  0  0  0  0  0  0
   56.6910   30.5980   44.8900 O   0  0  0  0  0  0  0  0  0  0  0  0
   58.8150   29.8650   44.1870 C   0  0  0  0  0  0  0  0  0  0  0  0
   59.1767   30.1893   43.2001 H   0  0  0  0  0  0  0  0  0  0  0  0
   59.2130   28.6560   44.6150 C   0  0  0  0  0  0  0  0  0  0  0  0
   60.2950   28.4719   44.6883 H   0  0  0  0  0  0  0  0  0  0  0  0
   58.3030   27.5540   44.9950 C   0  0  0  0  0  0  0  0  0  0  0  0
   58.0960   26.4790   44.1180 C   0  0  0  0  0  0  0  0  0  0  0  0
   58.5976   26.4651   43.1391 H   0  0  0  0  0  0  0  0  0  0  0  0
   57.2560   25.4280   44.4840 C   0  0  0  0  0  0  0  0  0  0  0  0
   57.1047   24.5745   43.8067 H   0  0  0  0  0  0  0  0  0  0  0  0
   56.6100   25.4720   45.7190 C   0  0  0  0  0  0  0  0  0  0  0  0
   55.9453   24.6492   46.0211 H   0  0  0  0  0  0  0  0  0  0  0  0
   56.8010   26.5310   46.5500 N   0  0  0  0  0  0  0  0  0  0  0  0
   57.6280   27.5660   46.2300 C   0  0  0  0  0  0  0  0  0  0  0  0
   57.8050   28.5600   47.0570 N   0  0  0  0  0  0  0  0  0  0  0  0
   58.8420   28.6860   48.0430 C   0  0  0  0  0  0  0  0  0  0  0  0
   58.8610   29.7510   48.9680 C   0  0  0  0  0  0  0  0  0  0  0  0
   58.0978   30.5410   48.9099 H   0  0  0  0  0  0  0  0  0  0  0  0
   59.8460   29.8060   49.9580 C   0  0  0  0  0  0  0  0  0  0  0  0
   59.8671   30.6482   50.6652 H   0  0  0  0  0  0  0  0  0  0  0  0
   60.8040   28.7930   50.0510 C   0  0  0  0  0  0  0  0  0  0  0  0
   61.5836   28.8421   50.8255 H   0  0  0  0  0  0  0  0  0  0  0  0
   60.7710   27.7170   49.1590 C   0  0  0  0  0  0  0  0  0  0  0  0
   61.5192   26.9146   49.2379 H   0  0  0  0  0  0  0  0  0  0  0  0
   59.7870   27.6600   48.1660 C   0  0  0  0  0  0  0  0  0  0  0  0
   59.7555   26.8031   47.4770 H   0  0  0  0  0  0  0  0  0  0  0  0
  1  2  1  0
  2  3  1  0
  3  4  1  0
  4  5  1  0
  5  6  2  0
  5  7  1  0
  7  8  1  0
  8  9  2  0
  9 10  1  0
  9 11  1  0
 11 12  1  0
 11 13  2  0
 13 14  1  0
 14 15  2  0
 15 16  1  0
 15 17  1  0
 17 18  1  0
 17 19  2  0
 19 20  1  0
 19 21  1  0
 21 22  1  0
 21 23  2  0
 23 24  1  0
 13 25  1  0
 25 26  1  0
 25 27  2  0
 27 28  1  0
  7 29  1  0
 29 30  2  0
 29 31  1  0
 31 32  1  0
 32 33  2  0
 32 34  1  0
 34 35  1  0
 34 36  2  3
 36 37  1  0
 36 38  1  0
 38 39  2  0
 39 40  1  0
 39 41  1  0
 41 42  1  0
 41 43  2  0
 43 44  1  0
 43 45  1  0
 45 46  1  0
 46 47  2  0
 47 48  1  0
 48 49  2  0
 49 50  1  0
 49 51  1  0
 51 52  1  0
 51 53  2  0
 53 54  1  0
 53 55  1  0
 55 56  1  0
 55 57  2  0
 57 58  1  0
 31  3  2  0
 46 38  1  0
 57 48  1  0
 27  8  1  0
 23 14  1  0
M  CHG  2   4  -1  45  -1
M  END
>  <UniqueID>  (13) 
13

>  <SMILES>  (13) 
O=C(C=Cc1ccc[n-]/c1=N\c1ccccc1)c1c(O)[n-]c(=O)n(-c2ccc(-c3ccccc3)cc2)c1=O

>  <Energy>  (13) 
101.85201530853438

>  <Genealogy>  (13) 
O=C(C=Cc1ccc[n-]c1=Nc1ccccc1)c1c(O)[n-]c(=O)n(-c2ccc(-c3ccccc3)cc2)c1=O (protonated)
O=C(C=Cc1ccc[n-]/c1=N\c1ccccc1)c1c(O)[n-]c(=O)n(-c2ccc(-c3ccccc3)cc2)c1=O (cis-trans isomerization)
O=C(C=Cc1ccc[n-]/c1=N\c1ccccc1)c1c(O)[n-]c(=O)n(-c2ccc(-c3ccccc3)cc2)c1=O (3D coordinates assigned)
O=C(C=Cc1ccc[n-]/c1=N\c1ccccc1)c1c(O)[n-]c(=O)n(-c2ccc(-c3ccccc3)cc2)c1=O (optimized conformer: 101.85201530853438 kcal/mol)

>  <smiles>  (13) 
O=C(C=Cc1ccc[nH]c1=Nc1ccccc1)c1c(O)[nH]c(=O)n(-c2ccc(-c3ccccc3)cc2)c1=O

>  <score_type>  (13) 
oracle

>  <origin>  (13) 
adg

>  <m_score__min__energy>  (13) 
-11.779999999999999

>  <m_primary>  (13) 
energy

$$$$
13:0
     RDKit          3D

 36 38  0  0  0  0  0  0  0  0999 V2000
   59.4270   35.7770   45.9340 H   0  0  0  0  0  0  0  0  0  0  0  0
   59.8020   35.6130   46.8610 O   0  0  0  0  0  0  0  0  0  0  0  0
   59.3290   34.5810   47.6720 C   0  0  0  0  0  0  0  0  0  0  0  0
   59.9650   34.3300   48.8950 C   0  0  0  0  0  0  0  0  0  0  0  0
   60.7891   34.9788   49.2266 H   0  0  0  0  0  0  0  0  0  0  0  0
   59.5590   33.2630   49.6930 C   0  0  0  0  0  0  0  0  0  0  0  0
   60.0550   33.0679   50.6552 H   0  0  0  0  0  0  0  0  0  0  0  0
   58.5180   32.4460   49.2590 C   0  0  0  0  0  0  0  0  0  0  0  0
   58.1980   31.5907   49.8722 H   0  0  0  0  0  0  0  0  0  0  0  0
   57.8980   32.7050   48.0790 N   0  0  0  0  0  0  0  0  0  0  0  0
   58.2460   33.7500   47.2780 C   0  0  0  0  0  0  0  0  0  0  0  0
   57.5820   33.9050   46.1660 N   0  0  0  0  0  0  0  0  0  0  0  0
   58.1030   34.0900   44.8440 C   0  0  0  0  0  0  0  0  0  0  0  0
   58.7300   35.1430   44.5480 O   0  0  0  0  0  0  0  0  0  0  0  0
   57.8880   33.0330   43.8090 C   0  0  0  0  0  0  0  0  0  0  0  0
   56.9077   33.1804   43.3322 H   0  0  0  0  0  0  0  0  0  0  0  0
   58.6790   33.0985   43.0474 H   0  0  0  0  0  0  0  0  0  0  0  0
   57.9300   31.6790   44.4610 C   0  0  0  0  0  0  0  0  0  0  0  0
   57.0510   30.6670   44.0460 C   0  0  0  0  0  0  0  0  0  0  0  0
   56.2962   30.8799   43.2747 H   0  0  0  0  0  0  0  0  0  0  0  0
   57.1300   29.3900   44.6080 C   0  0  0  0  0  0  0  0  0  0  0  0
   56.4368   28.6034   44.2751 H   0  0  0  0  0  0  0  0  0  0  0  0
   58.0880   29.1030   45.5950 C   0  0  0  0  0  0  0  0  0  0  0  0
   58.2000   27.7480   46.1810 C   0  0  0  0  0  0  0  0  0  0  0  0
   59.3040   27.3780   46.6620 O   0  0  0  0  0  0  0  0  0  0  0  0
   57.0600   26.8110   46.2330 C   0  0  0  0  0  0  0  0  0  0  0  0
   55.8350   27.1070   45.7620 N   0  0  0  0  0  0  0  0  0  0  0  0
   55.1420   25.9700   45.9670 C   0  0  0  0  0  0  0  0  0  0  0  0
   53.9280   25.8490   45.6550 O   0  0  0  0  0  0  0  0  0  0  0  0
   55.8520   24.9710   46.5260 N   0  0  0  0  0  0  0  0  0  0  0  0
   57.0740   25.5080   46.6900 C   0  0  0  0  0  0  0  0  0  0  0  0
   57.9453   24.9919   47.1195 H   0  0  0  0  0  0  0  0  0  0  0  0
   58.9880   30.1090   45.9840 C   0  0  0  0  0  0  0  0  0  0  0  0
   59.7606   29.8895   46.7356 H   0  0  0  0  0  0  0  0  0  0  0  0
   58.9090   31.3870   45.4230 C   0  0  0  0  0  0  0  0  0  0  0  0
   59.6177   32.1675   45.7372 H   0  0  0  0  0  0  0  0  0  0  0  0
  1  2  1  0
  2  3  1  0
  3  4  2  0
  4  5  1  0
  4  6  1  0
  6  7  1  0
  6  8  2  0
  8  9  1  0
  8 10  1  0
 10 11  1  0
 11 12  2  0
 12 13  1  0
 13 14  2  0
 13 15  1  0
 15 16  1  0
 15 17  1  0
 15 18  1  0
 18 19  2  0
 19 20  1  0
 19 21  1  0
 21 22  1  0
 21 23  2  0
 23 24  1  0
 24 25  2  0
 24 26  1  0
 26 27  1  0
 27 28  1  0
 28 29  2  0
 28 30  1  0
 30 31  1  0
 31 32  1  0
 23 33  1  0
 33 34  1  0
 33 35  2  0
 35 36  1  0
 11  3  1  0
 35 18  1  0
 31 26  2  0
M  CHG  3  10  -1  27  -1  30  -1
M  END
>  <UniqueID>  (14) 
14

>  <SMILES>  (14) 
O=C(Cc1ccc(C(=O)c2c[n-]c(=O)[n-]2)cc1)/N=c1/[n-]cccc1O

>  <Energy>  (14) 
80.71504311046748

>  <Genealogy>  (14) 
O=C(Cc1ccc(C(=O)c2c[n-]c(=O)[n-]2)cc1)N=c1[n-]cccc1O (protonated)
O=C(Cc1ccc(C(=O)c2c[n-]c(=O)[n-]2)cc1)/N=c1/[n-]cccc1O (cis-trans isomerization)
O=C(Cc1ccc(C(=O)c2c[n-]c(=O)[n-]2)cc1)/N=c1/[n-]cccc1O (3D coordinates assigned)
O=C(Cc1ccc(C(=O)c2c[n-]c(=O)[n-]2)cc1)/N=c1/[n-]cccc1O (optimized conformer: 80.71504311046748 kcal/mol)

>  <smiles>  (14) 
O=C(Cc1ccc(C(=O)c2c[nH]c(=O)[nH]2)cc1)N=c1[nH]cccc1O

>  <score_type>  (14) 
oracle

>  <origin>  (14) 
adg

>  <m_score__min__energy>  (14) 
-12.49

>  <m_primary>  (14) 
energy

$$$$
14:0
     RDKit          3D

 56 58  0  0  0  0  0  0  0  0999 V2000
   59.8120   35.3570   46.5340 C   0  0  0  0  0  0  0  0  0  0  0  0
   58.5670   34.6720   46.6200 O   0  0  0  0  0  0  0  0  0  0  0  0
   58.2560   33.5000   45.9130 C   0  0  0  0  0  0  0  0  0  0  0  0
   58.1340   33.4860   44.5110 C   0  0  0  0  0  0  0  0  0  0  0  0
   57.8310   32.3010   43.8390 C   0  0  0  0  0  0  0  0  0  0  0  0
   57.6650   31.1060   44.5510 C   0  0  0  0  0  0  0  0  0  0  0  0
   57.2920   29.8390   43.8330 C   0  0  0  0  0  0  0  0  0  0  0  0
   55.8290   29.5780   43.9870 C   0  0  0  0  0  0  0  0  0  0  0  0
   55.0560   29.6990   43.0000 O   0  0  0  0  0  0  0  0  0  0  0  0
   55.3070   29.2510   45.2330 O   0  0  0  0  0  0  0  0  0  0  0  0
   57.7840   31.1160   45.9480 C   0  0  0  0  0  0  0  0  0  0  0  0
   58.0640   32.3130   46.6360 C   0  0  0  0  0  0  0  0  0  0  0  0
   58.1560   32.3570   48.0380 O   0  0  0  0  0  0  0  0  0  0  0  0
   59.3470   32.2050   48.7590 C   0  0  0  0  0  0  0  0  0  0  0  0
   60.0470   33.3580   49.1370 C   0  0  0  0  0  0  0  0  0  0  0  0
   61.2580   33.2590   49.8260 C   0  0  0  0  0  0  0  0  0  0  0  0
   61.7760   32.0050   50.1500 C   0  0  0  0  0  0  0  0  0  0  0  0
   61.0790   30.8470   49.8000 C   0  0  0  0  0  0  0  0  0  0  0  0
   59.8530   30.9290   49.1140 C   0  0  0  0  0  0  0  0  0  0  0  0
   59.0970   29.6500   48.8190 C   0  0  0  0  0  0  0  0  0  0  0  0
   59.9330   28.6230   48.0910 C   0  0  0  0  0  0  0  0  0  0  0  0
   60.2620   27.5580   48.6840 O   0  0  0  0  0  0  0  0  0  0  0  0
   60.3790   28.8410   46.7310 N   0  0  0  0  0  0  0  0  0  0  0  0
   61.0430   30.1050   46.3980 C   0  0  0  0  0  0  0  0  0  0  0  0
   60.2800   27.8030   45.6910 C   0  0  0  0  0  0  0  0  0  0  0  0
   59.1230   26.8700   45.9590 C   0  0  0  0  0  0  0  0  0  0  0  0
   59.3710   25.5330   46.3150 C   0  0  0  0  0  0  0  0  0  0  0  0
   58.3100   24.6560   46.5520 C   0  0  0  0  0  0  0  0  0  0  0  0
   56.9910   25.1030   46.4340 C   0  0  0  0  0  0  0  0  0  0  0  0
   56.7280   26.4250   46.0670 C   0  0  0  0  0  0  0  0  0  0  0  0
   55.4100   26.8630   45.9710 O   0  0  0  0  0  0  0  0  0  0  0  0
   57.7920   27.3020   45.8090 C   0  0  0  0  0  0  0  0  0  0  0  0
   60.1876   35.5636   47.5470 H   0  0  0  0  0  0  0  0  0  0  0  0
   60.5382   34.7314   45.9943 H   0  0  0  0  0  0  0  0  0  0  0  0
   59.6723   36.3052   45.9943 H   0  0  0  0  0  0  0  0  0  0  0  0
   58.2785   34.4156   43.9409 H   0  0  0  0  0  0  0  0  0  0  0  0
   57.7219   32.3053   42.7444 H   0  0  0  0  0  0  0  0  0  0  0  0
   57.5337   29.9407   42.7647 H   0  0  0  0  0  0  0  0  0  0  0  0
   57.8566   28.9992   44.2642 H   0  0  0  0  0  0  0  0  0  0  0  0
   57.6575   30.1802   46.5122 H   0  0  0  0  0  0  0  0  0  0  0  0
   59.6397   34.3493   48.8892 H   0  0  0  0  0  0  0  0  0  0  0  0
   61.8033   34.1701   50.1132 H   0  0  0  0  0  0  0  0  0  0  0  0
   62.7356   31.9283   50.6823 H   0  0  0  0  0  0  0  0  0  0  0  0
   61.4918   29.8618   50.0628 H   0  0  0  0  0  0  0  0  0  0  0  0
   58.7590   29.2153   49.7713 H   0  0  0  0  0  0  0  0  0  0  0  0
   58.2531   29.9110   48.1635 H   0  0  0  0  0  0  0  0  0  0  0  0
   61.3186   30.6297   47.3247 H   0  0  0  0  0  0  0  0  0  0  0  0
   61.9494   29.8992   45.8097 H   0  0  0  0  0  0  0  0  0  0  0  0
   60.3592   30.7345   45.8097 H   0  0  0  0  0  0  0  0  0  0  0  0
   60.1320   28.2867   44.7142 H   0  0  0  0  0  0  0  0  0  0  0  0
   61.2098   27.2152   45.6959 H   0  0  0  0  0  0  0  0  0  0  0  0
   60.4070   25.1752   46.4075 H   0  0  0  0  0  0  0  0  0  0  0  0
   58.5129   23.6118   46.8320 H   0  0  0  0  0  0  0  0  0  0  0  0
   56.1579   24.4121   46.6306 H   0  0  0  0  0  0  0  0  0  0  0  0
   55.1440   27.6060   45.3350 H   0  0  0  0  0  0  0  0  0  0  0  0
   57.5848   28.3334   45.4876 H   0  0  0  0  0  0  0  0  0  0  0  0
  1  2  1  0
  2  3  1  0
  3  4  2  0
  4  5  1  0
  5  6  2  0
  6  7  1  0
  7  8  1  0
  8  9  2  0
  8 10  1  0
  6 11  1  0
 11 12  2  0
 12 13  1  0
 13 14  1  0
 14 15  2  0
 15 16  1  0
 16 17  2  0
 17 18  1  0
 18 19  2  0
 19 20  1  0
 20 21  1  0
 21 22  2  0
 21 23  1  0
 23 24  1  0
 23 25  1  0
 25 26  1  0
 26 27  2  0
 27 28  1  0
 28 29  2  0
 29 30  1  0
 30 31  1  0
 30 32  2  0
 12  3  1  0
 19 14  1  0
 32 26  1  0
  1 33  1  0
  1 34  1  0
  1 35  1  0
  4 36  1  0
  5 37  1  0
  7 38  1  0
  7 39  1  0
 11 40  1  0
 15 41  1  0
 16 42  1  0
 17 43  1  0
 18 44  1  0
 20 45  1  0
 20 46  1  0
 24 47  1  0
 24 48  1  0
 24 49  1  0
 25 50  1  0
 25 51  1  0
 27 52  1  0
 28 53  1  0
 29 54  1  0
 31 55  1  0
 32 56  1  0
M  CHG  1  10  -1
M  END
>  <UniqueID>  (15) 
15

>  <SMILES>  (15) 
COc1ccc(CC(=O)[O-])cc1Oc1ccccc1CC(=O)N(C)Cc1cccc(O)c1

>  <Energy>  (15) 
61.94134085121897

>  <Genealogy>  (15) 
COc1ccc(CC(=O)[O-])cc1Oc1ccccc1CC(=O)N(C)Cc1cccc(O)c1 (protonated)
COc1ccc(CC(=O)[O-])cc1Oc1ccccc1CC(=O)N(C)Cc1cccc(O)c1 (3D coordinates assigned)
COc1ccc(CC(=O)[O-])cc1Oc1ccccc1CC(=O)N(C)Cc1cccc(O)c1 (optimized conformer: 61.94134085121897 kcal/mol)

>  <smiles>  (15) 
COc1ccc(CC(=O)O)cc1Oc1ccccc1CC(=O)N(C)Cc1cccc(O)c1

>  <score_type>  (15) 
oracle

>  <origin>  (15) 
adg

>  <m_score__min__energy>  (15) 
-12.52

>  <m_primary>  (15) 
energy

$$$$
15:0
     RDKit          3D

 81 85  0  0  0  0  0  0  0  0999 V2000
   51.9020   29.2030   52.1560 C   0  0  0  0  0  0  0  0  0  0  0  0
   52.1050   30.6960   51.2100 S   0  0  0  0  0  0  0  0  0  0  0  0
   51.4850   31.8620   51.9340 O   0  0  0  0  0  0  0  0  0  0  0  0
   51.4220   30.5260   49.8800 O   0  0  0  0  0  0  0  0  0  0  0  0
   53.7910   30.9920   50.9290 N   0  0  0  0  0  0  0  0  0  0  0  0
   54.8060   30.8810   51.9410 C   0  0  0  0  0  0  0  0  0  0  0  0
   54.5190   30.4100   53.2360 C   0  0  0  0  0  0  0  0  0  0  0  0
   55.5250   30.3670   54.2070 C   0  0  0  0  0  0  0  0  0  0  0  0
   56.8190   30.7850   53.9010 C   0  0  0  0  0  0  0  0  0  0  0  0
   57.1320   31.2360   52.6080 C   0  0  0  0  0  0  0  0  0  0  0  0
   58.5050   31.7800   52.3010 C   0  0  0  0  0  0  0  0  0  0  0  0
   59.4790   30.6970   51.9340 C   0  0  0  0  0  0  0  0  0  0  0  0
   60.6920   31.0370   51.6050 N   0  0  0  0  0  0  0  0  0  0  0  0
   61.6290   30.3960   50.2920 S   0  0  0  0  0  0  0  0  0  0  0  0
   62.1310   29.0290   50.6540 O   0  0  0  0  0  0  0  0  0  0  0  0
   62.8140   31.2860   50.0640 O   0  0  0  0  0  0  0  0  0  0  0  0
   60.6780   30.3340   48.8140 C   0  0  0  0  0  0  0  0  0  0  0  0
   59.2890   30.1730   48.8810 C   0  0  0  0  0  0  0  0  0  0  0  0
   58.5230   30.1830   47.7110 C   0  0  0  0  0  0  0  0  0  0  0  0
   59.1420   30.3610   46.4640 C   0  0  0  0  0  0  0  0  0  0  0  0
   58.3250   30.4100   45.2320 C   0  0  0  0  0  0  0  0  0  0  0  0
   57.7060   29.2300   44.7880 C   0  0  0  0  0  0  0  0  0  0  0  0
   56.9130   29.2350   43.6390 C   0  0  0  0  0  0  0  0  0  0  0  0
   56.7280   30.4170   42.9220 C   0  0  0  0  0  0  0  0  0  0  0  0
   57.3350   31.5980   43.3500 C   0  0  0  0  0  0  0  0  0  0  0  0
   58.1340   31.6150   44.5070 C   0  0  0  0  0  0  0  0  0  0  0  0
   58.7620   32.9170   44.9440 C   0  0  0  0  0  0  0  0  0  0  0  0
   58.4260   33.1850   46.3040 O   0  0  0  0  0  0  0  0  0  0  0  0
   59.3690   33.4390   47.3090 C   0  0  0  0  0  0  0  0  0  0  0  0
   58.9460   33.3940   48.6370 C   0  0  0  0  0  0  0  0  0  0  0  0
   59.8480   33.6380   49.6760 C   0  0  0  0  0  0  0  0  0  0  0  0
   61.1910   33.9500   49.4020 C   0  0  0  0  0  0  0  0  0  0  0  0
   62.1490   34.2140   50.5000 C   0  0  0  0  0  0  0  0  0  0  0  0
   62.0600   33.4990   51.7300 N   0  0  0  0  0  0  0  0  0  0  0  0
   63.0700   35.0630   50.3490 O   0  0  0  0  0  0  0  0  0  0  0  0
   61.6160   33.9970   48.0610 C   0  0  0  0  0  0  0  0  0  0  0  0
   60.7140   33.7400   47.0250 C   0  0  0  0  0  0  0  0  0  0  0  0
   60.5380   30.5010   46.3990 C   0  0  0  0  0  0  0  0  0  0  0  0
   61.3000   30.4960   47.5690 C   0  0  0  0  0  0  0  0  0  0  0  0
   59.0160   29.2940   51.9080 C   0  0  0  0  0  0  0  0  0  0  0  0
   57.9970   28.9850   51.2400 O   0  0  0  0  0  0  0  0  0  0  0  0
   59.6440   28.3050   52.7340 N   0  0  0  0  0  0  0  0  0  0  0  0
   58.9650   27.8970   53.9630 C   0  0  0  0  0  0  0  0  0  0  0  0
   59.9510   27.1360   54.8680 C   0  0  0  0  0  0  0  0  0  0  0  0
   60.5280   26.0510   54.1590 O   0  0  0  0  0  0  0  0  0  0  0  0
   61.3300   26.5480   53.1030 C   0  0  0  0  0  0  0  0  0  0  0  0
   60.4730   27.2900   52.0700 C   0  0  0  0  0  0  0  0  0  0  0  0
   56.1190   31.2760   51.6340 C   0  0  0  0  0  0  0  0  0  0  0  0
   51.9345   29.4417   53.2293 H   0  0  0  0  0  0  0  0  0  0  0  0
   50.9331   28.7431   51.9118 H   0  0  0  0  0  0  0  0  0  0  0  0
   52.7130   28.5011   51.9118 H   0  0  0  0  0  0  0  0  0  0  0  0
   54.0420   31.4350   50.0220 H   0  0  0  0  0  0  0  0  0  0  0  0
   53.5013   30.0750   53.4850 H   0  0  0  0  0  0  0  0  0  0  0  0
   55.2935   30.0011   55.2182 H   0  0  0  0  0  0  0  0  0  0  0  0
   57.5992   30.7616   54.6761 H   0  0  0  0  0  0  0  0  0  0  0  0
   58.4263   32.4846   51.4600 H   0  0  0  0  0  0  0  0  0  0  0  0
   58.8804   32.2767   53.2079 H   0  0  0  0  0  0  0  0  0  0  0  0
   58.7988   30.0383   49.8565 H   0  0  0  0  0  0  0  0  0  0  0  0
   57.4324   30.0510   47.7682 H   0  0  0  0  0  0  0  0  0  0  0  0
   57.8471   28.2949   45.3498 H   0  0  0  0  0  0  0  0  0  0  0  0
   56.4334   28.3054   43.2987 H   0  0  0  0  0  0  0  0  0  0  0  0
   56.1023   30.4180   42.0173 H   0  0  0  0  0  0  0  0  0  0  0  0
   57.1871   32.5251   42.7767 H   0  0  0  0  0  0  0  0  0  0  0  0
   59.8553   32.8459   44.8455 H   0  0  0  0  0  0  0  0  0  0  0  0
   58.3841   33.7325   44.3099 H   0  0  0  0  0  0  0  0  0  0  0  0
   57.8953   33.1649   48.8682 H   0  0  0  0  0  0  0  0  0  0  0  0
   59.5035   33.5854   50.7193 H   0  0  0  0  0  0  0  0  0  0  0  0
   62.1820   32.4630   51.7590 H   0  0  0  0  0  0  0  0  0  0  0  0
   62.6637   34.2373   47.8272 H   0  0  0  0  0  0  0  0  0  0  0  0
   61.0577   33.7732   45.9806 H   0  0  0  0  0  0  0  0  0  0  0  0
   61.0327   30.6150   45.4231 H   0  0  0  0  0  0  0  0  0  0  0  0
   62.3916   30.6196   47.5132 H   0  0  0  0  0  0  0  0  0  0  0  0
   58.5964   28.7887   54.4912 H   0  0  0  0  0  0  0  0  0  0  0  0
   58.1178   27.2417   53.7126 H   0  0  0  0  0  0  0  0  0  0  0  0
   60.7471   27.8210   55.1951 H   0  0  0  0  0  0  0  0  0  0  0  0
   59.4089   26.7463   55.7422 H   0  0  0  0  0  0  0  0  0  0  0  0
   62.0790   27.2407   53.5144 H   0  0  0  0  0  0  0  0  0  0  0  0
   61.8242   25.6998   52.6067 H   0  0  0  0  0  0  0  0  0  0  0  0
   61.1306   27.7805   51.3372 H   0  0  0  0  0  0  0  0  0  0  0  0
   59.8176   26.5675   51.5617 H   0  0  0  0  0  0  0  0  0  0  0  0
   56.3577   31.6214   50.6173 H   0  0  0  0  0  0  0  0  0  0  0  0
  1  2  1  0
  2  3  2  0
  2  4  2  0
  2  5  1  0
  5  6  1  0
  6  7  2  0
  7  8  1  0
  8  9  2  0
  9 10  1  0
 10 11  1  0
 11 12  1  0
 12 13  2  3
 13 14  1  0
 14 15  2  0
 14 16  2  0
 14 17  1  0
 17 18  2  0
 18 19  1  0
 19 20  2  0
 20 21  1  0
 21 22  2  0
 22 23  1  0
 23 24  2  0
 24 25  1  0
 25 26  2  0
 26 27  1  0
 27 28  1  0
 28 29  1  0
 29 30  2  0
 30 31  1  0
 31 32  2  0
 32 33  1  0
 33 34  1  0
 33 35  2  0
 32 36  1  0
 36 37  2  0
 20 38  1  0
 38 39  2  0
 12 40  1  0
 40 41  2  0
 40 42  1  0
 42 43  1  0
 43 44  1  0
 44 45  1  0
 45 46  1  0
 46 47  1  0
 10 48  2  0
 48  6  1  0
 39 17  1  0
 47 42  1  0
 26 21  1  0
 37 29  1  0
  1 49  1  0
  1 50  1  0
  1 51  1  0
  5 52  1  0
  7 53  1  0
  8 54  1  0
  9 55  1  0
 11 56  1  0
 11 57  1  0
 18 58  1  0
 19 59  1  0
 22 60  1  0
 23 61  1  0
 24 62  1  0
 25 63  1  0
 27 64  1  0
 27 65  1  0
 30 66  1  0
 31 67  1  0
 34 68  1  0
 36 69  1  0
 37 70  1  0
 38 71  1  0
 39 72  1  0
 43 73  1  0
 43 74  1  0
 44 75  1  0
 44 76  1  0
 46 77  1  0
 46 78  1  0
 47 79  1  0
 47 80  1  0
 48 81  1  0
M  CHG  1  34  -1
M  END
>  <UniqueID>  (16) 
16

>  <SMILES>  (16) 
CS(=O)(=O)Nc1cccc(CC(=NS(=O)(=O)c2ccc(-c3ccccc3COc3ccc(C([NH-])=O)cc3)cc2)C(=O)N2CCOCC2)c1

>  <Energy>  (16) 
105.2791767771764

>  <Genealogy>  (16) 
CS(=O)(=O)Nc1cccc(CC(=NS(=O)(=O)c2ccc(-c3ccccc3COc3ccc(C([NH-])=O)cc3)cc2)C(=O)N2CCOCC2)c1 (protonated)
CS(=O)(=O)Nc1cccc(CC(=NS(=O)(=O)c2ccc(-c3ccccc3COc3ccc(C([NH-])=O)cc3)cc2)C(=O)N2CCOCC2)c1 (3D coordinates assigned)
CS(=O)(=O)Nc1cccc(CC(=NS(=O)(=O)c2ccc(-c3ccccc3COc3ccc(C([NH-])=O)cc3)cc2)C(=O)N2CCOCC2)c1 (nonaromatic ring conformer: 105.2791767771764 kcal/mol)

>  <smiles>  (16) 
CS(=O)(=O)Nc1cccc(CC(=NS(=O)(=O)c2ccc(-c3ccccc3COc3ccc(C(N)=O)cc3)cc2)C(=O)N2CCOCC2)c1

>  <score_type>  (16) 
oracle

>  <origin>  (16) 
adg

>  <m_score__min__energy>  (16) 
-15.01

>  <m_primary>  (16) 
energy

$$$$
16:0
     RDKit          3D

 63 66  0  0  0  0  0  0  0  0999 V2000
   67.4960   33.3240   50.5780 C   0  0  0  0  0  0  0  0  0  0  0  0
   66.4480   32.3680   50.7000 O   0  0  0  0  0  0  0  0  0  0  0  0
   65.1290   32.5820   50.2730 C   0  0  0  0  0  0  0  0  0  0  0  0
   64.8210   33.1050   49.0030 C   0  0  0  0  0  0  0  0  0  0  0  0
   63.4890   33.2980   48.6230 C   0  0  0  0  0  0  0  0  0  0  0  0
   62.4500   32.9630   49.5010 C   0  0  0  0  0  0  0  0  0  0  0  0
   60.7750   33.2140   49.0120 S   0  0  0  0  0  0  0  0  0  0  0  0
   59.8840   32.9720   50.1980 O   0  0  0  0  0  0  0  0  0  0  0  0
   60.5840   34.6360   48.5550 O   0  0  0  0  0  0  0  0  0  0  0  0
   60.3630   32.1110   47.7210 N   0  0  0  0  0  0  0  0  0  0  0  0
   61.3780   31.0440   47.6420 C   0  0  0  0  0  0  0  0  0  0  0  0
   61.1040   30.1540   46.4270 C   0  0  0  0  0  0  0  0  0  0  0  0
   59.6940   29.7550   46.3840 N   0  0  0  0  0  0  0  0  0  0  0  0
   59.2490   28.8890   45.3270 C   0  0  0  0  0  0  0  0  0  0  0  0
   59.5750   29.1470   44.1370 O   0  0  0  0  0  0  0  0  0  0  0  0
   58.4250   27.6920   45.6090 C   0  0  0  0  0  0  0  0  0  0  0  0
   59.0590   26.4610   45.8510 C   0  0  0  0  0  0  0  0  0  0  0  0
   58.3050   25.3200   46.1240 C   0  0  0  0  0  0  0  0  0  0  0  0
   56.9120   25.3970   46.1710 C   0  0  0  0  0  0  0  0  0  0  0  0
   56.2680   26.6170   45.9530 C   0  0  0  0  0  0  0  0  0  0  0  0
   57.0170   27.7800   45.6800 C   0  0  0  0  0  0  0  0  0  0  0  0
   56.4040   29.0320   45.4960 O   0  0  0  0  0  0  0  0  0  0  0  0
   56.0080   29.5910   44.2450 C   0  0  0  0  0  0  0  0  0  0  0  0
   56.8190   30.8190   43.9320 C   0  0  0  0  0  0  0  0  0  0  0  0
   57.3330   31.0250   42.6430 C   0  0  0  0  0  0  0  0  0  0  0  0
   58.1040   32.1560   42.3650 C   0  0  0  0  0  0  0  0  0  0  0  0
   58.3740   33.0870   43.3720 C   0  0  0  0  0  0  0  0  0  0  0  0
   57.8660   32.8960   44.6650 C   0  0  0  0  0  0  0  0  0  0  0  0
   58.1950   33.8710   45.7580 C   0  0  0  0  0  0  0  0  0  0  0  0
   57.1050   31.7500   44.9450 C   0  0  0  0  0  0  0  0  0  0  0  0
   58.7910   30.1210   47.4810 C   0  0  0  0  0  0  0  0  0  0  0  0
   58.9780   31.5950   47.8990 C   0  0  0  0  0  0  0  0  0  0  0  0
   62.7540   32.4470   50.7680 C   0  0  0  0  0  0  0  0  0  0  0  0
   64.0850   32.2580   51.1490 C   0  0  0  0  0  0  0  0  0  0  0  0
   67.8315   33.6301   51.5799 H   0  0  0  0  0  0  0  0  0  0  0  0
   68.3384   32.8767   50.0299 H   0  0  0  0  0  0  0  0  0  0  0  0
   67.1278   34.2038   50.0299 H   0  0  0  0  0  0  0  0  0  0  0  0
   65.6319   33.3632   48.3060 H   0  0  0  0  0  0  0  0  0  0  0  0
   63.2564   33.7141   47.6317 H   0  0  0  0  0  0  0  0  0  0  0  0
   60.4030   32.6650   46.8320 H   0  0  0  0  0  0  0  0  0  0  0  0
   62.3760   31.4963   47.5453 H   0  0  0  0  0  0  0  0  0  0  0  0
   61.3338   30.4334   48.5559 H   0  0  0  0  0  0  0  0  0  0  0  0
   61.3502   30.7092   45.5099 H   0  0  0  0  0  0  0  0  0  0  0  0
   61.7252   29.2495   46.5041 H   0  0  0  0  0  0  0  0  0  0  0  0
   60.1568   26.3972   45.8249 H   0  0  0  0  0  0  0  0  0  0  0  0
   58.8085   24.3584   46.3025 H   0  0  0  0  0  0  0  0  0  0  0  0
   56.3197   24.4940   46.3804 H   0  0  0  0  0  0  0  0  0  0  0  0
   55.1701   26.6709   45.9945 H   0  0  0  0  0  0  0  0  0  0  0  0
   56.1610   28.8450   43.4513 H   0  0  0  0  0  0  0  0  0  0  0  0
   54.9464   29.8731   44.3033 H   0  0  0  0  0  0  0  0  0  0  0  0
   57.1280   30.2929   41.8481 H   0  0  0  0  0  0  0  0  0  0  0  0
   58.4997   32.3144   41.3510 H   0  0  0  0  0  0  0  0  0  0  0  0
   58.9872   33.9727   43.1494 H   0  0  0  0  0  0  0  0  0  0  0  0
   58.0339   33.3937   46.7359 H   0  0  0  0  0  0  0  0  0  0  0  0
   59.2471   34.1797   45.6695 H   0  0  0  0  0  0  0  0  0  0  0  0
   57.5451   34.7540   45.6695 H   0  0  0  0  0  0  0  0  0  0  0  0
   56.7298   31.5796   45.9649 H   0  0  0  0  0  0  0  0  0  0  0  0
   57.7516   29.9713   47.1535 H   0  0  0  0  0  0  0  0  0  0  0  0
   59.0240   29.4842   48.3471 H   0  0  0  0  0  0  0  0  0  0  0  0
   58.2994   32.2136   47.2934 H   0  0  0  0  0  0  0  0  0  0  0  0
   58.7580   31.6476   48.9755 H   0  0  0  0  0  0  0  0  0  0  0  0
   61.9424   32.1900   51.4646 H   0  0  0  0  0  0  0  0  0  0  0  0
   64.3149   31.8515   52.1449 H   0  0  0  0  0  0  0  0  0  0  0  0
  1  2  1  0
  2  3  1  0
  3  4  2  0
  4  5  1  0
  5  6  2  0
  6  7  1  0
  7  8  2  0
  7  9  2  0
  7 10  1  0
 10 11  1  0
 11 12  1  0
 12 13  1  0
 13 14  1  0
 14 15  2  0
 14 16  1  0
 16 17  2  0
 17 18  1  0
 18 19  2  0
 19 20  1  0
 20 21  2  0
 21 22  1  0
 22 23  1  0
 23 24  1  0
 24 25  2  0
 25 26  1  0
 26 27  2  0
 27 28  1  0
 28 29  1  0
 28 30  2  0
 13 31  1  0
 31 32  1  0
  6 33  1  0
 33 34  2  0
 34  3  1  0
 32 10  1  0
 21 16  1  0
 30 24  1  0
  1 35  1  0
  1 36  1  0
  1 37  1  0
  4 38  1  0
  5 39  1  0
 10 40  1  0
 11 41  1  0
 11 42  1  0
 12 43  1  0
 12 44  1  0
 17 45  1  0
 18 46  1  0
 19 47  1  0
 20 48  1  0
 23 49  1  0
 23 50  1  0
 25 51  1  0
 26 52  1  0
 27 53  1  0
 29 54  1  0
 29 55  1  0
 29 56  1  0
 30 57  1  0
 31 58  1  0
 31 59  1  0
 32 60  1  0
 32 61  1  0
 33 62  1  0
 34 63  1  0
M  CHG  1  10   1
M  END
>  <UniqueID>  (17) 
17

>  <SMILES>  (17) 
COc1ccc(S(=O)(=O)[NH+]2CCN(C(=O)c3ccccc3OCc3cccc(C)c3)CC2)cc1

>  <Energy>  (17) 
74.21758113695631

>  <Genealogy>  (17) 
COc1ccc(S(=O)(=O)[NH+]2CCN(C(=O)c3ccccc3OCc3cccc(C)c3)CC2)cc1 (protonated)
COc1ccc(S(=O)(=O)[NH+]2CCN(C(=O)c3ccccc3OCc3cccc(C)c3)CC2)cc1 (3D coordinates assigned)
COc1ccc(S(=O)(=O)[NH+]2CCN(C(=O)c3ccccc3OCc3cccc(C)c3)CC2)cc1 (nonaromatic ring conformer: 74.21758113695631 kcal/mol)

>  <smiles>  (17) 
COc1ccc(S(=O)(=O)N2CCN(C(=O)c3ccccc3OCc3cccc(C)c3)CC2)cc1

>  <score_type>  (17) 
oracle

>  <origin>  (17) 
adg

>  <m_score__min__energy>  (17) 
-7.71

>  <m_primary>  (17) 
energy

$$$$
17:0
     RDKit          3D

 50 53  0  0  0  0  0  0  0  0999 V2000
   60.5347   28.5910   47.3544 H   0  0  0  0  0  0  0  0  0  0  0  0
   59.7690   28.1640   46.6900 C   0  0  0  0  0  0  0  0  0  0  0  0
   59.7488   27.0809   46.4988 H   0  0  0  0  0  0  0  0  0  0  0  0
   58.8600   28.9640   46.1130 C   0  0  0  0  0  0  0  0  0  0  0  0
   57.8180   28.5940   45.2430 C   0  0  0  0  0  0  0  0  0  0  0  0
   57.3790   27.3820   44.8490 C   0  0  0  0  0  0  0  0  0  0  0  0
   57.1214   27.2623   43.7863 H   0  0  0  0  0  0  0  0  0  0  0  0
   57.2140   26.2020   45.7190 C   0  0  0  0  0  0  0  0  0  0  0  0
   55.9700   25.9200   46.3000 C   0  0  0  0  0  0  0  0  0  0  0  0
   54.8630   26.7150   46.0250 O   0  0  0  0  0  0  0  0  0  0  0  0
   55.8370   24.8560   47.1330 N   0  0  0  0  0  0  0  0  0  0  0  0
   56.8970   24.0630   47.4320 C   0  0  0  0  0  0  0  0  0  0  0  0
   56.7500   23.0800   48.2040 O   0  0  0  0  0  0  0  0  0  0  0  0
   58.1190   24.3300   46.9020 N   0  0  0  0  0  0  0  0  0  0  0  0
   58.3040   25.3830   46.0630 C   0  0  0  0  0  0  0  0  0  0  0  0
   59.4550   25.6140   45.6050 O   0  0  0  0  0  0  0  0  0  0  0  0
   57.2310   29.7750   44.8170 C   0  0  0  0  0  0  0  0  0  0  0  0
   56.3961   29.8724   44.1075 H   0  0  0  0  0  0  0  0  0  0  0  0
   57.8930   30.8050   45.4520 C   0  0  0  0  0  0  0  0  0  0  0  0
   57.5640   32.2590   45.2960 C   0  0  0  0  0  0  0  0  0  0  0  0
   57.4597   32.7200   46.2893 H   0  0  0  0  0  0  0  0  0  0  0  0
   58.3714   32.7603   44.7421 H   0  0  0  0  0  0  0  0  0  0  0  0
   56.6194   32.3638   44.7421 H   0  0  0  0  0  0  0  0  0  0  0  0
   58.8690   30.3150   46.2470 N   0  0  0  0  0  0  0  0  0  0  0  0
   59.7830   31.1070   47.0250 C   0  0  0  0  0  0  0  0  0  0  0  0
   59.2920   32.0340   47.9530 C   0  0  0  0  0  0  0  0  0  0  0  0
   58.2066   32.1602   48.0792 H   0  0  0  0  0  0  0  0  0  0  0  0
   60.1750   32.7990   48.7190 C   0  0  0  0  0  0  0  0  0  0  0  0
   59.7808   33.5200   49.4502 H   0  0  0  0  0  0  0  0  0  0  0  0
   61.5650   32.6530   48.5610 C   0  0  0  0  0  0  0  0  0  0  0  0
   62.5060   33.4550   49.3770 C   0  0  0  0  0  0  0  0  0  0  0  0
   62.3860   34.7100   49.4080 O   0  0  0  0  0  0  0  0  0  0  0  0
   63.5710   32.8300   50.1140 N   0  0  0  0  0  0  0  0  0  0  0  0
   64.8860   33.4780   50.1510 C   0  0  0  0  0  0  0  0  0  0  0  0
   65.2328   33.6543   49.1221 H   0  0  0  0  0  0  0  0  0  0  0  0
   64.7990   34.4340   50.6882 H   0  0  0  0  0  0  0  0  0  0  0  0
   65.8950   32.5890   50.8780 C   0  0  0  0  0  0  0  0  0  0  0  0
   66.9156   32.8770   50.5856 H   0  0  0  0  0  0  0  0  0  0  0  0
   65.7774   32.7123   51.9647 H   0  0  0  0  0  0  0  0  0  0  0  0
   65.6680   31.2400   50.5290 O   0  0  0  0  0  0  0  0  0  0  0  0
   64.4870   30.7640   51.1550 C   0  0  0  0  0  0  0  0  0  0  0  0
   64.2078   29.8089   50.6861 H   0  0  0  0  0  0  0  0  0  0  0  0
   64.7144   30.6593   52.2261 H   0  0  0  0  0  0  0  0  0  0  0  0
   63.2840   31.7300   51.0450 C   0  0  0  0  0  0  0  0  0  0  0  0
   62.4077   31.1724   50.6828 H   0  0  0  0  0  0  0  0  0  0  0  0
   63.0872   32.1569   52.0395 H   0  0  0  0  0  0  0  0  0  0  0  0
   62.0520   31.7100   47.6390 C   0  0  0  0  0  0  0  0  0  0  0  0
   63.1369   31.5735   47.5191 H   0  0  0  0  0  0  0  0  0  0  0  0
   61.1670   30.9440   46.8730 C   0  0  0  0  0  0  0  0  0  0  0  0
   61.6560   30.0560   45.9720 F   0  0  0  0  0  0  0  0  0  0  0  0
  1  2  1  0
  2  3  1  0
  2  4  2  0
  4  5  1  0
  5  6  2  0
  6  7  1  0
  6  8  1  0
  8  9  2  0
  9 10  1  0
  9 11  1  0
 11 12  1  0
 12 13  2  0
 12 14  1  0
 14 15  1  0
 15 16  2  0
  5 17  1  0
 17 18  1  0
 17 19  2  0
 19 20  1  0
 20 21  1  0
 20 22  1  0
 20 23  1  0
 19 24  1  0
 24 25  1  0
 25 26  2  0
 26 27  1  0
 26 28  1  0
 28 29  1  0
 28 30  2  0
 30 31  1  0
 31 32  2  0
 31 33  1  0
 33 34  1  0
 34 35  1  0
 34 36  1  0
 34 37  1  0
 37 38  1  0
 37 39  1  0
 37 40  1  0
 40 41  1  0
 41 42  1  0
 41 43  1  0
 41 44  1  0
 44 45  1  0
 44 46  1  0
 30 47  1  0
 47 48  1  0
 47 49  2  0
 49 50  1  0
 24  4  1  0
 49 25  1  0
 15  8  1  0
 44 33  1  0
M  CHG  3  10  -1  11  -1  14  -1
M  END
>  <UniqueID>  (18) 
18

>  <SMILES>  (18) 
C=c1/c(=C\c2c([O-])[n-]c(=O)[n-]c2=O)cc(C)n1-c1ccc(C(=O)N2CCOCC2)cc1F

>  <Energy>  (18) 
114.15628051738827

>  <Genealogy>  (18) 
C=c1c(=Cc2c([O-])[n-]c(=O)[n-]c2=O)cc(C)n1-c1ccc(C(=O)N2CCOCC2)cc1F (protonated)
C=c1/c(=C\c2c([O-])[n-]c(=O)[n-]c2=O)cc(C)n1-c1ccc(C(=O)N2CCOCC2)cc1F (cis-trans isomerization)
C=c1/c(=C\c2c([O-])[n-]c(=O)[n-]c2=O)cc(C)n1-c1ccc(C(=O)N2CCOCC2)cc1F (3D coordinates assigned)
C=c1/c(=C\c2c([O-])[n-]c(=O)[n-]c2=O)cc(C)n1-c1ccc(C(=O)N2CCOCC2)cc1F (nonaromatic ring conformer: 114.15628051738827 kcal/mol)

>  <smiles>  (18) 
C=c1c(=Cc2c(O)[nH]c(=O)[nH]c2=O)cc(C)n1-c1ccc(C(=O)N2CCOCC2)cc1F

>  <score_type>  (18) 
oracle

>  <origin>  (18) 
adg

>  <m_score__min__energy>  (18) 
-16.010000000000002

>  <m_primary>  (18) 
energy

$$$$
18:0
     RDKit          3D

 66 70  0  0  0  0  0  0  0  0999 V2000
   58.8400   34.5890   44.7230 O   0  0  0  0  0  0  0  0  0  0  0  0
   58.3580   33.7200   45.5010 C   0  0  0  0  0  0  0  0  0  0  0  0
   57.3380   32.8260   45.0360 N   0  0  0  0  0  0  0  0  0  0  0  0
   57.5020   31.4450   44.6810 C   0  0  0  0  0  0  0  0  0  0  0  0
   56.5800   30.8650   43.8010 C   0  0  0  0  0  0  0  0  0  0  0  0
   56.6920   29.5200   43.4440 C   0  0  0  0  0  0  0  0  0  0  0  0
   57.7170   28.7350   43.9750 C   0  0  0  0  0  0  0  0  0  0  0  0
   58.6320   29.2900   44.8830 C   0  0  0  0  0  0  0  0  0  0  0  0
   59.7390   28.4510   45.4650 C   0  0  0  0  0  0  0  0  0  0  0  0
   59.2050   27.5320   46.4960 N   0  0  0  0  0  0  0  0  0  0  0  0
   58.2240   28.1820   47.3940 C   0  0  0  0  0  0  0  0  0  0  0  0
   58.8780   29.1900   48.3680 C   0  0  0  0  0  0  0  0  0  0  0  0
   60.3420   29.0170   48.4250 N   0  0  0  0  0  0  0  0  0  0  0  0
   60.9960   29.8790   49.4340 C   0  0  0  0  0  0  0  0  0  0  0  0
   61.9310   30.9170   48.8480 C   0  0  0  0  0  0  0  0  0  0  0  0
   61.6120   31.5600   47.6400 C   0  0  0  0  0  0  0  0  0  0  0  0
   62.4710   32.5240   47.1060 C   0  0  0  0  0  0  0  0  0  0  0  0
   63.6620   32.8420   47.7610 C   0  0  0  0  0  0  0  0  0  0  0  0
   64.0130   32.1830   48.9530 C   0  0  0  0  0  0  0  0  0  0  0  0
   65.1950   32.4820   49.6450 O   0  0  0  0  0  0  0  0  0  0  0  0
   65.3240   33.4480   50.6550 C   0  0  0  0  0  0  0  0  0  0  0  0
   64.1630   34.0000   51.2100 C   0  0  0  0  0  0  0  0  0  0  0  0
   64.2500   34.9540   52.2280 C   0  0  0  0  0  0  0  0  0  0  0  0
   65.5000   35.3540   52.7080 C   0  0  0  0  0  0  0  0  0  0  0  0
   66.6640   34.7950   52.1750 C   0  0  0  0  0  0  0  0  0  0  0  0
   66.5800   33.8400   51.1560 C   0  0  0  0  0  0  0  0  0  0  0  0
   63.1390   31.2340   49.4950 C   0  0  0  0  0  0  0  0  0  0  0  0
   60.7110   27.5980   48.5300 C   0  0  0  0  0  0  0  0  0  0  0  0
   60.2700   26.8380   47.2620 C   0  0  0  0  0  0  0  0  0  0  0  0
   58.5190   30.6450   45.2370 C   0  0  0  0  0  0  0  0  0  0  0  0
   58.8140   33.6570   46.9090 C   0  0  0  0  0  0  0  0  0  0  0  0
   58.3070   32.6750   47.7830 C   0  0  0  0  0  0  0  0  0  0  0  0
   58.7340   32.6230   49.1130 C   0  0  0  0  0  0  0  0  0  0  0  0
   59.6720   33.5430   49.5860 C   0  0  0  0  0  0  0  0  0  0  0  0
   60.0840   33.4860   50.8770 F   0  0  0  0  0  0  0  0  0  0  0  0
   60.1850   34.5180   48.7290 C   0  0  0  0  0  0  0  0  0  0  0  0
   59.7580   34.5790   47.3990 C   0  0  0  0  0  0  0  0  0  0  0  0
   55.7618   31.4734   43.3881 H   0  0  0  0  0  0  0  0  0  0  0  0
   55.9701   29.0773   42.7419 H   0  0  0  0  0  0  0  0  0  0  0  0
   57.8077   27.6789   43.6810 H   0  0  0  0  0  0  0  0  0  0  0  0
   60.2072   27.8621   44.6625 H   0  0  0  0  0  0  0  0  0  0  0  0
   60.4821   29.1152   45.9305 H   0  0  0  0  0  0  0  0  0  0  0  0
   57.4851   28.7166   46.7790 H   0  0  0  0  0  0  0  0  0  0  0  0
   57.7562   27.3922   48.0001 H   0  0  0  0  0  0  0  0  0  0  0  0
   58.6520   30.2119   48.0293 H   0  0  0  0  0  0  0  0  0  0  0  0
   58.4706   29.0109   49.3739 H   0  0  0  0  0  0  0  0  0  0  0  0
   60.2123   30.4015   50.0021 H   0  0  0  0  0  0  0  0  0  0  0  0
   61.6098   29.2193   50.0649 H   0  0  0  0  0  0  0  0  0  0  0  0
   60.6816   31.3032   47.1123 H   0  0  0  0  0  0  0  0  0  0  0  0
   62.2081   33.0335   46.1672 H   0  0  0  0  0  0  0  0  0  0  0  0
   64.3286   33.6109   47.3433 H   0  0  0  0  0  0  0  0  0  0  0  0
   63.1764   33.6810   50.8427 H   0  0  0  0  0  0  0  0  0  0  0  0
   63.3335   35.3904   52.6517 H   0  0  0  0  0  0  0  0  0  0  0  0
   65.5673   36.1088   53.5053 H   0  0  0  0  0  0  0  0  0  0  0  0
   67.6476   35.1060   52.5569 H   0  0  0  0  0  0  0  0  0  0  0  0
   67.4978   33.3942   50.7451 H   0  0  0  0  0  0  0  0  0  0  0  0
   63.3996   30.7303   50.4375 H   0  0  0  0  0  0  0  0  0  0  0  0
   61.8019   27.5136   48.6433 H   0  0  0  0  0  0  0  0  0  0  0  0
   60.2077   27.1599   49.4045 H   0  0  0  0  0  0  0  0  0  0  0  0
   61.1456   26.7150   46.6077 H   0  0  0  0  0  0  0  0  0  0  0  0
   59.8558   25.8734   47.5906 H   0  0  0  0  0  0  0  0  0  0  0  0
   59.2295   31.0838   45.9530 H   0  0  0  0  0  0  0  0  0  0  0  0
   57.5706   31.9447   47.4164 H   0  0  0  0  0  0  0  0  0  0  0  0
   58.3299   31.8551   49.7890 H   0  0  0  0  0  0  0  0  0  0  0  0
   60.9269   35.2400   49.1008 H   0  0  0  0  0  0  0  0  0  0  0  0
   60.1628   35.3532   46.7306 H   0  0  0  0  0  0  0  0  0  0  0  0
  1  2  2  0
  2  3  1  0
  3  4  1  0
  4  5  2  0
  5  6  1  0
  6  7  2  0
  7  8  1  0
  8  9  1  0
  9 10  1  0
 10 11  1  0
 11 12  1  0
 12 13  1  0
 13 14  1  0
 14 15  1  0
 15 16  2  0
 16 17  1  0
 17 18  2  0
 18 19  1  0
 19 20  1  0
 20 21  1  0
 21 22  2  0
 22 23  1  0
 23 24  2  0
 24 25  1  0
 25 26  2  0
 19 27  2  0
 13 28  1  0
 28 29  1  0
  8 30  2  0
  2 31  1  0
 31 32  2  0
 32 33  1  0
 33 34  2  0
 34 35  1  0
 34 36  1  0
 36 37  2  0
 30  4  1  0
 37 31  1  0
 29 10  1  0
 27 15  1  0
 26 21  1  0
  5 38  1  0
  6 39  1  0
  7 40  1  0
  9 41  1  0
  9 42  1  0
 11 43  1  0
 11 44  1  0
 12 45  1  0
 12 46  1  0
 14 47  1  0
 14 48  1  0
 16 49  1  0
 17 50  1  0
 18 51  1  0
 22 52  1  0
 23 53  1  0
 24 54  1  0
 25 55  1  0
 26 56  1  0
 27 57  1  0
 28 58  1  0
 28 59  1  0
 29 60  1  0
 29 61  1  0
 30 62  1  0
 32 63  1  0
 33 64  1  0
 36 65  1  0
 37 66  1  0
M  CHG  1   3  -1
M  END
>  <UniqueID>  (19) 
19

>  <SMILES>  (19) 
O=C([N-]c1cccc(CN2CCN(Cc3cccc(Oc4ccccc4)c3)CC2)c1)c1ccc(F)cc1

>  <Energy>  (19) 
96.7248624752859

>  <Genealogy>  (19) 
O=C([N-]c1cccc(CN2CCN(Cc3cccc(Oc4ccccc4)c3)CC2)c1)c1ccc(F)cc1 (protonated)
O=C([N-]c1cccc(CN2CCN(Cc3cccc(Oc4ccccc4)c3)CC2)c1)c1ccc(F)cc1 (3D coordinates assigned)
O=C([N-]c1cccc(CN2CCN(Cc3cccc(Oc4ccccc4)c3)CC2)c1)c1ccc(F)cc1 (nonaromatic ring conformer: 96.7248624752859 kcal/mol)

>  <smiles>  (19) 
O=C(Nc1cccc(CN2CCN(Cc3cccc(Oc4ccccc4)c3)CC2)c1)c1ccc(F)cc1

>  <score_type>  (19) 
oracle

>  <origin>  (19) 
adg

>  <m_score__min__energy>  (19) 
-12.369999999999999

>  <m_primary>  (19) 
energy

$$$$
19:0
     RDKit          3D

 65 69  0  0  0  0  0  0  0  0999 V2000
   57.9290   32.0710   48.4640 H   0  0  0  0  0  0  0  0  0  0  0  0
   58.1690   32.0610   49.4470 O   0  0  0  0  0  0  0  0  0  0  0  0
   59.3570   32.6090   49.9430 C   0  0  0  0  0  0  0  0  0  0  0  0
   59.9810   32.0700   51.0920 C   0  0  0  0  0  0  0  0  0  0  0  0
   59.3700   30.9580   51.8590 C   0  0  0  0  0  0  0  0  0  0  0  0
   58.3450   31.1650   52.7540 C   0  0  0  0  0  0  0  0  0  0  0  0
   58.5940   31.7130   54.0350 C   0  0  0  0  0  0  0  0  0  0  0  0
   59.7520   32.4300   54.3230 O   0  0  0  0  0  0  0  0  0  0  0  0
   57.6640   31.5510   55.0530 C   0  0  0  0  0  0  0  0  0  0  0  0
   57.8518   31.9907   56.0437 H   0  0  0  0  0  0  0  0  0  0  0  0
   56.4960   30.8340   54.8220 C   0  0  0  0  0  0  0  0  0  0  0  0
   55.7390   30.5890   55.8020 O   0  0  0  0  0  0  0  0  0  0  0  0
   56.1680   30.4230   53.5510 N   0  0  0  0  0  0  0  0  0  0  0  0
   55.0170   29.5050   53.3670 C   0  0  0  0  0  0  0  0  0  0  0  0
   55.2693   28.7482   52.6096 H   0  0  0  0  0  0  0  0  0  0  0  0
   54.7890   29.0077   54.3213 H   0  0  0  0  0  0  0  0  0  0  0  0
   53.8150   30.2900   52.9110 C   0  0  0  0  0  0  0  0  0  0  0  0
   53.6740   30.6230   51.5520 C   0  0  0  0  0  0  0  0  0  0  0  0
   54.4032   30.2499   50.8178 H   0  0  0  0  0  0  0  0  0  0  0  0
   52.6110   31.4260   51.1310 C   0  0  0  0  0  0  0  0  0  0  0  0
   52.5025   31.6794   50.0661 H   0  0  0  0  0  0  0  0  0  0  0  0
   51.6850   31.9080   52.0610 C   0  0  0  0  0  0  0  0  0  0  0  0
   50.6380   32.7190   51.6430 O   0  0  0  0  0  0  0  0  0  0  0  0
   51.8170   31.5800   53.4140 C   0  0  0  0  0  0  0  0  0  0  0  0
   51.0843   31.9549   54.1438 H   0  0  0  0  0  0  0  0  0  0  0  0
   52.8790   30.7760   53.8410 C   0  0  0  0  0  0  0  0  0  0  0  0
   52.9822   30.5234   54.9066 H   0  0  0  0  0  0  0  0  0  0  0  0
   56.9920   30.7650   52.4910 C   0  0  0  0  0  0  0  0  0  0  0  0
   56.4840   30.8780   51.2440 C   0  0  0  0  0  0  0  0  0  0  0  0
   55.4470   30.5713   51.0427 H   0  0  0  0  0  0  0  0  0  0  0  0
   57.1075   31.2766   50.4302 H   0  0  0  0  0  0  0  0  0  0  0  0
   59.6460   29.6540   51.3350 N   0  0  0  0  0  0  0  0  0  0  0  0
   59.8900   29.1200   49.9790 C   0  0  0  0  0  0  0  0  0  0  0  0
   58.9603   28.8509   49.4563 H   0  0  0  0  0  0  0  0  0  0  0  0
   60.3699   29.7962   49.2562 H   0  0  0  0  0  0  0  0  0  0  0  0
   60.6720   27.9270   50.4090 C   0  0  0  0  0  0  0  0  0  0  0  0
   60.2027   26.9530   50.2062 H   0  0  0  0  0  0  0  0  0  0  0  0
   61.6657   27.6680   50.0146 H   0  0  0  0  0  0  0  0  0  0  0  0
   60.4350   28.4850   51.7720 C   0  0  0  0  0  0  0  0  0  0  0  0
   59.8600   27.8024   52.4150 H   0  0  0  0  0  0  0  0  0  0  0  0
   61.3227   28.6855   52.3898 H   0  0  0  0  0  0  0  0  0  0  0  0
   61.1810   32.6300   51.5570 C   0  0  0  0  0  0  0  0  0  0  0  0
   61.6692   32.2121   52.4498 H   0  0  0  0  0  0  0  0  0  0  0  0
   61.7580   33.7120   50.8950 C   0  0  0  0  0  0  0  0  0  0  0  0
   62.6978   34.1456   51.2676 H   0  0  0  0  0  0  0  0  0  0  0  0
   61.1470   34.2460   49.7620 C   0  0  0  0  0  0  0  0  0  0  0  0
   61.6025   35.1078   49.2523 H   0  0  0  0  0  0  0  0  0  0  0  0
   59.9550   33.6940   49.2650 C   0  0  0  0  0  0  0  0  0  0  0  0
   59.3290   34.2770   48.0090 C   0  0  0  0  0  0  0  0  0  0  0  0
   58.5741   35.0178   48.3113 H   0  0  0  0  0  0  0  0  0  0  0  0
   60.1480   34.7193   47.4228 H   0  0  0  0  0  0  0  0  0  0  0  0
   58.6740   33.2750   47.1380 N   0  0  0  0  0  0  0  0  0  0  0  0
   59.5740   32.1950   46.6910 C   0  0  0  0  0  0  0  0  0  0  0  0
   60.4403   32.6355   46.1758 H   0  0  0  0  0  0  0  0  0  0  0  0
   59.9066   31.6222   47.5693 H   0  0  0  0  0  0  0  0  0  0  0  0
   58.8380   31.2450   45.7250 C   0  0  0  0  0  0  0  0  0  0  0  0
   59.2019   31.4199   44.7018 H   0  0  0  0  0  0  0  0  0  0  0  0
   59.0378   30.2082   46.0334 H   0  0  0  0  0  0  0  0  0  0  0  0
   57.4400   31.4650   45.7630 O   0  0  0  0  0  0  0  0  0  0  0  0
   57.1430   32.7630   45.2740 C   0  0  0  0  0  0  0  0  0  0  0  0
   57.3771   32.7982   44.1998 H   0  0  0  0  0  0  0  0  0  0  0  0
   56.0762   32.9561   45.4598 H   0  0  0  0  0  0  0  0  0  0  0  0
   57.9540   33.8620   45.9950 C   0  0  0  0  0  0  0  0  0  0  0  0
   58.6778   34.3026   45.2936 H   0  0  0  0  0  0  0  0  0  0  0  0
   57.2694   34.6433   46.3567 H   0  0  0  0  0  0  0  0  0  0  0  0
  1  2  1  0
  2  3  1  0
  3  4  2  0
  4  5  1  0
  5  6  2  0
  6  7  1  0
  7  8  1  0
  7  9  2  0
  9 10  1  0
  9 11  1  0
 11 12  2  0
 11 13  1  0
 13 14  1  0
 14 15  1  0
 14 16  1  0
 14 17  1  0
 17 18  2  0
 18 19  1  0
 18 20  1  0
 20 21  1  0
 20 22  2  0
 22 23  1  0
 22 24  1  0
 24 25  1  0
 24 26  2  0
 26 27  1  0
 13 28  1  0
 28 29  2  0
 29 30  1  0
 29 31  1  0
  5 32  1  0
 32 33  1  0
 33 34  1  0
 33 35  1  0
 33 36  1  0
 36 37  1  0
 36 38  1  0
 36 39  1  0
 39 40  1  0
 39 41  1  0
  4 42  1  0
 42 43  1  0
 42 44  2  0
 44 45  1  0
 44 46  1  0
 46 47  1  0
 46 48  2  0
 48 49  1  0
 49 50  1  0
 49 51  1  0
 49 52  1  0
 52 53  1  0
 53 54  1  0
 53 55  1  0
 53 56  1  0
 56 57  1  0
 56 58  1  0
 56 59  1  0
 59 60  1  0
 60 61  1  0
 60 62  1  0
 60 63  1  0
 63 64  1  0
 63 65  1  0
 48  3  1  0
 63 52  1  0
 28  6  1  0
 39 32  1  0
 26 17  1  0
M  CHG  2   8  -1  23  -1
M  END
>  <UniqueID>  (20) 
20

>  <SMILES>  (20) 
C=c1/c(=C(\c2cccc(CN3CCOCC3)c2O)N2CCC2)c([O-])cc(=O)n1Cc1ccc([O-])cc1

>  <Energy>  (20) 
172.8082949080973

>  <Genealogy>  (20) 
C=c1c(=C(c2cccc(CN3CCOCC3)c2O)N2CCC2)c([O-])cc(=O)n1Cc1ccc([O-])cc1 (protonated)
C=c1/c(=C(\c2cccc(CN3CCOCC3)c2O)N2CCC2)c([O-])cc(=O)n1Cc1ccc([O-])cc1 (cis-trans isomerization)
C=c1/c(=C(\c2cccc(CN3CCOCC3)c2O)N2CCC2)c([O-])cc(=O)n1Cc1ccc([O-])cc1 (3D coordinates assigned)
C=c1/c(=C(\c2cccc(CN3CCOCC3)c2O)N2CCC2)c([O-])cc(=O)n1Cc1ccc([O-])cc1 (nonaromatic ring conformer: 172.8082949080973 kcal/mol)

>  <smiles>  (20) 
C=c1c(=C(c2cccc(CN3CCOCC3)c2O)N2CCC2)c(O)cc(=O)n1Cc1ccc(O)cc1

>  <score_type>  (20) 
oracle

>  <origin>  (20) 
adg

>  <m_score__min__energy>  (20) 
-13.859999999999999

>  <m_primary>  (20) 
energy

$$$$
20:0
     RDKit          3D

 43 45  0  0  0  0  0  0  0  0999 V2000
   54.5810   26.1850   45.8560 O   0  0  0  0  0  0  0  0  0  0  0  0
   55.6500   25.5340   45.9960 C   0  0  0  0  0  0  0  0  0  0  0  0
   56.8150   26.1930   46.6870 C   0  0  0  0  0  0  0  0  0  0  0  0
   57.4780   27.2140   45.8100 C   0  0  0  0  0  0  0  0  0  0  0  0
   58.8300   27.3030   45.5270 C   0  0  0  0  0  0  0  0  0  0  0  0
   58.9810   28.4330   44.7450 C   0  0  0  0  0  0  0  0  0  0  0  0
   60.2030   28.8730   44.2410 O   0  0  0  0  0  0  0  0  0  0  0  0
   57.7900   29.0460   44.5450 N   0  0  0  0  0  0  0  0  0  0  0  0
   57.5100   30.2510   43.7600 C   0  0  0  0  0  0  0  0  0  0  0  0
   56.7160   31.2730   44.5820 C   0  0  0  0  0  0  0  0  0  0  0  0
   57.5910   32.4040   45.0590 C   0  0  0  0  0  0  0  0  0  0  0  0
   57.7110   32.6750   46.4320 C   0  0  0  0  0  0  0  0  0  0  0  0
   58.5500   33.7020   46.8760 C   0  0  0  0  0  0  0  0  0  0  0  0
   59.2800   34.4570   45.9540 C   0  0  0  0  0  0  0  0  0  0  0  0
   59.1740   34.1850   44.5880 C   0  0  0  0  0  0  0  0  0  0  0  0
   58.3360   33.1600   44.1420 C   0  0  0  0  0  0  0  0  0  0  0  0
   56.8780   28.2960   45.1960 C   0  0  0  0  0  0  0  0  0  0  0  0
   55.5210   28.5960   45.2430 O   0  0  0  0  0  0  0  0  0  0  0  0
   55.6880   24.1730   45.5420 N   0  0  0  0  0  0  0  0  0  0  0  0
   56.8500   23.4260   45.1600 C   0  0  0  0  0  0  0  0  0  0  0  0
   58.1080   23.6900   45.7290 C   0  0  0  0  0  0  0  0  0  0  0  0
   59.2270   22.9480   45.3380 C   0  0  0  0  0  0  0  0  0  0  0  0
   59.1040   21.9580   44.3600 C   0  0  0  0  0  0  0  0  0  0  0  0
   57.8660   21.7240   43.7560 C   0  0  0  0  0  0  0  0  0  0  0  0
   56.7430   22.4640   44.1460 C   0  0  0  0  0  0  0  0  0  0  0  0
   55.5190   22.2280   43.5310 O   0  0  0  0  0  0  0  0  0  0  0  0
   56.4534   26.6887   47.6000 H   0  0  0  0  0  0  0  0  0  0  0  0
   57.5552   25.4153   46.9261 H   0  0  0  0  0  0  0  0  0  0  0  0
   59.6224   26.6151   45.8569 H   0  0  0  0  0  0  0  0  0  0  0  0
   60.9350   28.2310   43.9660 H   0  0  0  0  0  0  0  0  0  0  0  0
   58.4617   30.7042   43.4457 H   0  0  0  0  0  0  0  0  0  0  0  0
   56.9098   29.9654   42.8836 H   0  0  0  0  0  0  0  0  0  0  0  0
   55.9101   31.6848   43.9568 H   0  0  0  0  0  0  0  0  0  0  0  0
   56.3064   30.7600   45.4646 H   0  0  0  0  0  0  0  0  0  0  0  0
   57.1432   32.0775   47.1604 H   0  0  0  0  0  0  0  0  0  0  0  0
   58.6354   33.9157   47.9517 H   0  0  0  0  0  0  0  0  0  0  0  0
   59.9383   35.2657   46.3041 H   0  0  0  0  0  0  0  0  0  0  0  0
   59.7507   34.7782   43.8630 H   0  0  0  0  0  0  0  0  0  0  0  0
   58.2600   32.9447   43.0660 H   0  0  0  0  0  0  0  0  0  0  0  0
   58.2126   24.4828   46.4843 H   0  0  0  0  0  0  0  0  0  0  0  0
   60.2053   23.1441   45.8011 H   0  0  0  0  0  0  0  0  0  0  0  0
   59.9812   21.3631   44.0657 H   0  0  0  0  0  0  0  0  0  0  0  0
   57.7734   20.9572   42.9728 H   0  0  0  0  0  0  0  0  0  0  0  0
  1  2  2  0
  2  3  1  0
  3  4  1  0
  4  5  1  0
  5  6  2  0
  6  7  1  0
  6  8  1  0
  8  9  1  0
  9 10  1  0
 10 11  1  0
 11 12  2  0
 12 13  1  0
 13 14  2  0
 14 15  1  0
 15 16  2  0
  8 17  1  0
 17 18  1  0
  2 19  1  0
 19 20  1  0
 20 21  2  0
 21 22  1  0
 22 23  2  0
 23 24  1  0
 24 25  2  0
 25 26  1  0
 17  4  2  0
 25 20  1  0
 16 11  1  0
  3 27  1  0
  3 28  1  0
  5 29  1  0
  7 30  1  0
  9 31  1  0
  9 32  1  0
 10 33  1  0
 10 34  1  0
 12 35  1  0
 13 36  1  0
 14 37  1  0
 15 38  1  0
 16 39  1  0
 21 40  1  0
 22 41  1  0
 23 42  1  0
 24 43  1  0
M  CHG  3  18  -1  19  -1  26  -1
M  END
>  <UniqueID>  (21) 
21

>  <SMILES>  (21) 
O=C(Cc1cc(O)n(CCc2ccccc2)c1[O-])[N-]c1ccccc1[O-]

>  <Energy>  (21) 
70.47414209775847

>  <Genealogy>  (21) 
O=C(Cc1cc(O)n(CCc2ccccc2)c1[O-])[N-]c1ccccc1[O-] (protonated)
O=C(Cc1cc(O)n(CCc2ccccc2)c1[O-])[N-]c1ccccc1[O-] (3D coordinates assigned)
O=C(Cc1cc(O)n(CCc2ccccc2)c1[O-])[N-]c1ccccc1[O-] (optimized conformer: 70.47414209775847 kcal/mol)

>  <smiles>  (21) 
O=C(Cc1cc(O)n(CCc2ccccc2)c1O)Nc1ccccc1O

>  <score_type>  (21) 
oracle

>  <origin>  (21) 
adg

>  <m_score__min__energy>  (21) 
-15.35

>  <m_primary>  (21) 
energy

$$$$
21:0
     RDKit          3D

 64 68  0  0  0  0  0  0  0  0999 V2000
   58.2150   34.3380   52.3860 C   0  0  0  0  0  0  0  0  0  0  0  0
   58.8910   33.0320   52.3020 N   0  0  0  0  0  0  0  0  0  0  0  0
   60.3190   33.2120   51.9430 C   0  0  0  0  0  0  0  0  0  0  0  0
   60.8940   31.9650   51.2560 C   0  0  0  0  0  0  0  0  0  0  0  0
   60.1690   31.6480   50.0030 N   0  0  0  0  0  0  0  0  0  0  0  0
   60.9050   31.9530   48.7510 C   0  0  0  0  0  0  0  0  0  0  0  0
   60.1320   32.8240   47.7720 C   0  0  0  0  0  0  0  0  0  0  0  0
   59.5420   32.2460   46.6340 C   0  0  0  0  0  0  0  0  0  0  0  0
   58.7650   33.0150   45.7490 C   0  0  0  0  0  0  0  0  0  0  0  0
   58.0990   32.3760   44.5850 C   0  0  0  0  0  0  0  0  0  0  0  0
   58.4350   32.7510   43.2720 C   0  0  0  0  0  0  0  0  0  0  0  0
   57.8030   32.1500   42.1800 C   0  0  0  0  0  0  0  0  0  0  0  0
   56.8240   31.1740   42.3840 C   0  0  0  0  0  0  0  0  0  0  0  0
   56.4630   30.7950   43.6850 C   0  0  0  0  0  0  0  0  0  0  0  0
   55.4180   29.7360   43.9070 C   0  0  0  0  0  0  0  0  0  0  0  0
   55.7090   28.9960   45.1300 N   0  0  0  0  0  0  0  0  0  0  0  0
   57.0000   28.4580   45.4240 C   0  0  0  0  0  0  0  0  0  0  0  0
   57.6980   28.9460   46.3530 O   0  0  0  0  0  0  0  0  0  0  0  0
   57.5180   27.3030   44.6300 C   0  0  0  0  0  0  0  0  0  0  0  0
   57.3370   26.0290   45.3960 C   0  0  0  0  0  0  0  0  0  0  0  0
   57.3730   25.8680   46.7810 C   0  0  0  0  0  0  0  0  0  0  0  0
   57.2250   24.5600   47.1110 N   0  0  0  0  0  0  0  0  0  0  0  0
   57.1060   23.8970   45.9470 C   0  0  0  0  0  0  0  0  0  0  0  0
   56.9560   22.5300   45.7470 C   0  0  0  0  0  0  0  0  0  0  0  0
   56.8770   22.0770   44.4170 C   0  0  0  0  0  0  0  0  0  0  0  0
   56.9520   23.0070   43.3520 C   0  0  0  0  0  0  0  0  0  0  0  0
   57.1010   24.3420   43.6030 N   0  0  0  0  0  0  0  0  0  0  0  0
   57.1720   24.7590   44.8920 C   0  0  0  0  0  0  0  0  0  0  0  0
   57.1140   31.3890   44.7800 C   0  0  0  0  0  0  0  0  0  0  0  0
   58.6230   34.3910   45.9880 C   0  0  0  0  0  0  0  0  0  0  0  0
   59.2570   34.9860   47.0770 C   0  0  0  0  0  0  0  0  0  0  0  0
   60.0180   34.2170   47.9610 C   0  0  0  0  0  0  0  0  0  0  0  0
   60.6670   34.8520   49.0150 O   0  0  0  0  0  0  0  0  0  0  0  0
   58.7550   32.0880   49.9860 C   0  0  0  0  0  0  0  0  0  0  0  0
   58.1610   32.1050   51.4020 C   0  0  0  0  0  0  0  0  0  0  0  0
   58.0739   34.6106   53.4423 H   0  0  0  0  0  0  0  0  0  0  0  0
   58.8308   35.1022   51.8892 H   0  0  0  0  0  0  0  0  0  0  0  0
   57.2355   34.2765   51.8892 H   0  0  0  0  0  0  0  0  0  0  0  0
   60.4093   34.0691   51.2594 H   0  0  0  0  0  0  0  0  0  0  0  0
   60.8861   33.3849   52.8696 H   0  0  0  0  0  0  0  0  0  0  0  0
   61.9533   32.1443   51.0197 H   0  0  0  0  0  0  0  0  0  0  0  0
   60.7829   31.1126   51.9423 H   0  0  0  0  0  0  0  0  0  0  0  0
   61.8364   32.4746   49.0163 H   0  0  0  0  0  0  0  0  0  0  0  0
   61.0847   30.9920   48.2468 H   0  0  0  0  0  0  0  0  0  0  0  0
   59.6906   31.1748   46.4326 H   0  0  0  0  0  0  0  0  0  0  0  0
   59.2005   33.5227   43.1033 H   0  0  0  0  0  0  0  0  0  0  0  0
   58.0771   32.4462   41.1567 H   0  0  0  0  0  0  0  0  0  0  0  0
   56.3343   30.7008   41.5201 H   0  0  0  0  0  0  0  0  0  0  0  0
   54.4303   30.2119   43.9956 H   0  0  0  0  0  0  0  0  0  0  0  0
   55.4222   29.0406   43.0547 H   0  0  0  0  0  0  0  0  0  0  0  0
   56.9667   27.2379   43.6804 H   0  0  0  0  0  0  0  0  0  0  0  0
   58.5893   27.4544   44.4314 H   0  0  0  0  0  0  0  0  0  0  0  0
   57.5031   26.6864   47.5043 H   0  0  0  0  0  0  0  0  0  0  0  0
   57.2230   24.1540   48.0730 H   0  0  0  0  0  0  0  0  0  0  0  0
   56.9012   21.8303   46.5940 H   0  0  0  0  0  0  0  0  0  0  0  0
   56.7574   21.0042   44.2055 H   0  0  0  0  0  0  0  0  0  0  0  0
   56.8897   22.6516   42.3129 H   0  0  0  0  0  0  0  0  0  0  0  0
   56.8506   31.0789   45.8020 H   0  0  0  0  0  0  0  0  0  0  0  0
   58.0079   35.0029   45.3119 H   0  0  0  0  0  0  0  0  0  0  0  0
   59.1576   36.0690   47.2418 H   0  0  0  0  0  0  0  0  0  0  0  0
   58.6998   33.1014   49.5617 H   0  0  0  0  0  0  0  0  0  0  0  0
   58.1772   31.3792   49.3747 H   0  0  0  0  0  0  0  0  0  0  0  0
   57.1097   32.4232   51.3419 H   0  0  0  0  0  0  0  0  0  0  0  0
   58.2475   31.0904   51.8180 H   0  0  0  0  0  0  0  0  0  0  0  0
  1  2  1  0
  2  3  1  0
  3  4  1  0
  4  5  1  0
  5  6  1  0
  6  7  1  0
  7  8  2  0
  8  9  1  0
  9 10  1  0
 10 11  2  0
 11 12  1  0
 12 13  2  0
 13 14  1  0
 14 15  1  0
 15 16  1  0
 16 17  1  0
 17 18  2  0
 17 19  1  0
 19 20  1  0
 20 21  2  0
 21 22  1  0
 22 23  1  0
 23 24  2  0
 24 25  1  0
 25 26  2  0
 26 27  1  0
 27 28  2  0
 14 29  2  0
  9 30  2  0
 30 31  1  0
 31 32  2  0
 32 33  1  0
  5 34  1  0
 34 35  1  0
 35  2  1  0
 32  7  1  0
 29 10  1  0
 28 20  1  0
 28 23  1  0
  1 36  1  0
  1 37  1  0
  1 38  1  0
  3 39  1  0
  3 40  1  0
  4 41  1  0
  4 42  1  0
  6 43  1  0
  6 44  1  0
  8 45  1  0
 11 46  1  0
 12 47  1  0
 13 48  1  0
 15 49  1  0
 15 50  1  0
 19 51  1  0
 19 52  1  0
 21 53  1  0
 22 54  1  0
 24 55  1  0
 25 56  1  0
 26 57  1  0
 29 58  1  0
 30 59  1  0
 31 60  1  0
 34 61  1  0
 34 62  1  0
 35 63  1  0
 35 64  1  0
M  CHG  2  16  -1  33  -1
M  END
>  <UniqueID>  (22) 
22

>  <SMILES>  (22) 
CN1CCN(Cc2cc(-c3cccc(C[N-]C(=O)Cc4c[nH]c5cccnc45)c3)ccc2[O-])CC1

>  <Energy>  (22) 
119.40265100379506

>  <Genealogy>  (22) 
CN1CCN(Cc2cc(-c3cccc(C[N-]C(=O)Cc4c[nH]c5cccnc45)c3)ccc2[O-])CC1 (protonated)
CN1CCN(Cc2cc(-c3cccc(C[N-]C(=O)Cc4c[nH]c5cccnc45)c3)ccc2[O-])CC1 (3D coordinates assigned)
CN1CCN(Cc2cc(-c3cccc(C[N-]C(=O)Cc4c[nH]c5cccnc45)c3)ccc2[O-])CC1 (nonaromatic ring conformer: 119.40265100379506 kcal/mol)

>  <smiles>  (22) 
CN1CCN(Cc2cc(-c3cccc(CNC(=O)Cc4c[nH]c5cccnc45)c3)ccc2O)CC1

>  <score_type>  (22) 
oracle

>  <origin>  (22) 
adg

>  <m_score__min__energy>  (22) 
-12

>  <m_primary>  (22) 
energy

$$$$
22:0
     RDKit          3D

 53 56  0  0  0  0  0  0  0  0999 V2000
   57.7410   28.4710   52.1930 H   0  0  0  0  0  0  0  0  0  0  0  0
   57.2760   29.3380   51.9520 O   0  0  0  0  0  0  0  0  0  0  0  0
   57.8270   30.5860   52.2420 C   0  0  0  0  0  0  0  0  0  0  0  0
   57.1590   31.7370   51.8060 C   0  0  0  0  0  0  0  0  0  0  0  0
   56.2196   31.6434   51.2415 H   0  0  0  0  0  0  0  0  0  0  0  0
   57.6790   33.0030   52.0840 C   0  0  0  0  0  0  0  0  0  0  0  0
   57.1430   33.9031   51.7485 H   0  0  0  0  0  0  0  0  0  0  0  0
   58.8780   33.1270   52.7870 C   0  0  0  0  0  0  0  0  0  0  0  0
   59.2902   34.1246   52.9987 H   0  0  0  0  0  0  0  0  0  0  0  0
   59.5550   31.9860   53.2220 C   0  0  0  0  0  0  0  0  0  0  0  0
   60.5070   32.0884   53.7635 H   0  0  0  0  0  0  0  0  0  0  0  0
   59.0270   30.7060   52.9720 C   0  0  0  0  0  0  0  0  0  0  0  0
   59.7070   29.5240   53.4210 N   0  0  0  0  0  0  0  0  0  0  0  0
   59.9620   28.3530   52.6340 C   0  0  0  0  0  0  0  0  0  0  0  0
   59.4240   27.2650   52.9650 O   0  0  0  0  0  0  0  0  0  0  0  0
   60.8090   28.3860   51.4770 N   0  0  0  0  0  0  0  0  0  0  0  0
   61.3540   29.5660   50.8700 C   0  0  0  0  0  0  0  0  0  0  0  0
   61.0670   29.8320   49.5270 C   0  0  0  0  0  0  0  0  0  0  0  0
   60.4414   29.1328   48.9527 H   0  0  0  0  0  0  0  0  0  0  0  0
   61.5700   30.9800   48.9110 C   0  0  0  0  0  0  0  0  0  0  0  0
   61.3214   31.1937   47.8610 H   0  0  0  0  0  0  0  0  0  0  0  0
   62.3900   31.8590   49.6280 C   0  0  0  0  0  0  0  0  0  0  0  0
   63.0470   33.3280   48.8300 S   0  0  0  0  0  0  0  0  0  0  0  0
   61.4920   34.2820   48.9280 C   0  0  0  0  0  0  0  0  0  0  0  0
   61.0667   34.1724   49.9365 H   0  0  0  0  0  0  0  0  0  0  0  0
   61.7167   35.3375   48.7146 H   0  0  0  0  0  0  0  0  0  0  0  0
   60.4900   33.7940   47.9170 C   0  0  0  0  0  0  0  0  0  0  0  0
   59.3740   33.0470   48.3230 C   0  0  0  0  0  0  0  0  0  0  0  0
   59.2504   32.7811   49.3832 H   0  0  0  0  0  0  0  0  0  0  0  0
   58.4190   32.6390   47.3890 C   0  0  0  0  0  0  0  0  0  0  0  0
   57.5483   32.0534   47.7190 H   0  0  0  0  0  0  0  0  0  0  0  0
   58.5620   32.9710   46.0300 C   0  0  0  0  0  0  0  0  0  0  0  0
   57.5390   32.5510   45.0430 C   0  0  0  0  0  0  0  0  0  0  0  0
   57.2060   33.3330   44.1110 O   0  0  0  0  0  0  0  0  0  0  0  0
   56.8490   31.3030   45.2060 N   0  0  0  0  0  0  0  0  0  0  0  0
   57.3320   30.0900   45.2150 C   0  0  0  0  0  0  0  0  0  0  0  0
   58.6870   29.9520   45.2370 N   0  0  0  0  0  0  0  0  0  0  0  0
   59.3010   28.7400   45.2580 C   0  0  0  0  0  0  0  0  0  0  0  0
   60.3992   28.6802   45.2790 H   0  0  0  0  0  0  0  0  0  0  0  0
   58.5400   27.5730   45.2530 C   0  0  0  0  0  0  0  0  0  0  0  0
   59.0302   26.5889   45.2881 H   0  0  0  0  0  0  0  0  0  0  0  0
   57.1510   27.6670   45.2030 C   0  0  0  0  0  0  0  0  0  0  0  0
   56.5399   26.7524   45.1950 H   0  0  0  0  0  0  0  0  0  0  0  0
   56.5310   28.9190   45.1630 C   0  0  0  0  0  0  0  0  0  0  0  0
   55.1490   28.9650   45.0190 O   0  0  0  0  0  0  0  0  0  0  0  0
   59.6820   33.7180   45.6270 C   0  0  0  0  0  0  0  0  0  0  0  0
   59.8072   33.9852   44.5673 H   0  0  0  0  0  0  0  0  0  0  0  0
   60.6380   34.1240   46.5620 C   0  0  0  0  0  0  0  0  0  0  0  0
   61.5117   34.7058   46.2332 H   0  0  0  0  0  0  0  0  0  0  0  0
   62.6960   31.5900   50.9670 C   0  0  0  0  0  0  0  0  0  0  0  0
   63.3347   32.2829   51.5345 H   0  0  0  0  0  0  0  0  0  0  0  0
   62.1910   30.4420   51.5840 C   0  0  0  0  0  0  0  0  0  0  0  0
   62.4489   30.2232   52.6307 H   0  0  0  0  0  0  0  0  0  0  0  0
  1  2  1  0
  2  3  1  0
  3  4  2  0
  4  5  1  0
  4  6  1  0
  6  7  1  0
  6  8  2  0
  8  9  1  0
  8 10  1  0
 10 11  1  0
 10 12  2  0
 12 13  1  0
 13 14  1  0
 14 15  2  0
 14 16  1  0
 16 17  1  0
 17 18  2  0
 18 19  1  0
 18 20  1  0
 20 21  1  0
 20 22  2  0
 22 23  1  0
 23 24  1  0
 24 25  1  0
 24 26  1  0
 24 27  1  0
 27 28  2  0
 28 29  1  0
 28 30  1  0
 30 31  1  0
 30 32  2  0
 32 33  1  0
 33 34  2  0
 33 35  1  0
 35 36  2  0
 36 37  1  0
 37 38  1  0
 38 39  1  0
 38 40  2  0
 40 41  1  0
 40 42  1  0
 42 43  1  0
 42 44  2  0
 44 45  1  0
 32 46  1  0
 46 47  1  0
 46 48  2  0
 48 49  1  0
 22 50  1  0
 50 51  1  0
 50 52  2  0
 52 53  1  0
 12  3  1  0
 52 17  1  0
 48 27  1  0
 44 36  1  0
M  CHG  4  13  -1  16  -1  37  -1  45  -1
M  END
>  <UniqueID>  (23) 
23

>  <SMILES>  (23) 
O=C([N-]c1ccc(SCc2ccc(C(=O)/N=c3/[n-]cccc3[O-])cc2)cc1)[N-]c1ccccc1O

>  <Energy>  (23) 
73.47555510427287

>  <Genealogy>  (23) 
O=C([N-]c1ccc(SCc2ccc(C(=O)N=c3[n-]cccc3[O-])cc2)cc1)[N-]c1ccccc1O (protonated)
O=C([N-]c1ccc(SCc2ccc(C(=O)/N=c3/[n-]cccc3[O-])cc2)cc1)[N-]c1ccccc1O (cis-trans isomerization)
O=C([N-]c1ccc(SCc2ccc(C(=O)/N=c3/[n-]cccc3[O-])cc2)cc1)[N-]c1ccccc1O (3D coordinates assigned)
O=C([N-]c1ccc(SCc2ccc(C(=O)/N=c3/[n-]cccc3[O-])cc2)cc1)[N-]c1ccccc1O (optimized conformer: 73.47555510427287 kcal/mol)

>  <smiles>  (23) 
O=C(Nc1ccc(SCc2ccc(C(=O)N=c3[nH]cccc3O)cc2)cc1)Nc1ccccc1O

>  <score_type>  (23) 
oracle

>  <origin>  (23) 
adg

>  <m_score__min__energy>  (23) 
-16.550000000000001

>  <m_primary>  (23) 
energy

$$$$
23:0
     RDKit          3D

 51 55  0  0  0  0  0  0  0  0999 V2000
   58.1348   33.7266   47.9276 H   0  0  0  0  0  0  0  0  0  0  0  0
   58.0710   33.3910   46.8820 C   0  0  0  0  0  0  0  0  0  0  0  0
   57.0280   32.6630   46.4090 N   0  0  0  0  0  0  0  0  0  0  0  0
   57.1800   32.3500   45.1040 C   0  0  0  0  0  0  0  0  0  0  0  0
   56.2760   31.6870   44.4480 N   0  0  0  0  0  0  0  0  0  0  0  0
   56.4600   30.4610   43.7280 C   0  0  0  0  0  0  0  0  0  0  0  0
   56.6590   30.5150   42.4840 O   0  0  0  0  0  0  0  0  0  0  0  0
   56.3100   29.1920   44.3790 N   0  0  0  0  0  0  0  0  0  0  0  0
   57.2250   28.6160   45.3210 C   0  0  0  0  0  0  0  0  0  0  0  0
   58.5130   29.1470   45.5130 C   0  0  0  0  0  0  0  0  0  0  0  0
   58.8425   30.0148   44.9227 H   0  0  0  0  0  0  0  0  0  0  0  0
   59.3760   28.5740   46.4530 C   0  0  0  0  0  0  0  0  0  0  0  0
   60.3933   28.9736   46.5773 H   0  0  0  0  0  0  0  0  0  0  0  0
   58.9500   27.4920   47.2380 C   0  0  0  0  0  0  0  0  0  0  0  0
   59.8390   26.8710   48.1740 N   0  0  0  0  0  0  0  0  0  0  0  0
   60.2930   27.3140   49.3170 C   0  0  0  0  0  0  0  0  0  0  0  0
   61.0030   26.3940   50.1000 C   0  0  0  0  0  0  0  0  0  0  0  0
   61.0224   25.3323   49.8129 H   0  0  0  0  0  0  0  0  0  0  0  0
   61.6840   26.8150   51.2390 C   0  0  0  0  0  0  0  0  0  0  0  0
   62.2561   26.0887   51.8349 H   0  0  0  0  0  0  0  0  0  0  0  0
   61.6450   28.1140   51.6160 N   0  0  0  0  0  0  0  0  0  0  0  0
   60.9100   29.0350   50.9410 C   0  0  0  0  0  0  0  0  0  0  0  0
   60.8610   30.3460   51.4230 C   0  0  0  0  0  0  0  0  0  0  0  0
   61.4913   30.6399   52.2752 H   0  0  0  0  0  0  0  0  0  0  0  0
   60.0160   31.2840   50.8280 C   0  0  0  0  0  0  0  0  0  0  0  0
   59.9400   32.9200   51.4540 Cl  0  0  0  0  0  0  0  0  0  0  0  0
   59.1850   30.9000   49.7790 C   0  0  0  0  0  0  0  0  0  0  0  0
   58.4845   31.6272   49.3425 H   0  0  0  0  0  0  0  0  0  0  0  0
   59.2350   29.5970   49.2770 C   0  0  0  0  0  0  0  0  0  0  0  0
   58.5506   29.2991   48.4690 H   0  0  0  0  0  0  0  0  0  0  0  0
   60.1560   28.6560   49.7960 C   0  0  0  0  0  0  0  0  0  0  0  0
   57.6730   26.9570   47.0400 C   0  0  0  0  0  0  0  0  0  0  0  0
   57.3478   26.0852   47.6267 H   0  0  0  0  0  0  0  0  0  0  0  0
   56.8060   27.5260   46.0980 C   0  0  0  0  0  0  0  0  0  0  0  0
   55.5320   26.9970   45.9300 O   0  0  0  0  0  0  0  0  0  0  0  0
   58.6150   32.9790   44.4750 S   0  0  0  0  0  0  0  0  0  0  0  0
   59.0520   33.6790   45.9410 C   0  0  0  0  0  0  0  0  0  0  0  0
   60.3090   34.4520   46.1860 C   0  0  0  0  0  0  0  0  0  0  0  0
   60.6457   34.9055   45.2421 H   0  0  0  0  0  0  0  0  0  0  0  0
   60.1070   35.2363   46.9304 H   0  0  0  0  0  0  0  0  0  0  0  0
   61.3860   33.5450   46.7120 C   0  0  0  0  0  0  0  0  0  0  0  0
   61.0470   32.3920   47.4390 C   0  0  0  0  0  0  0  0  0  0  0  0
   59.9893   32.1452   47.6132 H   0  0  0  0  0  0  0  0  0  0  0  0
   62.0490   31.5570   47.9420 C   0  0  0  0  0  0  0  0  0  0  0  0
   61.7779   30.6527   48.5065 H   0  0  0  0  0  0  0  0  0  0  0  0
   63.3940   31.8690   47.7290 C   0  0  0  0  0  0  0  0  0  0  0  0
   64.1809   31.2037   48.1140 H   0  0  0  0  0  0  0  0  0  0  0  0
   63.7390   33.0260   47.0270 C   0  0  0  0  0  0  0  0  0  0  0  0
   64.7982   33.2763   46.8678 H   0  0  0  0  0  0  0  0  0  0  0  0
   62.7400   33.8670   46.5260 C   0  0  0  0  0  0  0  0  0  0  0  0
   63.0160   34.7838   45.9844 H   0  0  0  0  0  0  0  0  0  0  0  0
  1  2  1  0
  2  3  1  0
  3  4  1  0
  4  5  2  3
  5  6  1  0
  6  7  2  0
  6  8  1  0
  8  9  1  0
  9 10  2  0
 10 11  1  0
 10 12  1  0
 12 13  1  0
 12 14  2  0
 14 15  1  0
 15 16  2  0
 16 17  1  0
 17 18  1  0
 17 19  2  0
 19 20  1  0
 19 21  1  0
 21 22  1  0
 22 23  2  0
 23 24  1  0
 23 25  1  0
 25 26  1  0
 25 27  2  0
 27 28  1  0
 27 29  1  0
 29 30  1  0
 29 31  2  0
 14 32  1  0
 32 33  1  0
 32 34  2  0
 34 35  1  0
  4 36  1  0
 36 37  1  0
 37 38  1  0
 38 39  1  0
 38 40  1  0
 38 41  1  0
 41 42  2  0
 42 43  1  0
 42 44  1  0
 44 45  1  0
 44 46  2  0
 46 47  1  0
 46 48  1  0
 48 49  1  0
 48 50  2  0
 50 51  1  0
 37  2  2  0
 50 41  1  0
 34  9  1  0
 31 16  1  0
 31 22  1  0
M  CHG  4   3  -1   8  -1  21  -1  35  -1
M  END
>  <UniqueID>  (24) 
24

>  <SMILES>  (24) 
O=C(N=c1[n-]cc(Cc2ccccc2)s1)[N-]c1ccc(/N=c2/cc[n-]c3cc(Cl)ccc23)cc1[O-]

>  <Energy>  (24) 
117.39682896758862

>  <Genealogy>  (24) 
O=C(N=c1[n-]cc(Cc2ccccc2)s1)[N-]c1ccc(N=c2cc[n-]c3cc(Cl)ccc23)cc1[O-] (protonated)
O=C(N=c1[n-]cc(Cc2ccccc2)s1)[N-]c1ccc(/N=c2/cc[n-]c3cc(Cl)ccc23)cc1[O-] (cis-trans isomerization)
O=C(N=c1[n-]cc(Cc2ccccc2)s1)[N-]c1ccc(/N=c2/cc[n-]c3cc(Cl)ccc23)cc1[O-] (3D coordinates assigned)
O=C(N=c1[n-]cc(Cc2ccccc2)s1)[N-]c1ccc(/N=c2/cc[n-]c3cc(Cl)ccc23)cc1[O-] (optimized conformer: 117.39682896758862 kcal/mol)

>  <smiles>  (24) 
O=C(N=c1[nH]cc(Cc2ccccc2)s1)Nc1ccc(N=c2cc[nH]c3cc(Cl)ccc23)cc1O

>  <score_type>  (24) 
oracle

>  <origin>  (24) 
adg

>  <m_score__min__energy>  (24) 
-15.66

>  <m_primary>  (24) 
energy

$$$$
24:0
     RDKit          3D

 52 55  0  0  1  0  0  0  0  0999 V2000
   59.1850   28.0260   43.7480 O   0  0  0  0  0  0  0  0  0  0  0  0
   58.9770   27.1060   44.5990 C   0  0  0  0  0  0  0  0  0  0  0  0
   57.7880   26.2490   44.3450 C   0  0  0  0  0  0  0  0  0  0  0  0
   56.7110   26.5220   45.2350 N   0  0  0  0  0  0  0  0  0  0  0  0
   55.8510   25.1780   45.8180 S   0  0  0  0  0  0  0  0  0  0  0  0
   56.0150   25.0070   47.3090 O   0  0  0  0  0  0  0  0  0  0  0  0
   54.3660   25.4740   45.6180 O   0  0  0  0  0  0  0  0  0  0  0  0
   56.1640   23.7050   44.9480 C   0  0  0  0  0  0  0  0  0  0  0  0
   56.0550   23.6130   43.5690 C   0  0  0  0  0  0  0  0  0  0  0  0
   56.2970   22.4330   42.8800 C   0  0  0  0  0  0  0  0  0  0  0  0
   56.6630   21.3220   43.6530 C   0  0  0  0  0  0  0  0  0  0  0  0
   56.7820   21.3740   45.0190 C   0  0  0  0  0  0  0  0  0  0  0  0
   56.5270   22.5800   45.6370 C   0  0  0  0  0  0  0  0  0  0  0  0
   59.8480   26.9400   45.7120 N   0  0  0  0  0  0  0  0  0  0  0  0
   59.9840   27.8440   46.6040 C   0  0  0  0  0  0  0  0  0  0  0  0
   59.9310   27.8300   47.9410 N   0  0  0  0  0  0  0  0  0  0  0  0
   60.1060   28.9310   48.6080 C   0  0  0  0  0  0  0  0  0  0  0  0
   60.3390   30.1000   47.9630 C   0  0  0  0  0  0  0  0  0  0  0  0
   60.5550   31.4090   48.5060 C   0  0  0  0  0  0  0  0  0  0  0  0
   59.9530   32.5470   47.8010 C   0  0  0  0  0  0  0  0  0  0  0  0
   60.2710   33.8120   48.2150 C   0  0  0  0  0  0  0  0  0  0  0  0
   59.8000   34.9690   47.6500 C   0  0  0  0  0  0  0  0  0  0  0  0
   58.9290   34.7830   46.5650 C   0  0  0  0  0  0  0  0  0  0  0  0
   58.5890   33.5260   46.1220 C   0  0  0  0  0  0  0  0  0  0  0  0
   57.6760   33.4590   44.9920 C   0  0  0  0  0  0  0  0  0  0  0  0
   56.6520   34.1840   44.8920 O   0  0  0  0  0  0  0  0  0  0  0  0
   57.8770   32.5450   43.8820 N   0  0  0  0  0  0  0  0  0  0  0  0
   57.3240   31.3300   44.0760 C   0  0  0  0  0  0  0  0  0  0  0  0
   56.2070   31.1430   44.8450 N   0  0  0  0  0  0  0  0  0  0  0  0
   56.0130   29.8320   44.7870 N   0  0  0  0  0  0  0  0  0  0  0  0
   56.9180   29.2390   44.0520 N   0  0  0  0  0  0  0  0  0  0  0  0
   57.7240   30.1610   43.6140 N   0  0  0  0  0  0  0  0  0  0  0  0
   59.0890   32.3620   46.7240 C   0  0  0  0  0  0  0  0  0  0  0  0
   60.3220   29.6340   46.1940 S   0  0  0  0  0  0  0  0  0  0  0  0
   57.4444   26.4211   43.3143 H   0  0  0  0  0  0  0  0  0  0  0  0
   58.0927   25.2041   44.5045 H   0  0  0  0  0  0  0  0  0  0  0  0
   56.1840   27.3840   45.0800 H   0  0  0  0  0  0  0  0  0  0  0  0
   55.7659   24.5088   42.9998 H   0  0  0  0  0  0  0  0  0  0  0  0
   56.2065   22.3725   41.7854 H   0  0  0  0  0  0  0  0  0  0  0  0
   56.8632   20.3683   43.1428 H   0  0  0  0  0  0  0  0  0  0  0  0
   57.0704   20.4857   45.6001 H   0  0  0  0  0  0  0  0  0  0  0  0
   56.6194   22.6402   46.7315 H   0  0  0  0  0  0  0  0  0  0  0  0
   59.7410   26.8820   48.4250 H   0  0  0  0  0  0  0  0  0  0  0  0
   60.0647   28.9143   49.7071 H   0  0  0  0  0  0  0  0  0  0  0  0
   60.1565   31.4094   49.5313 H   0  0  0  0  0  0  0  0  0  0  0  0
   61.6397   31.5705   48.4202 H   0  0  0  0  0  0  0  0  0  0  0  0
   60.9586   33.9081   49.0682 H   0  0  0  0  0  0  0  0  0  0  0  0
   60.0828   35.9661   48.0185 H   0  0  0  0  0  0  0  0  0  0  0  0
   58.5084   35.6634   46.0570 H   0  0  0  0  0  0  0  0  0  0  0  0
   56.9100   28.1890   43.9010 H   0  0  0  0  0  0  0  0  0  0  0  0
   58.5390   29.9810   42.9990 H   0  0  0  0  0  0  0  0  0  0  0  0
   58.8142   31.3590   46.3657 H   0  0  0  0  0  0  0  0  0  0  0  0
  1  2  2  0
  2  3  1  0
  3  4  1  0
  4  5  1  0
  5  6  2  0
  5  7  2  0
  5  8  1  0
  8  9  2  0
  9 10  1  0
 10 11  2  0
 11 12  1  0
 12 13  2  0
  2 14  1  0
 14 15  2  0
 15 16  1  0
 16 17  1  0
 17 18  2  0
 18 19  1  0
 19 20  1  0
 20 21  2  0
 21 22  1  0
 22 23  2  0
 23 24  1  0
 24 25  1  0
 25 26  2  0
 25 27  1  0
 27 28  2  3
 28 29  1  0
 29 30  2  0
 30 31  1  0
 31 32  1  0
 24 33  2  0
 18 34  1  0
 13  8  1  0
 34 15  1  0
 33 20  1  0
 32 28  1  0
  3 35  1  0
  3 36  1  0
  4 37  1  0
  9 38  1  0
 10 39  1  0
 11 40  1  0
 12 41  1  0
 13 42  1  0
 16 43  1  0
 17 44  1  0
 19 45  1  0
 19 46  1  0
 21 47  1  0
 22 48  1  0
 23 49  1  0
 31 50  1  0
 32 51  1  0
 33 52  1  0
M  END
>  <smiles>  (25) 
O=C(CNS(=O)(=O)c1ccccc1)N=c1[nH]cc(Cc2cccc(C(=O)N=c3nn[nH][nH]3)c2)s1

>  <score_type>  (25) 
oracle

>  <origin>  (25) 
adg

>  <m_score__min__energy>  (25) 
-11.609999999999999

>  <m_primary>  (25) 
energy

$$$$
25:0
     RDKit          3D

 54 57  0  0  0  0  0  0  0  0999 V2000
   58.2030   30.5660   44.1510 C   0  0  0  0  0  0  0  0  0  0  0  0
   58.3130   30.2390   45.4510 C   0  0  0  0  0  0  0  0  0  0  0  0
   57.9110   29.0290   46.0250 C   0  0  0  0  0  0  0  0  0  0  0  0
   57.3150   27.9860   45.4130 C   0  0  0  0  0  0  0  0  0  0  0  0
   57.2610   26.6230   45.9870 C   0  0  0  0  0  0  0  0  0  0  0  0
   56.0220   26.0190   46.2460 C   0  0  0  0  0  0  0  0  0  0  0  0
   54.8380   26.7060   45.9980 O   0  0  0  0  0  0  0  0  0  0  0  0
   55.9710   24.7580   46.7530 N   0  0  0  0  0  0  0  0  0  0  0  0
   57.1100   24.0590   47.0030 C   0  0  0  0  0  0  0  0  0  0  0  0
   57.0480   22.8940   47.4770 O   0  0  0  0  0  0  0  0  0  0  0  0
   58.3200   24.6130   46.7350 N   0  0  0  0  0  0  0  0  0  0  0  0
   58.4230   25.8680   46.2280 C   0  0  0  0  0  0  0  0  0  0  0  0
   59.5620   26.3330   45.9610 O   0  0  0  0  0  0  0  0  0  0  0  0
   58.1960   29.1230   47.3780 C   0  0  0  0  0  0  0  0  0  0  0  0
   58.7660   30.3630   47.5770 C   0  0  0  0  0  0  0  0  0  0  0  0
   59.1620   30.8980   48.9210 C   0  0  0  0  0  0  0  0  0  0  0  0
   58.8410   31.0490   46.4100 N   0  0  0  0  0  0  0  0  0  0  0  0
   59.3370   32.4280   46.2660 C   0  0  0  0  0  0  0  0  0  0  0  0
   60.5140   32.6660   47.1750 C   0  0  0  0  0  0  0  0  0  0  0  0
   61.6410   31.8340   47.1130 C   0  0  0  0  0  0  0  0  0  0  0  0
   62.7270   32.0450   47.9680 C   0  0  0  0  0  0  0  0  0  0  0  0
   62.7070   33.0970   48.9030 C   0  0  0  0  0  0  0  0  0  0  0  0
   63.8270   33.3140   49.7900 N   0  0  0  0  0  0  0  0  0  0  0  0
   63.6020   33.8000   51.1600 C   0  0  0  0  0  0  0  0  0  0  0  0
   64.8180   34.5830   51.6650 C   0  0  0  0  0  0  0  0  0  0  0  0
   66.1140   33.7530   51.6010 C   0  0  0  0  0  0  0  0  0  0  0  0
   66.1040   32.6720   50.5040 C   0  0  0  0  0  0  0  0  0  0  0  0
   65.1990   33.0480   49.3270 C   0  0  0  0  0  0  0  0  0  0  0  0
   61.5770   33.9320   48.9570 C   0  0  0  0  0  0  0  0  0  0  0  0
   60.4920   33.7190   48.1020 C   0  0  0  0  0  0  0  0  0  0  0  0
   58.5513   31.5485   43.7996 H   0  0  0  0  0  0  0  0  0  0  0  0
   57.7647   29.8510   43.4392 H   0  0  0  0  0  0  0  0  0  0  0  0
   56.8434   28.1574   44.4341 H   0  0  0  0  0  0  0  0  0  0  0  0
   55.0420   24.3220   46.9520 H   0  0  0  0  0  0  0  0  0  0  0  0
   58.0047   28.3574   48.1443 H   0  0  0  0  0  0  0  0  0  0  0  0
   58.7059   30.2818   49.7098 H   0  0  0  0  0  0  0  0  0  0  0  0
   60.2572   30.8680   49.0194 H   0  0  0  0  0  0  0  0  0  0  0  0
   58.8134   31.9366   49.0194 H   0  0  0  0  0  0  0  0  0  0  0  0
   59.6461   32.5939   45.2234 H   0  0  0  0  0  0  0  0  0  0  0  0
   58.5312   33.1249   46.5396 H   0  0  0  0  0  0  0  0  0  0  0  0
   61.6709   31.0089   46.3861 H   0  0  0  0  0  0  0  0  0  0  0  0
   63.6040   31.3836   47.9095 H   0  0  0  0  0  0  0  0  0  0  0  0
   62.7202   34.4575   51.1693 H   0  0  0  0  0  0  0  0  0  0  0  0
   63.4407   32.9345   51.8195 H   0  0  0  0  0  0  0  0  0  0  0  0
   64.9427   35.4824   51.0441 H   0  0  0  0  0  0  0  0  0  0  0  0
   64.6369   34.8445   52.7180 H   0  0  0  0  0  0  0  0  0  0  0  0
   66.9544   34.4359   51.4078 H   0  0  0  0  0  0  0  0  0  0  0  0
   66.2095   33.2316   52.5649 H   0  0  0  0  0  0  0  0  0  0  0  0
   67.1302   32.5358   50.1320 H   0  0  0  0  0  0  0  0  0  0  0  0
   65.7118   31.7451   50.9479 H   0  0  0  0  0  0  0  0  0  0  0  0
   65.5969   33.9502   48.8394 H   0  0  0  0  0  0  0  0  0  0  0  0
   65.1760   32.2088   48.6163 H   0  0  0  0  0  0  0  0  0  0  0  0
   61.5466   34.7611   49.6793 H   0  0  0  0  0  0  0  0  0  0  0  0
   59.6153   34.3811   48.1562 H   0  0  0  0  0  0  0  0  0  0  0  0
  1  2  2  0
  2  3  1  0
  3  4  2  3
  4  5  1  0
  5  6  2  0
  6  7  1  0
  6  8  1  0
  8  9  1  0
  9 10  2  0
  9 11  1  0
 11 12  1  0
 12 13  2  0
  3 14  1  0
 14 15  2  0
 15 16  1  0
 15 17  1  0
 17 18  1  0
 18 19  1  0
 19 20  2  0
 20 21  1  0
 21 22  2  0
 22 23  1  0
 23 24  1  0
 24 25  1  0
 25 26  1  0
 26 27  1  0
 27 28  1  0
 22 29  1  0
 29 30  2  0
 17  2  1  0
 30 19  1  0
 12  5  1  0
 28 23  1  0
  1 31  1  0
  1 32  1  0
  4 33  1  0
  8 34  1  0
 14 35  1  0
 16 36  1  0
 16 37  1  0
 16 38  1  0
 18 39  1  0
 18 40  1  0
 20 41  1  0
 21 42  1  0
 24 43  1  0
 24 44  1  0
 25 45  1  0
 25 46  1  0
 26 47  1  0
 26 48  1  0
 27 49  1  0
 27 50  1  0
 28 51  1  0
 28 52  1  0
 29 53  1  0
 30 54  1  0
M  CHG  2   7  -1  11  -1
M  END
>  <UniqueID>  (26) 
25

>  <SMILES>  (26) 
C=c1c(=Cc2c([O-])[nH]c(=O)[n-]c2=O)cc(C)n1Cc1ccc(N2CCCCC2)cc1

>  <Energy>  (26) 
99.06992043332697

>  <Genealogy>  (26) 
C=c1c(=Cc2c([O-])[nH]c(=O)[n-]c2=O)cc(C)n1Cc1ccc(N2CCCCC2)cc1 (protonated)
C=c1c(=Cc2c([O-])[nH]c(=O)[n-]c2=O)cc(C)n1Cc1ccc(N2CCCCC2)cc1 (3D coordinates assigned)
C=c1c(=Cc2c([O-])[nH]c(=O)[n-]c2=O)cc(C)n1Cc1ccc(N2CCCCC2)cc1 (nonaromatic ring conformer: 99.06992043332697 kcal/mol)

>  <smiles>  (26) 
C=c1c(=Cc2c(O)[nH]c(=O)[nH]c2=O)cc(C)n1Cc1ccc(N2CCCCC2)cc1

>  <score_type>  (26) 
oracle

>  <origin>  (26) 
adg

>  <m_score__min__energy>  (26) 
-14.18

>  <m_primary>  (26) 
energy

$$$$
26:0
     RDKit          3D

 46 49  0  0  0  0  0  0  0  0999 V2000
   60.2684   30.4988   44.5969 H   0  0  0  0  0  0  0  0  0  0  0  0
   59.6790   29.6060   44.8530 C   0  0  0  0  0  0  0  0  0  0  0  0
   59.3577   28.9133   44.0612 H   0  0  0  0  0  0  0  0  0  0  0  0
   59.3520   29.3620   46.1310 C   0  0  0  0  0  0  0  0  0  0  0  0
   58.6120   28.2760   46.6100 C   0  0  0  0  0  0  0  0  0  0  0  0
   58.1210   27.2450   45.8950 C   0  0  0  0  0  0  0  0  0  0  0  0
   58.2645   27.2582   44.8045 H   0  0  0  0  0  0  0  0  0  0  0  0
   57.4030   26.1000   46.4850 C   0  0  0  0  0  0  0  0  0  0  0  0
   56.0420   25.8680   46.5040 C   0  0  0  0  0  0  0  0  0  0  0  0
   55.0610   26.7070   45.9900 O   0  0  0  0  0  0  0  0  0  0  0  0
   55.7760   24.6660   47.0540 N   0  0  0  0  0  0  0  0  0  0  0  0
   57.0060   24.1890   47.3380 C   0  0  0  0  0  0  0  0  0  0  0  0
   57.1970   23.0620   47.8680 O   0  0  0  0  0  0  0  0  0  0  0  0
   58.0120   25.0180   46.9950 N   0  0  0  0  0  0  0  0  0  0  0  0
   59.0380   24.8540   47.1010 H   0  0  0  0  0  0  0  0  0  0  0  0
   58.5360   28.4340   47.9880 C   0  0  0  0  0  0  0  0  0  0  0  0
   58.0409   27.7576   48.7002 H   0  0  0  0  0  0  0  0  0  0  0  0
   59.2020   29.6040   48.2900 C   0  0  0  0  0  0  0  0  0  0  0  0
   59.4070   30.1310   49.6770 C   0  0  0  0  0  0  0  0  0  0  0  0
   59.1090   29.3650   50.4081 H   0  0  0  0  0  0  0  0  0  0  0  0
   60.4683   30.3819   49.8208 H   0  0  0  0  0  0  0  0  0  0  0  0
   58.7942   31.0331   49.8208 H   0  0  0  0  0  0  0  0  0  0  0  0
   59.7120   30.1580   47.1680 N   0  0  0  0  0  0  0  0  0  0  0  0
   60.4600   31.3840   47.0930 C   0  0  0  0  0  0  0  0  0  0  0  0
   61.8550   31.3310   47.2300 C   0  0  0  0  0  0  0  0  0  0  0  0
   62.3504   30.3625   47.3933 H   0  0  0  0  0  0  0  0  0  0  0  0
   62.6190   32.4950   47.1610 C   0  0  0  0  0  0  0  0  0  0  0  0
   63.7129   32.4416   47.2636 H   0  0  0  0  0  0  0  0  0  0  0  0
   61.9970   33.7270   46.9620 C   0  0  0  0  0  0  0  0  0  0  0  0
   62.6010   34.6449   46.9113 H   0  0  0  0  0  0  0  0  0  0  0  0
   60.6090   33.7980   46.8270 C   0  0  0  0  0  0  0  0  0  0  0  0
   60.1263   34.7752   46.6784 H   0  0  0  0  0  0  0  0  0  0  0  0
   59.8200   32.6320   46.8790 C   0  0  0  0  0  0  0  0  0  0  0  0
   58.3420   32.7430   46.7470 C   0  0  0  0  0  0  0  0  0  0  0  0
   57.6300   32.8320   47.7820 O   0  0  0  0  0  0  0  0  0  0  0  0
   57.6970   32.8780   45.4680 N   0  0  0  0  0  0  0  0  0  0  0  0
   57.2860   31.9330   44.6690 C   0  0  0  0  0  0  0  0  0  0  0  0
   56.6740   30.8470   45.2170 N   0  0  0  0  0  0  0  0  0  0  0  0
   56.2240   29.8090   44.4620 C   0  0  0  0  0  0  0  0  0  0  0  0
   55.7304   28.9527   44.9448 H   0  0  0  0  0  0  0  0  0  0  0  0
   56.3870   29.8280   43.0780 C   0  0  0  0  0  0  0  0  0  0  0  0
   56.0194   28.9935   42.4628 H   0  0  0  0  0  0  0  0  0  0  0  0
   57.0220   30.9180   42.4820 C   0  0  0  0  0  0  0  0  0  0  0  0
   57.1616   30.9453   41.3912 H   0  0  0  0  0  0  0  0  0  0  0  0
   57.4800   31.9740   43.2720 C   0  0  0  0  0  0  0  0  0  0  0  0
   57.9887   32.8322   42.8085 H   0  0  0  0  0  0  0  0  0  0  0  0
  1  2  1  0
  2  3  1  0
  2  4  2  0
  4  5  1  0
  5  6  2  0
  6  7  1  0
  6  8  1  0
  8  9  2  0
  9 10  1  0
  9 11  1  0
 11 12  1  0
 12 13  2  0
 12 14  1  0
 14 15  1  0
  5 16  1  0
 16 17  1  0
 16 18  2  0
 18 19  1  0
 19 20  1  0
 19 21  1  0
 19 22  1  0
 18 23  1  0
 23 24  1  0
 24 25  2  0
 25 26  1  0
 25 27  1  0
 27 28  1  0
 27 29  2  0
 29 30  1  0
 29 31  1  0
 31 32  1  0
 31 33  2  0
 33 34  1  0
 34 35  2  0
 34 36  1  0
 36 37  2  3
 37 38  1  0
 38 39  1  0
 39 40  1  0
 39 41  2  0
 41 42  1  0
 41 43  1  0
 43 44  1  0
 43 45  2  0
 45 46  1  0
 23  4  1  0
 33 24  1  0
 45 37  1  0
 14  8  1  0
M  CHG  3  10  -1  11  -1  38  -1
M  END
>  <UniqueID>  (27) 
26

>  <SMILES>  (27) 
C=c1/c(=C/c2[nH]c(=O)[n-]c2[O-])cc(C)n1-c1ccccc1C(=O)N=c1cccc[n-]1

>  <Energy>  (27) 
135.08181294247078

>  <Genealogy>  (27) 
C=c1c(=Cc2[nH]c(=O)[n-]c2[O-])cc(C)n1-c1ccccc1C(=O)N=c1cccc[n-]1 (protonated)
C=c1/c(=C/c2[nH]c(=O)[n-]c2[O-])cc(C)n1-c1ccccc1C(=O)N=c1cccc[n-]1 (cis-trans isomerization)
C=c1/c(=C/c2[nH]c(=O)[n-]c2[O-])cc(C)n1-c1ccccc1C(=O)N=c1cccc[n-]1 (3D coordinates assigned)
C=c1/c(=C/c2[nH]c(=O)[n-]c2[O-])cc(C)n1-c1ccccc1C(=O)N=c1cccc[n-]1 (optimized conformer: 135.08181294247078 kcal/mol)

>  <smiles>  (27) 
C=c1c(=Cc2[nH]c(=O)[nH]c2O)cc(C)n1-c1ccccc1C(=O)N=c1cccc[nH]1

>  <score_type>  (27) 
oracle

>  <origin>  (27) 
adg

>  <m_score__min__energy>  (27) 
-16.859999999999999

>  <m_primary>  (27) 
energy

$$$$
27:0
     RDKit          3D

 61 64  0  0  0  0  0  0  0  0999 V2000
   61.2180   30.7570   51.0620 C   0  0  0  0  0  0  0  0  0  0  0  0
   60.3520   31.5420   50.1720 N   0  0  0  0  0  0  0  0  0  0  0  0
   59.1440   30.9550   49.5760 C   0  0  0  0  0  0  0  0  0  0  0  0
   59.4020   30.5680   48.1480 C   0  0  0  0  0  0  0  0  0  0  0  0
   60.4860   29.7360   47.8300 C   0  0  0  0  0  0  0  0  0  0  0  0
   60.7540   29.4070   46.5000 C   0  0  0  0  0  0  0  0  0  0  0  0
   59.9500   29.9150   45.4770 C   0  0  0  0  0  0  0  0  0  0  0  0
   58.8810   30.7760   45.7740 C   0  0  0  0  0  0  0  0  0  0  0  0
   58.0090   31.2890   44.6950 C   0  0  0  0  0  0  0  0  0  0  0  0
   58.4920   32.0720   43.8340 O   0  0  0  0  0  0  0  0  0  0  0  0
   56.6110   30.9740   44.6340 N   0  0  0  0  0  0  0  0  0  0  0  0
   56.0650   29.7170   44.1300 C   0  0  0  0  0  0  0  0  0  0  0  0
   56.9480   28.5740   44.5510 C   0  0  0  0  0  0  0  0  0  0  0  0
   56.9850   28.1440   45.8880 C   0  0  0  0  0  0  0  0  0  0  0  0
   57.7840   27.0540   46.2580 C   0  0  0  0  0  0  0  0  0  0  0  0
   58.5520   26.3770   45.2900 C   0  0  0  0  0  0  0  0  0  0  0  0
   59.3550   25.2330   45.6270 N   0  0  0  0  0  0  0  0  0  0  0  0
   58.7790   23.5970   45.5580 S   0  0  0  0  0  0  0  0  0  0  0  0
   57.7770   23.3450   44.1020 C   0  0  0  0  0  0  0  0  0  0  0  0
   57.9870   23.2760   46.7960 O   0  0  0  0  0  0  0  0  0  0  0  0
   59.9620   22.6700   45.4850 O   0  0  0  0  0  0  0  0  0  0  0  0
   58.5420   26.8370   43.9640 C   0  0  0  0  0  0  0  0  0  0  0  0
   57.7440   27.9230   43.5960 C   0  0  0  0  0  0  0  0  0  0  0  0
   58.6070   31.0910   47.1140 C   0  0  0  0  0  0  0  0  0  0  0  0
   60.7920   32.8490   49.7810 C   0  0  0  0  0  0  0  0  0  0  0  0
   60.3090   33.8580   50.3630 O   0  0  0  0  0  0  0  0  0  0  0  0
   61.8030   33.0170   48.7200 C   0  0  0  0  0  0  0  0  0  0  0  0
   63.4190   32.5710   48.8530 S   0  0  0  0  0  0  0  0  0  0  0  0
   63.9250   33.1560   47.3630 C   0  0  0  0  0  0  0  0  0  0  0  0
   62.8240   33.7070   46.7220 C   0  0  0  0  0  0  0  0  0  0  0  0
   61.6330   33.6250   47.4670 C   0  0  0  0  0  0  0  0  0  0  0  0
   60.3660   34.0280   46.9170 N   0  0  0  0  0  0  0  0  0  0  0  0
   60.0920   34.1800   45.6060 C   0  0  0  0  0  0  0  0  0  0  0  0
   58.7530   34.4760   45.4420 C   0  0  0  0  0  0  0  0  0  0  0  0
   58.1910   34.4890   46.7030 C   0  0  0  0  0  0  0  0  0  0  0  0
   59.2090   34.2020   47.5900 C   0  0  0  0  0  0  0  0  0  0  0  0
   60.9686   30.9830   52.1092 H   0  0  0  0  0  0  0  0  0  0  0  0
   61.0637   29.6847   50.8716 H   0  0  0  0  0  0  0  0  0  0  0  0
   62.2701   31.0155   50.8716 H   0  0  0  0  0  0  0  0  0  0  0  0
   58.8552   30.0607   50.1477 H   0  0  0  0  0  0  0  0  0  0  0  0
   58.3338   31.6985   49.6042 H   0  0  0  0  0  0  0  0  0  0  0  0
   61.1273   29.3413   48.6319 H   0  0  0  0  0  0  0  0  0  0  0  0
   61.5996   28.7467   46.2573 H   0  0  0  0  0  0  0  0  0  0  0  0
   60.1554   29.6389   44.4322 H   0  0  0  0  0  0  0  0  0  0  0  0
   55.0546   29.5677   44.5383 H   0  0  0  0  0  0  0  0  0  0  0  0
   56.0184   29.7551   43.0317 H   0  0  0  0  0  0  0  0  0  0  0  0
   56.3841   28.6653   46.6477 H   0  0  0  0  0  0  0  0  0  0  0  0
   57.8117   26.7258   47.3075 H   0  0  0  0  0  0  0  0  0  0  0  0
   60.3860   25.3630   45.7470 H   0  0  0  0  0  0  0  0  0  0  0  0
   56.7510   23.0870   44.4032 H   0  0  0  0  0  0  0  0  0  0  0  0
   57.7623   24.2674   43.5029 H   0  0  0  0  0  0  0  0  0  0  0  0
   58.2004   22.5254   43.5029 H   0  0  0  0  0  0  0  0  0  0  0  0
   59.1673   26.3385   43.2087 H   0  0  0  0  0  0  0  0  0  0  0  0
   57.7396   28.2697   42.5521 H   0  0  0  0  0  0  0  0  0  0  0  0
   57.7627   31.7529   47.3569 H   0  0  0  0  0  0  0  0  0  0  0  0
   64.9493   33.1106   46.9646 H   0  0  0  0  0  0  0  0  0  0  0  0
   62.8775   34.1655   45.7236 H   0  0  0  0  0  0  0  0  0  0  0  0
   60.8238   34.0830   44.7905 H   0  0  0  0  0  0  0  0  0  0  0  0
   58.2344   34.6649   44.4905 H   0  0  0  0  0  0  0  0  0  0  0  0
   57.1384   34.6889   46.9520 H   0  0  0  0  0  0  0  0  0  0  0  0
   59.0945   34.1264   48.6814 H   0  0  0  0  0  0  0  0  0  0  0  0
  1  2  1  0
  2  3  1  0
  3  4  1  0
  4  5  2  0
  5  6  1  0
  6  7  2  0
  7  8  1  0
  8  9  1  0
  9 10  2  0
  9 11  1  0
 11 12  1  0
 12 13  1  0
 13 14  2  0
 14 15  1  0
 15 16  2  0
 16 17  1  0
 17 18  1  0
 18 19  1  0
 18 20  2  0
 18 21  2  0
 16 22  1  0
 22 23  2  0
  8 24  2  0
  2 25  1  0
 25 26  2  0
 25 27  1  0
 27 28  1  0
 28 29  1  0
 29 30  2  0
 30 31  1  0
 31 32  1  0
 32 33  1  0
 33 34  2  0
 34 35  1  0
 35 36  2  0
 24  4  1  0
 31 27  2  0
 36 32  1  0
 23 13  1  0
  1 37  1  0
  1 38  1  0
  1 39  1  0
  3 40  1  0
  3 41  1  0
  5 42  1  0
  6 43  1  0
  7 44  1  0
 12 45  1  0
 12 46  1  0
 14 47  1  0
 15 48  1  0
 17 49  1  0
 19 50  1  0
 19 51  1  0
 19 52  1  0
 22 53  1  0
 23 54  1  0
 24 55  1  0
 29 56  1  0
 30 57  1  0
 33 58  1  0
 34 59  1  0
 35 60  1  0
 36 61  1  0
M  CHG  1  11  -1
M  END
>  <UniqueID>  (28) 
27

>  <SMILES>  (28) 
CN(Cc1cccc(C(=O)[N-]Cc2ccc(NS(C)(=O)=O)cc2)c1)C(=O)c1sccc1-n1cccc1

>  <Energy>  (28) 
126.98613087372541

>  <Genealogy>  (28) 
CN(Cc1cccc(C(=O)[N-]Cc2ccc(NS(C)(=O)=O)cc2)c1)C(=O)c1sccc1-n1cccc1 (protonated)
CN(Cc1cccc(C(=O)[N-]Cc2ccc(NS(C)(=O)=O)cc2)c1)C(=O)c1sccc1-n1cccc1 (3D coordinates assigned)
CN(Cc1cccc(C(=O)[N-]Cc2ccc(NS(C)(=O)=O)cc2)c1)C(=O)c1sccc1-n1cccc1 (optimized conformer: 126.98613087372541 kcal/mol)

>  <smiles>  (28) 
CN(Cc1cccc(C(=O)NCc2ccc(NS(C)(=O)=O)cc2)c1)C(=O)c1sccc1-n1cccc1

>  <score_type>  (28) 
oracle

>  <origin>  (28) 
adg

>  <m_score__min__energy>  (28) 
-11.199999999999999

>  <m_primary>  (28) 
energy

$$$$
28:0
     RDKit          3D

 63 67  0  0  0  0  0  0  0  0999 V2000
   62.6660   33.7990   46.4270 C   0  0  0  0  0  0  0  0  0  0  0  0
   61.9160   33.8530   47.7290 C   0  0  0  0  0  0  0  0  0  0  0  0
   62.6240   33.8530   48.9420 C   0  0  0  0  0  0  0  0  0  0  0  0
   61.9420   33.8270   50.1650 C   0  0  0  0  0  0  0  0  0  0  0  0
   62.8370   33.7250   51.6820 S   0  0  0  0  0  0  0  0  0  0  0  0
   63.7840   34.8880   51.7740 O   0  0  0  0  0  0  0  0  0  0  0  0
   61.8720   33.8100   52.8320 O   0  0  0  0  0  0  0  0  0  0  0  0
   63.7420   32.2330   51.7850 N   0  0  0  0  0  0  0  0  0  0  0  0
   62.9010   31.0830   51.4060 C   0  0  0  0  0  0  0  0  0  0  0  0
   63.7490   29.8000   51.2640 C   0  0  0  0  0  0  0  0  0  0  0  0
   65.0510   29.9810   51.7850 O   0  0  0  0  0  0  0  0  0  0  0  0
   65.7400   30.9720   51.0440 C   0  0  0  0  0  0  0  0  0  0  0  0
   64.9330   32.2830   50.9200 C   0  0  0  0  0  0  0  0  0  0  0  0
   60.5430   33.8270   50.1760 C   0  0  0  0  0  0  0  0  0  0  0  0
   59.8330   33.7980   48.9760 C   0  0  0  0  0  0  0  0  0  0  0  0
   60.5100   33.7830   47.7480 C   0  0  0  0  0  0  0  0  0  0  0  0
   59.7770   33.6220   46.5240 N   0  0  0  0  0  0  0  0  0  0  0  0
   58.5390   32.9050   46.4260 C   0  0  0  0  0  0  0  0  0  0  0  0
   57.4600   33.5460   46.5330 O   0  0  0  0  0  0  0  0  0  0  0  0
   58.5030   31.4460   46.1510 C   0  0  0  0  0  0  0  0  0  0  0  0
   58.9080   30.5190   47.1440 C   0  0  0  0  0  0  0  0  0  0  0  0
   58.8580   29.1370   46.8920 C   0  0  0  0  0  0  0  0  0  0  0  0
   58.4100   28.7050   45.6430 C   0  0  0  0  0  0  0  0  0  0  0  0
   58.0150   29.5880   44.6830 C   0  0  0  0  0  0  0  0  0  0  0  0
   58.0250   30.9610   44.9130 C   0  0  0  0  0  0  0  0  0  0  0  0
   57.5580   28.8700   43.4590 C   0  0  0  0  0  0  0  0  0  0  0  0
   57.7570   27.3810   43.8260 C   0  0  0  0  0  0  0  0  0  0  0  0
   58.2660   27.3710   45.1960 N   0  0  0  0  0  0  0  0  0  0  0  0
   58.2350   25.9710   46.2190 S   0  0  0  0  0  0  0  0  0  0  0  0
   59.6470   25.5910   46.5660 O   0  0  0  0  0  0  0  0  0  0  0  0
   57.5000   26.2970   47.4900 O   0  0  0  0  0  0  0  0  0  0  0  0
   57.3850   24.6590   45.4050 C   0  0  0  0  0  0  0  0  0  0  0  0
   58.0880   23.6270   44.7650 C   0  0  0  0  0  0  0  0  0  0  0  0
   57.2780   22.7580   44.0460 C   0  0  0  0  0  0  0  0  0  0  0  0
   55.6890   23.2840   44.1850 S   0  0  0  0  0  0  0  0  0  0  0  0
   56.0070   24.6030   45.1770 C   0  0  0  0  0  0  0  0  0  0  0  0
   54.9730   25.5150   45.6730 C   0  0  0  0  0  0  0  0  0  0  0  0
   55.2690   26.6930   46.0010 O   0  0  0  0  0  0  0  0  0  0  0  0
   53.6890   25.0380   45.9020 O   0  0  0  0  0  0  0  0  0  0  0  0
   63.7447   33.7213   46.6281 H   0  0  0  0  0  0  0  0  0  0  0  0
   62.3365   32.9223   45.8501 H   0  0  0  0  0  0  0  0  0  0  0  0
   62.4655   34.7139   45.8501 H   0  0  0  0  0  0  0  0  0  0  0  0
   63.7238   33.8736   48.9314 H   0  0  0  0  0  0  0  0  0  0  0  0
   64.0460   32.1200   52.7830 H   0  0  0  0  0  0  0  0  0  0  0  0
   62.1369   30.9251   52.1814 H   0  0  0  0  0  0  0  0  0  0  0  0
   62.4277   31.2993   50.4369 H   0  0  0  0  0  0  0  0  0  0  0  0
   63.2555   28.9827   51.8103 H   0  0  0  0  0  0  0  0  0  0  0  0
   63.8350   29.5589   50.1942 H   0  0  0  0  0  0  0  0  0  0  0  0
   66.6932   31.1904   51.5476 H   0  0  0  0  0  0  0  0  0  0  0  0
   65.9005   30.5801   50.0288 H   0  0  0  0  0  0  0  0  0  0  0  0
   65.5667   33.1294   51.2233 H   0  0  0  0  0  0  0  0  0  0  0  0
   64.6119   32.4085   49.8754 H   0  0  0  0  0  0  0  0  0  0  0  0
   60.0018   33.8499   51.1334 H   0  0  0  0  0  0  0  0  0  0  0  0
   58.7332   33.7868   48.9929 H   0  0  0  0  0  0  0  0  0  0  0  0
   59.2640   30.8838   48.1188 H   0  0  0  0  0  0  0  0  0  0  0  0
   59.1648   28.4131   47.6613 H   0  0  0  0  0  0  0  0  0  0  0  0
   57.6659   31.6584   44.1418 H   0  0  0  0  0  0  0  0  0  0  0  0
   56.5004   29.0858   43.2471 H   0  0  0  0  0  0  0  0  0  0  0  0
   58.1080   29.1679   42.5542 H   0  0  0  0  0  0  0  0  0  0  0  0
   56.7999   26.8417   43.7694 H   0  0  0  0  0  0  0  0  0  0  0  0
   58.4517   26.8835   43.1333 H   0  0  0  0  0  0  0  0  0  0  0  0
   59.1807   23.5165   44.8271 H   0  0  0  0  0  0  0  0  0  0  0  0
   57.6184   21.8768   43.4824 H   0  0  0  0  0  0  0  0  0  0  0  0
  1  2  1  0
  2  3  2  0
  3  4  1  0
  4  5  1  0
  5  6  2  0
  5  7  2  0
  5  8  1  0
  8  9  1  0
  9 10  1  0
 10 11  1  0
 11 12  1  0
 12 13  1  0
  4 14  2  0
 14 15  1  0
 15 16  2  0
 16 17  1  0
 17 18  1  0
 18 19  2  0
 18 20  1  0
 20 21  2  0
 21 22  1  0
 22 23  2  0
 23 24  1  0
 24 25  2  0
 24 26  1  0
 26 27  1  0
 27 28  1  0
 28 29  1  0
 29 30  2  0
 29 31  2  0
 29 32  1  0
 32 33  1  0
 33 34  2  0
 34 35  1  0
 35 36  1  0
 36 37  1  0
 37 38  2  0
 37 39  1  0
 16  2  1  0
 25 20  1  0
 36 32  2  0
 13  8  1  0
 28 23  1  0
  1 40  1  0
  1 41  1  0
  1 42  1  0
  3 43  1  0
  8 44  1  0
  9 45  1  0
  9 46  1  0
 10 47  1  0
 10 48  1  0
 12 49  1  0
 12 50  1  0
 13 51  1  0
 13 52  1  0
 14 53  1  0
 15 54  1  0
 21 55  1  0
 22 56  1  0
 25 57  1  0
 26 58  1  0
 26 59  1  0
 27 60  1  0
 27 61  1  0
 33 62  1  0
 34 63  1  0
M  CHG  3   8   1  17  -1  39  -1
M  END
>  <UniqueID>  (29) 
28

>  <SMILES>  (29) 
Cc1cc(S(=O)(=O)[NH+]2CCOCC2)ccc1[N-]C(=O)c1ccc2c(c1)CCN2S(=O)(=O)c1ccsc1C(=O)[O-]

>  <Energy>  (29) 
129.19008978984942

>  <Genealogy>  (29) 
Cc1cc(S(=O)(=O)[NH+]2CCOCC2)ccc1[N-]C(=O)c1ccc2c(c1)CCN2S(=O)(=O)c1ccsc1C(=O)[O-] (protonated)
Cc1cc(S(=O)(=O)[NH+]2CCOCC2)ccc1[N-]C(=O)c1ccc2c(c1)CCN2S(=O)(=O)c1ccsc1C(=O)[O-] (3D coordinates assigned)
Cc1cc(S(=O)(=O)[NH+]2CCOCC2)ccc1[N-]C(=O)c1ccc2c(c1)CCN2S(=O)(=O)c1ccsc1C(=O)[O-] (nonaromatic ring conformer: 129.19008978984942 kcal/mol)

>  <smiles>  (29) 
Cc1cc(S(=O)(=O)N2CCOCC2)ccc1NC(=O)c1ccc2c(c1)CCN2S(=O)(=O)c1ccsc1C(=O)O

>  <score_type>  (29) 
oracle

>  <origin>  (29) 
adg

>  <m_score__min__energy>  (29) 
-13.65

>  <m_primary>  (29) 
energy

$$$$
29:0
     RDKit          3D

 54 57  0  0  0  0  0  0  0  0999 V2000
   59.8680   25.3963   46.7923 H   0  0  0  0  0  0  0  0  0  0  0  0
   58.8150   25.6540   46.6060 C   0  0  0  0  0  0  0  0  0  0  0  0
   58.5040   26.6530   45.7390 N   0  0  0  0  0  0  0  0  0  0  0  0
   57.2200   27.0150   45.4680 C   0  0  0  0  0  0  0  0  0  0  0  0
   57.0300   27.9790   44.6080 N   0  0  0  0  0  0  0  0  0  0  0  0
   56.5050   29.2910   44.8530 C   0  0  0  0  0  0  0  0  0  0  0  0
   55.2540   29.4450   44.8860 O   0  0  0  0  0  0  0  0  0  0  0  0
   57.4000   30.4380   45.1480 C   0  0  0  0  0  0  0  0  0  0  0  0
   58.1550   30.4830   46.3320 C   0  0  0  0  0  0  0  0  0  0  0  0
   58.0798   29.6632   47.0616 H   0  0  0  0  0  0  0  0  0  0  0  0
   58.9780   31.5360   46.5790 N   0  0  0  0  0  0  0  0  0  0  0  0
   59.1110   32.5750   45.7080 C   0  0  0  0  0  0  0  0  0  0  0  0
   59.8950   33.5800   45.9720 N   0  0  0  0  0  0  0  0  0  0  0  0
   59.6930   34.5580   47.0040 C   0  0  0  0  0  0  0  0  0  0  0  0
   59.6400   35.7750   46.6830 O   0  0  0  0  0  0  0  0  0  0  0  0
   59.6260   34.1850   48.4320 C   0  0  0  0  0  0  0  0  0  0  0  0
   60.2480   34.8750   49.2850 O   0  0  0  0  0  0  0  0  0  0  0  0
   58.8650   33.0380   48.8430 N   0  0  0  0  0  0  0  0  0  0  0  0
   58.6000   32.3380   48.1140 H   0  0  0  0  0  0  0  0  0  0  0  0
   58.5920   32.7130   50.2170 C   0  0  0  0  0  0  0  0  0  0  0  0
   59.0640   33.5190   51.2670 C   0  0  0  0  0  0  0  0  0  0  0  0
   59.6779   34.4042   51.0444 H   0  0  0  0  0  0  0  0  0  0  0  0
   58.7570   33.2010   52.5920 C   0  0  0  0  0  0  0  0  0  0  0  0
   59.1313   33.8351   53.4092 H   0  0  0  0  0  0  0  0  0  0  0  0
   57.9760   32.0800   52.8820 C   0  0  0  0  0  0  0  0  0  0  0  0
   57.7351   31.8362   53.9273 H   0  0  0  0  0  0  0  0  0  0  0  0
   57.4970   31.2630   51.8460 C   0  0  0  0  0  0  0  0  0  0  0  0
   56.6610   30.0860   52.1610 C   0  0  0  0  0  0  0  0  0  0  0  0
   57.2180   28.9630   52.2950 O   0  0  0  0  0  0  0  0  0  0  0  0
   55.2320   30.1900   52.2970 N   0  0  0  0  0  0  0  0  0  0  0  0
   54.4300   31.2320   51.6730 C   0  0  0  0  0  0  0  0  0  0  0  0
   54.5033   32.1682   52.2459 H   0  0  0  0  0  0  0  0  0  0  0  0
   54.7725   31.4532   50.6514 H   0  0  0  0  0  0  0  0  0  0  0  0
   53.0000   30.7100   51.6880 C   0  0  0  0  0  0  0  0  0  0  0  0
   52.3024   31.5111   51.9737 H   0  0  0  0  0  0  0  0  0  0  0  0
   52.6893   30.3495   50.6963 H   0  0  0  0  0  0  0  0  0  0  0  0
   52.9790   29.5920   52.7250 C   0  0  0  0  0  0  0  0  0  0  0  0
   52.6189   29.9723   53.6923 H   0  0  0  0  0  0  0  0  0  0  0  0
   52.3043   28.7751   52.4292 H   0  0  0  0  0  0  0  0  0  0  0  0
   54.4200   29.1170   52.8440 C   0  0  0  0  0  0  0  0  0  0  0  0
   54.6795   28.9382   53.8979 H   0  0  0  0  0  0  0  0  0  0  0  0
   54.5819   28.1704   52.3076 H   0  0  0  0  0  0  0  0  0  0  0  0
   57.7880   31.6020   50.5150 C   0  0  0  0  0  0  0  0  0  0  0  0
   57.3812   30.9899   49.6965 H   0  0  0  0  0  0  0  0  0  0  0  0
   58.3590   32.5810   44.5290 C   0  0  0  0  0  0  0  0  0  0  0  0
   58.4387   33.4233   43.8260 H   0  0  0  0  0  0  0  0  0  0  0  0
   57.5070   31.5120   44.2500 C   0  0  0  0  0  0  0  0  0  0  0  0
   56.9163   31.5106   43.3221 H   0  0  0  0  0  0  0  0  0  0  0  0
   56.1650   26.3450   46.1410 C   0  0  0  0  0  0  0  0  0  0  0  0
   54.8310   26.7020   45.9800 O   0  0  0  0  0  0  0  0  0  0  0  0
   56.4740   25.3070   47.0250 C   0  0  0  0  0  0  0  0  0  0  0  0
   55.6656   24.7652   47.5378 H   0  0  0  0  0  0  0  0  0  0  0  0
   57.8020   24.9560   47.2590 C   0  0  0  0  0  0  0  0  0  0  0  0
   58.0474   24.1372   47.9514 H   0  0  0  0  0  0  0  0  0  0  0  0
  1  2  1  0
  2  3  1  0
  3  4  1  0
  4  5  2  0
  5  6  1  0
  6  7  2  0
  6  8  1  0
  8  9  2  0
  9 10  1  0
  9 11  1  0
 11 12  1  0
 12 13  2  0
 13 14  1  0
 14 15  2  0
 14 16  1  0
 16 17  2  0
 16 18  1  0
 18 19  1  0
 18 20  1  0
 20 21  2  0
 21 22  1  0
 21 23  1  0
 23 24  1  0
 23 25  2  0
 25 26  1  0
 25 27  1  0
 27 28  1  0
 28 29  2  0
 28 30  1  0
 30 31  1  0
 31 32  1  0
 31 33  1  0
 31 34  1  0
 34 35  1  0
 34 36  1  0
 34 37  1  0
 37 38  1  0
 37 39  1  0
 37 40  1  0
 40 41  1  0
 40 42  1  0
 27 43  2  0
 43 44  1  0
 12 45  1  0
 45 46  1  0
 45 47  2  0
 47 48  1  0
  4 49  1  0
 49 50  1  0
 49 51  2  0
 51 52  1  0
 51 53  1  0
 53 54  1  0
 53  2  2  0
 47  8  1  0
 43 20  1  0
 40 30  1  0
M  CHG  3   3  -1  11  -1  50  -1
M  END
>  <UniqueID>  (30) 
29

>  <SMILES>  (30) 
O=C(/N=c1/ccc(C(=O)/N=c2/[n-]cccc2[O-])c[n-]1)C(=O)Nc1cccc(C(=O)N2CCCC2)c1

>  <Energy>  (30) 
86.2805191720163

>  <Genealogy>  (30) 
O=C(N=c1ccc(C(=O)N=c2[n-]cccc2[O-])c[n-]1)C(=O)Nc1cccc(C(=O)N2CCCC2)c1 (protonated)
O=C(/N=c1/ccc(C(=O)/N=c2/[n-]cccc2[O-])c[n-]1)C(=O)Nc1cccc(C(=O)N2CCCC2)c1 (cis-trans isomerization)
O=C(/N=c1/ccc(C(=O)/N=c2/[n-]cccc2[O-])c[n-]1)C(=O)Nc1cccc(C(=O)N2CCCC2)c1 (3D coordinates assigned)
O=C(/N=c1/ccc(C(=O)/N=c2/[n-]cccc2[O-])c[n-]1)C(=O)Nc1cccc(C(=O)N2CCCC2)c1 (nonaromatic ring conformer: 86.2805191720163 kcal/mol)

>  <smiles>  (30) 
O=C(N=c1ccc(C(=O)N=c2[nH]cccc2O)c[nH]1)C(=O)Nc1cccc(C(=O)N2CCCC2)c1

>  <score_type>  (30) 
oracle

>  <origin>  (30) 
adg

>  <m_score__min__energy>  (30) 
-16.260000000000002

>  <m_primary>  (30) 
energy

$$$$
30:0
     RDKit          3D

 55 58  0  0  0  0  0  0  0  0999 V2000
   55.8570   20.2780   44.0210 N   0  0  0  0  0  0  0  0  0  0  0  0
   56.6810   21.5970   43.2710 S   0  0  0  0  0  0  0  0  0  0  0  0
   57.9250   21.0760   42.6050 O   0  0  0  0  0  0  0  0  0  0  0  0
   55.7930   22.2260   42.2360 O   0  0  0  0  0  0  0  0  0  0  0  0
   57.1060   22.8030   44.4820 C   0  0  0  0  0  0  0  0  0  0  0  0
   56.1200   23.6500   45.0070 C   0  0  0  0  0  0  0  0  0  0  0  0
   56.4590   24.6200   45.9540 C   0  0  0  0  0  0  0  0  0  0  0  0
   57.7860   24.7420   46.4020 C   0  0  0  0  0  0  0  0  0  0  0  0
   58.1470   25.7410   47.4740 C   0  0  0  0  0  0  0  0  0  0  0  0
   59.5100   26.2430   47.3000 N   0  0  0  0  0  0  0  0  0  0  0  0
   59.8840   27.3080   46.4160 C   0  0  0  0  0  0  0  0  0  0  0  0
   60.9360   27.1990   45.7330 O   0  0  0  0  0  0  0  0  0  0  0  0
   59.0260   28.5020   46.2480 C   0  0  0  0  0  0  0  0  0  0  0  0
   57.7240   28.2570   45.8430 C   0  0  0  0  0  0  0  0  0  0  0  0
   56.8340   29.1310   45.2370 C   0  0  0  0  0  0  0  0  0  0  0  0
   55.7330   28.6320   44.8740 O   0  0  0  0  0  0  0  0  0  0  0  0
   57.0610   30.4730   44.9060 C   0  0  0  0  0  0  0  0  0  0  0  0
   56.1290   31.0010   44.0090 O   0  0  0  0  0  0  0  0  0  0  0  0
   58.0430   31.3490   45.4500 C   0  0  0  0  0  0  0  0  0  0  0  0
   58.0550   32.7040   44.9990 C   0  0  0  0  0  0  0  0  0  0  0  0
   57.4530   33.0830   43.8010 O   0  0  0  0  0  0  0  0  0  0  0  0
   58.6770   33.7040   45.7390 C   0  0  0  0  0  0  0  0  0  0  0  0
   58.6480   35.0210   45.2900 O   0  0  0  0  0  0  0  0  0  0  0  0
   59.2960   33.4020   46.9390 C   0  0  0  0  0  0  0  0  0  0  0  0
   59.8030   34.4360   47.7200 O   0  0  0  0  0  0  0  0  0  0  0  0
   59.4320   32.0660   47.3460 C   0  0  0  0  0  0  0  0  0  0  0  0
   60.0460   31.8050   48.7180 C   0  0  0  0  0  0  0  0  0  0  0  0
   61.5150   32.1680   48.8480 C   0  0  0  0  0  0  0  0  0  0  0  0
   62.0830   32.1850   50.1320 C   0  0  0  0  0  0  0  0  0  0  0  0
   63.4380   32.4870   50.3080 C   0  0  0  0  0  0  0  0  0  0  0  0
   64.2460   32.7780   49.2020 C   0  0  0  0  0  0  0  0  0  0  0  0
   65.6340   33.0740   49.3830 N   0  0  0  0  0  0  0  0  0  0  0  0
   63.6870   32.7630   47.9160 C   0  0  0  0  0  0  0  0  0  0  0  0
   62.3370   32.4550   47.7380 C   0  0  0  0  0  0  0  0  0  0  0  0
   58.9380   31.0080   46.5140 C   0  0  0  0  0  0  0  0  0  0  0  0
   59.5640   29.7420   46.6110 C   0  0  0  0  0  0  0  0  0  0  0  0
   60.8760   29.7120   47.0870 O   0  0  0  0  0  0  0  0  0  0  0  0
   58.7740   23.9110   45.8490 C   0  0  0  0  0  0  0  0  0  0  0  0
   58.4360   22.9480   44.8970 C   0  0  0  0  0  0  0  0  0  0  0  0
   55.0270   20.6780   44.5160 H   0  0  0  0  0  0  0  0  0  0  0  0
   55.0768   23.5508   44.6726 H   0  0  0  0  0  0  0  0  0  0  0  0
   55.6836   25.2916   46.3510 H   0  0  0  0  0  0  0  0  0  0  0  0
   57.4454   26.5868   47.4256 H   0  0  0  0  0  0  0  0  0  0  0  0
   58.0859   25.2378   48.4502 H   0  0  0  0  0  0  0  0  0  0  0  0
   57.3482   27.2394   46.0254 H   0  0  0  0  0  0  0  0  0  0  0  0
   59.4836   32.3911   49.4597 H   0  0  0  0  0  0  0  0  0  0  0  0
   59.9844   30.7185   48.8786 H   0  0  0  0  0  0  0  0  0  0  0  0
   61.4570   31.9588   51.0077 H   0  0  0  0  0  0  0  0  0  0  0  0
   63.8702   32.4958   51.3195 H   0  0  0  0  0  0  0  0  0  0  0  0
   66.3070   32.9790   48.5890 H   0  0  0  0  0  0  0  0  0  0  0  0
   65.9990   33.3850   50.3110 H   0  0  0  0  0  0  0  0  0  0  0  0
   64.3152   32.9950   47.0433 H   0  0  0  0  0  0  0  0  0  0  0  0
   61.9108   32.4360   46.7241 H   0  0  0  0  0  0  0  0  0  0  0  0
   59.8210   24.0198   46.1683 H   0  0  0  0  0  0  0  0  0  0  0  0
   59.2167   22.3006   44.4711 H   0  0  0  0  0  0  0  0  0  0  0  0
  1  2  1  0
  2  3  2  0
  2  4  2  0
  2  5  1  0
  5  6  2  0
  6  7  1  0
  7  8  2  0
  8  9  1  0
  9 10  1  0
 10 11  1  0
 11 12  2  0
 11 13  1  0
 13 14  2  0
 14 15  1  0
 15 16  2  0
 15 17  1  0
 17 18  1  0
 17 19  2  0
 19 20  1  0
 20 21  1  0
 20 22  2  0
 22 23  1  0
 22 24  1  0
 24 25  1  0
 24 26  2  0
 26 27  1  0
 27 28  1  0
 28 29  2  0
 29 30  1  0
 30 31  2  0
 31 32  1  0
 31 33  1  0
 33 34  2  0
 26 35  1  0
 35 36  2  0
 36 37  1  0
  8 38  1  0
 38 39  2  0
 39  5  1  0
 36 13  1  0
 35 19  1  0
 34 28  1  0
  1 40  1  0
  6 41  1  0
  7 42  1  0
  9 43  1  0
  9 44  1  0
 14 45  1  0
 27 46  1  0
 27 47  1  0
 29 48  1  0
 30 49  1  0
 32 50  1  0
 32 51  1  0
 33 52  1  0
 34 53  1  0
 38 54  1  0
 39 55  1  0
M  CHG  7   1  -1  10  -1  18  -1  21  -1  23  -1  25  -1  37  -1
M  END
>  <UniqueID>  (31) 
30

>  <SMILES>  (31) 
[NH-]S(=O)(=O)c1ccc(C[N-]C(=O)c2cc(=O)c([O-])c3c([O-])c([O-])c([O-])c(Cc4ccc(N)cc4)c3c2[O-])cc1

>  <Energy>  (31) 
115.39813487435742

>  <Genealogy>  (31) 
[NH-]S(=O)(=O)c1ccc(C[N-]C(=O)c2cc(=O)c([O-])c3c([O-])c([O-])c([O-])c(Cc4ccc(N)cc4)c3c2[O-])cc1 (protonated)
[NH-]S(=O)(=O)c1ccc(C[N-]C(=O)c2cc(=O)c([O-])c3c([O-])c([O-])c([O-])c(Cc4ccc(N)cc4)c3c2[O-])cc1 (3D coordinates assigned)
[NH-]S(=O)(=O)c1ccc(C[N-]C(=O)c2cc(=O)c([O-])c3c([O-])c([O-])c([O-])c(Cc4ccc(N)cc4)c3c2[O-])cc1 (optimized conformer: 115.39813487435742 kcal/mol)

>  <smiles>  (31) 
Nc1ccc(Cc2c(O)c(O)c(O)c3c(O)c(=O)cc(C(=O)NCc4ccc(S(N)(=O)=O)cc4)c(O)c23)cc1

>  <score_type>  (31) 
oracle

>  <origin>  (31) 
adg

>  <m_score__min__energy>  (31) 
-17.920000000000002

>  <m_primary>  (31) 
energy

$$$$
31:0
     RDKit          3D

 56 59  0  0  0  0  0  0  0  0999 V2000
   63.7450   30.4930   51.5800 C   0  0  0  0  0  0  0  0  0  0  0  0
   62.9580   30.9430   50.4320 N   0  0  0  0  0  0  0  0  0  0  0  0
   61.7460   30.4870   50.0090 C   0  0  0  0  0  0  0  0  0  0  0  0
   60.7840   29.2170   50.8440 S   0  0  0  0  0  0  0  0  0  0  0  0
   59.3560   29.3250   49.7120 C   0  0  0  0  0  0  0  0  0  0  0  0
   58.5230   30.5420   50.0070 C   0  0  0  0  0  0  0  0  0  0  0  0
   57.6000   30.4430   50.8590 O   0  0  0  0  0  0  0  0  0  0  0  0
   58.8060   31.8360   49.4520 N   0  0  0  0  0  0  0  0  0  0  0  0
   58.5410   32.3020   48.1220 C   0  0  0  0  0  0  0  0  0  0  0  0
   58.5900   33.6780   47.8710 C   0  0  0  0  0  0  0  0  0  0  0  0
   58.3620   34.1690   46.5820 C   0  0  0  0  0  0  0  0  0  0  0  0
   58.0590   33.2900   45.5420 C   0  0  0  0  0  0  0  0  0  0  0  0
   57.9450   31.9160   45.7950 C   0  0  0  0  0  0  0  0  0  0  0  0
   57.4990   30.8020   44.5070 S   0  0  0  0  0  0  0  0  0  0  0  0
   57.3310   31.5840   43.2330 O   0  0  0  0  0  0  0  0  0  0  0  0
   56.1910   30.1380   44.8380 O   0  0  0  0  0  0  0  0  0  0  0  0
   58.7630   29.6060   44.3180 N   0  0  0  0  0  0  0  0  0  0  0  0
   59.8300   29.7570   45.3400 C   0  0  0  0  0  0  0  0  0  0  0  0
   59.9820   28.5420   46.2740 C   0  0  0  0  0  0  0  0  0  0  0  0
   58.6120   28.0430   46.7290 C   0  0  0  0  0  0  0  0  0  0  0  0
   57.7080   27.6760   45.5370 C   0  0  0  0  0  0  0  0  0  0  0  0
   58.2140   28.2410   44.1960 C   0  0  0  0  0  0  0  0  0  0  0  0
   58.1580   31.4280   47.0910 C   0  0  0  0  0  0  0  0  0  0  0  0
   61.3220   31.0970   48.8750 N   0  0  0  0  0  0  0  0  0  0  0  0
   62.3160   31.9560   48.5770 C   0  0  0  0  0  0  0  0  0  0  0  0
   63.3060   31.8540   49.5030 C   0  0  0  0  0  0  0  0  0  0  0  0
   64.4630   32.6100   49.3670 C   0  0  0  0  0  0  0  0  0  0  0  0
   65.4130   32.5270   50.1890 O   0  0  0  0  0  0  0  0  0  0  0  0
   64.5480   33.4550   48.3010 N   0  0  0  0  0  0  0  0  0  0  0  0
   63.5380   33.5600   47.3800 C   0  0  0  0  0  0  0  0  0  0  0  0
   63.6710   34.3680   46.4220 O   0  0  0  0  0  0  0  0  0  0  0  0
   62.3970   32.7920   47.5010 N   0  0  0  0  0  0  0  0  0  0  0  0
   61.2850   32.8870   46.5470 C   0  0  0  0  0  0  0  0  0  0  0  0
   63.2357   30.7842   52.5105 H   0  0  0  0  0  0  0  0  0  0  0  0
   63.8497   29.3985   51.5464 H   0  0  0  0  0  0  0  0  0  0  0  0
   64.7414   30.9579   51.5464 H   0  0  0  0  0  0  0  0  0  0  0  0
   59.7220   29.3824   48.6763 H   0  0  0  0  0  0  0  0  0  0  0  0
   58.7306   28.4309   49.8517 H   0  0  0  0  0  0  0  0  0  0  0  0
   58.8090   34.3766   48.6920 H   0  0  0  0  0  0  0  0  0  0  0  0
   58.4216   35.2500   46.3876 H   0  0  0  0  0  0  0  0  0  0  0  0
   57.9094   33.6754   44.5226 H   0  0  0  0  0  0  0  0  0  0  0  0
   60.7865   29.9150   44.8202 H   0  0  0  0  0  0  0  0  0  0  0  0
   59.5447   30.6102   45.9730 H   0  0  0  0  0  0  0  0  0  0  0  0
   60.5012   27.7348   45.7365 H   0  0  0  0  0  0  0  0  0  0  0  0
   60.5628   28.8432   47.1583 H   0  0  0  0  0  0  0  0  0  0  0  0
   58.7496   27.1514   47.3584 H   0  0  0  0  0  0  0  0  0  0  0  0
   58.1235   28.8535   47.2897 H   0  0  0  0  0  0  0  0  0  0  0  0
   57.6601   26.5798   45.4589 H   0  0  0  0  0  0  0  0  0  0  0  0
   56.7197   28.1199   45.7270 H   0  0  0  0  0  0  0  0  0  0  0  0
   59.0033   27.5783   43.8115 H   0  0  0  0  0  0  0  0  0  0  0  0
   57.3530   28.2914   43.5132 H   0  0  0  0  0  0  0  0  0  0  0  0
   58.0249   30.3567   47.3019 H   0  0  0  0  0  0  0  0  0  0  0  0
   60.4350   30.9230   48.3560 H   0  0  0  0  0  0  0  0  0  0  0  0
   60.3359   32.9681   47.0971 H   0  0  0  0  0  0  0  0  0  0  0  0
   61.4195   33.7769   45.9146 H   0  0  0  0  0  0  0  0  0  0  0  0
   61.2666   31.9872   45.9146 H   0  0  0  0  0  0  0  0  0  0  0  0
  1  2  1  0
  2  3  1  0
  3  4  1  0
  4  5  1  0
  5  6  1  0
  6  7  2  0
  6  8  1  0
  8  9  1  0
  9 10  2  0
 10 11  1  0
 11 12  2  0
 12 13  1  0
 13 14  1  0
 14 15  2  0
 14 16  2  0
 14 17  1  0
 17 18  1  0
 18 19  1  0
 19 20  1  0
 20 21  1  0
 21 22  1  0
 13 23  2  0
  3 24  2  0
 24 25  1  0
 25 26  2  0
 26 27  1  0
 27 28  2  0
 27 29  1  0
 29 30  1  0
 30 31  2  0
 30 32  1  0
 32 33  1  0
 26  2  1  0
 23  9  1  0
 32 25  1  0
 22 17  1  0
  1 34  1  0
  1 35  1  0
  1 36  1  0
  5 37  1  0
  5 38  1  0
 10 39  1  0
 11 40  1  0
 12 41  1  0
 18 42  1  0
 18 43  1  0
 19 44  1  0
 19 45  1  0
 20 46  1  0
 20 47  1  0
 21 48  1  0
 21 49  1  0
 22 50  1  0
 22 51  1  0
 23 52  1  0
 24 53  1  0
 33 54  1  0
 33 55  1  0
 33 56  1  0
M  CHG  3   8  -1  24   1  29  -1
M  END
>  <UniqueID>  (32) 
31

>  <SMILES>  (32) 
Cn1c(SCC(=O)[N-]c2cccc(S(=O)(=O)N3CCCCC3)c2)[nH+]c2c1c(=O)[n-]c(=O)n2C

>  <Energy>  (32) 
105.81749797764982

>  <Genealogy>  (32) 
Cn1c(SCC(=O)[N-]c2cccc(S(=O)(=O)N3CCCCC3)c2)[nH+]c2c1c(=O)[n-]c(=O)n2C (protonated)
Cn1c(SCC(=O)[N-]c2cccc(S(=O)(=O)N3CCCCC3)c2)[nH+]c2c1c(=O)[n-]c(=O)n2C (3D coordinates assigned)
Cn1c(SCC(=O)[N-]c2cccc(S(=O)(=O)N3CCCCC3)c2)[nH+]c2c1c(=O)[n-]c(=O)n2C (nonaromatic ring conformer: 105.81749797764982 kcal/mol)

>  <smiles>  (32) 
Cn1c(SCC(=O)Nc2cccc(S(=O)(=O)N3CCCCC3)c2)nc2c1c(=O)[nH]c(=O)n2C

>  <score_type>  (32) 
oracle

>  <origin>  (32) 
adg

>  <m_score__min__energy>  (32) 
-11.4

>  <m_primary>  (32) 
energy

$$$$
32:0
     RDKit          3D

 38 40  0  0  0  0  0  0  0  0999 V2000
   56.7340   30.2710   44.4910 O   0  0  0  0  0  0  0  0  0  0  0  0
   56.9430   29.1470   45.0220 C   0  0  0  0  0  0  0  0  0  0  0  0
   55.8900   28.3220   45.2390 N   0  0  0  0  0  0  0  0  0  0  0  0
   56.0440   27.1030   45.8040 C   0  0  0  0  0  0  0  0  0  0  0  0
   54.9260   26.3010   46.0010 O   0  0  0  0  0  0  0  0  0  0  0  0
   57.3200   26.6620   46.1790 C   0  0  0  0  0  0  0  0  0  0  0  0
   57.5050   25.3130   46.8410 C   0  0  0  0  0  0  0  0  0  0  0  0
   57.2200   24.1930   45.8670 C   0  0  0  0  0  0  0  0  0  0  0  0
   57.0200   24.4910   44.5070 C   0  0  0  0  0  0  0  0  0  0  0  0
   56.7750   23.4720   43.5850 C   0  0  0  0  0  0  0  0  0  0  0  0
   56.7250   22.1380   44.0070 C   0  0  0  0  0  0  0  0  0  0  0  0
   56.4830   21.1130   43.0960 O   0  0  0  0  0  0  0  0  0  0  0  0
   56.9190   21.8310   45.3560 C   0  0  0  0  0  0  0  0  0  0  0  0
   57.1650   22.8470   46.2860 C   0  0  0  0  0  0  0  0  0  0  0  0
   57.3440   22.5080   47.6240 O   0  0  0  0  0  0  0  0  0  0  0  0
   58.4080   27.5280   45.9520 C   0  0  0  0  0  0  0  0  0  0  0  0
   59.5710   27.1600   46.2780 O   0  0  0  0  0  0  0  0  0  0  0  0
   58.2120   28.7620   45.3800 N   0  0  0  0  0  0  0  0  0  0  0  0
   59.3630   29.6480   45.1160 C   0  0  0  0  0  0  0  0  0  0  0  0
   59.3690   30.8070   46.0810 C   0  0  0  0  0  0  0  0  0  0  0  0
   58.8660   32.0610   45.6910 C   0  0  0  0  0  0  0  0  0  0  0  0
   58.8440   33.1250   46.5980 C   0  0  0  0  0  0  0  0  0  0  0  0
   59.3200   32.9470   47.9000 C   0  0  0  0  0  0  0  0  0  0  0  0
   59.2960   34.0050   48.8000 O   0  0  0  0  0  0  0  0  0  0  0  0
   59.8180   31.7020   48.2970 C   0  0  0  0  0  0  0  0  0  0  0  0
   59.8410   30.6350   47.3930 C   0  0  0  0  0  0  0  0  0  0  0  0
   58.5419   25.2256   47.1976 H   0  0  0  0  0  0  0  0  0  0  0  0
   56.8022   25.2346   47.6835 H   0  0  0  0  0  0  0  0  0  0  0  0
   57.0570   25.5365   44.1669 H   0  0  0  0  0  0  0  0  0  0  0  0
   56.6208   23.7178   42.5240 H   0  0  0  0  0  0  0  0  0  0  0  0
   57.0280   20.2580   43.1020 H   0  0  0  0  0  0  0  0  0  0  0  0
   56.8781   20.7835   45.6893 H   0  0  0  0  0  0  0  0  0  0  0  0
   60.2949   29.0753   45.2322 H   0  0  0  0  0  0  0  0  0  0  0  0
   59.2836   30.0388   44.0908 H   0  0  0  0  0  0  0  0  0  0  0  0
   58.4882   32.2055   44.6681 H   0  0  0  0  0  0  0  0  0  0  0  0
   58.4513   34.1041   46.2862 H   0  0  0  0  0  0  0  0  0  0  0  0
   60.1922   31.5616   49.3218 H   0  0  0  0  0  0  0  0  0  0  0  0
   60.2305   29.6566   47.7108 H   0  0  0  0  0  0  0  0  0  0  0  0
  1  2  2  0
  2  3  1  0
  3  4  1  0
  4  5  1  0
  4  6  2  0
  6  7  1  0
  7  8  1  0
  8  9  2  0
  9 10  1  0
 10 11  2  0
 11 12  1  0
 11 13  1  0
 13 14  2  0
 14 15  1  0
  6 16  1  0
 16 17  2  0
 16 18  1  0
 18 19  1  0
 19 20  1  0
 20 21  2  0
 21 22  1  0
 22 23  2  0
 23 24  1  0
 23 25  1  0
 25 26  2  0
 18  2  1  0
 26 20  1  0
 14  8  1  0
  7 27  1  0
  7 28  1  0
  9 29  1  0
 10 30  1  0
 12 31  1  0
 13 32  1  0
 19 33  1  0
 19 34  1  0
 21 35  1  0
 22 36  1  0
 25 37  1  0
 26 38  1  0
M  CHG  4   3  -1   5  -1  15  -1  24  -1
M  END
>  <UniqueID>  (33) 
32

>  <SMILES>  (33) 
O=c1[n-]c([O-])c(Cc2ccc(O)cc2[O-])c(=O)n1Cc1ccc([O-])cc1

>  <Energy>  (33) 
46.5109637386105

>  <Genealogy>  (33) 
O=c1[n-]c([O-])c(Cc2ccc(O)cc2[O-])c(=O)n1Cc1ccc([O-])cc1 (protonated)
O=c1[n-]c([O-])c(Cc2ccc(O)cc2[O-])c(=O)n1Cc1ccc([O-])cc1 (3D coordinates assigned)
O=c1[n-]c([O-])c(Cc2ccc(O)cc2[O-])c(=O)n1Cc1ccc([O-])cc1 (optimized conformer: 46.5109637386105 kcal/mol)

>  <smiles>  (33) 
O=c1[nH]c(O)c(Cc2ccc(O)cc2O)c(=O)n1Cc1ccc(O)cc1

>  <score_type>  (33) 
oracle

>  <origin>  (33) 
adg

>  <m_score__min__energy>  (33) 
-16

>  <m_primary>  (33) 
energy

$$$$
33:0
     RDKit          3D

 69 73  0  0  1  0  0  0  0  0999 V2000
   57.2380   28.5370   43.6120 N   0  0  0  0  0  0  0  0  0  0  0  0
   57.5510   28.2020   44.8220 C   0  0  0  0  0  0  0  0  0  0  0  0
   56.9650   27.1240   45.3800 N   0  0  0  0  0  0  0  0  0  0  0  0
   57.2490   26.7290   46.6240 C   0  0  0  0  0  0  0  0  0  0  0  0
   56.7120   25.6950   47.1620 N   0  0  0  0  0  0  0  0  0  0  0  0
   57.2860   24.3800   47.0310 C   0  0  0  0  0  0  0  0  0  0  0  0
   56.8400   23.8740   45.6750 C   0  0  0  0  0  0  0  0  0  0  0  0
   57.6430   22.9760   44.9650 C   0  0  0  0  0  0  0  0  0  0  0  0
   57.2690   22.5010   43.7270 C   0  0  0  0  0  0  0  0  0  0  0  0
   56.0870   22.9090   43.1700 C   0  0  0  0  0  0  0  0  0  0  0  0
   55.2780   23.8040   43.8670 C   0  0  0  0  0  0  0  0  0  0  0  0
   55.6570   24.2870   45.1240 C   0  0  0  0  0  0  0  0  0  0  0  0
   54.8620   25.1790   45.8290 O   0  0  0  0  0  0  0  0  0  0  0  0
   58.1470   27.4480   47.3120 N   0  0  0  0  0  0  0  0  0  0  0  0
   58.7670   28.5450   46.7930 C   0  0  0  0  0  0  0  0  0  0  0  0
   58.4940   28.9690   45.5190 C   0  0  0  0  0  0  0  0  0  0  0  0
   59.0210   30.0310   44.8540 O   0  0  0  0  0  0  0  0  0  0  0  0
   58.8080   31.3720   44.9760 C   0  0  0  0  0  0  0  0  0  0  0  0
   59.2960   31.9270   46.1830 C   0  0  0  0  0  0  0  0  0  0  0  0
   59.1820   33.2560   46.4970 C   0  0  0  0  0  0  0  0  0  0  0  0
   59.7630   33.6910   47.7650 C   0  0  0  0  0  0  0  0  0  0  0  0
   58.9020   33.9950   48.6650 O   0  0  0  0  0  0  0  0  0  0  0  0
   61.1590   33.7840   48.0190 N   0  0  0  0  0  0  0  0  0  0  0  0
   62.1320   33.4360   47.0180 C   0  0  0  0  0  0  0  0  0  0  0  0
   63.5230   33.2480   47.4850 C   0  0  0  0  0  0  0  0  0  0  0  0
   63.7050   33.4990   48.9030 N   0  0  0  0  0  0  0  0  0  0  0  0
   64.5610   32.7000   49.7270 C   0  0  0  0  0  0  0  0  0  0  0  0
   64.1430   31.5150   50.2910 C   0  0  0  0  0  0  0  0  0  0  0  0
   64.9730   30.7420   51.1060 C   0  0  0  0  0  0  0  0  0  0  0  0
   66.2690   31.1940   51.3520 C   0  0  0  0  0  0  0  0  0  0  0  0
   66.7090   32.3730   50.8000 C   0  0  0  0  0  0  0  0  0  0  0  0
   68.3450   32.8930   51.1440 Cl  0  0  0  0  0  0  0  0  0  0  0  0
   65.8610   33.1310   49.9870 C   0  0  0  0  0  0  0  0  0  0  0  0
   62.9650   34.6340   49.4430 C   0  0  0  0  0  0  0  0  0  0  0  0
   61.5230   34.2680   49.3530 C   0  0  0  0  0  0  0  0  0  0  0  0
   58.5670   34.0870   45.6020 C   0  0  0  0  0  0  0  0  0  0  0  0
   58.0900   33.5540   44.4320 C   0  0  0  0  0  0  0  0  0  0  0  0
   58.1960   32.2080   44.0940 C   0  0  0  0  0  0  0  0  0  0  0  0
   57.6210   31.7710   42.8530 C   0  0  0  0  0  0  0  0  0  0  0  0
   58.1240   32.3330   41.6360 N   0  0  0  0  0  0  0  0  0  0  0  0
   56.7070   30.9320   42.7160 O   0  0  0  0  0  0  0  0  0  0  0  0
   57.7390   29.1900   43.0060 H   0  0  0  0  0  0  0  0  0  0  0  0
   56.2820   26.6160   44.8150 H   0  0  0  0  0  0  0  0  0  0  0  0
   58.3836   24.4337   47.0788 H   0  0  0  0  0  0  0  0  0  0  0  0
   56.9610   23.7115   47.8419 H   0  0  0  0  0  0  0  0  0  0  0  0
   58.5942   22.6415   45.4046 H   0  0  0  0  0  0  0  0  0  0  0  0
   57.9185   21.7958   43.1876 H   0  0  0  0  0  0  0  0  0  0  0  0
   55.7792   22.5343   42.1827 H   0  0  0  0  0  0  0  0  0  0  0  0
   54.3279   24.1355   43.4226 H   0  0  0  0  0  0  0  0  0  0  0  0
   55.1070   25.5290   46.7460 H   0  0  0  0  0  0  0  0  0  0  0  0
   58.3760   27.1440   48.2980 H   0  0  0  0  0  0  0  0  0  0  0  0
   59.4958   29.0971   47.4046 H   0  0  0  0  0  0  0  0  0  0  0  0
   59.7907   31.2594   46.9038 H   0  0  0  0  0  0  0  0  0  0  0  0
   61.8071   32.4954   46.5492 H   0  0  0  0  0  0  0  0  0  0  0  0
   62.1685   34.2984   46.3361 H   0  0  0  0  0  0  0  0  0  0  0  0
   63.8216   32.2102   47.2756 H   0  0  0  0  0  0  0  0  0  0  0  0
   64.1425   33.9815   46.9482 H   0  0  0  0  0  0  0  0  0  0  0  0
   63.1192   31.1650   50.0925 H   0  0  0  0  0  0  0  0  0  0  0  0
   64.6129   29.7991   51.5434 H   0  0  0  0  0  0  0  0  0  0  0  0
   66.9424   30.6039   51.9910 H   0  0  0  0  0  0  0  0  0  0  0  0
   66.2219   34.0736   49.5497 H   0  0  0  0  0  0  0  0  0  0  0  0
   63.2492   34.8113   50.4908 H   0  0  0  0  0  0  0  0  0  0  0  0
   63.1809   35.5568   48.8846 H   0  0  0  0  0  0  0  0  0  0  0  0
   61.3115   33.4767   50.0872 H   0  0  0  0  0  0  0  0  0  0  0  0
   60.9308   35.1720   49.5584 H   0  0  0  0  0  0  0  0  0  0  0  0
   58.4572   35.1604   45.8160 H   0  0  0  0  0  0  0  0  0  0  0  0
   57.5947   34.2296   43.7191 H   0  0  0  0  0  0  0  0  0  0  0  0
   57.4160   32.6480   40.9420 H   0  0  0  0  0  0  0  0  0  0  0  0
   59.1500   32.4270   41.4500 H   0  0  0  0  0  0  0  0  0  0  0  0
  1  2  2  3
  2  3  1  0
  3  4  1  0
  4  5  2  0
  5  6  1  0
  6  7  1  0
  7  8  2  0
  8  9  1  0
  9 10  2  0
 10 11  1  0
 11 12  2  0
 12 13  1  0
  4 14  1  0
 14 15  1  0
 15 16  2  0
 16 17  1  0
 17 18  1  0
 18 19  2  0
 19 20  1  0
 20 21  1  0
 21 22  2  0
 21 23  1  0
 23 24  1  0
 24 25  1  0
 25 26  1  0
 26 27  1  0
 27 28  2  0
 28 29  1  0
 29 30  2  0
 30 31  1  0
 31 32  1  0
 31 33  2  0
 26 34  1  0
 34 35  1  0
 20 36  2  0
 36 37  1  0
 37 38  2  0
 38 39  1  0
 39 40  1  0
 39 41  2  0
 16  2  1  0
 38 18  1  0
 12  7  1  0
 35 23  1  0
 33 27  1  0
  1 42  1  0
  3 43  1  0
  6 44  1  0
  6 45  1  0
  8 46  1  0
  9 47  1  0
 10 48  1  0
 11 49  1  0
 13 50  1  0
 14 51  1  0
 15 52  1  0
 19 53  1  0
 24 54  1  0
 24 55  1  0
 25 56  1  0
 25 57  1  0
 28 58  1  0
 29 59  1  0
 30 60  1  0
 33 61  1  0
 34 62  1  0
 34 63  1  0
 35 64  1  0
 35 65  1  0
 36 66  1  0
 37 67  1  0
 40 68  1  0
 40 69  1  0
M  END
>  <smiles>  (34) 
N=c1[nH]c(=NCc2ccccc2O)[nH]cc1Oc1cc(C(=O)N2CCN(c3cccc(Cl)c3)CC2)ccc1C(N)=O

>  <score_type>  (34) 
oracle

>  <origin>  (34) 
adg

>  <m_score__min__energy>  (34) 
-11.25

>  <m_primary>  (34) 
energy

$$$$
34:0
     RDKit          3D

 47 50  0  0  0  0  0  0  0  0999 V2000
   60.5730   29.1370   45.9800 O   0  0  0  0  0  0  0  0  0  0  0  0
   59.3840   29.0520   46.3890 C   0  0  0  0  0  0  0  0  0  0  0  0
   58.8190   30.1180   47.1730 N   0  0  0  0  0  0  0  0  0  0  0  0
   59.5700   31.3190   47.5360 C   0  0  0  0  0  0  0  0  0  0  0  0
   59.1860   32.4600   46.6270 C   0  0  0  0  0  0  0  0  0  0  0  0
   57.9670   32.4200   45.9260 C   0  0  0  0  0  0  0  0  0  0  0  0
   57.5880   33.4910   45.1150 C   0  0  0  0  0  0  0  0  0  0  0  0
   58.4240   34.6040   45.0170 C   0  0  0  0  0  0  0  0  0  0  0  0
   59.5930   34.6430   45.7130 N   0  0  0  0  0  0  0  0  0  0  0  0
   59.9950   33.6130   46.5070 C   0  0  0  0  0  0  0  0  0  0  0  0
   61.2210   33.7350   47.2430 N   0  0  0  0  0  0  0  0  0  0  0  0
   62.4890   33.8160   46.5080 C   0  0  0  0  0  0  0  0  0  0  0  0
   63.6930   33.4320   47.4020 C   0  0  0  0  0  0  0  0  0  0  0  0
   63.3330   33.1400   48.7430 O   0  0  0  0  0  0  0  0  0  0  0  0
   62.5480   34.1870   49.2710 C   0  0  0  0  0  0  0  0  0  0  0  0
   61.1490   34.1390   48.6520 C   0  0  0  0  0  0  0  0  0  0  0  0
   58.5960   27.8360   46.0750 C   0  0  0  0  0  0  0  0  0  0  0  0
   59.2500   26.6800   45.6170 C   0  0  0  0  0  0  0  0  0  0  0  0
   58.5200   25.5270   45.3140 C   0  0  0  0  0  0  0  0  0  0  0  0
   57.1230   25.5020   45.4650 C   0  0  0  0  0  0  0  0  0  0  0  0
   56.3850   24.2570   45.1420 C   0  0  0  0  0  0  0  0  0  0  0  0
   56.3140   23.6210   43.9200 C   0  0  0  0  0  0  0  0  0  0  0  0
   55.5200   22.5410   44.0350 N   0  0  0  0  0  0  0  0  0  0  0  0
   55.1290   22.5520   45.3280 C   0  0  0  0  0  0  0  0  0  0  0  0
   55.6290   23.5870   46.0340 N   0  0  0  0  0  0  0  0  0  0  0  0
   56.4610   26.6710   45.8990 C   0  0  0  0  0  0  0  0  0  0  0  0
   55.0730   26.7170   46.0030 O   0  0  0  0  0  0  0  0  0  0  0  0
   57.1960   27.8230   46.2030 C   0  0  0  0  0  0  0  0  0  0  0  0
   57.8320   30.0470   47.5060 H   0  0  0  0  0  0  0  0  0  0  0  0
   59.3427   31.5902   48.5775 H   0  0  0  0  0  0  0  0  0  0  0  0
   60.6464   31.1185   47.4300 H   0  0  0  0  0  0  0  0  0  0  0  0
   57.3105   31.5421   46.0172 H   0  0  0  0  0  0  0  0  0  0  0  0
   56.6397   33.4580   44.5586 H   0  0  0  0  0  0  0  0  0  0  0  0
   58.1378   35.4511   44.3763 H   0  0  0  0  0  0  0  0  0  0  0  0
   62.4484   33.1290   45.6499 H   0  0  0  0  0  0  0  0  0  0  0  0
   62.6267   34.8550   46.1741 H   0  0  0  0  0  0  0  0  0  0  0  0
   64.1775   32.5437   46.9705 H   0  0  0  0  0  0  0  0  0  0  0  0
   64.3652   34.3023   47.4301 H   0  0  0  0  0  0  0  0  0  0  0  0
   62.4701   34.0723   50.3622 H   0  0  0  0  0  0  0  0  0  0  0  0
   63.0195   35.1527   49.0362 H   0  0  0  0  0  0  0  0  0  0  0  0
   60.5337   33.4139   49.2049 H   0  0  0  0  0  0  0  0  0  0  0  0
   60.7007   35.1418   48.7109 H   0  0  0  0  0  0  0  0  0  0  0  0
   60.3433   26.6822   45.4961 H   0  0  0  0  0  0  0  0  0  0  0  0
   59.0446   24.6298   44.9536 H   0  0  0  0  0  0  0  0  0  0  0  0
   56.8239   23.9444   43.0005 H   0  0  0  0  0  0  0  0  0  0  0  0
   54.4662   21.7898   45.7636 H   0  0  0  0  0  0  0  0  0  0  0  0
   56.6725   28.7277   46.5457 H   0  0  0  0  0  0  0  0  0  0  0  0
  1  2  2  0
  2  3  1  0
  3  4  1  0
  4  5  1  0
  5  6  2  0
  6  7  1  0
  7  8  2  0
  8  9  1  0
  9 10  2  0
 10 11  1  0
 11 12  1  0
 12 13  1  0
 13 14  1  0
 14 15  1  0
 15 16  1  0
  2 17  1  0
 17 18  2  0
 18 19  1  0
 19 20  2  0
 20 21  1  0
 21 22  2  0
 22 23  1  0
 23 24  2  0
 24 25  1  0
 20 26  1  0
 26 27  1  0
 26 28  2  0
 10  5  1  0
 16 11  1  0
 28 17  1  0
 25 21  1  0
  3 29  1  0
  4 30  1  0
  4 31  1  0
  6 32  1  0
  7 33  1  0
  8 34  1  0
 12 35  1  0
 12 36  1  0
 13 37  1  0
 13 38  1  0
 15 39  1  0
 15 40  1  0
 16 41  1  0
 16 42  1  0
 18 43  1  0
 19 44  1  0
 22 45  1  0
 24 46  1  0
 28 47  1  0
M  CHG  2  25  -1  27  -1
M  END
>  <UniqueID>  (35) 
33

>  <SMILES>  (35) 
O=C(NCc1cccnc1N1CCOCC1)c1ccc(-c2cnc[n-]2)c([O-])c1

>  <Energy>  (35) 
93.87299912565666

>  <Genealogy>  (35) 
O=C(NCc1cccnc1N1CCOCC1)c1ccc(-c2cnc[n-]2)c([O-])c1 (protonated)
O=C(NCc1cccnc1N1CCOCC1)c1ccc(-c2cnc[n-]2)c([O-])c1 (3D coordinates assigned)
O=C(NCc1cccnc1N1CCOCC1)c1ccc(-c2cnc[n-]2)c([O-])c1 (nonaromatic ring conformer: 93.87299912565666 kcal/mol)

>  <smiles>  (35) 
O=C(NCc1cccnc1N1CCOCC1)c1ccc(-c2cnc[nH]2)c(O)c1

>  <score_type>  (35) 
oracle

>  <origin>  (35) 
adg

>  <m_score__min__energy>  (35) 
-13.359999999999999

>  <m_primary>  (35) 
energy

$$$$
35:0
     RDKit          3D

 66 70  0  0  0  0  0  0  0  0999 V2000
   56.6540   30.7970   42.3390 C   0  0  0  0  0  0  0  0  0  0  0  0
   56.3130   29.8670   43.4640 C   0  0  0  0  0  0  0  0  0  0  0  0
   55.0950   29.6680   43.7250 O   0  0  0  0  0  0  0  0  0  0  0  0
   57.3680   29.1510   44.2360 C   0  0  0  0  0  0  0  0  0  0  0  0
   57.8850   27.9330   43.7560 C   0  0  0  0  0  0  0  0  0  0  0  0
   58.8700   27.2490   44.4650 C   0  0  0  0  0  0  0  0  0  0  0  0
   59.3480   27.7540   45.6700 C   0  0  0  0  0  0  0  0  0  0  0  0
   58.8520   28.9630   46.1830 C   0  0  0  0  0  0  0  0  0  0  0  0
   59.3360   29.4360   47.5010 C   0  0  0  0  0  0  0  0  0  0  0  0
   58.5210   29.4540   48.5170 N   0  0  0  0  0  0  0  0  0  0  0  0
   58.8990   29.9680   49.8320 C   0  0  0  0  0  0  0  0  0  0  0  0
   60.3810   29.7110   50.1120 C   0  0  0  0  0  0  0  0  0  0  0  0
   61.2220   30.2790   48.9660 C   0  0  0  0  0  0  0  0  0  0  0  0
   60.7100   29.8240   47.6750 N   0  0  0  0  0  0  0  0  0  0  0  0
   57.8790   29.6840   45.4450 C   0  0  0  0  0  0  0  0  0  0  0  0
   57.4140   30.9280   45.8970 O   0  0  0  0  0  0  0  0  0  0  0  0
   58.1370   32.1280   45.8110 C   0  0  0  0  0  0  0  0  0  0  0  0
   57.7440   33.1730   44.9590 C   0  0  0  0  0  0  0  0  0  0  0  0
   58.5040   34.3410   44.8860 C   0  0  0  0  0  0  0  0  0  0  0  0
   59.6570   34.4790   45.6630 C   0  0  0  0  0  0  0  0  0  0  0  0
   60.0610   33.4480   46.5290 C   0  0  0  0  0  0  0  0  0  0  0  0
   61.2960   33.5830   47.3460 C   0  0  0  0  0  0  0  0  0  0  0  0
   62.5610   33.6210   46.7290 C   0  0  0  0  0  0  0  0  0  0  0  0
   63.7190   33.7530   47.4970 C   0  0  0  0  0  0  0  0  0  0  0  0
   63.6340   33.8350   48.8880 C   0  0  0  0  0  0  0  0  0  0  0  0
   62.3870   33.7680   49.5280 C   0  0  0  0  0  0  0  0  0  0  0  0
   62.2900   33.8720   51.0390 C   0  0  0  0  0  0  0  0  0  0  0  0
   61.1430   33.1530   51.6500 N   0  0  0  0  0  0  0  0  0  0  0  0
   61.2610   32.8870   53.0890 C   0  0  0  0  0  0  0  0  0  0  0  0
   59.8440   32.6420   53.6000 C   0  0  0  0  0  0  0  0  0  0  0  0
   58.9210   33.2030   52.5250 C   0  0  0  0  0  0  0  0  0  0  0  0
   59.8430   33.8100   51.4780 C   0  0  0  0  0  0  0  0  0  0  0  0
   61.2220   33.6700   48.7480 C   0  0  0  0  0  0  0  0  0  0  0  0
   59.2820   32.2780   46.6020 C   0  0  0  0  0  0  0  0  0  0  0  0
   57.0054   31.7553   42.7492 H   0  0  0  0  0  0  0  0  0  0  0  0
   57.4467   30.3499   41.7211 H   0  0  0  0  0  0  0  0  0  0  0  0
   55.7602   30.9683   41.7211 H   0  0  0  0  0  0  0  0  0  0  0  0
   57.5071   27.5166   42.8106 H   0  0  0  0  0  0  0  0  0  0  0  0
   59.2720   26.3044   44.0699 H   0  0  0  0  0  0  0  0  0  0  0  0
   60.1206   27.2017   46.2251 H   0  0  0  0  0  0  0  0  0  0  0  0
   58.7088   31.0510   49.8639 H   0  0  0  0  0  0  0  0  0  0  0  0
   58.3014   29.4508   50.5971 H   0  0  0  0  0  0  0  0  0  0  0  0
   60.6666   30.2011   51.0545 H   0  0  0  0  0  0  0  0  0  0  0  0
   60.5565   28.6282   50.1943 H   0  0  0  0  0  0  0  0  0  0  0  0
   61.1860   31.3778   49.0018 H   0  0  0  0  0  0  0  0  0  0  0  0
   62.2581   29.9273   49.0795 H   0  0  0  0  0  0  0  0  0  0  0  0
   61.3340   29.9100   46.8410 H   0  0  0  0  0  0  0  0  0  0  0  0
   56.8351   33.0705   44.3479 H   0  0  0  0  0  0  0  0  0  0  0  0
   58.1944   35.1556   44.2147 H   0  0  0  0  0  0  0  0  0  0  0  0
   60.2530   35.4012   45.5966 H   0  0  0  0  0  0  0  0  0  0  0  0
   62.6372   33.5461   45.6342 H   0  0  0  0  0  0  0  0  0  0  0  0
   64.7018   33.7925   47.0046 H   0  0  0  0  0  0  0  0  0  0  0  0
   64.5498   33.9528   49.4858 H   0  0  0  0  0  0  0  0  0  0  0  0
   63.2162   33.4624   51.4685 H   0  0  0  0  0  0  0  0  0  0  0  0
   62.1360   34.9380   51.2624 H   0  0  0  0  0  0  0  0  0  0  0  0
   61.0830   32.2220   51.1690 H   0  0  0  0  0  0  0  0  0  0  0  0
   61.8865   31.9987   53.2616 H   0  0  0  0  0  0  0  0  0  0  0  0
   61.7333   33.7311   53.6129 H   0  0  0  0  0  0  0  0  0  0  0  0
   59.6653   31.5652   53.7365 H   0  0  0  0  0  0  0  0  0  0  0  0
   59.6733   33.1212   54.5753 H   0  0  0  0  0  0  0  0  0  0  0  0
   58.3124   32.4004   52.0830 H   0  0  0  0  0  0  0  0  0  0  0  0
   58.2208   33.9463   52.9340 H   0  0  0  0  0  0  0  0  0  0  0  0
   59.4504   33.6208   50.4680 H   0  0  0  0  0  0  0  0  0  0  0  0
   59.9249   34.9003   51.5986 H   0  0  0  0  0  0  0  0  0  0  0  0
   60.2386   33.6612   49.2408 H   0  0  0  0  0  0  0  0  0  0  0  0
   59.5767   31.4713   47.2893 H   0  0  0  0  0  0  0  0  0  0  0  0
  1  2  1  0
  2  3  2  0
  2  4  1  0
  4  5  2  0
  5  6  1  0
  6  7  2  0
  7  8  1  0
  8  9  1  0
  9 10  2  0
 10 11  1  0
 11 12  1  0
 12 13  1  0
 13 14  1  0
  8 15  2  0
 15 16  1  0
 16 17  1  0
 17 18  2  0
 18 19  1  0
 19 20  2  0
 20 21  1  0
 21 22  1  0
 22 23  2  0
 23 24  1  0
 24 25  2  0
 25 26  1  0
 26 27  1  0
 27 28  1  0
 28 29  1  0
 29 30  1  0
 30 31  1  0
 31 32  1  0
 26 33  2  0
 21 34  2  0
 15  4  1  0
 34 17  1  0
 14  9  1  0
 33 22  1  0
 32 28  1  0
  1 35  1  0
  1 36  1  0
  1 37  1  0
  5 38  1  0
  6 39  1  0
  7 40  1  0
 11 41  1  0
 11 42  1  0
 12 43  1  0
 12 44  1  0
 13 45  1  0
 13 46  1  0
 14 47  1  0
 18 48  1  0
 19 49  1  0
 20 50  1  0
 23 51  1  0
 24 52  1  0
 25 53  1  0
 27 54  1  0
 27 55  1  0
 28 56  1  0
 29 57  1  0
 29 58  1  0
 30 59  1  0
 30 60  1  0
 31 61  1  0
 31 62  1  0
 32 63  1  0
 32 64  1  0
 33 65  1  0
 34 66  1  0
M  CHG  1  28   1
M  END
>  <UniqueID>  (36) 
34

>  <SMILES>  (36) 
CC(=O)c1cccc(C2=NCCCN2)c1Oc1cccc(-c2cccc(C[NH+]3CCCC3)c2)c1

>  <Energy>  (36) 
92.75685423376291

>  <Genealogy>  (36) 
CC(=O)c1cccc(C2=NCCCN2)c1Oc1cccc(-c2cccc(C[NH+]3CCCC3)c2)c1 (protonated)
CC(=O)c1cccc(C2=NCCCN2)c1Oc1cccc(-c2cccc(C[NH+]3CCCC3)c2)c1 (3D coordinates assigned)
CC(=O)c1cccc(C2=NCCCN2)c1Oc1cccc(-c2cccc(C[NH+]3CCCC3)c2)c1 (nonaromatic ring conformer: 92.75685423376291 kcal/mol)

>  <smiles>  (36) 
CC(=O)c1cccc(C2=NCCCN2)c1Oc1cccc(-c2cccc(CN3CCCC3)c2)c1

>  <score_type>  (36) 
oracle

>  <origin>  (36) 
adg

>  <m_score__min__energy>  (36) 
-9.4700000000000006

>  <m_primary>  (36) 
energy

$$$$
36:0
     RDKit          3D

 71 74  0  0  0  0  0  0  0  0999 V2000
   58.0330   31.9490   41.8500 C   0  0  0  0  0  0  0  0  0  0  0  0
   57.9220   32.1750   43.3330 C   0  0  0  0  0  0  0  0  0  0  0  0
   58.3450   33.3790   43.9100 C   0  0  0  0  0  0  0  0  0  0  0  0
   58.2460   33.5820   45.2580 N   0  0  0  0  0  0  0  0  0  0  0  0
   58.7210   34.8600   45.8200 C   0  0  0  0  0  0  0  0  0  0  0  0
   60.0060   34.6660   46.6570 C   0  0  0  0  0  0  0  0  0  0  0  0
   60.6880   33.3210   46.3230 C   0  0  0  0  0  0  0  0  0  0  0  0
   61.7340   32.9430   47.3830 C   0  0  0  0  0  0  0  0  0  0  0  0
   61.2010   32.9350   48.7690 N   0  0  0  0  0  0  0  0  0  0  0  0
   61.3220   31.3560   49.5140 S   0  0  0  0  0  0  0  0  0  0  0  0
   62.7000   31.2230   50.0980 O   0  0  0  0  0  0  0  0  0  0  0  0
   60.3300   31.3010   50.6400 O   0  0  0  0  0  0  0  0  0  0  0  0
   61.0200   30.0870   48.3280 N   0  0  1  0  0  0  0  0  0  0  0  0
   61.0500   28.7060   48.8610 C   0  0  0  0  0  0  0  0  0  0  0  0
   59.9470   27.7320   48.3870 C   0  0  0  0  0  0  0  0  0  0  0  0
   59.9360   27.3170   46.9140 C   0  0  0  0  0  0  0  0  0  0  0  0
   59.3370   28.2930   45.9880 N   0  0  0  0  0  0  0  0  0  0  0  0
   58.9460   27.8030   44.6510 C   0  0  0  0  0  0  0  0  0  0  0  0
   57.9930   26.6420   44.7680 C   0  0  0  0  0  0  0  0  0  0  0  0
   57.8940   25.7080   43.7260 C   0  0  0  0  0  0  0  0  0  0  0  0
   57.0000   24.6370   43.8200 C   0  0  0  0  0  0  0  0  0  0  0  0
   56.1900   24.4880   44.9570 C   0  0  0  0  0  0  0  0  0  0  0  0
   55.2500   23.3190   45.0680 C   0  0  0  0  0  0  0  0  0  0  0  0
   53.8390   23.8000   45.1660 C   0  0  0  0  0  0  0  0  0  0  0  0
   53.5970   24.9840   45.5210 O   0  0  0  0  0  0  0  0  0  0  0  0
   52.7880   22.9300   44.9060 O   0  0  0  0  0  0  0  0  0  0  0  0
   56.3040   25.4100   46.0080 C   0  0  0  0  0  0  0  0  0  0  0  0
   57.1950   26.4830   45.9130 C   0  0  0  0  0  0  0  0  0  0  0  0
   60.0020   29.6030   46.0030 C   0  0  0  0  0  0  0  0  0  0  0  0
   59.9360   30.3520   47.3510 C   0  0  0  0  0  0  0  0  0  0  0  0
   59.8380   33.4780   48.9180 C   0  0  0  0  0  0  0  0  0  0  0  0
   59.7110   34.8100   48.1740 C   0  0  0  0  0  0  0  0  0  0  0  0
   57.7290   32.5930   46.0570 C   0  0  0  0  0  0  0  0  0  0  0  0
   57.6300   32.7540   47.3040 O   0  0  0  0  0  0  0  0  0  0  0  0
   57.3170   31.4200   45.5120 N   0  0  0  0  0  0  0  0  0  0  0  0
   57.4010   31.1890   44.1790 C   0  0  0  0  0  0  0  0  0  0  0  0
   57.0060   30.0860   43.7150 O   0  0  0  0  0  0  0  0  0  0  0  0
   58.5108   30.9762   41.6621 H   0  0  0  0  0  0  0  0  0  0  0  0
   57.0285   31.9568   41.4017 H   0  0  0  0  0  0  0  0  0  0  0  0
   58.6408   32.7487   41.4017 H   0  0  0  0  0  0  0  0  0  0  0  0
   58.7620   34.1709   43.2705 H   0  0  0  0  0  0  0  0  0  0  0  0
   58.9329   35.5566   44.9955 H   0  0  0  0  0  0  0  0  0  0  0  0
   57.9365   35.2611   46.4786 H   0  0  0  0  0  0  0  0  0  0  0  0
   60.7146   35.4634   46.3886 H   0  0  0  0  0  0  0  0  0  0  0  0
   59.9220   32.5327   46.2793 H   0  0  0  0  0  0  0  0  0  0  0  0
   61.1990   33.4237   45.3543 H   0  0  0  0  0  0  0  0  0  0  0  0
   62.1158   31.9377   47.1516 H   0  0  0  0  0  0  0  0  0  0  0  0
   62.5223   33.7093   47.3454 H   0  0  0  0  0  0  0  0  0  0  0  0
   61.8770   30.1160   47.7300 H   0  0  0  0  0  0  0  0  0  0  0  0
   62.0191   28.2666   48.5822 H   0  0  0  0  0  0  0  0  0  0  0  0
   60.8770   28.8196   49.9414 H   0  0  0  0  0  0  0  0  0  0  0  0
   60.0437   26.8134   48.9844 H   0  0  0  0  0  0  0  0  0  0  0  0
   59.0105   28.2935   48.5200 H   0  0  0  0  0  0  0  0  0  0  0  0
   60.9768   27.1469   46.6014 H   0  0  0  0  0  0  0  0  0  0  0  0
   59.3051   26.4177   46.8568 H   0  0  0  0  0  0  0  0  0  0  0  0
   58.4568   28.6174   44.0966 H   0  0  0  0  0  0  0  0  0  0  0  0
   59.8485   27.4679   44.1188 H   0  0  0  0  0  0  0  0  0  0  0  0
   58.5229   25.8187   42.8304 H   0  0  0  0  0  0  0  0  0  0  0  0
   56.9310   23.9078   42.9993 H   0  0  0  0  0  0  0  0  0  0  0  0
   55.3558   22.6817   44.1777 H   0  0  0  0  0  0  0  0  0  0  0  0
   55.4971   22.7439   45.9725 H   0  0  0  0  0  0  0  0  0  0  0  0
   55.6890   25.2880   46.9118 H   0  0  0  0  0  0  0  0  0  0  0  0
   57.2715   27.2060   46.7385 H   0  0  0  0  0  0  0  0  0  0  0  0
   61.0613   29.4510   45.7485 H   0  0  0  0  0  0  0  0  0  0  0  0
   59.4641   30.2295   45.2763 H   0  0  0  0  0  0  0  0  0  0  0  0
   59.9448   31.4298   47.1314 H   0  0  0  0  0  0  0  0  0  0  0  0
   59.0207   29.9821   47.8361 H   0  0  0  0  0  0  0  0  0  0  0  0
   59.1145   32.7606   48.5034 H   0  0  0  0  0  0  0  0  0  0  0  0
   59.6346   33.6446   49.9861 H   0  0  0  0  0  0  0  0  0  0  0  0
   58.6866   35.1901   48.3009 H   0  0  0  0  0  0  0  0  0  0  0  0
   60.4517   35.5045   48.5971 H   0  0  0  0  0  0  0  0  0  0  0  0
  1  2  1  0
  2  3  2  0
  3  4  1  0
  4  5  1  0
  5  6  1  0
  6  7  1  0
  7  8  1  0
  8  9  1  0
  9 10  1  0
 10 11  2  0
 10 12  2  0
 10 13  1  0
 13 14  1  0
 14 15  1  0
 15 16  1  0
 16 17  1  0
 17 18  1  0
 18 19  1  0
 19 20  2  0
 20 21  1  0
 21 22  2  0
 22 23  1  0
 23 24  1  0
 24 25  2  0
 24 26  1  0
 22 27  1  0
 27 28  2  0
 17 29  1  0
 29 30  1  0
  9 31  1  0
 31 32  1  0
  4 33  1  0
 33 34  2  0
 33 35  1  0
 35 36  1  0
 36 37  2  0
 36  2  1  0
 32  6  1  0
 30 13  1  0
 28 19  1  0
  1 38  1  0
  1 39  1  0
  1 40  1  0
  3 41  1  0
  5 42  1  0
  5 43  1  0
  6 44  1  0
  7 45  1  0
  7 46  1  0
  8 47  1  0
  8 48  1  0
 13 49  1  6
 14 50  1  0
 14 51  1  0
 15 52  1  0
 15 53  1  0
 16 54  1  0
 16 55  1  0
 18 56  1  0
 18 57  1  0
 20 58  1  0
 21 59  1  0
 23 60  1  0
 23 61  1  0
 27 62  1  0
 28 63  1  0
 29 64  1  0
 29 65  1  0
 30 66  1  0
 30 67  1  0
 31 68  1  0
 31 69  1  0
 32 70  1  0
 32 71  1  0
M  CHG  3  13   1  26  -1  35  -1
M  END
>  <UniqueID>  (37) 
35

>  <SMILES>  (37) 
Cc1cn(CC2CCN(S(=O)(=O)[N@H+]3CCCN(Cc4ccc(CC(=O)[O-])cc4)CC3)CC2)c(=O)[n-]c1=O

>  <Energy>  (37) 
102.6283017954118

>  <Genealogy>  (37) 
Cc1cn(CC2CCN(S(=O)(=O)[NH+]3CCCN(Cc4ccc(CC(=O)[O-])cc4)CC3)CC2)c(=O)[n-]c1=O (protonated)
Cc1cn(CC2CCN(S(=O)(=O)[N@H+]3CCCN(Cc4ccc(CC(=O)[O-])cc4)CC3)CC2)c(=O)[n-]c1=O (chirality)
Cc1cn(CC2CCN(S(=O)(=O)[N@H+]3CCCN(Cc4ccc(CC(=O)[O-])cc4)CC3)CC2)c(=O)[n-]c1=O (3D coordinates assigned)
Cc1cn(CC2CCN(S(=O)(=O)[N@H+]3CCCN(Cc4ccc(CC(=O)[O-])cc4)CC3)CC2)c(=O)[n-]c1=O (nonaromatic ring conformer: 102.6283017954118 kcal/mol)

>  <smiles>  (37) 
Cc1cn(CC2CCN(S(=O)(=O)N3CCCN(Cc4ccc(CC(=O)O)cc4)CC3)CC2)c(=O)[nH]c1=O

>  <score_type>  (37) 
oracle

>  <origin>  (37) 
adg

>  <m_score__min__energy>  (37) 
-12.220000000000001

>  <m_primary>  (37) 
energy

$$$$
37:0
     RDKit          3D

 54 57  0  0  0  0  0  0  0  0999 V2000
   59.6320   26.9680   48.2300 C   0  0  0  0  0  0  0  0  0  0  0  0
   59.6840   28.1380   47.5720 C   0  0  0  0  0  0  0  0  0  0  0  0
   59.2060   28.3970   46.2770 C   0  0  0  0  0  0  0  0  0  0  0  0
   58.4440   27.6580   45.4480 C   0  0  0  0  0  0  0  0  0  0  0  0
   57.2220   26.9300   45.8210 C   0  0  0  0  0  0  0  0  0  0  0  0
   57.2170   25.6590   46.2580 N   0  0  0  0  0  0  0  0  0  0  0  0
   55.9020   25.3650   46.3490 C   0  0  0  0  0  0  0  0  0  0  0  0
   55.4840   24.2460   46.7460 O   0  0  0  0  0  0  0  0  0  0  0  0
   55.0710   26.3580   45.9670 N   0  0  0  0  0  0  0  0  0  0  0  0
   55.9210   27.3360   45.6210 C   0  0  0  0  0  0  0  0  0  0  0  0
   55.5190   28.5640   45.1090 O   0  0  0  0  0  0  0  0  0  0  0  0
   59.6580   29.6620   45.9450 C   0  0  0  0  0  0  0  0  0  0  0  0
   60.3460   30.1430   47.0390 C   0  0  0  0  0  0  0  0  0  0  0  0
   60.8910   31.5160   47.1380 C   0  0  0  0  0  0  0  0  0  0  0  0
   60.3980   32.3970   46.3830 O   0  0  0  0  0  0  0  0  0  0  0  0
   61.9250   31.8990   48.0860 N   0  0  1  0  0  0  0  0  0  0  0  0
   63.2370   32.0340   47.3870 C   0  0  0  0  0  0  0  0  0  0  0  0
   64.0910   33.2350   47.8430 C   0  0  0  0  0  0  0  0  0  0  0  0
   64.0540   33.4840   49.3650 C   0  0  2  0  0  0  0  0  0  0  0  0
   65.0880   32.6360   50.0940 C   0  0  0  0  0  0  0  0  0  0  0  0
   66.4320   33.0540   50.1320 C   0  0  0  0  0  0  0  0  0  0  0  0
   67.4010   32.2730   50.7700 C   0  0  0  0  0  0  0  0  0  0  0  0
   67.0430   31.0660   51.3730 C   0  0  0  0  0  0  0  0  0  0  0  0
   67.9850   30.3120   51.9930 F   0  0  0  0  0  0  0  0  0  0  0  0
   65.7160   30.6350   51.3370 C   0  0  0  0  0  0  0  0  0  0  0  0
   64.7430   31.4110   50.6970 C   0  0  0  0  0  0  0  0  0  0  0  0
   62.6320   33.3520   49.9670 C   0  0  0  0  0  0  0  0  0  0  0  0
   61.5640   33.0830   48.8970 C   0  0  0  0  0  0  0  0  0  0  0  0
   60.3370   29.2340   48.0410 N   0  0  0  0  0  0  0  0  0  0  0  0
   61.0260   29.3810   49.3330 C   0  0  0  0  0  0  0  0  0  0  0  0
   60.0300   29.2880   50.4840 C   0  0  0  0  0  0  0  0  0  0  0  0
   60.0432   26.8904   49.2473 H   0  0  0  0  0  0  0  0  0  0  0  0
   59.1782   26.0876   47.7515 H   0  0  0  0  0  0  0  0  0  0  0  0
   58.7645   27.5932   44.3977 H   0  0  0  0  0  0  0  0  0  0  0  0
   59.4988   30.1845   44.9902 H   0  0  0  0  0  0  0  0  0  0  0  0
   62.0010   31.0960   48.7560 H   0  0  0  0  0  0  0  0  0  0  0  0
   63.0416   32.1421   46.3099 H   0  0  0  0  0  0  0  0  0  0  0  0
   63.8145   31.1310   47.6342 H   0  0  0  0  0  0  0  0  0  0  0  0
   63.7197   34.1372   47.3350 H   0  0  0  0  0  0  0  0  0  0  0  0
   65.1342   33.0035   47.5818 H   0  0  0  0  0  0  0  0  0  0  0  0
   64.3351   34.5359   49.5215 H   0  0  0  0  0  0  0  0  0  0  0  0
   66.7221   34.0023   49.6561 H   0  0  0  0  0  0  0  0  0  0  0  0
   68.4476   32.6106   50.7967 H   0  0  0  0  0  0  0  0  0  0  0  0
   65.4345   29.6838   51.8124 H   0  0  0  0  0  0  0  0  0  0  0  0
   63.7005   31.0614   50.6647 H   0  0  0  0  0  0  0  0  0  0  0  0
   62.3813   34.2875   50.4885 H   0  0  0  0  0  0  0  0  0  0  0  0
   62.6386   32.4946   50.6561 H   0  0  0  0  0  0  0  0  0  0  0  0
   61.4827   33.9607   48.2389 H   0  0  0  0  0  0  0  0  0  0  0  0
   60.6028   32.8909   49.3962 H   0  0  0  0  0  0  0  0  0  0  0  0
   61.7746   28.5818   49.4368 H   0  0  0  0  0  0  0  0  0  0  0  0
   61.5151   30.3658   49.3649 H   0  0  0  0  0  0  0  0  0  0  0  0
   60.5699   29.3384   51.4411 H   0  0  0  0  0  0  0  0  0  0  0  0
   59.3173   30.1235   50.4206 H   0  0  0  0  0  0  0  0  0  0  0  0
   59.4843   28.3350   50.4206 H   0  0  0  0  0  0  0  0  0  0  0  0
  1  2  2  0
  2  3  1  0
  3  4  2  3
  4  5  1  0
  5  6  1  0
  6  7  1  0
  7  8  2  0
  7  9  1  0
  9 10  1  0
 10 11  1  0
  3 12  1  0
 12 13  2  0
 13 14  1  0
 14 15  2  0
 14 16  1  0
 16 17  1  0
 17 18  1  0
 18 19  1  0
 19 20  1  0
 20 21  2  0
 21 22  1  0
 22 23  2  0
 23 24  1  0
 23 25  1  0
 25 26  2  0
 19 27  1  0
 27 28  1  0
 13 29  1  0
 29 30  1  0
 30 31  1  0
 29  2  1  0
 10  5  2  0
 28 16  1  0
 26 20  1  0
  1 32  1  0
  1 33  1  0
  4 34  1  0
 12 35  1  0
 16 36  1  1
 17 37  1  0
 17 38  1  0
 18 39  1  0
 18 40  1  0
 19 41  1  6
 21 42  1  0
 22 43  1  0
 25 44  1  0
 26 45  1  0
 27 46  1  0
 27 47  1  0
 28 48  1  0
 28 49  1  0
 30 50  1  0
 30 51  1  0
 31 52  1  0
 31 53  1  0
 31 54  1  0
M  CHG  4   6  -1   9  -1  11  -1  16   1
M  END
>  <UniqueID>  (38) 
36

>  <SMILES>  (38) 
C=c1c(=Cc2[n-]c(=O)[n-]c2[O-])cc(C(=O)[NH+]2CCC(c3ccc(F)cc3)CC2)n1CC

>  <Energy>  (38) 
146.20441077856407

>  <Genealogy>  (38) 
C=c1c(=Cc2[n-]c(=O)[n-]c2[O-])cc(C(=O)[NH+]2CCC(c3ccc(F)cc3)CC2)n1CC (protonated)
C=c1c(=Cc2[n-]c(=O)[n-]c2[O-])cc(C(=O)[NH+]2CCC(c3ccc(F)cc3)CC2)n1CC (3D coordinates assigned)
C=c1c(=Cc2[n-]c(=O)[n-]c2[O-])cc(C(=O)[NH+]2CCC(c3ccc(F)cc3)CC2)n1CC (nonaromatic ring conformer: 146.20441077856407 kcal/mol)

>  <smiles>  (38) 
C=c1c(=Cc2[nH]c(=O)[nH]c2O)cc(C(=O)N2CCC(c3ccc(F)cc3)CC2)n1CC

>  <score_type>  (38) 
oracle

>  <origin>  (38) 
adg

>  <m_score__min__energy>  (38) 
-17.32

>  <m_primary>  (38) 
energy

$$$$
38:0
     RDKit          3D

 43 45  0  0  0  0  0  0  0  0999 V2000
   56.7360   29.5880   52.0280 O   0  0  0  0  0  0  0  0  0  0  0  0
   56.9440   30.8310   52.0330 C   0  0  0  0  0  0  0  0  0  0  0  0
   56.0590   31.6700   52.7040 O   0  0  0  0  0  0  0  0  0  0  0  0
   58.1520   31.3840   51.3400 C   0  0  0  0  0  0  0  0  0  0  0  0
   58.1850   30.9840   49.9380 N   0  0  0  0  0  0  0  0  0  0  0  0
   59.3290   30.4090   49.2960 C   0  0  0  0  0  0  0  0  0  0  0  0
   59.5030   29.1600   49.3280 O   0  0  0  0  0  0  0  0  0  0  0  0
   60.2750   31.2610   48.5360 C   0  0  0  0  0  0  0  0  0  0  0  0
   61.6330   31.2240   48.9020 C   0  0  0  0  0  0  0  0  0  0  0  0
   62.5810   31.9750   48.2060 C   0  0  0  0  0  0  0  0  0  0  0  0
   62.1890   32.7820   47.1410 C   0  0  0  0  0  0  0  0  0  0  0  0
   60.8460   32.8500   46.7730 C   0  0  0  0  0  0  0  0  0  0  0  0
   59.8710   32.1060   47.4650 C   0  0  0  0  0  0  0  0  0  0  0  0
   58.4250   32.2660   47.0520 C   0  0  0  0  0  0  0  0  0  0  0  0
   58.2540   31.9310   45.6430 N   0  0  0  0  0  0  0  0  0  0  0  0
   57.3990   30.8950   45.1530 C   0  0  0  0  0  0  0  0  0  0  0  0
   56.3460   31.1810   44.5210 O   0  0  0  0  0  0  0  0  0  0  0  0
   57.7600   29.4910   45.3830 C   0  0  0  0  0  0  0  0  0  0  0  0
   56.9440   28.3950   45.1350 C   0  0  0  0  0  0  0  0  0  0  0  0
   57.5400   27.1690   45.4790 C   0  0  0  0  0  0  0  0  0  0  0  0
   56.8700   25.8580   45.3150 C   0  0  0  0  0  0  0  0  0  0  0  0
   57.5930   24.7680   44.7980 C   0  0  0  0  0  0  0  0  0  0  0  0
   56.9750   23.5280   44.6210 C   0  0  0  0  0  0  0  0  0  0  0  0
   55.6310   23.3570   44.9650 C   0  0  0  0  0  0  0  0  0  0  0  0
   55.0240   22.1210   44.7850 O   0  0  0  0  0  0  0  0  0  0  0  0
   54.9030   24.4290   45.4940 C   0  0  0  0  0  0  0  0  0  0  0  0
   53.5700   24.2540   45.8470 O   0  0  0  0  0  0  0  0  0  0  0  0
   55.5180   25.6750   45.6750 C   0  0  0  0  0  0  0  0  0  0  0  0
   54.7840   26.7160   46.2380 O   0  0  0  0  0  0  0  0  0  0  0  0
   58.8340   27.3080   45.9820 C   0  0  0  0  0  0  0  0  0  0  0  0
   59.2170   28.9460   46.0200 S   0  0  0  0  0  0  0  0  0  0  0  0
   58.1284   32.4821   51.3993 H   0  0  0  0  0  0  0  0  0  0  0  0
   59.0502   30.9879   51.8364 H   0  0  0  0  0  0  0  0  0  0  0  0
   61.9512   30.5956   49.7469 H   0  0  0  0  0  0  0  0  0  0  0  0
   63.6402   31.9295   48.4992 H   0  0  0  0  0  0  0  0  0  0  0  0
   62.9400   33.3666   46.5894 H   0  0  0  0  0  0  0  0  0  0  0  0
   60.5445   33.4922   45.9324 H   0  0  0  0  0  0  0  0  0  0  0  0
   57.7989   31.5975   47.6612 H   0  0  0  0  0  0  0  0  0  0  0  0
   58.1256   33.3131   47.2066 H   0  0  0  0  0  0  0  0  0  0  0  0
   55.9321   28.4778   44.7116 H   0  0  0  0  0  0  0  0  0  0  0  0
   58.6528   24.8930   44.5311 H   0  0  0  0  0  0  0  0  0  0  0  0
   57.5476   22.6836   44.2097 H   0  0  0  0  0  0  0  0  0  0  0  0
   59.4923   26.4860   46.2999 H   0  0  0  0  0  0  0  0  0  0  0  0
  1  2  2  0
  2  3  1  0
  2  4  1  0
  4  5  1  0
  5  6  1  0
  6  7  2  0
  6  8  1  0
  8  9  2  0
  9 10  1  0
 10 11  2  0
 11 12  1  0
 12 13  2  0
 13 14  1  0
 14 15  1  0
 15 16  1  0
 16 17  2  0
 16 18  1  0
 18 19  2  0
 19 20  1  0
 20 21  1  0
 21 22  2  0
 22 23  1  0
 23 24  2  0
 24 25  1  0
 24 26  1  0
 26 27  1  0
 26 28  2  0
 28 29  1  0
 20 30  2  0
 30 31  1  0
 13  8  1  0
 31 18  1  0
 28 21  1  0
  4 32  1  0
  4 33  1  0
  9 34  1  0
 10 35  1  0
 11 36  1  0
 12 37  1  0
 14 38  1  0
 14 39  1  0
 19 40  1  0
 22 41  1  0
 23 42  1  0
 30 43  1  0
M  CHG  6   3  -1   5  -1  15  -1  25  -1  27  -1  29  -1
M  END
>  <UniqueID>  (39) 
37

>  <SMILES>  (39) 
O=C([O-])C[N-]C(=O)c1ccccc1C[N-]C(=O)c1cc(-c2ccc([O-])c([O-])c2[O-])cs1

>  <Energy>  (39) 
77.13881334625326

>  <Genealogy>  (39) 
O=C([O-])C[N-]C(=O)c1ccccc1C[N-]C(=O)c1cc(-c2ccc([O-])c([O-])c2[O-])cs1 (protonated)
O=C([O-])C[N-]C(=O)c1ccccc1C[N-]C(=O)c1cc(-c2ccc([O-])c([O-])c2[O-])cs1 (3D coordinates assigned)
O=C([O-])C[N-]C(=O)c1ccccc1C[N-]C(=O)c1cc(-c2ccc([O-])c([O-])c2[O-])cs1 (optimized conformer: 77.13881334625326 kcal/mol)

>  <smiles>  (39) 
O=C(O)CNC(=O)c1ccccc1CNC(=O)c1cc(-c2ccc(O)c(O)c2O)cs1

>  <score_type>  (39) 
oracle

>  <origin>  (39) 
adg

>  <m_score__min__energy>  (39) 
-20.52

>  <m_primary>  (39) 
energy

$$$$
39:0
     RDKit          3D

 52 54  0  0  0  0  0  0  0  0999 V2000
   56.3340   29.5830   42.4030 O   0  0  0  0  0  0  0  0  0  0  0  0
   56.6620   29.5410   43.6190 C   0  0  0  0  0  0  0  0  0  0  0  0
   57.3830   28.3270   44.1500 C   0  0  0  0  0  0  0  0  0  0  0  0
   56.9780   28.0070   45.5910 C   0  0  0  0  0  0  0  0  0  0  0  0
   56.0940   26.8430   45.6220 N   0  0  0  0  0  0  0  0  0  0  0  0
   56.9230   25.4910   46.3280 S   0  0  0  0  0  0  0  0  0  0  0  0
   58.3640   25.8460   46.5690 O   0  0  0  0  0  0  0  0  0  0  0  0
   56.2880   25.1600   47.6490 O   0  0  0  0  0  0  0  0  0  0  0  0
   56.8120   24.0860   45.2700 C   0  0  0  0  0  0  0  0  0  0  0  0
   56.4650   24.2370   43.9190 C   0  0  0  0  0  0  0  0  0  0  0  0
   56.3630   23.1140   43.0920 C   0  0  0  0  0  0  0  0  0  0  0  0
   56.6000   21.8350   43.6060 C   0  0  0  0  0  0  0  0  0  0  0  0
   56.4940   20.7260   42.7710 O   0  0  0  0  0  0  0  0  0  0  0  0
   56.9400   21.6830   44.9580 C   0  0  0  0  0  0  0  0  0  0  0  0
   57.0440   22.8040   45.7860 C   0  0  0  0  0  0  0  0  0  0  0  0
   56.2950   30.6350   44.4680 N   0  0  0  0  0  0  0  0  0  0  0  0
   57.1910   31.5690   45.0860 C   0  0  0  0  0  0  0  0  0  0  0  0
   56.9610   32.9550   45.0340 C   0  0  0  0  0  0  0  0  0  0  0  0
   57.8350   33.8380   45.6750 C   0  0  0  0  0  0  0  0  0  0  0  0
   58.9370   33.3490   46.3850 C   0  0  0  0  0  0  0  0  0  0  0  0
   60.0160   34.4680   47.2120 S   0  0  0  0  0  0  0  0  0  0  0  0
   60.3180   35.6400   46.3200 O   0  0  0  0  0  0  0  0  0  0  0  0
   59.3310   34.9740   48.4510 O   0  0  0  0  0  0  0  0  0  0  0  0
   61.4930   33.6480   47.6530 N   0  0  0  0  0  0  0  0  0  0  0  0
   62.4800   33.7670   46.5640 C   0  0  0  0  0  0  0  0  0  0  0  0
   63.8790   33.3220   47.0370 C   0  0  0  0  0  0  0  0  0  0  0  0
   63.8000   32.6290   48.2670 O   0  0  0  0  0  0  0  0  0  0  0  0
   63.3440   33.5050   49.2830 C   0  0  0  0  0  0  0  0  0  0  0  0
   62.0330   34.2210   48.8940 C   0  0  0  0  0  0  0  0  0  0  0  0
   59.1480   31.9650   46.4690 C   0  0  0  0  0  0  0  0  0  0  0  0
   58.2750   31.0810   45.8270 C   0  0  0  0  0  0  0  0  0  0  0  0
   57.1420   27.4633   43.5128 H   0  0  0  0  0  0  0  0  0  0  0  0
   58.4622   28.5396   44.1386 H   0  0  0  0  0  0  0  0  0  0  0  0
   57.8803   27.7935   46.1828 H   0  0  0  0  0  0  0  0  0  0  0  0
   56.4463   28.8720   46.0142 H   0  0  0  0  0  0  0  0  0  0  0  0
   56.2730   25.2399   43.5099 H   0  0  0  0  0  0  0  0  0  0  0  0
   56.0951   23.2371   42.0322 H   0  0  0  0  0  0  0  0  0  0  0  0
   56.9980   19.8690   42.9630 H   0  0  0  0  0  0  0  0  0  0  0  0
   57.1253   20.6791   45.3677 H   0  0  0  0  0  0  0  0  0  0  0  0
   57.3089   22.6796   46.8464 H   0  0  0  0  0  0  0  0  0  0  0  0
   56.0904   33.3460   44.4871 H   0  0  0  0  0  0  0  0  0  0  0  0
   57.6555   34.9219   45.6209 H   0  0  0  0  0  0  0  0  0  0  0  0
   62.1658   33.1322   45.7224 H   0  0  0  0  0  0  0  0  0  0  0  0
   62.5334   34.8205   46.2522 H   0  0  0  0  0  0  0  0  0  0  0  0
   64.3216   32.6597   46.2785 H   0  0  0  0  0  0  0  0  0  0  0  0
   64.5031   34.2168   47.1777 H   0  0  0  0  0  0  0  0  0  0  0  0
   63.1706   32.9231   50.2002 H   0  0  0  0  0  0  0  0  0  0  0  0
   64.1153   34.2744   49.4352 H   0  0  0  0  0  0  0  0  0  0  0  0
   61.2972   34.0969   49.7022 H   0  0  0  0  0  0  0  0  0  0  0  0
   62.2398   35.2898   48.7366 H   0  0  0  0  0  0  0  0  0  0  0  0
   60.0022   31.5739   47.0412 H   0  0  0  0  0  0  0  0  0  0  0  0
   58.4405   29.9963   45.9043 H   0  0  0  0  0  0  0  0  0  0  0  0
  1  2  2  0
  2  3  1  0
  3  4  1  0
  4  5  1  0
  5  6  1  0
  6  7  2  0
  6  8  2  0
  6  9  1  0
  9 10  2  0
 10 11  1  0
 11 12  2  0
 12 13  1  0
 12 14  1  0
 14 15  2  0
  2 16  1  0
 16 17  1  0
 17 18  2  0
 18 19  1  0
 19 20  2  0
 20 21  1  0
 21 22  2  0
 21 23  2  0
 21 24  1  0
 24 25  1  0
 25 26  1  0
 26 27  1  0
 27 28  1  0
 28 29  1  0
 20 30  1  0
 30 31  2  0
 15  9  1  0
 31 17  1  0
 29 24  1  0
  3 32  1  0
  3 33  1  0
  4 34  1  0
  4 35  1  0
 10 36  1  0
 11 37  1  0
 13 38  1  0
 14 39  1  0
 15 40  1  0
 18 41  1  0
 19 42  1  0
 25 43  1  0
 25 44  1  0
 26 45  1  0
 26 46  1  0
 28 47  1  0
 28 48  1  0
 29 49  1  0
 29 50  1  0
 30 51  1  0
 31 52  1  0
M  CHG  2   5  -1  16  -1
M  END
>  <UniqueID>  (40) 
38

>  <SMILES>  (40) 
O=C(CC[N-]S(=O)(=O)c1ccc(O)cc1)[N-]c1ccc(S(=O)(=O)N2CCOCC2)cc1

>  <Energy>  (40) 
61.18279985132339

>  <Genealogy>  (40) 
O=C(CC[N-]S(=O)(=O)c1ccc(O)cc1)[N-]c1ccc(S(=O)(=O)N2CCOCC2)cc1 (protonated)
O=C(CC[N-]S(=O)(=O)c1ccc(O)cc1)[N-]c1ccc(S(=O)(=O)N2CCOCC2)cc1 (3D coordinates assigned)
O=C(CC[N-]S(=O)(=O)c1ccc(O)cc1)[N-]c1ccc(S(=O)(=O)N2CCOCC2)cc1 (nonaromatic ring conformer: 61.18279985132339 kcal/mol)

>  <smiles>  (40) 
O=C(CCNS(=O)(=O)c1ccc(O)cc1)Nc1ccc(S(=O)(=O)N2CCOCC2)cc1

>  <score_type>  (40) 
oracle

>  <origin>  (40) 
adg

>  <m_score__min__energy>  (40) 
-13.300000000000001

>  <m_primary>  (40) 
energy

$$$$
40:0
     RDKit          3D

 57 61  0  0  0  0  0  0  0  0999 V2000
   59.5222   35.0147   46.6907 H   0  0  0  0  0  0  0  0  0  0  0  0
   58.8960   34.2370   46.2290 C   0  0  0  0  0  0  0  0  0  0  0  0
   58.5880   33.0710   46.9400 C   0  0  0  0  0  0  0  0  0  0  0  0
   58.9743   32.9342   47.9608 H   0  0  0  0  0  0  0  0  0  0  0  0
   57.7920   32.0800   46.3590 C   0  0  0  0  0  0  0  0  0  0  0  0
   57.5520   31.1670   46.9236 H   0  0  0  0  0  0  0  0  0  0  0  0
   57.2970   32.2490   45.0520 C   0  0  0  0  0  0  0  0  0  0  0  0
   56.4470   31.2810   44.4300 N   0  0  0  0  0  0  0  0  0  0  0  0
   56.3950   29.8980   44.7880 C   0  0  0  0  0  0  0  0  0  0  0  0
   55.2700   29.3280   44.8830 O   0  0  0  0  0  0  0  0  0  0  0  0
   57.6340   29.1430   45.0760 C   0  0  0  0  0  0  0  0  0  0  0  0
   58.6950   29.1450   44.1560 C   0  0  0  0  0  0  0  0  0  0  0  0
   58.6046   29.7158   43.2201 H   0  0  0  0  0  0  0  0  0  0  0  0
   59.8640   28.4280   44.4200 C   0  0  0  0  0  0  0  0  0  0  0  0
   60.6780   28.4154   43.6803 H   0  0  0  0  0  0  0  0  0  0  0  0
   60.0030   27.7280   45.6180 C   0  0  0  0  0  0  0  0  0  0  0  0
   60.9254   27.1632   45.8184 H   0  0  0  0  0  0  0  0  0  0  0  0
   58.9690   27.7410   46.5710 C   0  0  0  0  0  0  0  0  0  0  0  0
   59.1680   27.0930   47.8910 C   0  0  0  0  0  0  0  0  0  0  0  0
   58.8740   25.8770   48.0260 O   0  0  0  0  0  0  0  0  0  0  0  0
   59.6350   27.8240   49.0360 N   0  0  0  0  0  0  0  0  0  0  0  0
   59.9280   29.0930   49.1210 C   0  0  0  0  0  0  0  0  0  0  0  0
   60.9660   29.5690   48.3670 N   0  0  0  0  0  0  0  0  0  0  0  0
   61.3230   30.8900   48.3480 C   0  0  0  0  0  0  0  0  0  0  0  0
   62.1630   31.2390   47.7295 H   0  0  0  0  0  0  0  0  0  0  0  0
   60.5960   31.7790   49.1310 C   0  0  0  0  0  0  0  0  0  0  0  0
   60.7010   33.1480   49.3290 C   0  0  0  0  0  0  0  0  0  0  0  0
   61.7490   34.0700   48.7440 C   0  0  0  0  0  0  0  0  0  0  0  0
   61.3833   35.1001   48.8673 H   0  0  0  0  0  0  0  0  0  0  0  0
   63.0950   34.0350   49.5170 C   0  0  0  0  0  0  0  0  0  0  0  0
   63.5356   35.0426   49.4902 H   0  0  0  0  0  0  0  0  0  0  0  0
   62.8662   33.6998   50.5394 H   0  0  0  0  0  0  0  0  0  0  0  0
   64.1220   33.0420   48.9420 C   0  0  0  0  0  0  0  0  0  0  0  0
   65.1040   33.2718   49.3813 H   0  0  0  0  0  0  0  0  0  0  0  0
   63.7584   32.0358   49.1978 H   0  0  0  0  0  0  0  0  0  0  0  0
   64.2570   33.0760   47.4650 N   0  0  0  0  0  0  0  0  0  0  0  0
   64.0630   32.1170   47.0910 H   0  0  0  0  0  0  0  0  0  0  0  0
   65.2450   33.3090   47.2050 H   0  0  0  0  0  0  0  0  0  0  0  0
   63.3640   34.0250   46.7870 C   0  0  0  0  0  0  0  0  0  0  0  0
   63.6719   35.0515   47.0348 H   0  0  0  0  0  0  0  0  0  0  0  0
   63.4292   33.8602   45.7014 H   0  0  0  0  0  0  0  0  0  0  0  0
   61.9170   33.8130   47.2320 C   0  0  0  0  0  0  0  0  0  0  0  0
   61.2669   34.5054   46.6770 H   0  0  0  0  0  0  0  0  0  0  0  0
   61.6412   32.7683   47.0259 H   0  0  0  0  0  0  0  0  0  0  0  0
   59.7210   33.4500   50.2780 C   0  0  0  0  0  0  0  0  0  0  0  0
   59.5368   34.4528   50.6909 H   0  0  0  0  0  0  0  0  0  0  0  0
   59.0290   32.3360   50.6190 N   0  0  0  0  0  0  0  0  0  0  0  0
   58.2450   32.2740   51.3070 H   0  0  0  0  0  0  0  0  0  0  0  0
   59.5690   31.3300   49.9130 C   0  0  0  0  0  0  0  0  0  0  0  0
   59.1830   29.9950   49.9200 C   0  0  0  0  0  0  0  0  0  0  0  0
   58.3302   29.6512   50.5238 H   0  0  0  0  0  0  0  0  0  0  0  0
   57.7730   28.4210   46.2760 C   0  0  0  0  0  0  0  0  0  0  0  0
   56.9377   28.3879   46.9910 H   0  0  0  0  0  0  0  0  0  0  0  0
   57.6060   33.4260   44.3480 C   0  0  0  0  0  0  0  0  0  0  0  0
   57.2150   33.5728   43.3304 H   0  0  0  0  0  0  0  0  0  0  0  0
   58.4070   34.4110   44.9330 C   0  0  0  0  0  0  0  0  0  0  0  0
   58.6524   35.3245   44.3714 H   0  0  0  0  0  0  0  0  0  0  0  0
  1  2  1  0
  2  3  2  0
  3  4  1  0
  3  5  1  0
  5  6  1  0
  5  7  2  0
  7  8  1  0
  8  9  1  0
  9 10  2  0
  9 11  1  0
 11 12  2  0
 12 13  1  0
 12 14  1  0
 14 15  1  0
 14 16  2  0
 16 17  1  0
 16 18  1  0
 18 19  1  0
 19 20  2  0
 19 21  1  0
 21 22  2  0
 22 23  1  0
 23 24  1  0
 24 25  1  0
 24 26  2  0
 26 27  1  0
 27 28  1  0
 28 29  1  0
 28 30  1  0
 30 31  1  0
 30 32  1  0
 30 33  1  0
 33 34  1  0
 33 35  1  0
 33 36  1  0
 36 37  1  0
 36 38  1  0
 36 39  1  0
 39 40  1  0
 39 41  1  0
 39 42  1  0
 42 43  1  0
 42 44  1  0
 27 45  2  0
 45 46  1  0
 45 47  1  0
 47 48  1  0
 47 49  1  0
 49 50  2  0
 50 51  1  0
 18 52  2  0
 52 53  1  0
  7 54  1  0
 54 55  1  0
 54 56  2  0
 56 57  1  0
 56  2  1  0
 52 11  1  0
 50 22  1  0
 49 26  1  0
 42 28  1  0
M  CHG  3   8  -1  23  -1  36   1
M  END
>  <UniqueID>  (41) 
39

>  <SMILES>  (41) 
O=C(/N=c1\cc2[nH]cc(C3CC[NH2+]CC3)c2c[n-]1)c1cccc(C(=O)[N-]c2ccccc2)c1

>  <Energy>  (41) 
121.99238844465849

>  <Genealogy>  (41) 
O=C(N=c1cc2[nH]cc(C3CC[NH2+]CC3)c2c[n-]1)c1cccc(C(=O)[N-]c2ccccc2)c1 (protonated)
O=C(/N=c1\cc2[nH]cc(C3CC[NH2+]CC3)c2c[n-]1)c1cccc(C(=O)[N-]c2ccccc2)c1 (cis-trans isomerization)
O=C(/N=c1\cc2[nH]cc(C3CC[NH2+]CC3)c2c[n-]1)c1cccc(C(=O)[N-]c2ccccc2)c1 (3D coordinates assigned)
O=C(/N=c1\cc2[nH]cc(C3CC[NH2+]CC3)c2c[n-]1)c1cccc(C(=O)[N-]c2ccccc2)c1 (nonaromatic ring conformer: 121.99238844465849 kcal/mol)

>  <smiles>  (41) 
O=C(N=c1cc2[nH]cc(C3CCNCC3)c2c[nH]1)c1cccc(C(=O)Nc2ccccc2)c1

>  <score_type>  (41) 
oracle

>  <origin>  (41) 
adg

>  <m_score__min__energy>  (41) 
-12.52

>  <m_primary>  (41) 
energy

$$$$
41:0
     RDKit          3D

 33 34  0  0  0  0  0  0  0  0999 V2000
   56.1790   32.4939   43.9395 H   0  0  0  0  0  0  0  0  0  0  0  0
   56.7330   31.7250   44.4980 C   0  0  0  0  0  0  0  0  0  0  0  0
   56.2550   30.4530   44.5590 N   0  0  0  0  0  0  0  0  0  0  0  0
   56.9100   29.4710   45.2420 C   0  0  0  0  0  0  0  0  0  0  0  0
   56.4360   28.2630   45.2890 N   0  0  0  0  0  0  0  0  0  0  0  0
   57.3310   26.8950   45.8750 S   0  0  0  0  0  0  0  0  0  0  0  0
   58.7170   26.9260   45.2950 O   0  0  0  0  0  0  0  0  0  0  0  0
   57.3990   26.9530   47.3760 O   0  0  0  0  0  0  0  0  0  0  0  0
   56.5370   25.3940   45.3930 C   0  0  0  0  0  0  0  0  0  0  0  0
   57.2950   24.3250   44.8990 C   0  0  0  0  0  0  0  0  0  0  0  0
   58.3871   24.4222   44.8105 H   0  0  0  0  0  0  0  0  0  0  0  0
   56.6700   23.1380   44.5190 C   0  0  0  0  0  0  0  0  0  0  0  0
   57.2715   22.3017   44.1332 H   0  0  0  0  0  0  0  0  0  0  0  0
   55.2840   23.0060   44.6260 C   0  0  0  0  0  0  0  0  0  0  0  0
   54.8009   22.0635   44.3287 H   0  0  0  0  0  0  0  0  0  0  0  0
   54.5010   24.0690   45.1110 C   0  0  0  0  0  0  0  0  0  0  0  0
   53.0700   23.9520   45.2360 N   0  0  0  0  0  0  0  0  0  0  0  0
   52.4530   24.5350   44.6280 H   0  0  0  0  0  0  0  0  0  0  0  0
   52.2710   22.7830   46.2410 S   0  0  0  0  0  0  0  0  0  0  0  0
   50.9630   23.3360   46.7340 O   0  0  0  0  0  0  0  0  0  0  0  0
   51.9990   21.5500   45.4280 O   0  0  0  0  0  0  0  0  0  0  0  0
   53.3130   22.3350   47.6140 C   0  0  0  0  0  0  0  0  0  0  0  0
   52.7930   22.5586   48.5572 H   0  0  0  0  0  0  0  0  0  0  0  0
   53.5401   21.2597   47.5664 H   0  0  0  0  0  0  0  0  0  0  0  0
   54.2496   22.9100   47.5664 H   0  0  0  0  0  0  0  0  0  0  0  0
   55.1400   25.2660   45.5000 C   0  0  0  0  0  0  0  0  0  0  0  0
   54.3850   26.3290   45.9880 O   0  0  0  0  0  0  0  0  0  0  0  0
   58.1080   29.7670   45.9010 C   0  0  0  0  0  0  0  0  0  0  0  0
   58.6455   28.9825   46.4538 H   0  0  0  0  0  0  0  0  0  0  0  0
   58.6160   31.0680   45.8510 C   0  0  0  0  0  0  0  0  0  0  0  0
   59.5560   31.3132   46.3671 H   0  0  0  0  0  0  0  0  0  0  0  0
   57.9270   32.0560   45.1440 C   0  0  0  0  0  0  0  0  0  0  0  0
   58.6070   33.8390   45.0650 Br  0  0  0  0  0  0  0  0  0  0  0  0
  1  2  1  0
  2  3  1  0
  3  4  1  0
  4  5  2  0
  5  6  1  0
  6  7  2  0
  6  8  2  0
  6  9  1  0
  9 10  2  0
 10 11  1  0
 10 12  1  0
 12 13  1  0
 12 14  2  0
 14 15  1  0
 14 16  1  0
 16 17  1  0
 17 18  1  0
 17 19  1  0
 19 20  2  0
 19 21  2  0
 19 22  1  0
 22 23  1  0
 22 24  1  0
 22 25  1  0
 16 26  2  0
 26 27  1  0
  4 28  1  0
 28 29  1  0
 28 30  2  0
 30 31  1  0
 30 32  1  0
 32 33  1  0
 32  2  2  0
 26  9  1  0
M  CHG  2   3  -1  27  -1
M  END
>  <UniqueID>  (42) 
40

>  <SMILES>  (42) 
CS(=O)(=O)Nc1cccc(S(=O)(=O)/N=c2/ccc(Br)c[n-]2)c1[O-]

>  <Energy>  (42) 
38.553675462714764

>  <Genealogy>  (42) 
CS(=O)(=O)Nc1cccc(S(=O)(=O)N=c2ccc(Br)c[n-]2)c1[O-] (protonated)
CS(=O)(=O)Nc1cccc(S(=O)(=O)/N=c2/ccc(Br)c[n-]2)c1[O-] (cis-trans isomerization)
CS(=O)(=O)Nc1cccc(S(=O)(=O)/N=c2/ccc(Br)c[n-]2)c1[O-] (3D coordinates assigned)
CS(=O)(=O)Nc1cccc(S(=O)(=O)/N=c2/ccc(Br)c[n-]2)c1[O-] (optimized conformer: 38.553675462714764 kcal/mol)

>  <smiles>  (42) 
CS(=O)(=O)Nc1cccc(S(=O)(=O)N=c2ccc(Br)c[nH]2)c1O

>  <score_type>  (42) 
oracle

>  <origin>  (42) 
adg

>  <m_score__min__energy>  (42) 
-14.02

>  <m_primary>  (42) 
energy

$$$$
42:0
     RDKit          3D

 55 58  0  0  1  0  0  0  0  0999 V2000
   58.3990   26.8950   42.8760 O   0  0  0  0  0  0  0  0  0  0  0  0
   57.8080   27.1390   43.9910 C   0  0  0  0  0  0  0  0  0  0  0  0
   57.4210   26.0320   44.8500 N   0  0  0  0  0  0  0  0  0  0  0  0
   57.7600   24.7220   44.3310 C   0  0  0  0  0  0  0  0  0  0  0  0
   56.4680   24.1150   43.7410 C   0  0  0  0  0  0  0  0  0  0  0  0
   56.9680   22.7010   43.4250 C   0  0  0  0  0  0  0  0  0  0  0  0
   57.8450   22.3660   44.6060 C   0  0  0  0  0  0  0  0  0  0  0  0
   58.0970   23.6910   45.3470 C   0  0  0  0  0  0  0  0  0  0  0  0
   57.5470   28.5240   44.3330 C   0  0  0  0  0  0  0  0  0  0  0  0
   56.2630   28.9780   44.5860 C   0  0  0  0  0  0  0  0  0  0  0  0
   56.0260   30.2980   44.8430 N   0  0  0  0  0  0  0  0  0  0  0  0
   58.5400   29.4720   44.3610 C   0  0  0  0  0  0  0  0  0  0  0  0
   59.7250   29.1130   44.2100 N   0  0  0  0  0  0  0  0  0  0  0  0
   57.8870   33.2000   45.7110 C   0  0  0  0  0  0  0  0  0  0  0  0
   58.5860   34.1840   44.9880 C   0  0  0  0  0  0  0  0  0  0  0  0
   59.5740   34.9390   45.5770 C   0  0  0  0  0  0  0  0  0  0  0  0
   59.8680   34.7110   46.8990 C   0  0  0  0  0  0  0  0  0  0  0  0
   59.1980   33.7420   47.6540 C   0  0  0  0  0  0  0  0  0  0  0  0
   59.6370   33.5050   49.3540 Cl  0  0  0  0  0  0  0  0  0  0  0  0
   58.2210   33.0050   47.0500 C   0  0  0  0  0  0  0  0  0  0  0  0
   58.2690   30.7640   44.6150 N   0  0  0  0  0  0  0  0  0  0  0  0
   57.0190   31.1980   44.8570 C   0  0  0  0  0  0  0  0  0  0  0  0
   56.8700   32.4540   45.0590 N   0  0  0  0  0  0  0  0  0  0  0  0
   60.5670   28.2790   44.9750 C   0  0  0  0  0  0  0  0  0  0  0  0
   60.1620   28.8160   46.3670 C   0  0  0  0  0  0  0  0  0  0  0  0
   60.6870   30.0290   46.7380 C   0  0  0  0  0  0  0  0  0  0  0  0
   60.2660   30.5090   47.9710 C   0  0  0  0  0  0  0  0  0  0  0  0
   59.3820   29.8230   48.7760 C   0  0  0  0  0  0  0  0  0  0  0  0
   58.9880   30.3290   49.9890 O   0  0  0  0  0  0  0  0  0  0  0  0
   58.8810   28.6070   48.3670 C   0  0  0  0  0  0  0  0  0  0  0  0
   59.2790   28.0990   47.1440 C   0  0  0  0  0  0  0  0  0  0  0  0
   56.9440   26.2080   45.7490 H   0  0  0  0  0  0  0  0  0  0  0  0
   58.6141   24.9071   43.6630 H   0  0  0  0  0  0  0  0  0  0  0  0
   55.6482   24.1051   44.4743 H   0  0  0  0  0  0  0  0  0  0  0  0
   56.0443   24.6617   42.8857 H   0  0  0  0  0  0  0  0  0  0  0  0
   56.1279   21.9953   43.3463 H   0  0  0  0  0  0  0  0  0  0  0  0
   57.5005   22.6393   42.4645 H   0  0  0  0  0  0  0  0  0  0  0  0
   57.3353   21.6504   45.2680 H   0  0  0  0  0  0  0  0  0  0  0  0
   58.7891   21.9024   44.2839 H   0  0  0  0  0  0  0  0  0  0  0  0
   57.4453   23.7792   46.2288 H   0  0  0  0  0  0  0  0  0  0  0  0
   59.1252   23.7821   45.7273 H   0  0  0  0  0  0  0  0  0  0  0  0
   55.4241   28.2665   44.5798 H   0  0  0  0  0  0  0  0  0  0  0  0
   55.0780   30.6150   45.0370 H   0  0  0  0  0  0  0  0  0  0  0  0
   58.3374   34.3532   43.9299 H   0  0  0  0  0  0  0  0  0  0  0  0
   60.1149   35.7061   45.0034 H   0  0  0  0  0  0  0  0  0  0  0  0
   60.6557   35.3095   47.3799 H   0  0  0  0  0  0  0  0  0  0  0  0
   57.6857   32.2407   47.6324 H   0  0  0  0  0  0  0  0  0  0  0  0
   59.0700   31.4640   44.6200 H   0  0  0  0  0  0  0  0  0  0  0  0
   60.3271   27.2127   44.8504 H   0  0  0  0  0  0  0  0  0  0  0  0
   61.6392   28.3096   44.7312 H   0  0  0  0  0  0  0  0  0  0  0  0
   61.3930   30.5829   46.1018 H   0  0  0  0  0  0  0  0  0  0  0  0
   60.6542   31.4772   48.3200 H   0  0  0  0  0  0  0  0  0  0  0  0
   59.7510   30.5330   50.6550 H   0  0  0  0  0  0  0  0  0  0  0  0
   58.1766   28.0497   49.0021 H   0  0  0  0  0  0  0  0  0  0  0  0
   58.8935   27.1299   46.7943 H   0  0  0  0  0  0  0  0  0  0  0  0
  1  2  2  0
  2  3  1  0
  3  4  1  0
  4  5  1  0
  5  6  1  0
  6  7  1  0
  7  8  1  0
  2  9  1  0
  9 10  2  0
 10 11  1  0
 11 12  1  0
 12 13  2  0
 13 14  1  0
 14 15  2  0
 15 16  1  0
 16 17  2  0
 17 18  1  0
 18 19  1  0
 18 20  2  0
 12 21  1  0
 21 22  1  0
 22 23  2  0
 23 24  1  0
 24 25  1  0
 25 26  2  0
 26 27  1  0
 27 28  2  0
 28 29  1  0
 28 30  1  0
 30 31  2  0
  8  4  1  0
 22  9  1  0
 31 25  1  0
 20 14  1  0
  3 32  1  0
  4 33  1  0
  5 34  1  0
  5 35  1  0
  6 36  1  0
  6 37  1  0
  7 38  1  0
  7 39  1  0
  8 40  1  0
  8 41  1  0
 10 42  1  0
 11 43  1  0
 15 44  1  0
 16 45  1  0
 17 46  1  0
 20 47  1  0
 21 48  1  0
 24 49  1  0
 24 50  1  0
 26 51  1  0
 27 52  1  0
 29 53  1  0
 30 54  1  0
 31 55  1  0
M  END
>  <smiles>  (43) 
O=C(NC1CCCC1)c1c[nH]c(=Nc2cccc(Cl)c2)[nH]c1=NCc1ccc(O)cc1

>  <score_type>  (43) 
oracle

>  <origin>  (43) 
adg

>  <m_score__min__energy>  (43) 
-8.7100000000000009

>  <m_primary>  (43) 
energy

$$$$
43:0
     RDKit          3D

 40 42  0  0  0  0  0  0  0  0999 V2000
   53.7340   23.2070   44.6370 N   0  0  0  0  0  0  0  0  0  0  0  0
   55.0030   23.3000   44.3850 C   0  0  0  0  0  0  0  0  0  0  0  0
   55.5450   22.4250   43.4980 N   0  0  0  0  0  0  0  0  0  0  0  0
   56.8700   22.4050   43.2120 C   0  0  0  0  0  0  0  0  0  0  0  0
   57.7310   23.3030   43.8340 C   0  0  0  0  0  0  0  0  0  0  0  0
   57.2240   24.2400   44.7420 C   0  0  0  0  0  0  0  0  0  0  0  0
   58.1610   25.2120   45.3520 C   0  0  0  0  0  0  0  0  0  0  0  0
   59.4350   24.8050   45.7740 C   0  0  0  0  0  0  0  0  0  0  0  0
   60.3230   25.7340   46.3210 C   0  0  0  0  0  0  0  0  0  0  0  0
   59.9480   27.0740   46.4450 C   0  0  0  0  0  0  0  0  0  0  0  0
   58.6790   27.4960   46.0320 C   0  0  0  0  0  0  0  0  0  0  0  0
   58.3470   28.8880   46.1430 N   0  0  0  0  0  0  0  0  0  0  0  0
   57.4290   29.7850   44.9770 S   0  0  0  0  0  0  0  0  0  0  0  0
   55.9640   29.5860   45.2450 O   0  0  0  0  0  0  0  0  0  0  0  0
   57.7530   29.2570   43.6060 O   0  0  0  0  0  0  0  0  0  0  0  0
   57.8060   31.5060   45.1130 C   0  0  0  0  0  0  0  0  0  0  0  0
   57.8250   32.0970   46.3850 C   0  0  0  0  0  0  0  0  0  0  0  0
   58.1710   33.4420   46.5360 C   0  0  0  0  0  0  0  0  0  0  0  0
   58.4930   34.2110   45.4140 C   0  0  0  0  0  0  0  0  0  0  0  0
   58.4620   33.6370   44.1420 C   0  0  0  0  0  0  0  0  0  0  0  0
   58.1190   32.2860   43.9810 C   0  0  0  0  0  0  0  0  0  0  0  0
   58.0950   31.7260   42.7040 O   0  0  0  0  0  0  0  0  0  0  0  0
   57.7790   26.5540   45.5040 C   0  0  0  0  0  0  0  0  0  0  0  0
   55.8370   24.2480   45.0350 C   0  0  0  0  0  0  0  0  0  0  0  0
   55.2930   25.2040   46.0260 C   0  0  0  0  0  0  0  0  0  0  0  0
   54.1150   25.9530   45.7340 N   0  0  0  0  0  0  0  0  0  0  0  0
   55.8920   25.3880   47.1190 O   0  0  0  0  0  0  0  0  0  0  0  0
   53.1650   23.9480   45.1000 H   0  0  0  0  0  0  0  0  0  0  0  0
   57.2646   21.6777   42.4872 H   0  0  0  0  0  0  0  0  0  0  0  0
   58.8082   23.2769   43.6128 H   0  0  0  0  0  0  0  0  0  0  0  0
   59.7356   23.7516   45.6740 H   0  0  0  0  0  0  0  0  0  0  0  0
   61.3197   25.4098   46.6549 H   0  0  0  0  0  0  0  0  0  0  0  0
   60.6546   27.8021   46.8699 H   0  0  0  0  0  0  0  0  0  0  0  0
   57.5656   31.4972   47.2698 H   0  0  0  0  0  0  0  0  0  0  0  0
   58.1901   33.8959   47.5378 H   0  0  0  0  0  0  0  0  0  0  0  0
   58.7709   35.2686   45.5335 H   0  0  0  0  0  0  0  0  0  0  0  0
   58.7079   34.2474   43.2606 H   0  0  0  0  0  0  0  0  0  0  0  0
   58.1680   30.7260   42.5600 H   0  0  0  0  0  0  0  0  0  0  0  0
   56.7681   26.8709   45.2078 H   0  0  0  0  0  0  0  0  0  0  0  0
   53.7810   26.7000   46.3820 H   0  0  0  0  0  0  0  0  0  0  0  0
  1  2  2  3
  2  3  1  0
  3  4  1  0
  4  5  2  0
  5  6  1  0
  6  7  1  0
  7  8  2  0
  8  9  1  0
  9 10  2  0
 10 11  1  0
 11 12  1  0
 12 13  1  0
 13 14  2  0
 13 15  2  0
 13 16  1  0
 16 17  2  0
 17 18  1  0
 18 19  2  0
 19 20  1  0
 20 21  2  0
 21 22  1  0
 11 23  2  0
  6 24  2  0
 24 25  1  0
 25 26  1  0
 25 27  2  0
 24  2  1  0
 23  7  1  0
 21 16  1  0
  1 28  1  0
  4 29  1  0
  5 30  1  0
  8 31  1  0
  9 32  1  0
 10 33  1  0
 17 34  1  0
 18 35  1  0
 19 36  1  0
 20 37  1  0
 22 38  1  0
 23 39  1  0
 26 40  1  0
M  CHG  3   3  -1  12  -1  26  -1
M  END
>  <UniqueID>  (44) 
41

>  <SMILES>  (44) 
N=c1[n-]ccc(-c2cccc([N-]S(=O)(=O)c3ccccc3O)c2)c1C([NH-])=O

>  <Energy>  (44) 
62.288223875366214

>  <Genealogy>  (44) 
N=c1[n-]ccc(-c2cccc([N-]S(=O)(=O)c3ccccc3O)c2)c1C([NH-])=O (protonated)
N=c1[n-]ccc(-c2cccc([N-]S(=O)(=O)c3ccccc3O)c2)c1C([NH-])=O (3D coordinates assigned)
N=c1[n-]ccc(-c2cccc([N-]S(=O)(=O)c3ccccc3O)c2)c1C([NH-])=O (optimized conformer: 62.288223875366214 kcal/mol)

>  <smiles>  (44) 
N=c1[nH]ccc(-c2cccc(NS(=O)(=O)c3ccccc3O)c2)c1C(N)=O

>  <score_type>  (44) 
oracle

>  <origin>  (44) 
adg

>  <m_score__min__energy>  (44) 
-14.74

>  <m_primary>  (44) 
energy

$$$$
44:0
     RDKit          3D

 44 46  0  0  0  0  0  0  0  0999 V2000
   59.5020   32.4000   52.9970 C   0  0  0  0  0  0  0  0  0  0  0  0
   59.5090   32.7400   51.5360 C   0  0  0  0  0  0  0  0  0  0  0  0
   60.3190   33.7800   51.0560 C   0  0  0  0  0  0  0  0  0  0  0  0
   60.2980   34.1220   49.7010 C   0  0  0  0  0  0  0  0  0  0  0  0
   59.4560   33.4380   48.8120 C   0  0  0  0  0  0  0  0  0  0  0  0
   59.4250   33.8510   47.0950 S   0  0  1  0  0  0  0  0  0  0  0  0
   58.9400   35.2660   46.9410 O   0  0  0  0  0  0  0  0  0  0  0  0
   60.8760   33.7520   46.4300 C   0  0  0  0  0  0  0  0  0  0  0  0
   62.0390   33.1910   47.1410 C   0  0  0  0  0  0  0  0  0  0  0  0
   63.2120   33.8500   47.4710 C   0  0  0  0  0  0  0  0  0  0  0  0
   64.0000   32.9300   48.1320 C   0  0  0  0  0  0  0  0  0  0  0  0
   63.2800   31.7520   48.1770 C   0  0  0  0  0  0  0  0  0  0  0  0
   62.0900   31.9170   47.5730 N   0  0  0  0  0  0  0  0  0  0  0  0
   58.3050   32.7740   46.2660 C   0  0  0  0  0  0  0  0  0  0  0  0
   57.1950   33.2270   45.8830 O   0  0  0  0  0  0  0  0  0  0  0  0
   58.6420   31.3570   46.0330 C   0  0  0  0  0  0  0  0  0  0  0  0
   59.8520   31.0090   45.9570 O   0  0  0  0  0  0  0  0  0  0  0  0
   57.6000   30.3820   45.8560 N   0  0  0  0  0  0  0  0  0  0  0  0
   57.8230   28.9620   45.8990 C   0  0  0  0  0  0  0  0  0  0  0  0
   59.0680   28.4340   46.2920 C   0  0  0  0  0  0  0  0  0  0  0  0
   59.2630   27.0520   46.3540 C   0  0  0  0  0  0  0  0  0  0  0  0
   58.2180   26.1820   46.0370 C   0  0  0  0  0  0  0  0  0  0  0  0
   56.9720   26.6940   45.6640 C   0  0  0  0  0  0  0  0  0  0  0  0
   56.7690   28.0770   45.5990 C   0  0  0  0  0  0  0  0  0  0  0  0
   55.5240   28.5670   45.2250 O   0  0  0  0  0  0  0  0  0  0  0  0
   58.6380   32.4060   49.2930 C   0  0  0  0  0  0  0  0  0  0  0  0
   58.6580   32.0650   50.6480 C   0  0  0  0  0  0  0  0  0  0  0  0
   59.5211   33.3268   53.5892 H   0  0  0  0  0  0  0  0  0  0  0  0
   58.5919   31.8304   53.2366 H   0  0  0  0  0  0  0  0  0  0  0  0
   60.3878   31.7935   53.2366 H   0  0  0  0  0  0  0  0  0  0  0  0
   60.9736   34.3287   51.7491 H   0  0  0  0  0  0  0  0  0  0  0  0
   60.9446   34.9310   49.3302 H   0  0  0  0  0  0  0  0  0  0  0  0
   61.0116   34.1170   45.4012 H   0  0  0  0  0  0  0  0  0  0  0  0
   63.4648   34.8975   47.2502 H   0  0  0  0  0  0  0  0  0  0  0  0
   65.0058   33.1014   48.5431 H   0  0  0  0  0  0  0  0  0  0  0  0
   63.6288   30.8166   48.6389 H   0  0  0  0  0  0  0  0  0  0  0  0
   61.3470   31.1900   47.4650 H   0  0  0  0  0  0  0  0  0  0  0  0
   56.6420   30.7230   45.6170 H   0  0  0  0  0  0  0  0  0  0  0  0
   59.8924   29.1143   46.5519 H   0  0  0  0  0  0  0  0  0  0  0  0
   60.2416   26.6485   46.6531 H   0  0  0  0  0  0  0  0  0  0  0  0
   58.3752   25.0942   46.0808 H   0  0  0  0  0  0  0  0  0  0  0  0
   56.1479   26.0072   45.4207 H   0  0  0  0  0  0  0  0  0  0  0  0
   57.9778   31.8626   48.6010 H   0  0  0  0  0  0  0  0  0  0  0  0
   58.0032   31.2633   51.0203 H   0  0  0  0  0  0  0  0  0  0  0  0
  1  2  1  0
  2  3  2  0
  3  4  1  0
  4  5  2  0
  5  6  1  0
  6  7  2  0
  6  8  2  0
  8  9  1  0
  9 10  2  0
 10 11  1  0
 11 12  2  0
 12 13  1  0
  6 14  1  6
 14 15  2  0
 14 16  1  0
 16 17  2  0
 16 18  1  0
 18 19  1  0
 19 20  2  0
 20 21  1  0
 21 22  2  0
 22 23  1  0
 23 24  2  0
 24 25  1  0
  5 26  1  0
 26 27  2  0
 27  2  1  0
 13  9  1  0
 24 19  1  0
  1 28  1  0
  1 29  1  0
  1 30  1  0
  3 31  1  0
  4 32  1  0
  8 33  1  0
 10 34  1  0
 11 35  1  0
 12 36  1  0
 13 37  1  0
 18 38  1  0
 20 39  1  0
 21 40  1  0
 22 41  1  0
 23 42  1  0
 26 43  1  0
 27 44  1  0
M  CHG  1  25  -1
M  END
>  <UniqueID>  (45) 
42

>  <SMILES>  (45) 
Cc1ccc([S@@](=O)(=Cc2ccc[nH]2)C(=O)C(=O)Nc2ccccc2[O-])cc1

>  <Energy>  (45) 
72.44975903455959

>  <Genealogy>  (45) 
Cc1ccc(S(=O)(=Cc2ccc[nH]2)C(=O)C(=O)Nc2ccccc2[O-])cc1 (protonated)
Cc1ccc([S@@](=O)(=Cc2ccc[nH]2)C(=O)C(=O)Nc2ccccc2[O-])cc1 (chirality)
Cc1ccc([S@@](=O)(=Cc2ccc[nH]2)C(=O)C(=O)Nc2ccccc2[O-])cc1 (3D coordinates assigned)
Cc1ccc([S@@](=O)(=Cc2ccc[nH]2)C(=O)C(=O)Nc2ccccc2[O-])cc1 (optimized conformer: 72.44975903455959 kcal/mol)

>  <smiles>  (45) 
Cc1ccc(S(=O)(=Cc2ccc[nH]2)C(=O)C(=O)Nc2ccccc2O)cc1

>  <score_type>  (45) 
oracle

>  <origin>  (45) 
adg

>  <m_score__min__energy>  (45) 
-11.66

>  <m_primary>  (45) 
energy

$$$$
45:0
     RDKit          3D

 76 79  0  0  0  0  0  0  0  0999 V2000
   62.3220   33.3320   51.4020 H   0  0  0  0  0  0  0  0  0  0  0  0
   61.3740   32.9930   51.5020 O   0  0  0  0  0  0  0  0  0  0  0  0
   60.8680   31.8990   50.7930 C   0  0  0  0  0  0  0  0  0  0  0  0
   61.7250   30.9230   50.2310 C   0  0  0  0  0  0  0  0  0  0  0  0
   63.2290   31.0170   50.3610 C   0  0  0  0  0  0  0  0  0  0  0  0
   63.6957   30.2856   49.6848 H   0  0  0  0  0  0  0  0  0  0  0  0
   63.5062   30.8058   51.4043 H   0  0  0  0  0  0  0  0  0  0  0  0
   63.7040   32.3740   50.0100 N   0  0  0  0  0  0  0  0  0  0  0  0
   64.1750   32.4420   48.6050 C   0  0  0  0  0  0  0  0  0  0  0  0
   65.1407   31.9209   48.5279 H   0  0  0  0  0  0  0  0  0  0  0  0
   64.2737   33.5023   48.3293 H   0  0  0  0  0  0  0  0  0  0  0  0
   63.1830   31.7910   47.6390 C   0  0  0  0  0  0  0  0  0  0  0  0
   62.3979   31.2757   48.2118 H   0  0  0  0  0  0  0  0  0  0  0  0
   62.7262   32.5655   47.0054 H   0  0  0  0  0  0  0  0  0  0  0  0
   63.7118   31.0637   47.0054 H   0  0  0  0  0  0  0  0  0  0  0  0
   64.6760   32.8940   51.0060 C   0  0  0  0  0  0  0  0  0  0  0  0
   64.3468   33.8964   51.3171 H   0  0  0  0  0  0  0  0  0  0  0  0
   64.6926   32.1715   51.8353 H   0  0  0  0  0  0  0  0  0  0  0  0
   66.1180   33.0010   50.4890 C   0  0  0  0  0  0  0  0  0  0  0  0
   66.8105   33.0524   51.3421 H   0  0  0  0  0  0  0  0  0  0  0  0
   66.3547   32.1179   49.8773 H   0  0  0  0  0  0  0  0  0  0  0  0
   66.2217   33.9093   49.8773 H   0  0  0  0  0  0  0  0  0  0  0  0
   61.1720   29.8500   49.5110 C   0  0  0  0  0  0  0  0  0  0  0  0
   61.8390   29.0966   49.0666 H   0  0  0  0  0  0  0  0  0  0  0  0
   59.7820   29.7230   49.3490 C   0  0  0  0  0  0  0  0  0  0  0  0
   59.2180   28.5930   48.5690 C   0  0  0  0  0  0  0  0  0  0  0  0
   59.6730   27.4260   48.7290 O   0  0  0  0  0  0  0  0  0  0  0  0
   58.1630   28.8360   47.6260 N   0  0  0  0  0  0  0  0  0  0  0  0
   58.2940   29.2010   46.3850 C   0  0  0  0  0  0  0  0  0  0  0  0
   57.3070   29.7400   45.6350 N   0  0  0  0  0  0  0  0  0  0  0  0
   57.7410   30.0330   44.3800 C   0  0  0  0  0  0  0  0  0  0  0  0
   56.8370   30.6340   43.3380 C   0  0  0  0  0  0  0  0  0  0  0  0
   56.6141   29.8661   42.5825 H   0  0  0  0  0  0  0  0  0  0  0  0
   55.9284   30.9811   43.8518 H   0  0  0  0  0  0  0  0  0  0  0  0
   57.4440   31.8220   42.6480 C   0  0  0  0  0  0  0  0  0  0  0  0
   57.3270   31.9770   41.4010 O   0  0  0  0  0  0  0  0  0  0  0  0
   58.1090   32.8170   43.4320 N   0  0  0  0  0  0  0  0  0  0  0  0
   57.4200   33.5050   44.8680 S   0  0  0  0  0  0  0  0  0  0  0  0
   56.7230   34.7860   44.5030 O   0  0  0  0  0  0  0  0  0  0  0  0
   56.4040   32.5660   45.4630 O   0  0  0  0  0  0  0  0  0  0  0  0
   58.6900   33.8120   46.0500 C   0  0  0  0  0  0  0  0  0  0  0  0
   58.3930   33.8730   47.4210 C   0  0  0  0  0  0  0  0  0  0  0  0
   57.3555   33.7448   47.7634 H   0  0  0  0  0  0  0  0  0  0  0  0
   59.4110   34.0960   48.3520 C   0  0  0  0  0  0  0  0  0  0  0  0
   59.1709   34.1486   49.4242 H   0  0  0  0  0  0  0  0  0  0  0  0
   60.7370   34.2530   47.9250 C   0  0  0  0  0  0  0  0  0  0  0  0
   61.8230   34.5050   48.9280 C   0  0  0  0  0  0  0  0  0  0  0  0
   61.4128   34.4098   49.9442 H   0  0  0  0  0  0  0  0  0  0  0  0
   62.6294   33.7701   48.7877 H   0  0  0  0  0  0  0  0  0  0  0  0
   62.2234   35.5199   48.7877 H   0  0  0  0  0  0  0  0  0  0  0  0
   61.0290   34.2120   46.5520 C   0  0  0  0  0  0  0  0  0  0  0  0
   62.0637   34.3563   46.2078 H   0  0  0  0  0  0  0  0  0  0  0  0
   60.0120   33.9890   45.6220 C   0  0  0  0  0  0  0  0  0  0  0  0
   60.2498   33.9521   44.5486 H   0  0  0  0  0  0  0  0  0  0  0  0
   59.0740   29.7060   44.1270 C   0  0  0  0  0  0  0  0  0  0  0  0
   59.6038   29.8493   43.1737 H   0  0  0  0  0  0  0  0  0  0  0  0
   59.7300   29.0550   45.5320 S   0  0  0  0  0  0  0  0  0  0  0  0
   58.9410   30.6880   49.9220 C   0  0  0  0  0  0  0  0  0  0  0  0
   57.8508   30.5906   49.8122 H   0  0  0  0  0  0  0  0  0  0  0  0
   59.4700   31.7770   50.6340 C   0  0  0  0  0  0  0  0  0  0  0  0
   58.5180   32.7970   51.2160 C   0  0  0  0  0  0  0  0  0  0  0  0
   59.0592   33.7393   51.3869 H   0  0  0  0  0  0  0  0  0  0  0  0
   57.6918   32.9535   50.5068 H   0  0  0  0  0  0  0  0  0  0  0  0
   57.9570   32.3190   52.5010 N   0  0  0  0  0  0  0  0  0  0  0  0
   56.5330   31.9680   52.3720 C   0  0  0  0  0  0  0  0  0  0  0  0
   56.0051   32.1885   53.3115 H   0  0  0  0  0  0  0  0  0  0  0  0
   56.0609   32.5520   51.5683 H   0  0  0  0  0  0  0  0  0  0  0  0
   56.4560   30.4860   52.0710 C   0  0  0  0  0  0  0  0  0  0  0  0
   55.5260   30.0536   52.4687 H   0  0  0  0  0  0  0  0  0  0  0  0
   56.4525   30.2717   50.9921 H   0  0  0  0  0  0  0  0  0  0  0  0
   57.6600   29.9100   52.7750 C   0  0  0  0  0  0  0  0  0  0  0  0
   57.3740   29.5012   53.7554 H   0  0  0  0  0  0  0  0  0  0  0  0
   58.1119   29.0847   52.2053 H   0  0  0  0  0  0  0  0  0  0  0  0
   58.6270   31.0810   52.9450 C   0  0  0  0  0  0  0  0  0  0  0  0
   58.9125   31.1742   54.0032 H   0  0  0  0  0  0  0  0  0  0  0  0
   59.5318   30.9091   52.3435 H   0  0  0  0  0  0  0  0  0  0  0  0
  1  2  1  0
  2  3  1  0
  3  4  2  0
  4  5  1  0
  5  6  1  0
  5  7  1  0
  5  8  1  0
  8  9  1  0
  9 10  1  0
  9 11  1  0
  9 12  1  0
 12 13  1  0
 12 14  1  0
 12 15  1  0
  8 16  1  0
 16 17  1  0
 16 18  1  0
 16 19  1  0
 19 20  1  0
 19 21  1  0
 19 22  1  0
  4 23  1  0
 23 24  1  0
 23 25  2  0
 25 26  1  0
 26 27  2  0
 26 28  1  0
 28 29  2  0
 29 30  1  0
 30 31  1  0
 31 32  1  0
 32 33  1  0
 32 34  1  0
 32 35  1  0
 35 36  2  0
 35 37  1  0
 37 38  1  0
 38 39  2  0
 38 40  2  0
 38 41  1  0
 41 42  2  0
 42 43  1  0
 42 44  1  0
 44 45  1  0
 44 46  2  0
 46 47  1  0
 47 48  1  0
 47 49  1  0
 47 50  1  0
 46 51  1  0
 51 52  1  0
 51 53  2  0
 53 54  1  0
 31 55  2  0
 55 56  1  0
 55 57  1  0
 25 58  1  0
 58 59  1  0
 58 60  2  0
 60 61  1  0
 61 62  1  0
 61 63  1  0
 61 64  1  0
 64 65  1  0
 65 66  1  0
 65 67  1  0
 65 68  1  0
 68 69  1  0
 68 70  1  0
 68 71  1  0
 71 72  1  0
 71 73  1  0
 71 74  1  0
 74 75  1  0
 74 76  1  0
 60  3  1  0
 74 64  1  0
 57 29  1  0
 53 41  1  0
M  CHG  2  30  -1  37  -1
M  END
>  <UniqueID>  (46) 
43

>  <SMILES>  (46) 
CCN(CC)Cc1cc(C(=O)/N=c2\[n-]c(CC(=O)[N-]S(=O)(=O)c3ccc(C)cc3)cs2)cc(CN2CCCC2)c1O

>  <Energy>  (46) 
119.34445508015219

>  <Genealogy>  (46) 
CCN(CC)Cc1cc(C(=O)N=c2[n-]c(CC(=O)[N-]S(=O)(=O)c3ccc(C)cc3)cs2)cc(CN2CCCC2)c1O (protonated)
CCN(CC)Cc1cc(C(=O)/N=c2\[n-]c(CC(=O)[N-]S(=O)(=O)c3ccc(C)cc3)cs2)cc(CN2CCCC2)c1O (cis-trans isomerization)
CCN(CC)Cc1cc(C(=O)/N=c2\[n-]c(CC(=O)[N-]S(=O)(=O)c3ccc(C)cc3)cs2)cc(CN2CCCC2)c1O (3D coordinates assigned)
CCN(CC)Cc1cc(C(=O)/N=c2\[n-]c(CC(=O)[N-]S(=O)(=O)c3ccc(C)cc3)cs2)cc(CN2CCCC2)c1O (nonaromatic ring conformer: 119.34445508015219 kcal/mol)

>  <smiles>  (46) 
CCN(CC)Cc1cc(C(=O)N=c2[nH]c(CC(=O)NS(=O)(=O)c3ccc(C)cc3)cs2)cc(CN2CCCC2)c1O

>  <score_type>  (46) 
oracle

>  <origin>  (46) 
adg

>  <m_score__min__energy>  (46) 
-12.94

>  <m_primary>  (46) 
energy

$$$$
46:0
     RDKit          3D

 38 39  0  0  0  0  0  0  0  0999 V2000
   56.9820   21.6480   43.0110 C   0  0  0  0  0  0  0  0  0  0  0  0
   56.6110   22.8370   43.3940 C   0  0  0  0  0  0  0  0  0  0  0  0
   56.2400   24.0310   43.7750 C   0  0  0  0  0  0  0  0  0  0  0  0
   55.2370   24.2130   44.8770 C   0  0  0  0  0  0  0  0  0  0  0  0
   55.6510   25.2580   45.8840 C   0  0  0  0  0  0  0  0  0  0  0  0
   54.9940   26.3290   45.9940 O   0  0  0  0  0  0  0  0  0  0  0  0
   56.8000   25.0750   46.7200 N   0  0  0  0  0  0  0  0  0  0  0  0
   58.1870   25.2910   46.3220 C   0  0  0  0  0  0  0  0  0  0  0  0
   58.5120   26.7650   46.2990 C   0  0  0  0  0  0  0  0  0  0  0  0
   59.0520   27.3790   47.4410 C   0  0  0  0  0  0  0  0  0  0  0  0
   59.3020   26.6550   48.5620 F   0  0  0  0  0  0  0  0  0  0  0  0
   59.3390   28.7440   47.4370 C   0  0  0  0  0  0  0  0  0  0  0  0
   59.0920   29.5120   46.2980 C   0  0  0  0  0  0  0  0  0  0  0  0
   58.5560   28.9190   45.1420 C   0  0  0  0  0  0  0  0  0  0  0  0
   58.2960   29.6920   43.9560 N   0  0  0  0  0  0  0  0  0  0  0  0
   57.1490   30.9930   43.8930 S   0  0  0  0  0  0  0  0  0  0  0  0
   56.6430   31.1550   42.4860 O   0  0  0  0  0  0  0  0  0  0  0  0
   55.9860   30.6540   44.7850 O   0  0  0  0  0  0  0  0  0  0  0  0
   57.9340   32.5130   44.4350 C   0  0  0  0  0  0  0  0  0  0  0  0
   58.1250   32.6330   45.9400 C   0  0  0  0  0  0  0  0  0  0  0  0
   57.0360   33.4380   45.2410 C   0  0  0  0  0  0  0  0  0  0  0  0
   58.2830   27.5390   45.1440 C   0  0  0  0  0  0  0  0  0  0  0  0
   57.7740   26.9580   44.0270 F   0  0  0  0  0  0  0  0  0  0  0  0
   57.2220   20.8789   43.7599 H   0  0  0  0  0  0  0  0  0  0  0  0
   57.0552   21.4134   41.9388 H   0  0  0  0  0  0  0  0  0  0  0  0
   56.6689   24.9153   43.2810 H   0  0  0  0  0  0  0  0  0  0  0  0
   54.2779   24.5159   44.4316 H   0  0  0  0  0  0  0  0  0  0  0  0
   55.1571   23.2546   45.4110 H   0  0  0  0  0  0  0  0  0  0  0  0
   58.8512   24.7859   47.0387 H   0  0  0  0  0  0  0  0  0  0  0  0
   58.3331   24.8808   45.3119 H   0  0  0  0  0  0  0  0  0  0  0  0
   59.7619   29.2173   48.3354 H   0  0  0  0  0  0  0  0  0  0  0  0
   59.3183   30.5884   46.3052 H   0  0  0  0  0  0  0  0  0  0  0  0
   58.7100   29.3890   43.0450 H   0  0  0  0  0  0  0  0  0  0  0  0
   58.5856   32.6284   43.5563 H   0  0  0  0  0  0  0  0  0  0  0  0
   57.8530   31.7944   46.5978 H   0  0  0  0  0  0  0  0  0  0  0  0
   58.9703   32.8763   46.6005 H   0  0  0  0  0  0  0  0  0  0  0  0
   55.9776   33.1808   45.3945 H   0  0  0  0  0  0  0  0  0  0  0  0
   56.7692   34.5038   45.1880 H   0  0  0  0  0  0  0  0  0  0  0  0
  1  2  2  0
  2  3  2  0
  3  4  1  0
  4  5  1  0
  5  6  2  0
  5  7  1  0
  7  8  1  0
  8  9  1  0
  9 10  2  0
 10 11  1  0
 10 12  1  0
 12 13  2  0
 13 14  1  0
 14 15  1  0
 15 16  1  0
 16 17  2  0
 16 18  2  0
 16 19  1  0
 19 20  1  0
 20 21  1  0
 14 22  2  0
 22 23  1  0
 22  9  1  0
 21 19  1  0
  1 24  1  0
  1 25  1  0
  3 26  1  0
  4 27  1  0
  4 28  1  0
  8 29  1  0
  8 30  1  0
 12 31  1  0
 13 32  1  0
 15 33  1  0
 19 34  1  0
 20 35  1  0
 20 36  1  0
 21 37  1  0
 21 38  1  0
M  CHG  1   7  -1
M  END
>  <UniqueID>  (47) 
44

>  <SMILES>  (47) 
C=C=CCC(=O)[N-]Cc1c(F)ccc(NS(=O)(=O)C2CC2)c1F

>  <Energy>  (47) 
296.18886425883227

>  <Genealogy>  (47) 
C=C=CCC(=O)[N-]Cc1c(F)ccc(NS(=O)(=O)C2CC2)c1F (protonated)
C=C=CCC(=O)[N-]Cc1c(F)ccc(NS(=O)(=O)C2CC2)c1F (3D coordinates assigned)
C=C=CCC(=O)[N-]Cc1c(F)ccc(NS(=O)(=O)C2CC2)c1F (nonaromatic ring conformer: 296.18886425883227 kcal/mol)

>  <smiles>  (47) 
C=C=CCC(=O)NCc1c(F)ccc(NS(=O)(=O)C2CC2)c1F

>  <score_type>  (47) 
oracle

>  <origin>  (47) 
adg

>  <m_score__min__energy>  (47) 
-9.4100000000000001

>  <m_primary>  (47) 
energy

$$$$
47:0
     RDKit          3D

 31 32  0  0  0  0  0  0  0  0999 V2000
   56.1760   21.7980   43.1280 O   0  0  0  0  0  0  0  0  0  0  0  0
   56.2460   21.4290   44.3300 C   0  0  0  0  0  0  0  0  0  0  0  0
   55.1960   20.7120   44.8910 O   0  0  0  0  0  0  0  0  0  0  0  0
   57.4310   21.7990   45.1660 C   0  0  0  0  0  0  0  0  0  0  0  0
   57.0320   22.7060   46.3010 C   0  0  0  0  0  0  0  0  0  0  0  0
   57.0210   22.2510   47.4790 O   0  0  0  0  0  0  0  0  0  0  0  0
   56.6280   24.1170   46.0720 C   0  0  0  0  0  0  0  0  0  0  0  0
   57.6080   25.0630   45.7360 C   0  0  0  0  0  0  0  0  0  0  0  0
   57.2640   26.4010   45.4950 C   0  0  0  0  0  0  0  0  0  0  0  0
   58.3360   27.3930   45.1120 C   0  0  0  0  0  0  0  0  0  0  0  0
   58.5140   28.4340   46.1820 C   0  0  0  0  0  0  0  0  0  0  0  0
   58.3180   29.8070   46.1080 C   0  0  0  0  0  0  0  0  0  0  0  0
   57.8690   30.5960   44.9130 C   0  0  0  0  0  0  0  0  0  0  0  0
   58.0170   31.9490   45.1530 F   0  0  0  0  0  0  0  0  0  0  0  0
   58.6250   30.2590   43.8050 F   0  0  0  0  0  0  0  0  0  0  0  0
   56.5420   30.3170   44.6490 F   0  0  0  0  0  0  0  0  0  0  0  0
   58.6900   30.3580   47.2830 N   0  0  0  0  0  0  0  0  0  0  0  0
   59.1080   29.4140   48.1120 N   0  0  0  0  0  0  0  0  0  0  0  0
   59.0100   28.2440   47.4580 C   0  0  0  0  0  0  0  0  0  0  0  0
   59.3440   27.1370   47.9570 O   0  0  0  0  0  0  0  0  0  0  0  0
   55.9170   26.7800   45.6240 C   0  0  0  0  0  0  0  0  0  0  0  0
   55.5190   28.0940   45.4080 O   0  0  0  0  0  0  0  0  0  0  0  0
   54.9820   25.8570   45.9710 N   0  0  0  0  0  0  0  0  0  0  0  0
   55.2940   24.5550   46.1990 C   0  0  0  0  0  0  0  0  0  0  0  0
   54.3800   23.7610   46.5490 O   0  0  0  0  0  0  0  0  0  0  0  0
   57.8796   20.8833   45.5785 H   0  0  0  0  0  0  0  0  0  0  0  0
   58.1542   22.3315   44.5308 H   0  0  0  0  0  0  0  0  0  0  0  0
   58.6602   24.7511   45.6606 H   0  0  0  0  0  0  0  0  0  0  0  0
   59.2865   26.8581   44.9689 H   0  0  0  0  0  0  0  0  0  0  0  0
   58.0324   27.8952   44.1816 H   0  0  0  0  0  0  0  0  0  0  0  0
   58.6750   31.3740   47.5240 H   0  0  0  0  0  0  0  0  0  0  0  0
  1  2  2  0
  2  3  1  0
  2  4  1  0
  4  5  1  0
  5  6  2  0
  5  7  1  0
  7  8  2  0
  8  9  1  0
  9 10  1  0
 10 11  1  0
 11 12  2  0
 12 13  1  0
 13 14  1  0
 13 15  1  0
 13 16  1  0
 12 17  1  0
 17 18  1  0
 18 19  1  0
 19 20  2  0
  9 21  2  0
 21 22  1  0
 21 23  1  0
 23 24  1  0
 24 25  2  0
 24  7  1  0
 19 11  1  0
  4 26  1  0
  4 27  1  0
  8 28  1  0
 10 29  1  0
 10 30  1  0
 17 31  1  0
M  CHG  4   3  -1  18  -1  22  -1  23  -1
M  END
>  <UniqueID>  (48) 
45

>  <SMILES>  (48) 
O=C([O-])CC(=O)c1cc(Cc2c(C(F)(F)F)[nH][n-]c2=O)c([O-])[n-]c1=O

>  <Energy>  (48) 
66.76887772615521

>  <Genealogy>  (48) 
O=C([O-])CC(=O)c1cc(Cc2c(C(F)(F)F)[nH][n-]c2=O)c([O-])[n-]c1=O (protonated)
O=C([O-])CC(=O)c1cc(Cc2c(C(F)(F)F)[nH][n-]c2=O)c([O-])[n-]c1=O (3D coordinates assigned)
O=C([O-])CC(=O)c1cc(Cc2c(C(F)(F)F)[nH][n-]c2=O)c([O-])[n-]c1=O (optimized conformer: 66.76887772615521 kcal/mol)

>  <smiles>  (48) 
O=C(O)CC(=O)c1cc(Cc2c(C(F)(F)F)[nH][nH]c2=O)c(O)[nH]c1=O

>  <score_type>  (48) 
oracle

>  <origin>  (48) 
adg

>  <m_score__min__energy>  (48) 
-14.51

>  <m_primary>  (48) 
energy

$$$$
48:0
     RDKit          3D

 52 55  0  0  0  0  0  0  0  0999 V2000
   51.3950   29.5580   51.9620 C   0  0  0  0  0  0  0  0  0  0  0  0
   51.7870   30.8670   50.8190 S   0  0  0  0  0  0  0  0  0  0  0  0
   51.4100   30.4780   49.4180 O   0  0  0  0  0  0  0  0  0  0  0  0
   51.0020   32.0880   51.2070 O   0  0  0  0  0  0  0  0  0  0  0  0
   53.4790   31.2460   50.8970 N   0  0  0  0  0  0  0  0  0  0  0  0
   54.3740   30.7950   51.9330 C   0  0  0  0  0  0  0  0  0  0  0  0
   53.9150   30.4530   53.2200 C   0  0  0  0  0  0  0  0  0  0  0  0
   54.8140   30.0290   54.2000 C   0  0  0  0  0  0  0  0  0  0  0  0
   56.1770   29.9280   53.9150 C   0  0  0  0  0  0  0  0  0  0  0  0
   57.0300   29.5470   54.9000 F   0  0  0  0  0  0  0  0  0  0  0  0
   56.6530   30.2440   52.6290 C   0  0  0  0  0  0  0  0  0  0  0  0
   58.0960   30.1540   52.3070 C   0  0  0  0  0  0  0  0  0  0  0  0
   58.9300   30.7070   53.0700 O   0  0  0  0  0  0  0  0  0  0  0  0
   58.5850   29.4270   51.1690 N   0  0  0  0  0  0  0  0  0  0  0  0
   58.7480   29.9120   49.9740 C   0  0  0  0  0  0  0  0  0  0  0  0
   58.5230   31.2050   49.6440 N   0  0  0  0  0  0  0  0  0  0  0  0
   58.8050   31.4410   48.3380 C   0  0  0  0  0  0  0  0  0  0  0  0
   59.2610   30.3320   47.6390 C   0  0  0  0  0  0  0  0  0  0  0  0
   59.7290   30.3110   45.9130 S   0  0  0  0  0  0  0  0  0  0  0  0
   59.0770   31.9600   45.6290 C   0  0  0  0  0  0  0  0  0  0  0  0
   59.7840   33.0050   46.1430 N   0  0  0  0  0  0  0  0  0  0  0  0
   59.3590   34.2890   46.0390 C   0  0  0  0  0  0  0  0  0  0  0  0
   58.1550   34.5750   45.4030 C   0  0  0  0  0  0  0  0  0  0  0  0
   57.4050   33.5340   44.8600 C   0  0  0  0  0  0  0  0  0  0  0  0
   57.8550   32.2040   44.9500 C   0  0  0  0  0  0  0  0  0  0  0  0
   57.0320   31.1350   44.3260 C   0  0  0  0  0  0  0  0  0  0  0  0
   56.6890   31.2440   43.1170 O   0  0  0  0  0  0  0  0  0  0  0  0
   56.6250   29.9850   45.0770 N   0  0  0  0  0  0  0  0  0  0  0  0
   57.1130   28.6470   44.9120 C   0  0  0  0  0  0  0  0  0  0  0  0
   57.0460   27.7640   45.9990 C   0  0  0  0  0  0  0  0  0  0  0  0
   57.5320   26.4570   45.8790 C   0  0  0  0  0  0  0  0  0  0  0  0
   58.1050   26.0310   44.6770 C   0  0  0  0  0  0  0  0  0  0  0  0
   58.1980   26.9110   43.5960 C   0  0  0  0  0  0  0  0  0  0  0  0
   57.7110   28.2180   43.7120 C   0  0  0  0  0  0  0  0  0  0  0  0
   59.3200   29.0100   48.6770 S   0  0  0  0  0  0  0  0  0  0  0  0
   55.7470   30.6900   51.6530 C   0  0  0  0  0  0  0  0  0  0  0  0
   51.5052   29.9260   52.9927 H   0  0  0  0  0  0  0  0  0  0  0  0
   50.3585   29.2275   51.7995 H   0  0  0  0  0  0  0  0  0  0  0  0
   52.0793   28.7122   51.7995 H   0  0  0  0  0  0  0  0  0  0  0  0
   53.8550   31.8550   50.1360 H   0  0  0  0  0  0  0  0  0  0  0  0
   52.8423   30.5204   53.4540 H   0  0  0  0  0  0  0  0  0  0  0  0
   54.4458   29.7725   55.2043 H   0  0  0  0  0  0  0  0  0  0  0  0
   58.6824   32.4297   47.8716 H   0  0  0  0  0  0  0  0  0  0  0  0
   59.9667   35.1047   46.4578 H   0  0  0  0  0  0  0  0  0  0  0  0
   57.7987   35.6131   45.3296 H   0  0  0  0  0  0  0  0  0  0  0  0
   56.4522   33.7540   44.3562 H   0  0  0  0  0  0  0  0  0  0  0  0
   56.6093   28.1002   46.9510 H   0  0  0  0  0  0  0  0  0  0  0  0
   57.4631   25.7645   46.7309 H   0  0  0  0  0  0  0  0  0  0  0  0
   58.4828   25.0023   44.5824 H   0  0  0  0  0  0  0  0  0  0  0  0
   58.6544   26.5764   42.6528 H   0  0  0  0  0  0  0  0  0  0  0  0
   57.7958   28.9121   42.8629 H   0  0  0  0  0  0  0  0  0  0  0  0
   56.1180   30.9614   50.6537 H   0  0  0  0  0  0  0  0  0  0  0  0
  1  2  1  0
  2  3  2  0
  2  4  2  0
  2  5  1  0
  5  6  1  0
  6  7  2  0
  7  8  1  0
  8  9  2  0
  9 10  1  0
  9 11  1  0
 11 12  1  0
 12 13  2  0
 12 14  1  0
 14 15  2  3
 15 16  1  0
 16 17  1  0
 17 18  2  0
 18 19  1  0
 19 20  1  0
 20 21  2  0
 21 22  1  0
 22 23  2  0
 23 24  1  0
 24 25  2  0
 25 26  1  0
 26 27  2  0
 26 28  1  0
 28 29  1  0
 29 30  2  0
 30 31  1  0
 31 32  2  0
 32 33  1  0
 33 34  2  0
 18 35  1  0
 11 36  2  0
 36  6  1  0
 35 15  1  0
 25 20  1  0
 34 29  1  0
  1 37  1  0
  1 38  1  0
  1 39  1  0
  5 40  1  0
  7 41  1  0
  8 42  1  0
 17 43  1  0
 22 44  1  0
 23 45  1  0
 24 46  1  0
 30 47  1  0
 31 48  1  0
 32 49  1  0
 33 50  1  0
 34 51  1  0
 36 52  1  0
M  CHG  2  16  -1  28  -1
M  END
>  <UniqueID>  (49) 
46

>  <SMILES>  (49) 
CS(=O)(=O)Nc1ccc(F)c(C(=O)N=c2[n-]cc(Sc3ncccc3C(=O)[N-]c3ccccc3)s2)c1

>  <Energy>  (49) 
98.99723361239515

>  <Genealogy>  (49) 
CS(=O)(=O)Nc1ccc(F)c(C(=O)N=c2[n-]cc(Sc3ncccc3C(=O)[N-]c3ccccc3)s2)c1 (protonated)
CS(=O)(=O)Nc1ccc(F)c(C(=O)N=c2[n-]cc(Sc3ncccc3C(=O)[N-]c3ccccc3)s2)c1 (3D coordinates assigned)
CS(=O)(=O)Nc1ccc(F)c(C(=O)N=c2[n-]cc(Sc3ncccc3C(=O)[N-]c3ccccc3)s2)c1 (optimized conformer: 98.99723361239515 kcal/mol)

>  <smiles>  (49) 
CS(=O)(=O)Nc1ccc(F)c(C(=O)N=c2[nH]cc(Sc3ncccc3C(=O)Nc3ccccc3)s2)c1

>  <score_type>  (49) 
oracle

>  <origin>  (49) 
adg

>  <m_score__min__energy>  (49) 
-13.82

>  <m_primary>  (49) 
energy

$$$$
49:0
     RDKit          3D

 49 51  0  0  0  0  0  0  0  0999 V2000
   55.3500   31.5000   51.9960 O   0  0  0  0  0  0  0  0  0  0  0  0
   55.2550   30.2430   52.0630 C   0  0  0  0  0  0  0  0  0  0  0  0
   53.9070   29.5870   52.0660 C   0  0  0  0  0  0  0  0  0  0  0  0
   52.8790   30.4410   51.3800 C   0  0  0  0  0  0  0  0  0  0  0  0
   52.3720   30.0850   50.1240 C   0  0  0  0  0  0  0  0  0  0  0  0
   51.3900   30.8930   49.5480 C   0  0  0  0  0  0  0  0  0  0  0  0
   50.9130   30.6040   48.4200 O   0  0  0  0  0  0  0  0  0  0  0  0
   50.9460   31.9940   50.2080 N   0  0  0  0  0  0  0  0  0  0  0  0
   51.4450   32.3250   51.4280 C   0  0  0  0  0  0  0  0  0  0  0  0
   51.0200   33.3480   52.0240 O   0  0  0  0  0  0  0  0  0  0  0  0
   52.4000   31.5490   52.0060 N   0  0  0  0  0  0  0  0  0  0  0  0
   56.4290   29.4350   52.2070 N   0  0  0  0  0  0  0  0  0  0  0  0
   57.7120   29.9350   52.6940 C   0  0  0  0  0  0  0  0  0  0  0  0
   58.8650   29.4790   51.7890 C   0  0  0  0  0  0  0  0  0  0  0  0
   59.1550   30.4800   50.7030 C   0  0  0  0  0  0  0  0  0  0  0  0
   60.4250   30.5350   50.1070 C   0  0  0  0  0  0  0  0  0  0  0  0
   60.7240   31.5320   49.1750 C   0  0  0  0  0  0  0  0  0  0  0  0
   59.7560   32.4820   48.8240 C   0  0  0  0  0  0  0  0  0  0  0  0
   60.1480   33.7980   47.7210 S   0  0  0  0  0  0  0  0  0  0  0  0
   61.5690   34.2220   47.9680 O   0  0  0  0  0  0  0  0  0  0  0  0
   59.2460   34.9710   47.9910 O   0  0  0  0  0  0  0  0  0  0  0  0
   59.9640   33.2390   46.0700 N   0  0  0  0  0  0  0  0  0  0  0  0
   59.4170   31.8610   46.0110 C   0  0  0  0  0  0  0  0  0  0  0  0
   57.9020   31.8320   45.7450 C   0  0  0  0  0  0  0  0  0  0  0  0
   57.2820   32.9630   46.3110 O   0  0  0  0  0  0  0  0  0  0  0  0
   57.6610   34.1330   45.6070 C   0  0  0  0  0  0  0  0  0  0  0  0
   59.1700   34.1870   45.2630 C   0  0  0  0  0  0  0  0  0  0  0  0
   58.4830   32.4200   49.4040 C   0  0  0  0  0  0  0  0  0  0  0  0
   58.1820   31.4260   50.3380 C   0  0  0  0  0  0  0  0  0  0  0  0
   53.9776   28.6222   51.5424 H   0  0  0  0  0  0  0  0  0  0  0  0
   53.5951   29.4428   53.1109 H   0  0  0  0  0  0  0  0  0  0  0  0
   52.7394   29.1886   49.6029 H   0  0  0  0  0  0  0  0  0  0  0  0
   57.6845   31.0345   52.7137 H   0  0  0  0  0  0  0  0  0  0  0  0
   57.8819   29.5332   53.7038 H   0  0  0  0  0  0  0  0  0  0  0  0
   59.7685   29.3481   52.4027 H   0  0  0  0  0  0  0  0  0  0  0  0
   58.5700   28.5331   51.3112 H   0  0  0  0  0  0  0  0  0  0  0  0
   61.1882   29.7896   50.3751 H   0  0  0  0  0  0  0  0  0  0  0  0
   61.7226   31.5712   48.7154 H   0  0  0  0  0  0  0  0  0  0  0  0
   60.9300   33.2190   45.6650 H   0  0  0  0  0  0  0  0  0  0  0  0
   59.9262   31.3150   45.2032 H   0  0  0  0  0  0  0  0  0  0  0  0
   59.5901   31.3936   46.9916 H   0  0  0  0  0  0  0  0  0  0  0  0
   57.7247   31.8268   44.6594 H   0  0  0  0  0  0  0  0  0  0  0  0
   57.4769   30.9262   46.2019 H   0  0  0  0  0  0  0  0  0  0  0  0
   57.0885   34.1752   44.6687 H   0  0  0  0  0  0  0  0  0  0  0  0
   57.4489   34.9887   46.2648 H   0  0  0  0  0  0  0  0  0  0  0  0
   59.2991   33.9400   44.1989 H   0  0  0  0  0  0  0  0  0  0  0  0
   59.5296   35.2022   45.4868 H   0  0  0  0  0  0  0  0  0  0  0  0
   57.7167   33.1573   49.1228 H   0  0  0  0  0  0  0  0  0  0  0  0
   57.1798   31.3835   50.7894 H   0  0  0  0  0  0  0  0  0  0  0  0
  1  2  2  0
  2  3  1  0
  3  4  1  0
  4  5  2  0
  5  6  1  0
  6  7  2  0
  6  8  1  0
  8  9  1  0
  9 10  2  0
  9 11  1  0
  2 12  1  0
 12 13  1  0
 13 14  1  0
 14 15  1  0
 15 16  2  0
 16 17  1  0
 17 18  2  0
 18 19  1  0
 19 20  2  0
 19 21  2  0
 19 22  1  0
 22 23  1  0
 23 24  1  0
 24 25  1  0
 25 26  1  0
 26 27  1  0
 18 28  1  0
 28 29  2  0
 11  4  1  0
 29 15  1  0
 27 22  1  0
  3 30  1  0
  3 31  1  0
  5 32  1  0
 13 33  1  0
 13 34  1  0
 14 35  1  0
 14 36  1  0
 16 37  1  0
 17 38  1  0
 22 39  1  0
 23 40  1  0
 23 41  1  0
 24 42  1  0
 24 43  1  0
 26 44  1  0
 26 45  1  0
 27 46  1  0
 27 47  1  0
 28 48  1  0
 29 49  1  0
M  CHG  4   8  -1  11  -1  12  -1  22   1
M  END
>  <UniqueID>  (50) 
47

>  <SMILES>  (50) 
O=C(Cc1cc(=O)[n-]c(=O)[n-]1)[N-]CCc1ccc(S(=O)(=O)[NH+]2CCOCC2)cc1

>  <Energy>  (50) 
53.87836062277633

>  <Genealogy>  (50) 
O=C(Cc1cc(=O)[n-]c(=O)[n-]1)[N-]CCc1ccc(S(=O)(=O)[NH+]2CCOCC2)cc1 (protonated)
O=C(Cc1cc(=O)[n-]c(=O)[n-]1)[N-]CCc1ccc(S(=O)(=O)[NH+]2CCOCC2)cc1 (3D coordinates assigned)
O=C(Cc1cc(=O)[n-]c(=O)[n-]1)[N-]CCc1ccc(S(=O)(=O)[NH+]2CCOCC2)cc1 (nonaromatic ring conformer: 53.87836062277633 kcal/mol)

>  <smiles>  (50) 
O=C(Cc1cc(=O)[nH]c(=O)[nH]1)NCCc1ccc(S(=O)(=O)N2CCOCC2)cc1

>  <score_type>  (50) 
oracle

>  <origin>  (50) 
adg

>  <m_score__min__energy>  (50) 
-13.74

>  <m_primary>  (50) 
energy

$$$$
50:0
     RDKit          3D

 37 39  0  0  0  0  0  0  0  0999 V2000
   54.7560   24.4990   47.1420 H   0  0  0  0  0  0  0  0  0  0  0  0
   55.7460   24.3040   47.0460 O   0  0  0  0  0  0  0  0  0  0  0  0
   56.6410   25.2770   46.6070 C   0  0  0  0  0  0  0  0  0  0  0  0
   58.0230   25.0540   46.6760 C   0  0  0  0  0  0  0  0  0  0  0  0
   58.4055   24.1038   47.0770 H   0  0  0  0  0  0  0  0  0  0  0  0
   58.9170   26.0350   46.2370 C   0  0  0  0  0  0  0  0  0  0  0  0
   60.0000   25.8466   46.2762 H   0  0  0  0  0  0  0  0  0  0  0  0
   58.4380   27.2580   45.7470 C   0  0  0  0  0  0  0  0  0  0  0  0
   59.3870   28.2600   45.2350 C   0  0  0  0  0  0  0  0  0  0  0  0
   60.1593   27.9126   44.5330 H   0  0  0  0  0  0  0  0  0  0  0  0
   59.3860   29.5690   45.5570 C   0  0  0  0  0  0  0  0  0  0  0  0
   58.6570   30.6570   45.0520 C   0  0  0  0  0  0  0  0  0  0  0  0
   57.6450   30.6520   44.1800 C   0  0  0  0  0  0  0  0  0  0  0  0
   57.3454   29.7136   43.6905 H   0  0  0  0  0  0  0  0  0  0  0  0
   57.1113   31.5863   43.9515 H   0  0  0  0  0  0  0  0  0  0  0  0
   59.0510   31.7910   45.6710 N   0  0  0  0  0  0  0  0  0  0  0  0
   59.9760   31.4790   46.5660 N   0  0  0  0  0  0  0  0  0  0  0  0
   60.6240   32.4560   47.4040 C   0  0  0  0  0  0  0  0  0  0  0  0
   59.8790   33.3820   48.1550 C   0  0  0  0  0  0  0  0  0  0  0  0
   58.7801   33.3658   48.1080 H   0  0  0  0  0  0  0  0  0  0  0  0
   60.5250   34.3220   48.9600 C   0  0  0  0  0  0  0  0  0  0  0  0
   59.9331   35.0353   49.5523 H   0  0  0  0  0  0  0  0  0  0  0  0
   61.9200   34.3600   49.0160 C   0  0  0  0  0  0  0  0  0  0  0  0
   62.4235   35.0938   49.6626 H   0  0  0  0  0  0  0  0  0  0  0  0
   62.6800   33.4650   48.2500 C   0  0  0  0  0  0  0  0  0  0  0  0
   64.1800   33.4860   48.3310 C   0  0  0  0  0  0  0  0  0  0  0  0
   64.6021   33.0842   47.3980 H   0  0  0  0  0  0  0  0  0  0  0  0
   64.5221   34.5213   48.4760 H   0  0  0  0  0  0  0  0  0  0  0  0
   64.7220   32.4890   49.7030 Cl  0  0  0  0  0  0  0  0  0  0  0  0
   62.0280   32.5100   47.4530 C   0  0  0  0  0  0  0  0  0  0  0  0
   62.6215   31.7974   46.8614 H   0  0  0  0  0  0  0  0  0  0  0  0
   60.1920   30.1480   46.5220 C   0  0  0  0  0  0  0  0  0  0  0  0
   61.0490   29.5400   47.2190 O   0  0  0  0  0  0  0  0  0  0  0  0
   57.0510   27.4670   45.6490 C   0  0  0  0  0  0  0  0  0  0  0  0
   56.6670   28.4064   45.2247 H   0  0  0  0  0  0  0  0  0  0  0  0
   56.1580   26.4850   46.0890 C   0  0  0  0  0  0  0  0  0  0  0  0
   54.7890   26.7110   46.0050 O   0  0  0  0  0  0  0  0  0  0  0  0
  1  2  1  0
  2  3  1  0
  3  4  2  0
  4  5  1  0
  4  6  1  0
  6  7  1  0
  6  8  2  0
  8  9  1  0
  9 10  1  0
  9 11  2  0
 11 12  1  0
 12 13  2  0
 13 14  1  0
 13 15  1  0
 12 16  1  0
 16 17  1  0
 17 18  1  0
 18 19  2  0
 19 20  1  0
 19 21  1  0
 21 22  1  0
 21 23  2  0
 23 24  1  0
 23 25  1  0
 25 26  1  0
 26 27  1  0
 26 28  1  0
 26 29  1  0
 25 30  2  0
 30 31  1  0
 17 32  1  0
 32 33  2  0
  8 34  1  0
 34 35  1  0
 34 36  2  0
 36 37  1  0
 36  3  1  0
 32 11  1  0
 30 18  1  0
M  CHG  2  16  -1  37  -1
M  END
>  <UniqueID>  (51) 
48

>  <SMILES>  (51) 
C=c1[n-]n(-c2cccc(CCl)c2)c(=O)/c1=C/c1ccc(O)c([O-])c1

>  <Energy>  (51) 
87.86307155579757

>  <Genealogy>  (51) 
C=c1[n-]n(-c2cccc(CCl)c2)c(=O)c1=Cc1ccc(O)c([O-])c1 (protonated)
C=c1[n-]n(-c2cccc(CCl)c2)c(=O)/c1=C/c1ccc(O)c([O-])c1 (cis-trans isomerization)
C=c1[n-]n(-c2cccc(CCl)c2)c(=O)/c1=C/c1ccc(O)c([O-])c1 (3D coordinates assigned)
C=c1[n-]n(-c2cccc(CCl)c2)c(=O)/c1=C/c1ccc(O)c([O-])c1 (optimized conformer: 87.86307155579757 kcal/mol)

>  <smiles>  (51) 
C=c1[nH]n(-c2cccc(CCl)c2)c(=O)c1=Cc1ccc(O)c(O)c1

>  <score_type>  (51) 
oracle

>  <origin>  (51) 
adg

>  <m_score__min__energy>  (51) 
-12.609999999999999

>  <m_primary>  (51) 
energy

$$$$
51:0
     RDKit          3D

 50 53  0  0  0  0  0  0  0  0999 V2000
   54.7120   26.0970   45.9630 O   0  0  0  0  0  0  0  0  0  0  0  0
   55.9510   26.1070   45.7370 C   0  0  0  0  0  0  0  0  0  0  0  0
   56.6950   27.2940   46.0480 N   0  0  0  0  0  0  0  0  0  0  0  0
   56.6750   28.3910   45.3530 C   0  0  0  0  0  0  0  0  0  0  0  0
   55.5460   28.9740   44.8840 N   0  0  0  0  0  0  0  0  0  0  0  0
   55.8260   30.0980   44.1720 C   0  0  0  0  0  0  0  0  0  0  0  0
   57.1790   30.3940   44.0750 C   0  0  0  0  0  0  0  0  0  0  0  0
   57.9040   31.7150   43.1030 S   0  0  0  0  0  0  0  0  0  0  0  0
   57.6630   33.0390   44.3490 C   0  0  0  0  0  0  0  0  0  0  0  0
   58.2380   32.6770   45.6850 C   0  0  0  0  0  0  0  0  0  0  0  0
   59.2110   31.7520   45.8530 N   0  0  0  0  0  0  0  0  0  0  0  0
   59.4620   31.4870   47.1600 C   0  0  0  0  0  0  0  0  0  0  0  0
   58.6730   32.2070   48.0520 C   0  0  0  0  0  0  0  0  0  0  0  0
   58.6650   32.0440   49.5100 C   0  0  0  0  0  0  0  0  0  0  0  0
   57.5690   31.9780   50.1300 O   0  0  0  0  0  0  0  0  0  0  0  0
   59.9020   31.9260   50.2170 N   0  0  0  0  0  0  0  0  0  0  0  0
   60.6210   33.0700   50.7590 C   0  0  0  0  0  0  0  0  0  0  0  0
   60.7150   34.1810   49.7100 C   0  0  0  0  0  0  0  0  0  0  0  0
   61.7700   33.8800   48.6740 C   0  0  0  0  0  0  0  0  0  0  0  0
   61.5040   34.0860   47.3120 C   0  0  0  0  0  0  0  0  0  0  0  0
   62.5000   33.8220   46.3680 C   0  0  0  0  0  0  0  0  0  0  0  0
   63.7160   33.3650   46.7690 N   0  0  0  0  0  0  0  0  0  0  0  0
   64.0020   33.1600   48.0820 C   0  0  0  0  0  0  0  0  0  0  0  0
   63.0390   33.4230   49.0600 C   0  0  0  0  0  0  0  0  0  0  0  0
   57.6380   33.2010   47.1690 S   0  0  0  0  0  0  0  0  0  0  0  0
   58.0600   29.2390   44.9250 S   0  0  0  0  0  0  0  0  0  0  0  0
   56.6100   24.8770   45.2300 C   0  0  0  0  0  0  0  0  0  0  0  0
   56.0110   24.1050   44.2170 C   0  0  0  0  0  0  0  0  0  0  0  0
   56.6470   22.9610   43.7280 C   0  0  0  0  0  0  0  0  0  0  0  0
   57.8900   22.5800   44.2390 C   0  0  0  0  0  0  0  0  0  0  0  0
   58.5010   23.3460   45.2350 C   0  0  0  0  0  0  0  0  0  0  0  0
   57.8680   24.4920   45.7260 C   0  0  0  0  0  0  0  0  0  0  0  0
   55.0454   30.7211   43.7111 H   0  0  0  0  0  0  0  0  0  0  0  0
   58.1535   33.9558   43.9899 H   0  0  0  0  0  0  0  0  0  0  0  0
   56.5805   33.1855   44.4780 H   0  0  0  0  0  0  0  0  0  0  0  0
   59.6950   31.2630   45.0670 H   0  0  0  0  0  0  0  0  0  0  0  0
   60.2244   30.7644   47.4866 H   0  0  0  0  0  0  0  0  0  0  0  0
   60.0871   33.4491   51.6429 H   0  0  0  0  0  0  0  0  0  0  0  0
   61.6368   32.7550   51.0401 H   0  0  0  0  0  0  0  0  0  0  0  0
   59.7411   34.2817   49.2087 H   0  0  0  0  0  0  0  0  0  0  0  0
   60.9923   35.1144   50.2218 H   0  0  0  0  0  0  0  0  0  0  0  0
   60.5184   34.4527   46.9894 H   0  0  0  0  0  0  0  0  0  0  0  0
   62.2998   33.9842   45.2986 H   0  0  0  0  0  0  0  0  0  0  0  0
   64.9940   32.7861   48.3755 H   0  0  0  0  0  0  0  0  0  0  0  0
   63.2741   33.2729   50.1240 H   0  0  0  0  0  0  0  0  0  0  0  0
   55.0351   24.4044   43.8073 H   0  0  0  0  0  0  0  0  0  0  0  0
   56.1687   22.3602   42.9404 H   0  0  0  0  0  0  0  0  0  0  0  0
   58.3880   21.6766   43.8571 H   0  0  0  0  0  0  0  0  0  0  0  0
   59.4817   23.0470   45.6336 H   0  0  0  0  0  0  0  0  0  0  0  0
   58.3570   25.0957   46.5047 H   0  0  0  0  0  0  0  0  0  0  0  0
  1  2  2  0
  2  3  1  0
  3  4  2  3
  4  5  1  0
  5  6  1  0
  6  7  2  0
  7  8  1  0
  8  9  1  0
  9 10  1  0
 10 11  2  0
 11 12  1  0
 12 13  2  0
 13 14  1  0
 14 15  2  0
 14 16  1  0
 16 17  1  0
 17 18  1  0
 18 19  1  0
 19 20  2  0
 20 21  1  0
 21 22  2  0
 22 23  1  0
 23 24  2  0
 13 25  1  0
  7 26  1  0
  2 27  1  0
 27 28  2  0
 28 29  1  0
 29 30  2  0
 30 31  1  0
 31 32  2  0
 26  4  1  0
 32 27  1  0
 25 10  1  0
 24 19  1  0
  6 33  1  0
  9 34  1  0
  9 35  1  0
 11 36  1  0
 12 37  1  0
 17 38  1  0
 17 39  1  0
 18 40  1  0
 18 41  1  0
 20 42  1  0
 21 43  1  0
 23 44  1  0
 24 45  1  0
 28 46  1  0
 29 47  1  0
 30 48  1  0
 31 49  1  0
 32 50  1  0
M  CHG  3   5  -1  11   1  16  -1
M  END
>  <UniqueID>  (52) 
49

>  <SMILES>  (52) 
O=C(N=c1[n-]cc(SCc2[nH+]cc(C(=O)[N-]CCc3ccncc3)s2)s1)c1ccccc1

>  <Energy>  (52) 
108.28326669001828

>  <Genealogy>  (52) 
O=C(N=c1[n-]cc(SCc2[nH+]cc(C(=O)[N-]CCc3ccncc3)s2)s1)c1ccccc1 (protonated)
O=C(N=c1[n-]cc(SCc2[nH+]cc(C(=O)[N-]CCc3ccncc3)s2)s1)c1ccccc1 (3D coordinates assigned)
O=C(N=c1[n-]cc(SCc2[nH+]cc(C(=O)[N-]CCc3ccncc3)s2)s1)c1ccccc1 (optimized conformer: 108.28326669001828 kcal/mol)

>  <smiles>  (52) 
O=C(N=c1[nH]cc(SCc2ncc(C(=O)NCCc3ccncc3)s2)s1)c1ccccc1

>  <score_type>  (52) 
oracle

>  <origin>  (52) 
adg

>  <m_score__min__energy>  (52) 
-12.050000000000001

>  <m_primary>  (52) 
energy

$$$$
52:0
     RDKit          3D

 45 48  0  0  1  0  0  0  0  0999 V2000
   58.3960   34.5760   44.5080 O   0  0  0  0  0  0  0  0  0  0  0  0
   58.3540   33.5730   45.2610 C   0  0  0  0  0  0  0  0  0  0  0  0
   57.9040   32.3110   44.8390 N   0  0  0  0  0  0  0  0  0  0  0  0
   57.4240   31.9500   43.5380 C   0  0  0  0  0  0  0  0  0  0  0  0
   56.6590   30.6660   43.4450 C   0  0  0  0  0  0  0  0  0  0  0  0
   59.7990   29.2270   47.8040 N   0  0  0  0  0  0  0  0  0  0  0  0
   60.5640   30.2420   47.6070 C   0  0  0  0  0  0  0  0  0  0  0  0
   58.0090   29.7590   46.2380 N   0  0  0  0  0  0  0  0  0  0  0  0
   58.7550   28.8910   46.9090 C   0  0  0  0  0  0  0  0  0  0  0  0
   56.3150   30.1910   44.7570 N   0  0  0  0  0  0  0  0  0  0  0  0
   57.0370   29.3460   45.4070 C   0  0  0  0  0  0  0  0  0  0  0  0
   61.6190   30.5850   48.4160 C   0  0  0  0  0  0  0  0  0  0  0  0
   62.1610   31.7230   47.8510 C   0  0  0  0  0  0  0  0  0  0  0  0
   63.3500   32.4560   48.4070 C   0  0  0  0  0  0  0  0  0  0  0  0
   63.1290   33.7940   49.0170 C   0  0  0  0  0  0  0  0  0  0  0  0
   63.7690   33.6800   47.6440 C   0  0  0  0  0  0  0  0  0  0  0  0
   61.4560   32.0520   46.7370 N   0  0  0  0  0  0  0  0  0  0  0  0
   60.4960   31.1410   46.6140 N   0  0  0  0  0  0  0  0  0  0  0  0
   58.5110   27.5230   46.7400 C   0  0  0  0  0  0  0  0  0  0  0  0
   57.5150   27.0760   45.8900 C   0  0  0  0  0  0  0  0  0  0  0  0
   56.8070   28.0230   45.2480 N   0  0  0  0  0  0  0  0  0  0  0  0
   58.7930   33.7410   46.6220 C   0  0  0  0  0  0  0  0  0  0  0  0
   59.6810   34.6480   47.1850 C   0  0  0  0  0  0  0  0  0  0  0  0
   59.9140   34.5820   48.4920 C   0  0  0  0  0  0  0  0  0  0  0  0
   59.2760   33.6270   49.2410 C   0  0  0  0  0  0  0  0  0  0  0  0
   58.2250   32.7090   47.9740 S   0  0  0  0  0  0  0  0  0  0  0  0
   57.9180   31.5280   45.5640 H   0  0  0  0  0  0  0  0  0  0  0  0
   56.7654   32.7584   43.1877 H   0  0  0  0  0  0  0  0  0  0  0  0
   58.3247   31.7995   42.9248 H   0  0  0  0  0  0  0  0  0  0  0  0
   55.7380   30.8340   42.8674 H   0  0  0  0  0  0  0  0  0  0  0  0
   57.2863   29.9126   42.9461 H   0  0  0  0  0  0  0  0  0  0  0  0
   61.9604   30.0637   49.3225 H   0  0  0  0  0  0  0  0  0  0  0  0
   63.8443   31.5377   48.7569 H   0  0  0  0  0  0  0  0  0  0  0  0
   62.1081   34.1913   49.1169 H   0  0  0  0  0  0  0  0  0  0  0  0
   63.4075   34.2712   49.9682 H   0  0  0  0  0  0  0  0  0  0  0  0
   63.2125   33.9899   46.7472 H   0  0  0  0  0  0  0  0  0  0  0  0
   64.7024   34.0346   47.1824 H   0  0  0  0  0  0  0  0  0  0  0  0
   61.6670   32.8650   46.1370 H   0  0  0  0  0  0  0  0  0  0  0  0
   59.8060   31.1380   45.8560 H   0  0  0  0  0  0  0  0  0  0  0  0
   59.1206   26.7921   47.2915 H   0  0  0  0  0  0  0  0  0  0  0  0
   57.3129   26.0042   45.7468 H   0  0  0  0  0  0  0  0  0  0  0  0
   56.0530   27.7100   44.6060 H   0  0  0  0  0  0  0  0  0  0  0  0
   60.1809   35.4049   46.5627 H   0  0  0  0  0  0  0  0  0  0  0  0
   60.6118   35.2866   48.9680 H   0  0  0  0  0  0  0  0  0  0  0  0
   59.3579   33.4412   50.3221 H   0  0  0  0  0  0  0  0  0  0  0  0
  1  2  2  0
  2  3  1  0
  3  4  1  0
  4  5  1  0
  5  6  1  0
  6  7  2  0
  7  8  1  0
  8  9  2  0
  9 10  1  0
 10 11  2  0
 11 12  1  0
 12 13  2  0
 13 14  1  0
 14 15  1  0
 15 16  1  0
 13 17  1  0
 17 18  1  0
  9 19  1  0
 19 20  2  0
 20 21  1  0
  2 22  1  0
 22 23  2  0
 23 24  1  0
 24 25  2  0
 25 26  1  0
 21  7  1  0
 26 22  1  0
 18 11  1  0
 16 14  1  0
  3 27  1  0
  4 28  1  0
  4 29  1  0
  5 30  1  0
  5 31  1  0
 12 32  1  0
 14 33  1  0
 15 34  1  0
 15 35  1  0
 16 36  1  0
 16 37  1  0
 17 38  1  0
 18 39  1  0
 19 40  1  0
 20 41  1  0
 21 42  1  0
 23 43  1  0
 24 44  1  0
 25 45  1  0
M  END
>  <smiles>  (53) 
O=C(NCCN=c1nc(N=c2cc(C3CC3)[nH][nH]2)cc[nH]1)c1cccs1

>  <score_type>  (53) 
oracle

>  <origin>  (53) 
adg

>  <m_score__min__energy>  (53) 
-7.4100000000000001

>  <m_primary>  (53) 
energy

$$$$
53:0
     RDKit          3D

 73 77  0  0  0  0  0  0  0  0999 V2000
   58.6160   34.5400   52.4320 C   0  0  0  0  0  0  0  0  0  0  0  0
   59.0130   33.1360   52.1130 C   0  0  0  0  0  0  0  0  0  0  0  0
   59.1260   32.1570   53.0430 N   0  0  0  0  0  0  0  0  0  0  0  0
   59.4520   31.0670   52.3150 C   0  0  0  0  0  0  0  0  0  0  0  0
   59.6760   29.7910   52.8200 C   0  0  0  0  0  0  0  0  0  0  0  0
   60.0020   28.7740   51.9100 C   0  0  0  0  0  0  0  0  0  0  0  0
   60.1030   29.0450   50.5230 C   0  0  0  0  0  0  0  0  0  0  0  0
   60.4450   27.9570   49.5760 C   0  0  0  0  0  0  0  0  0  0  0  0
   60.7560   26.8220   50.0290 O   0  0  0  0  0  0  0  0  0  0  0  0
   60.4050   28.1660   48.1540 N   0  0  0  0  0  0  0  0  0  0  0  0
   60.7080   27.0980   47.2030 C   0  0  0  0  0  0  0  0  0  0  0  0
   59.5630   26.9240   46.2430 C   0  0  0  0  0  0  0  0  0  0  0  0
   59.0930   25.6410   45.9150 C   0  0  0  0  0  0  0  0  0  0  0  0
   58.0150   25.4910   45.0390 C   0  0  0  0  0  0  0  0  0  0  0  0
   57.3930   26.6160   44.4910 C   0  0  0  0  0  0  0  0  0  0  0  0
   57.8450   27.9000   44.8190 C   0  0  0  0  0  0  0  0  0  0  0  0
   57.0540   29.3090   44.1170 S   0  0  0  0  0  0  0  0  0  0  0  0
   56.6650   28.9850   42.7010 O   0  0  0  0  0  0  0  0  0  0  0  0
   55.8100   29.6440   44.8930 O   0  0  0  0  0  0  0  0  0  0  0  0
   58.1520   30.6670   44.1370 N   0  0  0  0  0  0  0  0  0  0  0  0
   58.2300   31.2760   45.4870 C   0  0  0  0  0  0  0  0  0  0  0  0
   57.3870   32.5570   45.6100 C   0  0  0  0  0  0  0  0  0  0  0  0
   57.7610   33.5810   44.6040 N   0  0  0  0  0  0  0  0  0  0  0  0
   58.6500   34.6030   45.1810 C   0  0  0  0  0  0  0  0  0  0  0  0
   58.3530   33.0170   43.3690 C   0  0  0  0  0  0  0  0  0  0  0  0
   57.7880   31.6240   43.0720 C   0  0  0  0  0  0  0  0  0  0  0  0
   58.9320   28.0520   45.6940 C   0  0  0  0  0  0  0  0  0  0  0  0
   59.8840   30.3680   50.0790 C   0  0  0  0  0  0  0  0  0  0  0  0
   59.5490   31.3110   50.9970 N   0  0  0  0  0  0  0  0  0  0  0  0
   59.2820   32.6190   50.8550 C   0  0  0  0  0  0  0  0  0  0  0  0
   59.1470   33.3050   49.5990 N   0  0  0  0  0  0  0  0  0  0  0  0
   58.3670   32.6940   48.5230 C   0  0  0  0  0  0  0  0  0  0  0  0
   60.0040   34.4590   49.3070 C   0  0  0  0  0  0  0  0  0  0  0  0
   61.3040   34.0040   48.6990 C   0  0  0  0  0  0  0  0  0  0  0  0
   62.3940   33.6760   49.5210 C   0  0  0  0  0  0  0  0  0  0  0  0
   63.5820   33.1980   48.9590 C   0  0  0  0  0  0  0  0  0  0  0  0
   63.6850   33.0360   47.5750 C   0  0  0  0  0  0  0  0  0  0  0  0
   62.6000   33.3490   46.7510 C   0  0  0  0  0  0  0  0  0  0  0  0
   61.4100   33.8280   47.3090 C   0  0  0  0  0  0  0  0  0  0  0  0
   58.5788   34.6715   53.5235 H   0  0  0  0  0  0  0  0  0  0  0  0
   59.3527   35.2357   52.0037 H   0  0  0  0  0  0  0  0  0  0  0  0
   57.6241   34.7469   52.0037 H   0  0  0  0  0  0  0  0  0  0  0  0
   59.6001   29.5855   53.8980 H   0  0  0  0  0  0  0  0  0  0  0  0
   60.1815   27.7531   52.2782 H   0  0  0  0  0  0  0  0  0  0  0  0
   60.0410   29.0630   47.7650 H   0  0  0  0  0  0  0  0  0  0  0  0
   61.6178   27.3573   46.6417 H   0  0  0  0  0  0  0  0  0  0  0  0
   60.8641   26.1583   47.7530 H   0  0  0  0  0  0  0  0  0  0  0  0
   59.5750   24.7526   46.3490 H   0  0  0  0  0  0  0  0  0  0  0  0
   57.6548   24.4844   44.7799 H   0  0  0  0  0  0  0  0  0  0  0  0
   56.5460   26.4925   43.8001 H   0  0  0  0  0  0  0  0  0  0  0  0
   57.8682   30.5444   46.2245 H   0  0  0  0  0  0  0  0  0  0  0  0
   59.2798   31.5505   45.6675 H   0  0  0  0  0  0  0  0  0  0  0  0
   56.3273   32.2967   45.4715 H   0  0  0  0  0  0  0  0  0  0  0  0
   57.5711   32.9843   46.6068 H   0  0  0  0  0  0  0  0  0  0  0  0
   58.6047   34.5509   46.2788 H   0  0  0  0  0  0  0  0  0  0  0  0
   59.6824   34.4214   44.8476 H   0  0  0  0  0  0  0  0  0  0  0  0
   58.3271   35.6003   44.8476 H   0  0  0  0  0  0  0  0  0  0  0  0
   58.1257   33.6843   42.5246 H   0  0  0  0  0  0  0  0  0  0  0  0
   59.4402   32.9297   43.5114 H   0  0  0  0  0  0  0  0  0  0  0  0
   56.6919   31.6873   43.0045 H   0  0  0  0  0  0  0  0  0  0  0  0
   58.2128   31.2688   42.1215 H   0  0  0  0  0  0  0  0  0  0  0  0
   59.2912   29.0595   45.9509 H   0  0  0  0  0  0  0  0  0  0  0  0
   59.9825   30.6283   49.0148 H   0  0  0  0  0  0  0  0  0  0  0  0
   57.5709   32.0704   48.9558 H   0  0  0  0  0  0  0  0  0  0  0  0
   57.9179   33.4831   47.9020 H   0  0  0  0  0  0  0  0  0  0  0  0
   59.0256   32.0690   47.9020 H   0  0  0  0  0  0  0  0  0  0  0  0
   59.4869   35.1256   48.6011 H   0  0  0  0  0  0  0  0  0  0  0  0
   60.2154   34.9940   50.2446 H   0  0  0  0  0  0  0  0  0  0  0  0
   62.3132   33.7955   50.6115 H   0  0  0  0  0  0  0  0  0  0  0  0
   64.4356   32.9495   49.6067 H   0  0  0  0  0  0  0  0  0  0  0  0
   64.6205   32.6619   47.1335 H   0  0  0  0  0  0  0  0  0  0  0  0
   62.6821   33.2184   45.6619 H   0  0  0  0  0  0  0  0  0  0  0  0
   60.5558   34.0673   46.6585 H   0  0  0  0  0  0  0  0  0  0  0  0
  1  2  1  0
  2  3  1  0
  3  4  2  0
  4  5  1  0
  5  6  2  0
  6  7  1  0
  7  8  1  0
  8  9  2  0
  8 10  1  0
 10 11  1  0
 11 12  1  0
 12 13  2  0
 13 14  1  0
 14 15  2  0
 15 16  1  0
 16 17  1  0
 17 18  2  0
 17 19  2  0
 17 20  1  0
 20 21  1  0
 21 22  1  0
 22 23  1  0
 23 24  1  0
 23 25  1  0
 25 26  1  0
 16 27  2  0
  7 28  2  0
 28 29  1  0
 29 30  1  0
 30 31  1  0
 31 32  1  0
 31 33  1  0
 33 34  1  0
 34 35  2  0
 35 36  1  0
 36 37  2  0
 37 38  1  0
 38 39  2  0
 30  2  2  0
 39 34  1  0
 29  4  1  0
 27 12  1  0
 26 20  1  0
  1 40  1  0
  1 41  1  0
  1 42  1  0
  5 43  1  0
  6 44  1  0
 10 45  1  0
 11 46  1  0
 11 47  1  0
 13 48  1  0
 14 49  1  0
 15 50  1  0
 21 51  1  0
 21 52  1  0
 22 53  1  0
 22 54  1  0
 24 55  1  0
 24 56  1  0
 24 57  1  0
 25 58  1  0
 25 59  1  0
 26 60  1  0
 26 61  1  0
 27 62  1  0
 28 63  1  0
 32 64  1  0
 32 65  1  0
 32 66  1  0
 33 67  1  0
 33 68  1  0
 35 69  1  0
 36 70  1  0
 37 71  1  0
 38 72  1  0
 39 73  1  0
M  END
>  <UniqueID>  (54) 
50

>  <SMILES>  (54) 
Cc1nc2ccc(C(=O)NCc3cccc(S(=O)(=O)N4CCN(C)CC4)c3)cn2c1N(C)Cc1ccccc1

>  <Energy>  (54) 
123.06494839624212

>  <Genealogy>  (54) 
Cc1nc2ccc(C(=O)NCc3cccc(S(=O)(=O)N4CCN(C)CC4)c3)cn2c1N(C)Cc1ccccc1 (3D coordinates assigned)
Cc1nc2ccc(C(=O)NCc3cccc(S(=O)(=O)N4CCN(C)CC4)c3)cn2c1N(C)Cc1ccccc1 (nonaromatic ring conformer: 123.06494839624212 kcal/mol)

>  <smiles>  (54) 
Cc1nc2ccc(C(=O)NCc3cccc(S(=O)(=O)N4CCN(C)CC4)c3)cn2c1N(C)Cc1ccccc1

>  <score_type>  (54) 
oracle

>  <origin>  (54) 
adg

>  <m_score__min__energy>  (54) 
-10.609999999999999

>  <m_primary>  (54) 
energy

$$$$
54:0
     RDKit          3D

 43 45  0  0  0  0  0  0  0  0999 V2000
   60.7810   34.2540   49.0680 C   0  0  0  0  0  0  0  0  0  0  0  0
   60.0130   33.2560   48.2470 C   0  0  0  0  0  0  0  0  0  0  0  0
   59.6470   33.6330   46.9930 N   0  0  0  0  0  0  0  0  0  0  0  0
   58.9270   32.8240   46.1830 C   0  0  0  0  0  0  0  0  0  0  0  0
   58.5830   33.2500   44.8950 C   0  0  0  0  0  0  0  0  0  0  0  0
   57.8440   32.4130   44.0560 C   0  0  0  0  0  0  0  0  0  0  0  0
   57.4410   31.1460   44.4990 C   0  0  0  0  0  0  0  0  0  0  0  0
   56.5380   30.0740   43.4320 S   0  0  0  0  0  0  0  0  0  0  0  0
   56.6350   30.5410   42.0060 O   0  0  0  0  0  0  0  0  0  0  0  0
   55.0960   30.0800   43.8530 O   0  0  0  0  0  0  0  0  0  0  0  0
   57.1630   28.4590   43.5440 N   0  0  0  0  0  0  0  0  0  0  0  0
   57.7530   27.9140   44.7400 C   0  0  0  0  0  0  0  0  0  0  0  0
   59.1500   27.8900   44.9220 C   0  0  0  0  0  0  0  0  0  0  0  0
   59.7030   27.3680   46.0940 C   0  0  0  0  0  0  0  0  0  0  0  0
   58.8730   26.8590   47.0940 C   0  0  0  0  0  0  0  0  0  0  0  0
   57.4890   26.8650   46.9220 C   0  0  0  0  0  0  0  0  0  0  0  0
   56.9260   27.3890   45.7530 C   0  0  0  0  0  0  0  0  0  0  0  0
   55.5430   27.3910   45.6080 O   0  0  0  0  0  0  0  0  0  0  0  0
   57.7730   30.7240   45.7940 C   0  0  0  0  0  0  0  0  0  0  0  0
   58.5250   31.5600   46.6420 C   0  0  0  0  0  0  0  0  0  0  0  0
   58.8970   31.1740   47.9400 C   0  0  0  0  0  0  0  0  0  0  0  0
   58.5350   30.0450   48.3790 O   0  0  0  0  0  0  0  0  0  0  0  0
   59.6480   32.0160   48.7310 N   0  0  0  0  0  0  0  0  0  0  0  0
   60.0600   31.5530   50.0770 C   0  0  0  0  0  0  0  0  0  0  0  0
   58.8900   31.5910   51.0740 C   0  0  0  0  0  0  0  0  0  0  0  0
   58.3380   30.2270   51.3410 C   0  0  0  0  0  0  0  0  0  0  0  0
   57.1020   30.0670   51.5190 O   0  0  0  0  0  0  0  0  0  0  0  0
   59.1930   29.1360   51.4310 O   0  0  0  0  0  0  0  0  0  0  0  0
   60.6229   34.0486   50.1370 H   0  0  0  0  0  0  0  0  0  0  0  0
   61.8528   34.1741   48.8339 H   0  0  0  0  0  0  0  0  0  0  0  0
   60.4292   35.2696   48.8339 H   0  0  0  0  0  0  0  0  0  0  0  0
   58.8948   34.2445   44.5433 H   0  0  0  0  0  0  0  0  0  0  0  0
   57.5772   32.7496   43.0433 H   0  0  0  0  0  0  0  0  0  0  0  0
   56.9950   27.8360   42.7240 H   0  0  0  0  0  0  0  0  0  0  0  0
   59.8100   28.2851   44.1357 H   0  0  0  0  0  0  0  0  0  0  0  0
   60.7947   27.3581   46.2289 H   0  0  0  0  0  0  0  0  0  0  0  0
   59.3105   26.4530   48.0180 H   0  0  0  0  0  0  0  0  0  0  0  0
   56.8374   26.4562   47.7084 H   0  0  0  0  0  0  0  0  0  0  0  0
   57.4448   29.7360   46.1492 H   0  0  0  0  0  0  0  0  0  0  0  0
   60.4301   30.5199   50.0009 H   0  0  0  0  0  0  0  0  0  0  0  0
   60.8469   32.2274   50.4457 H   0  0  0  0  0  0  0  0  0  0  0  0
   59.2446   32.0225   52.0216 H   0  0  0  0  0  0  0  0  0  0  0  0
   58.0882   32.2023   50.6343 H   0  0  0  0  0  0  0  0  0  0  0  0
  1  2  1  0
  2  3  2  0
  3  4  1  0
  4  5  2  0
  5  6  1  0
  6  7  2  0
  7  8  1  0
  8  9  2  0
  8 10  2  0
  8 11  1  0
 11 12  1  0
 12 13  2  0
 13 14  1  0
 14 15  2  0
 15 16  1  0
 16 17  2  0
 17 18  1  0
  7 19  1  0
 19 20  2  0
 20 21  1  0
 21 22  2  0
 21 23  1  0
 23 24  1  0
 24 25  1  0
 25 26  1  0
 26 27  2  0
 26 28  1  0
 23  2  1  0
 20  4  1  0
 17 12  1  0
  1 29  1  0
  1 30  1  0
  1 31  1  0
  5 32  1  0
  6 33  1  0
 11 34  1  0
 13 35  1  0
 14 36  1  0
 15 37  1  0
 16 38  1  0
 19 39  1  0
 24 40  1  0
 24 41  1  0
 25 42  1  0
 25 43  1  0
M  CHG  2  18  -1  28  -1
M  END
>  <UniqueID>  (55) 
51

>  <SMILES>  (55) 
Cc1nc2ccc(S(=O)(=O)Nc3ccccc3[O-])cc2c(=O)n1CCC(=O)[O-]

>  <Energy>  (55) 
54.21646247583332

>  <Genealogy>  (55) 
Cc1nc2ccc(S(=O)(=O)Nc3ccccc3[O-])cc2c(=O)n1CCC(=O)[O-] (protonated)
Cc1nc2ccc(S(=O)(=O)Nc3ccccc3[O-])cc2c(=O)n1CCC(=O)[O-] (3D coordinates assigned)
Cc1nc2ccc(S(=O)(=O)Nc3ccccc3[O-])cc2c(=O)n1CCC(=O)[O-] (optimized conformer: 54.21646247583332 kcal/mol)

>  <smiles>  (55) 
Cc1nc2ccc(S(=O)(=O)Nc3ccccc3O)cc2c(=O)n1CCC(=O)O

>  <score_type>  (55) 
oracle

>  <origin>  (55) 
adg

>  <m_score__min__energy>  (55) 
-13.16

>  <m_primary>  (55) 
energy

$$$$
55:0
     RDKit          3D

 49 51  0  0  0  0  0  0  0  0999 V2000
   57.5580   31.3922   43.1772 H   0  0  0  0  0  0  0  0  0  0  0  0
   57.3940   30.3810   43.5780 C   0  0  0  0  0  0  0  0  0  0  0  0
   56.8363   29.6391   42.9876 H   0  0  0  0  0  0  0  0  0  0  0  0
   57.8750   30.0520   44.7890 C   0  0  0  0  0  0  0  0  0  0  0  0
   57.7500   28.8100   45.4360 C   0  0  0  0  0  0  0  0  0  0  0  0
   57.2840   27.6220   44.9990 C   0  0  0  0  0  0  0  0  0  0  0  0
   56.9506   27.5685   43.9521 H   0  0  0  0  0  0  0  0  0  0  0  0
   57.1820   26.3870   45.8020 C   0  0  0  0  0  0  0  0  0  0  0  0
   55.9420   25.9260   46.2780 C   0  0  0  0  0  0  0  0  0  0  0  0
   54.7770   26.6420   46.0310 O   0  0  0  0  0  0  0  0  0  0  0  0
   55.8760   24.7680   46.9810 N   0  0  0  0  0  0  0  0  0  0  0  0
   56.9880   24.0260   47.2190 C   0  0  0  0  0  0  0  0  0  0  0  0
   56.9020   22.9580   47.8780 O   0  0  0  0  0  0  0  0  0  0  0  0
   58.1910   24.4330   46.7390 N   0  0  0  0  0  0  0  0  0  0  0  0
   58.3110   25.5850   46.0310 C   0  0  0  0  0  0  0  0  0  0  0  0
   59.4410   25.9250   45.5910 O   0  0  0  0  0  0  0  0  0  0  0  0
   58.2380   28.9900   46.7170 C   0  0  0  0  0  0  0  0  0  0  0  0
   58.2630   28.2382   47.5196 H   0  0  0  0  0  0  0  0  0  0  0  0
   58.6870   30.2900   46.7970 C   0  0  0  0  0  0  0  0  0  0  0  0
   59.3210   30.8880   48.0180 C   0  0  0  0  0  0  0  0  0  0  0  0
   58.8619   30.4550   48.9190 H   0  0  0  0  0  0  0  0  0  0  0  0
   60.3993   30.6704   48.0152 H   0  0  0  0  0  0  0  0  0  0  0  0
   59.1667   31.9771   48.0152 H   0  0  0  0  0  0  0  0  0  0  0  0
   58.4820   30.9380   45.6260 N   0  0  0  0  0  0  0  0  0  0  0  0
   58.7950   32.3560   45.3730 C   0  0  0  0  0  0  0  0  0  0  0  0
   59.6847   32.6368   45.9558 H   0  0  0  0  0  0  0  0  0  0  0  0
   58.9805   32.4857   44.2965 H   0  0  0  0  0  0  0  0  0  0  0  0
   57.6270   33.2600   45.7770 C   0  0  0  0  0  0  0  0  0  0  0  0
   57.1790   33.7007   44.8741 H   0  0  0  0  0  0  0  0  0  0  0  0
   56.8767   32.6602   46.3131 H   0  0  0  0  0  0  0  0  0  0  0  0
   58.1010   34.3350   46.6580 N   0  0  0  0  0  0  0  0  0  0  0  0
   57.4060   35.1180   46.6420 H   0  0  0  0  0  0  0  0  0  0  0  0
   59.6200   34.9750   46.1090 S   0  0  0  0  0  0  0  0  0  0  0  0
   59.7950   34.7110   44.6380 O   0  0  0  0  0  0  0  0  0  0  0  0
   59.6450   36.4610   46.3330 O   0  0  0  0  0  0  0  0  0  0  0  0
   60.9280   34.2300   47.0210 C   0  0  0  0  0  0  0  0  0  0  0  0
   62.1040   33.8220   46.3760 C   0  0  0  0  0  0  0  0  0  0  0  0
   62.2283   34.0019   45.2979 H   0  0  0  0  0  0  0  0  0  0  0  0
   63.1200   33.1870   47.0980 C   0  0  0  0  0  0  0  0  0  0  0  0
   64.0329   32.8543   46.5824 H   0  0  0  0  0  0  0  0  0  0  0  0
   62.9790   32.9730   48.4770 C   0  0  0  0  0  0  0  0  0  0  0  0
   64.0430   32.2430   49.2400 C   0  0  0  0  0  0  0  0  0  0  0  0
   63.8680   32.3631   50.3193 H   0  0  0  0  0  0  0  0  0  0  0  0
   64.0128   31.1745   48.9803 H   0  0  0  0  0  0  0  0  0  0  0  0
   65.0290   32.6557   48.9803 H   0  0  0  0  0  0  0  0  0  0  0  0
   61.7980   33.3740   49.1190 C   0  0  0  0  0  0  0  0  0  0  0  0
   61.6745   33.1978   50.1978 H   0  0  0  0  0  0  0  0  0  0  0  0
   60.7780   33.9960   48.3950 C   0  0  0  0  0  0  0  0  0  0  0  0
   59.8532   34.3034   48.9052 H   0  0  0  0  0  0  0  0  0  0  0  0
  1  2  1  0
  2  3  1  0
  2  4  2  0
  4  5  1  0
  5  6  2  0
  6  7  1  0
  6  8  1  0
  8  9  2  0
  9 10  1  0
  9 11  1  0
 11 12  1  0
 12 13  2  0
 12 14  1  0
 14 15  1  0
 15 16  2  0
  5 17  1  0
 17 18  1  0
 17 19  2  0
 19 20  1  0
 20 21  1  0
 20 22  1  0
 20 23  1  0
 19 24  1  0
 24 25  1  0
 25 26  1  0
 25 27  1  0
 25 28  1  0
 28 29  1  0
 28 30  1  0
 28 31  1  0
 31 32  1  0
 31 33  1  0
 33 34  2  0
 33 35  2  0
 33 36  1  0
 36 37  2  0
 37 38  1  0
 37 39  1  0
 39 40  1  0
 39 41  2  0
 41 42  1  0
 42 43  1  0
 42 44  1  0
 42 45  1  0
 41 46  1  0
 46 47  1  0
 46 48  2  0
 48 49  1  0
 24  4  1  0
 48 36  1  0
 15  8  1  0
M  CHG  3  10  -1  11  -1  14  -1
M  END
>  <UniqueID>  (56) 
52

>  <SMILES>  (56) 
C=c1/c(=C\c2c([O-])[n-]c(=O)[n-]c2=O)cc(C)n1CCNS(=O)(=O)c1ccc(C)cc1

>  <Energy>  (56) 
83.68932363083212

>  <Genealogy>  (56) 
C=c1c(=Cc2c([O-])[n-]c(=O)[n-]c2=O)cc(C)n1CCNS(=O)(=O)c1ccc(C)cc1 (protonated)
C=c1/c(=C\c2c([O-])[n-]c(=O)[n-]c2=O)cc(C)n1CCNS(=O)(=O)c1ccc(C)cc1 (cis-trans isomerization)
C=c1/c(=C\c2c([O-])[n-]c(=O)[n-]c2=O)cc(C)n1CCNS(=O)(=O)c1ccc(C)cc1 (3D coordinates assigned)
C=c1/c(=C\c2c([O-])[n-]c(=O)[n-]c2=O)cc(C)n1CCNS(=O)(=O)c1ccc(C)cc1 (optimized conformer: 83.68932363083212 kcal/mol)

>  <smiles>  (56) 
C=c1c(=Cc2c(O)[nH]c(=O)[nH]c2=O)cc(C)n1CCNS(=O)(=O)c1ccc(C)cc1

>  <score_type>  (56) 
oracle

>  <origin>  (56) 
adg

>  <m_score__min__energy>  (56) 
-17.260000000000002

>  <m_primary>  (56) 
energy

$$$$
56:0
     RDKit          3D

 78 82  0  0  0  0  0  0  0  0999 V2000
   50.0870   32.3400   49.7620 H   0  0  0  0  0  0  0  0  0  0  0  0
   51.0410   32.2980   50.1830 N   0  0  0  0  0  0  0  0  0  0  0  0
   51.2190   32.3210   51.5990 C   0  0  0  0  0  0  0  0  0  0  0  0
   50.6260   33.2030   52.2760 O   0  0  0  0  0  0  0  0  0  0  0  0
   52.0920   31.3250   52.2650 C   0  0  0  0  0  0  0  0  0  0  0  0
   51.5640   30.4370   53.2200 C   0  0  0  0  0  0  0  0  0  0  0  0
   50.4962   30.4851   53.4796 H   0  0  0  0  0  0  0  0  0  0  0  0
   52.3880   29.4940   53.8410 C   0  0  0  0  0  0  0  0  0  0  0  0
   51.9654   28.8021   54.5845 H   0  0  0  0  0  0  0  0  0  0  0  0
   53.7460   29.4270   53.5210 C   0  0  0  0  0  0  0  0  0  0  0  0
   54.3880   28.6780   54.0077 H   0  0  0  0  0  0  0  0  0  0  0  0
   54.2930   30.3120   52.5810 C   0  0  0  0  0  0  0  0  0  0  0  0
   55.7550   30.2410   52.2230 C   0  0  0  0  0  0  0  0  0  0  0  0
   56.0970   31.2356   51.9009 H   0  0  0  0  0  0  0  0  0  0  0  0
   55.8859   29.5118   51.4099 H   0  0  0  0  0  0  0  0  0  0  0  0
   56.5470   29.8100   53.3750 N   0  0  0  0  0  0  0  0  0  0  0  0
   56.0340   29.3360   54.1520 H   0  0  0  0  0  0  0  0  0  0  0  0
   57.9740   29.9710   53.4930 C   0  0  0  0  0  0  0  0  0  0  0  0
   58.8750   29.2430   52.6910 C   0  0  0  0  0  0  0  0  0  0  0  0
   58.4924   28.5092   51.9664 H   0  0  0  0  0  0  0  0  0  0  0  0
   60.2520   29.4480   52.8110 C   0  0  0  0  0  0  0  0  0  0  0  0
   60.9475   28.8656   52.1889 H   0  0  0  0  0  0  0  0  0  0  0  0
   60.7530   30.3920   53.7200 C   0  0  0  0  0  0  0  0  0  0  0  0
   62.2030   30.6250   53.8510 C   0  0  0  0  0  0  0  0  0  0  0  0
   62.6822   30.3642   54.8062 H   0  0  0  0  0  0  0  0  0  0  0  0
   62.9740   31.1340   52.8810 C   0  0  0  0  0  0  0  0  0  0  0  0
   63.7564   31.8540   53.1628 H   0  0  0  0  0  0  0  0  0  0  0  0
   62.8310   30.7810   51.4520 C   0  0  0  0  0  0  0  0  0  0  0  0
   62.6340   29.5660   51.1810 O   0  0  0  0  0  0  0  0  0  0  0  0
   62.8560   31.7890   50.3330 C   0  0  0  0  0  0  0  0  0  0  0  0
   64.0440   32.1230   49.7540 C   0  0  0  0  0  0  0  0  0  0  0  0
   65.3800   31.7380   50.3320 C   0  0  0  0  0  0  0  0  0  0  0  0
   65.3228   31.7545   51.4304 H   0  0  0  0  0  0  0  0  0  0  0  0
   65.6479   30.7261   49.9939 H   0  0  0  0  0  0  0  0  0  0  0  0
   66.1453   32.4522   49.9939 H   0  0  0  0  0  0  0  0  0  0  0  0
   64.0880   32.8150   48.5020 N   0  0  0  0  0  0  0  0  0  0  0  0
   63.0670   33.3470   47.9120 C   0  0  0  0  0  0  0  0  0  0  0  0
   63.3270   34.1550   46.6720 C   0  0  0  0  0  0  0  0  0  0  0  0
   63.6526   35.1668   46.9552 H   0  0  0  0  0  0  0  0  0  0  0  0
   64.1143   33.6697   46.0765 H   0  0  0  0  0  0  0  0  0  0  0  0
   62.4044   34.2199   46.0765 H   0  0  0  0  0  0  0  0  0  0  0  0
   61.7320   33.3870   48.6150 C   0  0  1  0  0  0  0  0  0  0  0  0
   61.7227   34.3311   49.1795 H   0  0  0  0  0  0  0  0  0  0  0  0
   60.5680   33.3910   47.6310 C   0  0  0  0  0  0  0  0  0  0  0  0
   59.6960   34.2970   47.7230 O   0  0  0  0  0  0  0  0  0  0  0  0
   60.5420   32.5460   46.4690 N   0  0  0  0  0  0  0  0  0  0  0  0
   60.0870   31.3310   46.3640 C   0  0  0  0  0  0  0  0  0  0  0  0
   60.7270   30.2780   46.9460 N   0  0  0  0  0  0  0  0  0  0  0  0
   60.2580   29.0050   46.8460 C   0  0  0  0  0  0  0  0  0  0  0  0
   60.8052   28.1782   47.3226 H   0  0  0  0  0  0  0  0  0  0  0  0
   59.0830   28.7480   46.1390 C   0  0  0  0  0  0  0  0  0  0  0  0
   58.7024   27.7200   46.0476 H   0  0  0  0  0  0  0  0  0  0  0  0
   58.3960   29.8100   45.5490 C   0  0  0  0  0  0  0  0  0  0  0  0
   57.4650   29.6241   44.9935 H   0  0  0  0  0  0  0  0  0  0  0  0
   58.8940   31.1090   45.6660 C   0  0  0  0  0  0  0  0  0  0  0  0
   58.3526   31.9524   45.2127 H   0  0  0  0  0  0  0  0  0  0  0  0
   61.5550   32.2050   49.6250 C   0  0  2  0  0  0  0  0  0  0  0  0
   61.2720   31.3005   49.0666 H   0  0  0  0  0  0  0  0  0  0  0  0
   60.4380   32.5840   50.6010 C   0  0  0  0  0  0  0  0  0  0  0  0
   60.6830   33.6330   51.5130 C   0  0  0  0  0  0  0  0  0  0  0  0
   61.6836   34.0878   51.5574 H   0  0  0  0  0  0  0  0  0  0  0  0
   59.6810   34.1020   52.3570 C   0  0  0  0  0  0  0  0  0  0  0  0
   59.8913   34.9259   53.0548 H   0  0  0  0  0  0  0  0  0  0  0  0
   58.4140   33.5300   52.3190 C   0  0  0  0  0  0  0  0  0  0  0  0
   57.6193   33.9135   52.9758 H   0  0  0  0  0  0  0  0  0  0  0  0
   58.1480   32.4720   51.4510 C   0  0  0  0  0  0  0  0  0  0  0  0
   57.1439   32.0231   51.4374 H   0  0  0  0  0  0  0  0  0  0  0  0
   59.1460   31.9670   50.5890 C   0  0  0  0  0  0  0  0  0  0  0  0
   58.8260   30.7610   49.7210 C   0  0  0  0  0  0  0  0  0  0  0  0
   58.4060   31.1340   48.4550 F   0  0  0  0  0  0  0  0  0  0  0  0
   57.8080   30.0220   50.2970 F   0  0  0  0  0  0  0  0  0  0  0  0
   59.9470   29.9660   49.5780 F   0  0  0  0  0  0  0  0  0  0  0  0
   59.8630   31.0870   54.5470 C   0  0  0  0  0  0  0  0  0  0  0  0
   60.2501   31.7935   55.2960 H   0  0  0  0  0  0  0  0  0  0  0  0
   58.4850   30.8880   54.4260 C   0  0  0  0  0  0  0  0  0  0  0  0
   57.7942   31.4548   55.0675 H   0  0  0  0  0  0  0  0  0  0  0  0
   53.4610   31.2520   51.9500 C   0  0  0  0  0  0  0  0  0  0  0  0
   53.8846   31.9381   51.2018 H   0  0  0  0  0  0  0  0  0  0  0  0
  1  2  1  0
  2  3  1  0
  3  4  2  0
  3  5  1  0
  5  6  2  0
  6  7  1  0
  6  8  1  0
  8  9  1  0
  8 10  2  0
 10 11  1  0
 10 12  1  0
 12 13  1  0
 13 14  1  0
 13 15  1  0
 13 16  1  0
 16 17  1  0
 16 18  1  0
 18 19  2  0
 19 20  1  0
 19 21  1  0
 21 22  1  0
 21 23  2  0
 23 24  1  0
 24 25  1  0
 24 26  2  0
 26 27  1  0
 26 28  1  0
 28 29  2  0
 28 30  1  0
 30 31  2  0
 31 32  1  0
 32 33  1  0
 32 34  1  0
 32 35  1  0
 31 36  1  0
 36 37  2  0
 37 38  1  0
 38 39  1  0
 38 40  1  0
 38 41  1  0
 37 42  1  0
 42 43  1  1
 42 44  1  0
 44 45  2  0
 44 46  1  0
 46 47  2  3
 47 48  1  0
 48 49  1  0
 49 50  1  0
 49 51  2  0
 51 52  1  0
 51 53  1  0
 53 54  1  0
 53 55  2  0
 55 56  1  0
 42 57  1  0
 57 58  1  6
 57 59  1  0
 59 60  2  0
 60 61  1  0
 60 62  1  0
 62 63  1  0
 62 64  2  0
 64 65  1  0
 64 66  1  0
 66 67  1  0
 66 68  2  0
 68 69  1  0
 69 70  1  0
 69 71  1  0
 69 72  1  0
 23 73  1  0
 73 74  1  0
 73 75  2  0
 75 76  1  0
 12 77  2  0
 77 78  1  0
 77  5  1  0
 75 18  1  0
 57 30  1  0
 68 59  1  0
 55 47  1  0
M  CHG  2   2  -1  48  -1
M  END
>  <UniqueID>  (57) 
53

>  <SMILES>  (57) 
CC1=NC(C)=C(C(=O)/C=C\c2ccc(NCc3cccc(C([NH-])=O)c3)cc2)[C@@H](c2ccccc2C(F)(F)F)[C@@H]1C(=O)N=c1cccc[n-]1

>  <Energy>  (57) 
116.81885619427247

>  <Genealogy>  (57) 
CC1=NC(C)=C(C(=O)C=Cc2ccc(NCc3cccc(C([NH-])=O)c3)cc2)C(c2ccccc2C(F)(F)F)C1C(=O)N=c1cccc[n-]1 (protonated)
CC1=NC(C)=C(C(=O)C=Cc2ccc(NCc3cccc(C([NH-])=O)c3)cc2)[C@@H](c2ccccc2C(F)(F)F)[C@@H]1C(=O)N=c1cccc[n-]1 (chirality)
CC1=NC(C)=C(C(=O)/C=C\c2ccc(NCc3cccc(C([NH-])=O)c3)cc2)[C@@H](c2ccccc2C(F)(F)F)[C@@H]1C(=O)N=c1cccc[n-]1 (cis-trans isomerization)
CC1=NC(C)=C(C(=O)/C=C\c2ccc(NCc3cccc(C([NH-])=O)c3)cc2)[C@@H](c2ccccc2C(F)(F)F)[C@@H]1C(=O)N=c1cccc[n-]1 (3D coordinates assigned)
CC1=NC(C)=C(C(=O)/C=C\c2ccc(NCc3cccc(C([NH-])=O)c3)cc2)[C@@H](c2ccccc2C(F)(F)F)[C@@H]1C(=O)N=c1cccc[n-]1 (nonaromatic ring conformer: 116.81885619427247 kcal/mol)

>  <smiles>  (57) 
CC1=NC(C)=C(C(=O)C=Cc2ccc(NCc3cccc(C(N)=O)c3)cc2)C(c2ccccc2C(F)(F)F)C1C(=O)N=c1cccc[nH]1

>  <score_type>  (57) 
oracle

>  <origin>  (57) 
adg

>  <m_score__min__energy>  (57) 
-16.550000000000001

>  <m_primary>  (57) 
energy

$$$$
57:0
     RDKit          3D

 56 59  0  0  0  0  0  0  0  0999 V2000
   57.3400   23.7960   43.4810 O   0  0  0  0  0  0  0  0  0  0  0  0
   57.0880   24.4430   44.4890 C   0  0  0  0  0  0  0  0  0  0  0  0
   56.3410   23.7460   45.6090 C   0  0  0  0  0  0  0  0  0  0  0  0
   54.8610   23.9150   45.4570 C   0  0  0  0  0  0  0  0  0  0  0  0
   54.0040   22.9060   45.2180 N   0  0  0  0  0  0  0  0  0  0  0  0
   52.7990   23.5160   45.2190 C   0  0  0  0  0  0  0  0  0  0  0  0
   51.7230   22.8920   45.0240 O   0  0  0  0  0  0  0  0  0  0  0  0
   52.8360   24.8470   45.4490 N   0  0  0  0  0  0  0  0  0  0  0  0
   54.1490   25.0810   45.6020 C   0  0  0  0  0  0  0  0  0  0  0  0
   54.6850   26.3340   45.8770 O   0  0  0  0  0  0  0  0  0  0  0  0
   57.4500   25.8540   44.5280 N   0  0  1  0  0  0  0  0  0  0  0  0
   58.5030   26.0870   45.5510 C   0  0  0  0  0  0  0  0  0  0  0  0
   59.4200   27.2890   45.2370 C   0  0  0  0  0  0  0  0  0  0  0  0
   58.6690   28.4340   44.5300 C   0  0  2  0  0  0  0  0  0  0  0  0
   57.7080   29.1520   45.5100 C   0  0  0  0  0  0  0  0  0  0  0  0
   58.4140   30.2090   46.3250 C   0  0  0  0  0  0  0  0  0  0  0  0
   58.6430   31.4880   45.7930 C   0  0  0  0  0  0  0  0  0  0  0  0
   59.3050   32.4600   46.5480 C   0  0  0  0  0  0  0  0  0  0  0  0
   59.7460   32.1670   47.8530 C   0  0  0  0  0  0  0  0  0  0  0  0
   60.4120   33.1070   48.6570 O   0  0  0  0  0  0  0  0  0  0  0  0
   61.7630   32.9950   49.1120 C   0  0  0  0  0  0  0  0  0  0  0  0
   62.4600   31.7980   48.4560 C   0  0  0  0  0  0  0  0  0  0  0  0
   63.3760   32.3510   47.3660 C   0  0  0  0  0  0  0  0  0  0  0  0
   63.1220   33.8490   47.3040 C   0  0  0  0  0  0  0  0  0  0  0  0
   62.5470   34.2180   48.6570 C   0  0  0  0  0  0  0  0  0  0  0  0
   59.5160   30.8900   48.3800 C   0  0  0  0  0  0  0  0  0  0  0  0
   58.8560   29.9180   47.6250 C   0  0  0  0  0  0  0  0  0  0  0  0
   57.9530   27.9260   43.2480 C   0  0  0  0  0  0  0  0  0  0  0  0
   57.8090   26.3930   43.1990 C   0  0  0  0  0  0  0  0  0  0  0  0
   56.6546   24.1757   46.5718 H   0  0  0  0  0  0  0  0  0  0  0  0
   56.5758   22.6720   45.5700 H   0  0  0  0  0  0  0  0  0  0  0  0
   56.5870   26.3660   44.8300 H   0  0  0  0  0  0  0  0  0  0  0  0
   59.1265   25.1834   45.6193 H   0  0  0  0  0  0  0  0  0  0  0  0
   57.9878   26.3146   46.4958 H   0  0  0  0  0  0  0  0  0  0  0  0
   60.2380   26.9481   44.5854 H   0  0  0  0  0  0  0  0  0  0  0  0
   59.8005   27.6783   46.1928 H   0  0  0  0  0  0  0  0  0  0  0  0
   59.4033   29.1838   44.2006 H   0  0  0  0  0  0  0  0  0  0  0  0
   56.9028   29.6288   44.9318 H   0  0  0  0  0  0  0  0  0  0  0  0
   57.3080   28.3991   46.2051 H   0  0  0  0  0  0  0  0  0  0  0  0
   58.2992   31.7264   44.7757 H   0  0  0  0  0  0  0  0  0  0  0  0
   59.4824   33.4582   46.1212 H   0  0  0  0  0  0  0  0  0  0  0  0
   61.7368   32.8895   50.2066 H   0  0  0  0  0  0  0  0  0  0  0  0
   63.0521   31.2503   49.2039 H   0  0  0  0  0  0  0  0  0  0  0  0
   61.7225   31.1016   48.0304 H   0  0  0  0  0  0  0  0  0  0  0  0
   64.4284   32.1546   47.6188 H   0  0  0  0  0  0  0  0  0  0  0  0
   63.1719   31.8735   46.3963 H   0  0  0  0  0  0  0  0  0  0  0  0
   64.0621   34.3913   47.1248 H   0  0  0  0  0  0  0  0  0  0  0  0
   62.4384   34.1136   46.4839 H   0  0  0  0  0  0  0  0  0  0  0  0
   63.3542   34.4442   49.3692 H   0  0  0  0  0  0  0  0  0  0  0  0
   61.9104   35.1132   48.5999 H   0  0  0  0  0  0  0  0  0  0  0  0
   59.8582   30.6505   49.3976 H   0  0  0  0  0  0  0  0  0  0  0  0
   58.6816   28.9191   48.0514 H   0  0  0  0  0  0  0  0  0  0  0  0
   58.5334   28.2506   42.3718 H   0  0  0  0  0  0  0  0  0  0  0  0
   56.9377   28.3492   43.2517 H   0  0  0  0  0  0  0  0  0  0  0  0
   58.7639   25.9517   42.8774 H   0  0  0  0  0  0  0  0  0  0  0  0
   57.0090   26.1377   42.4885 H   0  0  0  0  0  0  0  0  0  0  0  0
  1  2  2  0
  2  3  1  0
  3  4  1  0
  4  5  1  0
  5  6  1  0
  6  7  2  0
  6  8  1  0
  8  9  1  0
  9 10  1  0
  2 11  1  0
 11 12  1  0
 12 13  1  0
 13 14  1  0
 14 15  1  0
 15 16  1  0
 16 17  2  0
 17 18  1  0
 18 19  2  0
 19 20  1  0
 20 21  1  0
 21 22  1  0
 22 23  1  0
 23 24  1  0
 24 25  1  0
 19 26  1  0
 26 27  2  0
 14 28  1  0
 28 29  1  0
  9  4  2  0
 29 11  1  0
 27 16  1  0
 25 21  1  0
  3 30  1  0
  3 31  1  0
 11 32  1  1
 12 33  1  0
 12 34  1  0
 13 35  1  0
 13 36  1  0
 14 37  1  6
 15 38  1  0
 15 39  1  0
 17 40  1  0
 18 41  1  0
 21 42  1  0
 22 43  1  0
 22 44  1  0
 23 45  1  0
 23 46  1  0
 24 47  1  0
 24 48  1  0
 25 49  1  0
 25 50  1  0
 26 51  1  0
 27 52  1  0
 28 53  1  0
 28 54  1  0
 29 55  1  0
 29 56  1  0
M  CHG  4   5  -1   8  -1  10  -1  11   1
M  END
>  <UniqueID>  (58) 
54

>  <SMILES>  (58) 
O=C(Cc1[n-]c(=O)[n-]c1[O-])[NH+]1CCC(Cc2ccc(OC3CCCC3)cc2)CC1

>  <Energy>  (58) 
94.86747848720398

>  <Genealogy>  (58) 
O=C(Cc1[n-]c(=O)[n-]c1[O-])[NH+]1CCC(Cc2ccc(OC3CCCC3)cc2)CC1 (protonated)
O=C(Cc1[n-]c(=O)[n-]c1[O-])[NH+]1CCC(Cc2ccc(OC3CCCC3)cc2)CC1 (3D coordinates assigned)
O=C(Cc1[n-]c(=O)[n-]c1[O-])[NH+]1CCC(Cc2ccc(OC3CCCC3)cc2)CC1 (nonaromatic ring conformer: 94.86747848720398 kcal/mol)

>  <smiles>  (58) 
O=C(Cc1[nH]c(=O)[nH]c1O)N1CCC(Cc2ccc(OC3CCCC3)cc2)CC1

>  <score_type>  (58) 
oracle

>  <origin>  (58) 
adg

>  <m_score__min__energy>  (58) 
-16.039999999999999

>  <m_primary>  (58) 
energy

$$$$
58:0
     RDKit          3D

 28 29  0  0  0  0  0  0  0  0999 V2000
   57.3175   32.5577   43.2539 H   0  0  0  0  0  0  0  0  0  0  0  0
   57.7560   32.6820   44.2550 C   0  0  0  0  0  0  0  0  0  0  0  0
   58.4160   33.8700   44.5820 C   0  0  0  0  0  0  0  0  0  0  0  0
   58.5211   34.6635   43.8274 H   0  0  0  0  0  0  0  0  0  0  0  0
   58.9450   34.0550   45.8680 C   0  0  0  0  0  0  0  0  0  0  0  0
   59.6870   35.3140   46.2080 C   0  0  0  0  0  0  0  0  0  0  0  0
   59.7490   35.4192   47.3012 H   0  0  0  0  0  0  0  0  0  0  0  0
   60.7018   35.2669   45.7860 H   0  0  0  0  0  0  0  0  0  0  0  0
   59.1542   36.1789   45.7860 H   0  0  0  0  0  0  0  0  0  0  0  0
   58.8240   33.0280   46.8160 C   0  0  0  0  0  0  0  0  0  0  0  0
   59.2508   33.1580   47.8215 H   0  0  0  0  0  0  0  0  0  0  0  0
   58.1640   31.8410   46.4890 C   0  0  0  0  0  0  0  0  0  0  0  0
   58.0459   31.0529   47.2472 H   0  0  0  0  0  0  0  0  0  0  0  0
   57.6500   31.6500   45.1940 C   0  0  0  0  0  0  0  0  0  0  0  0
   56.9190   30.4640   44.8520 N   0  0  0  0  0  0  0  0  0  0  0  0
   57.1540   29.2460   45.2550 C   0  0  0  0  0  0  0  0  0  0  0  0
   58.4320   28.9000   45.5590 N   0  0  0  0  0  0  0  0  0  0  0  0
   58.7490   27.6510   45.9920 C   0  0  0  0  0  0  0  0  0  0  0  0
   60.1690   27.3090   46.3090 C   0  0  0  0  0  0  0  0  0  0  0  0
   60.3035   27.2766   47.4003 H   0  0  0  0  0  0  0  0  0  0  0  0
   60.4140   26.3262   45.8800 H   0  0  0  0  0  0  0  0  0  0  0  0
   60.8346   28.0725   45.8800 H   0  0  0  0  0  0  0  0  0  0  0  0
   57.7410   26.6970   46.1360 C   0  0  0  0  0  0  0  0  0  0  0  0
   57.9772   25.6770   46.4734 H   0  0  0  0  0  0  0  0  0  0  0  0
   56.4270   27.0640   45.8430 C   0  0  0  0  0  0  0  0  0  0  0  0
   55.4960   26.2270   45.9830 O   0  0  0  0  0  0  0  0  0  0  0  0
   56.1510   28.3270   45.4150 N   0  0  0  0  0  0  0  0  0  0  0  0
   55.1520   28.5780   45.2500 H   0  0  0  0  0  0  0  0  0  0  0  0
  1  2  1  0
  2  3  2  0
  3  4  1  0
  3  5  1  0
  5  6  1  0
  6  7  1  0
  6  8  1  0
  6  9  1  0
  5 10  2  0
 10 11  1  0
 10 12  1  0
 12 13  1  0
 12 14  2  0
 14 15  1  0
 15 16  2  0
 16 17  1  0
 17 18  1  0
 18 19  1  0
 19 20  1  0
 19 21  1  0
 19 22  1  0
 18 23  2  0
 23 24  1  0
 23 25  1  0
 25 26  2  0
 25 27  1  0
 27 28  1  0
 14  2  1  0
 27 16  1  0
M  CHG  1  17  -1
M  END
>  <UniqueID>  (59) 
55

>  <SMILES>  (59) 
Cc1ccc(/N=c2/[n-]c(C)cc(=O)[nH]2)cc1

>  <Energy>  (59) 
36.18553061259734

>  <Genealogy>  (59) 
Cc1ccc(N=c2[n-]c(C)cc(=O)[nH]2)cc1 (protonated)
Cc1ccc(/N=c2/[n-]c(C)cc(=O)[nH]2)cc1 (cis-trans isomerization)
Cc1ccc(/N=c2/[n-]c(C)cc(=O)[nH]2)cc1 (3D coordinates assigned)
Cc1ccc(/N=c2/[n-]c(C)cc(=O)[nH]2)cc1 (optimized conformer: 36.18553061259734 kcal/mol)

>  <smiles>  (59) 
Cc1ccc(N=c2[nH]c(C)cc(=O)[nH]2)cc1

>  <score_type>  (59) 
oracle

>  <origin>  (59) 
adg

>  <m_score__min__energy>  (59) 
-8.7100000000000009

>  <m_primary>  (59) 
energy

$$$$
59:0
     RDKit          3D

 43 45  0  0  0  0  0  0  0  0999 V2000
   55.9010   27.5240   45.6050 O   0  0  0  0  0  0  0  0  0  0  0  0
   56.9070   28.2810   45.5630 C   0  0  0  0  0  0  0  0  0  0  0  0
   57.0880   29.1900   44.3830 C   0  0  0  0  0  0  0  0  0  0  0  0
   56.4830   30.4510   44.6490 O   0  0  0  0  0  0  0  0  0  0  0  0
   57.2260   31.6020   44.9280 C   0  0  0  0  0  0  0  0  0  0  0  0
   57.7960   32.3230   43.8750 C   0  0  0  0  0  0  0  0  0  0  0  0
   58.5380   33.4730   44.1520 C   0  0  0  0  0  0  0  0  0  0  0  0
   58.7030   33.8910   45.4760 C   0  0  0  0  0  0  0  0  0  0  0  0
   59.6310   35.3330   45.8420 Cl  0  0  0  0  0  0  0  0  0  0  0  0
   58.1190   33.1450   46.5040 C   0  0  0  0  0  0  0  0  0  0  0  0
   57.4000   32.0290   46.2100 N   0  0  0  0  0  0  0  0  0  0  0  0
   57.8260   28.2710   46.6630 N   0  0  0  0  0  0  0  0  0  0  0  0
   58.9240   29.1710   46.8630 C   0  0  0  0  0  0  0  0  0  0  0  0
   59.9520   29.2100   45.9130 C   0  0  0  0  0  0  0  0  0  0  0  0
   61.0270   30.0890   46.0680 C   0  0  0  0  0  0  0  0  0  0  0  0
   61.0810   30.9500   47.1730 C   0  0  0  0  0  0  0  0  0  0  0  0
   62.4430   32.0600   47.3720 S   0  0  0  0  0  0  0  0  0  0  0  0
   63.6830   31.4190   46.8160 O   0  0  0  0  0  0  0  0  0  0  0  0
   62.1730   33.3120   46.5830 O   0  0  0  0  0  0  0  0  0  0  0  0
   62.7260   32.4920   49.0410 N   0  0  0  0  0  0  0  0  0  0  0  0
   64.1510   32.5230   49.3670 C   0  0  0  0  0  0  0  0  0  0  0  0
   64.3010   33.4730   50.5460 C   0  0  0  0  0  0  0  0  0  0  0  0
   63.0400   34.3260   50.5380 C   0  0  0  0  0  0  0  0  0  0  0  0
   62.2230   33.8280   49.3560 C   0  0  0  0  0  0  0  0  0  0  0  0
   60.0330   30.9440   48.1030 C   0  0  0  0  0  0  0  0  0  0  0  0
   58.9580   30.0640   47.9480 C   0  0  0  0  0  0  0  0  0  0  0  0
   58.1621   29.3329   44.1934 H   0  0  0  0  0  0  0  0  0  0  0  0
   56.6129   28.7380   43.4998 H   0  0  0  0  0  0  0  0  0  0  0  0
   57.6611   31.9871   42.8362 H   0  0  0  0  0  0  0  0  0  0  0  0
   58.9912   34.0482   43.3312 H   0  0  0  0  0  0  0  0  0  0  0  0
   58.2411   33.4608   47.5506 H   0  0  0  0  0  0  0  0  0  0  0  0
   59.9130   28.5439   45.0385 H   0  0  0  0  0  0  0  0  0  0  0  0
   61.8337   30.1055   45.3204 H   0  0  0  0  0  0  0  0  0  0  0  0
   64.5003   31.5169   49.6422 H   0  0  0  0  0  0  0  0  0  0  0  0
   64.7498   32.8570   48.5069 H   0  0  0  0  0  0  0  0  0  0  0  0
   64.3789   32.9094   51.4874 H   0  0  0  0  0  0  0  0  0  0  0  0
   65.2110   34.0858   50.4655 H   0  0  0  0  0  0  0  0  0  0  0  0
   62.4802   34.1941   51.4757 H   0  0  0  0  0  0  0  0  0  0  0  0
   63.2718   35.3979   50.4525 H   0  0  0  0  0  0  0  0  0  0  0  0
   61.1571   33.7800   49.6234 H   0  0  0  0  0  0  0  0  0  0  0  0
   62.3170   34.5035   48.4930 H   0  0  0  0  0  0  0  0  0  0  0  0
   60.0563   31.6347   48.9588 H   0  0  0  0  0  0  0  0  0  0  0  0
   58.1353   30.0704   48.6781 H   0  0  0  0  0  0  0  0  0  0  0  0
  1  2  2  0
  2  3  1  0
  3  4  1  0
  4  5  1  0
  5  6  2  0
  6  7  1  0
  7  8  2  0
  8  9  1  0
  8 10  1  0
 10 11  2  0
  2 12  1  0
 12 13  1  0
 13 14  2  0
 14 15  1  0
 15 16  2  0
 16 17  1  0
 17 18  2  0
 17 19  2  0
 17 20  1  0
 20 21  1  0
 21 22  1  0
 22 23  1  0
 23 24  1  0
 16 25  1  0
 25 26  2  0
 11  5  1  0
 26 13  1  0
 24 20  1  0
  3 27  1  0
  3 28  1  0
  6 29  1  0
  7 30  1  0
 10 31  1  0
 14 32  1  0
 15 33  1  0
 21 34  1  0
 21 35  1  0
 22 36  1  0
 22 37  1  0
 23 38  1  0
 23 39  1  0
 24 40  1  0
 24 41  1  0
 25 42  1  0
 26 43  1  0
M  CHG  1  12  -1
M  END
>  <UniqueID>  (60) 
56

>  <SMILES>  (60) 
O=C(COc1ccc(Cl)cn1)[N-]c1ccc(S(=O)(=O)N2CCCC2)cc1

>  <Energy>  (60) 
47.96169372660562

>  <Genealogy>  (60) 
O=C(COc1ccc(Cl)cn1)[N-]c1ccc(S(=O)(=O)N2CCCC2)cc1 (protonated)
O=C(COc1ccc(Cl)cn1)[N-]c1ccc(S(=O)(=O)N2CCCC2)cc1 (3D coordinates assigned)
O=C(COc1ccc(Cl)cn1)[N-]c1ccc(S(=O)(=O)N2CCCC2)cc1 (nonaromatic ring conformer: 47.96169372660562 kcal/mol)

>  <smiles>  (60) 
O=C(COc1ccc(Cl)cn1)Nc1ccc(S(=O)(=O)N2CCCC2)cc1

>  <score_type>  (60) 
oracle

>  <origin>  (60) 
adg

>  <m_score__min__energy>  (60) 
-9.6099999999999994

>  <m_primary>  (60) 
energy

$$$$
60:0
     RDKit          3D

 38 40  0  0  0  0  0  0  0  0999 V2000
   60.4040   26.8940   48.7030 C   0  0  0  0  0  0  0  0  0  0  0  0
   59.6260   27.7890   48.0810 C   0  0  0  0  0  0  0  0  0  0  0  0
   59.7810   29.0900   48.4520 N   0  0  0  0  0  0  0  0  0  0  0  0
   59.2040   30.1230   47.7900 C   0  0  0  0  0  0  0  0  0  0  0  0
   58.4520   29.8830   46.6390 C   0  0  0  0  0  0  0  0  0  0  0  0
   57.8440   31.0030   45.8850 C   0  0  0  0  0  0  0  0  0  0  0  0
   56.9970   30.7460   44.9860 O   0  0  0  0  0  0  0  0  0  0  0  0
   58.2150   32.3710   46.1420 N   0  0  0  0  0  0  0  0  0  0  0  0
   59.6150   32.7210   46.4190 C   0  0  0  0  0  0  0  0  0  0  0  0
   59.8810   34.1950   46.0800 C   0  0  0  0  0  0  0  0  0  0  0  0
   59.2070   34.5630   44.8270 N   0  0  0  0  0  0  0  0  0  0  0  0
   57.7350   34.4720   44.9250 C   0  0  0  0  0  0  0  0  0  0  0  0
   57.2380   33.4510   45.9680 C   0  0  0  0  0  0  0  0  0  0  0  0
   58.2260   28.5580   46.2510 C   0  0  0  0  0  0  0  0  0  0  0  0
   58.7440   27.4770   46.9950 C   0  0  0  0  0  0  0  0  0  0  0  0
   58.3390   26.2320   46.6340 C   0  0  0  0  0  0  0  0  0  0  0  0
   56.9500   25.7750   46.4600 C   0  0  0  0  0  0  0  0  0  0  0  0
   56.5560   24.5110   46.6940 N   0  0  0  0  0  0  0  0  0  0  0  0
   55.2520   24.5190   46.3430 C   0  0  0  0  0  0  0  0  0  0  0  0
   54.5190   23.5000   46.4360 O   0  0  0  0  0  0  0  0  0  0  0  0
   54.7970   25.7020   45.8770 N   0  0  0  0  0  0  0  0  0  0  0  0
   55.8850   26.4870   45.9410 C   0  0  0  0  0  0  0  0  0  0  0  0
   55.8990   27.8070   45.5000 O   0  0  0  0  0  0  0  0  0  0  0  0
   60.3267   25.8267   48.4481 H   0  0  0  0  0  0  0  0  0  0  0  0
   61.1204   27.2261   49.4688 H   0  0  0  0  0  0  0  0  0  0  0  0
   59.3287   31.1512   48.1604 H   0  0  0  0  0  0  0  0  0  0  0  0
   59.8258   32.5516   47.4852 H   0  0  0  0  0  0  0  0  0  0  0  0
   60.2678   32.0908   45.7971 H   0  0  0  0  0  0  0  0  0  0  0  0
   59.5013   34.8285   46.8952 H   0  0  0  0  0  0  0  0  0  0  0  0
   60.9642   34.3431   45.9589 H   0  0  0  0  0  0  0  0  0  0  0  0
   59.5370   33.9160   44.0730 H   0  0  0  0  0  0  0  0  0  0  0  0
   57.3445   35.4634   45.1981 H   0  0  0  0  0  0  0  0  0  0  0  0
   57.3714   34.1288   43.9452 H   0  0  0  0  0  0  0  0  0  0  0  0
   57.0889   33.9617   46.9308 H   0  0  0  0  0  0  0  0  0  0  0  0
   56.2905   33.0176   45.6153 H   0  0  0  0  0  0  0  0  0  0  0  0
   57.6324   28.3549   45.3475 H   0  0  0  0  0  0  0  0  0  0  0  0
   59.1295   25.4888   46.4530 H   0  0  0  0  0  0  0  0  0  0  0  0
   55.1330   28.1990   44.9660 H   0  0  0  0  0  0  0  0  0  0  0  0
  1  2  2  0
  2  3  1  0
  3  4  2  0
  4  5  1  0
  5  6  1  0
  6  7  2  0
  6  8  1  0
  8  9  1  0
  9 10  1  0
 10 11  1  0
 11 12  1  0
 12 13  1  0
  5 14  2  0
 14 15  1  0
 15 16  2  3
 16 17  1  0
 17 18  1  0
 18 19  1  0
 19 20  2  0
 19 21  1  0
 21 22  1  0
 22 23  1  0
 15  2  1  0
 22 17  2  0
 13  8  1  0
  1 24  1  0
  1 25  1  0
  4 26  1  0
  9 27  1  0
  9 28  1  0
 10 29  1  0
 10 30  1  0
 11 31  1  0
 12 32  1  0
 12 33  1  0
 13 34  1  0
 13 35  1  0
 14 36  1  0
 16 37  1  0
 23 38  1  0
M  CHG  2  18  -1  21  -1
M  END
>  <UniqueID>  (61) 
57

>  <SMILES>  (61) 
C=c1ncc(C(=O)N2CCNCC2)cc1=Cc1[n-]c(=O)[n-]c1O

>  <Energy>  (61) 
98.99128314434752

>  <Genealogy>  (61) 
C=c1ncc(C(=O)N2CCNCC2)cc1=Cc1[n-]c(=O)[n-]c1O (protonated)
C=c1ncc(C(=O)N2CCNCC2)cc1=Cc1[n-]c(=O)[n-]c1O (3D coordinates assigned)
C=c1ncc(C(=O)N2CCNCC2)cc1=Cc1[n-]c(=O)[n-]c1O (nonaromatic ring conformer: 98.99128314434752 kcal/mol)

>  <smiles>  (61) 
C=c1ncc(C(=O)N2CCNCC2)cc1=Cc1[nH]c(=O)[nH]c1O

>  <score_type>  (61) 
oracle

>  <origin>  (61) 
adg

>  <m_score__min__energy>  (61) 
-12.029999999999999

>  <m_primary>  (61) 
energy

$$$$
61:0
     RDKit          3D

 28 29  0  0  0  0  0  0  0  0999 V2000
   57.4430   32.1750   44.9610 C   0  0  0  0  0  0  0  0  0  0  0  0
   57.8000   30.8150   45.5080 C   0  0  0  0  0  0  0  0  0  0  0  0
   58.5210   30.7480   46.7100 C   0  0  0  0  0  0  0  0  0  0  0  0
   58.8920   29.5190   47.2470 C   0  0  0  0  0  0  0  0  0  0  0  0
   58.5580   28.3400   46.5900 C   0  0  0  0  0  0  0  0  0  0  0  0
   57.8320   28.3640   45.3870 C   0  0  0  0  0  0  0  0  0  0  0  0
   57.5470   27.0420   44.7010 C   0  0  0  0  0  0  0  0  0  0  0  0
   57.1000   25.9910   45.6800 C   0  0  0  0  0  0  0  0  0  0  0  0
   55.8490   25.8730   46.2580 C   0  0  0  0  0  0  0  0  0  0  0  0
   54.7700   26.7100   46.0010 O   0  0  0  0  0  0  0  0  0  0  0  0
   55.7870   24.8420   47.1230 N   0  0  0  0  0  0  0  0  0  0  0  0
   57.0230   24.3060   47.0980 C   0  0  0  0  0  0  0  0  0  0  0  0
   57.3920   23.2090   47.8650 O   0  0  0  0  0  0  0  0  0  0  0  0
   57.8600   24.9800   46.2350 C   0  0  0  0  0  0  0  0  0  0  0  0
   59.5540   24.6270   45.9430 Cl  0  0  0  0  0  0  0  0  0  0  0  0
   57.4070   29.6150   44.8540 C   0  0  0  0  0  0  0  0  0  0  0  0
   56.6130   29.6760   43.5660 C   0  0  0  0  0  0  0  0  0  0  0  0
   57.2608   32.8692   45.7946 H   0  0  0  0  0  0  0  0  0  0  0  0
   58.2727   32.5517   44.3448 H   0  0  0  0  0  0  0  0  0  0  0  0
   56.5353   32.0956   44.3448 H   0  0  0  0  0  0  0  0  0  0  0  0
   58.7956   31.6760   47.2328 H   0  0  0  0  0  0  0  0  0  0  0  0
   59.4509   29.4801   48.1936 H   0  0  0  0  0  0  0  0  0  0  0  0
   58.8664   27.3747   47.0180 H   0  0  0  0  0  0  0  0  0  0  0  0
   56.7546   27.1923   43.9530 H   0  0  0  0  0  0  0  0  0  0  0  0
   58.4768   26.6949   44.2267 H   0  0  0  0  0  0  0  0  0  0  0  0
   55.5412   29.7583   43.7995 H   0  0  0  0  0  0  0  0  0  0  0  0
   56.9293   30.5525   42.9814 H   0  0  0  0  0  0  0  0  0  0  0  0
   56.7917   28.7615   42.9814 H   0  0  0  0  0  0  0  0  0  0  0  0
  1  2  1  0
  2  3  2  0
  3  4  1  0
  4  5  2  0
  5  6  1  0
  6  7  1  0
  7  8  1  0
  8  9  2  0
  9 10  1  0
  9 11  1  0
 11 12  1  0
 12 13  1  0
 12 14  2  0
 14 15  1  0
  6 16  2  0
 16 17  1  0
 16  2  1  0
 14  8  1  0
  1 18  1  0
  1 19  1  0
  1 20  1  0
  3 21  1  0
  4 22  1  0
  5 23  1  0
  7 24  1  0
  7 25  1  0
 17 26  1  0
 17 27  1  0
 17 28  1  0
M  CHG  3  10  -1  11  -1  13  -1
M  END
>  <UniqueID>  (62) 
58

>  <SMILES>  (62) 
Cc1cccc(Cc2c([O-])[n-]c([O-])c2Cl)c1C

>  <Energy>  (62) 
57.84732575600108

>  <Genealogy>  (62) 
Cc1cccc(Cc2c([O-])[n-]c([O-])c2Cl)c1C (protonated)
Cc1cccc(Cc2c([O-])[n-]c([O-])c2Cl)c1C (3D coordinates assigned)
Cc1cccc(Cc2c([O-])[n-]c([O-])c2Cl)c1C (optimized conformer: 57.84732575600108 kcal/mol)

>  <smiles>  (62) 
Cc1cccc(Cc2c(O)[nH]c(O)c2Cl)c1C

>  <score_type>  (62) 
oracle

>  <origin>  (62) 
adg

>  <m_score__min__energy>  (62) 
-14.880000000000001

>  <m_primary>  (62) 
energy

$$$$
62:0
     RDKit          3D

 42 45  0  0  0  0  0  0  0  0999 V2000
   55.7270   22.2060   46.2900 O   0  0  0  0  0  0  0  0  0  0  0  0
   56.3620   23.0980   46.9110 C   0  0  0  0  0  0  0  0  0  0  0  0
   57.2680   22.7340   47.8980 O   0  0  0  0  0  0  0  0  0  0  0  0
   56.1510   24.5160   46.5980 C   0  0  0  0  0  0  0  0  0  0  0  0
   54.9720   25.0440   46.1950 N   0  0  0  0  0  0  0  0  0  0  0  0
   55.1360   26.3470   45.9810 N   0  0  0  0  0  0  0  0  0  0  0  0
   56.4170   26.6480   46.2630 C   0  0  0  0  0  0  0  0  0  0  0  0
   57.0760   25.5310   46.6400 C   0  0  0  0  0  0  0  0  0  0  0  0
   58.4650   25.5080   46.9510 N   0  0  0  0  0  0  0  0  0  0  0  0
   59.1340   26.6250   46.9420 C   0  0  0  0  0  0  0  0  0  0  0  0
   58.4860   27.8950   46.6400 N   0  0  0  0  0  0  0  0  0  0  0  0
   59.2180   29.1220   46.8520 C   0  0  0  0  0  0  0  0  0  0  0  0
   60.4240   29.3590   46.1700 C   0  0  0  0  0  0  0  0  0  0  0  0
   61.1400   30.5410   46.3790 C   0  0  0  0  0  0  0  0  0  0  0  0
   60.6600   31.5060   47.2730 C   0  0  0  0  0  0  0  0  0  0  0  0
   61.5560   32.9980   47.5440 S   0  0  0  0  0  0  0  0  0  0  0  0
   62.9810   32.8340   47.0920 O   0  0  0  0  0  0  0  0  0  0  0  0
   61.5430   33.3150   49.0120 O   0  0  0  0  0  0  0  0  0  0  0  0
   60.8140   34.3080   46.6720 N   0  0  0  0  0  0  0  0  0  0  0  0
   59.3920   34.0480   46.4290 C   0  0  0  0  0  0  0  0  0  0  0  0
   59.0990   33.9630   44.9280 C   0  0  0  0  0  0  0  0  0  0  0  0
   58.2000   32.8070   44.6110 C   0  0  0  0  0  0  0  0  0  0  0  0
   57.3760   32.1550   45.4970 C   0  0  0  0  0  0  0  0  0  0  0  0
   56.7750   31.1350   44.8600 N   0  0  0  0  0  0  0  0  0  0  0  0
   57.2630   31.1980   43.6020 C   0  0  0  0  0  0  0  0  0  0  0  0
   58.1430   32.2020   43.4110 N   0  0  0  0  0  0  0  0  0  0  0  0
   59.4650   31.2740   47.9650 C   0  0  0  0  0  0  0  0  0  0  0  0
   58.7490   30.0920   47.7580 C   0  0  0  0  0  0  0  0  0  0  0  0
   57.1120   27.9550   46.0850 C   0  0  0  0  0  0  0  0  0  0  0  0
   60.2106   26.6098   47.1670 H   0  0  0  0  0  0  0  0  0  0  0  0
   60.8080   28.6070   45.4650 H   0  0  0  0  0  0  0  0  0  0  0  0
   62.0831   30.7137   45.8398 H   0  0  0  0  0  0  0  0  0  0  0  0
   59.1139   33.0958   46.9044 H   0  0  0  0  0  0  0  0  0  0  0  0
   58.8063   34.8762   46.8544 H   0  0  0  0  0  0  0  0  0  0  0  0
   58.6113   34.8946   44.6053 H   0  0  0  0  0  0  0  0  0  0  0  0
   60.0513   33.8167   44.3972 H   0  0  0  0  0  0  0  0  0  0  0  0
   57.2319   32.4237   46.5539 H   0  0  0  0  0  0  0  0  0  0  0  0
   56.9700   30.4959   42.8075 H   0  0  0  0  0  0  0  0  0  0  0  0
   59.0883   32.0254   48.6746 H   0  0  0  0  0  0  0  0  0  0  0  0
   57.8119   29.9182   48.3071 H   0  0  0  0  0  0  0  0  0  0  0  0
   56.5451   28.7400   46.6070 H   0  0  0  0  0  0  0  0  0  0  0  0
   57.1731   28.1809   45.0102 H   0  0  0  0  0  0  0  0  0  0  0  0
  1  2  2  0
  2  3  1  0
  2  4  1  0
  4  5  2  0
  5  6  1  0
  6  7  1  0
  7  8  2  0
  8  9  1  0
  9 10  2  0
 10 11  1  0
 11 12  1  0
 12 13  2  0
 13 14  1  0
 14 15  2  0
 15 16  1  0
 16 17  2  0
 16 18  2  0
 16 19  1  0
 19 20  1  0
 20 21  1  0
 21 22  1  0
 22 23  2  0
 23 24  1  0
 24 25  1  0
 25 26  2  0
 15 27  1  0
 27 28  2  0
 11 29  1  0
  8  4  1  0
 28 12  1  0
 29  7  1  0
 26 22  1  0
 10 30  1  0
 13 31  1  0
 14 32  1  0
 20 33  1  0
 20 34  1  0
 21 35  1  0
 21 36  1  0
 23 37  1  0
 25 38  1  0
 27 39  1  0
 28 40  1  0
 29 41  1  0
 29 42  1  0
M  CHG  4   3  -1   6  -1  19  -1  24  -1
M  END
>  <UniqueID>  (63) 
59

>  <SMILES>  (63) 
O=C([O-])c1n[n-]c2c1N=CN(c1ccc(S(=O)(=O)[N-]CCc3c[n-]cn3)cc1)C2

>  <Energy>  (63) 
111.83679000121371

>  <Genealogy>  (63) 
O=C([O-])c1n[n-]c2c1N=CN(c1ccc(S(=O)(=O)[N-]CCc3c[n-]cn3)cc1)C2 (protonated)
O=C([O-])c1n[n-]c2c1N=CN(c1ccc(S(=O)(=O)[N-]CCc3c[n-]cn3)cc1)C2 (3D coordinates assigned)
O=C([O-])c1n[n-]c2c1N=CN(c1ccc(S(=O)(=O)[N-]CCc3c[n-]cn3)cc1)C2 (nonaromatic ring conformer: 111.83679000121371 kcal/mol)

>  <smiles>  (63) 
O=C(O)c1n[nH]c2c1N=CN(c1ccc(S(=O)(=O)NCCc3c[nH]cn3)cc1)C2

>  <score_type>  (63) 
oracle

>  <origin>  (63) 
adg

>  <m_score__min__energy>  (63) 
-14.029999999999999

>  <m_primary>  (63) 
energy

$$$$
63:0
     RDKit          3D

 57 60  0  0  0  0  0  0  0  0999 V2000
   63.7580   33.0800   47.5960 C   0  0  0  0  0  0  0  0  0  0  0  0
   62.3070   32.9570   47.1460 C   0  0  0  0  0  0  0  0  0  0  0  0
   61.7020   31.6650   47.6390 C   0  0  0  0  0  0  0  0  0  0  0  0
   61.3560   30.6690   46.7120 C   0  0  0  0  0  0  0  0  0  0  0  0
   60.7670   29.4720   47.1380 C   0  0  0  0  0  0  0  0  0  0  0  0
   60.3700   28.2200   45.9590 S   0  0  0  0  0  0  0  0  0  0  0  0
   60.8880   28.6350   44.6100 O   0  0  0  0  0  0  0  0  0  0  0  0
   61.0580   26.9510   46.3770 O   0  0  0  0  0  0  0  0  0  0  0  0
   58.6470   27.9530   45.8620 N   0  0  0  0  0  0  0  0  0  0  0  0
   58.1280   26.6320   46.2510 C   0  0  0  0  0  0  0  0  0  0  0  0
   56.6460   26.7060   46.6180 C   0  0  0  0  0  0  0  0  0  0  0  0
   55.9190   27.3850   45.6000 O   0  0  0  0  0  0  0  0  0  0  0  0
   56.4140   28.5560   45.0260 C   0  0  0  0  0  0  0  0  0  0  0  0
   55.5550   29.3880   44.3070 C   0  0  0  0  0  0  0  0  0  0  0  0
   56.0270   30.5840   43.7650 C   0  0  0  0  0  0  0  0  0  0  0  0
   57.3680   30.9640   43.9370 C   0  0  0  0  0  0  0  0  0  0  0  0
   57.8650   32.2430   43.3720 C   0  0  0  0  0  0  0  0  0  0  0  0
   58.4610   32.2450   42.2610 O   0  0  0  0  0  0  0  0  0  0  0  0
   57.7420   33.4570   44.1360 N   0  0  0  0  0  0  0  0  0  0  0  0
   58.3020   33.7770   45.2710 C   0  0  0  0  0  0  0  0  0  0  0  0
   59.1370   34.9040   45.4300 C   0  0  0  0  0  0  0  0  0  0  0  0
   59.6860   35.1790   46.6830 C   0  0  0  0  0  0  0  0  0  0  0  0
   59.4040   34.3510   47.7690 C   0  0  0  0  0  0  0  0  0  0  0  0
   58.5620   33.2490   47.5860 C   0  0  0  0  0  0  0  0  0  0  0  0
   58.2220   32.3580   48.7380 C   0  0  0  0  0  0  0  0  0  0  0  0
   58.0340   33.0000   46.3560 N   0  0  0  0  0  0  0  0  0  0  0  0
   58.2350   30.1090   44.6440 C   0  0  0  0  0  0  0  0  0  0  0  0
   57.7730   28.8880   45.1780 C   0  0  0  0  0  0  0  0  0  0  0  0
   60.5230   29.2680   48.5000 C   0  0  0  0  0  0  0  0  0  0  0  0
   60.8460   30.2590   49.4290 C   0  0  0  0  0  0  0  0  0  0  0  0
   61.4310   31.4700   49.0090 C   0  0  0  0  0  0  0  0  0  0  0  0
   61.7510   32.4910   49.9200 O   0  0  0  0  0  0  0  0  0  0  0  0
   60.8010   33.2000   50.7070 C   0  0  0  0  0  0  0  0  0  0  0  0
   63.8020   33.0837   48.6951 H   0  0  0  0  0  0  0  0  0  0  0  0
   64.3355   32.2276   47.2088 H   0  0  0  0  0  0  0  0  0  0  0  0
   64.1838   34.0175   47.2088 H   0  0  0  0  0  0  0  0  0  0  0  0
   61.7309   33.8025   47.5500 H   0  0  0  0  0  0  0  0  0  0  0  0
   62.2764   32.9643   46.0464 H   0  0  0  0  0  0  0  0  0  0  0  0
   61.5493   30.8303   45.6412 H   0  0  0  0  0  0  0  0  0  0  0  0
   58.2548   25.9348   45.4097 H   0  0  0  0  0  0  0  0  0  0  0  0
   58.6877   26.2836   47.1315 H   0  0  0  0  0  0  0  0  0  0  0  0
   56.2483   25.6865   46.7295 H   0  0  0  0  0  0  0  0  0  0  0  0
   56.5383   27.2577   47.5636 H   0  0  0  0  0  0  0  0  0  0  0  0
   54.5026   29.1002   44.1671 H   0  0  0  0  0  0  0  0  0  0  0  0
   55.3437   31.2340   43.1988 H   0  0  0  0  0  0  0  0  0  0  0  0
   59.3530   35.5597   44.5736 H   0  0  0  0  0  0  0  0  0  0  0  0
   60.3431   36.0514   46.8145 H   0  0  0  0  0  0  0  0  0  0  0  0
   59.8383   34.5618   48.7574 H   0  0  0  0  0  0  0  0  0  0  0  0
   58.4235   32.8859   49.6818 H   0  0  0  0  0  0  0  0  0  0  0  0
   57.1571   32.0866   48.6898 H   0  0  0  0  0  0  0  0  0  0  0  0
   58.8354   31.4462   48.6898 H   0  0  0  0  0  0  0  0  0  0  0  0
   59.2875   30.3974   44.7818 H   0  0  0  0  0  0  0  0  0  0  0  0
   60.0748   28.3230   48.8407 H   0  0  0  0  0  0  0  0  0  0  0  0
   60.6422   30.0930   50.4971 H   0  0  0  0  0  0  0  0  0  0  0  0
   61.0159   33.0396   51.7738 H   0  0  0  0  0  0  0  0  0  0  0  0
   60.8635   34.2740   50.4778 H   0  0  0  0  0  0  0  0  0  0  0  0
   59.7891   32.8345   50.4778 H   0  0  0  0  0  0  0  0  0  0  0  0
  1  2  1  0
  2  3  1  0
  3  4  2  0
  4  5  1  0
  5  6  1  0
  6  7  2  0
  6  8  2  0
  6  9  1  0
  9 10  1  0
 10 11  1  0
 11 12  1  0
 12 13  1  0
 13 14  2  0
 14 15  1  0
 15 16  2  0
 16 17  1  0
 17 18  2  0
 17 19  1  0
 19 20  2  3
 20 21  1  0
 21 22  2  0
 22 23  1  0
 23 24  2  0
 24 25  1  0
 24 26  1  0
 16 27  1  0
 27 28  2  0
  5 29  2  0
 29 30  1  0
 30 31  2  0
 31 32  1  0
 32 33  1  0
 31  3  1  0
 28  9  1  0
 28 13  1  0
 26 20  1  0
  1 34  1  0
  1 35  1  0
  1 36  1  0
  2 37  1  0
  2 38  1  0
  4 39  1  0
 10 40  1  0
 10 41  1  0
 11 42  1  0
 11 43  1  0
 14 44  1  0
 15 45  1  0
 21 46  1  0
 22 47  1  0
 23 48  1  0
 25 49  1  0
 25 50  1  0
 25 51  1  0
 27 52  1  0
 29 53  1  0
 30 54  1  0
 33 55  1  0
 33 56  1  0
 33 57  1  0
M  CHG  1  26  -1
M  END
>  <UniqueID>  (64) 
60

>  <SMILES>  (64) 
CCc1cc(S(=O)(=O)N2CCOc3ccc(C(=O)N=c4cccc(C)[n-]4)cc32)ccc1OC

>  <Energy>  (64) 
70.51752808529267

>  <Genealogy>  (64) 
CCc1cc(S(=O)(=O)N2CCOc3ccc(C(=O)N=c4cccc(C)[n-]4)cc32)ccc1OC (protonated)
CCc1cc(S(=O)(=O)N2CCOc3ccc(C(=O)N=c4cccc(C)[n-]4)cc32)ccc1OC (3D coordinates assigned)
CCc1cc(S(=O)(=O)N2CCOc3ccc(C(=O)N=c4cccc(C)[n-]4)cc32)ccc1OC (nonaromatic ring conformer: 70.51752808529267 kcal/mol)

>  <smiles>  (64) 
CCc1cc(S(=O)(=O)N2CCOc3ccc(C(=O)N=c4cccc(C)[nH]4)cc32)ccc1OC

>  <score_type>  (64) 
oracle

>  <origin>  (64) 
adg

>  <m_score__min__energy>  (64) 
-10.58

>  <m_primary>  (64) 
energy

$$$$
64:0
     RDKit          3D

 60 63  0  0  0  0  0  0  0  0999 V2000
   60.0040   35.6120   46.0050 O   0  0  0  0  0  0  0  0  0  0  0  0
   59.7250   34.3990   46.2080 C   0  0  0  0  0  0  0  0  0  0  0  0
   58.2950   33.9670   46.2820 C   0  0  0  0  0  0  0  0  0  0  0  0
   57.9880   33.0270   45.1480 C   0  0  0  0  0  0  0  0  0  0  0  0
   58.3860   33.3440   43.8390 C   0  0  0  0  0  0  0  0  0  0  0  0
   58.1390   32.4510   42.7940 C   0  0  0  0  0  0  0  0  0  0  0  0
   57.5110   31.2300   43.0480 C   0  0  0  0  0  0  0  0  0  0  0  0
   57.1330   30.8870   44.3560 C   0  0  0  0  0  0  0  0  0  0  0  0
   56.4640   29.6020   44.6340 C   0  0  0  0  0  0  0  0  0  0  0  0
   55.2240   29.6030   44.8700 O   0  0  0  0  0  0  0  0  0  0  0  0
   57.1950   28.3610   44.6630 N   0  0  0  0  0  0  0  0  0  0  0  0
   57.8900   27.8340   43.5000 C   0  0  0  0  0  0  0  0  0  0  0  0
   58.1340   26.3620   43.7960 C   0  0  0  0  0  0  0  0  0  0  0  0
   57.9500   26.1960   45.3050 C   0  0  1  0  0  0  0  0  0  0  0  0
   59.2300   26.2150   45.9410 O   0  0  0  0  0  0  0  0  0  0  0  0
   59.8130   27.3740   46.4640 C   0  0  0  0  0  0  0  0  0  0  0  0
   60.7610   27.9420   45.8550 O   0  0  0  0  0  0  0  0  0  0  0  0
   59.3430   27.8830   47.7190 N   0  0  0  0  0  0  0  0  0  0  0  0
   59.6900   29.1680   48.2600 C   0  0  0  0  0  0  0  0  0  0  0  0
   58.9510   30.3260   47.9440 C   0  0  0  0  0  0  0  0  0  0  0  0
   59.2900   31.5570   48.5150 C   0  0  0  0  0  0  0  0  0  0  0  0
   60.3570   31.6430   49.4150 C   0  0  0  0  0  0  0  0  0  0  0  0
   61.0820   30.4960   49.7510 C   0  0  0  0  0  0  0  0  0  0  0  0
   60.7470   29.2640   49.1800 C   0  0  0  0  0  0  0  0  0  0  0  0
   57.1070   27.3950   45.7470 C   0  0  0  0  0  0  0  0  0  0  0  0
   57.3620   31.7960   45.4010 C   0  0  0  0  0  0  0  0  0  0  0  0
   60.7670   33.4420   46.4170 N   0  0  0  0  0  0  0  0  0  0  0  0
   62.1770   33.8060   46.4440 C   0  0  0  0  0  0  0  0  0  0  0  0
   62.7610   33.4400   47.7780 C   0  0  0  0  0  0  0  0  0  0  0  0
   63.6740   32.3760   47.8790 C   0  0  0  0  0  0  0  0  0  0  0  0
   64.2490   32.0570   49.1130 C   0  0  0  0  0  0  0  0  0  0  0  0
   63.9260   32.8040   50.2490 C   0  0  0  0  0  0  0  0  0  0  0  0
   63.0290   33.8720   50.1520 C   0  0  0  0  0  0  0  0  0  0  0  0
   62.4530   34.1960   48.9200 C   0  0  0  0  0  0  0  0  0  0  0  0
   58.1171   33.4551   47.2392 H   0  0  0  0  0  0  0  0  0  0  0  0
   57.6440   34.8506   46.2081 H   0  0  0  0  0  0  0  0  0  0  0  0
   58.8938   34.2985   43.6362 H   0  0  0  0  0  0  0  0  0  0  0  0
   58.4399   32.7102   41.7682 H   0  0  0  0  0  0  0  0  0  0  0  0
   57.3116   30.5339   42.2199 H   0  0  0  0  0  0  0  0  0  0  0  0
   57.2688   27.9459   42.5991 H   0  0  0  0  0  0  0  0  0  0  0  0
   58.8315   28.3712   43.3126 H   0  0  0  0  0  0  0  0  0  0  0  0
   57.4093   25.7381   43.2523 H   0  0  0  0  0  0  0  0  0  0  0  0
   59.1394   26.0495   43.4772 H   0  0  0  0  0  0  0  0  0  0  0  0
   57.4621   25.2466   45.5705 H   0  0  0  0  0  0  0  0  0  0  0  0
   58.7600   27.2400   48.3050 H   0  0  0  0  0  0  0  0  0  0  0  0
   58.1039   30.2613   47.2452 H   0  0  0  0  0  0  0  0  0  0  0  0
   58.7164   32.4591   48.2557 H   0  0  0  0  0  0  0  0  0  0  0  0
   60.6257   32.6131   49.8585 H   0  0  0  0  0  0  0  0  0  0  0  0
   61.9163   30.5624   50.4648 H   0  0  0  0  0  0  0  0  0  0  0  0
   61.3158   28.3631   49.4536 H   0  0  0  0  0  0  0  0  0  0  0  0
   56.0618   27.0910   45.9056 H   0  0  0  0  0  0  0  0  0  0  0  0
   57.4687   27.8169   46.6963 H   0  0  0  0  0  0  0  0  0  0  0  0
   57.0490   31.5422   46.4245 H   0  0  0  0  0  0  0  0  0  0  0  0
   62.7110   33.2652   45.6488 H   0  0  0  0  0  0  0  0  0  0  0  0
   62.2800   34.8892   46.2825 H   0  0  0  0  0  0  0  0  0  0  0  0
   63.9370   31.7924   46.9844 H   0  0  0  0  0  0  0  0  0  0  0  0
   64.9559   31.2177   49.1896 H   0  0  0  0  0  0  0  0  0  0  0  0
   64.3776   32.5517   51.2198 H   0  0  0  0  0  0  0  0  0  0  0  0
   62.7758   34.4588   51.0473 H   0  0  0  0  0  0  0  0  0  0  0  0
   61.7573   35.0448   48.8454 H   0  0  0  0  0  0  0  0  0  0  0  0
  1  2  2  0
  2  3  1  0
  3  4  1  0
  4  5  2  0
  5  6  1  0
  6  7  2  0
  7  8  1  0
  8  9  1  0
  9 10  2  0
  9 11  1  0
 11 12  1  0
 12 13  1  0
 13 14  1  0
 14 15  1  0
 15 16  1  0
 16 17  2  0
 16 18  1  0
 18 19  1  0
 19 20  2  0
 20 21  1  0
 21 22  2  0
 22 23  1  0
 23 24  2  0
 14 25  1  0
  8 26  2  0
  2 27  1  0
 27 28  1  0
 28 29  1  0
 29 30  2  0
 30 31  1  0
 31 32  2  0
 32 33  1  0
 33 34  2  0
 26  4  1  0
 34 29  1  0
 25 11  1  0
 24 19  1  0
  3 35  1  0
  3 36  1  0
  5 37  1  0
  6 38  1  0
  7 39  1  0
 12 40  1  0
 12 41  1  0
 13 42  1  0
 13 43  1  0
 14 44  1  6
 18 45  1  0
 20 46  1  0
 21 47  1  0
 22 48  1  0
 23 49  1  0
 24 50  1  0
 25 51  1  0
 25 52  1  0
 26 53  1  0
 28 54  1  0
 28 55  1  0
 30 56  1  0
 31 57  1  0
 32 58  1  0
 33 59  1  0
 34 60  1  0
M  CHG  1  27  -1
M  END
>  <UniqueID>  (65) 
61

>  <SMILES>  (65) 
O=C(Cc1cccc(C(=O)N2CC[C@@H](OC(=O)Nc3ccccc3)C2)c1)[N-]Cc1ccccc1

>  <Energy>  (65) 
65.61694653105125

>  <Genealogy>  (65) 
O=C(Cc1cccc(C(=O)N2CCC(OC(=O)Nc3ccccc3)C2)c1)[N-]Cc1ccccc1 (protonated)
O=C(Cc1cccc(C(=O)N2CC[C@@H](OC(=O)Nc3ccccc3)C2)c1)[N-]Cc1ccccc1 (chirality)
O=C(Cc1cccc(C(=O)N2CC[C@@H](OC(=O)Nc3ccccc3)C2)c1)[N-]Cc1ccccc1 (3D coordinates assigned)
O=C(Cc1cccc(C(=O)N2CC[C@@H](OC(=O)Nc3ccccc3)C2)c1)[N-]Cc1ccccc1 (nonaromatic ring conformer: 65.61694653105125 kcal/mol)

>  <smiles>  (65) 
O=C(Cc1cccc(C(=O)N2CCC(OC(=O)Nc3ccccc3)C2)c1)NCc1ccccc1

>  <score_type>  (65) 
oracle

>  <origin>  (65) 
adg

>  <m_score__min__energy>  (65) 
-11.6

>  <m_primary>  (65) 
energy

$$$$
65:0
     RDKit          3D

 26 27  0  0  0  0  0  0  0  0999 V2000
   55.5940   28.8380   44.9960 O   0  0  0  0  0  0  0  0  0  0  0  0
   56.7930   28.4540   45.0600 C   0  0  0  0  0  0  0  0  0  0  0  0
   57.8720   29.4180   44.6400 C   0  0  0  0  0  0  0  0  0  0  0  0
   57.9100   30.6070   45.5560 C   0  0  0  0  0  0  0  0  0  0  0  0
   58.5540   30.5330   46.7970 C   0  0  0  0  0  0  0  0  0  0  0  0
   58.5840   31.6740   47.6010 C   0  0  0  0  0  0  0  0  0  0  0  0
   59.1530   31.6430   48.7220 O   0  0  0  0  0  0  0  0  0  0  0  0
   57.9990   32.8220   47.1710 N   0  0  0  0  0  0  0  0  0  0  0  0
   57.3810   32.8790   45.9620 C   0  0  0  0  0  0  0  0  0  0  0  0
   56.8460   33.9520   45.5790 O   0  0  0  0  0  0  0  0  0  0  0  0
   57.3400   31.7790   45.1650 N   0  0  0  0  0  0  0  0  0  0  0  0
   57.1020   27.0810   45.5550 C   0  0  0  0  0  0  0  0  0  0  0  0
   58.4200   26.5870   45.5120 C   0  0  0  0  0  0  0  0  0  0  0  0
   58.7150   25.3030   45.9740 C   0  0  0  0  0  0  0  0  0  0  0  0
   57.7030   24.4890   46.4820 C   0  0  0  0  0  0  0  0  0  0  0  0
   58.0100   23.2110   46.9360 O   0  0  0  0  0  0  0  0  0  0  0  0
   56.3860   24.9560   46.5350 C   0  0  0  0  0  0  0  0  0  0  0  0
   55.3910   24.1250   47.0510 O   0  0  0  0  0  0  0  0  0  0  0  0
   56.0820   26.2510   46.0750 C   0  0  0  0  0  0  0  0  0  0  0  0
   54.7700   26.7090   46.1540 O   0  0  0  0  0  0  0  0  0  0  0  0
   58.8453   28.9065   44.6723 H   0  0  0  0  0  0  0  0  0  0  0  0
   57.6564   29.7659   43.6190 H   0  0  0  0  0  0  0  0  0  0  0  0
   59.0257   29.5971   47.1310 H   0  0  0  0  0  0  0  0  0  0  0  0
   59.2254   27.2193   45.1102 H   0  0  0  0  0  0  0  0  0  0  0  0
   59.7499   24.9319   45.9372 H   0  0  0  0  0  0  0  0  0  0  0  0
   54.4330   24.4340   47.1620 H   0  0  0  0  0  0  0  0  0  0  0  0
  1  2  2  0
  2  3  1  0
  3  4  1  0
  4  5  2  0
  5  6  1  0
  6  7  2  0
  6  8  1  0
  8  9  1  0
  9 10  2  0
  9 11  1  0
  2 12  1  0
 12 13  2  0
 13 14  1  0
 14 15  2  0
 15 16  1  0
 15 17  1  0
 17 18  1  0
 17 19  2  0
 19 20  1  0
 11  4  1  0
 19 12  1  0
  3 21  1  0
  3 22  1  0
  5 23  1  0
 13 24  1  0
 14 25  1  0
 18 26  1  0
M  CHG  4   8  -1  11  -1  16  -1  20  -1
M  END
>  <UniqueID>  (66) 
62

>  <SMILES>  (66) 
O=C(Cc1cc(=O)[n-]c(=O)[n-]1)c1ccc([O-])c(O)c1[O-]

>  <Energy>  (66) 
30.90315168438702

>  <Genealogy>  (66) 
O=C(Cc1cc(=O)[n-]c(=O)[n-]1)c1ccc([O-])c(O)c1[O-] (protonated)
O=C(Cc1cc(=O)[n-]c(=O)[n-]1)c1ccc([O-])c(O)c1[O-] (3D coordinates assigned)
O=C(Cc1cc(=O)[n-]c(=O)[n-]1)c1ccc([O-])c(O)c1[O-] (optimized conformer: 30.90315168438702 kcal/mol)

>  <smiles>  (66) 
O=C(Cc1cc(=O)[nH]c(=O)[nH]1)c1ccc(O)c(O)c1O

>  <score_type>  (66) 
oracle

>  <origin>  (66) 
adg

>  <m_score__min__energy>  (66) 
-14.85

>  <m_primary>  (66) 
energy

$$$$
66:0
     RDKit          3D

 60 63  0  0  0  0  0  0  0  0999 V2000
   55.0230   26.4120   46.0070 N   0  0  0  0  0  0  0  0  0  0  0  0
   56.6110   25.7240   45.9740 S   0  0  0  0  0  0  0  0  0  0  0  0
   56.7580   24.9240   44.7090 O   0  0  0  0  0  0  0  0  0  0  0  0
   56.7830   24.8190   47.1610 O   0  0  0  0  0  0  0  0  0  0  0  0
   57.8310   27.0000   46.0280 C   0  0  0  0  0  0  0  0  0  0  0  0
   58.2340   27.5260   47.2670 C   0  0  0  0  0  0  0  0  0  0  0  0
   59.2080   28.5400   47.3370 C   0  0  0  0  0  0  0  0  0  0  0  0
   59.6160   29.1050   48.6500 C   0  0  0  0  0  0  0  0  0  0  0  0
   60.9380   28.9660   49.1020 C   0  0  0  0  0  0  0  0  0  0  0  0
   61.3200   29.4870   50.3380 C   0  0  0  0  0  0  0  0  0  0  0  0
   60.3920   30.1580   51.1440 C   0  0  0  0  0  0  0  0  0  0  0  0
   60.7890   30.6710   52.3780 O   0  0  0  0  0  0  0  0  0  0  0  0
   59.0620   30.3080   50.7030 C   0  0  0  0  0  0  0  0  0  0  0  0
   58.0240   31.0030   51.5560 C   0  0  0  0  0  0  0  0  0  0  0  0
   56.9300   30.0780   51.9260 N   0  0  0  0  0  0  0  0  0  0  0  0
   55.8040   30.8040   52.5660 C   0  0  0  0  0  0  0  0  0  0  0  0
   55.9000   30.7880   54.1020 C   0  0  0  0  0  0  0  0  0  0  0  0
   55.9330   29.4110   54.6630 N   0  0  0  0  0  0  0  0  0  0  0  0
   54.6550   29.0520   55.3100 C   0  0  0  0  0  0  0  0  0  0  0  0
   53.5180   29.8260   54.7110 C   0  0  0  0  0  0  0  0  0  0  0  0
   53.1670   30.9230   55.2230 O   0  0  0  0  0  0  0  0  0  0  0  0
   52.8820   29.3290   53.5260 N   0  0  0  0  0  0  0  0  0  0  0  0
   52.3650   30.1100   52.4390 C   0  0  0  0  0  0  0  0  0  0  0  0
   52.5230   29.7190   51.0970 C   0  0  0  0  0  0  0  0  0  0  0  0
   52.0200   30.5220   50.0680 C   0  0  0  0  0  0  0  0  0  0  0  0
   51.3630   31.7200   50.3670 C   0  0  0  0  0  0  0  0  0  0  0  0
   51.2230   32.1250   51.6980 C   0  0  0  0  0  0  0  0  0  0  0  0
   50.5800   33.3200   51.9960 O   0  0  0  0  0  0  0  0  0  0  0  0
   51.7290   31.3260   52.7310 C   0  0  0  0  0  0  0  0  0  0  0  0
   56.3470   28.3870   53.6730 C   0  0  0  0  0  0  0  0  0  0  0  0
   57.4290   28.9390   52.7400 C   0  0  0  0  0  0  0  0  0  0  0  0
   58.6840   29.7770   49.4610 C   0  0  0  0  0  0  0  0  0  0  0  0
   59.7820   29.0150   46.1430 C   0  0  0  0  0  0  0  0  0  0  0  0
   59.3950   28.4840   44.9090 C   0  0  0  0  0  0  0  0  0  0  0  0
   58.4270   27.4770   44.8460 C   0  0  0  0  0  0  0  0  0  0  0  0
   58.0690   26.9560   43.6080 O   0  0  0  0  0  0  0  0  0  0  0  0
   55.1410   27.4520   45.9930 H   0  0  0  0  0  0  0  0  0  0  0  0
   57.7830   27.1408   48.1934 H   0  0  0  0  0  0  0  0  0  0  0  0
   61.6771   28.4429   48.4774 H   0  0  0  0  0  0  0  0  0  0  0  0
   62.3581   29.3700   50.6824 H   0  0  0  0  0  0  0  0  0  0  0  0
   60.9120   30.0740   53.1920 H   0  0  0  0  0  0  0  0  0  0  0  0
   58.5041   31.3761   52.4727 H   0  0  0  0  0  0  0  0  0  0  0  0
   57.5965   31.8345   50.9765 H   0  0  0  0  0  0  0  0  0  0  0  0
   55.8145   31.8485   52.2213 H   0  0  0  0  0  0  0  0  0  0  0  0
   54.8701   30.2976   52.2808 H   0  0  0  0  0  0  0  0  0  0  0  0
   56.8195   31.3119   54.4022 H   0  0  0  0  0  0  0  0  0  0  0  0
   55.0006   31.2844   54.4953 H   0  0  0  0  0  0  0  0  0  0  0  0
   54.4709   27.9763   55.1723 H   0  0  0  0  0  0  0  0  0  0  0  0
   54.7215   29.2955   56.3807 H   0  0  0  0  0  0  0  0  0  0  0  0
   53.0431   28.7801   50.8563 H   0  0  0  0  0  0  0  0  0  0  0  0
   52.1416   30.2102   49.0201 H   0  0  0  0  0  0  0  0  0  0  0  0
   50.9570   32.3427   49.5562 H   0  0  0  0  0  0  0  0  0  0  0  0
   51.6273   31.6534   53.7762 H   0  0  0  0  0  0  0  0  0  0  0  0
   56.7432   27.5098   54.2056 H   0  0  0  0  0  0  0  0  0  0  0  0
   55.4713   28.1053   53.0698 H   0  0  0  0  0  0  0  0  0  0  0  0
   58.2807   29.2812   53.3462 H   0  0  0  0  0  0  0  0  0  0  0  0
   57.7296   28.1345   52.0527 H   0  0  0  0  0  0  0  0  0  0  0  0
   57.6451   29.8876   49.1168 H   0  0  0  0  0  0  0  0  0  0  0  0
   60.5410   29.8102   46.1810 H   0  0  0  0  0  0  0  0  0  0  0  0
   59.8543   28.8603   43.9830 H   0  0  0  0  0  0  0  0  0  0  0  0
  1  2  1  0
  2  3  2  0
  2  4  2  0
  2  5  1  0
  5  6  2  0
  6  7  1  0
  7  8  1  0
  8  9  2  0
  9 10  1  0
 10 11  2  0
 11 12  1  0
 11 13  1  0
 13 14  1  0
 14 15  1  0
 15 16  1  0
 16 17  1  0
 17 18  1  0
 18 19  1  0
 19 20  1  0
 20 21  2  0
 20 22  1  0
 22 23  1  0
 23 24  2  0
 24 25  1  0
 25 26  2  0
 26 27  1  0
 27 28  1  0
 27 29  2  0
 18 30  1  0
 30 31  1  0
 13 32  2  0
  7 33  2  0
 33 34  1  0
 34 35  2  0
 35 36  1  0
 35  5  1  0
 32  8  1  0
 31 15  1  0
 29 23  1  0
  1 37  1  0
  6 38  1  0
  9 39  1  0
 10 40  1  0
 12 41  1  0
 14 42  1  0
 14 43  1  0
 16 44  1  0
 16 45  1  0
 17 46  1  0
 17 47  1  0
 19 48  1  0
 19 49  1  0
 24 50  1  0
 25 51  1  0
 26 52  1  0
 29 53  1  0
 30 54  1  0
 30 55  1  0
 31 56  1  0
 31 57  1  0
 32 58  1  0
 33 59  1  0
 34 60  1  0
M  CHG  4   1  -1  22  -1  28  -1  36  -1
M  END
>  <UniqueID>  (67) 
63

>  <SMILES>  (67) 
[NH-]S(=O)(=O)c1cc(-c2ccc(O)c(CN3CCN(CC(=O)[N-]c4cccc([O-])c4)CC3)c2)ccc1[O-]

>  <Energy>  (67) 
86.27921309124481

>  <Genealogy>  (67) 
[NH-]S(=O)(=O)c1cc(-c2ccc(O)c(CN3CCN(CC(=O)[N-]c4cccc([O-])c4)CC3)c2)ccc1[O-] (protonated)
[NH-]S(=O)(=O)c1cc(-c2ccc(O)c(CN3CCN(CC(=O)[N-]c4cccc([O-])c4)CC3)c2)ccc1[O-] (3D coordinates assigned)
[NH-]S(=O)(=O)c1cc(-c2ccc(O)c(CN3CCN(CC(=O)[N-]c4cccc([O-])c4)CC3)c2)ccc1[O-] (nonaromatic ring conformer: 86.27921309124481 kcal/mol)

>  <smiles>  (67) 
NS(=O)(=O)c1cc(-c2ccc(O)c(CN3CCN(CC(=O)Nc4cccc(O)c4)CC3)c2)ccc1O

>  <score_type>  (67) 
oracle

>  <origin>  (67) 
adg

>  <m_score__min__energy>  (67) 
-19.440000000000001

>  <m_primary>  (67) 
energy

$$$$
67:0
     RDKit          3D

 53 56  0  0  0  0  0  0  0  0999 V2000
   55.3640   30.5070   44.5040 O   0  0  0  0  0  0  0  0  0  0  0  0
   56.2810   29.6810   44.7530 C   0  0  0  0  0  0  0  0  0  0  0  0
   57.7000   30.0180   44.3630 C   0  0  0  0  0  0  0  0  0  0  0  0
   58.0520   31.3840   44.7570 N   0  0  0  0  0  0  0  0  0  0  0  0
   57.7850   32.5270   43.9310 C   0  0  0  0  0  0  0  0  0  0  0  0
   57.5310   32.3850   42.6990 O   0  0  0  0  0  0  0  0  0  0  0  0
   57.7790   33.9050   44.5300 C   0  0  0  0  0  0  0  0  0  0  0  0
   59.1900   34.3300   44.9610 C   0  0  0  0  0  0  0  0  0  0  0  0
   59.4850   33.9200   46.3740 C   0  0  0  0  0  0  0  0  0  0  0  0
   58.5800   33.1630   47.0680 N   0  0  0  0  0  0  0  0  0  0  0  0
   58.8670   32.8400   48.3530 C   0  0  0  0  0  0  0  0  0  0  0  0
   58.1310   32.0770   49.1700 N   0  0  0  0  0  0  0  0  0  0  0  0
   58.8940   32.0550   50.2990 C   0  0  0  0  0  0  0  0  0  0  0  0
   58.5280   31.2320   51.5050 C   0  0  2  0  0  0  0  0  0  0  0  0
   59.2450   29.8700   51.4910 C   0  0  0  0  0  0  0  0  0  0  0  0
   58.8930   29.0480   52.7440 C   0  0  0  0  0  0  0  0  0  0  0  0
   57.4570   29.3110   53.2330 C   0  0  0  0  0  0  0  0  0  0  0  0
   56.6000   29.7220   52.1160 N   0  0  0  0  0  0  0  0  0  0  0  0
   56.9870   31.0520   51.6040 C   0  0  0  0  0  0  0  0  0  0  0  0
   60.0660   32.7470   50.2070 N   0  0  0  0  0  0  0  0  0  0  0  0
   60.0060   33.2370   48.9620 C   0  0  0  0  0  0  0  0  0  0  0  0
   60.9290   34.0090   48.2750 C   0  0  0  0  0  0  0  0  0  0  0  0
   62.0030   34.3890   48.8160 O   0  0  0  0  0  0  0  0  0  0  0  0
   60.6430   34.3420   46.9830 N   0  0  0  0  0  0  0  0  0  0  0  0
   55.9160   28.3850   45.2460 N   0  0  0  0  0  0  0  0  0  0  0  0
   56.7840   27.4530   45.9090 C   0  0  0  0  0  0  0  0  0  0  0  0
   58.0940   27.8100   46.2800 C   0  0  0  0  0  0  0  0  0  0  0  0
   58.9150   26.8890   46.9460 C   0  0  0  0  0  0  0  0  0  0  0  0
   58.4240   25.6190   47.2630 C   0  0  0  0  0  0  0  0  0  0  0  0
   57.1070   25.2720   46.9290 C   0  0  0  0  0  0  0  0  0  0  0  0
   56.2860   26.1900   46.2650 C   0  0  0  0  0  0  0  0  0  0  0  0
   55.0090   25.8460   45.9500 F   0  0  0  0  0  0  0  0  0  0  0  0
   58.3844   29.3146   44.8597 H   0  0  0  0  0  0  0  0  0  0  0  0
   57.7865   29.9398   43.2692 H   0  0  0  0  0  0  0  0  0  0  0  0
   58.4170   31.5300   45.7270 H   0  0  0  0  0  0  0  0  0  0  0  0
   57.4018   34.6191   43.7832 H   0  0  0  0  0  0  0  0  0  0  0  0
   57.1317   33.8951   45.4193 H   0  0  0  0  0  0  0  0  0  0  0  0
   59.9246   33.8580   44.2920 H   0  0  0  0  0  0  0  0  0  0  0  0
   59.2512   35.4267   44.9020 H   0  0  0  0  0  0  0  0  0  0  0  0
   58.8662   31.7757   52.3994 H   0  0  0  0  0  0  0  0  0  0  0  0
   58.9368   29.3105   50.5955 H   0  0  0  0  0  0  0  0  0  0  0  0
   60.3308   30.0458   51.4810 H   0  0  0  0  0  0  0  0  0  0  0  0
   58.9950   27.9790   52.5056 H   0  0  0  0  0  0  0  0  0  0  0  0
   59.5817   29.3488   53.5473 H   0  0  0  0  0  0  0  0  0  0  0  0
   57.0526   28.3907   53.6796 H   0  0  0  0  0  0  0  0  0  0  0  0
   57.4783   30.1181   53.9801 H   0  0  0  0  0  0  0  0  0  0  0  0
   55.6140   29.7800   52.4620 H   0  0  0  0  0  0  0  0  0  0  0  0
   56.5523   31.1835   50.6021 H   0  0  0  0  0  0  0  0  0  0  0  0
   56.6097   31.8035   52.3131 H   0  0  0  0  0  0  0  0  0  0  0  0
   58.4750   28.8152   46.0466 H   0  0  0  0  0  0  0  0  0  0  0  0
   59.9442   27.1654   47.2188 H   0  0  0  0  0  0  0  0  0  0  0  0
   59.0712   24.8915   47.7747 H   0  0  0  0  0  0  0  0  0  0  0  0
   56.7187   24.2763   47.1895 H   0  0  0  0  0  0  0  0  0  0  0  0
  1  2  2  0
  2  3  1  0
  3  4  1  0
  4  5  1  0
  5  6  2  0
  5  7  1  0
  7  8  1  0
  8  9  1  0
  9 10  2  0
 10 11  1  0
 11 12  1  0
 12 13  2  0
 13 14  1  0
 14 15  1  0
 15 16  1  0
 16 17  1  0
 17 18  1  0
 18 19  1  0
 13 20  1  0
 20 21  1  0
 21 22  1  0
 22 23  2  0
 22 24  1  0
  2 25  1  0
 25 26  1  0
 26 27  2  0
 27 28  1  0
 28 29  2  0
 29 30  1  0
 30 31  2  0
 31 32  1  0
 24  9  1  0
 31 26  1  0
 21 11  2  0
 19 14  1  0
  3 33  1  0
  3 34  1  0
  4 35  1  0
  7 36  1  0
  7 37  1  0
  8 38  1  0
  8 39  1  0
 14 40  1  1
 15 41  1  0
 15 42  1  0
 16 43  1  0
 16 44  1  0
 17 45  1  0
 17 46  1  0
 18 47  1  0
 19 48  1  0
 19 49  1  0
 27 50  1  0
 28 51  1  0
 29 52  1  0
 30 53  1  0
M  CHG  3  20  -1  24  -1  25  -1
M  END
>  <UniqueID>  (68) 
64

>  <SMILES>  (68) 
O=C(CNC(=O)CCc1nc2nc([C@@H]3CCCNC3)[n-]c2c(=O)[n-]1)[N-]c1ccccc1F

>  <Energy>  (68) 
96.98695345915006

>  <Genealogy>  (68) 
O=C(CNC(=O)CCc1nc2nc(C3CCCNC3)[n-]c2c(=O)[n-]1)[N-]c1ccccc1F (protonated)
O=C(CNC(=O)CCc1nc2nc([C@@H]3CCCNC3)[n-]c2c(=O)[n-]1)[N-]c1ccccc1F (chirality)
O=C(CNC(=O)CCc1nc2nc([C@@H]3CCCNC3)[n-]c2c(=O)[n-]1)[N-]c1ccccc1F (3D coordinates assigned)
O=C(CNC(=O)CCc1nc2nc([C@@H]3CCCNC3)[n-]c2c(=O)[n-]1)[N-]c1ccccc1F (nonaromatic ring conformer: 96.98695345915006 kcal/mol)

>  <smiles>  (68) 
O=C(CCc1nc2nc(C3CCCNC3)[nH]c2c(=O)[nH]1)NCC(=O)Nc1ccccc1F

>  <score_type>  (68) 
oracle

>  <origin>  (68) 
adg

>  <m_score__min__energy>  (68) 
-13.9

>  <m_primary>  (68) 
energy

$$$$
68:0
     RDKit          3D

 61 65  0  0  0  0  0  0  0  0999 V2000
   61.1620   23.3120   45.0240 H   0  0  0  0  0  0  0  0  0  0  0  0
   60.3520   23.3200   45.6330 O   0  0  0  0  0  0  0  0  0  0  0  0
   59.5970   24.4760   45.8250 C   0  0  0  0  0  0  0  0  0  0  0  0
   58.2270   24.4840   45.5460 C   0  0  0  0  0  0  0  0  0  0  0  0
   57.7392   23.5735   45.1677 H   0  0  0  0  0  0  0  0  0  0  0  0
   57.4760   25.6440   45.7460 C   0  0  0  0  0  0  0  0  0  0  0  0
   56.4011   25.6457   45.5122 H   0  0  0  0  0  0  0  0  0  0  0  0
   58.0850   26.8120   46.2450 C   0  0  0  0  0  0  0  0  0  0  0  0
   57.3400   28.0300   46.4360 N   0  0  0  0  0  0  0  0  0  0  0  0
   57.2150   29.0240   45.6050 C   0  0  0  0  0  0  0  0  0  0  0  0
   57.9090   30.1670   45.8390 N   0  0  0  0  0  0  0  0  0  0  0  0
   57.7910   31.2490   45.0260 C   0  0  0  0  0  0  0  0  0  0  0  0
   58.4720   32.4640   45.3570 N   0  0  0  0  0  0  0  0  0  0  0  0
   59.1540   32.7740   46.4820 C   0  0  0  0  0  0  0  0  0  0  0  0
   59.4950   31.8080   47.5870 C   0  0  0  0  0  0  0  0  0  0  0  0
   58.8560   30.9191   47.4795 H   0  0  0  0  0  0  0  0  0  0  0  0
   60.5650   31.5733   47.4872 H   0  0  0  0  0  0  0  0  0  0  0  0
   59.2970   32.3710   48.9740 C   0  0  0  0  0  0  0  0  0  0  0  0
   60.1680   33.3380   49.5070 C   0  0  0  0  0  0  0  0  0  0  0  0
   61.0119   33.7066   48.9054 H   0  0  0  0  0  0  0  0  0  0  0  0
   59.9650   33.8320   50.7980 C   0  0  0  0  0  0  0  0  0  0  0  0
   60.6283   34.6135   51.1971 H   0  0  0  0  0  0  0  0  0  0  0  0
   58.9220   33.3360   51.5830 C   0  0  0  0  0  0  0  0  0  0  0  0
   58.7655   33.7320   52.5973 H   0  0  0  0  0  0  0  0  0  0  0  0
   58.0750   32.3390   51.0880 C   0  0  0  0  0  0  0  0  0  0  0  0
   57.0810   31.7840   51.9640 N   0  0  0  0  0  0  0  0  0  0  0  0
   56.5890   30.4360   51.9710 C   0  0  0  0  0  0  0  0  0  0  0  0
   57.4150   29.4960   51.8280 O   0  0  0  0  0  0  0  0  0  0  0  0
   55.1620   30.1160   52.2040 C   0  0  0  0  0  0  0  0  0  0  0  0
   54.7940   29.0530   53.0440 C   0  0  0  0  0  0  0  0  0  0  0  0
   55.5703   28.4625   53.5526 H   0  0  0  0  0  0  0  0  0  0  0  0
   53.4480   28.7430   53.2360 C   0  0  0  0  0  0  0  0  0  0  0  0
   53.1678   27.9076   53.8945 H   0  0  0  0  0  0  0  0  0  0  0  0
   52.4550   29.4860   52.5980 C   0  0  0  0  0  0  0  0  0  0  0  0
   51.3954   29.2476   52.7726 H   0  0  0  0  0  0  0  0  0  0  0  0
   52.8020   30.5380   51.7330 C   0  0  0  0  0  0  0  0  0  0  0  0
   51.7380   31.3790   51.0740 C   0  0  0  0  0  0  0  0  0  0  0  0
   51.2990   30.7990   49.8970 F   0  0  0  0  0  0  0  0  0  0  0  0
   50.6630   31.5090   51.9360 F   0  0  0  0  0  0  0  0  0  0  0  0
   52.2340   32.6360   50.7770 F   0  0  0  0  0  0  0  0  0  0  0  0
   54.1590   30.8540   51.5540 C   0  0  0  0  0  0  0  0  0  0  0  0
   54.4397   31.6900   50.8965 H   0  0  0  0  0  0  0  0  0  0  0  0
   58.2790   31.8470   49.7860 C   0  0  0  0  0  0  0  0  0  0  0  0
   57.6342   31.0435   49.4003 H   0  0  0  0  0  0  0  0  0  0  0  0
   59.6160   34.0420   46.4690 N   0  0  0  0  0  0  0  0  0  0  0  0
   59.1870   34.5440   45.2930 C   0  0  0  0  0  0  0  0  0  0  0  0
   59.3685   35.5687   44.9366 H   0  0  0  0  0  0  0  0  0  0  0  0
   58.4870   33.5770   44.6070 C   0  0  0  0  0  0  0  0  0  0  0  0
   58.0215   33.6958   43.6175 H   0  0  0  0  0  0  0  0  0  0  0  0
   56.9260   31.1970   43.9310 C   0  0  0  0  0  0  0  0  0  0  0  0
   56.8132   32.0628   43.2619 H   0  0  0  0  0  0  0  0  0  0  0  0
   56.2090   30.0240   43.7050 C   0  0  0  0  0  0  0  0  0  0  0  0
   55.5223   29.9541   42.8485 H   0  0  0  0  0  0  0  0  0  0  0  0
   56.3600   28.9650   44.5460 N   0  0  0  0  0  0  0  0  0  0  0  0
   59.4730   26.8120   46.4940 C   0  0  0  0  0  0  0  0  0  0  0  0
   60.1560   28.0580   46.9940 C   0  0  0  0  0  0  0  0  0  0  0  0
   60.1568   28.0594   48.0940 H   0  0  0  0  0  0  0  0  0  0  0  0
   61.1926   28.0805   46.6266 H   0  0  0  0  0  0  0  0  0  0  0  0
   59.6174   28.9440   46.6266 H   0  0  0  0  0  0  0  0  0  0  0  0
   60.2180   25.6370   46.2940 C   0  0  0  0  0  0  0  0  0  0  0  0
   61.2970   25.6311   46.5080 H   0  0  0  0  0  0  0  0  0  0  0  0
  1  2  1  0
  2  3  1  0
  3  4  2  0
  4  5  1  0
  4  6  1  0
  6  7  1  0
  6  8  2  0
  8  9  1  0
  9 10  2  0
 10 11  1  0
 11 12  2  0
 12 13  1  0
 13 14  1  0
 14 15  1  0
 15 16  1  0
 15 17  1  0
 15 18  1  0
 18 19  2  0
 19 20  1  0
 19 21  1  0
 21 22  1  0
 21 23  2  0
 23 24  1  0
 23 25  1  0
 25 26  1  0
 26 27  1  0
 27 28  2  0
 27 29  1  0
 29 30  2  0
 30 31  1  0
 30 32  1  0
 32 33  1  0
 32 34  2  0
 34 35  1  0
 34 36  1  0
 36 37  1  0
 37 38  1  0
 37 39  1  0
 37 40  1  0
 36 41  2  0
 41 42  1  0
 25 43  2  0
 43 44  1  0
 14 45  2  0
 45 46  1  0
 46 47  1  0
 46 48  2  0
 48 49  1  0
 12 50  1  0
 50 51  1  0
 50 52  2  0
 52 53  1  0
 52 54  1  0
  8 55  1  0
 55 56  1  0
 56 57  1  0
 56 58  1  0
 56 59  1  0
 55 60  2  0
 60 61  1  0
 60  3  1  0
 54 10  1  0
 48 13  1  0
 43 18  1  0
 41 29  1  0
M  CHG  2  26  -1  54  -1
M  END
>  <UniqueID>  (69) 
65

>  <SMILES>  (69) 
Cc1cc(O)ccc1/N=c1/nc(-n2ccnc2Cc2cccc([N-]C(=O)c3cccc(C(F)(F)F)c3)c2)cc[n-]1

>  <Energy>  (69) 
114.02844960111555

>  <Genealogy>  (69) 
Cc1cc(O)ccc1N=c1nc(-n2ccnc2Cc2cccc([N-]C(=O)c3cccc(C(F)(F)F)c3)c2)cc[n-]1 (protonated)
Cc1cc(O)ccc1/N=c1/nc(-n2ccnc2Cc2cccc([N-]C(=O)c3cccc(C(F)(F)F)c3)c2)cc[n-]1 (cis-trans isomerization)
Cc1cc(O)ccc1/N=c1/nc(-n2ccnc2Cc2cccc([N-]C(=O)c3cccc(C(F)(F)F)c3)c2)cc[n-]1 (3D coordinates assigned)
Cc1cc(O)ccc1/N=c1/nc(-n2ccnc2Cc2cccc([N-]C(=O)c3cccc(C(F)(F)F)c3)c2)cc[n-]1 (optimized conformer: 114.02844960111555 kcal/mol)

>  <smiles>  (69) 
Cc1cc(O)ccc1N=c1nc(-n2ccnc2Cc2cccc(NC(=O)c3cccc(C(F)(F)F)c3)c2)cc[nH]1

>  <score_type>  (69) 
oracle

>  <origin>  (69) 
adg

>  <m_score__min__energy>  (69) 
-13.27

>  <m_primary>  (69) 
energy

$$$$
69:0
     RDKit          3D

 52 53  0  0  0  0  0  0  0  0999 V2000
   57.3880   31.6880   42.5360 C   0  0  0  0  0  0  0  0  0  0  0  0
   57.0050   30.5080   43.8140 S   0  0  0  0  0  0  0  0  0  0  0  0
   55.5400   30.1820   43.7500 O   0  0  0  0  0  0  0  0  0  0  0  0
   57.7970   29.2510   43.5850 O   0  0  0  0  0  0  0  0  0  0  0  0
   57.3690   31.1490   45.3860 N   0  0  0  0  0  0  0  0  0  0  0  0
   57.0680   32.5800   45.4290 C   0  0  0  0  0  0  0  0  0  0  0  0
   57.9470   33.2890   46.4670 C   0  0  2  0  0  0  0  0  0  0  0  0
   58.5230   34.6110   45.9520 C   0  0  0  0  0  0  0  0  0  0  0  0
   59.9850   34.3300   45.6390 C   0  0  0  0  0  0  0  0  0  0  0  0
   60.3550   33.1010   46.4570 C   0  0  0  0  0  0  0  0  0  0  0  0
   59.0980   32.4610   46.8260 N   0  0  0  0  0  0  0  0  0  0  0  0
   59.0350   31.5570   47.9440 C   0  0  0  0  0  0  0  0  0  0  0  0
   58.5790   32.0290   49.1380 N   0  0  0  0  0  0  0  0  0  0  0  0
   58.4930   31.2550   50.2530 C   0  0  0  0  0  0  0  0  0  0  0  0
   57.9780   31.8400   51.5360 C   0  0  0  0  0  0  0  0  0  0  0  0
   58.2160   33.2020   51.5800 F   0  0  0  0  0  0  0  0  0  0  0  0
   58.6150   31.2390   52.6060 F   0  0  0  0  0  0  0  0  0  0  0  0
   56.6170   31.6200   51.6330 F   0  0  0  0  0  0  0  0  0  0  0  0
   58.8900   29.9180   50.1930 C   0  0  0  0  0  0  0  0  0  0  0  0
   59.3570   29.3960   48.9890 C   0  0  0  0  0  0  0  0  0  0  0  0
   59.4370   30.2020   47.8420 C   0  0  0  0  0  0  0  0  0  0  0  0
   59.8620   29.5740   46.5380 C   0  0  0  0  0  0  0  0  0  0  0  0
   58.8330   28.6190   46.0910 N   0  0  0  0  0  0  0  0  0  0  0  0
   59.3860   27.5340   45.2650 C   0  0  0  0  0  0  0  0  0  0  0  0
   58.3520   26.4260   45.0290 C   0  0  0  0  0  0  0  0  0  0  0  0
   56.8020   26.7650   45.8540 S   0  0  0  0  0  0  0  0  0  0  0  0
   56.1100   28.2340   45.2600 N   0  0  0  0  0  0  0  0  0  0  0  0
   55.8460   25.6290   45.6180 O   0  0  0  0  0  0  0  0  0  0  0  0
   57.0520   26.8970   47.3310 O   0  0  0  0  0  0  0  0  0  0  0  0
   57.6966   32.6387   42.9953 H   0  0  0  0  0  0  0  0  0  0  0  0
   58.2063   31.2997   41.9117 H   0  0  0  0  0  0  0  0  0  0  0  0
   56.4977   31.8543   41.9117 H   0  0  0  0  0  0  0  0  0  0  0  0
   57.2555   33.0182   44.4376 H   0  0  0  0  0  0  0  0  0  0  0  0
   56.0129   32.7107   45.7113 H   0  0  0  0  0  0  0  0  0  0  0  0
   57.2861   33.4738   47.3267 H   0  0  0  0  0  0  0  0  0  0  0  0
   57.9916   34.9329   45.0443 H   0  0  0  0  0  0  0  0  0  0  0  0
   58.4144   35.4167   46.6929 H   0  0  0  0  0  0  0  0  0  0  0  0
   60.1152   34.1291   44.5654 H   0  0  0  0  0  0  0  0  0  0  0  0
   60.6248   35.1896   45.8875 H   0  0  0  0  0  0  0  0  0  0  0  0
   60.9698   32.4146   45.8562 H   0  0  0  0  0  0  0  0  0  0  0  0
   60.9405   33.3747   47.3471 H   0  0  0  0  0  0  0  0  0  0  0  0
   58.8345   29.2821   51.0889 H   0  0  0  0  0  0  0  0  0  0  0  0
   59.6663   28.3417   48.9362 H   0  0  0  0  0  0  0  0  0  0  0  0
   59.9881   30.3588   45.7776 H   0  0  0  0  0  0  0  0  0  0  0  0
   60.8150   29.0437   46.6813 H   0  0  0  0  0  0  0  0  0  0  0  0
   58.1440   29.1400   45.5000 H   0  0  0  0  0  0  0  0  0  0  0  0
   59.6962   27.9465   44.2936 H   0  0  0  0  0  0  0  0  0  0  0  0
   60.2446   27.0980   45.7967 H   0  0  0  0  0  0  0  0  0  0  0  0
   58.1667   26.3382   43.9483 H   0  0  0  0  0  0  0  0  0  0  0  0
   58.7578   25.4907   45.4418 H   0  0  0  0  0  0  0  0  0  0  0  0
   56.0830   28.1610   44.2190 H   0  0  0  0  0  0  0  0  0  0  0  0
   56.7790   29.0030   45.4900 H   0  0  0  0  0  0  0  0  0  0  0  0
  1  2  1  0
  2  3  2  0
  2  4  2  0
  2  5  1  0
  5  6  1  0
  6  7  1  0
  7  8  1  0
  8  9  1  0
  9 10  1  0
 10 11  1  0
 11 12  1  0
 12 13  2  0
 13 14  1  0
 14 15  1  0
 15 16  1  0
 15 17  1  0
 15 18  1  0
 14 19  2  0
 19 20  1  0
 20 21  2  0
 21 22  1  0
 22 23  1  0
 23 24  1  0
 24 25  1  0
 25 26  1  0
 26 27  1  0
 26 28  2  0
 26 29  2  0
 11  7  1  0
 21 12  1  0
  1 30  1  0
  1 31  1  0
  1 32  1  0
  6 33  1  0
  6 34  1  0
  7 35  1  1
  8 36  1  0
  8 37  1  0
  9 38  1  0
  9 39  1  0
 10 40  1  0
 10 41  1  0
 19 42  1  0
 20 43  1  0
 22 44  1  0
 22 45  1  0
 23 46  1  0
 24 47  1  0
 24 48  1  0
 25 49  1  0
 25 50  1  0
 27 51  1  0
 27 52  1  0
M  CHG  1   5  -1
M  END
>  <UniqueID>  (70) 
66

>  <SMILES>  (70) 
CS(=O)(=O)[N-]C[C@@H]1CCCN1c1nc(C(F)(F)F)ccc1CNCCS(N)(=O)=O

>  <Energy>  (70) 
38.83184971699267

>  <Genealogy>  (70) 
CS(=O)(=O)[N-]CC1CCCN1c1nc(C(F)(F)F)ccc1CNCCS(N)(=O)=O (protonated)
CS(=O)(=O)[N-]C[C@@H]1CCCN1c1nc(C(F)(F)F)ccc1CNCCS(N)(=O)=O (chirality)
CS(=O)(=O)[N-]C[C@@H]1CCCN1c1nc(C(F)(F)F)ccc1CNCCS(N)(=O)=O (3D coordinates assigned)
CS(=O)(=O)[N-]C[C@@H]1CCCN1c1nc(C(F)(F)F)ccc1CNCCS(N)(=O)=O (nonaromatic ring conformer: 38.83184971699267 kcal/mol)

>  <smiles>  (70) 
CS(=O)(=O)NCC1CCCN1c1nc(C(F)(F)F)ccc1CNCCS(N)(=O)=O

>  <score_type>  (70) 
oracle

>  <origin>  (70) 
adg

>  <m_score__min__energy>  (70) 
-8.8200000000000003

>  <m_primary>  (70) 
energy

$$$$
70:0
     RDKit          3D

 59 63  0  0  0  0  0  0  0  0999 V2000
   57.1020   29.9730   44.2390 C   0  0  0  0  0  0  0  0  0  0  0  0
   57.5890   29.7610   45.4720 C   0  0  0  0  0  0  0  0  0  0  0  0
   58.0370   28.5380   45.9970 C   0  0  0  0  0  0  0  0  0  0  0  0
   57.9120   27.2770   45.5370 C   0  0  0  0  0  0  0  0  0  0  0  0
   57.3250   26.1460   46.2740 C   0  0  0  0  0  0  0  0  0  0  0  0
   58.0220   25.0990   46.7560 N   0  0  0  0  0  0  0  0  0  0  0  0
   57.0600   24.2690   47.2120 C   0  0  0  0  0  0  0  0  0  0  0  0
   57.3210   23.1670   47.7610 O   0  0  0  0  0  0  0  0  0  0  0  0
   55.7970   24.7060   47.0250 N   0  0  0  0  0  0  0  0  0  0  0  0
   55.9840   25.8880   46.4160 C   0  0  0  0  0  0  0  0  0  0  0  0
   54.9480   26.7120   45.9920 O   0  0  0  0  0  0  0  0  0  0  0  0
   58.6670   28.8370   47.1900 C   0  0  0  0  0  0  0  0  0  0  0  0
   58.5120   30.1900   47.3960 C   0  0  0  0  0  0  0  0  0  0  0  0
   58.9960   30.8920   48.5990 C   0  0  0  0  0  0  0  0  0  0  0  0
   58.1860   31.6050   49.2520 O   0  0  0  0  0  0  0  0  0  0  0  0
   60.3710   30.8080   49.0160 N   0  0  0  0  0  0  0  0  0  0  0  0
   60.6920   30.9600   50.4420 C   0  0  0  0  0  0  0  0  0  0  0  0
   62.1470   30.5830   50.7370 C   0  0  0  0  0  0  0  0  0  0  0  0
   63.0620   31.2460   49.7960 N   0  0  0  0  0  0  0  0  0  0  0  0
   64.3930   31.6250   50.2130 C   0  0  0  0  0  0  0  0  0  0  0  0
   65.0070   32.7780   49.6920 C   0  0  0  0  0  0  0  0  0  0  0  0
   66.2900   33.1290   50.1130 C   0  0  0  0  0  0  0  0  0  0  0  0
   66.9550   32.3380   51.0470 C   0  0  0  0  0  0  0  0  0  0  0  0
   66.3210   31.2020   51.5530 C   0  0  0  0  0  0  0  0  0  0  0  0
   65.0680   30.8700   51.1350 N   0  0  0  0  0  0  0  0  0  0  0  0
   62.6700   31.4240   48.3880 C   0  0  0  0  0  0  0  0  0  0  0  0
   61.4410   30.5800   48.0350 C   0  0  0  0  0  0  0  0  0  0  0  0
   57.8620   30.7620   46.3530 N   0  0  0  0  0  0  0  0  0  0  0  0
   57.6970   32.2100   46.1260 C   0  0  0  0  0  0  0  0  0  0  0  0
   58.8970   32.9740   46.6260 C   0  0  0  0  0  0  0  0  0  0  0  0
   58.7740   33.8760   47.6970 C   0  0  0  0  0  0  0  0  0  0  0  0
   59.8920   34.5780   48.1590 C   0  0  0  0  0  0  0  0  0  0  0  0
   61.1390   34.3790   47.5640 C   0  0  0  0  0  0  0  0  0  0  0  0
   61.2740   33.4740   46.5080 C   0  0  0  0  0  0  0  0  0  0  0  0
   60.1580   32.7720   46.0420 C   0  0  0  0  0  0  0  0  0  0  0  0
   56.7807   30.9818   43.9405 H   0  0  0  0  0  0  0  0  0  0  0  0
   57.0243   29.1379   43.5273 H   0  0  0  0  0  0  0  0  0  0  0  0
   58.2814   27.0753   44.5207 H   0  0  0  0  0  0  0  0  0  0  0  0
   59.1919   28.1298   47.8490 H   0  0  0  0  0  0  0  0  0  0  0  0
   60.5285   32.0076   50.7348 H   0  0  0  0  0  0  0  0  0  0  0  0
   60.0393   30.2849   51.0149 H   0  0  0  0  0  0  0  0  0  0  0  0
   62.3984   30.8924   51.7622 H   0  0  0  0  0  0  0  0  0  0  0  0
   62.2573   29.4942   50.6263 H   0  0  0  0  0  0  0  0  0  0  0  0
   64.4778   33.4006   48.9555 H   0  0  0  0  0  0  0  0  0  0  0  0
   66.7757   34.0290   49.7080 H   0  0  0  0  0  0  0  0  0  0  0  0
   67.9680   32.6055   51.3820 H   0  0  0  0  0  0  0  0  0  0  0  0
   66.8359   30.5718   52.2930 H   0  0  0  0  0  0  0  0  0  0  0  0
   64.6350   30.0050   51.5250 H   0  0  0  0  0  0  0  0  0  0  0  0
   62.4370   32.4848   48.2135 H   0  0  0  0  0  0  0  0  0  0  0  0
   63.5067   31.0966   47.7533 H   0  0  0  0  0  0  0  0  0  0  0  0
   61.0823   30.8612   47.0339 H   0  0  0  0  0  0  0  0  0  0  0  0
   61.7199   29.5160   48.0484 H   0  0  0  0  0  0  0  0  0  0  0  0
   57.5766   32.3940   45.0482 H   0  0  0  0  0  0  0  0  0  0  0  0
   56.8083   32.5527   46.6763 H   0  0  0  0  0  0  0  0  0  0  0  0
   57.7947   34.0304   48.1736 H   0  0  0  0  0  0  0  0  0  0  0  0
   59.7885   35.2881   48.9927 H   0  0  0  0  0  0  0  0  0  0  0  0
   62.0160   34.9351   47.9267 H   0  0  0  0  0  0  0  0  0  0  0  0
   62.2581   33.3138   46.0433 H   0  0  0  0  0  0  0  0  0  0  0  0
   60.2685   32.0574   45.2131 H   0  0  0  0  0  0  0  0  0  0  0  0
  1  2  2  0
  2  3  1  0
  3  4  2  3
  4  5  1  0
  5  6  1  0
  6  7  1  0
  7  8  2  0
  7  9  1  0
  9 10  1  0
 10 11  1  0
  3 12  1  0
 12 13  2  0
 13 14  1  0
 14 15  2  0
 14 16  1  0
 16 17  1  0
 17 18  1  0
 18 19  1  0
 19 20  1  0
 20 21  2  0
 21 22  1  0
 22 23  2  0
 23 24  1  0
 24 25  2  0
 19 26  1  0
 26 27  1  0
 13 28  1  0
 28 29  1  0
 29 30  1  0
 30 31  2  0
 31 32  1  0
 32 33  2  0
 33 34  1  0
 34 35  2  0
 28  2  1  0
 35 30  1  0
 10  5  2  0
 27 16  1  0
 25 20  1  0
  1 36  1  0
  1 37  1  0
  4 38  1  0
 12 39  1  0
 17 40  1  0
 17 41  1  0
 18 42  1  0
 18 43  1  0
 21 44  1  0
 22 45  1  0
 23 46  1  0
 24 47  1  0
 25 48  1  0
 26 49  1  0
 26 50  1  0
 27 51  1  0
 27 52  1  0
 29 53  1  0
 29 54  1  0
 31 55  1  0
 32 56  1  0
 33 57  1  0
 34 58  1  0
 35 59  1  0
M  CHG  4   6  -1   9  -1  11  -1  25   1
M  END
>  <UniqueID>  (71) 
67

>  <SMILES>  (71) 
C=c1c(=Cc2[n-]c(=O)[n-]c2[O-])cc(C(=O)N2CCN(c3cccc[nH+]3)CC2)n1Cc1ccccc1

>  <Energy>  (71) 
141.40478890521274

>  <Genealogy>  (71) 
C=c1c(=Cc2[n-]c(=O)[n-]c2[O-])cc(C(=O)N2CCN(c3cccc[nH+]3)CC2)n1Cc1ccccc1 (protonated)
C=c1c(=Cc2[n-]c(=O)[n-]c2[O-])cc(C(=O)N2CCN(c3cccc[nH+]3)CC2)n1Cc1ccccc1 (3D coordinates assigned)
C=c1c(=Cc2[n-]c(=O)[n-]c2[O-])cc(C(=O)N2CCN(c3cccc[nH+]3)CC2)n1Cc1ccccc1 (nonaromatic ring conformer: 141.40478890521274 kcal/mol)

>  <smiles>  (71) 
C=c1c(=Cc2[nH]c(=O)[nH]c2O)cc(C(=O)N2CCN(c3ccccn3)CC2)n1Cc1ccccc1

>  <score_type>  (71) 
oracle

>  <origin>  (71) 
adg

>  <m_score__min__energy>  (71) 
-15.220000000000001

>  <m_primary>  (71) 
energy

$$$$
71:0
     RDKit          3D

 45 47  0  0  0  0  0  0  0  0999 V2000
   60.1240   29.5800   46.7180 C   0  0  0  0  0  0  0  0  0  0  0  0
   59.4360   30.5440   46.0850 C   0  0  0  0  0  0  0  0  0  0  0  0
   58.4170   30.3780   45.1310 C   0  0  0  0  0  0  0  0  0  0  0  0
   57.9780   29.2800   44.4840 C   0  0  0  0  0  0  0  0  0  0  0  0
   57.4170   28.0740   45.1230 C   0  0  0  0  0  0  0  0  0  0  0  0
   56.0310   27.9440   45.2920 C   0  0  0  0  0  0  0  0  0  0  0  0
   55.1720   28.9680   44.9080 O   0  0  0  0  0  0  0  0  0  0  0  0
   55.5180   26.8130   45.8420 N   0  0  0  0  0  0  0  0  0  0  0  0
   56.3260   25.7900   46.2230 C   0  0  0  0  0  0  0  0  0  0  0  0
   55.8280   24.7540   46.7350 O   0  0  0  0  0  0  0  0  0  0  0  0
   57.6680   25.8810   46.0450 N   0  0  0  0  0  0  0  0  0  0  0  0
   58.2300   26.9890   45.4980 C   0  0  0  0  0  0  0  0  0  0  0  0
   59.4780   27.0300   45.3270 O   0  0  0  0  0  0  0  0  0  0  0  0
   57.8780   31.6370   44.9170 C   0  0  0  0  0  0  0  0  0  0  0  0
   58.6060   32.5210   45.6850 C   0  0  0  0  0  0  0  0  0  0  0  0
   58.3580   33.9970   45.7510 C   0  0  0  0  0  0  0  0  0  0  0  0
   59.5500   31.8610   46.3930 N   0  0  0  0  0  0  0  0  0  0  0  0
   60.4710   32.4600   47.3230 C   0  0  0  0  0  0  0  0  0  0  0  0
   61.7970   32.7070   46.9400 C   0  0  0  0  0  0  0  0  0  0  0  0
   62.6940   33.2850   47.8410 C   0  0  0  0  0  0  0  0  0  0  0  0
   62.2750   33.6340   49.1350 C   0  0  0  0  0  0  0  0  0  0  0  0
   63.2240   34.2300   50.0990 C   0  0  0  0  0  0  0  0  0  0  0  0
   63.0270   35.4130   50.4910 O   0  0  0  0  0  0  0  0  0  0  0  0
   64.3680   33.5010   50.5880 N   0  0  0  0  0  0  0  0  0  0  0  0
   64.9470   33.8710   51.8810 C   0  0  0  0  0  0  0  0  0  0  0  0
   65.0400   32.5150   49.7350 C   0  0  0  0  0  0  0  0  0  0  0  0
   60.9540   33.3630   49.5240 C   0  0  0  0  0  0  0  0  0  0  0  0
   60.0550   32.7850   48.6230 C   0  0  0  0  0  0  0  0  0  0  0  0
   58.7830   32.5290   49.0190 F   0  0  0  0  0  0  0  0  0  0  0  0
   60.9020   29.8483   47.4478 H   0  0  0  0  0  0  0  0  0  0  0  0
   59.9095   28.5220   46.5067 H   0  0  0  0  0  0  0  0  0  0  0  0
   58.0435   29.2832   43.3860 H   0  0  0  0  0  0  0  0  0  0  0  0
   57.0311   31.8838   44.2599 H   0  0  0  0  0  0  0  0  0  0  0  0
   58.3049   34.3132   46.8032 H   0  0  0  0  0  0  0  0  0  0  0  0
   59.1792   34.5296   45.2491 H   0  0  0  0  0  0  0  0  0  0  0  0
   57.4078   34.2320   45.2491 H   0  0  0  0  0  0  0  0  0  0  0  0
   62.1321   32.4445   45.9257 H   0  0  0  0  0  0  0  0  0  0  0  0
   63.7347   33.4679   47.5352 H   0  0  0  0  0  0  0  0  0  0  0  0
   64.3203   33.4705   52.6915 H   0  0  0  0  0  0  0  0  0  0  0  0
   65.9615   33.4534   51.9614 H   0  0  0  0  0  0  0  0  0  0  0  0
   64.9942   34.9670   51.9614 H   0  0  0  0  0  0  0  0  0  0  0  0
   65.5477   31.7701   50.3654 H   0  0  0  0  0  0  0  0  0  0  0  0
   64.2960   32.0119   49.0999 H   0  0  0  0  0  0  0  0  0  0  0  0
   65.7803   33.0235   49.0999 H   0  0  0  0  0  0  0  0  0  0  0  0
   60.6239   33.6070   50.5445 H   0  0  0  0  0  0  0  0  0  0  0  0
  1  2  2  0
  2  3  1  0
  3  4  2  3
  4  5  1  0
  5  6  2  0
  6  7  1  0
  6  8  1  0
  8  9  1  0
  9 10  2  0
  9 11  1  0
 11 12  1  0
 12 13  2  0
  3 14  1  0
 14 15  2  0
 15 16  1  0
 15 17  1  0
 17 18  1  0
 18 19  2  0
 19 20  1  0
 20 21  2  0
 21 22  1  0
 22 23  2  0
 22 24  1  0
 24 25  1  0
 24 26  1  0
 21 27  1  0
 27 28  2  0
 28 29  1  0
 17  2  1  0
 28 18  1  0
 12  5  1  0
  1 30  1  0
  1 31  1  0
  4 32  1  0
 14 33  1  0
 16 34  1  0
 16 35  1  0
 16 36  1  0
 19 37  1  0
 20 38  1  0
 25 39  1  0
 25 40  1  0
 25 41  1  0
 26 42  1  0
 26 43  1  0
 26 44  1  0
 27 45  1  0
M  CHG  3   7  -1   8  -1  11  -1
M  END
>  <UniqueID>  (72) 
68

>  <SMILES>  (72) 
C=c1c(=Cc2c([O-])[n-]c(=O)[n-]c2=O)cc(C)n1-c1ccc(C(=O)N(C)C)cc1F

>  <Energy>  (72) 
99.71664483328139

>  <Genealogy>  (72) 
C=c1c(=Cc2c([O-])[n-]c(=O)[n-]c2=O)cc(C)n1-c1ccc(C(=O)N(C)C)cc1F (protonated)
C=c1c(=Cc2c([O-])[n-]c(=O)[n-]c2=O)cc(C)n1-c1ccc(C(=O)N(C)C)cc1F (3D coordinates assigned)
C=c1c(=Cc2c([O-])[n-]c(=O)[n-]c2=O)cc(C)n1-c1ccc(C(=O)N(C)C)cc1F (optimized conformer: 99.71664483328139 kcal/mol)

>  <smiles>  (72) 
C=c1c(=Cc2c(O)[nH]c(=O)[nH]c2=O)cc(C)n1-c1ccc(C(=O)N(C)C)cc1F

>  <score_type>  (72) 
oracle

>  <origin>  (72) 
adg

>  <m_score__min__energy>  (72) 
-15.43

>  <m_primary>  (72) 
energy

$$$$
72:0
     RDKit          3D

 33 34  0  0  0  0  0  0  0  0999 V2000
   57.9436   32.2259   47.2689 H   0  0  0  0  0  0  0  0  0  0  0  0
   57.9060   32.2830   46.1710 C   0  0  0  0  0  0  0  0  0  0  0  0
   57.4430   31.2290   45.4510 N   0  0  0  0  0  0  0  0  0  0  0  0
   57.3670   31.2350   44.0910 C   0  0  0  0  0  0  0  0  0  0  0  0
   56.8660   30.1740   43.5210 N   0  0  0  0  0  0  0  0  0  0  0  0
   57.0420   28.7890   43.8390 C   0  0  0  0  0  0  0  0  0  0  0  0
   57.4260   28.0000   42.9360 O   0  0  0  0  0  0  0  0  0  0  0  0
   56.9670   28.3460   45.2040 N   0  0  0  0  0  0  0  0  0  0  0  0
   56.9500   29.0800   45.9470 H   0  0  0  0  0  0  0  0  0  0  0  0
   57.1580   26.9800   45.6100 C   0  0  0  0  0  0  0  0  0  0  0  0
   58.4550   26.4520   45.6120 C   0  0  0  0  0  0  0  0  0  0  0  0
   59.3027   27.0849   45.3104 H   0  0  0  0  0  0  0  0  0  0  0  0
   58.6800   25.1280   45.9940 C   0  0  0  0  0  0  0  0  0  0  0  0
   60.3050   24.4690   45.9550 Cl  0  0  0  0  0  0  0  0  0  0  0  0
   57.6130   24.3320   46.4120 C   0  0  0  0  0  0  0  0  0  0  0  0
   57.7929   23.2835   46.6917 H   0  0  0  0  0  0  0  0  0  0  0  0
   56.3160   24.8540   46.4790 C   0  0  0  0  0  0  0  0  0  0  0  0
   55.2730   23.9910   46.9540 N   0  0  0  0  0  0  0  0  0  0  0  0
   54.6480   22.5920   46.1390 S   0  0  0  0  0  0  0  0  0  0  0  0
   53.5090   23.0220   45.2580 O   0  0  0  0  0  0  0  0  0  0  0  0
   54.1390   21.5910   47.1360 O   0  0  0  0  0  0  0  0  0  0  0  0
   55.9010   21.8630   45.1020 C   0  0  0  0  0  0  0  0  0  0  0  0
   56.6803   21.4096   45.7322 H   0  0  0  0  0  0  0  0  0  0  0  0
   55.4463   21.0884   44.4669 H   0  0  0  0  0  0  0  0  0  0  0  0
   56.3497   22.6411   44.4669 H   0  0  0  0  0  0  0  0  0  0  0  0
   56.0820   26.1810   46.0550 C   0  0  0  0  0  0  0  0  0  0  0  0
   54.7950   26.7060   46.0660 O   0  0  0  0  0  0  0  0  0  0  0  0
   57.8520   32.3760   43.3890 C   0  0  0  0  0  0  0  0  0  0  0  0
   58.1130   32.4500   41.6480 Cl  0  0  0  0  0  0  0  0  0  0  0  0
   58.3150   33.4740   44.1240 C   0  0  0  0  0  0  0  0  0  0  0  0
   58.6673   34.3735   43.5979 H   0  0  0  0  0  0  0  0  0  0  0  0
   58.3330   33.4360   45.5180 C   0  0  0  0  0  0  0  0  0  0  0  0
   58.9300   34.8060   46.4360 Cl  0  0  0  0  0  0  0  0  0  0  0  0
  1  2  1  0
  2  3  1  0
  3  4  1  0
  4  5  2  0
  5  6  1  0
  6  7  2  0
  6  8  1  0
  8  9  1  0
  8 10  1  0
 10 11  2  0
 11 12  1  0
 11 13  1  0
 13 14  1  0
 13 15  2  0
 15 16  1  0
 15 17  1  0
 17 18  1  0
 18 19  1  0
 19 20  2  0
 19 21  2  0
 19 22  1  0
 22 23  1  0
 22 24  1  0
 22 25  1  0
 17 26  2  0
 26 27  1  0
  4 28  1  0
 28 29  1  0
 28 30  2  0
 30 31  1  0
 30 32  1  0
 32 33  1  0
 32  2  2  0
 26 10  1  0
M  CHG  3   3  -1  18  -1  27  -1
M  END
>  <UniqueID>  (73) 
69

>  <SMILES>  (73) 
CS(=O)(=O)[N-]c1cc(Cl)cc(NC(=O)/N=c2/[n-]cc(Cl)cc2Cl)c1[O-]

>  <Energy>  (73) 
57.54544368281246

>  <Genealogy>  (73) 
CS(=O)(=O)[N-]c1cc(Cl)cc(NC(=O)N=c2[n-]cc(Cl)cc2Cl)c1[O-] (protonated)
CS(=O)(=O)[N-]c1cc(Cl)cc(NC(=O)/N=c2/[n-]cc(Cl)cc2Cl)c1[O-] (cis-trans isomerization)
CS(=O)(=O)[N-]c1cc(Cl)cc(NC(=O)/N=c2/[n-]cc(Cl)cc2Cl)c1[O-] (3D coordinates assigned)
CS(=O)(=O)[N-]c1cc(Cl)cc(NC(=O)/N=c2/[n-]cc(Cl)cc2Cl)c1[O-] (optimized conformer: 57.54544368281246 kcal/mol)

>  <smiles>  (73) 
CS(=O)(=O)Nc1cc(Cl)cc(NC(=O)N=c2[nH]cc(Cl)cc2Cl)c1O

>  <score_type>  (73) 
oracle

>  <origin>  (73) 
adg

>  <m_score__min__energy>  (73) 
-15.1

>  <m_primary>  (73) 
energy

$$$$
73:0
     RDKit          3D

 65 69  0  0  0  0  0  0  0  0999 V2000
   59.7590   28.2560   48.5920 C   0  0  0  0  0  0  0  0  0  0  0  0
   59.2840   29.2900   47.8780 C   0  0  0  0  0  0  0  0  0  0  0  0
   58.6380   29.1970   46.6400 C   0  0  0  0  0  0  0  0  0  0  0  0
   58.4760   28.0900   45.8880 C   0  0  0  0  0  0  0  0  0  0  0  0
   57.3120   27.1900   45.9770 C   0  0  0  0  0  0  0  0  0  0  0  0
   57.3690   25.9680   46.5360 N   0  0  0  0  0  0  0  0  0  0  0  0
   56.0870   25.5460   46.4970 C   0  0  0  0  0  0  0  0  0  0  0  0
   55.7310   24.4180   46.9270 O   0  0  0  0  0  0  0  0  0  0  0  0
   55.2130   26.4320   45.9770 N   0  0  0  0  0  0  0  0  0  0  0  0
   56.0020   27.4730   45.6620 C   0  0  0  0  0  0  0  0  0  0  0  0
   55.5220   28.6700   45.1490 O   0  0  0  0  0  0  0  0  0  0  0  0
   58.2720   30.4880   46.2920 C   0  0  0  0  0  0  0  0  0  0  0  0
   58.7050   31.3130   47.3120 C   0  0  0  0  0  0  0  0  0  0  0  0
   58.5840   32.7910   47.3220 C   0  0  0  0  0  0  0  0  0  0  0  0
   57.4260   33.2890   47.3780 O   0  0  0  0  0  0  0  0  0  0  0  0
   59.7330   33.6790   47.3020 N   0  0  0  0  0  0  0  0  0  0  0  0
   60.8460   33.1840   46.4380 C   0  0  0  0  0  0  0  0  0  0  0  0
   62.0020   32.5190   47.2080 C   0  0  0  0  0  0  0  0  0  0  0  0
   62.3970   33.2880   48.3960 N   0  0  0  0  0  0  0  0  0  0  0  0
   63.5480   32.8580   49.1570 C   0  0  0  0  0  0  0  0  0  0  0  0
   64.3800   32.0720   48.6220 O   0  0  0  0  0  0  0  0  0  0  0  0
   63.7950   33.3450   50.5650 C   0  0  0  0  0  0  0  0  0  0  0  0
   62.8500   32.7200   51.5600 C   0  0  0  0  0  0  0  0  0  0  0  0
   62.0960   33.5320   52.4220 C   0  0  0  0  0  0  0  0  0  0  0  0
   61.1980   32.9560   53.3260 C   0  0  0  0  0  0  0  0  0  0  0  0
   61.0430   31.5680   53.3690 C   0  0  0  0  0  0  0  0  0  0  0  0
   61.7820   30.7540   52.5060 C   0  0  0  0  0  0  0  0  0  0  0  0
   62.6800   31.3260   51.6000 C   0  0  0  0  0  0  0  0  0  0  0  0
   61.5910   34.4570   48.7700 C   0  0  0  0  0  0  0  0  0  0  0  0
   60.1180   34.0710   48.6810 C   0  0  0  0  0  0  0  0  0  0  0  0
   59.3440   30.5920   48.2660 N   0  0  0  0  0  0  0  0  0  0  0  0
   59.9410   31.1480   49.4940 C   0  0  0  0  0  0  0  0  0  0  0  0
   58.8940   31.3260   50.5600 C   0  0  0  0  0  0  0  0  0  0  0  0
   58.1760   30.2180   51.0380 C   0  0  0  0  0  0  0  0  0  0  0  0
   57.1740   30.3870   51.9970 C   0  0  0  0  0  0  0  0  0  0  0  0
   56.8790   31.6630   52.4850 C   0  0  0  0  0  0  0  0  0  0  0  0
   57.5910   32.7710   52.0180 C   0  0  0  0  0  0  0  0  0  0  0  0
   58.5960   32.6050   51.0620 C   0  0  0  0  0  0  0  0  0  0  0  0
   60.2531   28.4356   49.5582 H   0  0  0  0  0  0  0  0  0  0  0  0
   59.6538   27.2297   48.2104 H   0  0  0  0  0  0  0  0  0  0  0  0
   59.2634   27.8423   45.1609 H   0  0  0  0  0  0  0  0  0  0  0  0
   57.7397   30.7960   45.3800 H   0  0  0  0  0  0  0  0  0  0  0  0
   59.4000   34.5590   46.8350 H   0  0  0  0  0  0  0  0  0  0  0  0
   60.4330   32.4469   45.7336 H   0  0  0  0  0  0  0  0  0  0  0  0
   61.2698   34.0663   45.9361 H   0  0  0  0  0  0  0  0  0  0  0  0
   61.6837   31.5153   47.5263 H   0  0  0  0  0  0  0  0  0  0  0  0
   62.8705   32.4708   46.5347 H   0  0  0  0  0  0  0  0  0  0  0  0
   64.8270   33.0931   50.8506 H   0  0  0  0  0  0  0  0  0  0  0  0
   63.6285   34.4322   50.5794 H   0  0  0  0  0  0  0  0  0  0  0  0
   62.2120   34.6253   52.3862 H   0  0  0  0  0  0  0  0  0  0  0  0
   60.6134   33.5958   54.0035 H   0  0  0  0  0  0  0  0  0  0  0  0
   60.3388   31.1156   54.0827 H   0  0  0  0  0  0  0  0  0  0  0  0
   61.6569   29.6617   52.5397 H   0  0  0  0  0  0  0  0  0  0  0  0
   63.2547   30.6832   50.9170 H   0  0  0  0  0  0  0  0  0  0  0  0
   61.8340   34.7628   49.7983 H   0  0  0  0  0  0  0  0  0  0  0  0
   61.8044   35.2971   48.0927 H   0  0  0  0  0  0  0  0  0  0  0  0
   59.9304   33.2240   49.3574 H   0  0  0  0  0  0  0  0  0  0  0  0
   59.5172   34.9467   48.9678 H   0  0  0  0  0  0  0  0  0  0  0  0
   60.7174   30.4608   49.8614 H   0  0  0  0  0  0  0  0  0  0  0  0
   60.3797   32.1295   49.2613 H   0  0  0  0  0  0  0  0  0  0  0  0
   58.4035   29.2120   50.6556 H   0  0  0  0  0  0  0  0  0  0  0  0
   56.6165   29.5145   52.3685 H   0  0  0  0  0  0  0  0  0  0  0  0
   56.0866   31.7950   53.2365 H   0  0  0  0  0  0  0  0  0  0  0  0
   57.3599   33.7750   52.4036 H   0  0  0  0  0  0  0  0  0  0  0  0
   59.1570   33.4793   50.7002 H   0  0  0  0  0  0  0  0  0  0  0  0
  1  2  2  0
  2  3  1  0
  3  4  2  3
  4  5  1  0
  5  6  1  0
  6  7  1  0
  7  8  2  0
  7  9  1  0
  9 10  1  0
 10 11  1  0
  3 12  1  0
 12 13  2  0
 13 14  1  0
 14 15  2  0
 14 16  1  0
 16 17  1  0
 17 18  1  0
 18 19  1  0
 19 20  1  0
 20 21  2  0
 20 22  1  0
 22 23  1  0
 23 24  2  0
 24 25  1  0
 25 26  2  0
 26 27  1  0
 27 28  2  0
 19 29  1  0
 29 30  1  0
 13 31  1  0
 31 32  1  0
 32 33  1  0
 33 34  2  0
 34 35  1  0
 35 36  2  0
 36 37  1  0
 37 38  2  0
 31  2  1  0
 38 33  1  0
 10  5  2  0
 30 16  1  0
 28 23  1  0
  1 39  1  0
  1 40  1  0
  4 41  1  0
 12 42  1  0
 16 43  1  0
 17 44  1  0
 17 45  1  0
 18 46  1  0
 18 47  1  0
 22 48  1  0
 22 49  1  0
 24 50  1  0
 25 51  1  0
 26 52  1  0
 27 53  1  0
 28 54  1  0
 29 55  1  0
 29 56  1  0
 30 57  1  0
 30 58  1  0
 32 59  1  0
 32 60  1  0
 34 61  1  0
 35 62  1  0
 36 63  1  0
 37 64  1  0
 38 65  1  0
M  CHG  4   6  -1   9  -1  11  -1  16   1
M  END
>  <UniqueID>  (74) 
70

>  <SMILES>  (74) 
C=c1c(=Cc2[n-]c(=O)[n-]c2[O-])cc(C(=O)[NH+]2CCN(C(=O)Cc3ccccc3)CC2)n1Cc1ccccc1

>  <Energy>  (74) 
150.34429269097012

>  <Genealogy>  (74) 
C=c1c(=Cc2[n-]c(=O)[n-]c2[O-])cc(C(=O)[NH+]2CCN(C(=O)Cc3ccccc3)CC2)n1Cc1ccccc1 (protonated)
C=c1c(=Cc2[n-]c(=O)[n-]c2[O-])cc(C(=O)[NH+]2CCN(C(=O)Cc3ccccc3)CC2)n1Cc1ccccc1 (3D coordinates assigned)
C=c1c(=Cc2[n-]c(=O)[n-]c2[O-])cc(C(=O)[NH+]2CCN(C(=O)Cc3ccccc3)CC2)n1Cc1ccccc1 (nonaromatic ring conformer: 150.34429269097012 kcal/mol)

>  <smiles>  (74) 
C=c1c(=Cc2[nH]c(=O)[nH]c2O)cc(C(=O)N2CCN(C(=O)Cc3ccccc3)CC2)n1Cc1ccccc1

>  <score_type>  (74) 
oracle

>  <origin>  (74) 
adg

>  <m_score__min__energy>  (74) 
-16.219999999999999

>  <m_primary>  (74) 
energy

$$$$
74:0
     RDKit          3D

 45 48  0  0  0  0  0  0  0  0999 V2000
   57.2769   34.8226   43.9328 H   0  0  0  0  0  0  0  0  0  0  0  0
   57.7360   34.4440   44.8580 C   0  0  0  0  0  0  0  0  0  0  0  0
   57.0520   33.5190   45.6500 C   0  0  0  0  0  0  0  0  0  0  0  0
   56.0587   33.1605   45.3419 H   0  0  0  0  0  0  0  0  0  0  0  0
   57.6280   33.0480   46.8340 C   0  0  0  0  0  0  0  0  0  0  0  0
   57.0916   32.3086   47.4469 H   0  0  0  0  0  0  0  0  0  0  0  0
   58.8880   33.5140   47.2450 C   0  0  0  0  0  0  0  0  0  0  0  0
   59.4930   33.0350   48.5370 C   0  0  0  0  0  0  0  0  0  0  0  0
   58.7028   32.5899   49.1594 H   0  0  0  0  0  0  0  0  0  0  0  0
   59.9508   33.8959   49.0462 H   0  0  0  0  0  0  0  0  0  0  0  0
   60.5370   32.0290   48.2970 N   0  0  0  0  0  0  0  0  0  0  0  0
   60.3870   30.6930   48.1410 C   0  0  0  0  0  0  0  0  0  0  0  0
   58.8570   29.7870   48.3800 S   0  0  0  0  0  0  0  0  0  0  0  0
   59.0850   28.7380   46.8960 C   0  0  0  0  0  0  0  0  0  0  0  0
   60.0414   28.2017   46.9832 H   0  0  0  0  0  0  0  0  0  0  0  0
   59.0761   29.3922   46.0117 H   0  0  0  0  0  0  0  0  0  0  0  0
   57.9740   27.7310   46.7430 C   0  0  0  0  0  0  0  0  0  0  0  0
   57.9740   26.6970   47.4630 O   0  0  0  0  0  0  0  0  0  0  0  0
   56.9100   27.9010   45.7920 N   0  0  0  0  0  0  0  0  0  0  0  0
   56.6610   28.9520   45.0680 C   0  0  0  0  0  0  0  0  0  0  0  0
   55.5380   29.6950   45.1370 N   0  0  0  0  0  0  0  0  0  0  0  0
   55.6890   30.6660   44.2840 O   0  0  0  0  0  0  0  0  0  0  0  0
   56.8520   30.5850   43.6760 C   0  0  0  0  0  0  0  0  0  0  0  0
   57.3360   31.5450   42.6440 C   0  0  0  0  0  0  0  0  0  0  0  0
   57.7784   32.4225   43.1383 H   0  0  0  0  0  0  0  0  0  0  0  0
   58.0954   31.0562   42.0160 H   0  0  0  0  0  0  0  0  0  0  0  0
   56.4914   31.8649   42.0160 H   0  0  0  0  0  0  0  0  0  0  0  0
   57.5380   29.4870   44.1510 C   0  0  0  0  0  0  0  0  0  0  0  0
   58.5382   29.1275   43.8675 H   0  0  0  0  0  0  0  0  0  0  0  0
   61.5340   30.1020   47.7550 N   0  0  0  0  0  0  0  0  0  0  0  0
   62.4350   31.0660   47.6730 N   0  0  0  0  0  0  0  0  0  0  0  0
   63.4210   30.9200   47.3630 H   0  0  0  0  0  0  0  0  0  0  0  0
   61.8430   32.2280   48.0100 C   0  0  0  0  0  0  0  0  0  0  0  0
   62.5220   33.5700   47.9630 C   0  0  0  0  0  0  0  0  0  0  0  0
   61.7488   34.1051   48.5339 H   0  0  0  0  0  0  0  0  0  0  0  0
   64.0420   33.4980   47.9750 C   0  0  0  0  0  0  0  0  0  0  0  0
   64.6234   34.2564   48.5198 H   0  0  0  0  0  0  0  0  0  0  0  0
   64.7803   32.7311   48.2521 H   0  0  0  0  0  0  0  0  0  0  0  0
   63.3190   33.8730   46.6980 C   0  0  0  0  0  0  0  0  0  0  0  0
   63.3748   34.9034   46.3169 H   0  0  0  0  0  0  0  0  0  0  0  0
   63.3146   33.4914   45.6663 H   0  0  0  0  0  0  0  0  0  0  0  0
   59.5810   34.4200   46.4260 C   0  0  0  0  0  0  0  0  0  0  0  0
   60.5843   34.7636   46.7180 H   0  0  0  0  0  0  0  0  0  0  0  0
   59.0040   34.8880   45.2420 C   0  0  0  0  0  0  0  0  0  0  0  0
   59.5487   35.6065   44.6119 H   0  0  0  0  0  0  0  0  0  0  0  0
  1  2  1  0
  2  3  2  0
  3  4  1  0
  3  5  1  0
  5  6  1  0
  5  7  2  0
  7  8  1  0
  8  9  1  0
  8 10  1  0
  8 11  1  0
 11 12  1  0
 12 13  1  0
 13 14  1  0
 14 15  1  0
 14 16  1  0
 14 17  1  0
 17 18  2  0
 17 19  1  0
 19 20  2  0
 20 21  1  0
 21 22  1  0
 22 23  1  0
 23 24  1  0
 24 25  1  0
 24 26  1  0
 24 27  1  0
 23 28  2  0
 28 29  1  0
 12 30  2  0
 30 31  1  0
 31 32  1  0
 31 33  2  0
 33 34  1  0
 34 35  1  0
 34 36  1  0
 36 37  1  0
 36 38  1  0
 36 39  1  0
 39 40  1  0
 39 41  1  0
  7 42  1  0
 42 43  1  0
 42 44  2  0
 44 45  1  0
 44  2  1  0
 33 11  1  0
 39 34  1  0
 28 20  1  0
M  CHG  2  21  -1  31   1
M  END
>  <UniqueID>  (75) 
71

>  <SMILES>  (75) 
Cc1c/c(=N/C(=O)CSc2n[nH+]c(C3CC3)n2Cc2ccccc2)[n-]o1

>  <Energy>  (75) 
375.82387845713293

>  <Genealogy>  (75) 
Cc1cc(=NC(=O)CSc2n[nH+]c(C3CC3)n2Cc2ccccc2)[n-]o1 (protonated)
Cc1c/c(=N/C(=O)CSc2n[nH+]c(C3CC3)n2Cc2ccccc2)[n-]o1 (cis-trans isomerization)
Cc1c/c(=N/C(=O)CSc2n[nH+]c(C3CC3)n2Cc2ccccc2)[n-]o1 (3D coordinates assigned)
Cc1c/c(=N/C(=O)CSc2n[nH+]c(C3CC3)n2Cc2ccccc2)[n-]o1 (nonaromatic ring conformer: 375.82387845713293 kcal/mol)

>  <smiles>  (75) 
Cc1cc(=NC(=O)CSc2nnc(C3CC3)n2Cc2ccccc2)[nH]o1

>  <score_type>  (75) 
oracle

>  <origin>  (75) 
adg

>  <m_score__min__energy>  (75) 
-9.4800000000000004

>  <m_primary>  (75) 
energy

$$$$
75:0
     RDKit          3D

 55 59  0  0  0  0  0  0  0  0999 V2000
   57.7760   25.1600   46.9090 O   0  0  0  0  0  0  0  0  0  0  0  0
   58.1430   26.3620   46.8300 C   0  0  0  0  0  0  0  0  0  0  0  0
   57.1770   27.4220   46.7550 N   0  0  0  0  0  0  0  0  0  0  0  0
   57.2290   28.4570   45.9710 C   0  0  0  0  0  0  0  0  0  0  0  0
   56.8600   28.4460   44.6650 N   0  0  0  0  0  0  0  0  0  0  0  0
   57.0370   29.6710   44.1060 C   0  0  0  0  0  0  0  0  0  0  0  0
   56.7590   29.9800   42.7670 C   0  0  0  0  0  0  0  0  0  0  0  0
   56.2680   29.0220   41.8800 O   0  0  0  0  0  0  0  0  0  0  0  0
   56.9970   31.2910   42.3150 C   0  0  0  0  0  0  0  0  0  0  0  0
   57.5030   32.2710   43.1910 C   0  0  0  0  0  0  0  0  0  0  0  0
   57.7900   31.9510   44.5280 C   0  0  0  0  0  0  0  0  0  0  0  0
   58.3300   32.9420   45.4100 N   0  0  0  0  0  0  0  0  0  0  0  0
   58.9770   34.1200   44.8270 C   0  0  0  0  0  0  0  0  0  0  0  0
   59.8860   34.7820   45.8620 C   0  0  0  0  0  0  0  0  0  0  0  0
   59.1880   35.0010   47.0740 O   0  0  0  0  0  0  0  0  0  0  0  0
   58.8700   33.7600   47.6680 C   0  0  0  0  0  0  0  0  0  0  0  0
   57.8750   32.9810   46.8030 C   0  0  0  0  0  0  0  0  0  0  0  0
   57.5440   30.6420   44.9590 C   0  0  0  0  0  0  0  0  0  0  0  0
   57.7850   29.9660   46.4790 S   0  0  0  0  0  0  0  0  0  0  0  0
   59.5430   26.6630   46.8660 N   0  0  0  0  0  0  0  0  0  0  0  0
   60.1190   27.9590   47.0820 C   0  0  0  0  0  0  0  0  0  0  0  0
   60.5590   28.7600   46.0150 C   0  0  0  0  0  0  0  0  0  0  0  0
   61.1420   30.0070   46.2620 C   0  0  0  0  0  0  0  0  0  0  0  0
   61.3060   30.4600   47.5780 C   0  0  0  0  0  0  0  0  0  0  0  0
   62.0430   32.0290   47.8980 S   0  0  0  0  0  0  0  0  0  0  0  0
   61.8370   32.9420   46.7190 O   0  0  0  0  0  0  0  0  0  0  0  0
   63.5210   31.8260   48.0830 O   0  0  0  0  0  0  0  0  0  0  0  0
   61.3630   32.7320   49.3520 N   0  0  0  0  0  0  0  0  0  0  0  0
   61.5550   34.1840   49.3820 C   0  0  0  0  0  0  0  0  0  0  0  0
   62.9500   34.5100   49.9000 C   0  0  0  0  0  0  0  0  0  0  0  0
   63.4880   33.1540   50.9700 S   0  0  0  0  0  0  0  0  0  0  0  0
   62.0110   32.1800   50.5470 C   0  0  0  0  0  0  0  0  0  0  0  0
   60.8830   29.6550   48.6440 C   0  0  0  0  0  0  0  0  0  0  0  0
   60.3040   28.4060   48.3960 C   0  0  0  0  0  0  0  0  0  0  0  0
   55.5410   28.3700   42.1520 H   0  0  0  0  0  0  0  0  0  0  0  0
   56.7859   31.5530   41.2677 H   0  0  0  0  0  0  0  0  0  0  0  0
   57.6746   33.2942   42.8254 H   0  0  0  0  0  0  0  0  0  0  0  0
   59.5773   33.8133   43.9578 H   0  0  0  0  0  0  0  0  0  0  0  0
   58.2051   34.8377   44.5122 H   0  0  0  0  0  0  0  0  0  0  0  0
   60.7491   34.1280   46.0555 H   0  0  0  0  0  0  0  0  0  0  0  0
   60.2229   35.7521   45.4677 H   0  0  0  0  0  0  0  0  0  0  0  0
   59.7902   33.1680   47.7807 H   0  0  0  0  0  0  0  0  0  0  0  0
   58.4116   33.9469   48.6503 H   0  0  0  0  0  0  0  0  0  0  0  0
   57.7896   31.9531   47.1853 H   0  0  0  0  0  0  0  0  0  0  0  0
   56.8968   33.4824   46.8450 H   0  0  0  0  0  0  0  0  0  0  0  0
   60.4444   28.4047   44.9803 H   0  0  0  0  0  0  0  0  0  0  0  0
   61.4728   30.6340   45.4209 H   0  0  0  0  0  0  0  0  0  0  0  0
   61.4391   34.5887   48.3657 H   0  0  0  0  0  0  0  0  0  0  0  0
   60.8056   34.6355   50.0487 H   0  0  0  0  0  0  0  0  0  0  0  0
   63.6457   34.6155   49.0545 H   0  0  0  0  0  0  0  0  0  0  0  0
   62.9346   35.4548   50.4632 H   0  0  0  0  0  0  0  0  0  0  0  0
   62.3066   31.1387   50.3514 H   0  0  0  0  0  0  0  0  0  0  0  0
   61.3034   32.2188   51.3883 H   0  0  0  0  0  0  0  0  0  0  0  0
   61.0066   30.0063   49.6790 H   0  0  0  0  0  0  0  0  0  0  0  0
   59.9921   27.7711   49.2384 H   0  0  0  0  0  0  0  0  0  0  0  0
  1  2  2  0
  2  3  1  0
  3  4  2  3
  4  5  1  0
  5  6  1  0
  6  7  2  0
  7  8  1  0
  7  9  1  0
  9 10  2  0
 10 11  1  0
 11 12  1  0
 12 13  1  0
 13 14  1  0
 14 15  1  0
 15 16  1  0
 16 17  1  0
 11 18  2  0
 18 19  1  0
  2 20  1  0
 20 21  1  0
 21 22  2  0
 22 23  1  0
 23 24  2  0
 24 25  1  0
 25 26  2  0
 25 27  2  0
 25 28  1  0
 28 29  1  0
 29 30  1  0
 30 31  1  0
 31 32  1  0
 24 33  1  0
 33 34  2  0
 19  4  1  0
 34 21  1  0
 18  6  1  0
 32 28  1  0
 17 12  1  0
  8 35  1  0
  9 36  1  0
 10 37  1  0
 13 38  1  0
 13 39  1  0
 14 40  1  0
 14 41  1  0
 16 42  1  0
 16 43  1  0
 17 44  1  0
 17 45  1  0
 22 46  1  0
 23 47  1  0
 29 48  1  0
 29 49  1  0
 30 50  1  0
 30 51  1  0
 32 52  1  0
 32 53  1  0
 33 54  1  0
 34 55  1  0
M  CHG  2   5  -1  20  -1
M  END
>  <UniqueID>  (76) 
72

>  <SMILES>  (76) 
O=C(N=c1[n-]c2c(O)ccc(N3CCOCC3)c2s1)[N-]c1ccc(S(=O)(=O)N2CCSC2)cc1

>  <Energy>  (76) 
103.71053953364141

>  <Genealogy>  (76) 
O=C(N=c1[n-]c2c(O)ccc(N3CCOCC3)c2s1)[N-]c1ccc(S(=O)(=O)N2CCSC2)cc1 (protonated)
O=C(N=c1[n-]c2c(O)ccc(N3CCOCC3)c2s1)[N-]c1ccc(S(=O)(=O)N2CCSC2)cc1 (3D coordinates assigned)
O=C(N=c1[n-]c2c(O)ccc(N3CCOCC3)c2s1)[N-]c1ccc(S(=O)(=O)N2CCSC2)cc1 (nonaromatic ring conformer: 103.71053953364141 kcal/mol)

>  <smiles>  (76) 
O=C(N=c1[nH]c2c(O)ccc(N3CCOCC3)c2s1)Nc1ccc(S(=O)(=O)N2CCSC2)cc1

>  <score_type>  (76) 
oracle

>  <origin>  (76) 
adg

>  <m_score__min__energy>  (76) 
-10.960000000000001

>  <m_primary>  (76) 
energy

$$$$
76:0
     RDKit          3D

 50 52  0  0  0  0  0  0  0  0999 V2000
   60.8410   27.3890   46.2050 O   0  0  0  0  0  0  0  0  0  0  0  0
   60.0740   27.6370   47.1740 C   0  0  0  0  0  0  0  0  0  0  0  0
   59.0060   26.6350   47.5290 C   0  0  0  0  0  0  0  0  0  0  0  0
   57.6120   27.2310   47.3290 C   0  0  0  0  0  0  0  0  0  0  0  0
   57.1200   26.9110   45.9930 N   0  0  0  0  0  0  0  0  0  0  0  0
   57.6500   27.5000   44.8000 C   0  0  0  0  0  0  0  0  0  0  0  0
   58.2140   26.7670   43.9420 O   0  0  0  0  0  0  0  0  0  0  0  0
   57.5740   28.9650   44.5820 C   0  0  0  0  0  0  0  0  0  0  0  0
   58.7560   29.6900   44.3430 C   0  0  0  0  0  0  0  0  0  0  0  0
   58.7150   31.0720   44.1510 C   0  0  0  0  0  0  0  0  0  0  0  0
   57.4970   31.7490   44.1950 C   0  0  0  0  0  0  0  0  0  0  0  0
   56.3140   31.0460   44.4240 C   0  0  0  0  0  0  0  0  0  0  0  0
   56.3420   29.6600   44.6080 C   0  0  0  0  0  0  0  0  0  0  0  0
   55.1390   28.9870   44.7930 O   0  0  0  0  0  0  0  0  0  0  0  0
   60.1470   28.9280   47.7950 N   0  0  0  0  0  0  0  0  0  0  0  0
   59.9010   29.2220   49.1770 C   0  0  0  0  0  0  0  0  0  0  0  0
   60.9460   29.2900   50.1120 C   0  0  0  0  0  0  0  0  0  0  0  0
   60.6720   29.5970   51.4470 C   0  0  0  0  0  0  0  0  0  0  0  0
   59.3580   29.8520   51.8550 C   0  0  0  0  0  0  0  0  0  0  0  0
   58.3060   29.8070   50.9220 C   0  0  0  0  0  0  0  0  0  0  0  0
   56.9480   30.0980   51.2870 N   0  0  0  0  0  0  0  0  0  0  0  0
   56.4530   30.3900   52.6010 C   0  0  0  0  0  0  0  0  0  0  0  0
   57.0780   31.1710   53.3690 O   0  0  0  0  0  0  0  0  0  0  0  0
   55.2380   29.6770   53.1010 C   0  0  0  0  0  0  0  0  0  0  0  0
   53.9990   30.4310   52.7030 C   0  0  0  0  0  0  0  0  0  0  0  0
   53.9060   31.0240   51.4300 C   0  0  0  0  0  0  0  0  0  0  0  0
   52.7740   31.7660   51.0780 C   0  0  0  0  0  0  0  0  0  0  0  0
   51.7310   31.9310   51.9930 C   0  0  0  0  0  0  0  0  0  0  0  0
   50.6070   32.6700   51.6390 O   0  0  0  0  0  0  0  0  0  0  0  0
   51.8270   31.3670   53.2700 C   0  0  0  0  0  0  0  0  0  0  0  0
   52.9570   30.6220   53.6250 C   0  0  0  0  0  0  0  0  0  0  0  0
   58.5930   29.5190   49.5820 C   0  0  0  0  0  0  0  0  0  0  0  0
   59.1149   25.7492   46.8859 H   0  0  0  0  0  0  0  0  0  0  0  0
   59.1216   26.3575   48.5871 H   0  0  0  0  0  0  0  0  0  0  0  0
   56.9257   26.8126   48.0799 H   0  0  0  0  0  0  0  0  0  0  0  0
   57.6667   28.3238   47.4418 H   0  0  0  0  0  0  0  0  0  0  0  0
   59.7209   29.1630   44.3071 H   0  0  0  0  0  0  0  0  0  0  0  0
   59.6456   31.6281   43.9646 H   0  0  0  0  0  0  0  0  0  0  0  0
   57.4688   32.8389   44.0490 H   0  0  0  0  0  0  0  0  0  0  0  0
   55.3553   31.5841   44.4600 H   0  0  0  0  0  0  0  0  0  0  0  0
   61.9817   29.1013   49.7931 H   0  0  0  0  0  0  0  0  0  0  0  0
   61.4915   29.6384   52.1796 H   0  0  0  0  0  0  0  0  0  0  0  0
   59.1470   30.0883   52.9084 H   0  0  0  0  0  0  0  0  0  0  0  0
   55.2045   28.6665   52.6677 H   0  0  0  0  0  0  0  0  0  0  0  0
   55.2838   29.6111   54.1981 H   0  0  0  0  0  0  0  0  0  0  0  0
   54.7275   30.9033   50.7085 H   0  0  0  0  0  0  0  0  0  0  0  0
   52.7046   32.2206   50.0788 H   0  0  0  0  0  0  0  0  0  0  0  0
   51.0129   31.5095   53.9959 H   0  0  0  0  0  0  0  0  0  0  0  0
   53.0295   30.1837   54.6313 H   0  0  0  0  0  0  0  0  0  0  0  0
   57.7821   29.5260   48.8387 H   0  0  0  0  0  0  0  0  0  0  0  0
  1  2  2  0
  2  3  1  0
  3  4  1  0
  4  5  1  0
  5  6  1  0
  6  7  2  0
  6  8  1  0
  8  9  2  0
  9 10  1  0
 10 11  2  0
 11 12  1  0
 12 13  2  0
 13 14  1  0
  2 15  1  0
 15 16  1  0
 16 17  2  0
 17 18  1  0
 18 19  2  0
 19 20  1  0
 20 21  1  0
 21 22  1  0
 22 23  2  0
 22 24  1  0
 24 25  1  0
 25 26  2  0
 26 27  1  0
 27 28  2  0
 28 29  1  0
 28 30  1  0
 30 31  2  0
 20 32  2  0
 13  8  1  0
 32 16  1  0
 31 25  1  0
  3 33  1  0
  3 34  1  0
  4 35  1  0
  4 36  1  0
  9 37  1  0
 10 38  1  0
 11 39  1  0
 12 40  1  0
 17 41  1  0
 18 42  1  0
 19 43  1  0
 24 44  1  0
 24 45  1  0
 26 46  1  0
 27 47  1  0
 30 48  1  0
 31 49  1  0
 32 50  1  0
M  CHG  5   5  -1  14  -1  15  -1  21  -1  29  -1
M  END
>  <UniqueID>  (77) 
73

>  <SMILES>  (77) 
O=C(CC[N-]C(=O)c1ccccc1[O-])[N-]c1cccc([N-]C(=O)Cc2ccc([O-])cc2)c1

>  <Energy>  (77) 
53.16809262453001

>  <Genealogy>  (77) 
O=C(CC[N-]C(=O)c1ccccc1[O-])[N-]c1cccc([N-]C(=O)Cc2ccc([O-])cc2)c1 (protonated)
O=C(CC[N-]C(=O)c1ccccc1[O-])[N-]c1cccc([N-]C(=O)Cc2ccc([O-])cc2)c1 (3D coordinates assigned)
O=C(CC[N-]C(=O)c1ccccc1[O-])[N-]c1cccc([N-]C(=O)Cc2ccc([O-])cc2)c1 (optimized conformer: 53.16809262453001 kcal/mol)

>  <smiles>  (77) 
O=C(CCNC(=O)c1ccccc1O)Nc1cccc(NC(=O)Cc2ccc(O)cc2)c1

>  <score_type>  (77) 
oracle

>  <origin>  (77) 
adg

>  <m_score__min__energy>  (77) 
-18.879999999999999

>  <m_primary>  (77) 
energy

$$$$
77:0
     RDKit          3D

 48 51  0  0  0  0  0  0  0  0999 V2000
   61.2724   29.5187   46.4494 H   0  0  0  0  0  0  0  0  0  0  0  0
   60.3840   29.4360   45.8060 C   0  0  0  0  0  0  0  0  0  0  0  0
   60.1718   28.4936   45.2798 H   0  0  0  0  0  0  0  0  0  0  0  0
   59.5590   30.4850   45.6630 C   0  0  0  0  0  0  0  0  0  0  0  0
   58.3990   30.5260   44.8830 C   0  0  0  0  0  0  0  0  0  0  0  0
   57.8490   29.5180   44.1790 C   0  0  0  0  0  0  0  0  0  0  0  0
   57.7778   29.6247   43.0865 H   0  0  0  0  0  0  0  0  0  0  0  0
   57.3350   28.2740   44.7960 C   0  0  0  0  0  0  0  0  0  0  0  0
   56.0090   28.2090   45.2460 C   0  0  0  0  0  0  0  0  0  0  0  0
   55.1570   29.2970   45.0850 O   0  0  0  0  0  0  0  0  0  0  0  0
   55.5430   27.0740   45.8340 N   0  0  0  0  0  0  0  0  0  0  0  0
   54.5490   27.0340   46.1560 H   0  0  0  0  0  0  0  0  0  0  0  0
   56.3530   25.9960   46.0090 C   0  0  0  0  0  0  0  0  0  0  0  0
   55.9060   24.9500   46.5510 O   0  0  0  0  0  0  0  0  0  0  0  0
   57.6480   26.0440   45.6060 N   0  0  0  0  0  0  0  0  0  0  0  0
   58.1600   27.1550   45.0150 C   0  0  0  0  0  0  0  0  0  0  0  0
   59.3760   27.1730   44.6870 O   0  0  0  0  0  0  0  0  0  0  0  0
   57.8930   31.8140   45.0010 C   0  0  0  0  0  0  0  0  0  0  0  0
   56.9871   32.2112   44.5198 H   0  0  0  0  0  0  0  0  0  0  0  0
   58.7500   32.4990   45.8410 C   0  0  0  0  0  0  0  0  0  0  0  0
   58.5810   33.9320   46.2430 C   0  0  0  0  0  0  0  0  0  0  0  0
   58.5722   34.0064   47.3404 H   0  0  0  0  0  0  0  0  0  0  0  0
   59.4153   34.5262   45.8419 H   0  0  0  0  0  0  0  0  0  0  0  0
   57.6314   34.3158   45.8419 H   0  0  0  0  0  0  0  0  0  0  0  0
   59.7630   31.6960   46.2370 N   0  0  0  0  0  0  0  0  0  0  0  0
   60.8340   32.0720   47.1220 C   0  0  0  0  0  0  0  0  0  0  0  0
   61.7660   33.0440   46.7280 C   0  0  0  0  0  0  0  0  0  0  0  0
   61.6719   33.5267   45.7441 H   0  0  0  0  0  0  0  0  0  0  0  0
   62.8140   33.4010   47.5820 C   0  0  0  0  0  0  0  0  0  0  0  0
   63.5396   34.1660   47.2686 H   0  0  0  0  0  0  0  0  0  0  0  0
   62.9440   32.7870   48.8380 C   0  0  0  0  0  0  0  0  0  0  0  0
   64.0160   33.1610   49.7230 N   0  0  0  0  0  0  0  0  0  0  0  0
   63.8200   34.1630   50.7390 C   0  0  0  0  0  0  0  0  0  0  0  0
   62.7430   34.8160   50.8020 O   0  0  0  0  0  0  0  0  0  0  0  0
   64.9470   34.5030   51.6740 C   0  0  0  0  0  0  0  0  0  0  0  0
   64.5305   34.7362   52.6650 H   0  0  0  0  0  0  0  0  0  0  0  0
   65.4872   35.3677   51.2612 H   0  0  0  0  0  0  0  0  0  0  0  0
   65.8610   33.4300   51.8010 O   0  0  0  0  0  0  0  0  0  0  0  0
   66.3530   33.0630   50.5280 C   0  0  0  0  0  0  0  0  0  0  0  0
   67.2019   32.3743   50.6510 H   0  0  0  0  0  0  0  0  0  0  0  0
   66.6785   33.9679   49.9940 H   0  0  0  0  0  0  0  0  0  0  0  0
   65.2530   32.3710   49.7160 C   0  0  0  0  0  0  0  0  0  0  0  0
   65.0507   31.3825   50.1542 H   0  0  0  0  0  0  0  0  0  0  0  0
   65.5972   32.2693   48.6762 H   0  0  0  0  0  0  0  0  0  0  0  0
   62.0100   31.8170   49.2300 C   0  0  0  0  0  0  0  0  0  0  0  0
   62.1020   31.3349   50.2144 H   0  0  0  0  0  0  0  0  0  0  0  0
   60.9630   31.4600   48.3760 C   0  0  0  0  0  0  0  0  0  0  0  0
   60.2370   30.6953   48.6895 H   0  0  0  0  0  0  0  0  0  0  0  0
  1  2  1  0
  2  3  1  0
  2  4  2  0
  4  5  1  0
  5  6  2  0
  6  7  1  0
  6  8  1  0
  8  9  2  0
  9 10  1  0
  9 11  1  0
 11 12  1  0
 11 13  1  0
 13 14  2  0
 13 15  1  0
 15 16  1  0
 16 17  2  0
  5 18  1  0
 18 19  1  0
 18 20  2  0
 20 21  1  0
 21 22  1  0
 21 23  1  0
 21 24  1  0
 20 25  1  0
 25 26  1  0
 26 27  2  0
 27 28  1  0
 27 29  1  0
 29 30  1  0
 29 31  2  0
 31 32  1  0
 32 33  1  0
 33 34  2  0
 33 35  1  0
 35 36  1  0
 35 37  1  0
 35 38  1  0
 38 39  1  0
 39 40  1  0
 39 41  1  0
 39 42  1  0
 42 43  1  0
 42 44  1  0
 31 45  1  0
 45 46  1  0
 45 47  2  0
 47 48  1  0
 25  4  1  0
 47 26  1  0
 16  8  1  0
 42 32  1  0
M  CHG  2  10  -1  15  -1
M  END
>  <UniqueID>  (78) 
74

>  <SMILES>  (78) 
C=c1/c(=C/c2c([O-])[nH]c(=O)[n-]c2=O)cc(C)n1-c1ccc(N2CCOCC2=O)cc1

>  <Energy>  (78) 
105.05540323259187

>  <Genealogy>  (78) 
C=c1c(=Cc2c([O-])[nH]c(=O)[n-]c2=O)cc(C)n1-c1ccc(N2CCOCC2=O)cc1 (protonated)
C=c1/c(=C/c2c([O-])[nH]c(=O)[n-]c2=O)cc(C)n1-c1ccc(N2CCOCC2=O)cc1 (cis-trans isomerization)
C=c1/c(=C/c2c([O-])[nH]c(=O)[n-]c2=O)cc(C)n1-c1ccc(N2CCOCC2=O)cc1 (3D coordinates assigned)
C=c1/c(=C/c2c([O-])[nH]c(=O)[n-]c2=O)cc(C)n1-c1ccc(N2CCOCC2=O)cc1 (nonaromatic ring conformer: 105.05540323259187 kcal/mol)

>  <smiles>  (78) 
C=c1c(=Cc2c(O)[nH]c(=O)[nH]c2=O)cc(C)n1-c1ccc(N2CCOCC2=O)cc1

>  <score_type>  (78) 
oracle

>  <origin>  (78) 
adg

>  <m_score__min__energy>  (78) 
-13.619999999999999

>  <m_primary>  (78) 
energy

$$$$
78:0
     RDKit          3D

 40 43  0  0  0  0  0  0  0  0999 V2000
   56.4820   22.9710   47.5320 C   0  0  0  0  0  0  0  0  0  0  0  0
   56.0660   24.0810   46.9110 C   0  0  0  0  0  0  0  0  0  0  0  0
   54.8230   24.0920   46.3650 N   0  0  0  0  0  0  0  0  0  0  0  0
   54.3390   25.1890   45.7390 C   0  0  0  0  0  0  0  0  0  0  0  0
   53.1770   25.1760   45.2550 O   0  0  0  0  0  0  0  0  0  0  0  0
   55.1060   26.3000   45.6270 N   0  0  0  0  0  0  0  0  0  0  0  0
   56.3750   26.3690   46.1210 C   0  0  0  0  0  0  0  0  0  0  0  0
   57.0760   27.5240   45.9370 C   0  0  0  0  0  0  0  0  0  0  0  0
   58.2640   27.8170   46.7060 N   0  0  0  0  0  0  0  0  0  0  0  0
   58.7270   29.1450   47.0090 C   0  0  0  0  0  0  0  0  0  0  0  0
   59.6030   29.3340   48.0870 C   0  0  0  0  0  0  0  0  0  0  0  0
   60.0730   30.6120   48.4060 C   0  0  0  0  0  0  0  0  0  0  0  0
   59.6760   31.7200   47.6520 C   0  0  0  0  0  0  0  0  0  0  0  0
   60.1790   32.9840   47.9960 O   0  0  0  0  0  0  0  0  0  0  0  0
   61.4660   33.2390   48.4920 C   0  0  0  0  0  0  0  0  0  0  0  0
   62.6240   32.9630   47.7410 C   0  0  0  0  0  0  0  0  0  0  0  0
   63.8890   33.2460   48.2670 C   0  0  0  0  0  0  0  0  0  0  0  0
   64.0060   33.8170   49.5370 C   0  0  0  0  0  0  0  0  0  0  0  0
   62.8590   34.1120   50.2800 C   0  0  0  0  0  0  0  0  0  0  0  0
   61.5940   33.8290   49.7560 C   0  0  0  0  0  0  0  0  0  0  0  0
   58.8290   31.5320   46.5470 C   0  0  0  0  0  0  0  0  0  0  0  0
   58.3520   30.2530   46.2310 C   0  0  0  0  0  0  0  0  0  0  0  0
   57.3470   30.0250   44.8220 S   0  0  0  0  0  0  0  0  0  0  0  0
   58.1740   30.1560   43.5750 O   0  0  0  0  0  0  0  0  0  0  0  0
   56.2390   31.0410   44.8200 O   0  0  0  0  0  0  0  0  0  0  0  0
   56.6690   28.4440   44.9090 N   0  0  0  0  0  0  0  0  0  0  0  0
   56.8740   25.2370   46.8260 C   0  0  0  0  0  0  0  0  0  0  0  0
   57.9880   25.2650   47.4190 O   0  0  0  0  0  0  0  0  0  0  0  0
   57.4848   22.9360   47.9828 H   0  0  0  0  0  0  0  0  0  0  0  0
   55.8212   22.0936   47.5916 H   0  0  0  0  0  0  0  0  0  0  0  0
   58.8790   27.0290   47.0070 H   0  0  0  0  0  0  0  0  0  0  0  0
   59.9235   28.4697   48.6872 H   0  0  0  0  0  0  0  0  0  0  0  0
   60.7591   30.7460   49.2553 H   0  0  0  0  0  0  0  0  0  0  0  0
   62.5340   32.5232   46.7368 H   0  0  0  0  0  0  0  0  0  0  0  0
   64.7917   33.0190   47.6808 H   0  0  0  0  0  0  0  0  0  0  0  0
   65.0011   34.0345   49.9524 H   0  0  0  0  0  0  0  0  0  0  0  0
   62.9518   34.5669   51.2772 H   0  0  0  0  0  0  0  0  0  0  0  0
   60.6938   34.0711   50.3399 H   0  0  0  0  0  0  0  0  0  0  0  0
   58.5389   32.3930   45.9269 H   0  0  0  0  0  0  0  0  0  0  0  0
   55.8940   28.2260   44.2450 H   0  0  0  0  0  0  0  0  0  0  0  0
  1  2  2  0
  2  3  1  0
  3  4  1  0
  4  5  2  0
  4  6  1  0
  6  7  1  0
  7  8  2  3
  8  9  1  0
  9 10  1  0
 10 11  2  0
 11 12  1  0
 12 13  2  0
 13 14  1  0
 14 15  1  0
 15 16  2  0
 16 17  1  0
 17 18  2  0
 18 19  1  0
 19 20  2  0
 13 21  1  0
 21 22  2  0
 22 23  1  0
 23 24  2  0
 23 25  2  0
 23 26  1  0
  7 27  1  0
 27 28  2  0
 27  2  1  0
 26  8  1  0
 22 10  1  0
 20 15  1  0
  1 29  1  0
  1 30  1  0
  9 31  1  0
 11 32  1  0
 12 33  1  0
 16 34  1  0
 17 35  1  0
 18 36  1  0
 19 37  1  0
 20 38  1  0
 21 39  1  0
 26 40  1  0
M  CHG  2   3  -1   6  -1
M  END
>  <UniqueID>  (79) 
75

>  <SMILES>  (79) 
C=c1[n-]c(=O)[n-]c(=C2Nc3ccc(Oc4ccccc4)cc3S(=O)(=O)N2)c1=O

>  <Energy>  (79) 
70.18883538327076

>  <Genealogy>  (79) 
C=c1[n-]c(=O)[n-]c(=C2Nc3ccc(Oc4ccccc4)cc3S(=O)(=O)N2)c1=O (protonated)
C=c1[n-]c(=O)[n-]c(=C2Nc3ccc(Oc4ccccc4)cc3S(=O)(=O)N2)c1=O (3D coordinates assigned)
C=c1[n-]c(=O)[n-]c(=C2Nc3ccc(Oc4ccccc4)cc3S(=O)(=O)N2)c1=O (nonaromatic ring conformer: 70.18883538327076 kcal/mol)

>  <smiles>  (79) 
C=c1[nH]c(=O)[nH]c(=C2Nc3ccc(Oc4ccccc4)cc3S(=O)(=O)N2)c1=O

>  <score_type>  (79) 
oracle

>  <origin>  (79) 
adg

>  <m_score__min__energy>  (79) 
-12.26

>  <m_primary>  (79) 
energy

$$$$
79:0
     RDKit          3D

 50 53  0  0  0  0  0  0  0  0999 V2000
   58.7730   32.4122   43.1354 H   0  0  0  0  0  0  0  0  0  0  0  0
   58.1900   31.5900   43.5760 C   0  0  0  0  0  0  0  0  0  0  0  0
   57.0570   31.1060   42.9190 C   0  0  0  0  0  0  0  0  0  0  0  0
   56.7551   31.5404   41.9546 H   0  0  0  0  0  0  0  0  0  0  0  0
   56.3050   30.0710   43.4830 C   0  0  0  0  0  0  0  0  0  0  0  0
   55.4205   29.6867   42.9539 H   0  0  0  0  0  0  0  0  0  0  0  0
   56.6710   29.5210   44.7170 C   0  0  0  0  0  0  0  0  0  0  0  0
   55.8940   28.4280   45.2450 N   0  0  0  0  0  0  0  0  0  0  0  0
   56.3430   27.3800   45.8710 C   0  0  0  0  0  0  0  0  0  0  0  0
   57.5730   27.3720   46.4510 N   0  0  0  0  0  0  0  0  0  0  0  0
   58.0200   26.2750   47.1080 C   0  0  0  0  0  0  0  0  0  0  0  0
   59.3100   26.2920   47.6550 O   0  0  0  0  0  0  0  0  0  0  0  0
   59.8050   27.2310   48.5730 C   0  0  0  0  0  0  0  0  0  0  0  0
   60.7010   26.7880   49.5520 C   0  0  0  0  0  0  0  0  0  0  0  0
   60.9795   25.7248   49.5961 H   0  0  0  0  0  0  0  0  0  0  0  0
   61.2440   27.6850   50.4730 C   0  0  0  0  0  0  0  0  0  0  0  0
   61.9474   27.3267   51.2390 H   0  0  0  0  0  0  0  0  0  0  0  0
   60.8960   29.0370   50.4240 C   0  0  0  0  0  0  0  0  0  0  0  0
   61.3295   29.7409   51.1496 H   0  0  0  0  0  0  0  0  0  0  0  0
   59.9930   29.5020   49.4500 C   0  0  0  0  0  0  0  0  0  0  0  0
   59.6400   30.8930   49.3640 N   0  0  0  0  0  0  0  0  0  0  0  0
   59.0830   31.3060   50.1450 H   0  0  0  0  0  0  0  0  0  0  0  0
   60.0870   31.7690   48.3180 C   0  0  0  0  0  0  0  0  0  0  0  0
   61.0210   31.4150   47.5480 O   0  0  0  0  0  0  0  0  0  0  0  0
   59.4200   33.1080   48.1150 C   0  0  0  0  0  0  0  0  0  0  0  0
   59.0990   33.5103   49.0872 H   0  0  0  0  0  0  0  0  0  0  0  0
   58.1430   32.9300   47.2540 C   0  0  0  0  0  0  0  0  0  0  0  0
   57.3027   32.6841   47.9198 H   0  0  0  0  0  0  0  0  0  0  0  0
   58.3428   32.1254   46.5311 H   0  0  0  0  0  0  0  0  0  0  0  0
   57.7810   34.1860   46.4540 C   0  0  0  0  0  0  0  0  0  0  0  0
   57.5390   35.0038   47.1487 H   0  0  0  0  0  0  0  0  0  0  0  0
   56.9113   33.9709   45.8158 H   0  0  0  0  0  0  0  0  0  0  0  0
   58.9400   34.5930   45.5900 C   0  0  0  0  0  0  0  0  0  0  0  0
   58.7390   35.1790   44.5390 O   0  0  0  0  0  0  0  0  0  0  0  0
   60.3490   34.2960   46.0290 C   0  0  0  0  0  0  0  0  0  0  0  0
   61.0091   35.1156   45.7089 H   0  0  0  0  0  0  0  0  0  0  0  0
   60.6740   33.3497   45.5720 H   0  0  0  0  0  0  0  0  0  0  0  0
   60.4140   34.1610   47.5540 C   0  0  0  0  0  0  0  0  0  0  0  0
   60.1793   35.1377   48.0023 H   0  0  0  0  0  0  0  0  0  0  0  0
   61.4290   33.8234   47.8105 H   0  0  0  0  0  0  0  0  0  0  0  0
   59.4710   28.5970   48.5120 C   0  0  0  0  0  0  0  0  0  0  0  0
   58.7954   28.9585   47.7228 H   0  0  0  0  0  0  0  0  0  0  0  0
   57.2320   25.1680   47.1820 N   0  0  0  0  0  0  0  0  0  0  0  0
   55.9960   25.1750   46.6210 C   0  0  0  0  0  0  0  0  0  0  0  0
   55.2630   24.1580   46.7050 O   0  0  0  0  0  0  0  0  0  0  0  0
   55.5540   26.2800   45.9690 N   0  0  0  0  0  0  0  0  0  0  0  0
   57.8370   29.9880   45.3570 C   0  0  0  0  0  0  0  0  0  0  0  0
   58.1623   29.5320   46.3037 H   0  0  0  0  0  0  0  0  0  0  0  0
   58.5820   31.0290   44.7930 C   0  0  0  0  0  0  0  0  0  0  0  0
   59.4775   31.4060   45.3088 H   0  0  0  0  0  0  0  0  0  0  0  0
  1  2  1  0
  2  3  2  0
  3  4  1  0
  3  5  1  0
  5  6  1  0
  5  7  2  0
  7  8  1  0
  8  9  2  0
  9 10  1  0
 10 11  2  0
 11 12  1  0
 12 13  1  0
 13 14  2  0
 14 15  1  0
 14 16  1  0
 16 17  1  0
 16 18  2  0
 18 19  1  0
 18 20  1  0
 20 21  1  0
 21 22  1  0
 21 23  1  0
 23 24  2  0
 23 25  1  0
 25 26  1  0
 25 27  1  0
 27 28  1  0
 27 29  1  0
 27 30  1  0
 30 31  1  0
 30 32  1  0
 30 33  1  0
 33 34  2  0
 33 35  1  0
 35 36  1  0
 35 37  1  0
 35 38  1  0
 38 39  1  0
 38 40  1  0
 20 41  2  0
 41 42  1  0
 11 43  1  0
 43 44  1  0
 44 45  2  0
 44 46  1  0
  7 47  1  0
 47 48  1  0
 47 49  2  0
 49 50  1  0
 49  2  1  0
 46  9  1  0
 41 13  1  0
 38 25  1  0
M  CHG  2  43  -1  46  -1
M  END
>  <UniqueID>  (80) 
76

>  <SMILES>  (80) 
O=C1CCC(C(=O)Nc2cccc(Oc3n/c(=N\c4ccccc4)[n-]c(=O)[n-]3)c2)CC1

>  <Energy>  (80) 
70.30069695428176

>  <Genealogy>  (80) 
O=C1CCC(C(=O)Nc2cccc(Oc3nc(=Nc4ccccc4)[n-]c(=O)[n-]3)c2)CC1 (protonated)
O=C1CCC(C(=O)Nc2cccc(Oc3n/c(=N\c4ccccc4)[n-]c(=O)[n-]3)c2)CC1 (cis-trans isomerization)
O=C1CCC(C(=O)Nc2cccc(Oc3n/c(=N\c4ccccc4)[n-]c(=O)[n-]3)c2)CC1 (3D coordinates assigned)
O=C1CCC(C(=O)Nc2cccc(Oc3n/c(=N\c4ccccc4)[n-]c(=O)[n-]3)c2)CC1 (nonaromatic ring conformer: 70.30069695428176 kcal/mol)

>  <smiles>  (80) 
O=C1CCC(C(=O)Nc2cccc(Oc3nc(=Nc4ccccc4)[nH]c(=O)[nH]3)c2)CC1

>  <score_type>  (80) 
oracle

>  <origin>  (80) 
adg

>  <m_score__min__energy>  (80) 
-12.949999999999999

>  <m_primary>  (80) 
energy

$$$$
80:0
     RDKit          3D

 44 46  0  0  0  0  0  0  0  0999 V2000
   59.3530   34.6060   45.3900 O   0  0  0  0  0  0  0  0  0  0  0  0
   59.3530   33.4860   45.9680 C   0  0  0  0  0  0  0  0  0  0  0  0
   59.8070   33.3950   47.3750 C   0  0  0  0  0  0  0  0  0  0  0  0
   58.8580   33.1460   48.3800 C   0  0  0  0  0  0  0  0  0  0  0  0
   59.2500   33.0420   49.7150 C   0  0  0  0  0  0  0  0  0  0  0  0
   60.5900   33.1940   50.0640 C   0  0  0  0  0  0  0  0  0  0  0  0
   61.5500   33.4530   49.0790 C   0  0  0  0  0  0  0  0  0  0  0  0
   63.2300   33.6330   49.5700 Cl  0  0  0  0  0  0  0  0  0  0  0  0
   61.1660   33.5560   47.7280 C   0  0  0  0  0  0  0  0  0  0  0  0
   62.3950   33.8280   46.4900 Cl  0  0  0  0  0  0  0  0  0  0  0  0
   58.8780   32.3220   45.2640 N   0  0  0  0  0  0  0  0  0  0  0  0
   57.6100   32.4180   44.5300 C   0  0  0  0  0  0  0  0  0  0  0  0
   57.4870   31.3220   43.4500 C   0  0  0  0  0  0  0  0  0  0  0  0
   57.8790   29.9780   43.9430 N   0  0  0  0  0  0  0  0  0  0  0  0
   56.9430   29.4160   44.9160 C   0  0  0  0  0  0  0  0  0  0  0  0
   55.7560   29.7140   44.8860 O   0  0  0  0  0  0  0  0  0  0  0  0
   57.3850   28.3860   45.9310 C   0  0  0  0  0  0  0  0  0  0  0  0
   57.2230   26.9900   45.3810 C   0  0  0  0  0  0  0  0  0  0  0  0
   56.3180   26.0900   45.9720 C   0  0  0  0  0  0  0  0  0  0  0  0
   56.1050   24.8300   45.4050 C   0  0  0  0  0  0  0  0  0  0  0  0
   56.7970   24.4530   44.2510 C   0  0  0  0  0  0  0  0  0  0  0  0
   56.4820   22.7430   43.4620 Br  0  0  0  0  0  0  0  0  0  0  0  0
   57.7180   25.3310   43.6720 C   0  0  0  0  0  0  0  0  0  0  0  0
   57.9360   26.5910   44.2370 C   0  0  0  0  0  0  0  0  0  0  0  0
   59.2670   30.0270   44.4460 C   0  0  0  0  0  0  0  0  0  0  0  0
   59.4170   31.0030   45.6150 C   0  0  0  0  0  0  0  0  0  0  0  0
   57.7971   33.0321   48.1124 H   0  0  0  0  0  0  0  0  0  0  0  0
   58.4995   32.8396   50.4934 H   0  0  0  0  0  0  0  0  0  0  0  0
   60.8948   33.1102   51.1176 H   0  0  0  0  0  0  0  0  0  0  0  0
   56.7780   32.3113   45.2416 H   0  0  0  0  0  0  0  0  0  0  0  0
   57.5791   33.3965   44.0284 H   0  0  0  0  0  0  0  0  0  0  0  0
   56.4416   31.2800   43.1102 H   0  0  0  0  0  0  0  0  0  0  0  0
   58.1733   31.5864   42.6320 H   0  0  0  0  0  0  0  0  0  0  0  0
   57.8700   29.3350   43.1160 H   0  0  0  0  0  0  0  0  0  0  0  0
   58.4430   28.5554   46.1798 H   0  0  0  0  0  0  0  0  0  0  0  0
   56.7601   28.4859   46.8308 H   0  0  0  0  0  0  0  0  0  0  0  0
   55.7755   26.3788   46.8843 H   0  0  0  0  0  0  0  0  0  0  0  0
   55.3908   24.1335   45.8685 H   0  0  0  0  0  0  0  0  0  0  0  0
   58.2719   25.0300   42.7706 H   0  0  0  0  0  0  0  0  0  0  0  0
   58.6696   27.2741   43.7839 H   0  0  0  0  0  0  0  0  0  0  0  0
   59.5587   29.0213   44.7829 H   0  0  0  0  0  0  0  0  0  0  0  0
   59.9140   30.3745   43.6270 H   0  0  0  0  0  0  0  0  0  0  0  0
   58.8710   30.6101   46.4854 H   0  0  0  0  0  0  0  0  0  0  0  0
   60.4861   31.1099   45.8506 H   0  0  0  0  0  0  0  0  0  0  0  0
  1  2  2  0
  2  3  1  0
  3  4  2  0
  4  5  1  0
  5  6  2  0
  6  7  1  0
  7  8  1  0
  7  9  2  0
  9 10  1  0
  2 11  1  0
 11 12  1  0
 12 13  1  0
 13 14  1  0
 14 15  1  0
 15 16  2  0
 15 17  1  0
 17 18  1  0
 18 19  2  0
 19 20  1  0
 20 21  2  0
 21 22  1  0
 21 23  1  0
 23 24  2  0
 14 25  1  0
 25 26  1  0
  9  3  1  0
 26 11  1  0
 24 18  1  0
  4 27  1  0
  5 28  1  0
  6 29  1  0
 12 30  1  0
 12 31  1  0
 13 32  1  0
 13 33  1  0
 14 34  1  0
 17 35  1  0
 17 36  1  0
 19 37  1  0
 20 38  1  0
 23 39  1  0
 24 40  1  0
 25 41  1  0
 25 42  1  0
 26 43  1  0
 26 44  1  0
M  CHG  1  14   1
M  END
>  <UniqueID>  (81) 
77

>  <SMILES>  (81) 
O=C(c1cccc(Cl)c1Cl)N1CC[NH+](C(=O)Cc2ccc(Br)cc2)CC1

>  <Energy>  (81) 
57.24839683970947

>  <Genealogy>  (81) 
O=C(c1cccc(Cl)c1Cl)N1CC[NH+](C(=O)Cc2ccc(Br)cc2)CC1 (protonated)
O=C(c1cccc(Cl)c1Cl)N1CC[NH+](C(=O)Cc2ccc(Br)cc2)CC1 (3D coordinates assigned)
O=C(c1cccc(Cl)c1Cl)N1CC[NH+](C(=O)Cc2ccc(Br)cc2)CC1 (nonaromatic ring conformer: 57.24839683970947 kcal/mol)

>  <smiles>  (81) 
O=C(Cc1ccc(Br)cc1)N1CCN(C(=O)c2cccc(Cl)c2Cl)CC1

>  <score_type>  (81) 
oracle

>  <origin>  (81) 
adg

>  <m_score__min__energy>  (81) 
-7.6399999999999997

>  <m_primary>  (81) 
energy

$$$$
81:0
     RDKit          3D

 32 34  0  0  0  0  0  0  0  0999 V2000
   55.5450   28.7390   45.2350 O   0  0  0  0  0  0  0  0  0  0  0  0
   56.6580   29.2240   44.8970 C   0  0  0  0  0  0  0  0  0  0  0  0
   57.9090   28.4650   45.2090 C   0  0  0  0  0  0  0  0  0  0  0  0
   57.5830   27.1000   45.6050 N   0  0  0  0  0  0  0  0  0  0  0  0
   57.3740   26.0310   44.6740 C   0  0  0  0  0  0  0  0  0  0  0  0
   58.1350   25.9190   43.6740 O   0  0  0  0  0  0  0  0  0  0  0  0
   56.2620   25.0640   44.8760 C   0  0  0  0  0  0  0  0  0  0  0  0
   55.1540   25.3800   45.6880 C   0  0  0  0  0  0  0  0  0  0  0  0
   55.0740   26.6040   46.3480 O   0  0  0  0  0  0  0  0  0  0  0  0
   54.1530   24.4750   45.8530 N   0  0  0  0  0  0  0  0  0  0  0  0
   54.1940   23.2610   45.2530 C   0  0  0  0  0  0  0  0  0  0  0  0
   53.2550   22.4420   45.4240 O   0  0  0  0  0  0  0  0  0  0  0  0
   55.2490   22.9270   44.4690 N   0  0  0  0  0  0  0  0  0  0  0  0
   56.2770   23.7910   44.2650 C   0  0  0  0  0  0  0  0  0  0  0  0
   57.2260   23.4420   43.5150 O   0  0  0  0  0  0  0  0  0  0  0  0
   56.7560   30.5090   44.2620 N   0  0  0  0  0  0  0  0  0  0  0  0
   57.3850   31.5630   44.6940 C   0  0  0  0  0  0  0  0  0  0  0  0
   57.6050   31.7630   46.0160 N   0  0  0  0  0  0  0  0  0  0  0  0
   58.2780   32.9230   46.2270 C   0  0  0  0  0  0  0  0  0  0  0  0
   58.6480   33.4030   47.4850 C   0  0  0  0  0  0  0  0  0  0  0  0
   59.3450   34.6210   47.5650 C   0  0  0  0  0  0  0  0  0  0  0  0
   59.6600   35.3410   46.3960 C   0  0  0  0  0  0  0  0  0  0  0  0
   59.2840   34.8490   45.1360 C   0  0  0  0  0  0  0  0  0  0  0  0
   58.5940   33.6410   45.0840 C   0  0  0  0  0  0  0  0  0  0  0  0
   58.0200   32.8180   43.7380 S   0  0  0  0  0  0  0  0  0  0  0  0
   58.5518   28.4410   44.3167 H   0  0  0  0  0  0  0  0  0  0  0  0
   58.4349   28.9635   46.0366 H   0  0  0  0  0  0  0  0  0  0  0  0
   55.9100   27.1260   46.5810 H   0  0  0  0  0  0  0  0  0  0  0  0
   58.3988   32.8388   48.3958 H   0  0  0  0  0  0  0  0  0  0  0  0
   59.6465   35.0145   48.5470 H   0  0  0  0  0  0  0  0  0  0  0  0
   60.2037   36.2943   46.4708 H   0  0  0  0  0  0  0  0  0  0  0  0
   59.5275   35.4019   44.2167 H   0  0  0  0  0  0  0  0  0  0  0  0
  1  2  2  0
  2  3  1  0
  3  4  1  0
  4  5  1  0
  5  6  2  0
  5  7  1  0
  7  8  2  0
  8  9  1  0
  8 10  1  0
 10 11  1  0
 11 12  2  0
 11 13  1  0
 13 14  1  0
 14 15  2  0
  2 16  1  0
 16 17  2  3
 17 18  1  0
 18 19  1  0
 19 20  2  0
 20 21  1  0
 21 22  2  0
 22 23  1  0
 23 24  2  0
 24 25  1  0
 14  7  1  0
 25 17  1  0
 24 19  1  0
  3 26  1  0
  3 27  1  0
  9 28  1  0
 20 29  1  0
 21 30  1  0
 22 31  1  0
 23 32  1  0
M  CHG  4   4  -1  10  -1  13  -1  18  -1
M  END
>  <UniqueID>  (82) 
78

>  <SMILES>  (82) 
O=C(C[N-]C(=O)c1c(O)[n-]c(=O)[n-]c1=O)N=c1[n-]c2ccccc2s1

>  <Energy>  (82) 
74.98040827458289

>  <Genealogy>  (82) 
O=C(C[N-]C(=O)c1c(O)[n-]c(=O)[n-]c1=O)N=c1[n-]c2ccccc2s1 (protonated)
O=C(C[N-]C(=O)c1c(O)[n-]c(=O)[n-]c1=O)N=c1[n-]c2ccccc2s1 (3D coordinates assigned)
O=C(C[N-]C(=O)c1c(O)[n-]c(=O)[n-]c1=O)N=c1[n-]c2ccccc2s1 (optimized conformer: 74.98040827458289 kcal/mol)

>  <smiles>  (82) 
O=C(CNC(=O)c1c(O)[nH]c(=O)[nH]c1=O)N=c1[nH]c2ccccc2s1

>  <score_type>  (82) 
oracle

>  <origin>  (82) 
adg

>  <m_score__min__energy>  (82) 
-15.6

>  <m_primary>  (82) 
energy

$$$$
82:0
     RDKit          3D

 66 68  0  0  0  0  0  0  0  0999 V2000
   58.6660   26.8530   47.2840 C   0  0  0  0  0  0  0  0  0  0  0  0
   58.0760   26.5000   45.9190 C   0  0  0  0  0  0  0  0  0  0  0  0
   56.5740   26.6260   45.9190 C   0  0  0  0  0  0  0  0  0  0  0  0
   55.8880   25.7130   46.4480 O   0  0  0  0  0  0  0  0  0  0  0  0
   55.9030   27.8070   45.4610 N   0  0  0  0  0  0  0  0  0  0  0  0
   56.5150   29.0210   44.9980 C   0  0  0  0  0  0  0  0  0  0  0  0
   56.0530   29.5990   43.8100 C   0  0  0  0  0  0  0  0  0  0  0  0
   56.6340   30.7760   43.3220 C   0  0  0  0  0  0  0  0  0  0  0  0
   57.7010   31.3770   44.0130 C   0  0  0  0  0  0  0  0  0  0  0  0
   58.3130   32.6580   43.5110 C   0  0  0  0  0  0  0  0  0  0  0  0
   58.4090   33.6730   44.6080 C   0  0  0  0  0  0  0  0  0  0  0  0
   57.4320   34.4330   44.8510 O   0  0  0  0  0  0  0  0  0  0  0  0
   59.5840   33.7130   45.4280 N   0  0  0  0  0  0  0  0  0  0  0  0
   59.6970   33.1930   46.7590 C   0  0  0  0  0  0  0  0  0  0  0  0
   58.9260   33.7750   47.7770 C   0  0  0  0  0  0  0  0  0  0  0  0
   59.0000   33.2870   49.0840 C   0  0  0  0  0  0  0  0  0  0  0  0
   59.8330   32.1990   49.3910 C   0  0  0  0  0  0  0  0  0  0  0  0
   59.9080   31.6680   50.8000 C   0  0  0  0  0  0  0  0  0  0  0  0
   58.7900   30.7010   51.1040 C   0  0  0  0  0  0  0  0  0  0  0  0
   58.3650   29.9370   50.1940 O   0  0  0  0  0  0  0  0  0  0  0  0
   58.1540   30.6810   52.4000 N   0  0  0  0  0  0  0  0  0  0  0  0
   57.9960   31.9170   53.1850 C   0  0  0  0  0  0  0  0  0  0  0  0
   57.3840   33.0210   52.3280 C   0  0  0  0  0  0  0  0  0  0  0  0
   57.5800   29.4230   52.9020 C   0  0  0  0  0  0  0  0  0  0  0  0
   56.2010   29.6460   53.4460 C   0  0  0  0  0  0  0  0  0  0  0  0
   56.0450   30.1940   54.5710 O   0  0  0  0  0  0  0  0  0  0  0  0
   55.0690   29.3440   52.6240 N   0  0  0  0  0  0  0  0  0  0  0  0
   53.9410   30.2040   52.4120 C   0  0  0  0  0  0  0  0  0  0  0  0
   52.9660   30.4040   53.4090 C   0  0  0  0  0  0  0  0  0  0  0  0
   51.8740   31.2420   53.1640 C   0  0  0  0  0  0  0  0  0  0  0  0
   51.7400   31.8770   51.9240 C   0  0  0  0  0  0  0  0  0  0  0  0
   50.6580   32.7160   51.6870 O   0  0  0  0  0  0  0  0  0  0  0  0
   52.6890   31.6600   50.9220 C   0  0  0  0  0  0  0  0  0  0  0  0
   53.7790   30.8150   51.1610 C   0  0  0  0  0  0  0  0  0  0  0  0
   60.5730   31.5860   48.3660 C   0  0  0  0  0  0  0  0  0  0  0  0
   60.5060   32.0790   47.0570 C   0  0  0  0  0  0  0  0  0  0  0  0
   58.1850   30.7770   45.1860 C   0  0  0  0  0  0  0  0  0  0  0  0
   57.6070   29.6000   45.6670 C   0  0  0  0  0  0  0  0  0  0  0  0
   58.0127   26.4621   48.0780 H   0  0  0  0  0  0  0  0  0  0  0  0
   59.6661   26.4047   47.3782 H   0  0  0  0  0  0  0  0  0  0  0  0
   58.7438   27.9462   47.3782 H   0  0  0  0  0  0  0  0  0  0  0  0
   58.4922   27.1814   45.1623 H   0  0  0  0  0  0  0  0  0  0  0  0
   58.3355   25.4560   45.6896 H   0  0  0  0  0  0  0  0  0  0  0  0
   55.2286   29.1259   43.2563 H   0  0  0  0  0  0  0  0  0  0  0  0
   56.2546   31.2317   42.3955 H   0  0  0  0  0  0  0  0  0  0  0  0
   59.3218   32.4480   43.1260 H   0  0  0  0  0  0  0  0  0  0  0  0
   57.6728   33.0633   42.7136 H   0  0  0  0  0  0  0  0  0  0  0  0
   58.2603   34.6194   47.5448 H   0  0  0  0  0  0  0  0  0  0  0  0
   58.4018   33.7582   49.8778 H   0  0  0  0  0  0  0  0  0  0  0  0
   60.8698   31.1510   50.9332 H   0  0  0  0  0  0  0  0  0  0  0  0
   59.8138   32.5209   51.4882 H   0  0  0  0  0  0  0  0  0  0  0  0
   57.3377   31.7186   54.0436 H   0  0  0  0  0  0  0  0  0  0  0  0
   58.9862   32.2455   53.5336 H   0  0  0  0  0  0  0  0  0  0  0  0
   56.9545   33.7958   52.9801 H   0  0  0  0  0  0  0  0  0  0  0  0
   58.1637   33.4670   51.6930 H   0  0  0  0  0  0  0  0  0  0  0  0
   56.5926   32.5961   51.6930 H   0  0  0  0  0  0  0  0  0  0  0  0
   57.5293   28.6958   52.0782 H   0  0  0  0  0  0  0  0  0  0  0  0
   58.2204   29.0416   53.7110 H   0  0  0  0  0  0  0  0  0  0  0  0
   53.0640   29.9000   54.3818 H   0  0  0  0  0  0  0  0  0  0  0  0
   51.1187   31.4026   53.9474 H   0  0  0  0  0  0  0  0  0  0  0  0
   52.5796   32.1533   49.9449 H   0  0  0  0  0  0  0  0  0  0  0  0
   54.5125   30.6294   50.3626 H   0  0  0  0  0  0  0  0  0  0  0  0
   61.2070   30.7161   48.5925 H   0  0  0  0  0  0  0  0  0  0  0  0
   61.0872   31.5946   46.2586 H   0  0  0  0  0  0  0  0  0  0  0  0
   59.0240   31.2362   45.7293 H   0  0  0  0  0  0  0  0  0  0  0  0
   58.0084   29.1239   46.5738 H   0  0  0  0  0  0  0  0  0  0  0  0
  1  2  1  0
  2  3  1  0
  3  4  2  0
  3  5  1  0
  5  6  1  0
  6  7  2  0
  7  8  1  0
  8  9  2  0
  9 10  1  0
 10 11  1  0
 11 12  2  0
 11 13  1  0
 13 14  1  0
 14 15  2  0
 15 16  1  0
 16 17  2  0
 17 18  1  0
 18 19  1  0
 19 20  2  0
 19 21  1  0
 21 22  1  0
 22 23  1  0
 21 24  1  0
 24 25  1  0
 25 26  2  0
 25 27  1  0
 27 28  1  0
 28 29  2  0
 29 30  1  0
 30 31  2  0
 31 32  1  0
 31 33  1  0
 33 34  2  0
 17 35  1  0
 35 36  2  0
  9 37  1  0
 37 38  2  0
 38  6  1  0
 36 14  1  0
 34 28  1  0
  1 39  1  0
  1 40  1  0
  1 41  1  0
  2 42  1  0
  2 43  1  0
  7 44  1  0
  8 45  1  0
 10 46  1  0
 10 47  1  0
 15 48  1  0
 16 49  1  0
 18 50  1  0
 18 51  1  0
 22 52  1  0
 22 53  1  0
 23 54  1  0
 23 55  1  0
 23 56  1  0
 24 57  1  0
 24 58  1  0
 29 59  1  0
 30 60  1  0
 33 61  1  0
 34 62  1  0
 35 63  1  0
 36 64  1  0
 37 65  1  0
 38 66  1  0
M  CHG  4   5  -1  13  -1  27  -1  32  -1
M  END
>  <UniqueID>  (83) 
79

>  <SMILES>  (83) 
CCC(=O)[N-]c1ccc(CC(=O)[N-]c2ccc(CC(=O)N(CC)CC(=O)[N-]c3ccc([O-])cc3)cc2)cc1

>  <Energy>  (83) 
71.75555914957097

>  <Genealogy>  (83) 
CCC(=O)[N-]c1ccc(CC(=O)[N-]c2ccc(CC(=O)N(CC)CC(=O)[N-]c3ccc([O-])cc3)cc2)cc1 (protonated)
CCC(=O)[N-]c1ccc(CC(=O)[N-]c2ccc(CC(=O)N(CC)CC(=O)[N-]c3ccc([O-])cc3)cc2)cc1 (3D coordinates assigned)
CCC(=O)[N-]c1ccc(CC(=O)[N-]c2ccc(CC(=O)N(CC)CC(=O)[N-]c3ccc([O-])cc3)cc2)cc1 (optimized conformer: 71.75555914957097 kcal/mol)

>  <smiles>  (83) 
CCC(=O)Nc1ccc(CC(=O)Nc2ccc(CC(=O)N(CC)CC(=O)Nc3ccc(O)cc3)cc2)cc1

>  <score_type>  (83) 
oracle

>  <origin>  (83) 
adg

>  <m_score__min__energy>  (83) 
-17.879999999999999

>  <m_primary>  (83) 
energy

$$$$
83:0
     RDKit          3D

 49 52  0  0  0  0  0  0  0  0999 V2000
   55.1975   27.3473   53.1467 H   0  0  0  0  0  0  0  0  0  0  0  0
   54.5050   28.1730   52.9260 C   0  0  0  0  0  0  0  0  0  0  0  0
   53.4314   27.9709   52.7971 H   0  0  0  0  0  0  0  0  0  0  0  0
   54.9700   29.4270   52.8140 C   0  0  0  0  0  0  0  0  0  0  0  0
   54.2260   30.5840   52.5380 C   0  0  0  0  0  0  0  0  0  0  0  0
   52.8960   30.7920   52.4750 C   0  0  0  0  0  0  0  0  0  0  0  0
   52.3585   30.8889   53.4298 H   0  0  0  0  0  0  0  0  0  0  0  0
   52.0990   30.9010   51.2440 C   0  0  0  0  0  0  0  0  0  0  0  0
   52.1920   30.0360   50.2190 N   0  0  0  0  0  0  0  0  0  0  0  0
   51.4000   30.5870   49.2730 C   0  0  0  0  0  0  0  0  0  0  0  0
   51.2150   30.0510   48.1500 O   0  0  0  0  0  0  0  0  0  0  0  0
   50.8350   31.7630   49.6200 N   0  0  0  0  0  0  0  0  0  0  0  0
   51.3000   31.9560   50.8640 C   0  0  0  0  0  0  0  0  0  0  0  0
   51.0220   33.0850   51.6260 O   0  0  0  0  0  0  0  0  0  0  0  0
   55.1470   31.5980   52.3430 C   0  0  0  0  0  0  0  0  0  0  0  0
   54.9246   32.6388   52.0651 H   0  0  0  0  0  0  0  0  0  0  0  0
   56.3970   31.0570   52.5630 C   0  0  0  0  0  0  0  0  0  0  0  0
   57.6450   31.8510   52.5700 C   0  0  0  0  0  0  0  0  0  0  0  0
   58.0760   32.3080   53.6630 O   0  0  0  0  0  0  0  0  0  0  0  0
   58.3230   32.1820   51.3440 N   0  0  0  0  0  0  0  0  0  0  0  0
   58.9950   33.4840   51.2290 C   0  0  0  0  0  0  0  0  0  0  0  0
   58.2394   34.2806   51.2960 H   0  0  0  0  0  0  0  0  0  0  0  0
   59.7282   33.5609   52.0454 H   0  0  0  0  0  0  0  0  0  0  0  0
   59.7490   33.6270   49.9000 C   0  0  0  0  0  0  0  0  0  0  0  0
   59.9899   34.6875   49.7348 H   0  0  0  0  0  0  0  0  0  0  0  0
   60.6699   33.0276   49.9519 H   0  0  0  0  0  0  0  0  0  0  0  0
   58.9320   33.1380   48.7780 N   0  0  0  0  0  0  0  0  0  0  0  0
   59.0230   33.7710   47.4830 C   0  0  0  0  0  0  0  0  0  0  0  0
   58.1680   33.3830   46.4360 C   0  0  0  0  0  0  0  0  0  0  0  0
   57.4206   32.5939   46.6054 H   0  0  0  0  0  0  0  0  0  0  0  0
   58.2610   33.9930   45.1810 C   0  0  0  0  0  0  0  0  0  0  0  0
   57.5874   33.6832   44.3684 H   0  0  0  0  0  0  0  0  0  0  0  0
   59.2080   34.9950   44.9580 C   0  0  0  0  0  0  0  0  0  0  0  0
   59.2786   35.4753   43.9709 H   0  0  0  0  0  0  0  0  0  0  0  0
   60.0650   35.3870   45.9880 C   0  0  0  0  0  0  0  0  0  0  0  0
   60.8121   36.1745   45.8103 H   0  0  0  0  0  0  0  0  0  0  0  0
   59.9760   34.7810   47.2450 C   0  0  0  0  0  0  0  0  0  0  0  0
   60.6539   35.0946   48.0526 H   0  0  0  0  0  0  0  0  0  0  0  0
   58.1620   31.8910   48.9150 C   0  0  0  0  0  0  0  0  0  0  0  0
   57.0891   32.1243   48.8491 H   0  0  0  0  0  0  0  0  0  0  0  0
   58.4645   31.2080   48.1075 H   0  0  0  0  0  0  0  0  0  0  0  0
   58.4400   31.2050   50.2530 C   0  0  0  0  0  0  0  0  0  0  0  0
   57.7113   30.3956   50.4073 H   0  0  0  0  0  0  0  0  0  0  0  0
   59.4581   30.7887   50.2444 H   0  0  0  0  0  0  0  0  0  0  0  0
   56.2950   29.7360   52.8460 N   0  0  0  0  0  0  0  0  0  0  0  0
   57.4030   28.7980   53.0590 C   0  0  0  0  0  0  0  0  0  0  0  0
   57.5650   28.6609   54.1383 H   0  0  0  0  0  0  0  0  0  0  0  0
   57.1570   27.8295   52.5992 H   0  0  0  0  0  0  0  0  0  0  0  0
   58.3177   29.2004   52.5992 H   0  0  0  0  0  0  0  0  0  0  0  0
  1  2  1  0
  2  3  1  0
  2  4  2  0
  4  5  1  0
  5  6  2  0
  6  7  1  0
  6  8  1  0
  8  9  1  0
  9 10  1  0
 10 11  2  0
 10 12  1  0
 12 13  1  0
 13 14  1  0
  5 15  1  0
 15 16  1  0
 15 17  2  0
 17 18  1  0
 18 19  2  0
 18 20  1  0
 20 21  1  0
 21 22  1  0
 21 23  1  0
 21 24  1  0
 24 25  1  0
 24 26  1  0
 24 27  1  0
 27 28  1  0
 28 29  2  0
 29 30  1  0
 29 31  1  0
 31 32  1  0
 31 33  2  0
 33 34  1  0
 33 35  1  0
 35 36  1  0
 35 37  2  0
 37 38  1  0
 27 39  1  0
 39 40  1  0
 39 41  1  0
 39 42  1  0
 42 43  1  0
 42 44  1  0
 17 45  1  0
 45 46  1  0
 46 47  1  0
 46 48  1  0
 46 49  1  0
 45  4  1  0
 13  8  2  0
 42 20  1  0
 37 28  1  0
M  CHG  3   9  -1  12  -1  14  -1
M  END
>  <UniqueID>  (84) 
80

>  <SMILES>  (84) 
C=c1/c(=C\c2[n-]c(=O)[n-]c2[O-])cc(C(=O)N2CCN(c3ccccc3)CC2)n1C

>  <Energy>  (84) 
132.05052693042296

>  <Genealogy>  (84) 
C=c1c(=Cc2[n-]c(=O)[n-]c2[O-])cc(C(=O)N2CCN(c3ccccc3)CC2)n1C (protonated)
C=c1/c(=C\c2[n-]c(=O)[n-]c2[O-])cc(C(=O)N2CCN(c3ccccc3)CC2)n1C (cis-trans isomerization)
C=c1/c(=C\c2[n-]c(=O)[n-]c2[O-])cc(C(=O)N2CCN(c3ccccc3)CC2)n1C (3D coordinates assigned)
C=c1/c(=C\c2[n-]c(=O)[n-]c2[O-])cc(C(=O)N2CCN(c3ccccc3)CC2)n1C (nonaromatic ring conformer: 132.05052693042296 kcal/mol)

>  <smiles>  (84) 
C=c1c(=Cc2[nH]c(=O)[nH]c2O)cc(C(=O)N2CCN(c3ccccc3)CC2)n1C

>  <score_type>  (84) 
oracle

>  <origin>  (84) 
adg

>  <m_score__min__energy>  (84) 
-17.859999999999999

>  <m_primary>  (84) 
energy

$$$$
84:0
     RDKit          3D

 43 45  0  0  0  0  0  0  0  0999 V2000
   64.4710   31.8410   46.8430 H   0  0  0  0  0  0  0  0  0  0  0  0
   63.4710   31.6990   46.7600 O   0  0  0  0  0  0  0  0  0  0  0  0
   62.5650   32.4220   47.5330 C   0  0  0  0  0  0  0  0  0  0  0  0
   61.1860   32.2490   47.3520 C   0  0  0  0  0  0  0  0  0  0  0  0
   60.8199   31.5372   46.5975 H   0  0  0  0  0  0  0  0  0  0  0  0
   60.2680   32.9770   48.1260 C   0  0  0  0  0  0  0  0  0  0  0  0
   58.7860   32.8030   47.9180 C   0  0  0  0  0  0  0  0  0  0  0  0
   58.3009   33.7902   47.9325 H   0  0  0  0  0  0  0  0  0  0  0  0
   58.3875   32.1702   48.7247 H   0  0  0  0  0  0  0  0  0  0  0  0
   58.5150   32.1500   46.6260 N   0  0  0  0  0  0  0  0  0  0  0  0
   58.2000   32.7930   45.4750 C   0  0  0  0  0  0  0  0  0  0  0  0
   58.0560   34.2780   45.3270 C   0  0  0  0  0  0  0  0  0  0  0  0
   58.0109   34.7431   46.3228 H   0  0  0  0  0  0  0  0  0  0  0  0
   58.9197   34.6769   44.7748 H   0  0  0  0  0  0  0  0  0  0  0  0
   57.1318   34.5035   44.7748 H   0  0  0  0  0  0  0  0  0  0  0  0
   57.9440   31.8890   44.4660 C   0  0  0  0  0  0  0  0  0  0  0  0
   57.6566   32.1247   43.4307 H   0  0  0  0  0  0  0  0  0  0  0  0
   58.1190   30.6250   45.0090 C   0  0  0  0  0  0  0  0  0  0  0  0
   57.9360   29.4550   44.3660 C   0  0  0  0  0  0  0  0  0  0  0  0
   58.2034   29.3988   43.3005 H   0  0  0  0  0  0  0  0  0  0  0  0
   57.3940   28.2410   45.0180 C   0  0  0  0  0  0  0  0  0  0  0  0
   56.0160   28.1310   45.2580 C   0  0  0  0  0  0  0  0  0  0  0  0
   55.1440   29.1360   44.8570 O   0  0  0  0  0  0  0  0  0  0  0  0
   55.5210   27.0280   45.8790 N   0  0  0  0  0  0  0  0  0  0  0  0
   56.3410   26.0270   46.2880 C   0  0  0  0  0  0  0  0  0  0  0  0
   55.8590   25.0120   46.8550 O   0  0  0  0  0  0  0  0  0  0  0  0
   57.6800   26.1210   46.0910 N   0  0  0  0  0  0  0  0  0  0  0  0
   58.2260   27.2040   45.4790 C   0  0  0  0  0  0  0  0  0  0  0  0
   59.4770   27.2730   45.3450 O   0  0  0  0  0  0  0  0  0  0  0  0
   58.4650   30.8170   46.3520 C   0  0  0  0  0  0  0  0  0  0  0  0
   58.7120   29.8430   47.2440 C   0  0  0  0  0  0  0  0  0  0  0  0
   58.9772   30.1004   48.2801 H   0  0  0  0  0  0  0  0  0  0  0  0
   58.6490   28.7882   46.9382 H   0  0  0  0  0  0  0  0  0  0  0  0
   60.7470   33.8790   49.0880 C   0  0  0  0  0  0  0  0  0  0  0  0
   60.0364   34.4527   49.7011 H   0  0  0  0  0  0  0  0  0  0  0  0
   62.1210   34.0530   49.2720 C   0  0  0  0  0  0  0  0  0  0  0  0
   62.4855   34.7625   50.0295 H   0  0  0  0  0  0  0  0  0  0  0  0
   63.0420   33.3260   48.4940 C   0  0  0  0  0  0  0  0  0  0  0  0
   64.4290   33.4710   48.6450 O   0  0  0  0  0  0  0  0  0  0  0  0
   65.1870   32.9060   49.7110 C   0  0  0  0  0  0  0  0  0  0  0  0
   64.7600   33.2243   50.6735 H   0  0  0  0  0  0  0  0  0  0  0  0
   65.1564   31.8086   49.6413 H   0  0  0  0  0  0  0  0  0  0  0  0
   66.2299   33.2489   49.6413 H   0  0  0  0  0  0  0  0  0  0  0  0
  1  2  1  0
  2  3  1  0
  3  4  2  0
  4  5  1  0
  4  6  1  0
  6  7  1  0
  7  8  1  0
  7  9  1  0
  7 10  1  0
 10 11  1  0
 11 12  1  0
 12 13  1  0
 12 14  1  0
 12 15  1  0
 11 16  2  0
 16 17  1  0
 16 18  1  0
 18 19  2  0
 19 20  1  0
 19 21  1  0
 21 22  2  0
 22 23  1  0
 22 24  1  0
 24 25  1  0
 25 26  2  0
 25 27  1  0
 27 28  1  0
 28 29  2  0
 18 30  1  0
 30 31  2  0
 31 32  1  0
 31 33  1  0
  6 34  2  0
 34 35  1  0
 34 36  1  0
 36 37  1  0
 36 38  2  0
 38 39  1  0
 39 40  1  0
 40 41  1  0
 40 42  1  0
 40 43  1  0
 38  3  1  0
 30 10  1  0
 28 21  1  0
M  CHG  3  23  -1  24  -1  27  -1
M  END
>  <UniqueID>  (85) 
81

>  <SMILES>  (85) 
C=c1/c(=C/c2c([O-])[n-]c(=O)[n-]c2=O)cc(C)n1Cc1ccc(OC)c(O)c1

>  <Energy>  (85) 
83.03335304564565

>  <Genealogy>  (85) 
C=c1c(=Cc2c([O-])[n-]c(=O)[n-]c2=O)cc(C)n1Cc1ccc(OC)c(O)c1 (protonated)
C=c1/c(=C/c2c([O-])[n-]c(=O)[n-]c2=O)cc(C)n1Cc1ccc(OC)c(O)c1 (cis-trans isomerization)
C=c1/c(=C/c2c([O-])[n-]c(=O)[n-]c2=O)cc(C)n1Cc1ccc(OC)c(O)c1 (3D coordinates assigned)
C=c1/c(=C/c2c([O-])[n-]c(=O)[n-]c2=O)cc(C)n1Cc1ccc(OC)c(O)c1 (optimized conformer: 83.03335304564565 kcal/mol)

>  <smiles>  (85) 
C=c1c(=Cc2c(O)[nH]c(=O)[nH]c2=O)cc(C)n1Cc1ccc(OC)c(O)c1

>  <score_type>  (85) 
oracle

>  <origin>  (85) 
adg

>  <m_score__min__energy>  (85) 
-15.369999999999999

>  <m_primary>  (85) 
energy

$$$$
85:0
     RDKit          3D

 47 50  0  0  0  0  0  0  0  0999 V2000
   59.9640   34.2240   48.9650 O   0  0  0  0  0  0  0  0  0  0  0  0
   59.3140   33.2300   48.6660 C   0  0  0  0  0  0  0  0  0  0  0  0
   58.8500   32.3150   49.7730 C   0  0  0  0  0  0  0  0  0  0  0  0
   59.1500   30.9240   49.4330 N   0  0  0  0  0  0  0  0  0  0  0  0
   58.8690   30.4400   48.2260 N   0  0  0  0  0  0  0  0  0  0  0  0
   59.3640   29.1890   48.1340 C   0  0  0  0  0  0  0  0  0  0  0  0
   59.3170   28.3690   46.8800 C   0  0  0  0  0  0  0  0  0  0  0  0
   58.1070   28.7440   46.0640 C   0  0  0  0  0  0  0  0  0  0  0  0
   57.0330   27.8510   45.9480 C   0  0  0  0  0  0  0  0  0  0  0  0
   55.9250   28.2020   45.2470 N   0  0  0  0  0  0  0  0  0  0  0  0
   55.8310   29.4190   44.6530 C   0  0  0  0  0  0  0  0  0  0  0  0
   54.7960   29.7250   44.0060 O   0  0  0  0  0  0  0  0  0  0  0  0
   56.8520   30.3080   44.7570 N   0  0  0  0  0  0  0  0  0  0  0  0
   57.9800   30.0030   45.4500 C   0  0  0  0  0  0  0  0  0  0  0  0
   58.9030   30.8570   45.5300 O   0  0  0  0  0  0  0  0  0  0  0  0
   60.0070   28.8840   49.3140 C   0  0  0  0  0  0  0  0  0  0  0  0
   60.7100   27.7490   49.7130 C   0  0  0  0  0  0  0  0  0  0  0  0
   61.2740   27.7470   50.9950 C   0  0  0  0  0  0  0  0  0  0  0  0
   61.1210   28.8600   51.8430 C   0  0  0  0  0  0  0  0  0  0  0  0
   60.4060   30.0010   51.4260 C   0  0  0  0  0  0  0  0  0  0  0  0
   60.2090   31.4090   52.7090 Br  0  0  0  0  0  0  0  0  0  0  0  0
   59.8560   29.9870   50.1220 C   0  0  0  0  0  0  0  0  0  0  0  0
   59.0380   32.9380   47.2730 N   0  0  0  0  0  0  0  0  0  0  0  0
   57.6380   33.3190   46.9480 C   0  0  0  0  0  0  0  0  0  0  0  0
   57.4360   33.4800   45.4370 C   0  0  0  0  0  0  0  0  0  0  0  0
   58.3170   34.6130   44.8800 C   0  0  0  0  0  0  0  0  0  0  0  0
   59.5730   34.8640   45.7330 C   0  0  0  0  0  0  0  0  0  0  0  0
   60.0640   33.5650   46.3900 C   0  0  0  0  0  0  0  0  0  0  0  0
   59.3675   32.5813   50.7064 H   0  0  0  0  0  0  0  0  0  0  0  0
   57.7635   32.4282   49.9027 H   0  0  0  0  0  0  0  0  0  0  0  0
   60.2263   28.5542   46.2894 H   0  0  0  0  0  0  0  0  0  0  0  0
   59.2562   27.3037   47.1473 H   0  0  0  0  0  0  0  0  0  0  0  0
   57.0882   26.8622   46.4268 H   0  0  0  0  0  0  0  0  0  0  0  0
   60.8184   26.8832   49.0432 H   0  0  0  0  0  0  0  0  0  0  0  0
   61.8402   26.8699   51.3414 H   0  0  0  0  0  0  0  0  0  0  0  0
   61.5670   28.8390   52.8483 H   0  0  0  0  0  0  0  0  0  0  0  0
   59.1130   31.9040   47.1300 H   0  0  0  0  0  0  0  0  0  0  0  0
   56.9595   32.5362   47.3179 H   0  0  0  0  0  0  0  0  0  0  0  0
   57.4222   34.2840   47.4298 H   0  0  0  0  0  0  0  0  0  0  0  0
   57.7026   32.5377   44.9361 H   0  0  0  0  0  0  0  0  0  0  0  0
   56.3817   33.7315   45.2493 H   0  0  0  0  0  0  0  0  0  0  0  0
   58.6319   34.3450   43.8607 H   0  0  0  0  0  0  0  0  0  0  0  0
   57.7180   35.5355   44.8919 H   0  0  0  0  0  0  0  0  0  0  0  0
   60.3701   35.2647   45.0895 H   0  0  0  0  0  0  0  0  0  0  0  0
   59.3188   35.5823   46.5263 H   0  0  0  0  0  0  0  0  0  0  0  0
   60.3299   32.8496   45.5978 H   0  0  0  0  0  0  0  0  0  0  0  0
   60.9299   33.8196   47.0188 H   0  0  0  0  0  0  0  0  0  0  0  0
  1  2  2  0
  2  3  1  0
  3  4  1  0
  4  5  1  0
  5  6  2  0
  6  7  1  0
  7  8  1  0
  8  9  2  0
  9 10  1  0
 10 11  1  0
 11 12  2  0
 11 13  1  0
 13 14  1  0
 14 15  2  0
  6 16  1  0
 16 17  2  0
 17 18  1  0
 18 19  2  0
 19 20  1  0
 20 21  1  0
 20 22  2  0
  2 23  1  0
 23 24  1  0
 24 25  1  0
 25 26  1  0
 26 27  1  0
 27 28  1  0
 22  4  1  0
 28 23  1  0
 14  8  1  0
 22 16  1  0
  3 29  1  0
  3 30  1  0
  7 31  1  0
  7 32  1  0
  9 33  1  0
 17 34  1  0
 18 35  1  0
 19 36  1  0
 23 37  1  0
 24 38  1  0
 24 39  1  0
 25 40  1  0
 25 41  1  0
 26 42  1  0
 26 43  1  0
 27 44  1  0
 27 45  1  0
 28 46  1  0
 28 47  1  0
M  CHG  3  10  -1  13  -1  23   1
M  END
>  <UniqueID>  (86) 
82

>  <SMILES>  (86) 
O=C(Cn1nc(Cc2c[n-]c(=O)[n-]c2=O)c2cccc(Br)c21)[NH+]1CCCCC1

>  <Energy>  (86) 
99.53931908282291

>  <Genealogy>  (86) 
O=C(Cn1nc(Cc2c[n-]c(=O)[n-]c2=O)c2cccc(Br)c21)[NH+]1CCCCC1 (protonated)
O=C(Cn1nc(Cc2c[n-]c(=O)[n-]c2=O)c2cccc(Br)c21)[NH+]1CCCCC1 (3D coordinates assigned)
O=C(Cn1nc(Cc2c[n-]c(=O)[n-]c2=O)c2cccc(Br)c21)[NH+]1CCCCC1 (nonaromatic ring conformer: 99.53931908282291 kcal/mol)

>  <smiles>  (86) 
O=C(Cn1nc(Cc2c[nH]c(=O)[nH]c2=O)c2cccc(Br)c21)N1CCCCC1

>  <score_type>  (86) 
oracle

>  <origin>  (86) 
adg

>  <m_score__min__energy>  (86) 
-11.710000000000001

>  <m_primary>  (86) 
energy

$$$$
86:0
     RDKit          3D

 58 61  0  0  0  0  0  0  0  0999 V2000
   52.4100   23.9690   44.8290 C   0  0  0  0  0  0  0  0  0  0  0  0
   53.4260   24.4350   45.5560 C   0  0  0  0  0  0  0  0  0  0  0  0
   54.8430   24.3000   45.1480 C   0  0  0  0  0  0  0  0  0  0  0  0
   55.2000   23.1840   44.3810 C   0  0  0  0  0  0  0  0  0  0  0  0
   56.5140   23.0050   43.9610 C   0  0  0  0  0  0  0  0  0  0  0  0
   57.4930   23.9340   44.3050 C   0  0  0  0  0  0  0  0  0  0  0  0
   57.1760   25.0640   45.0790 C   0  0  0  0  0  0  0  0  0  0  0  0
   58.2950   26.0380   45.4260 C   0  0  0  0  0  0  0  0  0  0  0  0
   57.8210   27.3380   45.9520 N   0  0  0  0  0  0  0  0  0  0  0  0
   57.5900   28.3660   44.9130 C   0  0  0  0  0  0  0  0  0  0  0  0
   57.4560   29.7530   45.5440 C   0  0  0  0  0  0  0  0  0  0  0  0
   58.7180   30.1530   46.2130 N   0  0  0  0  0  0  0  0  0  0  0  0
   58.5030   31.2770   47.1470 C   0  0  0  0  0  0  0  0  0  0  0  0
   58.6020   32.5900   46.4060 C   0  0  0  0  0  0  0  0  0  0  0  0
   57.8170   32.8020   45.2590 C   0  0  0  0  0  0  0  0  0  0  0  0
   57.9440   33.9830   44.5240 C   0  0  0  0  0  0  0  0  0  0  0  0
   58.8620   34.9590   44.9170 C   0  0  0  0  0  0  0  0  0  0  0  0
   59.6530   34.7610   46.0500 C   0  0  0  0  0  0  0  0  0  0  0  0
   59.5270   33.5850   46.8040 C   0  0  0  0  0  0  0  0  0  0  0  0
   60.3810   33.4020   47.9850 C   0  0  0  0  0  0  0  0  0  0  0  0
   59.8600   33.2720   49.1240 O   0  0  0  0  0  0  0  0  0  0  0  0
   61.7970   33.3250   47.8400 N   0  0  0  0  0  0  0  0  0  0  0  0
   62.9590   33.0170   48.6900 C   0  0  0  0  0  0  0  0  0  0  0  0
   63.9770   33.1030   47.6020 C   0  0  0  0  0  0  0  0  0  0  0  0
   62.7900   33.4220   46.7560 C   0  0  0  0  0  0  0  0  0  0  0  0
   59.4560   29.0220   46.8320 C   0  0  0  0  0  0  0  0  0  0  0  0
   58.5470   27.8240   47.1500 C   0  0  0  0  0  0  0  0  0  0  0  0
   55.8370   25.2330   45.5320 C   0  0  0  0  0  0  0  0  0  0  0  0
   55.4700   26.2890   46.3740 O   0  0  0  0  0  0  0  0  0  0  0  0
   51.3763   24.0981   45.1821 H   0  0  0  0  0  0  0  0  0  0  0  0
   52.6056   23.4554   43.8761 H   0  0  0  0  0  0  0  0  0  0  0  0
   53.2006   24.9443   46.5046 H   0  0  0  0  0  0  0  0  0  0  0  0
   54.4347   22.4425   44.1083 H   0  0  0  0  0  0  0  0  0  0  0  0
   56.7808   22.1266   43.3550 H   0  0  0  0  0  0  0  0  0  0  0  0
   58.5284   23.7815   43.9664 H   0  0  0  0  0  0  0  0  0  0  0  0
   58.9368   25.5703   46.1871 H   0  0  0  0  0  0  0  0  0  0  0  0
   58.8329   26.2507   44.4904 H   0  0  0  0  0  0  0  0  0  0  0  0
   58.4383   28.3684   44.2127 H   0  0  0  0  0  0  0  0  0  0  0  0
   56.6567   28.1279   44.3817 H   0  0  0  0  0  0  0  0  0  0  0  0
   57.2170   30.4848   44.7583 H   0  0  0  0  0  0  0  0  0  0  0  0
   56.6537   29.7216   46.2959 H   0  0  0  0  0  0  0  0  0  0  0  0
   57.5044   31.1886   47.5999 H   0  0  0  0  0  0  0  0  0  0  0  0
   59.2725   31.2464   47.9324 H   0  0  0  0  0  0  0  0  0  0  0  0
   57.0985   32.0332   44.9385 H   0  0  0  0  0  0  0  0  0  0  0  0
   57.3192   34.1446   43.6332 H   0  0  0  0  0  0  0  0  0  0  0  0
   58.9620   35.8856   44.3327 H   0  0  0  0  0  0  0  0  0  0  0  0
   60.3783   35.5306   46.3528 H   0  0  0  0  0  0  0  0  0  0  0  0
   63.1176   33.7656   49.4802 H   0  0  0  0  0  0  0  0  0  0  0  0
   62.9225   32.0829   49.2697 H   0  0  0  0  0  0  0  0  0  0  0  0
   64.7162   33.9108   47.7065 H   0  0  0  0  0  0  0  0  0  0  0  0
   64.6986   32.3053   47.3718 H   0  0  0  0  0  0  0  0  0  0  0  0
   62.8407   34.4285   46.3151 H   0  0  0  0  0  0  0  0  0  0  0  0
   62.6248   32.7957   45.8669 H   0  0  0  0  0  0  0  0  0  0  0  0
   60.2423   28.6924   46.1370 H   0  0  0  0  0  0  0  0  0  0  0  0
   59.8776   29.3808   47.7825 H   0  0  0  0  0  0  0  0  0  0  0  0
   59.1657   27.0051   47.5456 H   0  0  0  0  0  0  0  0  0  0  0  0
   57.7998   28.1534   47.8870 H   0  0  0  0  0  0  0  0  0  0  0  0
   56.1220   26.8960   46.8490 H   0  0  0  0  0  0  0  0  0  0  0  0
  1  2  2  0
  2  3  1  0
  3  4  2  0
  4  5  1  0
  5  6  2  0
  6  7  1  0
  7  8  1  0
  8  9  1  0
  9 10  1  0
 10 11  1  0
 11 12  1  0
 12 13  1  0
 13 14  1  0
 14 15  2  0
 15 16  1  0
 16 17  2  0
 17 18  1  0
 18 19  2  0
 19 20  1  0
 20 21  2  0
 20 22  1  0
 22 23  1  0
 23 24  1  0
 24 25  1  0
 12 26  1  0
 26 27  1  0
  7 28  2  0
 28 29  1  0
 28  3  1  0
 27  9  1  0
 19 14  1  0
 25 22  1  0
  1 30  1  0
  1 31  1  0
  2 32  1  0
  4 33  1  0
  5 34  1  0
  6 35  1  0
  8 36  1  0
  8 37  1  0
 10 38  1  0
 10 39  1  0
 11 40  1  0
 11 41  1  0
 13 42  1  0
 13 43  1  0
 15 44  1  0
 16 45  1  0
 17 46  1  0
 18 47  1  0
 23 48  1  0
 23 49  1  0
 24 50  1  0
 24 51  1  0
 25 52  1  0
 25 53  1  0
 26 54  1  0
 26 55  1  0
 27 56  1  0
 27 57  1  0
 29 58  1  0
M  END
>  <UniqueID>  (87) 
83

>  <SMILES>  (87) 
C=Cc1cccc(CN2CCN(Cc3ccccc3C(=O)N3CCC3)CC2)c1O

>  <Energy>  (87) 
128.4544267359483

>  <Genealogy>  (87) 
C=Cc1cccc(CN2CCN(Cc3ccccc3C(=O)N3CCC3)CC2)c1O (3D coordinates assigned)
C=Cc1cccc(CN2CCN(Cc3ccccc3C(=O)N3CCC3)CC2)c1O (nonaromatic ring conformer: 128.4544267359483 kcal/mol)

>  <smiles>  (87) 
C=Cc1cccc(CN2CCN(Cc3ccccc3C(=O)N3CCC3)CC2)c1O

>  <score_type>  (87) 
oracle

>  <origin>  (87) 
adg

>  <m_score__min__energy>  (87) 
-10.19

>  <m_primary>  (87) 
energy

$$$$
87:0
     RDKit          3D

 53 56  0  0  0  0  0  0  0  0999 V2000
   55.1090   27.5250   45.3110 H   0  0  0  0  0  0  0  0  0  0  0  0
   55.5310   26.9300   46.0150 O   0  0  0  0  0  0  0  0  0  0  0  0
   56.9110   26.7090   46.0640 C   0  0  0  0  0  0  0  0  0  0  0  0
   57.4320   25.8800   47.0620 C   0  0  0  0  0  0  0  0  0  0  0  0
   56.7568   25.4061   47.7897 H   0  0  0  0  0  0  0  0  0  0  0  0
   58.8100   25.6520   47.1370 C   0  0  0  0  0  0  0  0  0  0  0  0
   59.2239   25.0029   47.9227 H   0  0  0  0  0  0  0  0  0  0  0  0
   59.6550   26.2570   46.2040 C   0  0  0  0  0  0  0  0  0  0  0  0
   60.7398   26.0803   46.2479 H   0  0  0  0  0  0  0  0  0  0  0  0
   59.1360   27.0640   45.2420 N   0  0  0  0  0  0  0  0  0  0  0  0
   57.7950   27.3030   45.1380 C   0  0  0  0  0  0  0  0  0  0  0  0
   57.3280   28.1040   44.2230 N   0  0  0  0  0  0  0  0  0  0  0  0
   56.6610   29.3570   44.4380 C   0  0  0  0  0  0  0  0  0  0  0  0
   55.4950   29.3430   44.9170 O   0  0  0  0  0  0  0  0  0  0  0  0
   57.2640   30.6590   44.0590 C   0  0  0  0  0  0  0  0  0  0  0  0
   57.2840   31.0800   42.7180 C   0  0  0  0  0  0  0  0  0  0  0  0
   56.8733   30.4280   41.9330 H   0  0  0  0  0  0  0  0  0  0  0  0
   57.8250   32.3270   42.3770 C   0  0  0  0  0  0  0  0  0  0  0  0
   57.8396   32.6482   41.3250 H   0  0  0  0  0  0  0  0  0  0  0  0
   58.3470   33.1660   43.3690 C   0  0  0  0  0  0  0  0  0  0  0  0
   58.7694   34.1443   43.0961 H   0  0  0  0  0  0  0  0  0  0  0  0
   58.3310   32.7580   44.7120 C   0  0  0  0  0  0  0  0  0  0  0  0
   58.9530   33.8100   45.9840 S   0  0  0  0  0  0  0  0  0  0  0  0
   59.6080   35.0090   45.3520 O   0  0  0  0  0  0  0  0  0  0  0  0
   57.8430   34.2710   46.8970 O   0  0  0  0  0  0  0  0  0  0  0  0
   60.1340   32.9420   46.9080 N   0  0  0  0  0  0  0  0  0  0  0  0
   59.7980   31.8820   47.8090 C   0  0  0  0  0  0  0  0  0  0  0  0
   60.0250   30.5320   47.6060 C   0  0  0  0  0  0  0  0  0  0  0  0
   60.6280   29.9120   46.3800 C   0  0  0  0  0  0  0  0  0  0  0  0
   61.3662   29.1530   46.6782 H   0  0  0  0  0  0  0  0  0  0  0  0
   59.8361   29.4380   45.7815 H   0  0  0  0  0  0  0  0  0  0  0  0
   61.1238   30.6904   45.7815 H   0  0  0  0  0  0  0  0  0  0  0  0
   59.5310   29.8440   48.6580 N   0  0  0  0  0  0  0  0  0  0  0  0
   59.4910   28.3840   48.7840 C   0  0  0  0  0  0  0  0  0  0  0  0
   59.4834   28.1079   49.8488 H   0  0  0  0  0  0  0  0  0  0  0  0
   58.5820   27.9989   48.2989 H   0  0  0  0  0  0  0  0  0  0  0  0
   60.3776   27.9497   48.2989 H   0  0  0  0  0  0  0  0  0  0  0  0
   59.0360   30.7170   49.5440 N   0  0  0  0  0  0  0  0  0  0  0  0
   58.5420   30.4050   50.8600 C   0  0  0  0  0  0  0  0  0  0  0  0
   59.3040   29.6140   51.7370 C   0  0  0  0  0  0  0  0  0  0  0  0
   60.2691   29.2024   51.4065 H   0  0  0  0  0  0  0  0  0  0  0  0
   58.8350   29.3470   53.0380 C   0  0  0  0  0  0  0  0  0  0  0  0
   59.4246   28.7087   53.7125 H   0  0  0  0  0  0  0  0  0  0  0  0
   57.6250   29.8890   53.4750 C   0  0  0  0  0  0  0  0  0  0  0  0
   57.2673   29.6867   54.4953 H   0  0  0  0  0  0  0  0  0  0  0  0
   56.8680   30.6900   52.6130 C   0  0  0  0  0  0  0  0  0  0  0  0
   55.9162   31.1200   52.9582 H   0  0  0  0  0  0  0  0  0  0  0  0
   57.3190   30.9460   51.3110 C   0  0  0  0  0  0  0  0  0  0  0  0
   56.7163   31.5722   50.6367 H   0  0  0  0  0  0  0  0  0  0  0  0
   59.1840   31.9590   49.0370 C   0  0  0  0  0  0  0  0  0  0  0  0
   58.8330   33.0150   49.6280 O   0  0  0  0  0  0  0  0  0  0  0  0
   57.7880   31.5070   45.0530 C   0  0  0  0  0  0  0  0  0  0  0  0
   57.7724   31.1880   46.1056 H   0  0  0  0  0  0  0  0  0  0  0  0
  1  2  1  0
  2  3  1  0
  3  4  2  0
  4  5  1  0
  4  6  1  0
  6  7  1  0
  6  8  2  0
  8  9  1  0
  8 10  1  0
 10 11  1  0
 11 12  2  0
 12 13  1  0
 13 14  2  0
 13 15  1  0
 15 16  2  0
 16 17  1  0
 16 18  1  0
 18 19  1  0
 18 20  2  0
 20 21  1  0
 20 22  1  0
 22 23  1  0
 23 24  2  0
 23 25  2  0
 23 26  1  0
 26 27  1  0
 27 28  2  0
 28 29  1  0
 29 30  1  0
 29 31  1  0
 29 32  1  0
 28 33  1  0
 33 34  1  0
 34 35  1  0
 34 36  1  0
 34 37  1  0
 33 38  1  0
 38 39  1  0
 39 40  2  0
 40 41  1  0
 40 42  1  0
 42 43  1  0
 42 44  2  0
 44 45  1  0
 44 46  1  0
 46 47  1  0
 46 48  2  0
 48 49  1  0
 38 50  1  0
 50 51  2  0
 22 52  2  0
 52 53  1  0
 11  3  1  0
 52 15  1  0
 50 27  1  0
 48 39  1  0
M  CHG  2  10  -1  26  -1
M  END
>  <UniqueID>  (88) 
84

>  <SMILES>  (88) 
Cc1c([N-]S(=O)(=O)c2cccc(C(=O)/N=c3\[n-]cccc3O)c2)c(=O)n(-c2ccccc2)n1C

>  <Energy>  (88) 
110.92549816633512

>  <Genealogy>  (88) 
Cc1c([N-]S(=O)(=O)c2cccc(C(=O)N=c3[n-]cccc3O)c2)c(=O)n(-c2ccccc2)n1C (protonated)
Cc1c([N-]S(=O)(=O)c2cccc(C(=O)/N=c3\[n-]cccc3O)c2)c(=O)n(-c2ccccc2)n1C (cis-trans isomerization)
Cc1c([N-]S(=O)(=O)c2cccc(C(=O)/N=c3\[n-]cccc3O)c2)c(=O)n(-c2ccccc2)n1C (3D coordinates assigned)
Cc1c([N-]S(=O)(=O)c2cccc(C(=O)/N=c3\[n-]cccc3O)c2)c(=O)n(-c2ccccc2)n1C (optimized conformer: 110.92549816633512 kcal/mol)

>  <smiles>  (88) 
Cc1c(NS(=O)(=O)c2cccc(C(=O)N=c3[nH]cccc3O)c2)c(=O)n(-c2ccccc2)n1C

>  <score_type>  (88) 
oracle

>  <origin>  (88) 
adg

>  <m_score__min__energy>  (88) 
-13.5

>  <m_primary>  (88) 
energy

$$$$
88:0
     RDKit          3D

 38 40  0  0  0  0  0  0  0  0999 V2000
   56.2937   21.3892   43.2114 H   0  0  0  0  0  0  0  0  0  0  0  0
   56.1740   22.4010   43.6260 C   0  0  0  0  0  0  0  0  0  0  0  0
   55.1930   22.7860   44.4090 O   0  0  0  0  0  0  0  0  0  0  0  0
   55.3720   24.0510   44.7170 C   0  0  0  0  0  0  0  0  0  0  0  0
   54.4590   24.8390   45.5670 C   0  0  0  0  0  0  0  0  0  0  0  0
   53.4090   24.3000   46.0040 O   0  0  0  0  0  0  0  0  0  0  0  0
   54.7670   26.1800   45.9760 N   0  0  0  0  0  0  0  0  0  0  0  0
   55.9530   26.7070   46.0330 C   0  0  0  0  0  0  0  0  0  0  0  0
   56.9910   26.1520   46.7000 N   0  0  0  0  0  0  0  0  0  0  0  0
   58.0060   27.0000   46.4620 C   0  0  0  0  0  0  0  0  0  0  0  0
   59.3970   26.7940   46.9680 C   0  0  0  0  0  0  0  0  0  0  0  0
   59.3909   26.7949   48.0680 H   0  0  0  0  0  0  0  0  0  0  0  0
   59.7804   25.8293   46.6042 H   0  0  0  0  0  0  0  0  0  0  0  0
   60.0435   27.6062   46.6042 H   0  0  0  0  0  0  0  0  0  0  0  0
   57.5650   28.0250   45.6500 C   0  0  0  0  0  0  0  0  0  0  0  0
   58.3820   29.1500   45.0950 C   0  0  0  0  0  0  0  0  0  0  0  0
   59.2828   29.2805   45.7126 H   0  0  0  0  0  0  0  0  0  0  0  0
   58.6603   28.9063   44.0591 H   0  0  0  0  0  0  0  0  0  0  0  0
   57.4260   30.7060   45.0940 S   0  0  0  0  0  0  0  0  0  0  0  0
   58.1410   31.3680   46.6390 C   0  0  0  0  0  0  0  0  0  0  0  0
   57.3632   31.4084   47.4158 H   0  0  0  0  0  0  0  0  0  0  0  0
   58.9594   30.7145   46.9754 H   0  0  0  0  0  0  0  0  0  0  0  0
   58.6720   32.7500   46.3890 C   0  0  0  0  0  0  0  0  0  0  0  0
   58.5680   33.3230   45.1110 C   0  0  0  0  0  0  0  0  0  0  0  0
   58.1232   32.7456   44.2872 H   0  0  0  0  0  0  0  0  0  0  0  0
   59.0270   34.6240   44.8800 C   0  0  0  0  0  0  0  0  0  0  0  0
   58.9498   35.0632   43.8744 H   0  0  0  0  0  0  0  0  0  0  0  0
   59.5830   35.3660   45.9240 C   0  0  0  0  0  0  0  0  0  0  0  0
   59.9469   36.3876   45.7400 H   0  0  0  0  0  0  0  0  0  0  0  0
   59.6770   34.8100   47.2030 C   0  0  0  0  0  0  0  0  0  0  0  0
   60.1117   35.3972   48.0253 H   0  0  0  0  0  0  0  0  0  0  0  0
   59.2200   33.5090   47.4410 C   0  0  0  0  0  0  0  0  0  0  0  0
   59.3030   32.9950   48.6950 F   0  0  0  0  0  0  0  0  0  0  0  0
   56.2630   27.8400   45.3690 N   0  0  0  0  0  0  0  0  0  0  0  0
   56.5150   24.5260   44.1020 C   0  0  0  0  0  0  0  0  0  0  0  0
   56.9262   25.5446   44.1595 H   0  0  0  0  0  0  0  0  0  0  0  0
   57.0320   23.4580   43.4020 C   0  0  0  0  0  0  0  0  0  0  0  0
   57.9448   23.4496   42.7882 H   0  0  0  0  0  0  0  0  0  0  0  0
  1  2  1  0
  2  3  1  0
  3  4  1  0
  4  5  1  0
  5  6  2  0
  5  7  1  0
  7  8  2  0
  8  9  1  0
  9 10  1  0
 10 11  1  0
 11 12  1  0
 11 13  1  0
 11 14  1  0
 10 15  2  0
 15 16  1  0
 16 17  1  0
 16 18  1  0
 16 19  1  0
 19 20  1  0
 20 21  1  0
 20 22  1  0
 20 23  1  0
 23 24  2  0
 24 25  1  0
 24 26  1  0
 26 27  1  0
 26 28  2  0
 28 29  1  0
 28 30  1  0
 30 31  1  0
 30 32  2  0
 32 33  1  0
 15 34  1  0
  4 35  2  0
 35 36  1  0
 35 37  1  0
 37 38  1  0
 37  2  2  0
 34  8  1  0
 32 23  1  0
M  CHG  2   9  -1  34  -1
M  END
>  <UniqueID>  (89) 
85

>  <SMILES>  (89) 
Cc1[n-]/c(=N\C(=O)c2ccco2)[n-]c1CSCc1ccccc1F

>  <Energy>  (89) 
92.81989981218362

>  <Genealogy>  (89) 
Cc1[n-]c(=NC(=O)c2ccco2)[n-]c1CSCc1ccccc1F (protonated)
Cc1[n-]/c(=N\C(=O)c2ccco2)[n-]c1CSCc1ccccc1F (cis-trans isomerization)
Cc1[n-]/c(=N\C(=O)c2ccco2)[n-]c1CSCc1ccccc1F (3D coordinates assigned)
Cc1[n-]/c(=N\C(=O)c2ccco2)[n-]c1CSCc1ccccc1F (optimized conformer: 92.81989981218362 kcal/mol)

>  <smiles>  (89) 
Cc1[nH]c(=NC(=O)c2ccco2)[nH]c1CSCc1ccccc1F

>  <score_type>  (89) 
oracle

>  <origin>  (89) 
adg

>  <m_score__min__energy>  (89) 
-11.67

>  <m_primary>  (89) 
energy

$$$$
89:0
     RDKit          3D

 45 48  0  0  0  0  0  0  0  0999 V2000
   62.4440   32.2160   51.0950 C   0  0  0  0  0  0  0  0  0  0  0  0
   62.2210   31.4840   49.8030 C   0  0  0  0  0  0  0  0  0  0  0  0
   62.5130   32.1190   48.6520 C   0  0  0  0  0  0  0  0  0  0  0  0
   62.4100   31.4780   47.3100 C   0  0  0  0  0  0  0  0  0  0  0  0
   61.0010   31.0560   47.0980 C   0  0  0  0  0  0  0  0  0  0  0  0
   60.2420   31.7570   46.3790 O   0  0  0  0  0  0  0  0  0  0  0  0
   60.4910   29.9410   47.8380 N   0  0  0  0  0  0  0  0  0  0  0  0
   61.0950   29.4240   49.0380 C   0  0  0  0  0  0  0  0  0  0  0  0
   61.8610   30.0860   49.8700 N   0  0  0  0  0  0  0  0  0  0  0  0
   60.6370   28.0580   49.2620 C   0  0  0  0  0  0  0  0  0  0  0  0
   60.9510   27.2980   50.2170 O   0  0  0  0  0  0  0  0  0  0  0  0
   59.7440   27.7490   48.1670 C   0  0  0  0  0  0  0  0  0  0  0  0
   59.0660   26.5660   47.8920 C   0  0  0  0  0  0  0  0  0  0  0  0
   58.2830   26.5060   46.7340 C   0  0  0  0  0  0  0  0  0  0  0  0
   58.2030   27.6140   45.8710 C   0  0  0  0  0  0  0  0  0  0  0  0
   58.9140   28.8050   46.1500 C   0  0  0  0  0  0  0  0  0  0  0  0
   58.8340   29.9150   45.3010 O   0  0  0  0  0  0  0  0  0  0  0  0
   57.7130   30.2730   44.5440 C   0  0  0  0  0  0  0  0  0  0  0  0
   57.3680   29.5960   43.5370 O   0  0  0  0  0  0  0  0  0  0  0  0
   56.9900   31.4550   44.8970 N   0  0  0  0  0  0  0  0  0  0  0  0
   57.3700   32.7940   44.4630 C   0  0  0  0  0  0  0  0  0  0  0  0
   58.1620   33.4860   45.5390 C   0  0  0  0  0  0  0  0  0  0  0  0
   59.1720   34.4050   45.2070 C   0  0  0  0  0  0  0  0  0  0  0  0
   59.9190   35.0240   46.2150 C   0  0  0  0  0  0  0  0  0  0  0  0
   59.6670   34.7280   47.5570 C   0  0  0  0  0  0  0  0  0  0  0  0
   58.6690   33.8090   47.8950 C   0  0  0  0  0  0  0  0  0  0  0  0
   57.9200   33.1880   46.8910 C   0  0  0  0  0  0  0  0  0  0  0  0
   59.6730   28.8600   47.3370 C   0  0  0  0  0  0  0  0  0  0  0  0
   62.2384   31.5411   51.9390 H   0  0  0  0  0  0  0  0  0  0  0  0
   63.4876   32.5598   51.1462 H   0  0  0  0  0  0  0  0  0  0  0  0
   61.7693   33.0833   51.1462 H   0  0  0  0  0  0  0  0  0  0  0  0
   62.8452   33.1663   48.7048 H   0  0  0  0  0  0  0  0  0  0  0  0
   62.7034   32.1974   46.5313 H   0  0  0  0  0  0  0  0  0  0  0  0
   63.0778   30.6056   47.2559 H   0  0  0  0  0  0  0  0  0  0  0  0
   62.1660   29.5840   50.7350 H   0  0  0  0  0  0  0  0  0  0  0  0
   59.1433   25.7008   48.5669 H   0  0  0  0  0  0  0  0  0  0  0  0
   57.7267   25.5871   46.4971 H   0  0  0  0  0  0  0  0  0  0  0  0
   57.5792   27.5536   44.9670 H   0  0  0  0  0  0  0  0  0  0  0  0
   57.9823   32.7202   43.5522 H   0  0  0  0  0  0  0  0  0  0  0  0
   56.4593   33.3760   44.2584 H   0  0  0  0  0  0  0  0  0  0  0  0
   59.3758   34.6383   44.1515 H   0  0  0  0  0  0  0  0  0  0  0  0
   60.7063   35.7452   45.9505 H   0  0  0  0  0  0  0  0  0  0  0  0
   60.2539   35.2181   48.3478 H   0  0  0  0  0  0  0  0  0  0  0  0
   58.4730   33.5744   48.9517 H   0  0  0  0  0  0  0  0  0  0  0  0
   57.1378   32.4630   47.1604 H   0  0  0  0  0  0  0  0  0  0  0  0
  1  2  1  0
  2  3  2  0
  3  4  1  0
  4  5  1  0
  5  6  2  0
  5  7  1  0
  7  8  1  0
  8  9  2  0
  8 10  1  0
 10 11  2  0
 10 12  1  0
 12 13  2  0
 13 14  1  0
 14 15  2  0
 15 16  1  0
 16 17  1  0
 17 18  1  0
 18 19  2  0
 18 20  1  0
 20 21  1  0
 21 22  1  0
 22 23  2  0
 23 24  1  0
 24 25  2  0
 25 26  1  0
 26 27  2  0
 16 28  2  0
  9  2  1  0
 28 12  1  0
 28  7  1  0
 27 22  1  0
  1 29  1  0
  1 30  1  0
  1 31  1  0
  3 32  1  0
  4 33  1  0
  4 34  1  0
  9 35  1  0
 13 36  1  0
 14 37  1  0
 15 38  1  0
 21 39  1  0
 21 40  1  0
 23 41  1  0
 24 42  1  0
 25 43  1  0
 26 44  1  0
 27 45  1  0
M  CHG  2   9   1  20  -1
M  END
>  <UniqueID>  (90) 
86

>  <SMILES>  (90) 
CC1=CCC(=O)N2C(=[NH+]1)C(=O)c1cccc(OC(=O)[N-]Cc3ccccc3)c12

>  <Energy>  (90) 
94.14877321081488

>  <Genealogy>  (90) 
CC1=CCC(=O)N2C(=[NH+]1)C(=O)c1cccc(OC(=O)[N-]Cc3ccccc3)c12 (protonated)
CC1=CCC(=O)N2C(=[NH+]1)C(=O)c1cccc(OC(=O)[N-]Cc3ccccc3)c12 (3D coordinates assigned)
CC1=CCC(=O)N2C(=[NH+]1)C(=O)c1cccc(OC(=O)[N-]Cc3ccccc3)c12 (nonaromatic ring conformer: 94.14877321081488 kcal/mol)

>  <smiles>  (90) 
CC1=CCC(=O)N2C(=N1)C(=O)c1cccc(OC(=O)NCc3ccccc3)c12

>  <score_type>  (90) 
oracle

>  <origin>  (90) 
adg

>  <m_score__min__energy>  (90) 
-7.1799999999999997

>  <m_primary>  (90) 
energy

$$$$
90:0
     RDKit          3D

 36 38  0  0  1  0  0  0  0  0999 V2000
   60.8340   33.7960   49.6730 O   0  0  0  0  0  0  0  0  0  0  0  0
   60.0600   33.8160   48.6900 C   0  0  0  0  0  0  0  0  0  0  0  0
   60.3250   34.6010   47.5650 C   0  0  0  0  0  0  0  0  0  0  0  0
   59.4550   34.6130   46.4800 C   0  0  0  0  0  0  0  0  0  0  0  0
   58.3240   33.8280   46.5490 C   0  0  0  0  0  0  0  0  0  0  0  0
   57.3800   33.7520   45.5380 O   0  0  0  0  0  0  0  0  0  0  0  0
   57.3810   32.6710   44.6650 C   0  0  0  0  0  0  0  0  0  0  0  0
   57.9420   32.7220   43.4030 C   0  0  0  0  0  0  0  0  0  0  0  0
   57.8980   31.5930   42.5990 C   0  0  0  0  0  0  0  0  0  0  0  0
   57.3260   30.4400   42.9970 N   0  0  0  0  0  0  0  0  0  0  0  0
   56.7890   30.4260   44.2310 C   0  0  0  0  0  0  0  0  0  0  0  0
   56.2280   29.3500   44.6650 N   0  0  0  0  0  0  0  0  0  0  0  0
   56.9590   28.2310   45.2230 C   0  0  0  0  0  0  0  0  0  0  0  0
   58.3090   28.7600   45.6180 C   0  0  0  0  0  0  0  0  0  0  0  0
   59.4300   28.5680   44.8580 C   0  0  0  0  0  0  0  0  0  0  0  0
   60.6470   29.0810   45.2760 C   0  0  0  0  0  0  0  0  0  0  0  0
   60.7910   29.7920   46.4450 C   0  0  0  0  0  0  0  0  0  0  0  0
   59.6650   29.9880   47.2140 C   0  0  0  0  0  0  0  0  0  0  0  0
   58.4540   29.4780   46.8010 C   0  0  0  0  0  0  0  0  0  0  0  0
   56.8160   31.4980   45.0300 N   0  0  0  0  0  0  0  0  0  0  0  0
   58.0690   33.0470   47.6790 C   0  0  0  0  0  0  0  0  0  0  0  0
   58.9300   33.0590   48.7100 N   0  0  0  0  0  0  0  0  0  0  0  0
   61.2349   35.2185   47.5370 H   0  0  0  0  0  0  0  0  0  0  0  0
   59.6631   35.2302   45.5936 H   0  0  0  0  0  0  0  0  0  0  0  0
   58.4171   33.6458   43.0411 H   0  0  0  0  0  0  0  0  0  0  0  0
   58.3480   31.6408   41.5964 H   0  0  0  0  0  0  0  0  0  0  0  0
   57.2890   29.5890   42.3980 H   0  0  0  0  0  0  0  0  0  0  0  0
   56.4332   27.8346   46.1041 H   0  0  0  0  0  0  0  0  0  0  0  0
   57.0495   27.4113   44.4951 H   0  0  0  0  0  0  0  0  0  0  0  0
   59.3651   28.0061   43.9146 H   0  0  0  0  0  0  0  0  0  0  0  0
   61.5342   28.9131   44.6478 H   0  0  0  0  0  0  0  0  0  0  0  0
   61.7691   30.1893   46.7542 H   0  0  0  0  0  0  0  0  0  0  0  0
   59.7329   30.5510   48.1566 H   0  0  0  0  0  0  0  0  0  0  0  0
   57.5675   29.6447   47.4306 H   0  0  0  0  0  0  0  0  0  0  0  0
   57.1642   32.4230   47.7244 H   0  0  0  0  0  0  0  0  0  0  0  0
   58.7250   32.4710   49.5440 H   0  0  0  0  0  0  0  0  0  0  0  0
  1  2  2  0
  2  3  1  0
  3  4  2  0
  4  5  1  0
  5  6  1  0
  6  7  1  0
  7  8  1  0
  8  9  2  0
  9 10  1  0
 10 11  1  0
 11 12  2  0
 12 13  1  0
 13 14  1  0
 14 15  2  0
 15 16  1  0
 16 17  2  0
 17 18  1  0
 18 19  2  0
 11 20  1  0
  5 21  2  0
 21 22  1  0
 22  2  1  0
 20  7  2  0
 19 14  1  0
  3 23  1  0
  4 24  1  0
  8 25  1  0
  9 26  1  0
 10 27  1  0
 13 28  1  0
 13 29  1  0
 15 30  1  0
 16 31  1  0
 17 32  1  0
 18 33  1  0
 19 34  1  0
 21 35  1  0
 22 36  1  0
M  END
>  <smiles>  (91) 
O=c1ccc(Oc2cc[nH]c(=NCc3ccccc3)n2)c[nH]1

>  <score_type>  (91) 
oracle

>  <origin>  (91) 
adg

>  <m_score__min__energy>  (91) 
-8

>  <m_primary>  (91) 
energy

$$$$
91:0
     RDKit          3D

 59 61  0  0  1  0  0  0  0  0999 V2000
   59.8750   31.1960   51.2850 C   0  0  0  0  0  0  0  0  0  0  0  0
   58.5400   30.8800   50.1930 S   0  0  0  0  0  0  0  0  0  0  0  0
   57.4600   30.1440   50.9530 O   0  0  0  0  0  0  0  0  0  0  0  0
   58.9990   29.9540   49.1030 O   0  0  0  0  0  0  0  0  0  0  0  0
   57.8630   32.2990   49.4940 N   0  0  0  0  0  0  0  0  0  0  0  0
   58.3940   32.9810   48.3860 C   0  0  0  0  0  0  0  0  0  0  0  0
   59.3300   33.9760   48.5400 C   0  0  0  0  0  0  0  0  0  0  0  0
   59.7980   34.5950   47.4140 C   0  0  0  0  0  0  0  0  0  0  0  0
   59.3460   34.2360   46.1380 C   0  0  0  0  0  0  0  0  0  0  0  0
   58.4220   33.2550   45.9660 C   0  0  0  0  0  0  0  0  0  0  0  0
   57.8560   32.7590   44.7020 C   0  0  0  0  0  0  0  0  0  0  0  0
   58.4900   31.4560   44.3040 N   0  0  0  0  0  0  0  0  0  0  0  0
   58.1930   30.3100   45.0530 C   0  0  0  0  0  0  0  0  0  0  0  0
   57.1140   29.4970   44.6900 C   0  0  0  0  0  0  0  0  0  0  0  0
   56.8590   28.3330   45.3550 N   0  0  0  0  0  0  0  0  0  0  0  0
   57.6120   27.9060   46.3760 C   0  0  0  0  0  0  0  0  0  0  0  0
   57.3610   26.8150   46.9860 N   0  0  0  0  0  0  0  0  0  0  0  0
   57.6460   25.5210   46.4020 C   0  0  0  0  0  0  0  0  0  0  0  0
   56.8720   25.2960   45.1250 C   0  0  0  0  0  0  0  0  0  0  0  0
   55.4280   25.0230   45.5640 C   0  0  0  0  0  0  0  0  0  0  0  0
   54.8320   26.1950   46.0090 O   0  0  0  0  0  0  0  0  0  0  0  0
   58.6440   28.6580   46.7470 N   0  0  0  0  0  0  0  0  0  0  0  0
   58.9290   29.8240   46.1110 C   0  0  0  0  0  0  0  0  0  0  0  0
   59.8440   30.5340   46.5960 N   0  0  0  0  0  0  0  0  0  0  0  0
   61.2340   30.2260   46.6670 C   0  0  0  0  0  0  0  0  0  0  0  0
   61.7930   31.4320   47.4210 C   0  0  0  0  0  0  0  0  0  0  0  0
   61.7920   31.3480   48.7960 C   0  0  0  0  0  0  0  0  0  0  0  0
   62.2840   32.4250   49.4890 C   0  0  0  0  0  0  0  0  0  0  0  0
   62.7360   33.4920   48.8110 N   0  0  0  0  0  0  0  0  0  0  0  0
   62.7580   33.6200   47.4810 C   0  0  0  0  0  0  0  0  0  0  0  0
   62.2630   32.5370   46.7550 C   0  0  0  0  0  0  0  0  0  0  0  0
   57.9520   32.6310   47.1320 C   0  0  0  0  0  0  0  0  0  0  0  0
   59.5257   31.1133   52.3248 H   0  0  0  0  0  0  0  0  0  0  0  0
   60.6753   30.4625   51.1076 H   0  0  0  0  0  0  0  0  0  0  0  0
   60.2615   32.2105   51.1076 H   0  0  0  0  0  0  0  0  0  0  0  0
   56.9750   32.7160   49.9120 H   0  0  0  0  0  0  0  0  0  0  0  0
   59.6913   34.2653   49.5379 H   0  0  0  0  0  0  0  0  0  0  0  0
   60.5475   35.3941   47.5129 H   0  0  0  0  0  0  0  0  0  0  0  0
   59.7472   34.7589   45.2573 H   0  0  0  0  0  0  0  0  0  0  0  0
   56.7734   32.6093   44.8266 H   0  0  0  0  0  0  0  0  0  0  0  0
   58.0537   33.5006   43.9140 H   0  0  0  0  0  0  0  0  0  0  0  0
   59.0300   31.6160   43.4570 H   0  0  0  0  0  0  0  0  0  0  0  0
   56.4623   29.8001   43.8573 H   0  0  0  0  0  0  0  0  0  0  0  0
   56.0550   27.7340   45.0780 H   0  0  0  0  0  0  0  0  0  0  0  0
   58.7219   25.4598   46.1811 H   0  0  0  0  0  0  0  0  0  0  0  0
   57.3445   24.7477   47.1238 H   0  0  0  0  0  0  0  0  0  0  0  0
   56.9170   26.1899   44.4856 H   0  0  0  0  0  0  0  0  0  0  0  0
   57.2851   24.4618   44.5389 H   0  0  0  0  0  0  0  0  0  0  0  0
   54.8578   24.6267   44.7109 H   0  0  0  0  0  0  0  0  0  0  0  0
   55.4350   24.2902   46.3844 H   0  0  0  0  0  0  0  0  0  0  0  0
   55.1670   26.3520   46.9390 H   0  0  0  0  0  0  0  0  0  0  0  0
   59.2300   28.3250   47.5420 H   0  0  0  0  0  0  0  0  0  0  0  0
   61.4079   29.2926   47.2224 H   0  0  0  0  0  0  0  0  0  0  0  0
   61.7014   30.0637   45.6845 H   0  0  0  0  0  0  0  0  0  0  0  0
   61.4130   30.4558   49.3160 H   0  0  0  0  0  0  0  0  0  0  0  0
   62.3079   32.4144   50.5887 H   0  0  0  0  0  0  0  0  0  0  0  0
   63.1433   34.5250   46.9885 H   0  0  0  0  0  0  0  0  0  0  0  0
   62.2492   32.5678   45.6555 H   0  0  0  0  0  0  0  0  0  0  0  0
   57.2018   31.8319   47.0391 H   0  0  0  0  0  0  0  0  0  0  0  0
  1  2  1  0
  2  3  2  0
  2  4  2  0
  2  5  1  0
  5  6  1  0
  6  7  2  0
  7  8  1  0
  8  9  2  0
  9 10  1  0
 10 11  1  0
 11 12  1  0
 12 13  1  0
 13 14  2  0
 14 15  1  0
 15 16  1  0
 16 17  2  0
 17 18  1  0
 18 19  1  0
 19 20  1  0
 20 21  1  0
 16 22  1  0
 22 23  1  0
 23 24  2  0
 24 25  1  0
 25 26  1  0
 26 27  2  0
 27 28  1  0
 28 29  2  0
 29 30  1  0
 30 31  2  0
 10 32  2  0
 32  6  1  0
 23 13  1  0
 31 26  1  0
  1 33  1  0
  1 34  1  0
  1 35  1  0
  5 36  1  0
  7 37  1  0
  8 38  1  0
  9 39  1  0
 11 40  1  0
 11 41  1  0
 12 42  1  0
 14 43  1  0
 15 44  1  0
 18 45  1  0
 18 46  1  0
 19 47  1  0
 19 48  1  0
 20 49  1  0
 20 50  1  0
 21 51  1  0
 22 52  1  0
 25 53  1  0
 25 54  1  0
 27 55  1  0
 28 56  1  0
 30 57  1  0
 31 58  1  0
 32 59  1  0
M  END
>  <smiles>  (92) 
CS(=O)(=O)Nc1cccc(CNc2c[nH]c(=NCCCO)[nH]c2=NCc2ccncc2)c1

>  <score_type>  (92) 
oracle

>  <origin>  (92) 
adg

>  <m_score__min__energy>  (92) 
-9.4199999999999999

>  <m_primary>  (92) 
energy

$$$$
92:0
     RDKit          3D

 41 43  0  0  0  0  0  0  0  0999 V2000
   54.3270   27.1240   46.3710 H   0  0  0  0  0  0  0  0  0  0  0  0
   55.2190   26.7180   46.1160 O   0  0  0  0  0  0  0  0  0  0  0  0
   55.3210   25.3630   45.8180 C   0  0  0  0  0  0  0  0  0  0  0  0
   54.2640   24.5430   45.6940 N   0  0  0  0  0  0  0  0  0  0  0  0
   54.8340   23.3720   45.3400 C   0  0  0  0  0  0  0  0  0  0  0  0
   54.1630   22.3310   45.1170 O   0  0  0  0  0  0  0  0  0  0  0  0
   56.1800   23.4080   45.2320 N   0  0  0  0  0  0  0  0  0  0  0  0
   56.4870   24.6740   45.5630 C   0  0  0  0  0  0  0  0  0  0  0  0
   57.8590   25.2120   45.5120 C   0  0  0  0  0  0  0  0  0  0  0  0
   58.6891   24.5339   45.7594 H   0  0  0  0  0  0  0  0  0  0  0  0
   58.1580   26.4830   45.1810 C   0  0  0  0  0  0  0  0  0  0  0  0
   58.6120   27.4780   46.0380 C   0  0  0  0  0  0  0  0  0  0  0  0
   58.7680   27.3913   47.1234 H   0  0  0  0  0  0  0  0  0  0  0  0
   58.8290   28.5980   45.2580 C   0  0  0  0  0  0  0  0  0  0  0  0
   59.3350   29.8920   45.7480 C   0  0  0  0  0  0  0  0  0  0  0  0
   60.5120   29.9820   46.1870 O   0  0  0  0  0  0  0  0  0  0  0  0
   58.4740   31.0850   45.7510 C   0  0  0  0  0  0  0  0  0  0  0  0
   58.3800   31.9260   46.7750 C   0  0  0  0  0  0  0  0  0  0  0  0
   59.1180   31.7720   48.0720 C   0  0  0  0  0  0  0  0  0  0  0  0
   58.4207   31.9175   48.9102 H   0  0  0  0  0  0  0  0  0  0  0  0
   59.5538   30.7636   48.1284 H   0  0  0  0  0  0  0  0  0  0  0  0
   59.9207   32.5220   48.1284 H   0  0  0  0  0  0  0  0  0  0  0  0
   57.4610   33.0710   46.4930 C   0  0  0  0  0  0  0  0  0  0  0  0
   56.6166   33.0728   47.1980 H   0  0  0  0  0  0  0  0  0  0  0  0
   57.9631   34.0434   46.6039 H   0  0  0  0  0  0  0  0  0  0  0  0
   56.9680   32.8340   45.0600 C   0  0  0  0  0  0  0  0  0  0  0  0
   55.8726   32.7368   45.0352 H   0  0  0  0  0  0  0  0  0  0  0  0
   57.2164   33.6666   44.3855 H   0  0  0  0  0  0  0  0  0  0  0  0
   57.6230   31.5540   44.6550 C   0  0  0  0  0  0  0  0  0  0  0  0
   57.3780   30.9670   43.4720 C   0  0  0  0  0  0  0  0  0  0  0  0
   58.0867   31.1544   42.6518 H   0  0  0  0  0  0  0  0  0  0  0  0
   56.2090   30.0760   43.1910 C   0  0  0  0  0  0  0  0  0  0  0  0
   55.7677   29.7396   44.1408 H   0  0  0  0  0  0  0  0  0  0  0  0
   55.4556   30.6310   42.6128 H   0  0  0  0  0  0  0  0  0  0  0  0
   56.5445   29.2024   42.6128 H   0  0  0  0  0  0  0  0  0  0  0  0
   58.5410   28.3370   43.9670 N   0  0  0  0  0  0  0  0  0  0  0  0
   58.6250   29.0010   43.1640 H   0  0  0  0  0  0  0  0  0  0  0  0
   58.1360   27.0520   43.9070 C   0  0  0  0  0  0  0  0  0  0  0  0
   57.7700   26.4650   42.7630 C   0  0  0  0  0  0  0  0  0  0  0  0
   57.4466   25.4136   42.7632 H   0  0  0  0  0  0  0  0  0  0  0  0
   57.7922   27.0334   41.8215 H   0  0  0  0  0  0  0  0  0  0  0  0
  1  2  1  0
  2  3  1  0
  3  4  1  0
  4  5  1  0
  5  6  2  0
  5  7  1  0
  7  8  1  0
  8  9  1  0
  9 10  1  0
  9 11  2  0
 11 12  1  0
 12 13  1  0
 12 14  2  0
 14 15  1  0
 15 16  2  0
 15 17  1  0
 17 18  2  0
 18 19  1  0
 19 20  1  0
 19 21  1  0
 19 22  1  0
 18 23  1  0
 23 24  1  0
 23 25  1  0
 23 26  1  0
 26 27  1  0
 26 28  1  0
 26 29  1  0
 29 30  2  3
 30 31  1  0
 30 32  1  0
 32 33  1  0
 32 34  1  0
 32 35  1  0
 14 36  1  0
 36 37  1  0
 36 38  1  0
 38 39  2  0
 39 40  1  0
 39 41  1  0
  8  3  2  0
 38 11  1  0
 29 17  1  0
M  CHG  2   4  -1   7  -1
M  END
>  <UniqueID>  (93) 
87

>  <SMILES>  (93) 
C=c1[nH]c(C(=O)C2=C(C)CCC2=CC)c/c1=C\c1[n-]c(=O)[n-]c1O

>  <Energy>  (93) 
115.83692459369732

>  <Genealogy>  (93) 
C=c1[nH]c(C(=O)C2=C(C)CCC2=CC)cc1=Cc1[n-]c(=O)[n-]c1O (protonated)
C=c1[nH]c(C(=O)C2=C(C)CCC2=CC)c/c1=C\c1[n-]c(=O)[n-]c1O (cis-trans isomerization)
C=c1[nH]c(C(=O)C2=C(C)CCC2=CC)c/c1=C\c1[n-]c(=O)[n-]c1O (3D coordinates assigned)
C=c1[nH]c(C(=O)C2=C(C)CCC2=CC)c/c1=C\c1[n-]c(=O)[n-]c1O (nonaromatic ring conformer: 115.83692459369732 kcal/mol)

>  <smiles>  (93) 
C=c1[nH]c(C(=O)C2=C(C)CCC2=CC)cc1=Cc1[nH]c(=O)[nH]c1O

>  <score_type>  (93) 
oracle

>  <origin>  (93) 
adg

>  <m_score__min__energy>  (93) 
-12.859999999999999

>  <m_primary>  (93) 
energy

$$$$
93:0
     RDKit          3D

 58 60  0  0  0  0  0  0  0  0999 V2000
   63.9630   33.2030   47.7180 C   0  0  0  0  0  0  0  0  0  0  0  0
   63.3290   33.1260   48.8880 C   0  0  0  0  0  0  0  0  0  0  0  0
   61.8640   32.9990   49.0160 C   0  0  0  0  0  0  0  0  0  0  0  0
   61.4000   31.9850   49.6040 O   0  0  0  0  0  0  0  0  0  0  0  0
   60.9660   34.0060   48.5160 N   0  0  0  0  0  0  0  0  0  0  0  0
   59.5260   33.7790   48.4100 C   0  0  0  0  0  0  0  0  0  0  0  0
   59.1060   33.8000   46.9660 C   0  0  0  0  0  0  0  0  0  0  0  0
   59.2020   34.9900   46.2260 C   0  0  0  0  0  0  0  0  0  0  0  0
   58.8340   35.0110   44.8790 C   0  0  0  0  0  0  0  0  0  0  0  0
   58.3780   33.8460   44.2560 C   0  0  0  0  0  0  0  0  0  0  0  0
   58.2940   32.6460   44.9780 C   0  0  0  0  0  0  0  0  0  0  0  0
   57.7910   31.3900   44.3210 C   0  0  0  0  0  0  0  0  0  0  0  0
   56.7580   30.7720   45.1440 N   0  0  0  0  0  0  0  0  0  0  0  0
   56.3580   29.4020   45.0180 C   0  0  0  0  0  0  0  0  0  0  0  0
   55.1530   29.1250   44.7660 O   0  0  0  0  0  0  0  0  0  0  0  0
   57.3190   28.3390   45.1990 N   0  0  0  0  0  0  0  0  0  0  0  0
   57.0530   27.2680   46.1730 C   0  0  0  0  0  0  0  0  0  0  0  0
   58.0700   27.3130   47.3120 C   0  0  0  0  0  0  0  0  0  0  0  0
   59.5070   27.4120   46.8530 C   0  0  0  0  0  0  0  0  0  0  0  0
   60.2930   26.4690   47.1390 O   0  0  0  0  0  0  0  0  0  0  0  0
   60.0310   28.5880   46.2000 N   0  0  0  0  0  0  0  0  0  0  0  0
   60.6990   29.5990   47.0280 C   0  0  0  0  0  0  0  0  0  0  0  0
   60.1160   29.5920   48.4150 C   0  0  0  0  0  0  0  0  0  0  0  0
   58.9660   30.3470   48.7010 C   0  0  0  0  0  0  0  0  0  0  0  0
   58.4480   30.3800   50.0000 C   0  0  0  0  0  0  0  0  0  0  0  0
   59.0770   29.6630   51.0230 C   0  0  0  0  0  0  0  0  0  0  0  0
   58.5730   29.6940   52.2830 F   0  0  0  0  0  0  0  0  0  0  0  0
   60.2320   28.9220   50.7490 C   0  0  0  0  0  0  0  0  0  0  0  0
   60.7530   28.8890   49.4520 C   0  0  0  0  0  0  0  0  0  0  0  0
   59.7500   28.9170   44.7910 C   0  0  0  0  0  0  0  0  0  0  0  0
   58.4570   28.2660   44.2660 C   0  0  0  0  0  0  0  0  0  0  0  0
   58.6580   32.6290   46.3350 C   0  0  0  0  0  0  0  0  0  0  0  0
   65.0587   33.2966   47.6913 H   0  0  0  0  0  0  0  0  0  0  0  0
   63.3905   33.1729   46.7792 H   0  0  0  0  0  0  0  0  0  0  0  0
   63.9304   33.1589   49.8084 H   0  0  0  0  0  0  0  0  0  0  0  0
   61.3290   34.9500   48.2610 H   0  0  0  0  0  0  0  0  0  0  0  0
   59.2785   32.8003   48.8470 H   0  0  0  0  0  0  0  0  0  0  0  0
   58.9945   34.5752   48.9519 H   0  0  0  0  0  0  0  0  0  0  0  0
   59.5681   35.9080   46.7089 H   0  0  0  0  0  0  0  0  0  0  0  0
   58.9033   35.9477   44.3064 H   0  0  0  0  0  0  0  0  0  0  0  0
   58.0840   33.8700   43.1963 H   0  0  0  0  0  0  0  0  0  0  0  0
   57.3704   31.6385   43.3354 H   0  0  0  0  0  0  0  0  0  0  0  0
   58.6275   30.6852   44.2046 H   0  0  0  0  0  0  0  0  0  0  0  0
   56.0417   27.3977   46.5859 H   0  0  0  0  0  0  0  0  0  0  0  0
   57.1339   26.2966   45.6632 H   0  0  0  0  0  0  0  0  0  0  0  0
   57.8469   28.1882   47.9399 H   0  0  0  0  0  0  0  0  0  0  0  0
   57.9764   26.3630   47.8585 H   0  0  0  0  0  0  0  0  0  0  0  0
   61.7741   29.3729   47.0832 H   0  0  0  0  0  0  0  0  0  0  0  0
   60.5503   30.5916   46.5778 H   0  0  0  0  0  0  0  0  0  0  0  0
   58.4707   30.9148   47.8996 H   0  0  0  0  0  0  0  0  0  0  0  0
   57.5455   30.9702   50.2170 H   0  0  0  0  0  0  0  0  0  0  0  0
   60.7309   28.3645   51.5554 H   0  0  0  0  0  0  0  0  0  0  0  0
   61.6649   28.3106   49.2424 H   0  0  0  0  0  0  0  0  0  0  0  0
   59.6549   30.0090   44.6985 H   0  0  0  0  0  0  0  0  0  0  0  0
   60.5831   28.5242   44.1896 H   0  0  0  0  0  0  0  0  0  0  0  0
   58.1704   28.7730   43.3328 H   0  0  0  0  0  0  0  0  0  0  0  0
   58.6781   27.1981   44.1220 H   0  0  0  0  0  0  0  0  0  0  0  0
   58.5914   31.6916   46.9067 H   0  0  0  0  0  0  0  0  0  0  0  0
  1  2  2  0
  2  3  1  0
  3  4  2  0
  3  5  1  0
  5  6  1  0
  6  7  1  0
  7  8  2  0
  8  9  1  0
  9 10  2  0
 10 11  1  0
 11 12  1  0
 12 13  1  0
 13 14  1  0
 14 15  2  0
 14 16  1  0
 16 17  1  0
 17 18  1  0
 18 19  1  0
 19 20  2  0
 19 21  1  0
 21 22  1  0
 22 23  1  0
 23 24  2  0
 24 25  1  0
 25 26  2  0
 26 27  1  0
 26 28  1  0
 28 29  2  0
 21 30  1  0
 30 31  1  0
 11 32  2  0
 32  7  1  0
 31 16  1  0
 29 23  1  0
  1 33  1  0
  1 34  1  0
  2 35  1  0
  5 36  1  0
  6 37  1  0
  6 38  1  0
  8 39  1  0
  9 40  1  0
 10 41  1  0
 12 42  1  0
 12 43  1  0
 17 44  1  0
 17 45  1  0
 18 46  1  0
 18 47  1  0
 22 48  1  0
 22 49  1  0
 24 50  1  0
 25 51  1  0
 28 52  1  0
 29 53  1  0
 30 54  1  0
 30 55  1  0
 31 56  1  0
 31 57  1  0
 32 58  1  0
M  CHG  1  13  -1
M  END
>  <UniqueID>  (94) 
88

>  <SMILES>  (94) 
C=CC(=O)NCc1cccc(C[N-]C(=O)N2CCC(=O)N(Cc3ccc(F)cc3)CC2)c1

>  <Energy>  (94) 
59.0708203387201

>  <Genealogy>  (94) 
C=CC(=O)NCc1cccc(C[N-]C(=O)N2CCC(=O)N(Cc3ccc(F)cc3)CC2)c1 (protonated)
C=CC(=O)NCc1cccc(C[N-]C(=O)N2CCC(=O)N(Cc3ccc(F)cc3)CC2)c1 (3D coordinates assigned)
C=CC(=O)NCc1cccc(C[N-]C(=O)N2CCC(=O)N(Cc3ccc(F)cc3)CC2)c1 (nonaromatic ring conformer: 59.0708203387201 kcal/mol)

>  <smiles>  (94) 
C=CC(=O)NCc1cccc(CNC(=O)N2CCC(=O)N(Cc3ccc(F)cc3)CC2)c1

>  <score_type>  (94) 
oracle

>  <origin>  (94) 
adg

>  <m_score__min__energy>  (94) 
-7.5499999999999998

>  <m_primary>  (94) 
energy

$$$$
